Measured thermophysical data. Water in Solutions of Chaotropic and Kosmotropic Salts: A Differential Scanning Calorimetry Investigation
Source: J. Chem. Eng. Data, 2019, 10.1021/acs.jced.9b00222
Compound 1: 1-butyl-3-methylimidazolium chloride, C8H15ClN2, InChI=1S/C8H15N2.ClH/c1-3-4-5-10-7-6-9(2)8-10;/h6-8H,3-5H2,1-2H3;1H/q+1;/p-1, purity 99.5%
Compound 2: tripotassium phosphate, K3O4P, InChI=1S/3K.H3O4P/c;;;1-5(2,3)4/h;;;(H3,1,2,3,4)/q3*+1;/p-3, purity 98%
Compound 3: ammonium sulfate, H8N2O4S, InChI=1S/2H3N.H2O4S/c;;1-5(2,3)4/h2*1H3;(H2,1,2,3,4), purity 99%
Compound 4: water, H2O, InChI=1S/H2O/h1H2, purity 99.9%

System: tripotassium phosphate + water; phases: Liquid, Crystal
Fixed: Pressure, kPa = 100
Property: Solid-liquid equilibrium temperature, K (Liquid); method: DTA
Mass fraction of tripotassium phosphate	Solid-liquid equilibrium temperature, K	uncertainty
0	271	3
0.05	266.8	3
0.1	263.8	3
0.2	253.2	3
0.3	243.8	3

System: tripotassium phosphate + water; phases: Liquid, Crystal, Crystal of intercomponent compound 1
Property: Eutectic temperature, K (Liquid); method: DTA
Pressure, kPa	Eutectic temperature, K	uncertainty
100	235.2	3

System: 1-butyl-3-methylimidazolium chloride + water; phases: Liquid, Crystal
Fixed: Pressure, kPa = 100
Property: Solid-liquid equilibrium temperature, K (Liquid); method: DTA
Mass fraction of 1-butyl-3-methylimidazolium chloride	Solid-liquid equilibrium temperature, K	uncertainty
0	270.5	3
0.05	268.3	3
0.1	265.5	3
0.2	259.5	3
0.3	252.4	3
0.4	247.3	3

System: ammonium sulfate + water; phases: Liquid, Crystal
Fixed: Pressure, kPa = 100
Property: Solid-liquid equilibrium temperature, K (Liquid); method: DTA
Mass fraction of ammonium sulfate	Solid-liquid equilibrium temperature, K	uncertainty
0	272.6	3
0.1	265.2	3
0.2	262.6	3

System: ammonium sulfate + water; phases: Liquid, Crystal, Crystal of intercomponent compound 1
Property: Eutectic temperature, K (Liquid); method: DTA
Pressure, kPa	Eutectic temperature, K	uncertainty
100	254.5	3
