Measured thermophysical data. Experimental Determination and Thermodynamic Models for Solid-Liquid Equilibrium of 4-(4-Aminophenoxy)-N-methylpyridine-2-carboxamide in Pure and Binary Solvent Mixtures for T = (278.15-328.15) K
Source: J. Chem. Eng. Data, 2018, 10.1021/acs.jced.8b00165
Compound 1: 4-(4-aminophenoxy)-N-methylpyridine-2-carboxamide, C13H13N3O2, InChI=1S/C13H13N3O2/c1-15-13(17)12-8-11(6-7-16-12)18-10-4-2-9(14)3-5-10/h2-8H,14H2,1H3,(H,15,17), purity 98%
Compound 2: methanol, CH4O, InChI=1S/CH4O/c1-2/h2H,1H3, purity 99.7%
Compound 3: ethanol, C2H6O, InChI=1S/C2H6O/c1-2-3/h3H,2H2,1H3, purity 99%
Compound 4: propan-1-ol, C3H8O, InChI=1S/C3H8O/c1-2-3-4/h4H,2-3H2,1H3, purity 99.5%
Compound 5: butan-1-ol, C4H10O, InChI=1S/C4H10O/c1-2-3-4-5/h5H,2-4H2,1H3, purity 99.5%
Compound 6: ethyl acetate, C4H8O2, InChI=1S/C4H8O2/c1-3-6-4(2)5/h3H2,1-2H3, purity 99.5%
Compound 7: acetonitrile, C2H3N, InChI=1S/C2H3N/c1-2-3/h1H3, purity 99%
Compound 8: tetrahydrofuran, C4H8O, InChI=1S/C4H8O/c1-2-4-5-3-1/h1-4H2, purity 99%

System: 4-(4-aminophenoxy)-N-methylpyridine-2-carboxamide; phases: Crystal, Liquid, Air at 1 atmosphere
Property: Normal melting temperature, K (Crystal); method: DTA
Normal melting temperature, K	uncertainty
390.15	1.06

System: 4-(4-aminophenoxy)-N-methylpyridine-2-carboxamide + tetrahydrofuran; phases: Liquid, Crystal
Fixed: Pressure, kPa = 101.3
Property: Mass fraction of 4-(4-aminophenoxy)-N-methylpyridine-2-carboxamide (Liquid); method: gravimetric
Temperature, K	Mass fraction of 4-(4-aminophenoxy)-N-methylpyridine-2-carboxamide	uncertainty
278.15	0.2496	0.03
283.15	0.2678	0.0321
288.15	0.2894	0.0347
293.15	0.312	0.0374
298.15	0.3338	0.0401
303.15	0.3604	0.0433
308.15	0.3875	0.0465
313.15	0.4132	0.0496
318.15	0.4453	0.0534
323.15	0.4741	0.0569
328.15	0.5063	0.0593

System: 4-(4-aminophenoxy)-N-methylpyridine-2-carboxamide + ethyl acetate; phases: Liquid, Crystal
Fixed: Pressure, kPa = 101.3
Property: Mass fraction of 4-(4-aminophenoxy)-N-methylpyridine-2-carboxamide (Liquid); method: gravimetric
Temperature, K	Mass fraction of 4-(4-aminophenoxy)-N-methylpyridine-2-carboxamide	uncertainty
278.15	0.1333	0.016
283.15	0.1581	0.019
288.15	0.1879	0.0226
293.15	0.2184	0.0262
298.15	0.255	0.0306
303.15	0.2902	0.0348
308.15	0.3302	0.0396
313.15	0.3759	0.0451
318.15	0.4193	0.0503
323.15	0.4637	0.0557
328.15	0.518	0.0579

System: 4-(4-aminophenoxy)-N-methylpyridine-2-carboxamide + acetonitrile; phases: Liquid, Crystal
Fixed: Pressure, kPa = 101.3
Property: Mass fraction of 4-(4-aminophenoxy)-N-methylpyridine-2-carboxamide (Liquid); method: gravimetric
Temperature, K	Mass fraction of 4-(4-aminophenoxy)-N-methylpyridine-2-carboxamide	uncertainty
278.15	0.1426	0.0171
283.15	0.1626	0.0195
288.15	0.1956	0.0235
293.15	0.2341	0.0281
298.15	0.2726	0.0327
303.15	0.3204	0.0385
308.15	0.3688	0.0443
313.15	0.421	0.0505
318.15	0.4757	0.0571
323.15	0.533	0.0561
328.15	0.5894	0.0493

System: 4-(4-aminophenoxy)-N-methylpyridine-2-carboxamide + butan-1-ol; phases: Liquid, Crystal
Fixed: Pressure, kPa = 101.3
Property: Mass fraction of 4-(4-aminophenoxy)-N-methylpyridine-2-carboxamide (Liquid); method: gravimetric
Temperature, K	Mass fraction of 4-(4-aminophenoxy)-N-methylpyridine-2-carboxamide	uncertainty
278.15	0.01049	0.00126
283.15	0.0143	0.00172
288.15	0.01824	0.00219
293.15	0.02518	0.00303
298.15	0.03165	0.0038
303.15	0.04193	0.00504
308.15	0.05413	0.0065
313.15	0.06926	0.00832
318.15	0.08834	0.01061
323.15	0.1108	0.0133
328.15	0.1383	0.0166

System: 4-(4-aminophenoxy)-N-methylpyridine-2-carboxamide + propan-1-ol; phases: Liquid, Crystal
Fixed: Pressure, kPa = 101.3
Property: Mass fraction of 4-(4-aminophenoxy)-N-methylpyridine-2-carboxamide (Liquid); method: gravimetric
Temperature, K	Mass fraction of 4-(4-aminophenoxy)-N-methylpyridine-2-carboxamide	uncertainty
278.15	0.01801	0.00216
283.15	0.02358	0.00283
288.15	0.03076	0.0037
293.15	0.04361	0.00524
298.15	0.05245	0.0063
303.15	0.06955	0.00836
308.15	0.0893	0.01073
313.15	0.1138	0.0137
318.15	0.1432	0.0172
323.15	0.1764	0.0212
328.15	0.2163	0.026

System: 4-(4-aminophenoxy)-N-methylpyridine-2-carboxamide + ethanol; phases: Liquid, Crystal
Fixed: Pressure, kPa = 101.3
Property: Mass fraction of 4-(4-aminophenoxy)-N-methylpyridine-2-carboxamide (Liquid); method: gravimetric
Temperature, K	Mass fraction of 4-(4-aminophenoxy)-N-methylpyridine-2-carboxamide	uncertainty
278.15	0.02782	0.00334
283.15	0.03624	0.00435
288.15	0.04645	0.00558
293.15	0.06782	0.00815
298.15	0.08788	0.01056
303.15	0.1189	0.0143
308.15	0.1533	0.0184
313.15	0.1954	0.0235
318.15	0.2478	0.0298
323.15	0.304	0.0365
328.15	0.3694	0.0444

System: 4-(4-aminophenoxy)-N-methylpyridine-2-carboxamide + methanol; phases: Liquid, Crystal
Fixed: Pressure, kPa = 101.3
Property: Mass fraction of 4-(4-aminophenoxy)-N-methylpyridine-2-carboxamide (Liquid); method: gravimetric
Temperature, K	Mass fraction of 4-(4-aminophenoxy)-N-methylpyridine-2-carboxamide	uncertainty
278.15	0.05831	0.00702
283.15	0.08273	0.00994
288.15	0.1084	0.013
293.15	0.1359	0.0163
298.15	0.1773	0.0213
303.15	0.2255	0.0271
308.15	0.2803	0.0337
313.15	0.3393	0.0407
318.15	0.4043	0.0485
323.15	0.4716	0.0566
328.15	0.5408	0.0551

System: 4-(4-aminophenoxy)-N-methylpyridine-2-carboxamide + ethyl acetate + butan-1-ol; phases: Liquid, Crystal
Fixed: Pressure, kPa = 101.3
Property: Mole fraction of 4-(4-aminophenoxy)-N-methylpyridine-2-carboxamide (Liquid); method: gravimetric
Solvent: Mole fraction of ethyl acetate	Temperature, K	Mole fraction of 4-(4-aminophenoxy)-N-methylpyridine-2-carboxamide	uncertainty
0	278.15	0.00322	0.000387
0.1394	278.15	0.00594	0.000713
0.2823	278.15	0.01241	0.00149
0.4289	278.15	0.0194	0.00233
0.5793	278.15	0.02397	0.00288
0.7336	278.15	0.03356	0.00403
0.892	278.15	0.04031	0.00484
1	278.15	0.05276	0.00634
0	283.15	0.0044	0.000529
0.1394	283.15	0.0076	0.000913
0.2823	283.15	0.01498	0.0018
0.4289	283.15	0.02306	0.00277
0.5793	283.15	0.02917	0.0035
0.7336	283.15	0.03976	0.00477
0.892	283.15	0.04951	0.00595
1	283.15	0.06369	0.00765
0	288.15	0.00563	0.000677
0.1394	288.15	0.00959	0.001152
0.2823	288.15	0.01847	0.00222
0.4289	288.15	0.02731	0.00328
0.5793	288.15	0.03506	0.00421
0.7336	288.15	0.04737	0.00569
0.892	288.15	0.05938	0.00713
1	288.15	0.0773	0.00928
0	293.15	0.00781	0.000938
0.1394	293.15	0.01217	0.00146
0.2823	293.15	0.02228	0.00268
0.4289	293.15	0.03297	0.00396
0.5793	293.15	0.04173	0.00501
0.7336	293.15	0.05618	0.00675
0.892	293.15	0.07157	0.00859
1	293.15	0.0919	0.01103
0	298.15	0.00986	0.001185
0.1394	298.15	0.01542	0.00185
0.2823	298.15	0.02723	0.00327
0.4289	298.15	0.03957	0.00475
0.5793	298.15	0.0506	0.00608
0.7336	298.15	0.06655	0.00799
0.892	298.15	0.08548	0.01026
1	298.15	0.1103	0.0132
0	303.15	0.01316	0.00158
0.1394	303.15	0.01939	0.00233
0.2823	303.15	0.03282	0.00394
0.4289	303.15	0.04637	0.00557
0.5793	303.15	0.06048	0.00726
0.7336	303.15	0.07899	0.00948
0.892	303.15	0.1029	0.0124
1	303.15	0.129	0.0155
0	308.15	0.01714	0.00206
0.1394	308.15	0.02494	0.003
0.2823	308.15	0.03993	0.00479
0.4289	308.15	0.0553	0.00664
0.5793	308.15	0.07282	0.00874
0.7336	308.15	0.09365	0.01124
0.892	308.15	0.123	0.0148
1	308.15	0.1515	0.0182
0	313.15	0.02217	0.00266
0.1394	313.15	0.03112	0.00374
0.2823	313.15	0.04814	0.00578
0.4289	313.15	0.06596	0.00792
0.5793	313.15	0.08641	0.01038
0.7336	313.15	0.1102	0.0132
0.892	313.15	0.144	0.0173
1	313.15	0.1791	0.0215
0	318.15	0.02868	0.00345
0.1394	318.15	0.03908	0.00469
0.2823	318.15	0.0583	0.007
0.4289	318.15	0.07868	0.00945
0.5793	318.15	0.1024	0.0123
0.7336	318.15	0.13	0.0156
0.892	318.15	0.172	0.0207
1	318.15	0.2073	0.0249
0	323.15	0.03657	0.00439
0.1394	323.15	0.04935	0.00593
0.2823	323.15	0.07096	0.00852
0.4289	323.15	0.09383	0.01127
0.5793	323.15	0.1207	0.0145
0.7336	323.15	0.153	0.0184
0.892	323.15	0.2017	0.0242
1	323.15	0.2385	0.0286
0	328.15	0.04663	0.0056
0.1394	328.15	0.06183	0.00743
0.2823	328.15	0.08545	0.01026
0.4289	328.15	0.112	0.0134
0.5793	328.15	0.1429	0.0172
0.7336	328.15	0.1779	0.0214
0.892	328.15	0.2354	0.0283
1	328.15	0.2802	0.0336

System: 4-(4-aminophenoxy)-N-methylpyridine-2-carboxamide + ethyl acetate + ethanol; phases: Liquid, Crystal
Fixed: Pressure, kPa = 101.3
Property: Mole fraction of 4-(4-aminophenoxy)-N-methylpyridine-2-carboxamide (Liquid); method: gravimetric
Solvent: Mole fraction of ethyl acetate	Temperature, K	Mole fraction of 4-(4-aminophenoxy)-N-methylpyridine-2-carboxamide	uncertainty
0	278.15	0.00539	0.000648
0.1394	278.15	0.00876	0.001052
0.2823	278.15	0.0138	0.00166
0.4289	278.15	0.01851	0.00222
0.5793	278.15	0.02658	0.00319
0.7336	278.15	0.03701	0.00444
0.892	278.15	0.04436	0.00533
1	278.15	0.05276	0.00634
0	283.15	0.00707	0.000849
0.1394	283.15	0.01125	0.00135
0.2823	283.15	0.01746	0.0021
0.4289	283.15	0.02306	0.00277
0.5793	283.15	0.03202	0.00384
0.7336	283.15	0.04253	0.00511
0.892	283.15	0.05218	0.00626
1	283.15	0.06369	0.00765
0	288.15	0.00914	0.001099
0.1394	288.15	0.01446	0.00174
0.2823	288.15	0.022	0.00264
0.4289	288.15	0.02909	0.00349
0.5793	288.15	0.03857	0.00463
0.7336	288.15	0.04919	0.00591
0.892	288.15	0.0606	0.00728
1	288.15	0.0773	0.00928
0	293.15	0.01359	0.00163
0.1394	293.15	0.01876	0.00225
0.2823	293.15	0.02757	0.00331
0.4289	293.15	0.03635	0.00437
0.5793	293.15	0.04708	0.00565
0.7336	293.15	0.05754	0.00691
0.892	293.15	0.07208	0.00865
1	293.15	0.0919	0.01103
0	298.15	0.01792	0.00215
0.1394	298.15	0.02427	0.00292
0.2823	298.15	0.03502	0.00421
0.4289	298.15	0.04535	0.00545
0.5793	298.15	0.05731	0.00688
0.7336	298.15	0.06838	0.00821
0.892	298.15	0.08592	0.01032
1	298.15	0.1103	0.0132
0	303.15	0.02493	0.003
0.1394	303.15	0.03153	0.00379
0.2823	303.15	0.04429	0.00532
0.4289	303.15	0.05636	0.00677
0.5793	303.15	0.07026	0.00844
0.7336	303.15	0.08174	0.00982
0.892	303.15	0.1021	0.0123
1	303.15	0.129	0.0155
0	308.15	0.03314	0.00398
0.1394	308.15	0.04152	0.00499
0.2823	308.15	0.05628	0.00676
0.4289	308.15	0.07016	0.00843
0.5793	308.15	0.08517	0.01023
0.7336	308.15	0.0989	0.01188
0.892	308.15	0.1214	0.0146
1	308.15	0.1515	0.0182
0	313.15	0.04398	0.00528
0.1394	313.15	0.05361	0.00644
0.2823	313.15	0.07083	0.00851
0.4289	313.15	0.08786	0.01055
0.5793	313.15	0.1051	0.0126
0.7336	313.15	0.1205	0.0145
0.892	313.15	0.1437	0.0173
1	313.15	0.1791	0.0215
0	318.15	0.05873	0.00706
0.1394	318.15	0.07069	0.00849
0.2823	318.15	0.08976	0.01078
0.4289	318.15	0.1071	0.0129
0.5793	318.15	0.1295	0.0156
0.7336	318.15	0.1457	0.0175
0.892	318.15	0.1727	0.0207
1	318.15	0.2073	0.0249
0	323.15	0.0764	0.00918
0.1394	323.15	0.09271	0.01114
0.2823	323.15	0.1129	0.0136
0.4289	323.15	0.1335	0.016
0.5793	323.15	0.1575	0.0189
0.7336	323.15	0.1798	0.0216
0.892	323.15	0.2063	0.0248
1	323.15	0.2385	0.0286
0	328.15	0.09987	0.012
0.1394	328.15	0.1212	0.0146
0.2823	328.15	0.1425	0.0171
0.4289	328.15	0.1636	0.0196
0.5793	328.15	0.1942	0.0233
0.7336	328.15	0.2218	0.0266
0.892	328.15	0.2465	0.0296
1	328.15	0.2802	0.0336

System: 4-(4-aminophenoxy)-N-methylpyridine-2-carboxamide + ethyl acetate + methanol; phases: Liquid, Crystal
Fixed: Pressure, kPa = 101.3
Property: Mole fraction of 4-(4-aminophenoxy)-N-methylpyridine-2-carboxamide (Liquid); method: gravimetric
Solvent: Mole fraction of ethyl acetate	Temperature, K	Mole fraction of 4-(4-aminophenoxy)-N-methylpyridine-2-carboxamide	uncertainty
0	278.15	0.00809	0.000974
0.1394	278.15	0.0133	0.0016
0.2823	278.15	0.01778	0.00214
0.4289	278.15	0.02051	0.00246
0.5793	278.15	0.02738	0.00329
0.7336	278.15	0.03546	0.00426
0.892	278.15	0.04524	0.00543
1	278.15	0.05276	0.00634
0	283.15	0.01174	0.00141
0.1394	283.15	0.01699	0.00204
0.2823	283.15	0.02235	0.00268
0.4289	283.15	0.02626	0.00315
0.5793	283.15	0.03433	0.00412
0.7336	283.15	0.04242	0.00509
0.892	283.15	0.05321	0.00639
1	283.15	0.06369	0.00765
0	288.15	0.01576	0.00189
0.1394	288.15	0.02153	0.00259
0.2823	288.15	0.0279	0.00335
0.4289	288.15	0.03321	0.00399
0.5793	288.15	0.04241	0.00509
0.7336	288.15	0.05124	0.00615
0.892	288.15	0.06319	0.00759
1	288.15	0.0773	0.00928
0	293.15	0.02029	0.00244
0.1394	293.15	0.02768	0.00332
0.2823	293.15	0.03508	0.00421
0.4289	293.15	0.04203	0.00505
0.5793	293.15	0.0526	0.00632
0.7336	293.15	0.06135	0.00737
0.892	293.15	0.0754	0.00905
1	293.15	0.0919	0.01103
0	298.15	0.0276	0.00332
0.1394	298.15	0.03528	0.00424
0.2823	298.15	0.04374	0.00525
0.4289	298.15	0.05286	0.00635
0.5793	298.15	0.0649	0.00779
0.7336	298.15	0.0745	0.00895
0.892	298.15	0.08903	0.01069
1	298.15	0.1103	0.0132
0	303.15	0.03694	0.00444
0.1394	303.15	0.04508	0.00542
0.2823	303.15	0.05472	0.00657
0.4289	303.15	0.06543	0.00786
0.5793	303.15	0.07895	0.00948
0.7336	303.15	0.08992	0.0108
0.892	303.15	0.1064	0.0128
1	303.15	0.129	0.0155
0	308.15	0.0488	0.00586
0.1394	308.15	0.05758	0.00692
0.2823	308.15	0.0687	0.00825
0.4289	308.15	0.08153	0.00979
0.5793	308.15	0.09707	0.01166
0.7336	308.15	0.1081	0.013
0.892	308.15	0.1256	0.0151
1	308.15	0.1515	0.0182
0	313.15	0.06336	0.00761
0.1394	313.15	0.07278	0.00874
0.2823	313.15	0.08513	0.01022
0.4289	313.15	0.1002	0.012
0.5793	313.15	0.1173	0.0141
0.7336	313.15	0.1303	0.0156
0.892	313.15	0.1491	0.0179
1	313.15	0.1791	0.0215
0	318.15	0.08205	0.00986
0.1394	318.15	0.09277	0.01114
0.2823	318.15	0.1057	0.0127
0.4289	318.15	0.1217	0.0146
0.5793	318.15	0.1395	0.0168
0.7336	318.15	0.156	0.0187
0.892	318.15	0.177	0.0213
1	318.15	0.2073	0.0249
0	323.15	0.1052	0.0126
0.1394	323.15	0.1172	0.0141
0.2823	323.15	0.1309	0.0157
0.4289	323.15	0.1475	0.0177
0.5793	323.15	0.1672	0.0201
0.7336	323.15	0.1885	0.0226
0.892	323.15	0.2102	0.0252
1	323.15	0.2385	0.0286
0	328.15	0.1343	0.0161
0.1394	328.15	0.1505	0.0181
0.2823	328.15	0.1617	0.0194
0.4289	328.15	0.1808	0.0217
0.5793	328.15	0.1997	0.024
0.7336	328.15	0.2255	0.0271
0.892	328.15	0.2544	0.0305
1	328.15	0.2802	0.0336
