Measured thermophysical data. Solubility of n-Hexane and Setchenov's Constants in Aqueous Solutions of KCl, NaCl, NaBr, and NaNO3
Source: J. Chem. Eng. Data, 2019, 10.1021/acs.jced.9b00384
Compound 1: hexane, C6H14, InChI=1S/C6H14/c1-3-5-6-4-2/h3-6H2,1-2H3, purity 99%
Compound 2: sodium chloride, ClNa, InChI=1S/ClH.Na/h1H;/q;+1/p-1, purity 99%
Compound 3: sodium bromide, BrNa, InChI=1S/BrH.Na/h1H;/q;+1/p-1, purity 99%
Compound 4: sodium nitrate, NNaO3, InChI=1S/NO3.Na/c2-1(3)4;/q-1;+1, purity 99%
Compound 5: potassium chloride, ClK, InChI=1S/ClH.K/h1H;/q;+1/p-1, purity 99%
Compound 6: water, H2O, InChI=1S/H2O/h1H2, purity 99.8%

System: hexane + sodium nitrate + water; phases: Liquid mixture 1, Liquid mixture 2
Fixed: Temperature, K = 298.15
Fixed: Pressure, kPa = 101.2
Property: Mass fraction of hexane (Liquid mixture 1); method: chromatography
Solvent: Mass fraction of sodium nitrate	Mass fraction of hexane	uncertainty
0.0206	8.57e-06	2.8e-07
0.043	7.15e-06	2.4e-07
0.0786	5.43e-06	2.1e-07
0.1177	4.14e-06	1.8e-07
0.1515	3.3e-06	1.6e-07
0.1867	2.71e-06	1.6e-07
0.2204	2.07e-06	1.5e-07

System: hexane + sodium bromide + water; phases: Liquid mixture 1, Liquid mixture 2
Fixed: Temperature, K = 298.15
Fixed: Pressure, kPa = 101.2
Property: Mass fraction of hexane (Liquid mixture 1); method: chromatography
Solvent: Mass fraction of sodium bromide	Mass fraction of hexane	uncertainty
0.0295	8.15e-06	2.8e-07
0.0496	6.79e-06	2.3e-07
0.0967	4.97e-06	2e-07
0.1357	3.59e-06	1.7e-07
0.1804	2.58e-06	1.6e-07
0.2146	1.89e-06	1.5e-07
0.2458	1.55e-06	1.5e-07

System: hexane + potassium chloride + water; phases: Liquid mixture 1, Liquid mixture 2
Fixed: Temperature, K = 298.15
Fixed: Pressure, kPa = 101.2
Property: Mass fraction of hexane (Liquid mixture 1); method: chromatography
Solvent: Mass fraction of potassium chloride	Mass fraction of hexane	uncertainty
0.0094	9.27e-06	3e-07
0.072	4.65e-06	2.3e-07
0.105	3.36e-06	1.8e-07
0.1416	2.32e-06	1.6e-07
0.1987	1.23e-06	1.5e-07

System: hexane + sodium chloride + water; phases: Liquid mixture 1, Liquid mixture 2
Fixed: Temperature, K = 298.15
Fixed: Pressure, kPa = 101.2
Property: Mass fraction of hexane (Liquid mixture 1); method: chromatography
Solvent: Mass fraction of sodium chloride	Mass fraction of hexane	uncertainty
0.0157	7.97e-06	3.6e-07
0.0293	6.36e-06	2.8e-07
0.0575	4.33e-06	2.2e-07
0.0857	2.94e-06	1.8e-07
0.1083	2.17e-06	1.7e-07
0.1341	1.33e-06	1.5e-07
0.1577	1.23e-06	1.4e-07
