Measured thermophysical data. Solid-Liquid Phase Equilibrium and Thermodynamic Properties of Olaparib in Selected Organic Solvents and (Tetrahydrofuran + MTBE, Acetonitrile + Isopropyl Alcohol) Binary Solvent Mixtures
Source: J. Chem. Eng. Data, 2017, 10.1021/acs.jced.7b00489
Compound 1: olaparib, C24H23FN4O3, InChI=1S/C24H23FN4O3/c25-20-8-5-15(14-21-17-3-1-2-4-18(17)22(30)27-26-21)13-19(20)24(32)29-11-9-28(10-12-29)23(31)16-6-7-16/h1-5,8,13,16H,6-7,9-12,14H2,(H,27,30), purity 98%
Compound 2: tetrahydrofuran, C4H8O, InChI=1S/C4H8O/c1-2-4-5-3-1/h1-4H2, purity 99%
Compound 3: acetonitrile, C2H3N, InChI=1S/C2H3N/c1-2-3/h1H3, purity 99.5%
Compound 4: 2-methoxy-2-methylpropane, C5H12O, InChI=1S/C5H12O/c1-5(2,3)6-4/h1-4H3, purity 99.5%
Compound 5: propan-2-ol, C3H8O, InChI=1S/C3H8O/c1-3(2)4/h3-4H,1-2H3, purity 99%

System: olaparib; phases: Crystal, Liquid, Air at 1 atmosphere
Property: Triple point temperature, K (Crystal); method: DSC
Triple point temperature, K	uncertainty
471.65	1.84

System: olaparib + 2-methoxy-2-methylpropane; phases: Liquid, Crystal
Fixed: Pressure, kPa = 100
Property: Mole fraction of olaparib (Liquid); method: gravimetric
Temperature, K	Mole fraction of olaparib	uncertainty
280.35	0.00772	0.00302
284.35	0.01029	0.00303
288.35	0.01341	0.00305
292.35	0.0177	0.0031
296.35	0.02362	0.00313
300.35	0.02969	0.00317
303.35	0.03553	0.00334
307.35	0.04657	0.00341
311.35	0.05709	0.00354
315.35	0.07151	0.00395
319.35	0.09127	0.00422

System: olaparib + propan-2-ol; phases: Liquid, Crystal
Fixed: Pressure, kPa = 100
Property: Mole fraction of olaparib (Liquid); method: gravimetric
Temperature, K	Mole fraction of olaparib	uncertainty
280.35	0.00976	0.00304
284.35	0.01311	0.00305
288.35	0.01721	0.00309
292.35	0.02287	0.00317
296.35	0.03072	0.00323
300.35	0.0388	0.00329
303.35	0.04659	0.00358
307.35	0.06131	0.0037
311.35	0.07532	0.0039
315.35	0.09446	0.00453
319.35	0.12051	0.00493

System: olaparib + acetonitrile; phases: Liquid, Crystal
Fixed: Pressure, kPa = 100
Property: Mole fraction of olaparib (Liquid); method: gravimetric
Temperature, K	Mole fraction of olaparib	uncertainty
280.35	0.01349	0.00309
284.35	0.01831	0.00311
288.35	0.02424	0.00318
292.35	0.0325	0.00335
296.35	0.04399	0.00347
300.35	0.05584	0.0036
303.35	0.06726	0.00414
307.35	0.08879	0.00435
311.35	0.10913	0.00468
315.35	0.13667	0.00569
319.35	0.17354	0.0063

System: olaparib + tetrahydrofuran; phases: Liquid, Crystal
Fixed: Pressure, kPa = 100
Property: Mole fraction of olaparib (Liquid); method: gravimetric
Temperature, K	Mole fraction of olaparib	uncertainty
280.35	0.02024	0.00319
284.35	0.02746	0.00324
288.35	0.03637	0.0034
292.35	0.04874	0.00373
296.35	0.06598	0.00399
300.35	0.08376	0.00423
303.35	0.10089	0.00522
307.35	0.13318	0.00559
311.35	0.1637	0.00618
315.35	0.20501	0.00785
319.35	0.2603	0.00884

System: olaparib + tetrahydrofuran + 2-methoxy-2-methylpropane; phases: Liquid, Crystal
Fixed: Pressure, kPa = 100
Property: Mole fraction of olaparib (Liquid); method: gravimetric
Temperature, K	Solvent: Mole fraction of tetrahydrofuran	Mole fraction of olaparib	uncertainty
280.35	0	0.00772	0.00049
280.35	0.09	0.00812	0.00052
280.35	0.194	0.00884	0.00058
280.35	0.315	0.00971	0.00063
280.35	0.458	0.01091	0.00071
280.35	0.628	0.01242	0.00074
280.35	0.941	0.01785	0.00117
280.35	1	0.02024	0.00135
284.35	0	0.01029	0.00059
284.35	0.09	0.01091	0.00064
284.35	0.194	0.01188	0.0007
284.35	0.315	0.01305	0.00076
284.35	0.458	0.01467	0.00086
284.35	0.628	0.0167	0.00098
284.35	0.941	0.024	0.00141
284.35	1	0.02746	0.00164
288.35	0	0.01341	0.00077
288.35	0.09	0.01434	0.00083
288.35	0.194	0.01561	0.00091
288.35	0.315	0.01715	0.001
288.35	0.458	0.01927	0.00113
288.35	0.628	0.02194	0.00128
288.35	0.941	0.03153	0.00185
288.35	1	0.03637	0.00216
292.35	0	0.0177	0.00104
292.35	0.09	0.01887	0.00112
292.35	0.194	0.02076	0.00123
292.35	0.315	0.02281	0.00138
292.35	0.458	0.02563	0.00155
292.35	0.628	0.02909	0.00174
292.35	0.941	0.04194	0.00251
292.35	1	0.04874	0.00296
296.35	0	0.02362	0.00131
296.35	0.09	0.02531	0.00141
296.35	0.194	0.02773	0.00153
296.35	0.315	0.03097	0.00173
296.35	0.458	0.03469	0.00194
296.35	0.628	0.03924	0.00216
296.35	0.941	0.05638	0.00319
296.35	1	0.06598	0.00373
300.35	0	0.02969	0.00156
300.35	0.09	0.03197	0.00166
300.35	0.194	0.03478	0.00182
300.35	0.315	0.03896	0.00201
300.35	0.458	0.04367	0.00229
300.35	0.628	0.04876	0.00264
300.35	0.941	0.07194	0.00387
300.35	1	0.08376	0.00448
303.35	0	0.03553	0.00204
303.35	0.09	0.03768	0.00214
303.35	0.194	0.0414	0.00238
303.35	0.315	0.04589	0.0026
303.35	0.458	0.05203	0.00295
303.35	0.628	0.05978	0.0035
303.35	0.941	0.08666	0.00544
303.35	1	0.10089	0.00588
307.35	0	0.04657	0.00247
307.35	0.09	0.04939	0.00262
307.35	0.194	0.05442	0.00289
307.35	0.315	0.06013	0.00319
307.35	0.458	0.06777	0.00358
307.35	0.628	0.07868	0.00419
307.35	0.941	0.12017	0.00664
307.35	1	0.13318	0.00712
311.35	0	0.05709	0.00295
311.35	0.09	0.06055	0.00313
311.35	0.194	0.06674	0.00345
311.35	0.315	0.07377	0.00382
311.35	0.458	0.08317	0.00431
311.35	0.628	0.0966	0.005
311.35	0.941	0.1476	0.00764
311.35	1	0.1637	0.00849
315.35	0	0.07151	0.00384
315.35	0.09	0.0758	0.00405
315.35	0.194	0.08356	0.00446
315.35	0.315	0.09235	0.00493
315.35	0.458	0.10413	0.00556
315.35	0.628	0.12094	0.00646
315.35	0.941	0.18479	0.00987
315.35	1	0.20501	0.01095
319.35	0	0.09127	0.00471
319.35	0.09	0.09627	0.00505
319.35	0.194	0.10612	0.00542
319.35	0.315	0.11729	0.00606
319.35	0.458	0.13225	0.00687
319.35	0.628	0.1536	0.00883
319.35	0.941	0.23468	0.01202
319.35	1	0.2603	0.01332

System: olaparib + acetonitrile + propan-2-ol; phases: Liquid, Crystal
Fixed: Pressure, kPa = 100
Property: Mole fraction of olaparib (Liquid); method: gravimetric
Temperature, K	Solvent: Mole fraction of acetonitrile	Mole fraction of olaparib	uncertainty
280.35	0	0.00976	0.00064
280.35	0.09	0.00992	0.00064
280.35	0.194	0.01011	0.00065
280.35	0.315	0.01048	0.00066
280.35	0.458	0.01094	0.0007
280.35	0.628	0.01169	0.00077
280.35	0.941	0.01298	0.00086
280.35	1	0.01349	0.0009
284.35	0	0.01311	0.00077
284.35	0.09	0.01324	0.00077
284.35	0.194	0.01351	0.00079
284.35	0.315	0.01391	0.00081
284.35	0.458	0.01461	0.00085
284.35	0.628	0.01578	0.00093
284.35	0.941	0.01751	0.00103
284.35	1	0.01831	0.00109
288.35	0	0.01721	0.00101
288.35	0.09	0.01738	0.00102
288.35	0.194	0.01773	0.00104
288.35	0.315	0.01826	0.00107
288.35	0.458	0.01917	0.00112
288.35	0.628	0.02071	0.00121
288.35	0.941	0.02299	0.00134
288.35	1	0.02424	0.00144
292.35	0	0.02287	0.00137
292.35	0.09	0.0231	0.00138
292.35	0.194	0.02356	0.00141
292.35	0.315	0.02427	0.00146
292.35	0.458	0.02548	0.00154
292.35	0.628	0.02752	0.00161
292.35	0.941	0.03055	0.00185
292.35	1	0.0325	0.00197
296.35	0	0.03072	0.00172
296.35	0.09	0.03103	0.00173
296.35	0.194	0.03165	0.00177
296.35	0.315	0.03284	0.00183
296.35	0.458	0.03461	0.00192
296.35	0.628	0.03644	0.00201
296.35	0.941	0.04149	0.00234
296.35	1	0.04399	0.00248
300.35	0	0.0388	0.00206
300.35	0.09	0.03919	0.00208
300.35	0.194	0.03997	0.00212
300.35	0.315	0.04117	0.00217
300.35	0.458	0.04323	0.00227
300.35	0.628	0.04598	0.00248
300.35	0.941	0.05245	0.00279
300.35	1	0.05584	0.00299
303.35	0	0.04659	0.0027
303.35	0.09	0.04706	0.00273
303.35	0.194	0.048	0.00278
303.35	0.315	0.04944	0.00287
303.35	0.458	0.05191	0.00301
303.35	0.628	0.05606	0.00329
303.35	0.941	0.06307	0.00365
303.35	1	0.06726	0.00392
307.35	0	0.06131	0.00327
307.35	0.09	0.06192	0.0033
307.35	0.194	0.06316	0.00337
307.35	0.315	0.06506	0.00347
307.35	0.458	0.06831	0.00364
307.35	0.628	0.07377	0.00389
307.35	0.941	0.083	0.0044
307.35	1	0.08879	0.00474
311.35	0	0.07532	0.00391
311.35	0.09	0.07607	0.00395
311.35	0.194	0.07759	0.00403
311.35	0.315	0.07992	0.00415
311.35	0.458	0.08392	0.00436
311.35	0.628	0.08979	0.00465
311.35	0.941	0.10147	0.0053
311.35	1	0.10913	0.00566
315.35	0	0.09446	0.00508
315.35	0.09	0.0954	0.00513
315.35	0.194	0.09731	0.00523
315.35	0.315	0.10023	0.00539
315.35	0.458	0.10524	0.00566
315.35	0.628	0.11314	0.00607
315.35	0.941	0.12841	0.00694
315.35	1	0.13667	0.0073
319.35	0	0.12051	0.00621
319.35	0.09	0.12172	0.0063
319.35	0.194	0.12415	0.00642
319.35	0.315	0.12787	0.00665
319.35	0.458	0.13427	0.00697
319.35	0.628	0.14367	0.00741
319.35	0.941	0.16364	0.00842
319.35	1	0.17354	0.00888
