Measured thermophysical data. Investigation of Volumetric and Acoustic Properties of Procainamide Hydrochloride in Aqueous Binary and (Water + Amino Acid) Ternary Mixtures at Different Temperatures
Source: J. Chem. Eng. Data, 2017, 10.1021/acs.jced.7b00452
Compound 1: procainamide hydrochloride, C13H22ClN3O, InChI=1S/C13H21N3O.ClH/c1-3-16(4-2)10-9-15-13(17)11-5-7-12(14)8-6-11;/h5-8H,3-4,9-10,14H2,1-2H3,(H,15,17);1H, purity 99%
Compound 2: (S)-2-aminopropanoic acid, C3H7NO2, InChI=1S/C3H7NO2/c1-2(4)3(5)6/h2H,4H2,1H3,(H,5,6)/t2-/m0/s1, purity 99%
Compound 3: L-valine, C5H11NO2, InChI=1S/C5H11NO2/c1-3(2)4(6)5(7)8/h3-4H,6H2,1-2H3,(H,7,8)/t4-/m0/s1, purity 99%
Compound 4: water, H2O, InChI=1S/H2O/h1H2, purity 99.9%

System: water; phases: Liquid
Fixed: Pressure, kPa = 101.3
Property: Mass density, kg/m3 (Liquid); method: Vibrating tube method
Temperature, K	Mass density, kg/m3	uncertainty
298.15	997.043	0.105
308.15	994.029	0.105
318.15	990.208	0.105

System: water; phases: Liquid
Fixed: Pressure, kPa = 101.3
Property: Speed of sound, m/s (Liquid); method: Single path-length method
Temperature, K	Speed of sound, m/s	uncertainty
298.15	1497	1
308.15	1520.1	1
318.15	1536.7	1

System: procainamide hydrochloride + water; phases: Liquid
Fixed: Pressure, kPa = 101.3
Property: Mass density, kg/m3 (Liquid); method: Vibrating tube method
Temperature, K	Molality, mol/kg of procainamide hydrochloride	Mass density, kg/m3	uncertainty
298.15	0	997.043	0.105
298.15	0.0292	998.359	0.105
298.15	0.0328	998.521	0.105
298.15	0.043	998.975	0.105
298.15	0.0551	999.51	0.105
298.15	0.0689	1000.136	0.105
298.15	0.076	1000.448	0.105
298.15	0.1194	1002.375	0.105
298.15	0.1402	1003.299	0.106
298.15	0.1715	1004.662	0.106
298.15	0.0804	1000.656	0.105
298.15	0.0938	1001.267	0.105
298.15	0.1119	1002.054	0.105
298.15	0.1306	1002.87	0.105
298.15	0.1601	1004.183	0.106
308.15	0	994.029	0.106
308.15	0.0292	995.314	0.108
308.15	0.0328	995.471	0.106
308.15	0.043	995.914	0.105
308.15	0.0551	996.435	0.105
308.15	0.0689	997.048	0.105
308.15	0.076	997.346	0.105
308.15	0.1194	999.225	0.105
308.15	0.1402	1000.124	0.105
308.15	0.1715	1001.458	0.105
308.15	0.0804	997.55	0.105
308.15	0.0938	998.14	0.105
308.15	0.1119	998.919	0.105
308.15	0.1306	999.706	0.105
308.15	0.1601	1000.984	0.105
318.15	0	990.208	0.106
318.15	0.0292	991.46	0.106
318.15	0.0328	991.615	0.106
318.15	0.043	992.05	0.106
318.15	0.0551	992.563	0.106
318.15	0.0689	993.168	0.106
318.15	0.076	993.461	0.106
318.15	0.1194	995.305	0.106
318.15	0.1402	996.189	0.106
318.15	0.1715	997.488	0.105
318.15	0.0804	993.641	0.106
318.15	0.0938	994.212	0.106
318.15	0.1119	994.982	0.106
318.15	0.1306	995.779	0.106
318.15	0.1601	997.035	0.106

System: procainamide hydrochloride + water; phases: Liquid
Fixed: Pressure, kPa = 101.3
Property: Speed of sound, m/s (Liquid); method: Single path-length method
Temperature, K	Molality, mol/kg of procainamide hydrochloride	Speed of sound, m/s	uncertainty
298.15	0	1497	1
298.15	0.0292	1501.6	1
298.15	0.0328	1502.1	1
298.15	0.043	1503.6	1
298.15	0.0551	1505.4	1
298.15	0.0689	1507.5	1
298.15	0.076	1508.5	1
298.15	0.1194	1514.9	1
298.15	0.1402	1517.9	1
298.15	0.1715	1522.6	1
298.15	0.0804	1509.1	1
298.15	0.0938	1511.1	1
298.15	0.1119	1513.8	1
298.15	0.1306	1516.6	1
298.15	0.1601	1520.9	1
308.15	0	1520.1	1
308.15	0.0292	1524.2	1
308.15	0.0328	1524.6	1
308.15	0.043	1525.8	1
308.15	0.0551	1527.1	1
308.15	0.0689	1528.6	1
308.15	0.076	1529.5	1
308.15	0.1194	1534.8	1
308.15	0.1402	1537.3	1
308.15	0.1715	1541.1	1
308.15	0.0804	1530	1
308.15	0.0938	1531.7	1
308.15	0.1119	1533.8	1
308.15	0.1306	1536.1	1
308.15	0.1601	1539.7	1
318.15	0	1536.7	1
318.15	0.0292	1538.9	1
318.15	0.0328	1539.2	1
318.15	0.043	1540.3	1
318.15	0.0551	1541.3	1
318.15	0.0689	1542.7	1
318.15	0.076	1543.3	1
318.15	0.1194	1547.1	1
318.15	0.1402	1548.9	1
318.15	0.1715	1551.6	1
318.15	0.0804	1543.7	1
318.15	0.0938	1544.9	1
318.15	0.1119	1546.4	1
318.15	0.1306	1548	1
318.15	0.1601	1550.6	1

System: procainamide hydrochloride + water + (S)-2-aminopropanoic acid; phases: Liquid
Fixed: Pressure, kPa = 101.3
Property: Mass density, kg/m3 (Liquid); method: Vibrating tube method
Temperature, K	Molality, mol/kg of procainamide hydrochloride	Solvent: Molality, mol/kg of (S)-2-aminopropanoic acid	Mass density, kg/m3	uncertainty
298.15	0	0.025	997.765	0.154
298.15	0.0257	0.025	998.929	0.154
298.15	0.0278	0.025	998.982	0.154
298.15	0.0489	0.025	999.935	0.154
298.15	0.0514	0.025	1000.074	0.154
298.15	0.0685	0.025	1000.818	0.154
298.15	0.0699	0.025	1000.895	0.154
298.15	0.0787	0.025	1001.264	0.154
298.15	0.0923	0.025	1001.848	0.154
298.15	0.1024	0.025	1002.336	0.155
298.15	0	0.05	998.484	0.154
298.15	0.0376	0.05	1000.144	0.154
298.15	0.0457	0.05	1000.501	0.154
298.15	0.063	0.05	1001.268	0.154
298.15	0.0651	0.05	1001.361	0.154
298.15	0.0721	0.05	1001.685	0.154
298.15	0.0829	0.05	1002.162	0.154
298.15	0.0845	0.05	1002.231	0.155
298.15	0.0911	0.05	1002.52	0.155
298.15	0.0955	0.05	1002.695	0.155
308.15	0	0.025	994.741	0.155
308.15	0.0257	0.025	995.878	0.157
308.15	0.0278	0.025	995.914	0.156
308.15	0.0489	0.025	996.807	0.157
308.15	0.0514	0.025	996.966	0.154
308.15	0.0685	0.025	997.705	0.162
308.15	0.0699	0.025	997.798	0.156
308.15	0.0787	0.025	998.156	0.154
308.15	0.0923	0.025	998.781	0.154
308.15	0.1024	0.025	999.199	0.154
308.15	0	0.05	995.466	0.154
308.15	0.0376	0.05	997.074	0.154
308.15	0.0457	0.05	997.422	0.154
308.15	0.063	0.05	998.171	0.157
308.15	0.0651	0.05	998.261	0.154
308.15	0.0721	0.05	998.588	0.154
308.15	0.0829	0.05	999.044	0.159
308.15	0.0845	0.05	999.11	0.156
308.15	0.0911	0.05	999.392	0.154
308.15	0.0955	0.05	999.563	0.153
318.15	0	0.025	990.91	0.155
318.15	0.0257	0.025	992.005	0.155
318.15	0.0278	0.025	992.078	0.155
318.15	0.0489	0.025	992.994	0.155
318.15	0.0514	0.025	993.127	0.155
318.15	0.0685	0.025	993.827	0.155
318.15	0.0699	0.025	993.914	0.155
318.15	0.0787	0.025	994.286	0.154
318.15	0.0923	0.025	994.869	0.154
318.15	0.1024	0.025	995.282	0.154
318.15	0	0.05	991.637	0.155
318.15	0.0376	0.05	993.225	0.155
318.15	0.0457	0.05	993.564	0.154
318.15	0.063	0.05	994.296	0.154
318.15	0.0651	0.05	994.384	0.154
318.15	0.0721	0.05	994.685	0.154
318.15	0.0829	0.05	995.139	0.154
318.15	0.0845	0.05	995.203	0.154
318.15	0.0911	0.05	995.477	0.154
318.15	0.0955	0.05	995.646	0.154

System: procainamide hydrochloride + water + (S)-2-aminopropanoic acid; phases: Liquid
Fixed: Pressure, kPa = 101.3
Property: Speed of sound, m/s (Liquid); method: Single path-length method
Temperature, K	Molality, mol/kg of procainamide hydrochloride	Solvent: Molality, mol/kg of (S)-2-aminopropanoic acid	Speed of sound, m/s	uncertainty
298.15	0	0.025	1498.8	1.2
298.15	0.0257	0.025	1502.7	1.2
298.15	0.0278	0.025	1503.1	1.2
298.15	0.0489	0.025	1506.4	1.2
298.15	0.0514	0.025	1506.7	1.2
298.15	0.0685	0.025	1509.4	1.2
298.15	0.0699	0.025	1509.3	1.2
298.15	0.0787	0.025	1510.9	1.2
298.15	0.0923	0.025	1513.2	1.2
298.15	0.1024	0.025	1514.5	1.2
298.15	0	0.05	1500	1.2
298.15	0.0376	0.05	1505.8	1.2
298.15	0.0457	0.05	1507.1	1.2
298.15	0.063	0.05	1509.8	1.2
298.15	0.0651	0.05	1510.1	1.2
298.15	0.0721	0.05	1511.2	1.2
298.15	0.0829	0.05	1512.9	1.2
298.15	0.0845	0.05	1513.1	1.2
298.15	0.0911	0.05	1514.1	1.2
298.15	0.0955	0.05	1514.8	1.2
308.15	0	0.025	1521.6	1.2
308.15	0.0257	0.025	1525.2	1.3
308.15	0.0278	0.025	1525.6	1.2
308.15	0.0489	0.025	1528.1	1.2
308.15	0.0514	0.025	1528.4	1.2
308.15	0.0685	0.025	1530.7	1.3
308.15	0.0699	0.025	1530.9	1.3
308.15	0.0787	0.025	1532	1.2
308.15	0.0923	0.025	1533.8	1.2
308.15	0.1024	0.025	1535.1	1.2
308.15	0	0.05	1522.7	1.2
308.15	0.0376	0.05	1527.9	1.2
308.15	0.0457	0.05	1528.9	1.2
308.15	0.063	0.05	1531.3	1.3
308.15	0.0651	0.05	1531.6	1.2
308.15	0.0721	0.05	1532.6	1.2
308.15	0.0829	0.05	1534	1.28
308.15	0.0845	0.05	1534.3	1.3
308.15	0.0911	0.05	1535.2	1.2
308.15	0.0955	0.05	1535.8	1.2
318.15	0	0.025	1538	1.2
318.15	0.0257	0.025	1540	1.2
318.15	0.0278	0.025	1540.2	1.2
318.15	0.0489	0.025	1542.3	1.2
318.15	0.0514	0.025	1542.5	1.2
318.15	0.0685	0.025	1544.3	1.2
318.15	0.0699	0.025	1544.4	1.2
318.15	0.0787	0.025	1545.2	1.2
318.15	0.0923	0.025	1546.5	1.2
318.15	0.1024	0.025	1547.4	1.2
318.15	0	0.05	1539.2	1.2
318.15	0.0376	0.05	1542.3	1.2
318.15	0.0457	0.05	1543	1.2
318.15	0.063	0.05	1544.9	1.2
318.15	0.0651	0.05	1545.1	1.2
318.15	0.0721	0.05	1545.7	1.2
318.15	0.0829	0.05	1546.7	1.2
318.15	0.0845	0.05	1546.9	1.2
318.15	0.0911	0.05	1547.5	1.2
318.15	0.0955	0.05	1547.9	1.2

System: procainamide hydrochloride + water + L-valine; phases: Liquid
Fixed: Pressure, kPa = 101.3
Property: Mass density, kg/m3 (Liquid); method: Vibrating tube method
Temperature, K	Molality, mol/kg of procainamide hydrochloride	Solvent: Molality, mol/kg of L-valine	Mass density, kg/m3	uncertainty
298.15	0	0.025	997.706	0.154
298.15	0.0379	0.025	999.379	0.154
298.15	0.0485	0.025	999.882	0.154
298.15	0.0599	0.025	1000.356	0.154
298.15	0.0977	0.025	1002.212	0.154
298.15	0.1453	0.025	1004.214	0.155
298.15	0.1953	0.025	1006.437	0.156
298.15	0.235	0.025	1008.123	0.157
298.15	0	0.05	998.248	0.154
298.15	0.027	0.05	999.464	0.154
298.15	0.0367	0.05	999.9	0.154
298.15	0.0451	0.05	1000.273	0.154
298.15	0.0467	0.05	1000.347	0.154
298.15	0.0635	0.05	1001.108	0.154
298.15	0.0806	0.05	1001.886	0.154
298.15	0.0923	0.05	1002.397	0.154
298.15	0.104	0.05	1002.861	0.155
298.15	0.114	0.05	1003.397	0.155
298.15	0.1225	0.05	1003.687	0.155
298.15	0.1281	0.05	1004.003	0.155
308.15	0	0.025	994.661	0.154
308.15	0.0379	0.025	996.261	0.154
308.15	0.0485	0.025	996.706	0.154
308.15	0.0599	0.025	997.22	0.154
308.15	0.0977	0.025	998.875	0.154
308.15	0.1453	0.025	1001.025	0.154
308.15	0.1953	0.025	1003.198	0.155
308.15	0.235	0.025	1004.839	0.155
308.15	0	0.05	995	0.154
308.15	0.027	0.05	996.194	0.154
308.15	0.0367	0.05	996.625	0.154
308.15	0.0451	0.05	996.994	0.158
308.15	0.0467	0.05	997.067	0.155
308.15	0.0635	0.05	997.81	0.154
308.15	0.0806	0.05	998.567	0.154
308.15	0.0923	0.05	999.084	0.154
308.15	0.104	0.05	999.593	0.154
308.15	0.114	0.05	1000.083	0.154
308.15	0.1225	0.05	1000.394	0.154
308.15	0.1281	0.05	1000.666	0.154
318.15	0	0.025	990.798	0.155
318.15	0.0379	0.025	992.412	0.155
318.15	0.0485	0.025	992.817	0.155
318.15	0.0599	0.025	993.352	0.154
318.15	0.0977	0.025	994.973	0.154
318.15	0.1453	0.025	997.067	0.154
318.15	0.1953	0.025	999.196	0.154
318.15	0.235	0.025	1000.802	0.154
318.15	0	0.05	991.103	0.155
318.15	0.027	0.05	992.286	0.155
318.15	0.0367	0.05	992.709	0.155
318.15	0.0451	0.05	993.074	0.155
318.15	0.0467	0.05	993.146	0.155
318.15	0.0635	0.05	993.881	0.154
318.15	0.0806	0.05	994.63	0.154
318.15	0.0923	0.05	995.141	0.154
318.15	0.104	0.05	995.654	0.154
318.15	0.114	0.05	996.091	0.154
318.15	0.1225	0.05	996.425	0.154
318.15	0.1281	0.05	996.675	0.154

System: procainamide hydrochloride + water + L-valine; phases: Liquid
Fixed: Pressure, kPa = 101.3
Property: Speed of sound, m/s (Liquid); method: Single path-length method
Temperature, K	Molality, mol/kg of procainamide hydrochloride	Solvent: Molality, mol/kg of L-valine	Speed of sound, m/s	uncertainty
298.15	0	0.025	1498.9	1.2
298.15	0.0379	0.025	1505.2	1.2
298.15	0.0485	0.025	1506.8	1.2
298.15	0.0599	0.025	1508.5	1.2
298.15	0.0977	0.025	1514.2	1.2
298.15	0.1453	0.025	1520.9	1.2
298.15	0.1953	0.025	1528.2	1.2
298.15	0.235	0.025	1533.7	1.2
298.15	0	0.05	1501.7	1.2
298.15	0.027	0.05	1505.9	1.2
298.15	0.0367	0.05	1507.3	1.2
298.15	0.0451	0.05	1508.6	1.2
298.15	0.0467	0.05	1508.9	1.2
298.15	0.0635	0.05	1511.5	1.2
298.15	0.0806	0.05	1514.1	1.2
298.15	0.0923	0.05	1515.9	1.2
298.15	0.104	0.05	1517.6	1.2
298.15	0.114	0.05	1519.1	1.2
298.15	0.1225	0.05	1520.8	1.2
298.15	0.1281	0.05	1521.4	1.2
308.15	0	0.025	1521.7	1.2
308.15	0.0379	0.025	1527.2	1.2
308.15	0.0485	0.025	1528.7	1.2
308.15	0.0599	0.025	1530.2	1.2
308.15	0.0977	0.025	1535.3	1.2
308.15	0.1453	0.025	1541.4	1.2
308.15	0.1953	0.025	1547.6	1.2
308.15	0.235	0.025	1552.6	1.2
308.15	0	0.05	1524.2	1.2
308.15	0.027	0.05	1527.1	1.2
308.15	0.0367	0.05	1528.4	1.2
308.15	0.0451	0.05	1529.5	1.3
308.15	0.0467	0.05	1529.7	1.2
308.15	0.0635	0.05	1532.1	1.2
308.15	0.0806	0.05	1534.6	1.2
308.15	0.0923	0.05	1536.1	1.2
308.15	0.104	0.05	1537.6	1.2
308.15	0.114	0.05	1538.9	1.2
308.15	0.1225	0.05	1540	1.2
308.15	0.1281	0.05	1540.7	1.2
318.15	0	0.025	1537.7	1.2
318.15	0.0379	0.025	1541.6	1.2
318.15	0.0485	0.025	1542.7	1.2
318.15	0.0599	0.025	1543.8	1.2
318.15	0.0977	0.025	1547.7	1.2
318.15	0.1453	0.025	1552.5	1.2
318.15	0.1953	0.025	1557.6	1.2
318.15	0.235	0.025	1561.6	1.2
318.15	0	0.05	1540.2	1.2
318.15	0.027	0.05	1542.8	1.2
318.15	0.0367	0.05	1543.7	1.2
318.15	0.0451	0.05	1544.5	1.2
318.15	0.0467	0.05	1544.6	1.2
318.15	0.0635	0.05	1546.3	1.2
318.15	0.0806	0.05	1547.9	1.2
318.15	0.0923	0.05	1549	1.2
318.15	0.104	0.05	1550.1	1.2
318.15	0.114	0.05	1551.1	1.2
318.15	0.1225	0.05	1551.9	1.2
318.15	0.1281	0.05	1552.4	1.2

System: water + (S)-2-aminopropanoic acid; phases: Liquid
Fixed: Pressure, kPa = 101.3
Property: Mass density, kg/m3 (Liquid); method: Vibrating tube method
Temperature, K	Molality, mol/kg of (S)-2-aminopropanoic acid	Mass density, kg/m3	uncertainty
298.15	0.025	997.765	0.105
298.15	0.05	998.484	0.105
308.15	0.025	994.741	0.105
308.15	0.05	995.466	0.105
318.15	0.025	990.91	0.106
318.15	0.05	991.637	0.106

System: water + (S)-2-aminopropanoic acid; phases: Liquid
Fixed: Pressure, kPa = 101.3
Property: Speed of sound, m/s (Liquid); method: Single path-length method
Temperature, K	Molality, mol/kg of (S)-2-aminopropanoic acid	Speed of sound, m/s	uncertainty
298.15	0.025	1498.8	1
298.15	0.05	1500	1
308.15	0.025	1521.6	1
308.15	0.05	1522.7	1
318.15	0.025	1538	1
318.15	0.05	1539.2	1

System: water + L-valine; phases: Liquid
Fixed: Pressure, kPa = 101.3
Property: Mass density, kg/m3 (Liquid); method: Vibrating tube method
Temperature, K	Molality, mol/kg of L-valine	Mass density, kg/m3	uncertainty
298.15	0.025	997.706	0.105
298.15	0.05	998.248	0.105
308.15	0.025	994.661	0.105
308.15	0.05	995	0.105
318.15	0.025	990.798	0.105
318.15	0.05	991.103	0.105

System: water + L-valine; phases: Liquid
Fixed: Pressure, kPa = 101.3
Property: Speed of sound, m/s (Liquid); method: Single path-length method
Temperature, K	Molality, mol/kg of L-valine	Speed of sound, m/s	uncertainty
298.15	0.025	1498.9	1
298.15	0.05	1501.7	1
308.15	0.025	1521.7	1
308.15	0.05	1524.2	1
318.15	0.025	1537.7	1
318.15	0.05	1540.2	1
