Measured thermophysical data. Density and Speed of Sound of the Binary Mixture of 1-Butyl-3-Methylimidazolium Bis(trifluoromethylsulfonyl)imide + 2-Methoxyethanol from T = (298.15 to 323.15) K at Atmospheric Pressure
Source: J. Chem. Eng. Data, 2017, 10.1021/acs.jced.7b00604
Compound 1: 1-butyl-3-methylimidazolium bis(trifluoromethylsulfonyl)imide, C10H15F6N3O4S2, InChI=1S/C8H15N2.C2F6NO4S2/c1-3-4-5-10-7-6-9(2)8-10;3-1(4,5)14(10,11)9-15(12,13)2(6,7)8/h6-8H,3-5H2,1-2H3;/q+1;-1, purity 99%
Compound 2: 2-methoxyethan-1-ol, C3H8O2, InChI=1S/C3H8O2/c1-5-3-2-4/h4H,2-3H2,1H3, purity 97%

System: 1-butyl-3-methylimidazolium bis(trifluoromethylsulfonyl)imide; phases: Liquid
Fixed: Pressure, kPa = 100
Property: Mass density, kg/m3 (Liquid); method: Vibrating tube method
Temperature, K	Mass density, kg/m3	uncertainty
298.15	1437.12	1.14
303.15	1432.51	1.14
308.15	1427.43	1.14
313.15	1422.86	1.14
318.15	1417.91	1.14
323.15	1413.58	1.13

System: 1-butyl-3-methylimidazolium bis(trifluoromethylsulfonyl)imide; phases: Liquid
Fixed: Pressure, kPa = 100
Fixed: Frequency, MHz = 3
Property: Speed of sound, m/s (Liquid); method: Sing-around technique in a fixed-path interferometer
Temperature, K	Speed of sound, m/s	uncertainty
298.15	1227.8	1.5
303.15	1216.7	1.5
308.15	1205.8	1.5
313.15	1194.9	1.5
318.15	1184.2	1.5
323.15	1173.6	1.5

System: 1-butyl-3-methylimidazolium bis(trifluoromethylsulfonyl)imide; phases: Liquid
Fixed: Pressure, kPa = 100
Property: Molar heat capacity at constant pressure, J/K/mol (Liquid); method: Extra sensitive DSC
Temperature, K	Molar heat capacity at constant pressure, J/K/mol	uncertainty
298.15	567.22	21.97
303.15	569.85	22.07
308.15	572.64	22.18
313.15	575.47	22.29
318.15	578.38	22.4
323.15	581.52	22.52

System: 2-methoxyethan-1-ol; phases: Liquid
Fixed: Pressure, kPa = 100
Property: Mass density, kg/m3 (Liquid); method: Vibrating tube method
Temperature, K	Mass density, kg/m3	uncertainty
298.15	960.31	1.02
303.15	955.71	1.02
308.15	951.08	1.02
313.15	946.41	1.02
318.15	941.72	1.02
323.15	936.99	1.02

System: 2-methoxyethan-1-ol; phases: Liquid
Fixed: Pressure, kPa = 100
Fixed: Frequency, MHz = 3
Property: Speed of sound, m/s (Liquid); method: Sing-around technique in a fixed-path interferometer
Temperature, K	Speed of sound, m/s	uncertainty
298.15	1341.8	1.5
303.15	1324.1	1.5
308.15	1307.3	1.5
313.15	1292	1.5
318.15	1274.2	1.5
323.15	1259.4	1.5

System: 2-methoxyethan-1-ol; phases: Liquid
Fixed: Pressure, kPa = 100
Property: Molar heat capacity at constant pressure, J/K/mol (Liquid); method: Extra sensitive DSC
Temperature, K	Molar heat capacity at constant pressure, J/K/mol	uncertainty
298.15	175.32	6.79
303.15	176.9	6.85
308.15	178.41	6.91
313.15	179.96	6.97
318.15	181.45	7.03
323.15	183.02	7.09

System: 1-butyl-3-methylimidazolium bis(trifluoromethylsulfonyl)imide + 2-methoxyethan-1-ol; phases: Liquid
Fixed: Pressure, kPa = 100
Property: Mass density, kg/m3 (Liquid); method: Vibrating tube method
Temperature, K	Mole fraction of 1-butyl-3-methylimidazolium bis(trifluoromethylsulfonyl)imide	Mass density, kg/m3	uncertainty
298.15	0	960.31	1.02
298.15	0.0966	1098.07	1.14
298.15	0.1943	1188.97	1.11
298.15	0.2887	1250.58	1.1
298.15	0.3979	1302.72	1.11
298.15	0.4792	1332.79	1.11
298.15	0.5943	1365.91	1.12
298.15	0.6753	1384.52	1.13
298.15	0.8101	1409.81	1.14
298.15	0.8849	1421.49	1.14
298.15	1	1437.12	1.14
303.15	0	955.71	1.02
303.15	0.0966	1093.42	1.14
303.15	0.1943	1184.24	1.11
303.15	0.2887	1245.82	1.1
303.15	0.3979	1298.03	1.11
303.15	0.4792	1328.12	1.11
303.15	0.5943	1361.32	1.12
303.15	0.6753	1379.92	1.12
303.15	0.8101	1405.23	1.13
303.15	0.8849	1416.91	1.14
303.15	1	1432.51	1.14
308.15	0	951.08	1.02
308.15	0.0966	1088.78	1.14
308.15	0.1943	1179.32	1.1
308.15	0.2887	1240.86	1.1
308.15	0.3979	1292.99	1.1
308.15	0.4792	1323.11	1.11
308.15	0.5943	1356.31	1.12
308.15	0.6753	1374.96	1.12
308.15	0.8101	1400.24	1.13
308.15	0.8849	1411.97	1.14
308.15	1	1427.43	1.14
313.15	0	946.41	1.02
313.15	0.0966	1084.06	1.14
313.15	0.1943	1174.55	1.1
313.15	0.2887	1236.14	1.1
313.15	0.3979	1288.26	1.1
313.15	0.4792	1318.36	1.11
313.15	0.5943	1351.69	1.12
313.15	0.6753	1370.39	1.12
313.15	0.8101	1395.76	1.13
313.15	0.8849	1407.44	1.13
313.15	1	1422.86	1.14
318.15	0	941.72	1.02
318.15	0.0966	1079.38	1.14
318.15	0.1943	1169.76	1.1
318.15	0.2887	1231.28	1.09
318.15	0.3979	1283.31	1.1
318.15	0.4792	1313.34	1.1
318.15	0.5943	1346.72	1.11
318.15	0.6753	1365.42	1.12
318.15	0.8101	1390.82	1.13
318.15	0.8849	1402.59	1.13
318.15	1	1417.91	1.14
323.15	0	936.99	1.02
323.15	0.0966	1074.61	1.14
323.15	0.1943	1165.02	1.1
323.15	0.2887	1226.67	1.09
323.15	0.3979	1278.8	1.1
323.15	0.4792	1308.85	1.1
323.15	0.5943	1342.24	1.11
323.15	0.6753	1361.02	1.12
323.15	0.8101	1386.53	1.13
323.15	0.8849	1398.24	1.13
323.15	1	1413.58	1.13

System: 1-butyl-3-methylimidazolium bis(trifluoromethylsulfonyl)imide + 2-methoxyethan-1-ol; phases: Liquid
Fixed: Pressure, kPa = 100
Fixed: Frequency, MHz = 3
Property: Speed of sound, m/s (Liquid); method: Sing-around technique in a fixed-path interferometer
Temperature, K	Mole fraction of 1-butyl-3-methylimidazolium bis(trifluoromethylsulfonyl)imide	Speed of sound, m/s	uncertainty
298.15	0	1341.8	1.5
298.15	0.0966	1301.4	1.5
298.15	0.1943	1279.7	1.5
298.15	0.2887	1266	1.5
298.15	0.3979	1253.5	1.5
298.15	0.4792	1246.7	1.5
298.15	0.5943	1239.9	1.5
298.15	0.6753	1236.6	1.5
298.15	0.8101	1232.5	1.5
298.15	0.8849	1230.2	1.5
298.15	1	1227.8	1.5
303.15	0	1324.1	1.5
303.15	0.0966	1285.2	1.5
303.15	0.1943	1264.7	1.5
303.15	0.2887	1251.7	1.5
303.15	0.3979	1240.4	1.5
303.15	0.4792	1234.1	1.5
303.15	0.5943	1227.6	1.5
303.15	0.6753	1224.9	1.5
303.15	0.8101	1221.2	1.5
303.15	0.8849	1219	1.5
303.15	1	1216.7	1.5
308.15	0	1307.3	1.5
308.15	0.0966	1269.8	1.5
308.15	0.1943	1250.1	1.5
308.15	0.2887	1237.7	1.5
308.15	0.3979	1227.8	1.5
308.15	0.4792	1221.7	1.5
308.15	0.5943	1216.1	1.5
308.15	0.6753	1213.3	1.5
308.15	0.8101	1209.9	1.5
308.15	0.8849	1208.2	1.5
308.15	1	1205.8	1.5
313.15	0	1292	1.5
313.15	0.0966	1255.3	1.5
313.15	0.1943	1236.4	1.5
313.15	0.2887	1224.7	1.5
313.15	0.3979	1215.7	1.5
313.15	0.4792	1209.7	1.5
313.15	0.5943	1204.9	1.5
313.15	0.6753	1202	1.5
313.15	0.8101	1198.9	1.5
313.15	0.8849	1197.3	1.5
313.15	1	1194.9	1.5
318.15	0	1274.2	1.5
318.15	0.0966	1238.8	1.5
318.15	0.1943	1221.3	1.5
318.15	0.2887	1210.4	1.5
318.15	0.3979	1202.3	1.5
318.15	0.4792	1197.1	1.5
318.15	0.5943	1192.7	1.5
318.15	0.6753	1190.3	1.5
318.15	0.8101	1187.7	1.5
318.15	0.8849	1186.3	1.5
318.15	1	1184.2	1.5
323.15	0	1259.4	1.5
323.15	0.0966	1224.6	1.5
323.15	0.1943	1207.8	1.5
323.15	0.2887	1197.6	1.5
323.15	0.3979	1190.1	1.5
323.15	0.4792	1185	1.5
323.15	0.5943	1181.1	1.5
323.15	0.6753	1179.1	1.5
323.15	0.8101	1176.9	1.5
323.15	0.8849	1175.9	1.5
323.15	1	1173.6	1.5
