Measured thermophysical data. Measurements of Gaseous Pressure-Volume-Temperature Properties for Ethyl Fluoride
Source: J. Chem. Eng. Data, 2017, 10.1021/acs.jced.7b00195
Compound 1: fluoroethane, C2H5F, InChI=1S/C2H5F/c1-2-3/h2H2,1H3, purity 99.95%

System: fluoroethane; phases: Gas
Property: Mass density, kg/m3 (Gas); method: Burnett expansion method
Temperature, K	Pressure, kPa	Mass density, kg/m3	uncertainty
378.016	4235.22	106.825	0.75
378.015	3335.39	71.042	0.5
378.011	2481.64	47.245	0.333
378.006	1776.12	31.42	0.222
378.006	1240.02	20.895	0.149
378.01	851.98	13.896	0.1
378.016	579.55	9.241	0.069
378.014	391.92	6.145	0.049
378.01	264.55	4.087	0.036
373.14	4091.85	106.604	0.749
373.141	3250.93	70.894	0.499
373.144	2430.12	47.146	0.332
373.136	1744.06	31.354	0.222
373.138	1219.77	20.851	0.148
373.133	838.52	13.867	0.1
373.148	570.74	9.221	0.069
373.143	386.27	6.133	0.049
373.138	260.73	4.078	0.037
368.268	3165.93	71.038	0.499
368.264	2378.24	47.243	0.333
368.263	1712.22	31.418	0.222
368.264	1199.41	20.894	0.149
368.26	825.1	13.895	0.101
368.261	561.93	9.24	0.069
368.262	380.26	6.145	0.049
368.26	256.54	4.087	0.037
363.358	3082.31	70.859	0.498
363.362	2325.74	47.122	0.332
363.367	1680	31.337	0.222
363.368	1178.86	20.84	0.149
363.367	811.8	13.859	0.1
363.359	553.08	9.217	0.069
363.367	374.25	6.129	0.049
363.362	252.39	4.076	0.037
358.614	2274.59	47.133	0.332
358.607	1648.32	31.345	0.222
358.608	1158.96	20.845	0.149
358.619	799.33	13.862	0.101
358.613	544.42	9.219	0.069
358.616	368.4	6.131	0.049
358.609	248.43	4.077	0.037
352.744	3018.69	77.15	0.543
352.739	2347.08	51.308	0.362
352.741	1723.98	34.121	0.242
352.748	1222.33	22.691	0.162
352.749	847.82	15.09	0.109
352.736	579.94	10.036	0.075
352.737	393.24	6.674	0.053
352.74	265.25	4.438	0.039
352.751	178.77	2.951	0.032
347.853	2287.35	51.336	0.362
347.85	1687.63	34.14	0.242
347.855	1199.98	22.704	0.162
347.853	833.34	15.099	0.109
347.849	570.22	10.041	0.075
347.859	386.83	6.677	0.053
347.861	260.96	4.441	0.04
347.854	175.51	2.953	0.032
343.016	2227.47	51.191	0.361
343.021	1651.35	34.043	0.241
343.021	1177.41	22.64	0.162
343.014	818.91	15.056	0.109
343.016	560.82	10.013	0.075
343.01	380.56	6.659	0.053
343.013	256.69	4.428	0.04
343.029	172.53	2.945	0.032
338.155	1614.54	34.027	0.241
338.158	1154.55	22.629	0.162
338.16	804.44	15.048	0.109
338.152	551.38	10.008	0.075
338.155	374.3	6.655	0.053
338.153	252.41	4.426	0.04
338.161	169.6	2.943	0.032
333.3	1131.52	22.599	0.161
333.295	789.86	15.029	0.109
333.292	541.96	9.995	0.075
333.297	368.16	6.647	0.054
333.299	248.18	4.42	0.04
333.305	166.7	2.94	0.033
328.424	1539.53	33.847	0.24
328.421	1108.32	22.509	0.161
328.415	775.13	14.969	0.109
328.424	532.98	9.955	0.075
328.426	361.91	6.62	0.054
328.422	243.93	4.403	0.04
328.426	163.8	2.928	0.033
323.512	1084.58	22.444	0.16
323.513	760.32	14.926	0.109
323.516	523.39	9.926	0.075
323.513	355.59	6.601	0.054
323.52	239.62	4.39	0.041
323.517	160.85	2.919	0.033
318.667	1060.94	22.39	0.16
318.672	745.44	14.89	0.109
318.663	513.87	9.903	0.075
318.672	349.39	6.585	0.054
318.666	235.35	4.379	0.041
318.665	158.08	2.912	0.033
313.802	1036.81	22.346	0.16
313.805	730.5	14.86	0.109
313.811	504.31	9.882	0.075
313.802	343.12	6.572	0.054
313.809	231.58	4.371	0.041
313.803	155.2	2.907	0.034
308.967	715.6	14.793	0.108
308.967	494.66	9.837	0.075
308.959	336.88	6.542	0.054
308.962	227.65	4.351	0.041
308.975	152.32	2.893	0.034
303.307	697.8	14.795	0.108
303.316	483.63	9.838	0.076
303.313	329.55	6.543	0.054
303.315	222.77	4.351	0.042
303.309	149.42	2.894	0.034
298.653	682.94	14.731	0.108
298.656	474.3	9.797	0.076
298.654	323.48	6.515	0.055
298.658	218.72	4.333	0.042
298.659	146.61	2.881	0.035
293.095	462.98	9.751	0.075
293.089	316.32	6.485	0.055
293.093	213.69	4.313	0.042
293.097	143.41	2.868	0.035
288.207	452.92	9.758	0.075
288.207	309.96	6.489	0.055
288.205	209.64	4.316	0.043
283.264	442.81	9.718	0.076
283.262	303.56	6.463	0.055
283.266	205.41	4.298	0.043
278.383	432.22	9.679	0.076
278.388	297.17	6.437	0.056
278.383	201.28	4.281	0.043
