Measured thermophysical data. Ammonium-Based Ionic Liquid as an Entrainer for the Separation of n-Propanol + Water and Isopropanol + Water Mixtures
Source: J. Chem. Eng. Data, 2018, 10.1021/acs.jced.7b00523
Compound 1: propan-1-ol, C3H8O, InChI=1S/C3H8O/c1-2-3-4/h4H,2-3H2,1H3, purity 99%
Compound 2: propan-2-ol, C3H8O, InChI=1S/C3H8O/c1-3(2)4/h3-4H,1-2H3, purity 99%
Compound 3: tetramethylammonium chloride, C4H12ClN, InChI=1S/C4H12N.ClH/c1-5(2,3)4;/h1-4H3;1H/q+1;/p-1, purity 98%
Compound 4: water, H2O, InChI=1S/H2O/h1H2, purity 99.9%

System: propan-2-ol; phases: Liquid, Gas
Property: Vapor or sublimation pressure, kPa (Liquid); method: OTHER
Temperature, K	Vapor or sublimation pressure, kPa	uncertainty
355.4	101.058	7.894

System: water; phases: Liquid, Gas
Property: Vapor or sublimation pressure, kPa (Liquid); method: OTHER
Temperature, K	Vapor or sublimation pressure, kPa	uncertainty
372.9	101.058	7.893

System: propan-2-ol + water; phases: Liquid, Gas
Fixed: Pressure, kPa = 101.058
Property: Boiling temperature at pressure P, K (Liquid); method: OTHER
Mole fraction of propan-2-ol	Boiling temperature at pressure P, K	uncertainty
0	372.9	1.6
0.0172	367.1	1.7
0.0513	362.2	1.7
0.0695	359.5	1.6
0.0924	357.9	1.6
0.1263	356.7	1.6
0.1961	355.6	1.6
0.2705	354.9	1.6
0.3576	354.5	1.6
0.4479	354.1	1.6
0.5293	353.7	1.6
0.6217	353.3	1.6
0.6652	353.2	1.6
0.6892	353.1	1.6
0.7495	353.3	1.6
0.8618	353.6	1.6
0.9095	354.2	1.6
1	355.4	1.6

System: propan-2-ol + water; phases: Gas, Liquid
Fixed: Pressure, kPa = 101.058
Property: Mole fraction of propan-2-ol (Gas); method: OTHER
Mole fraction of propan-2-ol	Mole fraction of propan-2-ol	uncertainty
0	0	
0.0172	0.2292	0.0292
0.0513	0.3897	0.0185
0.0695	0.45	0.0127
0.0924	0.4945	0.0092
0.1263	0.5112	0.0083
0.1961	0.5292	0.0081
0.2705	0.5458	0.0079
0.3576	0.5634	0.0077
0.4479	0.5806	0.0076
0.5293	0.6181	0.0073
0.6217	0.6596	0.0069
0.6652	0.6778	0.0066
0.6892	0.6858	0.0066
0.7495	0.7121	0.007
0.8618	0.8277	0.0065
0.9095	0.8803	0.0068
1	1	

System: propan-1-ol + water + tetramethylammonium chloride; phases: Liquid, Gas
Fixed: Pressure, kPa = 101.058
Property: Boiling temperature at pressure P, K (Liquid); method: Ebulliometric method (Recirculating still)
Solvent: Mole fraction of propan-1-ol	Mole fraction of tetramethylammonium chloride	Boiling temperature at pressure P, K	uncertainty
0.0436	0.026	368.4	0.4
0.1096	0.026	365.3	0.3
0.1822	0.026	363.5	0.3
0.2834	0.026	362.6	0.3
0.4214	0.026	362.1	0.3
0.5601	0.026	361.7	0.3
0.6791	0.026	361.5	0.3
0.7624	0.026	361.8	0.3
0.8414	0.026	362.5	0.2
0.892	0.026	364.2	0.3
0.0611	0.05	368.9	0.3
0.1279	0.05	366.5	0.4
0.1773	0.05	364.8	0.4
0.284	0.05	363.8	0.3
0.3871	0.05	363.2	0.3
0.4759	0.05	362.8	0.3
0.5398	0.05	362.6	0.3
0.67	0.05	362.4	0.3
0.8148	0.05	362.9	0.3
0.8771	0.05	364.8	0.3

System: propan-1-ol + water + tetramethylammonium chloride; phases: Gas, Liquid
Fixed: Pressure, kPa = 101.058
Property: Mole fraction of propan-1-ol (Gas); method: Chromatography
Solvent: Mole fraction of propan-1-ol	Mole fraction of tetramethylammonium chloride	Mole fraction of propan-1-ol	uncertainty
0.0436	0.026	0.2209	0.0236
0.1096	0.026	0.369	0.0279
0.1822	0.026	0.4673	0.0271
0.2834	0.026	0.5689	0.0228
0.4214	0.026	0.6268	0.0179
0.5601	0.026	0.6595	0.0194
0.6791	0.026	0.7059	0.0191
0.7624	0.026	0.7432	0.0167
0.8414	0.026	0.7937	0.016
0.892	0.026	0.8494	0.0168
0.0611	0.05	0.3882	0.0238
0.1279	0.05	0.5393	0.0222
0.1773	0.05	0.6075	0.0226
0.284	0.05	0.6767	0.017
0.3871	0.05	0.7078	0.0165
0.4759	0.05	0.7368	0.0165
0.5398	0.05	0.7704	0.0196
0.67	0.05	0.8132	0.0196
0.8148	0.05	0.8708	0.0181
0.8771	0.05	0.9263	0.016

System: propan-1-ol + water + tetramethylammonium chloride; phases: Gas, Liquid
Fixed: Pressure, kPa = 101.058
Property: Mole fraction of tetramethylammonium chloride (Gas); method: Chromatography
Solvent: Mole fraction of propan-1-ol	Mole fraction of tetramethylammonium chloride	Mole fraction of tetramethylammonium chloride	uncertainty
0.0436	0.026	0	
0.1096	0.026	0	
0.1822	0.026	0	
0.2834	0.026	0	
0.4214	0.026	0	
0.5601	0.026	0	
0.6791	0.026	0	
0.7624	0.026	0	
0.8414	0.026	0	
0.892	0.026	0	
0.0611	0.05	0	
0.1279	0.05	0	
0.1773	0.05	0	
0.284	0.05	0	
0.3871	0.05	0	
0.4759	0.05	0	
0.5398	0.05	0	
0.67	0.05	0	
0.8148	0.05	0	
0.8771	0.05	0	

System: propan-2-ol + water + tetramethylammonium chloride; phases: Liquid, Gas
Fixed: Pressure, kPa = 101.058
Property: Boiling temperature at pressure P, K (Liquid); method: Ebulliometric method (Recirculating still)
Solvent: Mole fraction of propan-2-ol	Mole fraction of tetramethylammonium chloride	Boiling temperature at pressure P, K	uncertainty
0.019	0.026	367.5	0.5
0.0722	0.026	362.2	0.8
0.1146	0.026	358.8	0.6
0.174	0.026	357.1	0.5
0.2371	0.026	356.3	0.5
0.3624	0.026	355.4	0.4
0.5143	0.026	354.9	0.3
0.6484	0.026	354.7	0.3
0.764	0.026	354.5	0.3
0.8859	0.026	354.2	0.3
0.0379	0.05	367.2	0.3
0.1024	0.05	363.5	0.8
0.1412	0.05	361.5	0.7
0.1913	0.05	359.7	0.6
0.261	0.05	358.6	0.5
0.3663	0.05	357.4	0.4
0.5233	0.05	356.5	0.4
0.6532	0.05	355.9	0.3
0.7706	0.05	355.7	0.3
0.8638	0.05	355.5	0.3

System: propan-2-ol + water + tetramethylammonium chloride; phases: Gas, Liquid
Fixed: Pressure, kPa = 101.058
Property: Mole fraction of tetramethylammonium chloride (Gas); method: Chromatography
Solvent: Mole fraction of propan-2-ol	Mole fraction of tetramethylammonium chloride	Mole fraction of tetramethylammonium chloride	uncertainty
0.019	0.026	0	
0.0722	0.026	0	
0.1146	0.026	0	
0.174	0.026	0	
0.2371	0.026	0	
0.3624	0.026	0	
0.5143	0.026	0	
0.6484	0.026	0	
0.764	0.026	0	
0.8859	0.026	0	
0.0379	0.05	0	
0.1024	0.05	0	
0.1412	0.05	0	
0.1913	0.05	0	
0.261	0.05	0	
0.3663	0.05	0	
0.5233	0.05	0	
0.6532	0.05	0	
0.7706	0.05	0	
0.8638	0.05	0	

System: propan-2-ol + water + tetramethylammonium chloride; phases: Gas, Liquid
Fixed: Pressure, kPa = 101.058
Property: Mole fraction of propan-2-ol (Gas); method: Chromatography
Solvent: Mole fraction of propan-2-ol	Mole fraction of tetramethylammonium chloride	Mole fraction of propan-2-ol	uncertainty
0.019	0.026	0.1461	0.0227
0.0722	0.026	0.3697	0.0189
0.1146	0.026	0.4678	0.0168
0.174	0.026	0.5474	0.0161
0.2371	0.026	0.6239	0.0152
0.3624	0.026	0.7041	0.0149
0.5143	0.026	0.7337	0.0146
0.6484	0.026	0.764	0.0139
0.764	0.026	0.8102	0.0122
0.8859	0.026	0.9136	0.0086
0.0379	0.05	0.3139	0.0226
0.1024	0.05	0.5145	0.0155
0.1412	0.05	0.5781	0.0142
0.1913	0.05	0.6491	0.0141
0.261	0.05	0.7089	0.0119
0.3663	0.05	0.7675	0.0102
0.5233	0.05	0.8183	0.0139
0.6532	0.05	0.8497	0.0159
0.7706	0.05	0.8976	0.0148
0.8638	0.05	0.9348	0.0067
