Measured thermophysical data. Solubility Measurement, Correlation, and Molecular Interactions of 3-Methyl-6-nitroindazole in Different Neat Solvents and Mixed Solvents from T = 278.15 to 328.15 K
Source: J. Chem. Eng. Data, 2019, 10.1021/acs.jced.8b01256
Compound 1: 3-methyl-6-nitroindazole, C8H7N3O2, InChI=1S/C8H7N3O2/c1-5-7-3-2-6(11(12)13)4-8(7)10-9-5/h2-4H,1H3,(H,9,10), purity 98%
Compound 2: dimethylformamide, C3H7NO, InChI=1S/C3H7NO/c1-4(2)3-5/h3H,1-2H3, purity 99%
Compound 3: ethyl acetate, C4H8O2, InChI=1S/C4H8O2/c1-3-6-4(2)5/h3H2,1-2H3, purity 99%
Compound 4: acetone, C3H6O, InChI=1S/C3H6O/c1-3(2)4/h1-2H3, purity 99%
Compound 5: methanol, CH4O, InChI=1S/CH4O/c1-2/h2H,1H3, purity 99%
Compound 6: tetrahydrofuran, C4H8O, InChI=1S/C4H8O/c1-2-4-5-3-1/h1-4H2, purity 99%
Compound 7: acetonitrile, C2H3N, InChI=1S/C2H3N/c1-2-3/h1H3, purity 99%
Compound 8: propan-1-ol, C3H8O, InChI=1S/C3H8O/c1-2-3-4/h4H,2-3H2,1H3, purity 99%
Compound 9: water, H2O, InChI=1S/H2O/h1H2, purity 99.9%
Compound 10: cyclohexane, C6H12, InChI=1S/C6H12/c1-2-4-6-5-3-1/h1-6H2, purity 99%

System: 3-methyl-6-nitroindazole; phases: Crystal, Liquid, Air at 1 atmosphere
Property: Triple point temperature, K (Crystal); method: DSC
Triple point temperature, K	uncertainty
460.15	1

System: 3-methyl-6-nitroindazole; phases: Crystal, Liquid, Air at 1 atmosphere
Property: Molar enthalpy of transition or fusion, kJ/mol (Crystal); method: DSC
Molar enthalpy of transition or fusion, kJ/mol	uncertainty
10.65	0.38

System: 3-methyl-6-nitroindazole + dimethylformamide; phases: Liquid, Crystal
Fixed: Pressure, kPa = 101.325
Property: Mole fraction of 3-methyl-6-nitroindazole (Liquid); method: gravimetric
Temperature, K	Mole fraction of 3-methyl-6-nitroindazole	uncertainty
278.15	0.149	0.015
283.15	0.161	0.016
288.15	0.177	0.018
293.15	0.195	0.02
298.15	0.215	0.022
303.15	0.236	0.024
308.15	0.259	0.026
313.15	0.283	0.028
318.15	0.309	0.031
323.15	0.337	0.034
328.15	0.371	0.037

System: 3-methyl-6-nitroindazole + acetonitrile; phases: Liquid, Crystal
Fixed: Pressure, kPa = 101.325
Property: Mole fraction of 3-methyl-6-nitroindazole (Liquid); method: gravimetric
Temperature, K	Mole fraction of 3-methyl-6-nitroindazole	uncertainty
278.15	0.0093	0.0009
283.15	0.0109	0.0011
288.15	0.0123	0.0012
293.15	0.0139	0.0014
298.15	0.0156	0.0016
303.15	0.0174	0.0017
308.15	0.019	0.0019
313.15	0.0206	0.0021
318.15	0.0222	0.0022
323.15	0.0239	0.0024
328.15	0.0254	0.0025

System: 3-methyl-6-nitroindazole + methanol; phases: Liquid, Crystal
Fixed: Pressure, kPa = 101.325
Property: Mole fraction of 3-methyl-6-nitroindazole (Liquid); method: gravimetric
Temperature, K	Mole fraction of 3-methyl-6-nitroindazole	uncertainty
278.15	0.0042	0.0004
283.15	0.0051	0.0005
288.15	0.0059	0.0006
293.15	0.007	0.0007
298.15	0.0083	0.0008
303.15	0.01	0.001
308.15	0.012	0.0012
313.15	0.014	0.0014
318.15	0.0164	0.0017
323.15	0.0194	0.002
328.15	0.0227	0.0023

System: 3-methyl-6-nitroindazole + propan-1-ol; phases: Liquid, Crystal
Fixed: Pressure, kPa = 101.325
Property: Mole fraction of 3-methyl-6-nitroindazole (Liquid); method: gravimetric
Temperature, K	Mole fraction of 3-methyl-6-nitroindazole	uncertainty
278.15	0.0051	0.0005
283.15	0.0061	0.0006
288.15	0.0073	0.0007
293.15	0.0084	0.0008
298.15	0.0096	0.001
303.15	0.0108	0.0011
308.15	0.012	0.0012
313.15	0.0136	0.0014
318.15	0.0155	0.0016
323.15	0.0176	0.0018
328.15	0.0204	0.0021

System: 3-methyl-6-nitroindazole + acetone; phases: Liquid, Crystal
Fixed: Pressure, kPa = 101.325
Property: Mole fraction of 3-methyl-6-nitroindazole (Liquid); method: gravimetric
Temperature, K	Mole fraction of 3-methyl-6-nitroindazole	uncertainty
278.15	0.0251	0.0025
283.15	0.0295	0.003
288.15	0.0336	0.0034
293.15	0.0382	0.0038
298.15	0.0433	0.0043
303.15	0.0481	0.0048
308.15	0.0538	0.0054
313.15	0.0595	0.006
318.15	0.0661	0.0066
323.15	0.0738	0.0074
328.15	0.0829	0.0083

System: 3-methyl-6-nitroindazole + tetrahydrofuran; phases: Liquid, Crystal
Fixed: Pressure, kPa = 101.325
Property: Mole fraction of 3-methyl-6-nitroindazole (Liquid); method: gravimetric
Temperature, K	Mole fraction of 3-methyl-6-nitroindazole	uncertainty
278.15	0.0579	0.0058
283.15	0.0615	0.0062
288.15	0.0671	0.0067
293.15	0.0726	0.0073
298.15	0.0781	0.0078
303.15	0.0845	0.0085
308.15	0.0903	0.009
313.15	0.097	0.0097
318.15	0.105	0.0105
323.15	0.113	0.0113
328.15	0.123	0.0123

System: 3-methyl-6-nitroindazole + ethyl acetate; phases: Liquid, Crystal
Fixed: Pressure, kPa = 101.325
Property: Mole fraction of 3-methyl-6-nitroindazole (Liquid); method: gravimetric
Temperature, K	Mole fraction of 3-methyl-6-nitroindazole	uncertainty
278.15	0.016	0.0016
283.15	0.0183	0.0018
288.15	0.021	0.0021
293.15	0.0232	0.0023
298.15	0.0255	0.0026
303.15	0.0295	0.003
308.15	0.0328	0.0033
313.15	0.0363	0.0036
318.15	0.0394	0.004
323.15	0.043	0.0043
328.15	0.0456	0.0046

System: 3-methyl-6-nitroindazole + water; phases: Liquid, Crystal
Fixed: Pressure, kPa = 101.325
Property: Mole fraction of 3-methyl-6-nitroindazole (Liquid); method: gravimetric
Temperature, K	Mole fraction of 3-methyl-6-nitroindazole	uncertainty
278.15	2.1e-05	2.2e-06
283.15	2.7e-05	2.8e-06
288.15	3.6e-05	3.7e-06
293.15	4.71e-05	4.8e-06
298.15	6.31e-05	6.4e-06
303.15	8.01e-05	8.1e-06
308.15	9.91e-05	1.01e-05
313.15	0.000123	1.2e-05
318.15	0.000147	1.5e-05
323.15	0.000179	1.8e-05
328.15	0.000218	2.2e-05

System: 3-methyl-6-nitroindazole + dimethylformamide + water; phases: Liquid, Crystal
Fixed: Pressure, kPa = 101.325
Property: Mole fraction of 3-methyl-6-nitroindazole (Liquid); method: gravimetric
Temperature, K	Solvent: Mole fraction of dimethylformamide	Mole fraction of 3-methyl-6-nitroindazole	uncertainty
278.15	0	2.1e-05	2.2e-06
283.15	0	2.7e-05	2.8e-06
288.15	0	3.6e-05	3.7e-06
293.15	0	4.71e-05	4.8e-06
298.15	0	6.31e-05	6.4e-06
303.15	0	8.01e-05	8.1e-06
308.15	0	9.91e-05	1.01e-05
313.15	0	0.000123	1.2e-05
318.15	0	0.000147	1.5e-05
323.15	0	0.000179	1.8e-05
328.15	0	0.000218	2.2e-05
278.15	0.1651	0.0032	0.0007
283.15	0.1651	0.0037	0.0004
288.15	0.1651	0.0042	0.0004
293.15	0.1651	0.0048	0.0005
298.15	0.1651	0.0058	0.0006
303.15	0.1651	0.0067	0.0007
308.15	0.1651	0.0077	0.0008
313.15	0.1651	0.0087	0.0009
318.15	0.1651	0.0098	0.001
323.15	0.1651	0.0111	0.0011
328.15	0.1651	0.0126	0.0022
278.15	0.3452	0.0319	0.0032
283.15	0.3452	0.0352	0.0035
288.15	0.3452	0.0396	0.004
293.15	0.3452	0.0445	0.0045
298.15	0.3452	0.0502	0.005
303.15	0.3452	0.0561	0.0056
308.15	0.3452	0.0626	0.0063
313.15	0.3452	0.0694	0.007
318.15	0.3452	0.0767	0.0077
323.15	0.3452	0.0846	0.0085
328.15	0.3452	0.0942	0.0095
278.15	0.4416	0.0528	0.0053
283.15	0.4416	0.0578	0.0058
288.15	0.4416	0.0643	0.0065
293.15	0.4416	0.0718	0.0072
298.15	0.4416	0.0802	0.0081
303.15	0.4416	0.0891	0.0089
308.15	0.4416	0.0988	0.0099
313.15	0.4416	0.109	0.0109
318.15	0.4416	0.12	0.012
323.15	0.4416	0.1318	0.0132
328.15	0.4416	0.1461	0.0146
278.15	0.5426	0.0707	0.0071
283.15	0.5426	0.0772	0.0077
288.15	0.5426	0.0856	0.0086
293.15	0.5426	0.0952	0.0096
298.15	0.5426	0.1059	0.0106
303.15	0.5426	0.1174	0.0118
308.15	0.5426	0.1299	0.013
313.15	0.5426	0.143	0.0143
318.15	0.5426	0.1571	0.0158
323.15	0.5426	0.1722	0.0173
328.15	0.5426	0.1907	0.0191
278.15	0.7598	0.1046	0.0105
283.15	0.7598	0.113	0.0113
288.15	0.7598	0.1239	0.0124
293.15	0.7598	0.1363	0.0137
298.15	0.7598	0.1503	0.0151
303.15	0.7598	0.1651	0.0166
308.15	0.7598	0.1813	0.0182
313.15	0.7598	0.1983	0.0199
318.15	0.7598	0.2166	0.0217
323.15	0.7598	0.2361	0.0237
328.15	0.7598	0.2601	0.0261
278.15	0.8768	0.1295	0.013
283.15	0.8768	0.1392	0.014
288.15	0.8768	0.1515	0.0152
293.15	0.8768	0.1657	0.0166
298.15	0.8768	0.1817	0.0182
303.15	0.8768	0.1986	0.0199
308.15	0.8768	0.2171	0.0218
313.15	0.8768	0.2365	0.0237
318.15	0.8768	0.2573	0.0258
323.15	0.8768	0.2797	0.028
328.15	0.8768	0.307	0.0308
278.15	1	0.1494	0.015
283.15	1	0.1615	0.0162
288.15	1	0.1769	0.0177
293.15	1	0.1947	0.0195
298.15	1	0.2146	0.0215
303.15	1	0.2357	0.0236
308.15	1	0.2589	0.026
313.15	1	0.2831	0.0284
318.15	1	0.3092	0.031
323.15	1	0.3371	0.0338
328.15	1	0.3712	0.0372

System: 3-methyl-6-nitroindazole + tetrahydrofuran + cyclohexane; phases: Liquid, Crystal
Fixed: Pressure, kPa = 101.325
Property: Mole fraction of 3-methyl-6-nitroindazole (Liquid); method: gravimetric
Temperature, K	Solvent: Mole fraction of tetrahydrofuran	Mole fraction of 3-methyl-6-nitroindazole	uncertainty
278.15	0	7.38e-05	7.7e-06
283.15	0	9.89e-05	1.02e-05
288.15	0	0.00014	1.5e-05
293.15	0	0.000195	2e-05
298.15	0	0.000276	2.9e-05
303.15	0	0.000399	4.1e-05
308.15	0	0.000549	5.7e-05
313.15	0	0.000754	7.8e-05
318.15	0	0.00104	0.00011
323.15	0	0.0014	0.00014
328.15	0	0.00179	0.00018
278.15	0.1421	0.00263	0.00035
283.15	0.1421	0.00314	0.00032
288.15	0.1421	0.00369	0.00037
293.15	0.1421	0.00436	0.00044
298.15	0.1421	0.00509	0.00052
303.15	0.1421	0.00613	0.00062
308.15	0.1421	0.00733	0.00074
313.15	0.1421	0.00851	0.00086
318.15	0.1421	0.01018	0.00103
323.15	0.1421	0.01161	0.00117
328.15	0.1421	0.01334	0.00141
278.15	0.3092	0.01644	0.00165
283.15	0.3092	0.01801	0.00181
288.15	0.3092	0.01976	0.00198
293.15	0.3092	0.02179	0.00219
298.15	0.3092	0.02398	0.00241
303.15	0.3092	0.02594	0.0026
308.15	0.3092	0.02844	0.00285
313.15	0.3092	0.03095	0.0031
318.15	0.3092	0.03372	0.00338
323.15	0.3092	0.0366	0.00367
328.15	0.3092	0.04019	0.00403
278.15	0.4416	0.02731	0.00275
283.15	0.4416	0.02916	0.00292
288.15	0.4416	0.03045	0.00305
293.15	0.4416	0.03348	0.00336
298.15	0.4416	0.0371	0.00372
303.15	0.4416	0.03984	0.00399
308.15	0.4416	0.04261	0.00427
313.15	0.4416	0.0458	0.00459
318.15	0.4416	0.04964	0.00498
323.15	0.4416	0.05349	0.00536
328.15	0.4416	0.05833	0.00584
278.15	0.5823	0.03379	0.00338
283.15	0.5823	0.0356	0.00357
288.15	0.5823	0.03914	0.00392
293.15	0.5823	0.04235	0.00424
298.15	0.5823	0.04575	0.00459
303.15	0.5823	0.04981	0.00499
308.15	0.5823	0.05354	0.00536
313.15	0.5823	0.05728	0.00574
318.15	0.5823	0.06224	0.00624
323.15	0.5823	0.0672	0.00674
328.15	0.5823	0.07341	0.00736
278.15	0.7234	0.04118	0.00412
283.15	0.7234	0.04286	0.00429
288.15	0.7234	0.04682	0.00469
293.15	0.7234	0.05049	0.00506
298.15	0.7234	0.05453	0.00547
303.15	0.7234	0.05972	0.00599
308.15	0.7234	0.06448	0.00646
313.15	0.7234	0.06931	0.00695
318.15	0.7234	0.07519	0.00754
323.15	0.7234	0.08126	0.00815
328.15	0.7234	0.08886	0.00892
278.15	0.8645	0.05013	0.00502
283.15	0.8645	0.05381	0.00539
288.15	0.8645	0.05778	0.00579
293.15	0.8645	0.0623	0.00624
298.15	0.8645	0.06728	0.00674
303.15	0.8645	0.07327	0.00735
308.15	0.8645	0.0797	0.00799
313.15	0.8645	0.08543	0.00856
318.15	0.8645	0.09187	0.00921
323.15	0.8645	0.09909	0.00993
328.15	0.8645	0.10812	0.01083
278.15	1	0.0579	0.0058
283.15	1	0.06151	0.00616
288.15	1	0.06717	0.00673
293.15	1	0.0726	0.00727
298.15	1	0.0781	0.00783
303.15	1	0.08448	0.00846
308.15	1	0.0903	0.00905
313.15	1	0.097	0.00972
318.15	1	0.105	0.01052
323.15	1	0.113	0.01133
328.15	1	0.123	0.01233

System: 3-methyl-6-nitroindazole + acetone + water; phases: Liquid, Crystal
Fixed: Pressure, kPa = 101.325
Property: Mole fraction of 3-methyl-6-nitroindazole (Liquid); method: gravimetric
Temperature, K	Solvent: Mole fraction of acetone	Mole fraction of 3-methyl-6-nitroindazole	uncertainty
278.15	0	2.1e-05	2.2e-06
283.15	0	2.7e-05	2.8e-06
288.15	0	3.6e-05	3.7e-06
293.15	0	4.71e-05	4.8e-06
298.15	0	6.31e-05	6.4e-06
303.15	0	8.01e-05	8.1e-06
308.15	0	9.91e-05	1.01e-05
313.15	0	0.000123	1.2e-05
318.15	0	0.000147	1.5e-05
323.15	0	0.000179	1.8e-05
328.15	0	0.000218	2.2e-05
278.15	0.1651	0.000208	3.1e-05
283.15	0.1651	0.000268	2.7e-05
288.15	0.1651	0.000333	3.4e-05
293.15	0.1651	0.000421	4.3e-05
298.15	0.1651	0.000511	5.2e-05
303.15	0.1651	0.000583	5.9e-05
308.15	0.1651	0.000697	7.1e-05
313.15	0.1651	0.000803	8.1e-05
318.15	0.1651	0.00093	9.4e-05
323.15	0.1651	0.00109	0.00011
328.15	0.1651	0.00128	0.00019
278.15	0.3452	0.0015	0.0002
283.15	0.3452	0.0019	0.0002
288.15	0.3452	0.0022	0.0002
293.15	0.3452	0.0027	0.0003
298.15	0.3452	0.0031	0.0003
303.15	0.3452	0.0036	0.0004
308.15	0.3452	0.0042	0.0004
313.15	0.3452	0.0048	0.0005
318.15	0.3452	0.0055	0.0006
323.15	0.3452	0.0064	0.0006
328.15	0.3452	0.0074	0.0008
278.15	0.4416	0.0034	0.0003
283.15	0.4416	0.0041	0.0004
288.15	0.4416	0.0048	0.0005
293.15	0.4416	0.0056	0.0006
298.15	0.4416	0.0065	0.0007
303.15	0.4416	0.0075	0.0008
308.15	0.4416	0.0088	0.0009
313.15	0.4416	0.0101	0.001
318.15	0.4416	0.0116	0.0012
323.15	0.4416	0.0134	0.0014
328.15	0.4416	0.0154	0.0016
278.15	0.5426	0.0066	0.0007
283.15	0.5426	0.0077	0.0008
288.15	0.5426	0.0089	0.0009
293.15	0.5426	0.0103	0.001
298.15	0.5426	0.0119	0.0012
303.15	0.5426	0.0138	0.0014
308.15	0.5426	0.016	0.0016
313.15	0.5426	0.0184	0.0019
318.15	0.5426	0.0211	0.0021
323.15	0.5426	0.0243	0.0024
328.15	0.5426	0.0277	0.0028
278.15	0.7598	0.0157	0.0016
283.15	0.7598	0.0177	0.0018
288.15	0.7598	0.0199	0.002
293.15	0.7598	0.0227	0.0023
298.15	0.7598	0.0261	0.0026
303.15	0.7598	0.0298	0.003
308.15	0.7598	0.0341	0.0034
313.15	0.7598	0.0385	0.0039
318.15	0.7598	0.0435	0.0044
323.15	0.7598	0.049	0.0049
328.15	0.7598	0.055	0.0055
278.15	0.8768	0.0202	0.002
283.15	0.8768	0.0225	0.0023
288.15	0.8768	0.0259	0.0026
293.15	0.8768	0.0295	0.003
298.15	0.8768	0.0335	0.0034
303.15	0.8768	0.0377	0.0038
308.15	0.8768	0.0424	0.0043
313.15	0.8768	0.0471	0.0047
318.15	0.8768	0.0526	0.0053
323.15	0.8768	0.0588	0.0059
328.15	0.8768	0.0659	0.0066
278.15	1	0.0251	0.0025
283.15	1	0.0295	0.003
288.15	1	0.0336	0.0034
293.15	1	0.0382	0.0038
298.15	1	0.0433	0.0043
303.15	1	0.0481	0.0048
308.15	1	0.0538	0.0054
313.15	1	0.0595	0.006
318.15	1	0.0661	0.0066
323.15	1	0.0738	0.0074
328.15	1	0.0829	0.0083
