Measured thermophysical data. Thermodynamic Properties of Moldy-Musty Contaminants of Wine
Source: J. Chem. Eng. Data, 2019, 10.1021/acs.jced.9b00062
Compound 1: 2,4,6-trichloroanisole, C7H5Cl3O, InChI=1S/C7H5Cl3O/c1-11-7-5(9)2-4(8)3-6(7)10/h2-3H,1H3
Compound 2: 2,4,6-tribromoanisole, C7H5Br3O, InChI=1S/C7H5Br3O/c1-11-7-5(9)2-4(8)3-6(7)10/h2-3H,1H3
Compound 3: 2,4,6-tribromophenol, C6H3Br3O, InChI=1S/C6H3Br3O/c7-3-1-4(8)6(10)5(9)2-3/h1-2,10H

System: 2,4,6-trichloroanisole; phases: Crystal, Liquid, Air at 1 atmosphere
Property: Normal melting temperature, K (Crystal); method: DTA
Normal melting temperature, K	uncertainty
332.47	0.39

System: 2,4,6-trichloroanisole; phases: Crystal, Liquid, Air at 1 atmosphere
Property: Molar enthalpy of transition or fusion, kJ/mol (Crystal); method: DSC
Molar enthalpy of transition or fusion, kJ/mol	uncertainty
22.4	0.78

System: 2,4,6-trichloroanisole; phases: Crystal, Gas
Property: Vapor or sublimation pressure, kPa (Crystal); method: Closed cell (Static) method
Temperature, K	Vapor or sublimation pressure, kPa	uncertainty
297.11	0.00239	0.00014
300.13	0.00337	0.00017
303.1	0.00462	0.00021
306.06	0.00649	0.00028
309.01	0.00877	0.00036
311.98	0.01199	0.00048
315.2	0.01642	0.00057
317.95	0.02189	0.00065
320.87	0.02895	0.00076
323.91	0.03921	0.00092
326.89	0.05174	0.00111
329.85	0.06647	0.00134

System: 2,4,6-trichloroanisole; phases: Metastable liquid, Gas
Property: Vapor or sublimation pressure, kPa (Metastable liquid); method: Closed cell (Static) method
Temperature, K	Vapor or sublimation pressure, kPa	uncertainty
319.65	0.03551	0.00086
322.82	0.04391	0.00099
325.77	0.05384	0.00114
328.77	0.06611	0.00133
331.73	0.0803	0.00155
334.71	0.09766	0.00182
337.68	0.118	0.0021
340.63	0.1424	0.0021
343.63	0.1712	0.0023
346.05	0.1971	0.0025
348.6	0.2292	0.0028
351.58	0.2724	0.0032
354.51	0.3225	0.0036
356.47	0.3593	0.0039
359.37	0.4214	0.0045
362.38	0.4943	0.0051
365.32	0.5801	0.0058
368.31	0.6729	0.0066

System: 2,4,6-tribromoanisole; phases: Crystal, Liquid, Air at 1 atmosphere
Property: Normal melting temperature, K (Crystal); method: DTA
Normal melting temperature, K	uncertainty
359.44	0.4

System: 2,4,6-tribromoanisole; phases: Crystal, Liquid, Air at 1 atmosphere
Property: Molar enthalpy of transition or fusion, kJ/mol (Crystal); method: DSC
Molar enthalpy of transition or fusion, kJ/mol	uncertainty
23.88	1.21

System: 2,4,6-tribromoanisole; phases: Crystal, Gas
Property: Vapor or sublimation pressure, kPa (Crystal); method: Closed cell (Static) method
Temperature, K	Vapor or sublimation pressure, kPa	uncertainty
330.66	0.00284	0.00016
332.63	0.00349	0.00018
334.5	0.0042	0.0002
336.63	0.0051	0.00023
338.58	0.00623	0.00027
340.54	0.00747	0.00031
342.55	0.00915	0.00038
344.5	0.01086	0.00044
346.47	0.01317	0.00052
348.43	0.01563	0.00056
350.42	0.01881	0.00061
352.4	0.0224	0.00066
354.32	0.0266	0.00073
356.37	0.03175	0.0008

System: 2,4,6-tribromoanisole; phases: Metastable liquid, Gas
Property: Vapor or sublimation pressure, kPa (Metastable liquid); method: Closed cell (Static) method
Temperature, K	Vapor or sublimation pressure, kPa	uncertainty
336.57	0.00889	0.00037
338.61	0.01033	0.00042
340.57	0.01173	0.00047
342.54	0.01369	0.00053
344.5	0.01549	0.00055
346.48	0.01786	0.00059
348.5	0.02061	0.00063
350.43	0.02345	0.00068
352.41	0.02697	0.00073
354.42	0.03065	0.00079
356.36	0.03485	0.00085
358.31	0.03946	0.00092
360.25	0.04472	0.001
362.27	0.05049	0.00109
364.24	0.05678	0.00119
366.22	0.06459	0.00131
368.15	0.07257	0.00143
370.19	0.08197	0.00158
372.11	0.09183	0.00173
374.05	0.1023	0.0019
376.07	0.1152	0.0021
377.95	0.1277	0.0023
379.95	0.1426	0.0021
381.85	0.1595	0.0023
383.82	0.177	0.0024
385.79	0.1958	0.0025
387.78	0.2203	0.0027
389.79	0.2436	0.0029
391.72	0.2676	0.0031

System: 2,4,6-tribromophenol; phases: Crystal
Property: Mass density, kg/m3 (Crystal); method: X-ray diffraction
Temperature, K	Pressure, kPa	Mass density, kg/m3	uncertainty
150	101.325	2712	13

System: 2,4,6-tribromophenol; phases: Crystal, Liquid, Air at 1 atmosphere
Property: Normal melting temperature, K (Crystal); method: DTA
Normal melting temperature, K	uncertainty
366.07	0.39

System: 2,4,6-tribromophenol; phases: Crystal, Liquid, Air at 1 atmosphere
Property: Molar enthalpy of transition or fusion, kJ/mol (Crystal); method: DSC
Molar enthalpy of transition or fusion, kJ/mol	uncertainty
20.8	0.9

System: 2,4,6-tribromophenol; phases: Crystal, Gas
Property: Vapor or sublimation pressure, kPa (Crystal); method: Calculated from knudsen effusion weight loss
Temperature, K	Vapor or sublimation pressure, kPa	uncertainty
307.16	0.000107	6e-06
309.36	0.000141	8e-06
311.2	0.000177	9e-06
313.15	0.000221	1.2e-05
315.37	0.000286	1.5e-05
317.19	0.000358	1.9e-05
319.15	0.00044	2.4e-05
321.33	0.00057	3e-05
323.2	0.0007	3.7e-05
325.15	0.000857	4.6e-05
327.33	0.0011	9.1e-05
329.21	0.00133	0.000113

System: 2,4,6-tribromophenol; phases: Crystal, Gas
Property: Vapor or sublimation pressure, kPa (Crystal); method: Closed cell (Static) method
Temperature, K	Vapor or sublimation pressure, kPa	uncertainty
336.49	0.00284	0.00016
338.49	0.00343	0.00018
340.48	0.00423	0.0002
342.48	0.00513	0.00023
344.42	0.00612	0.00027
346.35	0.00743	0.00031
348.35	0.00894	0.00037
350.35	0.01085	0.00044
352.41	0.01316	0.00052
354.4	0.01584	0.00056

System: 2,4,6-tribromophenol; phases: Metastable liquid, Gas
Property: Vapor or sublimation pressure, kPa (Metastable liquid); method: Closed cell (Static) method
Temperature, K	Vapor or sublimation pressure, kPa	uncertainty
344.43	0.01029	0.00042
346.53	0.012	0.00048
348.28	0.01367	0.00053
350.37	0.01582	0.00056
352.36	0.01813	0.0006
354.35	0.02079	0.00064
356.31	0.02367	0.00068
358.2	0.02689	0.00073
360.17	0.03085	0.00079
362.2	0.03491	0.00085
364.19	0.04045	0.00094
366.13	0.04605	0.00102
368.11	0.05207	0.00112
370.06	0.05865	0.00122
372.03	0.06591	0.00133
374.17	0.07545	0.00148
376.12	0.08537	0.00163
378.03	0.09595	0.0018
380	0.1071	0.002
381.93	0.119	0.0022
383.93	0.1348	0.0021
385.88	0.1513	0.0022
387.86	0.1682	0.0023
389.84	0.1876	0.0025
391.79	0.2094	0.0026
393.77	0.2339	0.0028
395.73	0.259	0.0031
397.68	0.284	0.0033
399.69	0.3164	0.0036
401.66	0.3517	0.0039
