Measured thermophysical data. Measurement of Solubility of Thiamine Hydrochloride Hemihydrate in Three Binary Solvents and Mixing Properties of Solutions
Source: J. Chem. Eng. Data, 2016, 10.1021/acs.jced.6b00613
Compound 1: thiamine hydrochloride, C12H18Cl2N4OS, InChI=1S/C12H17N4OS.2ClH/c1-8-11(3-4-17)18-7-16(8)6-10-5-14-9(2)15-12(10)13;;/h5,7,17H,3-4,6H2,1-2H3,(H2,13,14,15);2*1H/q+1;;/p-1
Compound 2: ethanol, C2H6O, InChI=1S/C2H6O/c1-2-3/h3H,2H2,1H3, purity 99.7%
Compound 3: propan-2-ol, C3H8O, InChI=1S/C3H8O/c1-3(2)4/h3-4H,1-2H3, purity 99.7%
Compound 4: acetone, C3H6O, InChI=1S/C3H6O/c1-3(2)4/h1-2H3, purity 99.7%
Compound 5: water, H2O, InChI=1S/H2O/h1H2, purity 99.8%

System: ethanol + thiamine hydrochloride + water; phases: Liquid, Crystal of intercomponent compound 1
Fixed: Pressure, kPa = 100
Property: Mole fraction of thiamine hydrochloride (Liquid); method: spectroscopic
Temperature, K	Solvent: Mole fraction of ethanol	Mole fraction of thiamine hydrochloride	uncertainty
278.15	0	0.03858	0.00155
278.15	0.099	0.02721	0.0011
278.15	0.198	0.01945	0.0008
278.15	0.298	0.01297	0.00055
278.15	0.398	0.00859	0.00038
278.15	0.499	0.00515	0.00026
278.15	0.599	0.00255	0.00016
278.15	0.7	0.00119	8e-05
278.15	0.8	0.00054	6e-05
283.15	0	0.04097	0.00164
283.15	0.098	0.03113	0.00126
283.15	0.198	0.02257	0.00092
283.15	0.298	0.01528	0.00065
283.15	0.398	0.01002	0.00045
283.15	0.499	0.00563	0.00029
283.15	0.599	0.00298	0.00018
283.15	0.7	0.00137	0.0001
283.15	0.8	0.0006	7e-05
288.15	0	0.04324	0.00174
288.15	0.098	0.03308	0.00134
288.15	0.197	0.02459	0.00101
288.15	0.297	0.0174	0.00073
288.15	0.398	0.01148	0.00051
288.15	0.498	0.00657	0.00033
288.15	0.599	0.00342	0.0002
288.15	0.699	0.00156	0.00012
288.15	0.8	0.00066	7e-05
293.15	0	0.0462	0.00185
293.15	0.098	0.03823	0.00154
293.15	0.197	0.02992	0.00122
293.15	0.297	0.02143	0.0009
293.15	0.397	0.01414	0.00063
293.15	0.498	0.00824	0.00042
293.15	0.599	0.00416	0.00025
293.15	0.699	0.00193	0.00014
293.15	0.8	0.00082	9e-05
298.15	0	0.04827	0.00194
298.15	0.098	0.04187	0.00168
298.15	0.197	0.03363	0.00136
298.15	0.296	0.02482	0.00103
298.15	0.397	0.01664	0.00073
298.15	0.498	0.00982	0.00049
298.15	0.598	0.00509	0.0003
298.15	0.699	0.00234	0.00017
298.15	0.8	0.00095	0.00012
303.15	0	0.05043	0.00202
303.15	0.098	0.04292	0.00172
303.15	0.196	0.03455	0.0014
303.15	0.296	0.02576	0.00106
303.15	0.396	0.01751	0.00077
303.15	0.497	0.01033	0.00051
303.15	0.598	0.00527	0.00031
303.15	0.699	0.00248	0.00018
303.15	0.8	0.00102	0.00012
308.15	0	0.05279	0.00212
308.15	0.098	0.04582	0.00184
308.15	0.196	0.03738	0.00151
308.15	0.296	0.02852	0.00118
308.15	0.396	0.01942	0.00085
308.15	0.497	0.01224	0.0006
308.15	0.598	0.00599	0.00037
308.15	0.699	0.00286	0.0002
308.15	0.8	0.00117	0.00014
313.15	0	0.05869	0.00236
313.15	0.097	0.0501	0.00202
313.15	0.196	0.04211	0.0017
313.15	0.295	0.03242	0.00134
313.15	0.395	0.02279	0.00099
313.15	0.496	0.01478	0.00071
313.15	0.598	0.00697	0.00045
313.15	0.699	0.00345	0.00025
313.15	0.799	0.00126	0.00018

System: thiamine hydrochloride + propan-2-ol + water; phases: Liquid, Crystal of intercomponent compound 1
Fixed: Pressure, kPa = 100
Property: Mole fraction of thiamine hydrochloride (Liquid); method: spectroscopic
Temperature, K	Solvent: Mole fraction of propan-2-ol	Mole fraction of thiamine hydrochloride	uncertainty
278.15	0	0.03858	0.00155
278.15	0.099	0.02504	0.00101
278.15	0.198	0.01611	0.00067
278.15	0.299	0.00957	0.00042
278.15	0.399	0.00514	0.00025
278.15	0.499	0.00219	0.00014
278.15	0.6	0.00078	7e-05
278.15	0.7	0.00029	4e-05
283.15	0	0.04097	0.00164
283.15	0.099	0.0287	0.00116
283.15	0.198	0.01854	0.00077
283.15	0.299	0.01101	0.00049
283.15	0.399	0.00586	0.00029
283.15	0.499	0.00271	0.00016
283.15	0.6	0.00097	8e-05
283.15	0.7	0.0003	5e-05
288.15	0	0.04324	0.00174
288.15	0.098	0.03151	0.00127
288.15	0.198	0.02085	0.00086
288.15	0.298	0.01321	0.00057
288.15	0.399	0.00675	0.00034
288.15	0.499	0.00319	0.00019
288.15	0.6	0.00107	0.0001
288.15	0.7	0.00034	5e-05
293.15	0	0.0462	0.00185
293.15	0.098	0.03415	0.00138
293.15	0.198	0.02378	0.00098
293.15	0.298	0.01513	0.00066
293.15	0.398	0.00784	0.00039
293.15	0.499	0.00387	0.00023
293.15	0.6	0.00127	0.00012
293.15	0.7	0.0004	6e-05
298.15	0	0.04827	0.00194
298.15	0.098	0.03756	0.00151
298.15	0.197	0.0266	0.0011
298.15	0.297	0.01738	0.00075
298.15	0.398	0.00919	0.00046
298.15	0.499	0.0045	0.00026
298.15	0.6	0.00148	0.00013
298.15	0.7	0.00047	7e-05
303.15	0	0.05043	0.00202
303.15	0.098	0.04051	0.00163
303.15	0.197	0.0317	0.0013
303.15	0.297	0.01995	0.00086
303.15	0.398	0.01221	0.00057
303.15	0.499	0.0052	0.00033
303.15	0.599	0.00173	0.00016
303.15	0.7	0.00049	9e-05
308.15	0	0.05279	0.00212
308.15	0.098	0.04415	0.00178
308.15	0.196	0.03506	0.00143
308.15	0.297	0.02233	0.00096
308.15	0.397	0.01335	0.00063
308.15	0.499	0.00581	0.00037
308.15	0.599	0.00198	0.00018
308.15	0.7	0.00055	0.0001
313.15	0	0.05869	0.00236
313.15	0.098	0.04727	0.0019
313.15	0.196	0.0384	0.00155
313.15	0.296	0.02618	0.00111
313.15	0.397	0.01621	0.00076
313.15	0.498	0.00657	0.00044
313.15	0.599	0.00242	0.00021
313.15	0.7	0.00068	0.00012

System: thiamine hydrochloride + acetone + water; phases: Liquid, Crystal of intercomponent compound 1
Fixed: Pressure, kPa = 100
Property: Mole fraction of thiamine hydrochloride (Liquid); method: spectroscopic
Temperature, K	Solvent: Mole fraction of acetone	Mole fraction of thiamine hydrochloride	uncertainty
278.15	0	0.03858	0.00155
278.15	0.099	0.02303	0.00093
278.15	0.199	0.01469	0.00061
278.15	0.299	0.00797	0.00036
278.15	0.399	0.00359	0.00019
278.15	0.5	0.00141	0.0001
278.15	0.6	0.00042	6e-05
283.15	0	0.04097	0.00164
283.15	0.099	0.0258	0.00105
283.15	0.198	0.01654	0.00069
283.15	0.299	0.00917	0.00042
283.15	0.399	0.00397	0.00022
283.15	0.5	0.00178	0.00011
283.15	0.6	0.00045	8e-05
288.15	0	0.04324	0.00174
288.15	0.099	0.02887	0.00117
288.15	0.198	0.01863	0.00077
288.15	0.298	0.01073	0.00048
288.15	0.399	0.00467	0.00026
288.15	0.499	0.00201	0.00013
288.15	0.6	0.0005	9e-05
293.15	0	0.0462	0.00185
293.15	0.098	0.0321	0.0013
293.15	0.198	0.02025	0.00084
293.15	0.298	0.01131	0.0005
293.15	0.399	0.00545	0.00028
293.15	0.499	0.00251	0.00016
293.15	0.6	0.00056	0.00012
298.15	0	0.04827	0.00194
298.15	0.098	0.03493	0.00141
298.15	0.198	0.02378	0.00098
298.15	0.298	0.01259	0.00057
298.15	0.399	0.00655	0.00033
298.15	0.499	0.00272	0.00018
298.15	0.6	0.00063	0.00013
303.15	0	0.05043	0.00202
303.15	0.098	0.03979	0.00161
303.15	0.197	0.02623	0.00109
303.15	0.298	0.01543	0.00068
303.15	0.398	0.00774	0.0004
303.15	0.499	0.00301	0.00021
303.15	0.6	0.00069	0.00014
308.15	0	0.05279	0.00212
308.15	0.098	0.04372	0.00176
308.15	0.197	0.03122	0.00129
308.15	0.297	0.01743	0.00078
308.15	0.398	0.00848	0.00044
308.15	0.499	0.00335	0.00023
308.15	0.6	0.00078	0.00016
313.15	0	0.05869	0.00236
313.15	0.097	0.04776	0.00192
313.15	0.196	0.03479	0.00142
313.15	0.297	0.0197	0.00089
313.15	0.398	0.00979	0.00051
313.15	0.499	0.00361	0.00027
313.15	0.6	0.0009	0.00017

System: thiamine hydrochloride + water; phases: Liquid, Crystal of intercomponent compound 1
Fixed: Pressure, kPa = 100
Property: Mole fraction of thiamine hydrochloride (Liquid); method: spectroscopic
Temperature, K	Mole fraction of thiamine hydrochloride	uncertainty
278.15	0.03858	0.00155
283.15	0.04097	0.00164
288.15	0.04324	0.00174
293.15	0.0462	0.00185
298.15	0.04827	0.00194
303.15	0.05043	0.00202
308.15	0.05279	0.00212
313.15	0.05869	0.00236
