Measured thermophysical data. Density, Refractive Index and Volumetric Properties of Water-Ionic Liquid Binary Systems with Imidazolium-Based Cations and Tetrafluoroborate, Triflate and Octylsulfate Anions at T = 293 to 343 K and p = 0.1 MPa
Source: J. Chem. Eng. Data, 2019, 10.1021/acs.jced.8b00854
Compound 1: 1-ethyl-3-methylimidazolium tetrafluoroborate, C6H11BF4N2, InChI=1S/C6H11N2.BF4/c1-3-8-5-4-7(2)6-8;2-1(3,4)5/h4-6H,3H2,1-2H3;/q+1;-1, purity 98%
Compound 2: 1-butyl-3-methylimidazolium tetrafluoroborate, C8H15BF4N2, InChI=1S/C8H15N2.BF4/c1-3-4-5-10-7-6-9(2)8-10;2-1(3,4)5/h6-8H,3-5H2,1-2H3;/q+1;-1, purity 99%
Compound 3: 1-hexyl-3-methylimidazolium tetrafluoroborate, C10H19BF4N2, InChI=1S/C10H19N2.BF4/c1-3-4-5-6-7-12-9-8-11(2)10-12;2-1(3,4)5/h8-10H,3-7H2,1-2H3;/q+1;-1, purity 99%
Compound 4: 1-methyl-3-octylimidazolium tetrafluoroborate, C12H23BF4N2, InChI=1S/C12H23N2.BF4/c1-3-4-5-6-7-8-9-14-11-10-13(2)12-14;2-1(3,4)5/h10-12H,3-9H2,1-2H3;/q+1;-1, purity 99%
Compound 5: 1-ethyl-3-methylimidazolium trifluoromethanesulfonate, C7H11F3N2O3S, InChI=1S/C6H11N2.CHF3O3S/c1-3-8-5-4-7(2)6-8;2-1(3,4)8(5,6)7/h4-6H,3H2,1-2H3;(H,5,6,7)/q+1;/p-1, purity 99%
Compound 6: 1-butyl-3-methylimidazolium trifluoromethanesulfonate, C9H15F3N2O3S, InChI=1S/C8H15N2.CHF3O3S/c1-3-4-5-10-7-6-9(2)8-10;2-1(3,4)8(5,6)7/h6-8H,3-5H2,1-2H3;(H,5,6,7)/q+1;/p-1, purity 99%
Compound 7: 1-butyl-3-methylimidazolium octyl sulfate, C16H32N2O4S, InChI=1S/C8H15N2.C8H18O4S/c1-3-4-5-10-7-6-9(2)8-10;1-2-3-4-5-6-7-8-12-13(9,10)11/h6-8H,3-5H2,1-2H3;2-8H2,1H3,(H,9,10,11)/q+1;/p-1, purity 99%
Compound 8: water, H2O, InChI=1S/H2O/h1H2, purity 99.9%

System: water; phases: Liquid
Fixed: Pressure, kPa = 100
Property: Mass density, kg/m3 (Liquid); method: Vibrating tube method
Temperature, K	Mass density, kg/m3	uncertainty
293.15	998.19	2
303.15	995.64	2
313.15	992.22	2
323.15	988.04	2
333.15	981.56	2
343.15	972.75	2
333.15	988.04	2

System: water; phases: Liquid
Fixed: Pressure, kPa = 100
Property: Refractive index (Na D-line) (Liquid); method: Standard Abbe refractometry
Temperature, K	Refractive index (Na D-line)	uncertainty
293.15	1.3335	0.0016
303.15	1.3315	0.0016
313.15	1.3305	0.0016
323.15	1.329	0.0016
333.15	1.3275	0.0016
343.15	1.326	0.0016

System: 1-ethyl-3-methylimidazolium tetrafluoroborate + water; phases: Liquid
Fixed: Pressure, kPa = 100
Property: Mass density, kg/m3 (Liquid); method: Vibrating tube method
Temperature, K	Mole fraction of 1-ethyl-3-methylimidazolium tetrafluoroborate	Mass density, kg/m3	uncertainty
293.15	0	998.19	2
303.15	0	995.64	2
313.15	0	992.22	2
323.15	0	988.04	2
333.15	0	981.56	2
343.15	0	972.75	2
293.15	0.1001	1135.98	2.04
303.15	0.1001	1129.7	2.04
313.15	0.1001	1123.34	2.04
323.15	0.1001	1116.34	2.03
333.15	0.1001	1110.02	2.03
343.15	0.1001	1101.5	2.04
303.15	0.2002	1183.7	2.01
293.15	0.2002	1190.68	2.01
313.15	0.2002	1176.44	2.01
323.15	0.2002	1169.01	2.01
333.15	0.2002	1161.89	2.01
343.15	0.2002	1153.47	2.01
303.15	0.3004	1212.47	2.02
313.15	0.3004	1204.95	2.01
293.15	0.3004	1219.59	2.02
323.15	0.3004	1197.41	2.01
333.15	0.3004	1190.09	2.01
343.15	0.3004	1181.98	2.01
313.15	0.4003	1223.03	2.02
303.15	0.4003	1230.6	2.03
323.15	0.4003	1215.41	2.02
293.15	0.4003	1237.8	2.03
333.15	0.4003	1208.03	2.02
343.15	0.4003	1200.26	2.02
323.15	0.5009	1228.52	2.04
313.15	0.5009	1236.17	2.04
303.15	0.5009	1243.72	2.05
333.15	0.5009	1221.09	2.04
293.15	0.5009	1251.03	2.05
343.15	0.5009	1213.58	2.04
323.15	0.5999	1238.61	2.07
313.15	0.5999	1246.23	2.07
333.15	0.5999	1231.14	2.07
293.15	0.5999	1261.19	2.08
303.15	0.5999	1253.76	2.08
343.15	0.5999	1223.61	2.07
293.15	0.7002	1269.24	2.13
303.15	0.7002	1261.71	2.12
333.15	0.7002	1239.11	2.11
323.15	0.7002	1246.64	2.12
313.15	0.7002	1254.19	2.12
343.15	0.7002	1231.58	2.11
313.15	0.8004	1260.1	2.19
333.15	0.8004	1245.05	2.18
293.15	0.8004	1275.23	2.2
303.15	0.8004	1267.64	2.19
323.15	0.8004	1252.61	2.18
343.15	0.8004	1237.51	2.17
293.15	0.9011	1279.57	2.29
313.15	0.9011	1264.39	2.28
303.15	0.9011	1271.96	2.28
323.15	0.9011	1256.9	2.27
333.15	0.9011	1249.32	2.26
343.15	0.9011	1241.76	2.26

System: 1-ethyl-3-methylimidazolium tetrafluoroborate + water; phases: Liquid
Fixed: Pressure, kPa = 100
Property: Refractive index (Na D-line) (Liquid); method: Standard Abbe refractometry
Temperature, K	Mole fraction of 1-ethyl-3-methylimidazolium tetrafluoroborate	Refractive index (Na D-line)	uncertainty
293.15	0	1.3335	0.0016
303.15	0	1.3315	0.0016
313.15	0	1.3305	0.0016
323.15	0	1.329	0.0016
333.15	0	1.3275	0.0016
343.15	0	1.326	0.0016
293.15	0.1001	1.369	0.0017
303.15	0.1001	1.367	0.0016
313.15	0.1001	1.3655	0.0016
323.15	0.1001	1.364	0.0016
333.15	0.1001	1.362	0.0016
343.15	0.1001	1.3615	0.0018
303.15	0.2002	1.381	0.0016
293.15	0.2002	1.3825	0.0016
313.15	0.2002	1.379	0.0016
323.15	0.2002	1.377	0.0016
333.15	0.2002	1.376	0.0016
343.15	0.2002	1.376	0.0016
303.15	0.3004	1.3895	0.0016
313.15	0.3004	1.3875	0.0016
293.15	0.3004	1.3915	0.0016
323.15	0.3004	1.3875	0.0016
333.15	0.3004	1.385	0.0016
343.15	0.3004	1.385	0.0016
313.15	0.4003	1.3935	0.0016
303.15	0.4003	1.3955	0.0017
323.15	0.4003	1.392	0.0016
293.15	0.4003	1.398	0.0016
333.15	0.4003	1.391	0.0016
343.15	0.4003	1.39	0.0016
323.15	0.5009	1.3965	0.0016
313.15	0.5009	1.3975	0.0016
303.15	0.5009	1.3995	0.0016
333.15	0.5009	1.395	0.0016
293.15	0.5009	1.401	0.0016
343.15	0.5009	1.3935	0.0016
323.15	0.5999	1.399	0.0016
313.15	0.5999	1.4005	0.0017
333.15	0.5999	1.398	0.0016
293.15	0.5999	1.4045	0.0017
303.15	0.5999	1.402	0.0017
343.15	0.5999	1.397	0.0017
293.15	0.7002	1.4065	0.0017
303.15	0.7002	1.4045	0.0017
333.15	0.7002	1.399	0.0017
323.15	0.7002	1.401	0.0017
313.15	0.7002	1.4025	0.0017
343.15	0.7002	1.3985	0.0017
313.15	0.8004	1.405	0.0017
333.15	0.8004	1.401	0.0017
293.15	0.8004	1.4085	0.0017
303.15	0.8004	1.407	0.0017
323.15	0.8004	1.4025	0.0017
343.15	0.8004	1.3995	0.0017
293.15	0.9011	1.4105	0.0017
313.15	0.9011	1.4065	0.0017
303.15	0.9011	1.408	0.0017
323.15	0.9011	1.4045	0.0017
333.15	0.9011	1.4025	0.0017
343.15	0.9011	1.401	0.0017

System: 1-butyl-3-methylimidazolium tetrafluoroborate + water; phases: Liquid
Fixed: Pressure, kPa = 100
Property: Mass density, kg/m3 (Liquid); method: Vibrating tube method
Temperature, K	Mole fraction of 1-butyl-3-methylimidazolium tetrafluoroborate	Mass density, kg/m3	uncertainty
293.15	0	998.19	2
303.15	0	995.64	2
313.15	0	992.22	2
323.15	0	988.04	2
333.15	0	981.56	2
343.15	0	972.75	2
293.15	0.0994	1106.69	2.03
303.15	0.0994	1100.29	2.02
313.15	0.0994	1093.06	2.02
323.15	0.0994	1085.97	2.02
333.15	0.0994	1079.15	2.02
343.15	0.0994	1072.21	2.03
303.15	0.2005	1135.92	2.01
293.15	0.2005	1143.19	2.01
313.15	0.2005	1128.35	2.01
323.15	0.2005	1120.89	2.01
333.15	0.2005	1113.47	2.01
343.15	0.2005	1106.02	2.01
303.15	0.3003	1154.24	2
313.15	0.3003	1146.77	2
293.15	0.3003	1161.69	2
323.15	0.3003	1139.33	2
333.15	0.3003	1131.87	2
343.15	0.3003	1124.41	2
313.15	0.4003	1158.78	2.01
303.15	0.4003	1166.15	2.01
323.15	0.4003	1151.42	2.01
293.15	0.4003	1173.6	2.01
333.15	0.4003	1144.01	2.01
343.15	0.4003	1136.62	2.01
323.15	0.5006	1160.15	2.01
313.15	0.5006	1167.43	2.01
303.15	0.5006	1174.73	2.01
333.15	0.5006	1152.8	2.01
293.15	0.5006	1182.13	2.01
343.15	0.5006	1145.48	2.01
323.15	0.6004	1166.65	2.01
313.15	0.6004	1173.85	2.01
333.15	0.6004	1159.37	2.01
293.15	0.6004	1188.42	2.01
303.15	0.6004	1181.09	2.01
343.15	0.6004	1152.11	2.01
293.15	0.7008	1193.17	2.01
303.15	0.7008	1185.92	2.01
333.15	0.7008	1164.36	2.01
323.15	0.7008	1171.59	2.01
313.15	0.7008	1178.71	2.01
343.15	0.7008	1157.17	2.01
313.15	0.8006	1182.39	2.02
333.15	0.8006	1168.12	2.02
293.15	0.8006	1196.75	2.02
303.15	0.8006	1189.58	2.02
323.15	0.8006	1175.31	2.02
343.15	0.8006	1161	2.02
293.15	0.899	1199.6	2.02
313.15	0.899	1185.31	2.02
303.15	0.899	1192.49	2.02
323.15	0.899	1178.26	2.02
333.15	0.899	1171.04	2.02
343.15	0.899	1164.1	2.02

System: 1-butyl-3-methylimidazolium tetrafluoroborate + water; phases: Liquid
Fixed: Pressure, kPa = 100
Property: Refractive index (Na D-line) (Liquid); method: Standard Abbe refractometry
Temperature, K	Mole fraction of 1-butyl-3-methylimidazolium tetrafluoroborate	Refractive index (Na D-line)	uncertainty
293.15	0	1.3335	0.0016
303.15	0	1.3315	0.0016
313.15	0	1.3305	0.0016
323.15	0	1.329	0.0016
333.15	0	1.3275	0.0016
343.15	0	1.326	0.0016
293.15	0.0994	1.383	0.0018
303.15	0.0994	1.379	0.0017
313.15	0.0994	1.3765	0.0016
323.15	0.0994	1.376	0.0016
333.15	0.0994	1.3755	0.0016
343.15	0.0994	1.3755	0.002
303.15	0.2005	1.395	0.0016
293.15	0.2005	1.397	0.0016
313.15	0.2005	1.394	0.0016
323.15	0.2005	1.393	0.0016
333.15	0.2005	1.39	0.0016
343.15	0.2005	1.39	0.0016
303.15	0.3003	1.403	0.0016
313.15	0.3003	1.4015	0.0016
293.15	0.3003	1.406	0.0016
323.15	0.3003	1.4015	0.0016
333.15	0.3003	1.401	0.0016
343.15	0.3003	1.401	0.0016
313.15	0.4003	1.4075	0.0016
303.15	0.4003	1.409	0.0016
323.15	0.4003	1.4055	0.0016
293.15	0.4003	1.411	0.0016
333.15	0.4003	1.405	0.0016
343.15	0.4003	1.4045	0.0016
323.15	0.5006	1.4075	0.0016
313.15	0.5006	1.41	0.0016
303.15	0.5006	1.4125	0.0016
333.15	0.5006	1.4075	0.0016
293.15	0.5006	1.414	0.0016
343.15	0.5006	1.407	0.0016
323.15	0.6004	1.4105	0.0016
313.15	0.6004	1.4125	0.0016
333.15	0.6004	1.4095	0.0016
293.15	0.6004	1.4165	0.0016
303.15	0.6004	1.415	0.0016
343.15	0.6004	1.407	0.0016
293.15	0.7008	1.418	0.0016
303.15	0.7008	1.4165	0.0016
333.15	0.7008	1.411	0.0016
323.15	0.7008	1.4125	0.0016
313.15	0.7008	1.414	0.0016
343.15	0.7008	1.4085	0.0017
313.15	0.8006	1.416	0.0016
333.15	0.8006	1.4125	0.0017
293.15	0.8006	1.42	0.0016
303.15	0.8006	1.418	0.0016
323.15	0.8006	1.414	0.0016
343.15	0.8006	1.409	0.0017
293.15	0.899	1.4215	0.0016
313.15	0.899	1.4175	0.0017
303.15	0.899	1.4195	0.0016
323.15	0.899	1.415	0.0016
333.15	0.899	1.4135	0.0016
343.15	0.899	1.411	0.0017

System: 1-hexyl-3-methylimidazolium tetrafluoroborate + water; phases: Liquid
Fixed: Pressure, kPa = 100
Property: Mass density, kg/m3 (Liquid); method: Vibrating tube method
Temperature, K	Mole fraction of 1-hexyl-3-methylimidazolium tetrafluoroborate	Mass density, kg/m3	uncertainty
293.15	0	998.19	2
303.15	0	995.64	2
313.15	0	992.22	2
323.15	0	988.04	2
333.15	0	981.56	2
343.15	0	972.75	2
293.15	0.3006	1117.21	2.01
303.15	0.3006	1109.91	2.01
313.15	0.3006	1102.56	2.01
323.15	0.3006	1095.15	2.01
333.15	0.3006	1087.71	2.01
343.15	0.3006	1080.23	2.01
293.15	0.4005	1125.26	2
313.15	0.4005	1110.53	2
323.15	0.4005	1103.23	2
333.15	0.4005	1095.9	2
303.15	0.4005	1117.8	2
343.15	0.4005	1088.51	2
303.15	0.4999	1125.06	2.01
313.15	0.4999	1117.91	2.01
293.15	0.4999	1132.22	2.01
323.15	0.4999	1110.76	2.01
333.15	0.4999	1103.62	2
343.15	0.4999	1096.51	2
303.15	0.6008	1129.88	2.01
323.15	0.6008	1115.77	2.01
293.15	0.6008	1136.97	2.01
313.15	0.6008	1122.81	2.01
333.15	0.6008	1108.78	2.01
343.15	0.6008	1101.81	2.01
323.15	0.7004	1119.58	2.01
333.15	0.7004	1112.66	2.01
293.15	0.7004	1140.58	2.01
313.15	0.7004	1126.54	2.01
303.15	0.7004	1133.55	2.01
343.15	0.7004	1105.77	2.01
303.15	0.7996	1136.29	2.01
313.15	0.7996	1129.34	2.01
293.15	0.7996	1143.29	2.01
333.15	0.7996	1115.58	2.01
323.15	0.7996	1122.43	2.01
343.15	0.7996	1108.76	2.01
293.15	0.8997	1145.34	2.02
333.15	0.8997	1117.73	2.02
303.15	0.8997	1138.36	2.02
323.15	0.8997	1124.55	2.02
313.15	0.8997	1131.42	2.02
343.15	0.8997	1110.94	2.02

System: 1-hexyl-3-methylimidazolium tetrafluoroborate + water; phases: Liquid
Fixed: Pressure, kPa = 100
Property: Refractive index (Na D-line) (Liquid); method: Standard Abbe refractometry
Temperature, K	Mole fraction of 1-hexyl-3-methylimidazolium tetrafluoroborate	Refractive index (Na D-line)	uncertainty
293.15	0	1.3335	0.0016
303.15	0	1.3315	0.0016
313.15	0	1.3305	0.0016
323.15	0	1.329	0.0016
333.15	0	1.3275	0.0016
343.15	0	1.326	0.0016
293.15	0.3006	1.415	0.0019
303.15	0.3006	1.414	0.0017
313.15	0.3006	1.409	0.0017
323.15	0.3006	1.408	0.0016
333.15	0.3006	1.4075	0.0016
343.15	0.3006	1.4075	0.002
293.15	0.4005	1.418	0.0016
313.15	0.4005	1.412	0.0016
323.15	0.4005	1.4115	0.0016
333.15	0.4005	1.4115	0.0016
303.15	0.4005	1.415	0.0017
343.15	0.4005	1.4095	0.0016
303.15	0.4999	1.417	0.0016
313.15	0.4999	1.4165	0.0016
293.15	0.4999	1.4195	0.0017
323.15	0.4999	1.415	0.0016
333.15	0.4999	1.415	0.0016
343.15	0.4999	1.4125	0.0017
303.15	0.6008	1.42	0.0016
323.15	0.6008	1.417	0.0016
293.15	0.6008	1.422	0.0016
313.15	0.6008	1.419	0.0016
333.15	0.6008	1.4155	0.0016
343.15	0.6008	1.414	0.0016
323.15	0.7004	1.419	0.0016
333.15	0.7004	1.417	0.0016
293.15	0.7004	1.4245	0.0016
313.15	0.7004	1.421	0.0016
303.15	0.7004	1.422	0.0016
343.15	0.7004	1.4145	0.0016
303.15	0.7996	1.4235	0.0016
313.15	0.7996	1.4215	0.0016
293.15	0.7996	1.425	0.0016
333.15	0.7996	1.418	0.0016
323.15	0.7996	1.42	0.0016
343.15	0.7996	1.416	0.0017
293.15	0.8997	1.427	0.0016
333.15	0.8997	1.419	0.0017
303.15	0.8997	1.425	0.0016
323.15	0.8997	1.421	0.0016
313.15	0.8997	1.423	0.0016
343.15	0.8997	1.4165	0.0017

System: 1-methyl-3-octylimidazolium tetrafluoroborate + water; phases: Liquid
Fixed: Pressure, kPa = 100
Property: Mass density, kg/m3 (Liquid); method: Vibrating tube method
Temperature, K	Mole fraction of 1-methyl-3-octylimidazolium tetrafluoroborate	Mass density, kg/m3	uncertainty
293.15	0	998.19	2
303.15	0	995.64	2
313.15	0	992.22	2
323.15	0	988.04	2
333.15	0	988.04	2
343.15	0	972.75	2
293.15	0.3005	1084.34	2
303.15	0.3005	1076.96	2
313.15	0.3005	1069.66	2
323.15	0.3005	1061.92	2
333.15	0.3005	1061.92	2
343.15	0.3005	1041.36	2.01
293.15	0.4006	1089.21	2
313.15	0.4006	1074.86	2
323.15	0.4006	1067.52	2
333.15	0.4006	1067.52	2
303.15	0.4006	1082.09	2
343.15	0.4006	1049.84	2.01
303.15	0.5002	1087.07	2
313.15	0.5002	1080	2
293.15	0.5002	1094.12	2
323.15	0.5002	1072.9	2
333.15	0.5002	1072.9	2
343.15	0.5002	1057.37	2.01
303.15	0.6001	1091.18	2.01
323.15	0.6001	1077.21	2.01
293.15	0.6001	1098.16	2.01
313.15	0.6001	1084.21	2.01
333.15	0.6001	1077.21	2.01
343.15	0.6001	1062.23	2.01
323.15	0.7006	1079.77	2.01
333.15	0.7006	1079.77	2.01
293.15	0.7006	1100.51	2.01
313.15	0.7006	1086.68	2.01
303.15	0.7006	1093.59	2.01
343.15	0.7006	1065.07	2.01
303.15	0.8004	1096.42	2.01
313.15	0.8004	1089.58	2.01
293.15	0.8004	1103.28	2.01
333.15	0.8004	1082.8	2.01
323.15	0.8004	1082.8	2.01
343.15	0.8004	1069.34	2.01
293.15	0.9015	1104.81	2.02
333.15	0.9015	1084.48	2.01
303.15	0.9015	1098.01	2.02
323.15	0.9015	1084.48	2.01
313.15	0.9015	1091.22	2.01
343.15	0.9015	1070.96	2.01

System: 1-methyl-3-octylimidazolium tetrafluoroborate + water; phases: Liquid
Fixed: Pressure, kPa = 100
Property: Refractive index (Na D-line) (Liquid); method: Standard Abbe refractometry
Temperature, K	Mole fraction of 1-methyl-3-octylimidazolium tetrafluoroborate	Refractive index (Na D-line)	uncertainty
293.15	0	1.3335	0.0016
303.15	0	1.3315	0.0016
313.15	0	1.3305	0.0016
323.15	0	1.329	0.0016
333.15	0	1.3275	0.0016
343.15	0	1.326	0.0016
293.15	0.3005	1.4165	0.0018
303.15	0.3005	1.414	0.0016
313.15	0.3005	1.413	0.0016
323.15	0.3005	1.4125	0.0016
333.15	0.3005	1.412	0.0016
343.15	0.3005	1.412	0.002
293.15	0.4006	1.4205	0.0016
313.15	0.4006	1.4165	0.0016
323.15	0.4006	1.416	0.0016
333.15	0.4006	1.415	0.0016
303.15	0.4006	1.419	0.0016
343.15	0.4006	1.414	0.0016
303.15	0.5002	1.422	0.0016
313.15	0.5002	1.4205	0.0016
293.15	0.5002	1.424	0.0016
323.15	0.5002	1.419	0.0016
333.15	0.5002	1.4185	0.0016
343.15	0.5002	1.417	0.0016
303.15	0.6001	1.425	0.0016
323.15	0.6001	1.422	0.0016
293.15	0.6001	1.4265	0.0016
313.15	0.6001	1.423	0.0016
333.15	0.6001	1.4195	0.0016
343.15	0.6001	1.419	0.0016
323.15	0.7006	1.423	0.0016
333.15	0.7006	1.421	0.0016
293.15	0.7006	1.4285	0.0016
313.15	0.7006	1.4245	0.0016
303.15	0.7006	1.4265	0.0016
343.15	0.7006	1.419	0.0016
303.15	0.8004	1.428	0.0016
313.15	0.8004	1.4265	0.0016
293.15	0.8004	1.4305	0.0016
333.15	0.8004	1.4225	0.0016
323.15	0.8004	1.424	0.0016
343.15	0.8004	1.4205	0.0016
293.15	0.9015	1.4315	0.0016
333.15	0.9015	1.4235	0.0016
303.15	0.9015	1.4295	0.0017
323.15	0.9015	1.4255	0.0016
313.15	0.9015	1.427	0.0016
343.15	0.9015	1.4215	0.0016

System: 1-ethyl-3-methylimidazolium trifluoromethanesulfonate + water; phases: Liquid
Fixed: Pressure, kPa = 100
Property: Mass density, kg/m3 (Liquid); method: Vibrating tube method
Temperature, K	Mole fraction of 1-ethyl-3-methylimidazolium trifluoromethanesulfonate	Mass density, kg/m3	uncertainty
293.15	0	998.19	2
303.15	0	995.64	2
313.15	0	992.22	2
323.15	0	988.04	2
333.15	0	981.56	2
343.15	0	972.75	2
293.15	0.1001	1209.27	2.09
303.15	0.1001	1201.8	2.08
313.15	0.1001	1193.23	2.08
323.15	0.1001	1184.96	2.07
333.15	0.1001	1175.32	2.07
343.15	0.1001	1162.52	2.09
303.15	0.2002	1272.85	2.02
293.15	0.2002	1281.52	2.02
313.15	0.2002	1263.86	2.02
323.15	0.2002	1254.13	2.02
333.15	0.2002	1243.01	2.02
343.15	0.2002	1232.07	2.02
303.15	0.3005	1307.15	2.01
313.15	0.3005	1298.67	2.01
293.15	0.3005	1315.51	2.01
323.15	0.3005	1289.63	2.01
333.15	0.3005	1279.6	2.01
343.15	0.3005	1269.41	2.01
313.15	0.4002	1319.89	2.01
303.15	0.4002	1328.01	2.01
323.15	0.4002	1311.02	2.01
293.15	0.4002	1336.6	2.01
333.15	0.4002	1301.89	2.01
343.15	0.4002	1292.35	2.01
323.15	0.5003	1326.85	2.02
313.15	0.5003	1335.41	2.02
303.15	0.5003	1343.96	2.02
333.15	0.5003	1318.27	2.02
293.15	0.5003	1352.45	2.02
343.15	0.5003	1309.53	2.02
323.15	0.5997	1338.82	2.02
313.15	0.5997	1347.44	2.02
333.15	0.5997	1329.91	2.02
293.15	0.5997	1364.43	2.02
303.15	0.5997	1356.16	2.02
343.15	0.5997	1321.23	2.02
293.15	0.6996	1372.69	2.03
303.15	0.6996	1364.59	2.03
333.15	0.6996	1338.78	2.03
323.15	0.6996	1347.42	2.03
313.15	0.6996	1355.79	2.03
343.15	0.6996	1330.17	2.03
313.15	0.8011	1362.45	2.04
333.15	0.8011	1345.55	2.03
293.15	0.8011	1379.1	2.04
303.15	0.8011	1370.87	2.04
323.15	0.8011	1353.98	2.04
343.15	0.8011	1336.93	2.03
293.15	0.8992	1384.17	2.05
313.15	0.8992	1367.34	2.05
303.15	0.8992	1375.74	2.05
323.15	0.8992	1359.01	2.05
333.15	0.8992	1350.72	2.05
343.15	0.8992	1342.48	2.04

System: 1-ethyl-3-methylimidazolium trifluoromethanesulfonate + water; phases: Liquid
Fixed: Pressure, kPa = 100
Property: Refractive index (Na D-line) (Liquid); method: Standard Abbe refractometry
Temperature, K	Mole fraction of 1-ethyl-3-methylimidazolium trifluoromethanesulfonate	Refractive index (Na D-line)	uncertainty
293.15	0	1.3335	0.0016
303.15	0	1.3315	0.0016
313.15	0	1.3305	0.0016
323.15	0	1.329	0.0016
333.15	0	1.3275	0.0016
343.15	0	1.326	0.0016
293.15	0.1001	1.3885	0.0019
303.15	0.1001	1.3865	0.0016
313.15	0.1001	1.386	0.0016
323.15	0.1001	1.3855	0.0016
333.15	0.1001	1.385	0.0016
343.15	0.1001	1.385	0.0022
303.15	0.2002	1.4055	0.0016
293.15	0.2002	1.406	0.0016
313.15	0.2002	1.403	0.0016
323.15	0.2002	1.4025	0.0016
333.15	0.2002	1.4005	0.0016
343.15	0.2002	1.3995	0.0016
303.15	0.3005	1.414	0.0016
313.15	0.3005	1.412	0.0016
293.15	0.3005	1.4155	0.0016
323.15	0.3005	1.411	0.0016
333.15	0.3005	1.4095	0.0016
343.15	0.3005	1.409	0.0016
313.15	0.4002	1.415	0.0016
303.15	0.4002	1.4175	0.0017
323.15	0.4002	1.414	0.0016
293.15	0.4002	1.421	0.0017
333.15	0.4002	1.413	0.0016
343.15	0.4002	1.413	0.0016
323.15	0.5003	1.42	0.0016
313.15	0.5003	1.421	0.0016
303.15	0.5003	1.423	0.0016
333.15	0.5003	1.418	0.0016
293.15	0.5003	1.425	0.0016
343.15	0.5003	1.417	0.0016
323.15	0.5997	1.422	0.0017
313.15	0.5997	1.4235	0.0016
333.15	0.5997	1.418	0.0016
293.15	0.5997	1.4275	0.0016
303.15	0.5997	1.4255	0.0016
343.15	0.5997	1.4175	0.0016
293.15	0.6996	1.43	0.0016
303.15	0.6996	1.4275	0.0016
333.15	0.6996	1.421	0.0016
323.15	0.6996	1.4235	0.0016
313.15	0.6996	1.4255	0.0016
343.15	0.6996	1.419	0.0016
313.15	0.8011	1.427	0.0016
333.15	0.8011	1.423	0.0016
293.15	0.8011	1.4315	0.0016
303.15	0.8011	1.4295	0.0016
323.15	0.8011	1.4255	0.0016
343.15	0.8011	1.421	0.0017
293.15	0.8992	1.4325	0.0017
313.15	0.8992	1.4285	0.0016
303.15	0.8992	1.43	0.0016
323.15	0.8992	1.426	0.0017
333.15	0.8992	1.4237	0.0017
343.15	0.8992	1.4215	0.0017

System: 1-butyl-3-methylimidazolium trifluoromethanesulfonate + water; phases: Liquid
Fixed: Pressure, kPa = 100
Property: Mass density, kg/m3 (Liquid); method: Vibrating tube method
Temperature, K	Mole fraction of 1-butyl-3-methylimidazolium trifluoromethanesulfonate	Mass density, kg/m3	uncertainty
293.15	0	998.19	2
303.15	0	995.64	2
313.15	0	992.22	2
323.15	0	988.04	2
333.15	0	981.56	2
343.15	0	972.75	2
293.15	0.1001	1176.55	2.06
303.15	0.1001	1169.14	2.05
313.15	0.1001	1161.07	2.05
323.15	0.1001	1153.14	2.05
333.15	0.1001	1143.31	2.05
343.15	0.1001	1133.11	2.06
303.15	0.2003	1219.44	2.01
293.15	0.2003	1227.39	2.01
313.15	0.2003	1210.91	2.01
323.15	0.2003	1201.99	2.01
333.15	0.2003	1193.54	2.01
343.15	0.2003	1184.05	2.01
303.15	0.3007	1243.64	2.01
313.15	0.3007	1235.41	2.01
293.15	0.3007	1251.78	2.01
323.15	0.3007	1226.91	2.01
333.15	0.3007	1218.41	2.01
343.15	0.3007	1209.18	2.01
313.15	0.4003	1250.38	2.01
303.15	0.4003	1258.57	2.01
323.15	0.4003	1241.75	2.01
293.15	0.4003	1266.32	2.01
333.15	0.4003	1233.39	2.01
343.15	0.4003	1224.41	2.01
323.15	0.5001	1251.81	2.01
313.15	0.5001	1259.88	2.01
303.15	0.5001	1267.92	2.01
333.15	0.5001	1243.49	2.01
293.15	0.5001	1275.87	2.01
343.15	0.5001	1234.79	2.01
323.15	0.5998	1258.46	2.01
313.15	0.5998	1266.41	2.02
333.15	0.5998	1250.25	2.01
293.15	0.5998	1282.43	2.02
303.15	0.5998	1274.38	2.02
343.15	0.5998	1241.97	2.01
293.15	0.6995	1287.53	2.02
303.15	0.6995	1279.4	2.02
333.15	0.6995	1255.51	2.02
323.15	0.6995	1263.41	2.02
313.15	0.6995	1271.39	2.02
343.15	0.6995	1247.23	2.02
313.15	0.8017	1275.29	2.03
333.15	0.8017	1259.46	2.03
293.15	0.8017	1291.5	2.03
303.15	0.8017	1283.28	2.03
323.15	0.8017	1267.34	2.03
343.15	0.8017	1251.33	2.02
293.15	0.8993	1294.38	2.04
313.15	0.8993	1278.29	2.03
303.15	0.8993	1286.22	2.04
323.15	0.8993	1270.34	2.03
333.15	0.8993	1262.47	2.03
343.15	0.8993	1254.45	2.03

System: 1-butyl-3-methylimidazolium trifluoromethanesulfonate + water; phases: Liquid
Fixed: Pressure, kPa = 100
Property: Refractive index (Na D-line) (Liquid); method: Standard Abbe refractometry
Temperature, K	Mole fraction of 1-butyl-3-methylimidazolium trifluoromethanesulfonate	Refractive index (Na D-line)	uncertainty
293.15	0	1.3335	0.0016
303.15	0	1.3315	0.0016
313.15	0	1.3305	0.0016
323.15	0	1.329	0.0016
333.15	0	1.3275	0.0016
343.15	0	1.326	0.0016
293.15	0.1001	1.396	0.0021
303.15	0.1001	1.3945	0.0016
313.15	0.1001	1.3925	0.0016
323.15	0.1001	1.3915	0.0016
333.15	0.1001	1.3905	0.0016
343.15	0.1001	1.389	0.0024
303.15	0.2003	1.411	0.0016
293.15	0.2003	1.4145	0.0016
313.15	0.2003	1.4095	0.0016
323.15	0.2003	1.409	0.0016
333.15	0.2003	1.408	0.0016
343.15	0.2003	1.405	0.0017
303.15	0.3007	1.4195	0.0016
313.15	0.3007	1.418	0.0016
293.15	0.3007	1.421	0.0016
323.15	0.3007	1.4175	0.0016
333.15	0.3007	1.4155	0.0016
343.15	0.3007	1.415	0.0016
313.15	0.4003	1.423	0.0016
303.15	0.4003	1.4245	0.0016
323.15	0.4003	1.421	0.0016
293.15	0.4003	1.4265	0.0016
333.15	0.4003	1.42	0.0016
343.15	0.4003	1.4185	0.0016
323.15	0.5001	1.4245	0.0016
313.15	0.5001	1.426	0.0016
303.15	0.5001	1.428	0.0016
333.15	0.5001	1.422	0.0016
293.15	0.5001	1.4301	0.0016
343.15	0.5001	1.4215	0.0016
323.15	0.5998	1.4255	0.0016
313.15	0.5998	1.4285	0.0016
333.15	0.5998	1.424	0.0016
293.15	0.5998	1.432	0.0016
303.15	0.5998	1.4305	0.0016
343.15	0.5998	1.423	0.0016
293.15	0.6995	1.434	0.0016
303.15	0.6995	1.4315	0.0016
333.15	0.6995	1.4255	0.0016
323.15	0.6995	1.4275	0.0016
313.15	0.6995	1.43	0.0016
343.15	0.6995	1.4235	0.0016
313.15	0.8017	1.431	0.0016
333.15	0.8017	1.427	0.0016
293.15	0.8017	1.4355	0.0016
303.15	0.8017	1.4335	0.0016
323.15	0.8017	1.429	0.0016
343.15	0.8017	1.4255	0.0016
293.15	0.8993	1.4365	0.0016
313.15	0.8993	1.4325	0.0016
303.15	0.8993	1.4345	0.0016
323.15	0.8993	1.4305	0.0017
333.15	0.8993	1.428	0.0016
343.15	0.8993	1.4265	0.0016

System: 1-butyl-3-methylimidazolium octyl sulfate + water; phases: Liquid
Fixed: Pressure, kPa = 100
Property: Mass density, kg/m3 (Liquid); method: Vibrating tube method
Temperature, K	Mole fraction of 1-butyl-3-methylimidazolium octyl sulfate	Mass density, kg/m3	uncertainty
293.15	0	998.19	2
303.15	0	995.64	2
313.15	0	992.22	2
323.15	0	988.04	2
333.15	0	981.56	2
343.15	0	972.75	2
293.15	0.1002	1048.11	2
303.15	0.1002	1041.72	2
313.15	0.1002	1035.13	2
323.15	0.1002	1028.37	2
333.15	0.1002	1021.44	2
343.15	0.1002	1014.33	2.01
303.15	0.2002	1052.71	2
293.15	0.2002	1060.01	2
313.15	0.2002	1046.53	2
323.15	0.2002	1039.57	2
333.15	0.2002	1032.54	2
343.15	0.2002	1025.58	2
303.15	0.3004	1057.16	2
313.15	0.3004	1050.37	2
293.15	0.3004	1063.92	2
323.15	0.3004	1043.56	2
333.15	0.3004	1036.7	2
343.15	0.3004	1029.67	2
313.15	0.4004	1052.42	2
303.15	0.4004	1059.15	2
323.15	0.4004	1045.67	2
293.15	0.4004	1065.86	2
333.15	0.4004	1038.91	2
343.15	0.4004	1032.07	2
323.15	0.501	1046.92	2
313.15	0.501	1053.61	2
303.15	0.501	1060.3	2
333.15	0.501	1040.19	2
293.15	0.501	1066.97	2
343.15	0.501	1033.23	2
323.15	0.5998	1048.14	2
313.15	0.5998	1054.71	2
333.15	0.5998	1041.4	2
293.15	0.5998	1067.84	2.01
303.15	0.5998	1061.29	2
343.15	0.5998	1034.54	2
293.15	0.6988	1068.5	2.01
303.15	0.6988	1061.97	2.01
333.15	0.6988	1042.35	2.01
323.15	0.6988	1048.87	2.01
313.15	0.6988	1055.42	2.01
343.15	0.6988	1035.66	2.01
313.15	0.8	1056.28	2.01
333.15	0.8	1043.27	2.01
293.15	0.8	1069.33	2.01
303.15	0.8	1062.8	2.01
323.15	0.8	1049.77	2.01
343.15	0.8	1036.82	2.01
293.15	0.9018	1070.47	2.01
313.15	0.9018	1057.53	2.01
303.15	0.9018	1063.98	2.01
323.15	0.9018	1051.07	2.01
333.15	0.9018	1044.63	2.01
343.15	0.9018	1038.23	2.01

System: 1-butyl-3-methylimidazolium octyl sulfate + water; phases: Liquid
Fixed: Pressure, kPa = 100
Property: Refractive index (Na D-line) (Liquid); method: Standard Abbe refractometry
Temperature, K	Mole fraction of 1-butyl-3-methylimidazolium octyl sulfate	Refractive index (Na D-line)	uncertainty
293.15	0	1.3335	0.0016
303.15	0	1.3315	0.0016
313.15	0	1.3305	0.0016
323.15	0	1.329	0.0016
333.15	0	1.3275	0.0016
343.15	0	1.326	0.0016
293.15	0.1002	1.4235	0.0027
303.15	0.1002	1.422	0.002
313.15	0.1002	1.4215	0.0016
323.15	0.1002	1.421	0.0016
333.15	0.1002	1.419	0.0016
343.15	0.1002	1.419	0.0029
303.15	0.2002	1.4435	0.0016
293.15	0.2002	1.4455	0.0016
313.15	0.2002	1.4415	0.0016
323.15	0.2002	1.4405	0.0016
333.15	0.2002	1.44	0.0016
343.15	0.2002	1.4395	0.0017
303.15	0.3004	1.453	0.002
313.15	0.3004	1.4525	0.0016
293.15	0.3004	1.4555	0.0016
323.15	0.3004	1.45	0.0016
333.15	0.3004	1.4495	0.0016
343.15	0.3004	1.4465	0.0017
313.15	0.4004	1.457	0.0016
303.15	0.4004	1.4585	0.0016
323.15	0.4004	1.4555	0.0016
293.15	0.4004	1.461	0.0016
333.15	0.4004	1.4535	0.0016
343.15	0.4004	1.452	0.0017
323.15	0.501	1.457	0.0016
313.15	0.501	1.4595	0.0016
303.15	0.501	1.462	0.002
333.15	0.501	1.4545	0.0016
293.15	0.501	1.464	0.0016
343.15	0.501	1.453	0.0016
323.15	0.5998	1.46	0.0016
313.15	0.5998	1.462	0.0016
333.15	0.5998	1.4575	0.0016
293.15	0.5998	1.467	0.0016
303.15	0.5998	1.4645	0.0016
343.15	0.5998	1.4565	0.0016
293.15	0.6988	1.4685	0.0017
303.15	0.6988	1.466	0.002
333.15	0.6988	1.4585	0.0016
323.15	0.6988	1.461	0.0017
313.15	0.6988	1.4635	0.0017
343.15	0.6988	1.457	0.0016
313.15	0.8	1.465	0.0017
333.15	0.8	1.46	0.0016
293.15	0.8	1.47	0.0016
303.15	0.8	1.4675	0.0017
323.15	0.8	1.462	0.0017
343.15	0.8	1.458	0.0016
293.15	0.9018	1.4705	0.0016
313.15	0.9018	1.466	0.0017
303.15	0.9018	1.4685	0.0017
323.15	0.9018	1.4635	0.0017
333.15	0.9018	1.461	0.0017
343.15	0.9018	1.459	0.0016
