Measured thermophysical data. Isobaric Vapor-Liquid Equilibrium Measurements for Separation of Azeotrope (Methanol + Methyl Acetate)
Source: J. Chem. Eng. Data, 2019, 10.1021/acs.jced.8b00807
Compound 1: methyl ethanoate, C3H6O2, InChI=1S/C3H6O2/c1-3(4)5-2/h1-2H3, purity 99%
Compound 2: 2-methylpropyl ethanoate, C6H12O2, InChI=1S/C6H12O2/c1-5(2)4-8-6(3)7/h5H,4H2,1-3H3, purity 99%
Compound 3: 3-methylbutyl ethanoate, C7H14O2, InChI=1S/C7H14O2/c1-6(2)4-5-9-7(3)8/h6H,4-5H2,1-3H3, purity 99%
Compound 4: 1,4-dimethylbenzene, C8H10, InChI=1S/C8H10/c1-7-3-5-8(2)6-4-7/h3-6H,1-2H3, purity 99%

System: methyl ethanoate; phases: Liquid, Gas
Property: Boiling temperature at pressure P, K (Liquid); method: Ebulliometric method (Recirculating still)
Pressure, kPa	Boiling temperature at pressure P, K	uncertainty
101.3	330.2	0.2

System: 2-methylpropyl ethanoate; phases: Liquid, Gas
Property: Boiling temperature at pressure P, K (Liquid); method: Ebulliometric method (Recirculating still)
Pressure, kPa	Boiling temperature at pressure P, K	uncertainty
101.3	389.55	0.2

System: 3-methylbutyl ethanoate; phases: Liquid, Gas
Property: Boiling temperature at pressure P, K (Liquid); method: Ebulliometric method (Recirculating still)
Pressure, kPa	Boiling temperature at pressure P, K	uncertainty
101.3	415.15	0.2

System: 1,4-dimethylbenzene; phases: Liquid, Gas
Property: Boiling temperature at pressure P, K (Liquid); method: Ebulliometric method (Recirculating still)
Pressure, kPa	Boiling temperature at pressure P, K	uncertainty
101.3	411.49	0.2

System: methyl ethanoate + 2-methylpropyl ethanoate; phases: Liquid, Gas
Fixed: Pressure, kPa = 101.3
Property: Boiling temperature at pressure P, K (Liquid); method: Ebulliometric method (Recirculating still)
Mole fraction of methyl ethanoate	Boiling temperature at pressure P, K	uncertainty
0.8332	332.18	0.25
0.7499	334.12	0.25
0.6751	336.07	0.26
0.5771	339.09	0.28
0.442	344.29	0.29
0.3608	348.18	0.32
0.3344	349.62	0.37
0.2316	356.3	0.39
0.1817	360.4	0.48
0.1283	365.81	0.56
0.0905	370.62	0.69
0.0571	375.93	0.81
0.0393	379.38	0.97
0.0159	384.36	1

System: methyl ethanoate + 2-methylpropyl ethanoate; phases: Gas, Liquid
Fixed: Pressure, kPa = 101.3
Property: Mole fraction of methyl ethanoate (Gas); method: Chromatography
Mole fraction of methyl ethanoate	Mole fraction of methyl ethanoate	uncertainty
0.8332	0.9738	0.0049
0.7499	0.9577	0.0049
0.6751	0.942	0.005
0.5771	0.9188	0.0051
0.442	0.8741	0.0054
0.3608	0.8358	0.0058
0.3344	0.8202	0.0065
0.2316	0.7368	0.0073
0.1817	0.6761	0.0093
0.1283	0.5857	0.0113
0.0905	0.4963	0.0151
0.0571	0.3808	0.0186
0.0393	0.2977	0.0255
0.0159	0.1591	0.0277

System: methyl ethanoate + 3-methylbutyl ethanoate; phases: Liquid, Gas
Fixed: Pressure, kPa = 101.3
Property: Boiling temperature at pressure P, K (Liquid); method: Ebulliometric method (Recirculating still)
Mole fraction of methyl ethanoate	Boiling temperature at pressure P, K	uncertainty
0.0063	410.24	2.87
0.0158	404.34	2.54
0.0351	394.25	2.07
0.0605	384.24	1.78
0.0679	381.76	1.49
0.0812	377.59	1.28
0.1035	371.89	1.16
0.1137	369.62	1.04
0.1231	367.55	1.04
0.1973	356.56	0.65
0.2525	350.6	0.48
0.3059	346.45	0.33
0.4538	339.47	0.28
0.5827	336.16	0.24
0.7439	333.76	0.23
0.8579	332.4	0.23

System: methyl ethanoate + 3-methylbutyl ethanoate; phases: Gas, Liquid
Fixed: Pressure, kPa = 101.3
Property: Mole fraction of methyl ethanoate (Gas); method: Chromatography
Mole fraction of methyl ethanoate	Mole fraction of methyl ethanoate	uncertainty
0.0063	0.1201	0.0678
0.0158	0.2597	0.0536
0.0351	0.4598	0.0369
0.0605	0.6161	0.0277
0.0679	0.6482	0.0192
0.0812	0.6979	0.0153
0.1035	0.7582	0.013
0.1137	0.7793	0.0108
0.1231	0.7972	0.0104
0.1973	0.8778	0.0066
0.2525	0.9105	0.0055
0.3059	0.9299	0.005
0.4538	0.9589	0.0049
0.5827	0.9721	0.0048
0.7439	0.9821	0.0048
0.8579	0.9891	0.0048

System: methyl ethanoate + 1,4-dimethylbenzene; phases: Liquid, Gas
Fixed: Pressure, kPa = 101.3
Property: Boiling temperature at pressure P, K (Liquid); method: Ebulliometric method (Recirculating still)
Mole fraction of methyl ethanoate	Boiling temperature at pressure P, K	uncertainty
0.8893	331.64	0.24
0.7114	334.66	0.24
0.5946	337.69	0.26
0.4881	340.85	0.28
0.3874	345.22	0.31
0.3063	349.55	0.35
0.2657	352.35	0.44
0.1844	359.61	0.58
0.1098	370.63	0.77
0.084	376.11	1.14
0.0584	383.13	1.37
0.0441	387.99	1.75
0.0251	395.62	2.03
0.0149	400.97	2.78
0.0046	407.97	3.13

System: methyl ethanoate + 1,4-dimethylbenzene; phases: Gas, Liquid
Fixed: Pressure, kPa = 101.3
Property: Mole fraction of methyl ethanoate (Gas); method: Chromatography
Mole fraction of methyl ethanoate	Mole fraction of methyl ethanoate	uncertainty
0.8893	0.9874	0.0048
0.7114	0.9731	0.0048
0.5946	0.9617	0.0049
0.4881	0.9479	0.0049
0.3874	0.9275	0.0051
0.3063	0.9023	0.0053
0.2657	0.8869	0.0057
0.1844	0.8366	0.0069
0.1098	0.7371	0.0093
0.084	0.6758	0.015
0.0584	0.5852	0.0199
0.0441	0.5109	0.0302
0.0251	0.3748	0.0387
0.0149	0.2634	0.0629
0.0046	0.0956	0.0751
