Measured thermophysical data. Determination and Correlation of the Solubility of Musk Ketone in Pure and Binary Solvents at 273.15-313.15 K
Source: J. Chem. Eng. Data, 2019, 10.1021/acs.jced.9b00310
Compound 1: 3',5'-dinitro-2',6'-dimethyl-4'-tert-butylacetophenone, C14H18N2O5, InChI=1S/C14H18N2O5/c1-7-10(9(3)17)8(2)13(16(20)21)11(14(4,5)6)12(7)15(18)19/h1-6H3, purity 99.5%
Compound 2: methanol, CH4O, InChI=1S/CH4O/c1-2/h2H,1H3, purity 99.5%
Compound 3: ethanol, C2H6O, InChI=1S/C2H6O/c1-2-3/h3H,2H2,1H3, purity 99.5%
Compound 4: butan-1-ol, C4H10O, InChI=1S/C4H10O/c1-2-3-4-5/h5H,2-4H2,1H3, purity 99.5%
Compound 5: ethyl acetate, C4H8O2, InChI=1S/C4H8O2/c1-3-6-4(2)5/h3H2,1-2H3, purity 99.5%

System: 3',5'-dinitro-2',6'-dimethyl-4'-tert-butylacetophenone; phases: Crystal, Liquid, Air at 1 atmosphere
Property: Triple point temperature, K (Crystal); method: DSC
Triple point temperature, K	uncertainty
409.5	1

System: 3',5'-dinitro-2',6'-dimethyl-4'-tert-butylacetophenone; phases: Crystal, Liquid, Air at 1 atmosphere
Property: Molar enthalpy of transition or fusion, kJ/mol (Crystal); method: DSC
Molar enthalpy of transition or fusion, kJ/mol	uncertainty
23.814	0.696

System: 3',5'-dinitro-2',6'-dimethyl-4'-tert-butylacetophenone + methanol; phases: Liquid, Crystal
Fixed: Pressure, kPa = 100
Property: Mole fraction of 3',5'-dinitro-2',6'-dimethyl-4'-tert-butylacetophenone (Liquid); method: Chromatography
Temperature, K	Mole fraction of 3',5'-dinitro-2',6'-dimethyl-4'-tert-butylacetophenone	uncertainty
273.15	0.001081	0.000108
278.15	0.001275	0.000128
283.15	0.001568	0.000157
288.15	0.001872	0.000188
293.15	0.002249	0.000226
298.15	0.002719	0.000273
303.15	0.003257	0.000327
308.15	0.003869	0.000388
313.15	0.004576	0.000459

System: 3',5'-dinitro-2',6'-dimethyl-4'-tert-butylacetophenone + ethanol; phases: Liquid, Crystal
Fixed: Pressure, kPa = 100
Property: Mole fraction of 3',5'-dinitro-2',6'-dimethyl-4'-tert-butylacetophenone (Liquid); method: Chromatography
Temperature, K	Mole fraction of 3',5'-dinitro-2',6'-dimethyl-4'-tert-butylacetophenone	uncertainty
273.15	0.001598	0.000161
278.15	0.001985	0.000199
283.15	0.002409	0.000242
288.15	0.00295	0.000296
293.15	0.003545	0.000356
298.15	0.004259	0.000427
303.15	0.005118	0.000513
308.15	0.00619	0.000621
313.15	0.0074	0.000742

System: 3',5'-dinitro-2',6'-dimethyl-4'-tert-butylacetophenone + butan-1-ol; phases: Liquid, Crystal
Fixed: Pressure, kPa = 100
Property: Mole fraction of 3',5'-dinitro-2',6'-dimethyl-4'-tert-butylacetophenone (Liquid); method: Chromatography
Temperature, K	Mole fraction of 3',5'-dinitro-2',6'-dimethyl-4'-tert-butylacetophenone	uncertainty
273.15	0.002197	0.000221
278.15	0.002856	0.000287
283.15	0.00368	0.00037
288.15	0.004491	0.00045
293.15	0.00533	0.000535
298.15	0.006663	0.000669
303.15	0.008115	0.000814
308.15	0.009717	0.000975
313.15	0.01199	0.001203

System: 3',5'-dinitro-2',6'-dimethyl-4'-tert-butylacetophenone + ethyl acetate; phases: Liquid, Crystal
Fixed: Pressure, kPa = 100
Property: Mole fraction of 3',5'-dinitro-2',6'-dimethyl-4'-tert-butylacetophenone (Liquid); method: Chromatography
Temperature, K	Mole fraction of 3',5'-dinitro-2',6'-dimethyl-4'-tert-butylacetophenone	uncertainty
273.15	0.05504	0.00552
278.15	0.06409	0.00642
283.15	0.07425	0.00744
288.15	0.08522	0.00853
293.15	0.09543	0.00956
298.15	0.1105	0.0111
303.15	0.1218	0.0122
308.15	0.1393	0.014
313.15	0.156	0.0156

System: 3',5'-dinitro-2',6'-dimethyl-4'-tert-butylacetophenone + ethanol + methanol; phases: Liquid, Crystal
Fixed: Pressure, kPa = 100
Property: Mole fraction of 3',5'-dinitro-2',6'-dimethyl-4'-tert-butylacetophenone (Liquid); method: Chromatography
Temperature, K	Solvent: Mass fraction of ethanol	Mole fraction of 3',5'-dinitro-2',6'-dimethyl-4'-tert-butylacetophenone	uncertainty
273.15	0.0997	0.001145	0.000115
278.15	0.0997	0.001354	0.000136
283.15	0.0997	0.001649	0.000165
288.15	0.0997	0.001997	0.0002
293.15	0.0997	0.002385	0.000239
298.15	0.0997	0.002894	0.00029
303.15	0.0997	0.003416	0.000343
308.15	0.0997	0.004105	0.000412
313.15	0.0997	0.004855	0.000487
273.15	0.2999	0.001256	0.000126
278.15	0.2999	0.001511	0.000152
283.15	0.2999	0.00184	0.000185
288.15	0.2999	0.002217	0.000222
293.15	0.2999	0.00263	0.000264
298.15	0.2999	0.003205	0.000321
303.15	0.2999	0.003781	0.000379
308.15	0.2999	0.004571	0.000458
313.15	0.2999	0.005475	0.000549
273.15	0.5039	0.001349	0.000136
278.15	0.5039	0.001676	0.000168
283.15	0.5039	0.002	0.000201
288.15	0.5039	0.00244	0.000245
293.15	0.5039	0.002906	0.000291
298.15	0.5039	0.00346	0.000347
303.15	0.5039	0.004152	0.000416
308.15	0.5039	0.004995	0.000501
313.15	0.5039	0.006056	0.000607
273.15	0.6998	0.001443	0.000145
278.15	0.6998	0.001802	0.000181
283.15	0.6998	0.002163	0.000217
288.15	0.6998	0.002609	0.000262
293.15	0.6998	0.003158	0.000317
298.15	0.6998	0.003785	0.00038
303.15	0.6998	0.004551	0.000456
308.15	0.6998	0.005496	0.000551
313.15	0.6998	0.006607	0.000662
273.15	0.8995	0.001545	0.000155
278.15	0.8995	0.001929	0.000194
283.15	0.8995	0.002319	0.000233
288.15	0.8995	0.002829	0.000284
293.15	0.8995	0.003441	0.000345
298.15	0.8995	0.004055	0.000407
303.15	0.8995	0.0049	0.000492
308.15	0.8995	0.005953	0.000597
313.15	0.8995	0.007152	0.000717
273.15	0	0.001081	0.000108
278.15	0	0.001275	0.000128
283.15	0	0.001568	0.000157
288.15	0	0.001872	0.000188
293.15	0	0.002249	0.000226
298.15	0	0.002719	0.000273
303.15	0	0.003257	0.000327
308.15	0	0.003869	0.000388
313.15	0	0.004576	0.000459
273.15	1	0.001598	0.000161
278.15	1	0.001985	0.000199
283.15	1	0.002409	0.000242
288.15	1	0.00295	0.000296
293.15	1	0.003545	0.000356
298.15	1	0.004259	0.000427
303.15	1	0.005118	0.000513
308.15	1	0.00619	0.000621
313.15	1	0.0074	0.000742

System: 3',5'-dinitro-2',6'-dimethyl-4'-tert-butylacetophenone + ethyl acetate + ethanol; phases: Liquid, Crystal
Fixed: Pressure, kPa = 100
Property: Mole fraction of 3',5'-dinitro-2',6'-dimethyl-4'-tert-butylacetophenone (Liquid); method: Chromatography
Temperature, K	Solvent: Mass fraction of ethyl acetate	Mole fraction of 3',5'-dinitro-2',6'-dimethyl-4'-tert-butylacetophenone	uncertainty
273.15	0.0952	0.002423	0.000242
278.15	0.0952	0.002981	0.000299
283.15	0.0952	0.003615	0.000363
288.15	0.0952	0.004289	0.00043
293.15	0.0952	0.005139	0.000515
298.15	0.0952	0.006232	0.000625
303.15	0.0952	0.007367	0.000739
308.15	0.0952	0.008877	0.00089
313.15	0.0952	0.01054	0.00106
273.15	0.2948	0.006053	0.000606
278.15	0.2948	0.007431	0.000745
283.15	0.2948	0.008483	0.000851
288.15	0.2948	0.01048	0.00105
293.15	0.2948	0.01221	0.00122
298.15	0.2948	0.01463	0.00147
303.15	0.2948	0.01751	0.00175
308.15	0.2948	0.02015	0.00202
313.15	0.2948	0.02444	0.00246
273.15	0.4942	0.01305	0.00131
278.15	0.4942	0.01623	0.00163
283.15	0.4942	0.01889	0.00189
288.15	0.4942	0.02242	0.00225
293.15	0.4942	0.02584	0.00259
298.15	0.4942	0.03033	0.00304
303.15	0.4942	0.03667	0.00368
308.15	0.4942	0.04222	0.00423
313.15	0.4942	0.04834	0.00486
273.15	0.6965	0.02563	0.00257
278.15	0.6965	0.03061	0.00307
283.15	0.6965	0.03557	0.00356
288.15	0.6965	0.04129	0.00414
293.15	0.6965	0.04736	0.00475
298.15	0.6965	0.05585	0.0056
303.15	0.6965	0.06468	0.00648
308.15	0.6965	0.07572	0.00759
313.15	0.6965	0.08759	0.00878
273.15	0.9	0.04237	0.00424
278.15	0.9	0.04935	0.00494
283.15	0.9	0.05693	0.00571
288.15	0.9	0.06769	0.00678
293.15	0.9	0.07844	0.00786
298.15	0.9	0.09049	0.00906
303.15	0.9	0.1033	0.0103
308.15	0.9	0.1159	0.0116
313.15	0.9	0.1301	0.013
273.15	0	0.001598	0.000161
278.15	0	0.001985	0.000199
283.15	0	0.002409	0.000242
288.15	0	0.00295	0.000296
293.15	0	0.003545	0.000356
298.15	0	0.004259	0.000427
303.15	0	0.005118	0.000513
308.15	0	0.00619	0.000621
313.15	0	0.0074	0.000742
273.15	1	0.05504	0.00552
278.15	1	0.06409	0.00642
283.15	1	0.07425	0.00744
288.15	1	0.08522	0.00853
293.15	1	0.09543	0.00956
298.15	1	0.1105	0.0111
303.15	1	0.1218	0.0122
308.15	1	0.1393	0.014
313.15	1	0.156	0.0156

System: 3',5'-dinitro-2',6'-dimethyl-4'-tert-butylacetophenone + ethyl acetate + butan-1-ol; phases: Liquid, Crystal
Fixed: Pressure, kPa = 100
Property: Mole fraction of 3',5'-dinitro-2',6'-dimethyl-4'-tert-butylacetophenone (Liquid); method: Chromatography
Temperature, K	Solvent: Mass fraction of ethyl acetate	Mole fraction of 3',5'-dinitro-2',6'-dimethyl-4'-tert-butylacetophenone	uncertainty
273.15	0.0932	0.004292	0.00043
278.15	0.0932	0.005303	0.000532
283.15	0.0932	0.006621	0.000664
288.15	0.0932	0.007738	0.000776
293.15	0.0932	0.009458	0.000949
298.15	0.0932	0.01123	0.00113
303.15	0.0932	0.01376	0.00138
308.15	0.0932	0.01705	0.00171
313.15	0.0932	0.01988	0.002
273.15	0.2933	0.01106	0.00111
278.15	0.2933	0.01274	0.00128
283.15	0.2933	0.01607	0.00161
288.15	0.2933	0.01889	0.00189
293.15	0.2933	0.02266	0.00227
298.15	0.2933	0.02665	0.00267
303.15	0.2933	0.03238	0.00325
308.15	0.2933	0.03903	0.00391
313.15	0.2933	0.04446	0.00446
273.15	0.4967	0.02169	0.00217
278.15	0.4967	0.025	0.00251
283.15	0.4967	0.03118	0.00313
288.15	0.4967	0.03553	0.00356
293.15	0.4967	0.04416	0.00443
298.15	0.4967	0.0496	0.00497
303.15	0.4967	0.05671	0.00569
308.15	0.4967	0.07061	0.00708
313.15	0.4967	0.07788	0.0078
273.15	0.6965	0.03505	0.00351
278.15	0.6965	0.04087	0.0041
283.15	0.6965	0.0492	0.00493
288.15	0.6965	0.05707	0.00572
293.15	0.6965	0.06702	0.00671
298.15	0.6965	0.07647	0.00766
303.15	0.6965	0.08814	0.00883
308.15	0.6965	0.105	0.0105
313.15	0.6965	0.1169	0.0117
273.15	0.8907	0.05098	0.00511
278.15	0.8907	0.05708	0.00572
283.15	0.8907	0.06985	0.007
288.15	0.8907	0.08032	0.00805
293.15	0.8907	0.09122	0.00914
298.15	0.8907	0.1053	0.0105
303.15	0.8907	0.1207	0.0121
308.15	0.8907	0.1356	0.0136
313.15	0.8907	0.1503	0.015
273.15	0	0.002197	0.000221
278.15	0	0.002856	0.000287
283.15	0	0.00368	0.00037
288.15	0	0.004491	0.00045
293.15	0	0.00533	0.000535
298.15	0	0.006663	0.000669
303.15	0	0.008115	0.000814
308.15	0	0.009717	0.000975
313.15	0	0.01199	0.001203
273.15	1	0.05504	0.00552
278.15	1	0.06409	0.00642
283.15	1	0.07425	0.00744
288.15	1	0.08522	0.00853
293.15	1	0.09543	0.00956
298.15	1	0.1105	0.0111
303.15	1	0.1218	0.0122
308.15	1	0.1393	0.014
313.15	1	0.156	0.0156
