Measured thermophysical data. A Study on Alkane + Ester + Ester Systems. Physicochemical Behavior of Binaries and Ternaries of Octane or Iso-octane with Methyl Esters (Ethanoate, Butanoate, Pentanoate)
Source: J. Chem. Eng. Data, 2016, 10.1021/acs.jced.5b00813
Compound 1: methyl ethanoate, C3H6O2, InChI=1S/C3H6O2/c1-3(4)5-2/h1-2H3, purity 99.3%
Compound 2: methyl butanoate, C5H10O2, InChI=1S/C5H10O2/c1-3-4-5(6)7-2/h3-4H2,1-2H3, purity 99.6%
Compound 3: methyl pentanoate, C6H12O2, InChI=1S/C6H12O2/c1-3-4-5-6(7)8-2/h3-5H2,1-2H3, purity 99.6%
Compound 4: octane, C8H18, InChI=1S/C8H18/c1-3-5-7-8-6-4-2/h3-8H2,1-2H3, purity 98.9%
Compound 5: 2,2,4-trimethylpentane, C8H18, InChI=1S/C8H18/c1-7(2)6-8(3,4)5/h7H,6H2,1-5H3, purity 99.7%

System: methyl ethanoate; phases: Liquid
Property: Refractive index (Na D-line) (Liquid); method: Standard Abbe refractometry
Temperature, K	Pressure, kPa	Refractive index (Na D-line)	uncertainty
298.15	101.325	1.3588	0.0005

System: methyl ethanoate; phases: Liquid
Property: Mass density, kg/m3 (Liquid); method: Vibrating tube method
Temperature, K	Pressure, kPa	Mass density, kg/m3	uncertainty
298.15	100	927.16	1.01

System: methyl butanoate; phases: Liquid
Property: Refractive index (Na D-line) (Liquid); method: Standard Abbe refractometry
Temperature, K	Pressure, kPa	Refractive index (Na D-line)	uncertainty
298.15	101.325	1.3845	0.0005

System: methyl butanoate; phases: Liquid
Property: Mass density, kg/m3 (Liquid); method: Vibrating tube method
Temperature, K	Pressure, kPa	Mass density, kg/m3	uncertainty
298.15	100	892.34	1

System: methyl pentanoate; phases: Liquid
Property: Refractive index (Na D-line) (Liquid); method: Standard Abbe refractometry
Temperature, K	Pressure, kPa	Refractive index (Na D-line)	uncertainty
298.15	101.325	1.3968	0.0005

System: methyl pentanoate; phases: Liquid
Property: Mass density, kg/m3 (Liquid); method: Vibrating tube method
Temperature, K	Pressure, kPa	Mass density, kg/m3	uncertainty
298.15	100	884.84	1

System: octane; phases: Liquid
Property: Refractive index (Na D-line) (Liquid); method: Standard Abbe refractometry
Temperature, K	Pressure, kPa	Refractive index (Na D-line)	uncertainty
298.15	101.325	1.3952	0.0005

System: octane; phases: Liquid
Property: Mass density, kg/m3 (Liquid); method: Vibrating tube method
Temperature, K	Pressure, kPa	Mass density, kg/m3	uncertainty
298.15	100	698.58	1.03

System: 2,2,4-trimethylpentane; phases: Liquid
Property: Refractive index (Na D-line) (Liquid); method: Standard Abbe refractometry
Temperature, K	Pressure, kPa	Refractive index (Na D-line)	uncertainty
298.15	101.325	1.389	0.0005

System: 2,2,4-trimethylpentane; phases: Liquid
Property: Mass density, kg/m3 (Liquid); method: Vibrating tube method
Temperature, K	Pressure, kPa	Mass density, kg/m3	uncertainty
298.15	100	687.75	1.01

System: octane + methyl pentanoate; phases: Liquid
Fixed: Temperature, K = 298.15
Fixed: Pressure, kPa = 100
Property: Mass density, kg/m3 (Liquid); method: Vibrating tube method
Mole fraction of octane	Mass density, kg/m3	uncertainty
0	884.84	1
0.0514	872.35	1.01
0.1005	860.71	1.01
0.161	846.85	1.01
0.2134	835.46	1.01
0.2601	825.47	1.01
0.3084	815.53	1.01
0.3625	804.47	1.01
0.4427	788.93	1.02
0.4558	786.45	1.02
0.5104	776.34	1.02
0.5504	769.1	1.02
0.6116	758.45	1.02
0.6541	751.22	1.02
0.7081	742.25	1.02
0.7535	734.86	1.02
0.8013	727.38	1.02
0.8518	719.71	1.03
0.9059	711.73	1.03
0.9521	705.03	1.03
1	698.58	1.03

System: octane + methyl pentanoate; phases: Liquid
Fixed: Pressure, kPa = 100
Fixed: Temperature, K = 298.15
Property: Excess molar enthalpy (molar enthalpy of mixing), kJ/mol (Liquid); method: Calvet calorimetry
Mole fraction of octane	Excess molar enthalpy (molar enthalpy of mixing), kJ/mol	uncertainty
0.0427	0.162	0.004
0.0951	0.337	0.008
0.1523	0.511	0.011
0.2098	0.659	0.014
0.2677	0.784	0.017
0.3234	0.882	0.019
0.377	0.956	0.021
0.4266	1.005	0.022
0.4619	1.042	0.022
0.4695	1.043	0.022
0.5113	1.053	0.023
0.5126	1.048	0.023
0.5411	1.042	0.022
0.5701	1.039	0.022
0.6364	0.987	0.021
0.709	0.888	0.019
0.7745	0.757	0.016
0.8541	0.548	0.012
0.9325	0.229	0.005

System: octane + methyl butanoate; phases: Liquid
Fixed: Temperature, K = 298.15
Fixed: Pressure, kPa = 100
Property: Mass density, kg/m3 (Liquid); method: Vibrating tube method
Mole fraction of octane	Mass density, kg/m3	uncertainty
0	892.34	1
0.059	875.04	1.01
0.1109	860.65	1.01
0.152	849.82	1.01
0.2051	836.56	1.01
0.2557	824.52	1.01
0.2992	814.89	1.01
0.3501	803.53	1.01
0.4045	792.24	1.02
0.4516	782.9	1.02
0.4978	774.12	1.02
0.5469	765.18	1.02
0.5862	758.27	1.02
0.6551	746.75	1.02
0.6989	739.74	1.02
0.7471	732.42	1.02
0.7931	725.7	1.02
0.8428	718.65	1.03
0.9009	710.74	1.03
0.9367	706.37	1.03
0.9651	702.84	1.03
0.9655	702.79	1.03
1	698.58	1.03

System: octane + methyl butanoate; phases: Liquid
Fixed: Pressure, kPa = 100
Fixed: Temperature, K = 298.15
Property: Excess molar enthalpy (molar enthalpy of mixing), kJ/mol (Liquid); method: Calvet calorimetry
Mole fraction of octane	Excess molar enthalpy (molar enthalpy of mixing), kJ/mol	uncertainty
0.0438	0.213	0.005
0.0922	0.413	0.009
0.144	0.602	0.013
0.1978	0.771	0.017
0.2521	0.911	0.02
0.3043	1.021	0.022
0.3543	1.104	0.024
0.403	1.164	0.025
0.4321	1.196	0.026
0.4779	1.217	0.026
0.5368	1.207	0.026
0.6033	1.155	0.025
0.676	1.052	0.023
0.757	0.88	0.019
0.8413	0.64	0.014
0.9231	0.362	0.008

System: methyl ethanoate + octane; phases: Liquid
Fixed: Temperature, K = 298.15
Fixed: Pressure, kPa = 100
Property: Mass density, kg/m3 (Liquid); method: Vibrating tube method
Mole fraction of octane	Mass density, kg/m3	uncertainty
0	927.16	1.01
0.0493	901.46	1.03
0.1011	878.04	1.03
0.1517	857.91	1.02
0.2033	839.55	1.02
0.253	823.66	1.02
0.3008	809.86	1.02
0.3471	797.79	1.02
0.3946	786.15	1.02
0.4523	773.45	1.02
0.4951	764.76	1.02
0.5307	758.11	1.02
0.5777	749.93	1.02
0.5898	747.92	1.02
0.6146	743.98	1.02
0.6388	740.27	1.02
0.6699	735.52	1.02
0.7238	728.1	1.03
0.7841	720.49	1.03
0.8333	714.64	1.03
0.8887	708.75	1.03
0.9311	704.69	1.03
0.9585	702.21	1.03
1	698.58	1.03

System: methyl ethanoate + octane; phases: Liquid
Fixed: Pressure, kPa = 100
Fixed: Temperature, K = 298.15
Property: Excess molar enthalpy (molar enthalpy of mixing), kJ/mol (Liquid); method: Calvet calorimetry
Mole fraction of octane	Excess molar enthalpy (molar enthalpy of mixing), kJ/mol	uncertainty
0.0466	0.415	0.01
0.1009	0.813	0.018
0.1504	1.135	0.024
0.2057	1.415	0.03
0.258	1.634	0.035
0.3043	1.786	0.038
0.3516	1.905	0.041
0.3642	1.943	0.041
0.3999	2.005	0.043
0.446	2.039	0.043
0.5006	2.038	0.043
0.5742	1.955	0.042
0.6631	1.743	0.037
0.7615	1.384	0.03
0.8485	0.945	0.02
0.9324	0.448	0.01

System: 2,2,4-trimethylpentane + methyl pentanoate; phases: Liquid
Fixed: Temperature, K = 298.15
Fixed: Pressure, kPa = 100
Property: Mass density, kg/m3 (Liquid); method: Vibrating tube method
Mole fraction of 2,2,4-trimethylpentane	Mass density, kg/m3	uncertainty
0	884.84	1
0.0537	871.44	1.01
0.1588	846.38	1.01
0.2505	825.53	1.01
0.3544	803.1	1.01
0.4518	783.06	1.01
0.4984	773.84	1.01
0.5417	765.44	1.01
0.642	746.75	1.01
0.6854	738.97	1.01
0.7425	728.98	1.01
0.7967	719.79	1.01
0.8148	716.75	1.01
0.8415	712.32	1.01
0.8779	706.53	1.01
0.8999	702.99	1.01
0.9409	696.52	1.01
1	687.75	1.01

System: 2,2,4-trimethylpentane + methyl pentanoate; phases: Liquid
Fixed: Pressure, kPa = 100
Fixed: Temperature, K = 298.15
Property: Excess molar enthalpy (molar enthalpy of mixing), kJ/mol (Liquid); method: Calvet calorimetry
Mole fraction of 2,2,4-trimethylpentane	Excess molar enthalpy (molar enthalpy of mixing), kJ/mol	uncertainty
0.0438	0.144	0.004
0.0963	0.281	0.006
0.1589	0.438	0.01
0.2206	0.574	0.012
0.2692	0.664	0.014
0.3311	0.742	0.016
0.3825	0.801	0.017
0.436	0.843	0.018
0.4818	0.866	0.019
0.5239	0.881	0.019
0.5638	0.885	0.019
0.5679	0.884	0.019
0.6024	0.871	0.019
0.6258	0.856	0.018
0.7031	0.789	0.017
0.7813	0.658	0.014
0.8452	0.505	0.011
0.9243	0.297	0.007

System: 2,2,4-trimethylpentane + methyl butanoate; phases: Liquid
Fixed: Temperature, K = 298.15
Fixed: Pressure, kPa = 100
Property: Mass density, kg/m3 (Liquid); method: Vibrating tube method
Mole fraction of 2,2,4-trimethylpentane	Mass density, kg/m3	uncertainty
0	892.34	1
0.0344	881.71	1.01
0.0633	873.2	1.01
0.1096	860.1	1.01
0.1334	853.55	1.01
0.1539	848	1.01
0.2013	835.7	1.01
0.2471	824.1	1.01
0.2981	811.9	1.01
0.3973	789.58	1.01
0.441	780.3	1.01
0.5431	760	1.01
0.5901	751.22	1.01
0.6801	735.3	1.01
0.7243	727.9	1.01
0.8239	712.2	1.01
0.8708	705.2	1.01
0.8863	703.02	1.01
0.9158	698.8	1.01
0.9816	689.84	1.01
1	687.75	1.01

System: 2,2,4-trimethylpentane + methyl butanoate; phases: Liquid
Fixed: Pressure, kPa = 100
Fixed: Temperature, K = 298.15
Property: Excess molar enthalpy (molar enthalpy of mixing), kJ/mol (Liquid); method: Calvet calorimetry
Mole fraction of 2,2,4-trimethylpentane	Excess molar enthalpy (molar enthalpy of mixing), kJ/mol	uncertainty
0.0389	0.161	0.004
0.0858	0.332	0.007
0.1367	0.499	0.011
0.1916	0.651	0.014
0.2446	0.779	0.017
0.2982	0.884	0.019
0.3481	0.962	0.021
0.3959	1.018	0.022
0.4256	1.05	0.023
0.4407	1.053	0.023
0.4767	1.064	0.023
0.5375	1.065	0.023
0.6052	1.03	0.022
0.6813	0.941	0.02
0.7629	0.789	0.017
0.8494	0.566	0.012
0.9353	0.302	0.007

System: methyl ethanoate + 2,2,4-trimethylpentane; phases: Liquid
Fixed: Temperature, K = 298.15
Fixed: Pressure, kPa = 100
Property: Mass density, kg/m3 (Liquid); method: Vibrating tube method
Mole fraction of 2,2,4-trimethylpentane	Mass density, kg/m3	uncertainty
0	927.16	1.01
0.0375	906.89	1.03
0.1025	876.58	1.02
0.1652	851.09	1.02
0.1775	846.59	1.02
0.2189	832.07	1.02
0.2615	818.03	1.02
0.302	805.95	1.02
0.3902	782.41	1.01
0.4061	778.52	1.01
0.4249	774.09	1.01
0.4627	765.54	1.01
0.5239	752.92	1.01
0.5411	749.57	1.01
0.61	737.18	1.01
0.6612	728.76	1.01
0.6786	726.1	1.01
0.7359	717.6	1.01
0.8086	708.07	1.01
0.8803	699.86	1.01
0.9521	692.07	1.01
1	687.75	1.01

System: methyl ethanoate + 2,2,4-trimethylpentane; phases: Liquid
Fixed: Pressure, kPa = 100
Fixed: Temperature, K = 298.15
Property: Excess molar enthalpy (molar enthalpy of mixing), kJ/mol (Liquid); method: Calvet calorimetry
Mole fraction of 2,2,4-trimethylpentane	Excess molar enthalpy (molar enthalpy of mixing), kJ/mol	uncertainty
0.02	0.155	0.005
0.0525	0.414	0.01
0.0892	0.66	0.014
0.1241	0.858	0.019
0.1687	1.047	0.023
0.2084	1.217	0.026
0.256	1.385	0.03
0.3079	1.544	0.033
0.3608	1.659	0.035
0.3915	1.712	0.037
0.4323	1.763	0.038
0.4764	1.789	0.038
0.5406	1.759	0.038
0.6163	1.644	0.035
0.6888	1.456	0.031
0.7833	1.149	0.025
0.8597	0.792	0.017
0.9422	0.356	0.008

System: methyl ethanoate + methyl pentanoate; phases: Liquid
Fixed: Temperature, K = 298.15
Fixed: Pressure, kPa = 100
Property: Mass density, kg/m3 (Liquid); method: Vibrating tube method
Mole fraction of methyl pentanoate	Mass density, kg/m3	uncertainty
0	927.16	1.01
0.0496	922.92	1.01
0.1001	919.44	1.01
0.1536	916.04	1.01
0.2027	913.18	1.01
0.2511	910.53	1.01
0.3522	905.55	1.01
0.4013	903.35	1.01
0.4497	901.35	1.01
0.4935	899.62	1.01
0.5444	897.75	1.01
0.5935	896.01	1.01
0.6563	893.98	1.01
0.7383	891.47	1.01
0.7902	890.02	1.01
0.843	888.62	1
0.8918	887.4	1
0.9372	886.3	1
1	884.84	1

System: methyl ethanoate + methyl pentanoate; phases: Liquid
Fixed: Pressure, kPa = 100
Fixed: Temperature, K = 298.15
Property: Excess molar enthalpy (molar enthalpy of mixing), kJ/mol (Liquid); method: Calvet calorimetry
Mole fraction of methyl pentanoate	Excess molar enthalpy (molar enthalpy of mixing), kJ/mol	uncertainty
0.0539	0.05	0.002
0.113	0.096	0.002
0.1716	0.135	0.003
0.2347	0.173	0.004
0.2915	0.198	0.005
0.344	0.218	0.005
0.3954	0.231	0.005
0.4441	0.239	0.005
0.5055	0.238	0.005
0.5754	0.228	0.005
0.6517	0.212	0.005
0.7339	0.178	0.004
0.8188	0.126	0.003
0.9036	0.075	0.002

System: methyl ethanoate + methyl butanoate; phases: Liquid
Fixed: Temperature, K = 298.15
Fixed: Pressure, kPa = 100
Property: Mass density, kg/m3 (Liquid); method: Vibrating tube method
Mole fraction of methyl butanoate	Mass density, kg/m3	uncertainty
0	927.16	1.01
0.0106	926.21	1.01
0.0564	923.86	1.01
0.1023	921.52	1.01
0.1361	919.91	1.01
0.203	916.91	1.01
0.2536	914.74	1.01
0.3054	912.64	1.01
0.4122	908.65	1.01
0.4511	907.3	1.01
0.5456	904.19	1.01
0.5906	902.8	1.01
0.6148	902.08	1.01
0.6958	899.76	1.01
0.7394	898.57	1.01
0.7873	897.29	1
0.8368	896.07	1
0.8884	894.85	1
0.9538	893.32	1
0.974	892.87	1
1	892.34	1

System: methyl ethanoate + methyl butanoate; phases: Liquid
Fixed: Pressure, kPa = 100
Fixed: Temperature, K = 298.15
Property: Excess molar enthalpy (molar enthalpy of mixing), kJ/mol (Liquid); method: Calvet calorimetry
Mole fraction of methyl butanoate	Excess molar enthalpy (molar enthalpy of mixing), kJ/mol	uncertainty
0.027	0.022	0.001
0.0962	0.053	0.002
0.1645	0.083	0.002
0.226	0.102	0.003
0.2888	0.12	0.003
0.3478	0.135	0.003
0.4002	0.143	0.003
0.4437	0.149	0.004
0.4822	0.151	0.004
0.5276	0.149	0.004
0.5725	0.146	0.003
0.6268	0.138	0.003
0.6958	0.122	0.003
0.7669	0.1	0.003
0.8497	0.069	0.002
0.9313	0.036	0.001

System: methyl ethanoate + octane + methyl pentanoate; phases: Liquid
Fixed: Pressure, kPa = 100
Fixed: Temperature, K = 298.15
Property: Mass density, kg/m3 (Liquid); method: Vibrating tube method
Mole fraction of octane	Mole fraction of methyl pentanoate	Mass density, kg/m3	uncertainty
0.006	0.05	920.09	1.12
0.011	0.097	914.38	1.1
0.021	0.185	905.33	1.09
0.026	0.23	900.96	1.08
0.035	0.311	893.68	1.07
0.056	0.495	880.47	1.05
0.075	0.668	870.68	1.04
0.085	0.753	866.79	1.04
0.089	0.792	865.06	1.04
0.014	0.042	915.7	1.11
0.026	0.079	908.05	1.11
0.038	0.115	900.66	1.1
0.051	0.153	893.41	1.08
0.064	0.19	887.34	1.09
0.086	0.256	876.55	1.06
0.112	0.334	865.88	1.04
0.126	0.376	860.71	1.04
0.137	0.409	856.85	1.04
0.15	0.448	852.7	1.04
0.162	0.484	849.2	1.04
0.21	0.627	836.53	1.04
0.226	0.675	832.28	1.04
0.232	0.691	831.7	1.04
0.029	0.028	909.78	1.11
0.054	0.052	896.65	1.1
0.077	0.075	885.33	1.08
0.101	0.099	874.93	1.07
0.128	0.125	864.24	1.06
0.154	0.15	854.86	1.05
0.228	0.223	831.63	1.04
0.251	0.245	825.41	1.04
0.277	0.271	818.87	1.04
0.301	0.294	813.25	1.05
0.375	0.366	798.46	1.04
0.421	0.411	790.07	1.04
0.45	0.439	785.44	1.04
0.472	0.461	782.11	1.04
0.042	0.014	904.22	1.11
0.08	0.027	886.06	1.09
0.153	0.051	856.54	1.09
0.187	0.062	844.79	1.05
0.267	0.088	820.27	1.05
0.301	0.1	811.25	1.05
0.375	0.124	793.71	1.04
0.416	0.138	784.9	1.04
0.443	0.147	779.63	1.04
0.519	0.172	766.31	1.03
0.552	0.183	760.97	1.03
0.661	0.219	745.43	1.03
0.696	0.23	741.4	1.03
0.05	0.006	900.66	1.11
0.093	0.011	880.83	1.09
0.183	0.021	846.37	1.08
0.227	0.026	831.92	1.06
0.282	0.032	815.45	1.06
0.313	0.036	807.02	1.05
0.361	0.041	795.13	1.04
0.401	0.046	786.12	1.04
0.447	0.051	776.29	1.04
0.49	0.056	767.74	1.04
0.535	0.061	759.85	1.04
0.576	0.066	752.9	1.03
0.619	0.071	746.48	1.03
0.662	0.075	740.03	1.03
0.704	0.08	734.5	1.03
0.745	0.085	729.18	1.03
0.801	0.091	722.8	1.03
0.834	0.095	719.58	1.03

System: methyl ethanoate + octane + methyl pentanoate; phases: Liquid
Fixed: Pressure, kPa = 100
Fixed: Temperature, K = 298.15
Property: Excess molar enthalpy (molar enthalpy of mixing), kJ/mol (Liquid); method: Calvet calorimetry
Mole fraction of octane	Mole fraction of methyl pentanoate	Excess molar enthalpy (molar enthalpy of mixing), kJ/mol	uncertainty
0.043	0.201	0.523	0.022
0.047	0.222	0.556	0.023
0.052	0.243	0.587	0.024
0.057	0.268	0.62	0.026
0.063	0.297	0.648	0.027
0.07	0.327	0.676	0.028
0.078	0.364	0.703	0.029
0.086	0.404	0.724	0.03
0.096	0.451	0.74	0.03
0.109	0.51	0.743	0.03
0.121	0.567	0.732	0.03
0.135	0.633	0.708	0.029
0.149	0.698	0.669	0.027
0.163	0.766	0.622	0.025
0.104	0.141	0.898	0.037
0.116	0.157	0.964	0.04
0.128	0.173	1.021	0.042
0.141	0.191	1.079	0.044
0.156	0.212	1.136	0.046
0.174	0.235	1.188	0.049
0.193	0.271	1.246	0.051
0.215	0.291	1.277	0.052
0.24	0.326	1.303	0.053
0.267	0.362	1.295	0.053
0.298	0.404	1.258	0.051
0.332	0.45	1.219	0.05
0.364	0.494	1.157	0.047
0.397	0.538	1.086	0.044
0.139	0.091	1.069	0.044
0.153	0.1	1.131	0.046
0.155	0.102	1.174	0.048
0.17	0.111	1.241	0.051
0.187	0.122	1.316	0.054
0.209	0.136	1.389	0.057
0.233	0.152	1.458	0.059
0.26	0.17	1.518	0.062
0.291	0.19	1.562	0.064
0.327	0.214	1.584	0.064
0.367	0.24	1.577	0.064
0.409	0.267	1.541	0.063
0.457	0.298	1.464	0.06
0.506	0.331	1.346	0.055
0.556	0.363	1.215	0.05
0.166	0.068	1.236	0.051
0.183	0.075	1.303	0.053
0.201	0.083	1.38	0.056
0.222	0.091	1.461	0.06
0.247	0.101	1.532	0.062
0.274	0.113	1.591	0.065
0.304	0.125	1.643	0.067
0.34	0.14	1.683	0.069
0.38	0.156	1.689	0.069
0.428	0.176	1.648	0.067
0.483	0.198	1.57	0.064
0.537	0.221	1.459	0.059
0.594	0.244	1.299	0.053
0.652	0.268	1.111	0.045

System: methyl ethanoate + octane + methyl butanoate; phases: Liquid
Fixed: Pressure, kPa = 100
Fixed: Temperature, K = 298.15
Property: Mass density, kg/m3 (Liquid); method: Vibrating tube method
Mole fraction of octane	Mole fraction of methyl butanoate	Mass density, kg/m3	uncertainty
0.005	0.04	922.19	1.12
0.009	0.074	918.39	1.13
0.014	0.117	914	1.12
0.017	0.149	910.84	1.11
0.021	0.184	907.53	1.1
0.03	0.254	901.29	1.09
0.037	0.314	896.36	1.08
0.047	0.407	889.48	1.07
0.051	0.438	887.29	1.07
0.064	0.551	880.05	1.05
0.071	0.606	876.85	1.05
0.077	0.655	874.08	1.05
0.08	0.688	872.33	1.04
0.083	0.71	871.18	1.04
0.086	0.734	869.99	1.04
0.089	0.761	868.62	1.04
0.094	0.806	866.46	1.04
0.096	0.826	865.48	1.04
0.1	0.854	864.26	1.04
0.103	0.88	863.1	1.04
0.009	0.029	920.56	1.13
0.016	0.051	915.95	1.12
0.024	0.078	910.61	1.11
0.032	0.105	905.61	1.1
0.038	0.125	902.06	1.11
0.04	0.131	900.1	1.11
0.047	0.154	896.98	1.09
0.062	0.203	889.07	1.08
0.07	0.228	885.26	1.07
0.078	0.254	881.47	1.07
0.092	0.298	875.4	1.07
0.103	0.334	870.6	1.05
0.117	0.38	865.02	1.05
0.132	0.428	859.48	1.05
0.146	0.474	854.7	1.05
0.177	0.574	844.91	1.06
0.191	0.62	840.92	1.05
0.206	0.67	836.74	1.05
0.214	0.696	834.7	1.05
0.221	0.718	833.09	1.05
0.024	0.024	913.13	1.11
0.05	0.05	899.4	1.1
0.08	0.081	884.95	1.07
0.102	0.103	875.05	1.07
0.125	0.126	865.55	1.06
0.149	0.149	856.88	1.06
0.176	0.177	847.11	1.05
0.201	0.202	838.86	1.04
0.233	0.234	829.2	1.04
0.249	0.25	824.75	1.04
0.274	0.275	818.2	1.04
0.295	0.297	812.9	1.06
0.323	0.324	806.38	1.05
0.35	0.351	800.51	1.05
0.376	0.377	794.9	1.05
0.4	0.401	790.32	1.05
0.426	0.428	785.35	1.04
0.449	0.451	781.36	1.04
0.476	0.478	777.3	1.04
0.03	0.009	910.6	1.12
0.056	0.016	897.65	1.12
0.081	0.024	886.41	1.1
0.105	0.031	875.52	1.09
0.133	0.039	864.53	1.07
0.154	0.045	856.7	1.07
0.2	0.059	840.25	1.06
0.257	0.075	822.99	1.05
0.307	0.09	809.05	1.05
0.333	0.098	802.26	1.05
0.402	0.118	786.27	1.03
0.483	0.142	770.16	1.03
0.579	0.17	753.91	1.03
0.623	0.183	747.36	1.03
0.646	0.189	744.26	1.03
0.675	0.198	740.32	1.03
0.704	0.206	736.86	1.03
0.734	0.215	733.14	1.03
0.034	0.004	908.86	1.12
0.058	0.007	897.19	1.11
0.088	0.011	883.27	1.1
0.117	0.015	871.24	1.09
0.143	0.018	860.61	1.08
0.171	0.022	850.65	1.07
0.227	0.029	831.84	1.07
0.257	0.033	822.47	1.05
0.317	0.041	806.05	1.05
0.368	0.047	793.08	1.04
0.423	0.055	780.72	1.04
0.462	0.059	772.81	1.04
0.548	0.071	756.79	1.04
0.627	0.081	744.02	1.03
0.688	0.089	735.34	1.03
0.721	0.093	731.31	1.03
0.743	0.096	728.38	1.03
0.773	0.1	724.9	1.03
0.803	0.104	721.39	1.03
0.872	0.112	714.21	1.03
0.854	0.11	716.11	1.03

System: methyl ethanoate + octane + methyl butanoate; phases: Liquid
Fixed: Pressure, kPa = 100
Fixed: Temperature, K = 298.15
Property: Excess molar enthalpy (molar enthalpy of mixing), kJ/mol (Liquid); method: Calvet calorimetry
Mole fraction of octane	Mole fraction of methyl butanoate	Excess molar enthalpy (molar enthalpy of mixing), kJ/mol	uncertainty
0.041	0.248	0.447	0.019
0.046	0.277	0.488	0.021
0.052	0.313	0.531	0.022
0.059	0.352	0.573	0.024
0.067	0.399	0.616	0.025
0.076	0.453	0.654	0.027
0.086	0.512	0.684	0.028
0.096	0.576	0.708	0.029
0.108	0.644	0.726	0.03
0.118	0.707	0.734	0.03
0.128	0.764	0.73	0.03
0.137	0.819	0.723	0.03
0.126	0.172	1.001	0.041
0.142	0.194	1.077	0.044
0.161	0.22	1.158	0.047
0.183	0.251	1.238	0.051
0.208	0.284	1.313	0.054
0.237	0.325	1.376	0.056
0.269	0.368	1.414	0.058
0.305	0.418	1.433	0.058
0.336	0.46	1.427	0.058
0.371	0.507	1.398	0.057
0.402	0.55	1.359	0.055
0.149	0.075	1.104	0.045
0.167	0.084	1.195	0.049
0.188	0.095	1.29	0.053
0.212	0.107	1.375	0.056
0.239	0.121	1.454	0.059
0.266	0.135	1.529	0.062
0.2981	0.151	1.588	0.065
0.335	0.169	1.624	0.066
0.37	0.187	1.642	0.067
0.415	0.21	1.632	0.066
0.459	0.232	1.589	0.065
0.51	0.258	1.503	0.061
0.567	0.287	1.374	0.056
0.614	0.311	1.26	0.051
0.135	0.041	1.031	0.042
0.15	0.045	1.11	0.046
0.166	0.05	1.202	0.049
0.185	0.056	1.282	0.052
0.205	0.062	1.364	0.056
0.228	0.069	1.448	0.059
0.254	0.076	1.533	0.063
0.283	0.085	1.608	0.066
0.316	0.095	1.679	0.068
0.358	0.107	1.725	0.07
0.401	0.121	1.752	0.071
0.454	0.136	1.742	0.071
0.515	0.155	1.679	0.068
0.573	0.172	1.564	0.064
0.642	0.194	1.375	0.056
0.701	0.211	1.194	0.049

System: methyl ethanoate + 2,2,4-trimethylpentane + methyl pentanoate; phases: Liquid
Fixed: Pressure, kPa = 100
Fixed: Temperature, K = 298.15
Property: Mass density, kg/m3 (Liquid); method: Vibrating tube method
Mole fraction of 2,2,4-trimethylpentane	Mole fraction of methyl pentanoate	Mass density, kg/m3	uncertainty
0.005	0.043	921.1	1.12
0.011	0.094	914.86	1.12
0.016	0.139	909.72	1.1
0.02	0.18	905.39	1.1
0.026	0.226	900.95	1.09
0.031	0.269	896.99	1.08
0.036	0.316	893	1.07
0.041	0.363	889.34	1.06
0.056	0.49	880.5	1.05
0.061	0.535	877.75	1.05
0.066	0.581	875.09	1.05
0.075	0.665	870.55	1.04
0.08	0.707	868.47	1.04
0.085	0.752	866.37	1.04
0.096	0.843	862.3	1.04
0.015	0.043	916.05	1.12
0.029	0.085	906.82	1.11
0.039	0.118	900.44	1.1
0.053	0.158	892.61	1.08
0.063	0.189	886.76	1.08
0.076	0.226	880.62	1.07
0.087	0.261	875.25	1.06
0.102	0.304	868.97	1.06
0.136	0.408	855.93	1.05
0.15	0.447	851.75	1.04
0.161	0.482	848.11	1.04
0.185	0.552	841.33	1.05
0.197	0.59	837.96	1.05
0.209	0.625	835.09	1.04
0.22	0.658	832.55	1.04
0.233	0.696	829.44	1.04
0.029	0.029	909.79	1.12
0.052	0.052	897.69	1.1
0.076	0.077	885.62	1.09
0.101	0.102	874.43	1.07
0.121	0.122	865.97	1.07
0.146	0.148	856.22	1.06
0.175	0.177	846.07	1.05
0.198	0.2	838.54	1.05
0.222	0.225	831.03	1.04
0.247	0.249	824.21	1.04
0.273	0.276	817.39	1.03
0.299	0.302	810.99	1.03
0.364	0.368	796.8	1.04
0.415	0.419	787.37	1.04
0.461	0.466	779.6	1.03
0.015	0.005	918.85	1.13
0.019	0.007	916.03	1.13
0.078	0.028	886.85	1.1
0.114	0.041	870.64	1.07
0.15	0.054	856.28	1.07
0.18	0.065	845.19	1.05
0.256	0.092	820.76	1.05
0.292	0.106	810.31	1.04
0.33	0.119	800.4	1.04
0.367	0.133	791.35	1.04
0.436	0.158	776.48	1.03
0.47	0.17	769.85	1.03
0.54	0.195	757.54	1.02
0.573	0.207	752.18	1.03
0.612	0.221	746.55	1.02
0.645	0.233	741.89	1.02
0.681	0.246	737.1	1.02
0.048	0.006	901.87	1.12
0.095	0.011	879.5	1.09
0.177	0.02	846.67	1.07
0.225	0.026	830.16	1.06
0.189	0.022	842.49	1.07
0.314	0.036	803.31	1.05
0.359	0.041	791.59	1.04
0.404	0.046	780.54	1.04
0.445	0.051	771.48	1.03
0.494	0.057	761.35	1.03
0.537	0.062	753.31	1.03
0.576	0.066	746.31	1.03
0.614	0.071	740.03	1.02
0.663	0.076	732.33	1.02
0.701	0.081	727.22	1.02
0.743	0.085	721.27	1.02
0.805	0.093	714.39	1.02

System: methyl ethanoate + 2,2,4-trimethylpentane + methyl pentanoate; phases: Liquid
Fixed: Pressure, kPa = 100
Fixed: Temperature, K = 298.15
Property: Excess molar enthalpy (molar enthalpy of mixing), kJ/mol (Liquid); method: Calvet calorimetry
Mole fraction of 2,2,4-trimethylpentane	Mole fraction of methyl pentanoate	Excess molar enthalpy (molar enthalpy of mixing), kJ/mol	uncertainty
0.06	0.192	0.541	0.023
0.067	0.213	0.582	0.024
0.074	0.235	0.622	0.026
0.082	0.261	0.662	0.027
0.091	0.289	0.701	0.029
0.099	0.317	0.735	0.03
0.11	0.35	0.767	0.031
0.122	0.389	0.796	0.033
0.134	0.428	0.818	0.033
0.148	0.473	0.831	0.034
0.164	0.524	0.834	0.034
0.18	0.574	0.824	0.034
0.193	0.617	0.807	0.033
0.209	0.667	0.776	0.032
0.224	0.715	0.734	0.03
0.107	0.139	0.722	0.031
0.11	0.143	0.764	0.032
0.121	0.157	0.817	0.034
0.133	0.172	0.869	0.036
0.146	0.189	0.919	0.038
0.16	0.207	0.97	0.04
0.177	0.23	1.014	0.041
0.195	0.253	1.056	0.043
0.215	0.28	1.091	0.045
0.24	0.312	1.119	0.046
0.267	0.347	1.132	0.046
0.294	0.382	1.125	0.046
0.323	0.419	1.191	0.049
0.352	0.457	1.068	0.044
0.381	0.495	1.011	0.041
0.411	0.534	0.944	0.039
0.164	0.075	1.074	0.044
0.181	0.083	1.139	0.047
0.198	0.091	1.2	0.049
0.216	0.099	1.266	0.052
0.239	0.109	1.328	0.054
0.264	0.12	1.386	0.056
0.292	0.133	1.442	0.059
0.325	0.148	1.482	0.06
0.36	0.164	1.505	0.061
0.401	0.183	1.503	0.061
0.446	0.203	1.471	0.06
0.495	0.226	1.408	0.057
0.545	0.249	1.306	0.053
0.596	0.272	1.168	0.048
0.647	0.295	1.018	0.042
0.202	0.058	1.24	0.051
0.227	0.065	1.333	0.054
0.258	0.074	1.426	0.058
0.296	0.084	1.508	0.061
0.34	0.097	1.57	0.064
0.393	0.112	1.599	0.065
0.454	0.129	1.582	0.064
0.518	0.148	1.509	0.061
0.591	0.168	1.361	0.055
0.665	0.19	1.155	0.047
0.723	0.206	0.962	0.039

System: methyl ethanoate + 2,2,4-trimethylpentane + methyl butanoate; phases: Liquid
Fixed: Pressure, kPa = 100
Fixed: Temperature, K = 298.15
Property: Mass density, kg/m3 (Liquid); method: Vibrating tube method
Mole fraction of 2,2,4-trimethylpentane	Mole fraction of methyl butanoate	Mass density, kg/m3	uncertainty
0.006	0.052	920.97	1.14
0.011	0.097	916.21	1.13
0.026	0.226	904.14	1.1
0.031	0.271	900.15	1.09
0.041	0.36	892.99	1.07
0.05	0.44	887.31	1.06
0.054	0.477	884.87	1.06
0.06	0.528	881.87	1.05
0.071	0.624	876.23	1.05
0.076	0.668	873.86	1.05
0.08	0.704	871.91	1.04
0.086	0.753	869.48	1.04
0.011	0.026	919.74	1.14
0.021	0.052	912.96	1.12
0.028	0.07	908.54	1.11
0.039	0.096	902.46	1.12
0.05	0.122	896.73	1.09
0.058	0.141	893.57	1.09
0.069	0.168	886.86	1.08
0.077	0.189	882.84	1.08
0.086	0.21	878.72	1.08
0.105	0.258	870.11	1.07
0.11	0.27	868.12	1.1
0.115	0.282	866.06	1.06
0.153	0.374	852	1.05
0.176	0.431	844.14	1.04
0.217	0.531	832.03	1.05
0.253	0.62	822.68	1.05
0.262	0.642	820.42	1.05
0.281	0.689	815.94	1.04
0.028	0.028	910.48	1.12
0.055	0.053	897.02	1.1
0.065	0.063	891.86	1.09
0.129	0.125	864.07	1.06
0.152	0.147	854.5	1.06
0.175	0.169	846.23	1.05
0.203	0.197	836.6	1.04
0.227	0.22	829.15	1.04
0.255	0.247	821.02	1.04
0.301	0.292	808.46	1.05
0.326	0.316	802.52	1.05
0.353	0.342	796.34	1.04
0.373	0.362	792.02	1.04
0.398	0.386	786.69	1.04
0.423	0.41	781.87	1.04
0.444	0.43	778.03	1.04
0.041	0.013	904.92	1.11
0.077	0.025	887.3	1.1
0.117	0.038	869.77	1.09
0.15	0.049	856.42	1.06
0.188	0.061	842.49	1.06
0.224	0.072	830.25	1.06
0.266	0.086	817.03	1.06
0.411	0.133	780.03	1.03
0.453	0.147	771.15	1.03
0.523	0.169	757.61	1.03
0.565	0.183	750.1	1.02
0.593	0.192	745.68	1.02
0.619	0.2	741.49	1.02
0.627	0.203	740.48	1.02
0.712	0.23	728.72	1.02
0.093	0.009	880.58	1.1
0.141	0.014	860.6	1.09
0.181	0.017	845.26	1.07
0.228	0.022	829.02	1.06
0.272	0.026	815.14	1.05
0.313	0.03	803.06	1.05
0.365	0.035	789.3	1.04
0.408	0.039	778.95	1.03
0.495	0.048	759.99	1.03
0.587	0.057	743	1.03
0.631	0.061	735.66	1.02
0.674	0.065	728.92	1.02
0.716	0.069	722.8	1.02
0.763	0.074	716.46	1.02
0.816	0.079	710.06	1.02
0.852	0.082	705.81	1.02

System: methyl ethanoate + 2,2,4-trimethylpentane + methyl butanoate; phases: Liquid
Fixed: Pressure, kPa = 100
Fixed: Temperature, K = 298.15
Property: Excess molar enthalpy (molar enthalpy of mixing), kJ/mol (Liquid); method: Calvet calorimetry
Mole fraction of 2,2,4-trimethylpentane	Mole fraction of methyl butanoate	Excess molar enthalpy (molar enthalpy of mixing), kJ/mol	uncertainty
0.039	0.195	0.371	0.016
0.042	0.211	0.394	0.017
0.045	0.228	0.419	0.018
0.05	0.248	0.448	0.019
0.054	0.27	0.476	0.02
0.059	0.295	0.505	0.021
0.064	0.323	0.535	0.022
0.071	0.356	0.564	0.023
0.078	0.39	0.591	0.024
0.086	0.431	0.619	0.025
0.094	0.472	0.643	0.026
0.104	0.52	0.661	0.027
0.114	0.573	0.675	0.028
0.124	0.624	0.681	0.028
0.136	0.682	0.678	0.028
0.146	0.732	0.673	0.028
0.152	0.785	0.653	0.027
0.109	0.143	0.761	0.032
0.118	0.155	0.815	0.034
0.128	0.168	0.872	0.036
0.14	0.185	0.928	0.038
0.153	0.201	0.985	0.04
0.168	0.221	1.043	0.043
0.185	0.244	1.097	0.045
0.205	0.269	1.152	0.047
0.224	0.295	1.197	0.049
0.247	0.324	1.235	0.05
0.272	0.358	1.265	0.052
0.297	0.391	1.283	0.052
0.326	0.428	1.293	0.053
0.352	0.463	1.286	0.052
0.382	0.503	1.263	0.051
0.405	0.533	1.232	0.05
0.115	0.118	0.786	0.033
0.125	0.127	0.856	0.035
0.129	0.132	0.9	0.037
0.141	0.144	0.957	0.039
0.154	0.157	1.015	0.042
0.168	0.172	1.076	0.044
0.185	0.189	1.138	0.047
0.204	0.208	1.199	0.049
0.223	0.228	1.258	0.051
0.247	0.252	1.308	0.053
0.271	0.277	1.352	0.055
0.301	0.307	1.386	0.056
0.332	0.339	1.403	0.057
0.364	0.371	1.404	0.057
0.397	0.405	1.383	0.056
0.43	0.439	1.338	0.054
0.464	0.474	1.268	0.052
0.16	0.061	1.023	0.042
0.175	0.066	1.088	0.045
0.191	0.072	1.152	0.047
0.211	0.08	1.222	0.05
0.234	0.088	1.297	0.053
0.261	0.099	1.366	0.056
0.291	0.11	1.431	0.058
0.327	0.124	1.483	0.06
0.367	0.139	1.517	0.062
0.417	0.157	1.526	0.062
0.464	0.175	1.521	0.062
0.523	0.198	1.474	0.06
0.565	0.214	1.381	0.056
0.626	0.237	1.237	0.05
0.672	0.254	1.102	0.045
