Measured thermophysical data. Vapor Liquid Equilibrium of Gamma-Valerolactone and Formic Acid at p = 51 kPa
Source: J. Chem. Eng. Data, 2017, 10.1021/acs.jced.6b00867
Compound 1: formic acid, CH2O2, InChI=1S/CH2O2/c2-1-3/h1H,(H,2,3), purity 98%
Compound 2: .gamma.-valerolactone, C5H8O2, InChI=1S/C5H8O2/c1-4-2-3-5(6)7-4/h4H,2-3H2,1H3, purity 98%

System: formic acid; phases: Liquid
Fixed: Pressure, kPa = 101
Property: Refractive index (Na D-line) (Liquid); method: Standard Abbe refractometry
Temperature, K	Refractive index (Na D-line)	uncertainty
293.2	1.3714	0.0004
298.2	1.3699	0.0004

System: formic acid; phases: Liquid, Gas
Property: Vapor or sublimation pressure, kPa (Liquid); method: Ebulliometric method (Recirculating still)
Temperature, K	Vapor or sublimation pressure, kPa	uncertainty
352.2	51	4

System: .gamma.-valerolactone; phases: Liquid
Fixed: Pressure, kPa = 101
Property: Refractive index (Na D-line) (Liquid); method: Standard Abbe refractometry
Temperature, K	Refractive index (Na D-line)	uncertainty
293.2	1.4339	0.0004
298.2	1.4316	0.0004

System: formic acid + .gamma.-valerolactone; phases: Liquid
Fixed: Pressure, kPa = 101
Property: Refractive index (Na D-line) (Liquid); method: Standard Abbe refractometry
Temperature, K	Mole fraction of formic acid	Refractive index (Na D-line)	uncertainty
293.2	0	1.4339	0.0004
293.2	0.0697	1.4314	0.0004
293.2	0.1233	1.4295	0.0004
293.2	0.2013	1.4265	0.0004
293.2	0.3394	1.421	0.0004
298.2	0	1.4316	0.0004
298.2	0.0697	1.4292	0.0004
298.2	0.1233	1.4272	0.0004
298.2	0.2013	1.4245	0.0004
298.2	0.3394	1.4191	0.0004
293.2	0.4898	1.4138	0.0004
293.2	0.593	1.4078	0.0004
293.2	0.6258	1.4056	0.0004
293.2	0.6744	1.4021	0.0004
293.2	0.7799	1.3941	0.0004
298.2	0.4898	1.4118	0.0004
298.2	0.593	1.4058	0.0004
298.2	0.6258	1.4036	0.0004
298.2	0.6744	1.4002	0.0004
298.2	0.7799	1.3921	0.0004
293.2	0.8539	1.3875	0.0004
293.2	0.8902	1.3839	0.0004
293.2	0.9828	1.3739	0.0004
293.2	1	1.3714	0.0004
298.2	0.8539	1.3856	0.0004
298.2	0.8902	1.3821	0.0004
298.2	0.9828	1.3719	0.0004
298.2	1	1.3699	0.0004

System: formic acid + .gamma.-valerolactone; phases: Liquid, Gas
Fixed: Pressure, kPa = 51
Property: Boiling temperature at pressure P, K (Liquid); method: Ebulliometric method (Recirculating still)
Mole fraction of formic acid	Boiling temperature at pressure P, K	uncertainty
1	352.2	1.6
0.9856	352.7	1.6
0.9779	353	1.6
0.9621	353.7	1.6
0.9499	354.4	1.6
0.9349	355.1	1.6
0.9158	356.2	1.6
0.8924	357.5	1.6
0.872	358.6	1.6
0.8579	359.9	1.6
0.8361	361.4	1.6
0.8297	361.8	1.7
0.8046	364.4	1.7
0.7909	365.4	1.6
0.7849	365.9	1.6
0.7565	368.3	1.6
0.7211	370.9	1.6
0.7052	372	1.6
0.6804	373.6	1.6
0.6366	377.4	1.8
0.6289	378.7	1.8
0.5522	385.4	1.6
0.5275	387.3	1.6
0.4812	391.8	1.7
0.4773	392.2	1.7
0.435	396.1	1.7
0.4026	399.8	1.7
0.357	404.2	1.7
0.2646	413.7	1.7
0.228	417.8	1.7
0.1916	422.1	1.7
0.1444	428.2	1.7
0.1066	433.5	1.7
0.0991	434.6	1.8
0.076	438.2	1.8
0.0536	441.5	1.7

System: formic acid + .gamma.-valerolactone; phases: Gas, Liquid
Fixed: Pressure, kPa = 51
Property: Mole fraction of formic acid (Gas); method: Index of refraction calibration data
Mole fraction of formic acid	Mole fraction of formic acid	uncertainty
1	1	
0.9856	0.9999	0.0001
0.9779	0.9998	0.0002
0.9621	0.9996	0.0004
0.9499	0.9994	0.0006
0.9349	0.9992	0.0008
0.9158	0.9989	0.0011
0.8924	0.9985	0.0015
0.872	0.998	0.002
0.8579	0.9976	0.0024
0.8361	0.997	0.003
0.8297	0.9968	0.0032
0.8046	0.9957	0.0043
0.7909	0.9951	0.0049
0.7849	0.9947	0.005
0.7565	0.9932	0.005
0.7211	0.9908	0.005
0.7052	0.9897	0.005
0.6804	0.9876	0.005
0.6366	0.9822	0.0051
0.6289	0.9804	0.0051
0.5522	0.9651	0.0051
0.5275	0.9584	0.0052
0.4812	0.9437	0.0053
0.4773	0.9421	0.0053
0.435	0.9235	0.0056
0.4026	0.9056	0.0059
0.357	0.8755	0.0065
0.2646	0.7944	0.007
0.228	0.7479	0.0089
0.1916	0.6868	0.0108
0.1444	0.5885	0.0127
0.1066	0.4869	0.0163
0.0991	0.4637	0.0181
0.076	0.3812	0.0199
0.0536	0.2886	0.0213
