Measured thermophysical data. Density, Viscosity, and Speed of Sound of Pure and Binary Mixtures of Ionic Liquids Based on Sulfonium and Imidazolium Cations and Bis(trifluoromethylsulfonyl)imide Anion with 1-Propanol
Source: J. Chem. Eng. Data, 2018, 10.1021/acs.jced.8b00537
Compound 1: 1-butyl-1-methylpyrrolidinium bis[(trifluoromethyl)sulfonyl]imide, C11H20F6N2O4S2, InChI=1S/C9H20N.C2F6NO4S2/c1-3-4-7-10(2)8-5-6-9-10;3-1(4,5)14(10,11)9-15(12,13)2(6,7)8/h3-9H2,1-2H3;/q+1;-1
Compound 2: triethylsulfonium bis((trifluoromethyl)sulfonyl)imide, C8H15F6NO4S3, InChI=1S/C6H15S.C2F6NO4S2/c1-4-7(5-2)6-3;3-1(4,5)14(10,11)9-15(12,13)2(6,7)8/h4-6H2,1-3H3;/q+1;-1
Compound 3: 1-allyl-3-methyl-1H-imidazolium bis((trifluoromethyl)sulfonyl)amide, C9H11F6N3O4S2, InChI=1S/C7H11N2.C2F6NO4S2/c1-3-4-9-6-5-8(2)7-9;3-1(4,5)14(10,11)9-15(12,13)2(6,7)8/h3,5-7H,1,4H2,2H3;/q+1;-1
Compound 4: 1,3-dihydroxyimidazolium bis(trifluoromethylsulfonyl)imide, C5H5F6N3O6S2, InChI=1S/C3H5N2O2.C2F6NO4S2/c6-4-1-2-5(7)3-4;3-1(4,5)14(10,11)9-15(12,13)2(6,7)8/h1-3,6-7H;/q+1;-1
Compound 5: propan-1-ol, C3H8O, InChI=1S/C3H8O/c1-2-3-4/h4H,2-3H2,1H3

System: 1-butyl-1-methylpyrrolidinium bis[(trifluoromethyl)sulfonyl]imide; phases: Liquid
Fixed: Pressure, kPa = 100
Property: Mass density, kg/m3 (Liquid); method: Vibrating tube method
Temperature, K	Mass density, kg/m3	uncertainty
278.15	1412.33	3.27
283.15	1407.79	3.25
288.15	1403.28	3.24
293.15	1398.78	3.23
298.15	1394.32	3.22
303.15	1389.87	3.2
308.15	1385.44	3.19
313.15	1381.05	3.18
318.15	1376.66	3.16
323.15	1372.3	3.15
328.15	1367.94	3.14
333.15	1363.6	3.13
338.15	1359.28	3.11
343.15	1354.98	3.1

System: 1-butyl-1-methylpyrrolidinium bis[(trifluoromethyl)sulfonyl]imide; phases: Liquid
Fixed: Pressure, kPa = 100
Fixed: Frequency, MHz = 3
Property: Speed of sound, m/s (Liquid); method: Single path-length method
Temperature, K	Speed of sound, m/s	uncertainty
278.15	1316.35	6.33
283.15	1304.37	6.33
288.15	1292.46	6.33
293.15	1280.85	6.33
298.15	1269.41	6.33
303.15	1258.16	6.33
308.15	1247.07	6.33
313.15	1236.13	6.33
318.15	1225.33	6.33
323.15	1214.64	6.33
328.15	1204.07	6.33
333.15	1193.6	6.33
338.15	1183.25	6.33
343.15	1172.99	6.33

System: 1-butyl-1-methylpyrrolidinium bis[(trifluoromethyl)sulfonyl]imide; phases: Liquid
Fixed: Pressure, kPa = 100
Property: Viscosity, Pa*s (Liquid); method: Capillary tube (Ostwald; Ubbelohde) method
Temperature, K	Viscosity, Pa*s	uncertainty
293.15	0.097139	0.007897
298.15	0.076539	0.006193
303.15	0.061309	0.004947
308.15	0.049838	0.004022
313.15	0.04108	0.003316
318.15	0.034298	0.002768
323.15	0.028977	0.002339
328.15	0.024756	0.001998
333.15	0.020742	0.001674
338.15	0.018027	0.001455
343.15	0.015802	0.001276

System: triethylsulfonium bis((trifluoromethyl)sulfonyl)imide; phases: Liquid
Fixed: Pressure, kPa = 100
Property: Mass density, kg/m3 (Liquid); method: Vibrating tube method
Temperature, K	Mass density, kg/m3	uncertainty
278.15	1479.52	3.02
283.15	1474.62	3.01
288.15	1469.71	3
293.15	1464.83	2.99
298.15	1459.98	2.98
303.15	1455.14	2.97
308.15	1450.33	2.96
313.15	1445.52	2.95
318.15	1440.74	2.94
323.15	1435.99	2.93
328.15	1431.27	2.92
333.15	1426.57	2.91
338.15	1421.87	2.9
343.15	1417.19	2.89

System: triethylsulfonium bis((trifluoromethyl)sulfonyl)imide; phases: Liquid
Fixed: Pressure, kPa = 100
Fixed: Frequency, MHz = 3
Property: Speed of sound, m/s (Liquid); method: Single path-length method
Temperature, K	Speed of sound, m/s	uncertainty
278.15	1284.81	6.08
283.15	1274.06	6.08
288.15	1263.35	6.08
293.15	1252.87	6.08
298.15	1242.52	6.08
303.15	1232.37	6.08
308.15	1222.43	6.08
313.15	1212.67	6.08
318.15	1203.09	6.08
323.15	1193.73	6.08
328.15	1184.65	6.08
333.15	1175.94	6.08
338.15	1166.82	6.08
343.15	1157.57	6.08

System: triethylsulfonium bis((trifluoromethyl)sulfonyl)imide; phases: Liquid
Fixed: Pressure, kPa = 100
Property: Viscosity, Pa*s (Liquid); method: Capillary tube (Ostwald; Ubbelohde) method
Temperature, K	Viscosity, Pa*s	uncertainty
293.15	0.039641	0.003181
298.15	0.032434	0.002603
303.15	0.02692	0.00216
308.15	0.022644	0.001817
313.15	0.019242	0.001544
318.15	0.016527	0.001326
323.15	0.014311	0.001149
328.15	0.012504	0.001004
333.15	0.010995	0.000883
338.15	0.009726	0.000781
343.15	0.008659	0.000695

System: 1-allyl-3-methyl-1H-imidazolium bis((trifluoromethyl)sulfonyl)amide; phases: Liquid
Fixed: Pressure, kPa = 100
Property: Mass density, kg/m3 (Liquid); method: Vibrating tube method
Temperature, K	Mass density, kg/m3	uncertainty
278.15	1520.13	3.25
283.15	1514.97	3.24
288.15	1509.81	3.23
293.15	1504.69	3.22
303.15	1494.52	3.19
308.15	1489.48	3.18
313.15	1484.45	3.17
318.15	1479.44	3.16
323.15	1474.45	3.14
328.15	1469.5	3.13
333.15	1464.56	3.12
338.15	1459.65	3.11
343.15	1454.75	3.1

System: 1-allyl-3-methyl-1H-imidazolium bis((trifluoromethyl)sulfonyl)amide; phases: Liquid
Fixed: Pressure, kPa = 100
Fixed: Frequency, MHz = 3
Property: Speed of sound, m/s (Liquid); method: Single path-length method
Temperature, K	Speed of sound, m/s	uncertainty
278.15	1286.56	6.19
283.15	1274.87	6.19
288.15	1263.08	6.19
293.15	1251.57	6.19
298.15	1240.16	6.19
303.15	1228.89	6.19
308.15	1217.78	6.19
313.15	1206.81	6.19
318.15	1195.97	6.19
323.15	1185.25	6.19
328.15	1174.66	6.19
333.15	1164.18	6.19
338.15	1153.8	6.19
343.15	1143.54	6.19

System: 1-allyl-3-methyl-1H-imidazolium bis((trifluoromethyl)sulfonyl)amide; phases: Liquid
Fixed: Pressure, kPa = 100
Property: Viscosity, Pa*s (Liquid); method: Capillary tube (Ostwald; Ubbelohde) method
Temperature, K	Viscosity, Pa*s	uncertainty
293.15	0.041829	0.003365
303.15	0.028511	0.002294
308.15	0.023965	0.001928
313.15	0.020411	0.001642
318.15	0.017513	0.001409
323.15	0.015188	0.001222
328.15	0.013231	0.001065
333.15	0.011621	0.000935
338.15	0.010276	0.000827
343.15	0.009125	0.000734

System: 1,3-dihydroxyimidazolium bis(trifluoromethylsulfonyl)imide; phases: Liquid
Fixed: Pressure, kPa = 100
Property: Mass density, kg/m3 (Liquid); method: Vibrating tube method
Temperature, K	Mass density, kg/m3	uncertainty
293.15	1746.4	4.32
298.15	1740.44	4.3
303.15	1734.52	4.28
308.15	1728.64	4.26
313.15	1722.79	4.24
318.15	1716.97	4.22
323.15	1711.19	4.2
328.15	1705.44	4.18
333.15	1699.71	4.16
338.15	1694.01	4.15
343.15	1688.34	4.13

System: 1,3-dihydroxyimidazolium bis(trifluoromethylsulfonyl)imide; phases: Liquid
Fixed: Pressure, kPa = 100
Fixed: Frequency, MHz = 3
Property: Speed of sound, m/s (Liquid); method: Single path-length method
Temperature, K	Speed of sound, m/s	uncertainty
293.15	1208.24	6.33
298.15	1196.6	6.33
303.15	1185.22	6.33
308.15	1174.06	6.33
313.15	1163.08	6.33
318.15	1152.27	6.33
323.15	1141.6	6.33
328.15	1131.08	6.33
333.15	1120.68	6.33
338.15	1110.41	6.33
343.15	1100.25	6.33

System: 1,3-dihydroxyimidazolium bis(trifluoromethylsulfonyl)imide; phases: Liquid
Fixed: Pressure, kPa = 100
Property: Viscosity, Pa*s (Liquid); method: Capillary tube (Ostwald; Ubbelohde) method
Temperature, K	Viscosity, Pa*s	uncertainty
293.15	0.238601	0.020086
298.15	0.171825	0.014241
303.15	0.127521	0.010449
308.15	0.096923	0.007879
313.15	0.075563	0.006112
318.15	0.059804	0.004825
323.15	0.048287	0.003897
328.15	0.039567	0.003194
333.15	0.03288	0.002654
338.15	0.027691	0.002235
343.15	0.023593	0.001904

System: propan-1-ol; phases: Liquid
Fixed: Pressure, kPa = 100
Property: Mass density, kg/m3 (Liquid); method: Vibrating tube method
Temperature, K	Mass density, kg/m3	uncertainty
278.15	815.52	1.63
283.15	811.6	1.63
288.15	807.63	1.62
293.15	803.65	1.61
298.15	799.65	1.6
303.15	795.61	1.59
308.15	791.54	1.59
313.15	787.43	1.58
318.15	783.27	1.57
323.15	779.05	1.56
328.15	774.79	1.55
333.15	770.44	1.55
338.15	766.03	1.54
343.15	761.53	1.53

System: propan-1-ol; phases: Liquid
Fixed: Pressure, kPa = 100
Fixed: Frequency, MHz = 3
Property: Speed of sound, m/s (Liquid); method: Single path-length method
Temperature, K	Speed of sound, m/s	uncertainty
278.15	1276.04	6
283.15	1258.68	6
288.15	1241.11	6
293.15	1223.77	6
298.15	1206.53	6
303.15	1189.42	6
308.15	1172.44	6
313.15	1155.55	6
318.15	1138.72	6
323.15	1121.93	6
328.15	1105.15	6
333.15	1088.32	6
338.15	1071.45	6
343.15	1054.53	6

System: propan-1-ol; phases: Liquid
Fixed: Pressure, kPa = 100
Property: Viscosity, Pa*s (Liquid); method: Capillary tube (Ostwald; Ubbelohde) method
Temperature, K	Viscosity, Pa*s	uncertainty
293.15	0.00214	0.000172
298.15	0.001897	0.000152
303.15	0.001688	0.000135
308.15	0.001506	0.000121
313.15	0.001348	0.000108
318.15	0.001211	9.7e-05
323.15	0.00109	8.7e-05
328.15	0.000985	7.9e-05
333.15	0.000892	7.2e-05
338.15	0.00081	6.5e-05
343.15	0.000737	5.9e-05

System: triethylsulfonium bis((trifluoromethyl)sulfonyl)imide + propan-1-ol; phases: Liquid
Fixed: Pressure, kPa = 100
Property: Mass density, kg/m3 (Liquid); method: Vibrating tube method
Temperature, K	Mole fraction of triethylsulfonium bis((trifluoromethyl)sulfonyl)imide	Mass density, kg/m3	uncertainty
293.15	0	804	2
293.15	0.04926	910	2
293.15	0.1003	996	2
293.15	0.19931	1120	2
293.15	0.30084	1209	3
293.15	0.39912	1273	3
298.15	0	800	2
298.15	0.04926	906	2
298.15	0.1003	992	2
298.15	0.19931	1115	2
298.15	0.30084	1204	2
298.15	0.39912	1268	3
303.15	0	796	2
303.15	0.04926	901	2
303.15	0.1003	987	2
303.15	0.19931	1111	2
303.15	0.30084	1199	2
303.15	0.39912	1263	3
308.15	0	792	2
308.15	0.04926	897	2
308.15	0.1003	983	2
308.15	0.19931	1106	2
308.15	0.30084	1194	2
308.15	0.39912	1258	3
293.15	0.5023	1324	3
293.15	0.59868	1363	3
293.15	0.69872	1395	3
293.15	0.79473	1421	3
293.15	0.90298	1446	3
293.15	1	1465	3
298.15	0.5023	1319	3
298.15	0.59868	1358	3
298.15	0.69872	1390	3
298.15	0.79473	1416	3
298.15	0.90298	1441	3
298.15	1	1460	3
303.15	0.5023	1314	3
303.15	0.59868	1353	3
303.15	0.69872	1386	3
303.15	0.79473	1411	3
303.15	0.90298	1436	3
303.15	1	1455	3
308.15	0.5023	1310	3
308.15	0.59868	1348	3
308.15	0.69872	1381	3
308.15	0.79473	1407	3
308.15	0.90298	1431	3
308.15	1	1450	3
313.15	0	787	2
313.15	0.04926	893	2
313.15	0.1003	978	2
313.15	0.19931	1101	2
313.15	0.30084	1190	2
313.15	0.39912	1253	3
318.15	0	783	2
318.15	0.04926	888	2
318.15	0.1003	974	2
318.15	0.19931	1097	2
318.15	0.30084	1185	2
318.15	0.39912	1249	3
323.15	0	779	2
323.15	0.04926	884	2
323.15	0.1003	969	2
323.15	0.19931	1092	2
323.15	0.30084	1180	2
323.15	0.39912	1244	3
328.15	0	775	2
328.15	0.04926	879	2
328.15	0.1003	965	2
328.15	0.19931	1087	2
328.15	0.30084	1175	2
328.15	0.39912	1239	3
313.15	0.5023	1305	3
313.15	0.59868	1343	3
313.15	0.69872	1376	3
313.15	0.79473	1402	3
313.15	0.90298	1426	3
313.15	1	1446	3
318.15	0.5023	1300	3
318.15	0.59868	1338	3
318.15	0.69872	1371	3
318.15	0.79473	1397	3
318.15	0.90298	1422	3
318.15	1	1441	3
323.15	0.5023	1295	3
323.15	0.59868	1334	3
323.15	0.69872	1366	3
323.15	0.79473	1392	3
323.15	0.90298	1417	3
323.15	1	1436	3
328.15	0.5023	1290	3
328.15	0.59868	1329	3
328.15	0.69872	1362	3
328.15	0.79473	1388	3
328.15	0.90298	1412	3
328.15	1	1431	3
333.15	0	770	2
333.15	0.04926	875	2
333.15	0.1003	960	2
333.15	0.19931	1082	2
333.15	0.30084	1170	2
333.15	0.39912	1234	3
338.15	0	766	2
338.15	0.04926	870	2
338.15	0.1003	955	2
338.15	0.19931	1078	2
338.15	0.30084	1166	2
338.15	0.39912	1229	3
343.15	0	762	2
343.15	0.04926	866	2
343.15	0.1003	951	2
343.15	0.19931	1073	2
343.15	0.30084	1161	2
343.15	0.39912	1224	3
333.15	0.5023	1285	3
333.15	0.59868	1324	3
333.15	0.69872	1357	3
333.15	0.79473	1383	3
333.15	0.90298	1407	3
333.15	1	1427	3
338.15	0.5023	1281	3
338.15	0.59868	1319	3
338.15	0.69872	1352	3
338.15	0.79473	1378	3
338.15	0.90298	1403	3
338.15	1	1422	3
343.15	0.5023	1276	3
343.15	0.59868	1315	3
343.15	0.69872	1347	3
343.15	0.79473	1373	3
343.15	0.90298	1398	3
343.15	1	1417	3

System: triethylsulfonium bis((trifluoromethyl)sulfonyl)imide + propan-1-ol; phases: Liquid
Fixed: Pressure, kPa = 100
Property: Viscosity, Pa*s (Liquid); method: Capillary tube (Ostwald; Ubbelohde) method
Temperature, K	Mole fraction of triethylsulfonium bis((trifluoromethyl)sulfonyl)imide	Viscosity, Pa*s	uncertainty
293.15	0	0.00214	0.000172
293.15	0.04926	0.002874	0.000231
293.15	0.1003	0.004059	0.000326
293.15	0.19931	0.005998	0.000481
293.15	0.30084	0.007862	0.00063
293.15	0.39912	0.010677	0.000856
298.15	0	0.001897	0.000152
298.15	0.04926	0.002515	0.000202
298.15	0.1003	0.003438	0.000276
298.15	0.19931	0.005082	0.000407
298.15	0.30084	0.006704	0.000537
298.15	0.39912	0.009087	0.000728
303.15	0	0.001688	0.000135
303.15	0.04926	0.002216	0.000178
303.15	0.1003	0.002978	0.000239
303.15	0.19931	0.004379	0.000351
303.15	0.30084	0.00578	0.000463
303.15	0.39912	0.007814	0.000626
308.15	0	0.001506	0.000121
308.15	0.04926	0.001962	0.000157
308.15	0.1003	0.002609	0.000209
308.15	0.19931	0.003816	0.000306
308.15	0.30084	0.005034	0.000404
308.15	0.39912	0.006787	0.000544
293.15	0.5023	0.012276	0.000984
293.15	0.59868	0.01593	0.001277
293.15	0.69872	0.019924	0.001598
293.15	0.79473	0.024949	0.002001
293.15	0.90298	0.031638	0.002538
293.15	1	0.039641	0.003181
298.15	0.5023	0.010446	0.000838
298.15	0.59868	0.013493	0.001082
298.15	0.69872	0.016788	0.001346
298.15	0.79473	0.020875	0.001674
298.15	0.90298	0.026248	0.002106
298.15	1	0.032434	0.002603
303.15	0.5023	0.008985	0.00072
303.15	0.59868	0.011561	0.000927
303.15	0.69872	0.014328	0.001149
303.15	0.79473	0.017707	0.00142
303.15	0.90298	0.022096	0.001773
303.15	1	0.02692	0.00216
308.15	0.5023	0.007806	0.000626
308.15	0.59868	0.010011	0.000803
308.15	0.69872	0.01235	0.00099
308.15	0.79473	0.015186	0.001218
308.15	0.90298	0.018808	0.001509
308.15	1	0.022644	0.001817
313.15	0	0.001348	0.000108
313.15	0.04926	0.001747	0.00014
313.15	0.1003	0.002304	0.000185
313.15	0.19931	0.003354	0.000269
313.15	0.30084	0.004421	0.000355
313.15	0.39912	0.005945	0.000477
318.15	0	0.001211	9.7e-05
318.15	0.04926	0.001563	0.000125
318.15	0.1003	0.002049	0.000164
318.15	0.19931	0.002972	0.000238
318.15	0.30084	0.003913	0.000314
318.15	0.39912	0.00525	0.000421
323.15	0	0.00109	8.7e-05
323.15	0.04926	0.001404	0.000113
323.15	0.1003	0.001833	0.000147
323.15	0.19931	0.002651	0.000213
323.15	0.30084	0.003234	0.000259
323.15	0.39912	0.00467	0.000375
328.15	0	0.000985	7.9e-05
328.15	0.04926	0.001268	0.000102
328.15	0.1003	0.001648	0.000132
328.15	0.19931	0.00238	0.000191
328.15	0.30084	0.00313	0.000251
328.15	0.39912	0.004187	0.000336
313.15	0.5023	0.006842	0.000549
313.15	0.59868	0.008742	0.000701
313.15	0.69872	0.010753	0.000862
313.15	0.79473	0.01315	0.001055
313.15	0.90298	0.016184	0.001299
313.15	1	0.019242	0.001544
318.15	0.5023	0.006044	0.000485
318.15	0.59868	0.007698	0.000617
318.15	0.69872	0.009441	0.000757
318.15	0.79473	0.01149	0.000922
318.15	0.90298	0.014056	0.001128
318.15	1	0.016527	0.001326
323.15	0.5023	0.005379	0.000431
323.15	0.59868	0.006831	0.000548
323.15	0.69872	0.008347	0.00067
323.15	0.79473	0.010124	0.000812
323.15	0.90298	0.012308	0.000988
323.15	1	0.014311	0.001149
328.15	0.5023	0.004822	0.000387
328.15	0.59868	0.006099	0.000489
328.15	0.69872	0.007438	0.000597
328.15	0.79473	0.008976	0.00072
328.15	0.90298	0.010859	0.000871
328.15	1	0.012504	0.001004
333.15	0	0.000892	7.2e-05
333.15	0.04926	0.001149	9.2e-05
333.15	0.1003	0.001489	0.000119
333.15	0.19931	0.002148	0.000172
333.15	0.30084	0.002825	0.000227
333.15	0.39912	0.003775	0.000303
338.15	0	0.00081	6.5e-05
338.15	0.04926	0.001044	8.4e-05
338.15	0.1003	0.001352	0.000108
338.15	0.19931	0.00195	0.000156
338.15	0.30084	0.002563	0.000206
338.15	0.39912	0.003422	0.000274
343.15	0	0.000737	5.9e-05
343.15	0.04926	0.000953	7.6e-05
343.15	0.1003	0.001232	9.9e-05
343.15	0.19931	0.001778	0.000143
343.15	0.30084	0.002339	0.000188
343.15	0.39912	0.003123	0.00025
333.15	0.5023	0.004346	0.000349
333.15	0.59868	0.005483	0.00044
333.15	0.69872	0.006667	0.000535
333.15	0.79473	0.008024	0.000644
333.15	0.90298	0.009653	0.000775
333.15	1	0.010995	0.000883
338.15	0.5023	0.003941	0.000316
338.15	0.59868	0.004956	0.000398
338.15	0.69872	0.006007	0.000482
338.15	0.79473	0.007206	0.000578
338.15	0.90298	0.008628	0.000692
338.15	1	0.009726	0.000781
343.15	0.5023	0.003594	0.000288
343.15	0.59868	0.004507	0.000362
343.15	0.69872	0.005444	0.000437
343.15	0.79473	0.006506	0.000522
343.15	0.90298	0.007766	0.000623
343.15	1	0.008659	0.000695

System: triethylsulfonium bis((trifluoromethyl)sulfonyl)imide + propan-1-ol; phases: Liquid
Fixed: Pressure, kPa = 100
Fixed: Frequency, MHz = 3
Property: Speed of sound, m/s (Liquid); method: Single path-length method
Temperature, K	Mole fraction of triethylsulfonium bis((trifluoromethyl)sulfonyl)imide	Speed of sound, m/s	uncertainty
293.15	0	1223.77	6
293.15	0.04926	1205.46	6.01
293.15	0.1003	1194.27	6.01
293.15	0.19931	1194.96	6.01
298.15	0	1206.53	6
298.15	0.04926	1190.26	6.01
298.15	0.1003	1179.87	6.01
298.15	0.19931	1181.79	6.01
303.15	0	1189.42	6
303.15	0.04926	1174.82	6.01
303.15	0.1003	1165.56	6.01
303.15	0.19931	1168.7	6.01
308.15	0	1172.44	6
308.15	0.04926	1159.46	6.01
308.15	0.1003	1151.35	6.01
308.15	0.19931	1155.7	6.01
313.15	0	1155.55	6
313.15	0.04926	1144.19	6.01
313.15	0.1003	1137.2	6.01
313.15	0.19931	1142.76	6.01
318.15	0	1138.72	6
318.15	0.04926	1128.96	6.01
318.15	0.1003	1123.13	6.01
318.15	0.19931	1129.88	6.01
293.15	0.30084	1203.08	6.02
293.15	0.39912	1212.32	6.02
293.15	0.5023	1222.15	6.03
293.15	0.59868	1228.49	6.04
298.15	0.30084	1190.54	6.02
298.15	0.39912	1200.2	6.02
298.15	0.5023	1210.35	6.03
298.15	0.59868	1216.95	6.04
303.15	0.30084	1178.1	6.02
303.15	0.39912	1188.18	6.02
303.15	0.5023	1198.67	6.03
303.15	0.59868	1205.51	6.04
308.15	0.30084	1165.76	6.02
308.15	0.39912	1176.28	6.02
308.15	0.5023	1187.09	6.03
308.15	0.59868	1194.2	6.04
313.15	0.30084	1153.5	6.02
313.15	0.39912	1164.46	6.02
313.15	0.5023	1175.61	6.03
313.15	0.59868	1182.99	6.04
318.15	0.30084	1141.32	6.02
318.15	0.39912	1152.73	6.02
318.15	0.5023	1164.21	6.03
318.15	0.59868	1171.87	6.04
293.15	0.69872	1235.19	6.05
293.15	0.79473	1240.6	6.06
293.15	0.90298	1245.84	6.07
293.15	1	1252.87	6.08
298.15	0.69872	1223.83	6.05
298.15	0.79473	1229.4	6.06
298.15	0.90298	1234.8	6.07
298.15	1	1242.52	6.08
303.15	0.69872	1212.59	6.05
303.15	0.79473	1218.34	6.06
303.15	0.90298	1223.88	6.07
303.15	1	1232.37	6.08
308.15	0.69872	1201.48	6.05
308.15	0.79473	1207.39	6.06
308.15	0.90298	1213.11	6.07
308.15	1	1222.43	6.08
313.15	0.69872	1190.48	6.05
313.15	0.79473	1196.57	6.06
313.15	0.90298	1202.45	6.07
313.15	1	1212.67	6.08
318.15	0.69872	1179.58	6.05
318.15	0.79473	1185.85	6.06
318.15	0.90298	1191.91	6.07
318.15	1	1203.09	6.08
323.15	0	1121.93	6
323.15	0.04926	1113.77	6.01
323.15	0.1003	1109.08	6.01
323.15	0.19931	1117.07	6.01
328.15	0	1105.15	6
328.15	0.04926	1098.59	6.01
328.15	0.1003	1095.07	6.01
328.15	0.19931	1104.28	6.01
333.15	0	1088.32	6
333.15	0.04926	1083.39	6.01
333.15	0.1003	1081.09	6.01
333.15	0.19931	1091.52	6.01
338.15	0	1071.45	6
338.15	0.04926	1068.18	6.01
338.15	0.1003	1067.13	6.01
338.15	0.19931	1078.72	6.01
343.15	0	1054.53	6
343.15	0.04926	1052.94	6.01
343.15	0.1003	1053.34	6.01
343.15	0.19931	1066.24	6.01
323.15	0.30084	1129.21	6.02
323.15	0.39912	1141.09	6.02
323.15	0.5023	1152.88	6.03
323.15	0.59868	1160.85	6.04
328.15	0.30084	1117.17	6.02
328.15	0.39912	1129.53	6.02
328.15	0.5023	1141.64	6.03
328.15	0.59868	1149.92	6.04
333.15	0.30084	1105.19	6.02
333.15	0.39912	1118.05	6.02
333.15	0.5023	1130.45	6.03
333.15	0.59868	1139.1	6.04
338.15	0.30084	1093.28	6.02
338.15	0.39912	1106.56	6.02
338.15	0.5023	1119.34	6.03
338.15	0.59868	1128.29	6.04
343.15	0.30084	1081.54	6.02
343.15	0.39912	1095.44	6.02
343.15	0.5023	1108.31	6.03
343.15	0.59868	1117.85	6.04
323.15	0.69872	1168.78	6.05
323.15	0.79473	1175.24	6.06
323.15	0.90298	1181.48	6.07
323.15	1	1193.73	6.08
328.15	0.69872	1158.09	6.05
328.15	0.79473	1164.73	6.06
328.15	0.90298	1171.16	6.07
328.15	1	1184.65	6.08
333.15	0.69872	1147.5	6.05
333.15	0.79473	1154.33	6.06
333.15	0.90298	1160.96	6.07
333.15	1	1175.94	6.08
338.15	0.69872	1137.04	6.05
338.15	0.79473	1143.96	6.06
338.15	0.90298	1150.8	6.07
338.15	1	1166.82	6.08
343.15	0.69872	1126.79	6.05
343.15	0.79473	1133.96	6.06
343.15	0.90298	1141	6.07
343.15	1	1157.57	6.08

System: 1-allyl-3-methyl-1H-imidazolium bis((trifluoromethyl)sulfonyl)amide + propan-1-ol; phases: Liquid
Fixed: Pressure, kPa = 100
Property: Mass density, kg/m3 (Liquid); method: Vibrating tube method
Temperature, K	Mole fraction of 1-allyl-3-methyl-1H-imidazolium bis((trifluoromethyl)sulfonyl)amide	Mass density, kg/m3	uncertainty
293.15	0	804	2
293.15	0.04962	915	2
293.15	0.10027	1005	2
293.15	0.19952	1136	2
293.15	0.29866	1228	3
293.15	0.39895	1297	3
303.15	0	796	2
303.15	0.04962	906	2
303.15	0.10027	996	2
303.15	0.19952	1126	2
303.15	0.29866	1219	3
303.15	0.39895	1287	3
308.15	0	792	2
308.15	0.04962	902	2
308.15	0.10027	991	2
308.15	0.19952	1121	2
308.15	0.29866	1214	3
308.15	0.39895	1282	3
313.15	0	787	2
313.15	0.04962	898	2
313.15	0.10027	987	2
313.15	0.19952	1117	2
313.15	0.29866	1209	3
313.15	0.39895	1277	3
293.15	0.50035	1352	3
293.15	0.60065	1394	3
293.15	0.6971	1428	3
293.15	0.80242	1459	3
293.15	0.89736	1483	3
293.15	1	1505	3
303.15	0.50035	1341	3
303.15	0.60065	1384	3
303.15	0.6971	1418	3
303.15	0.80242	1449	3
303.15	0.89736	1472	3
303.15	1	1495	3
308.15	0.50035	1336	3
308.15	0.60065	1379	3
308.15	0.6971	1413	3
308.15	0.80242	1444	3
308.15	0.89736	1467	3
308.15	1	1489	3
313.15	0.50035	1331	3
313.15	0.60065	1374	3
313.15	0.6971	1408	3
313.15	0.80242	1439	3
313.15	0.89736	1462	3
313.15	1	1484	3
318.15	0	783	2
318.15	0.04962	893	2
318.15	0.10027	982	2
318.15	0.19952	1112	2
318.15	0.29866	1204	2
318.15	0.39895	1272	3
323.15	0	779	2
323.15	0.04962	889	2
323.15	0.10027	977	2
323.15	0.19952	1107	2
323.15	0.29866	1199	2
323.15	0.39895	1268	3
328.15	0	775	2
328.15	0.04962	884	2
328.15	0.10027	973	2
328.15	0.19952	1102	2
328.15	0.29866	1194	2
328.15	0.39895	1263	3
333.15	0	770	2
333.15	0.04962	880	2
333.15	0.10027	968	2
333.15	0.19952	1097	2
333.15	0.29866	1189	2
333.15	0.39895	1258	3
318.15	0.50035	1326	3
318.15	0.60065	1369	3
318.15	0.6971	1403	3
318.15	0.80242	1434	3
318.15	0.89736	1457	3
318.15	1	1479	3
323.15	0.50035	1321	3
323.15	0.60065	1364	3
323.15	0.6971	1398	3
323.15	0.80242	1429	3
323.15	0.89736	1452	3
323.15	1	1474	3
328.15	0.50035	1316	3
328.15	0.60065	1359	3
328.15	0.6971	1393	3
328.15	0.80242	1424	3
328.15	0.89736	1447	3
328.15	1	1469	3
333.15	0.50035	1312	3
333.15	0.60065	1354	3
333.15	0.6971	1388	3
333.15	0.80242	1419	3
333.15	0.89736	1442	3
333.15	1	1465	3
338.15	0	766	2
338.15	0.04962	875	2
338.15	0.10027	963	2
338.15	0.19952	1092	2
338.15	0.29866	1184	2
338.15	0.39895	1253	3
343.15	0	762	2
343.15	0.04962	870	2
343.15	0.10027	958	2
343.15	0.19952	1088	2
343.15	0.29866	1179	2
343.15	0.39895	1248	3
338.15	0.50035	1307	3
338.15	0.60065	1349	3
338.15	0.6971	1383	3
338.15	0.80242	1414	3
338.15	0.89736	1437	3
338.15	1	1460	3
343.15	0.50035	1302	3
343.15	0.60065	1345	3
343.15	0.6971	1378	3
343.15	0.80242	1409	3
343.15	0.89736	1433	3
343.15	1	1455	3

System: 1-allyl-3-methyl-1H-imidazolium bis((trifluoromethyl)sulfonyl)amide + propan-1-ol; phases: Liquid
Fixed: Pressure, kPa = 100
Property: Viscosity, Pa*s (Liquid); method: Capillary tube (Ostwald; Ubbelohde) method
Temperature, K	Mole fraction of 1-allyl-3-methyl-1H-imidazolium bis((trifluoromethyl)sulfonyl)amide	Viscosity, Pa*s	uncertainty
293.15	0	0.00214	0.000172
293.15	0.04962	0.002854	0.000229
293.15	0.10027	0.003841	0.000308
293.15	0.19952	0.005727	0.000459
293.15	0.29866	0.00759	0.000609
293.15	0.39895	0.00985	0.00079
303.15	0	0.001688	0.000135
303.15	0.04962	0.002215	0.000178
303.15	0.10027	0.002899	0.000233
303.15	0.19952	0.004266	0.000342
303.15	0.29866	0.005633	0.000452
303.15	0.39895	0.007268	0.000583
308.15	0	0.001506	0.000121
308.15	0.04962	0.001969	0.000158
308.15	0.10027	0.002555	0.000205
308.15	0.19952	0.00374	0.0003
308.15	0.29866	0.004928	0.000395
308.15	0.39895	0.006339	0.000509
313.15	0	0.001348	0.000108
313.15	0.04962	0.001759	0.000141
313.15	0.10027	0.002266	0.000182
313.15	0.19952	0.003302	0.000265
313.15	0.29866	0.004344	0.000348
313.15	0.39895	0.005574	0.000447
293.15	0.50035	0.01217	0.000976
293.15	0.60065	0.015659	0.001257
293.15	0.6971	0.019103	0.001534
293.15	0.80242	0.024101	0.001936
293.15	0.89736	0.030621	0.002462
293.15	1	0.041829	0.003365
303.15	0.50035	0.00894	0.000717
303.15	0.60065	0.011424	0.000917
303.15	0.6971	0.013816	0.001109
303.15	0.80242	0.017214	0.001383
303.15	0.89736	0.021533	0.001731
303.15	1	0.028511	0.002294
308.15	0.50035	0.007782	0.000624
308.15	0.60065	0.009908	0.000795
308.15	0.6971	0.011945	0.000959
308.15	0.80242	0.014802	0.001189
308.15	0.89736	0.018376	0.001477
308.15	1	0.023965	0.001928
313.15	0.50035	0.006833	0.000548
313.15	0.60065	0.008677	0.000697
313.15	0.6971	0.010422	0.000837
313.15	0.80242	0.012851	0.001033
313.15	0.89736	0.015851	0.001274
313.15	1	0.020411	0.001642
318.15	0	0.001211	9.7e-05
318.15	0.04962	0.001577	0.000127
318.15	0.10027	0.002021	0.000162
318.15	0.19952	0.002938	0.000236
318.15	0.29866	0.003858	0.000309
318.15	0.39895	0.004937	0.000396
323.15	0	0.00109	8.7e-05
323.15	0.04962	0.001421	0.000114
323.15	0.10027	0.001813	0.000145
323.15	0.19952	0.002632	0.000211
323.15	0.29866	0.003453	0.000277
323.15	0.39895	0.004402	0.000353
328.15	0	0.000985	7.9e-05
328.15	0.04962	0.001284	0.000103
328.15	0.10027	0.001635	0.000131
328.15	0.19952	0.00237	0.00019
328.15	0.29866	0.003106	0.000249
328.15	0.39895	0.003956	0.000317
333.15	0	0.000892	7.2e-05
333.15	0.04962	0.001166	9.4e-05
333.15	0.10027	0.00148	0.000119
333.15	0.19952	0.002146	0.000172
333.15	0.29866	0.002812	0.000226
333.15	0.39895	0.003573	0.000287
318.15	0.50035	0.006043	0.000485
318.15	0.60065	0.007657	0.000615
318.15	0.6971	0.009174	0.000737
318.15	0.80242	0.011261	0.000905
318.15	0.89736	0.013809	0.00111
318.15	1	0.017513	0.001409
323.15	0.50035	0.005384	0.000432
323.15	0.60065	0.006806	0.000546
323.15	0.6971	0.008132	0.000653
323.15	0.80242	0.009945	0.000799
323.15	0.89736	0.012122	0.000975
323.15	1	0.015188	0.001222
328.15	0.50035	0.00483	0.000388
328.15	0.60065	0.00609	0.000489
328.15	0.6971	0.007262	0.000583
328.15	0.80242	0.008834	0.00071
328.15	0.89736	0.010731	0.000863
328.15	1	0.013231	0.001065
333.15	0.50035	0.00436	0.00035
333.15	0.60065	0.005485	0.00044
333.15	0.6971	0.006518	0.000524
333.15	0.80242	0.007905	0.000635
333.15	0.89736	0.009475	0.000762
333.15	1	0.011621	0.000935
338.15	0	0.00081	6.5e-05
338.15	0.04962	0.001061	8.5e-05
338.15	0.10027	0.001347	0.000108
338.15	0.19952	0.001953	0.000157
338.15	0.29866	0.002558	0.000205
338.15	0.39895	0.003252	0.000261
343.15	0	0.000737	5.9e-05
343.15	0.04962	0.000971	7.8e-05
343.15	0.10027	0.00123	9.9e-05
343.15	0.19952	0.001786	0.000143
343.15	0.29866	0.002342	0.000188
343.15	0.39895	0.002974	0.000239
338.15	0.50035	0.003957	0.000318
338.15	0.60065	0.004964	0.000399
338.15	0.6971	0.005889	0.000473
338.15	0.80242	0.007111	0.000572
338.15	0.89736	0.008498	0.000683
338.15	1	0.010276	0.000827
343.15	0.50035	0.003611	0.00029
343.15	0.60065	0.004521	0.000363
343.15	0.6971	0.005348	0.00043
343.15	0.80242	0.006435	0.000517
343.15	0.89736	0.007661	0.000616
343.15	1	0.009125	0.000734

System: 1-allyl-3-methyl-1H-imidazolium bis((trifluoromethyl)sulfonyl)amide + propan-1-ol; phases: Liquid
Fixed: Pressure, kPa = 100
Fixed: Frequency, MHz = 3
Property: Speed of sound, m/s (Liquid); method: Single path-length method
Temperature, K	Mole fraction of 1-allyl-3-methyl-1H-imidazolium bis((trifluoromethyl)sulfonyl)amide	Speed of sound, m/s	uncertainty
293.15	0	1223.77	6
293.15	0.04962	1204.67	6.01
293.15	0.10027	1193.5	6.01
293.15	0.19952	1193.5	6.02
298.15	0	1206.53	6
298.15	0.04962	1189.43	6.01
298.15	0.10027	1179	6.01
298.15	0.19952	1180.2	6.02
303.15	0	1189.42	6
303.15	0.04962	1174.02	6.01
303.15	0.10027	1164.63	6.01
303.15	0.19952	1167	6.02
308.15	0	1172.44	6
308.15	0.04962	1158.67	6.01
308.15	0.10027	1150.36	6.01
308.15	0.19952	1153.91	6.02
313.15	0	1155.55	6
313.15	0.04962	1143.41	6.01
313.15	0.10027	1136.18	6.01
313.15	0.19952	1140.9	6.02
318.15	0	1138.72	6
318.15	0.04962	1128.2	6.01
318.15	0.10027	1122.06	6.01
318.15	0.19952	1127.95	6.02
293.15	0.29866	1202.2	6.03
293.15	0.39895	1210.6	6.04
293.15	0.50035	1221	6.06
293.15	0.60065	1227.51	6.08
298.15	0.29866	1189.47	6.03
298.15	0.39895	1198.26	6.04
298.15	0.50035	1208.93	6.06
298.15	0.60065	1215.63	6.08
303.15	0.29866	1176.86	6.03
303.15	0.39895	1186.04	6.04
303.15	0.50035	1196.99	6.06
303.15	0.60065	1203.87	6.08
308.15	0.29866	1164.39	6.03
308.15	0.39895	1173.95	6.04
308.15	0.50035	1185.17	6.06
308.15	0.60065	1192.26	6.08
313.15	0.29866	1152.02	6.03
313.15	0.39895	1161.97	6.04
313.15	0.50035	1173.45	6.06
313.15	0.60065	1180.81	6.08
318.15	0.29866	1139.7	6.03
318.15	0.39895	1150.07	6.04
318.15	0.50035	1161.83	6.06
318.15	0.60065	1169.44	6.08
293.15	0.6971	1234.68	6.1
293.15	0.80242	1241.88	6.13
293.15	0.89736	1246.5	6.15
293.15	1	1251.57	6.19
298.15	0.6971	1222.94	6.1
298.15	0.80242	1230.26	6.13
298.15	0.89736	1234.98	6.15
298.15	1	1240.16	6.19
303.15	0.6971	1211.35	6.1
303.15	0.80242	1218.79	6.13
303.15	0.89736	1223.61	6.15
303.15	1	1228.89	6.19
308.15	0.6971	1199.9	6.1
308.15	0.80242	1207.47	6.13
308.15	0.89736	1212.4	6.15
308.15	1	1217.78	6.19
313.15	0.6971	1188.57	6.1
313.15	0.80242	1196.29	6.13
313.15	0.89736	1201.33	6.15
313.15	1	1206.81	6.19
318.15	0.6971	1177.37	6.1
318.15	0.80242	1185.23	6.13
318.15	0.89736	1190.4	6.15
318.15	1	1195.97	6.19
323.15	0	1121.93	6
323.15	0.04962	1113.03	6.01
323.15	0.10027	1107.99	6.01
323.15	0.19952	1115.07	6.02
328.15	0	1105.15	6
328.15	0.04962	1097.87	6.01
328.15	0.10027	1093.95	6.01
328.15	0.19952	1102.25	6.02
333.15	0	1088.32	6
333.15	0.04962	1082.69	6.01
333.15	0.10027	1079.95	6.01
333.15	0.19952	1089.47	6.02
338.15	0	1071.45	6
338.15	0.04962	1067.53	6.01
338.15	0.10027	1065.94	6.01
338.15	0.19952	1076.72	6.02
343.15	0	1054.53	6
343.15	0.04962	1052.35	6.01
343.15	0.10027	1052.15	6.01
343.15	0.19952	1064.18	6.02
323.15	0.29866	1127.45	6.03
323.15	0.39895	1138.28	6.04
323.15	0.50035	1150.31	6.06
323.15	0.60065	1158.17	6.08
328.15	0.29866	1115.26	6.03
328.15	0.39895	1126.56	6.04
328.15	0.50035	1138.85	6.06
328.15	0.60065	1146.98	6.08
333.15	0.29866	1103.11	6.03
333.15	0.39895	1114.94	6.04
333.15	0.50035	1127.49	6.06
333.15	0.60065	1135.9	6.08
338.15	0.29866	1090.99	6.03
338.15	0.39895	1103.38	6.04
338.15	0.50035	1116.23	6.06
338.15	0.60065	1124.91	6.08
343.15	0.29866	1078.93	6.03
343.15	0.39895	1092.07	6.04
343.15	0.50035	1105.02	6.06
343.15	0.60065	1113.99	6.08
323.15	0.6971	1166.29	6.1
323.15	0.80242	1174.29	6.13
323.15	0.89736	1179.59	6.15
323.15	1	1185.25	6.19
328.15	0.6971	1155.32	6.1
328.15	0.80242	1163.48	6.13
328.15	0.89736	1168.91	6.15
328.15	1	1174.66	6.19
333.15	0.6971	1144.48	6.1
333.15	0.80242	1152.79	6.13
333.15	0.89736	1158.36	6.15
333.15	1	1164.18	6.19
338.15	0.6971	1133.77	6.1
338.15	0.80242	1142.24	6.13
338.15	0.89736	1147.9	6.15
338.15	1	1153.8	6.19
343.15	0.6971	1123.28	6.1
343.15	0.80242	1131.91	6.13
343.15	0.89736	1137.76	6.15
343.15	1	1143.54	6.19

System: 1,3-dihydroxyimidazolium bis(trifluoromethylsulfonyl)imide + propan-1-ol; phases: Liquid
Fixed: Pressure, kPa = 100
Property: Mass density, kg/m3 (Liquid); method: Vibrating tube method
Temperature, K	Mole fraction of 1,3-dihydroxyimidazolium bis(trifluoromethylsulfonyl)imide	Mass density, kg/m3	uncertainty
293.15	0	804	2
293.15	0.0999	1039	2
293.15	0.19941	1207	3
293.15	0.29934	1333	3
293.15	0.39925	1430	3
293.15	0.49846	1510	3
298.15	0	800	2
298.15	0.0999	1034	2
298.15	0.19941	1202	3
298.15	0.29934	1328	3
298.15	0.39925	1425	3
298.15	0.49846	1505	3
303.15	0	796	2
303.15	0.0999	1030	2
303.15	0.19941	1197	3
303.15	0.29934	1323	3
303.15	0.39925	1419	3
303.15	0.49846	1499	3
308.15	0	792	2
308.15	0.0999	1025	2
308.15	0.19941	1192	3
308.15	0.29934	1318	3
308.15	0.39925	1414	3
308.15	0.49846	1494	3
293.15	0.59991	1576	3
293.15	0.69895	1631	4
293.15	0.79958	1680	4
293.15	0.89727	1719	4
293.15	1	1746	4
298.15	0.59991	1570	3
298.15	0.69895	1625	4
298.15	0.79958	1674	4
298.15	0.89727	1713	4
298.15	1	1740	4
303.15	0.59991	1564	3
303.15	0.69895	1620	4
303.15	0.79958	1668	4
303.15	0.89727	1707	4
303.15	1	1735	4
308.15	0.59991	1559	3
308.15	0.69895	1614	4
308.15	0.79958	1662	4
308.15	0.89727	1702	4
308.15	1	1729	4
313.15	0	787	2
313.15	0.0999	1020	2
313.15	0.19941	1187	3
313.15	0.29934	1313	3
313.15	0.39925	1409	3
313.15	0.49846	1489	3
318.15	0	783	2
318.15	0.0999	1016	2
318.15	0.19941	1182	3
318.15	0.29934	1308	3
318.15	0.39925	1404	3
318.15	0.49846	1483	3
323.15	0	779	2
323.15	0.0999	1011	2
323.15	0.19941	1178	2
323.15	0.29934	1303	3
323.15	0.39925	1398	3
323.15	0.49846	1478	3
328.15	0	775	2
328.15	0.0999	1006	2
328.15	0.19941	1173	2
328.15	0.29934	1298	3
328.15	0.39925	1393	3
328.15	0.49846	1472	3
313.15	0.59991	1553	3
313.15	0.69895	1608	3
313.15	0.79958	1657	4
313.15	0.89727	1696	4
313.15	1	1723	4
318.15	0.59991	1548	3
318.15	0.69895	1603	3
318.15	0.79958	1651	4
318.15	0.89727	1690	4
318.15	1	1717	4
323.15	0.59991	1542	3
323.15	0.69895	1597	3
323.15	0.79958	1645	4
323.15	0.89727	1684	4
323.15	1	1711	4
328.15	0.59991	1537	3
328.15	0.69895	1592	3
328.15	0.79958	1640	4
328.15	0.89727	1679	4
328.15	1	1705	4
333.15	0	770	2
333.15	0.0999	1002	2
333.15	0.19941	1168	2
333.15	0.29934	1293	3
333.15	0.39925	1388	3
333.15	0.49846	1467	3
338.15	0	766	2
338.15	0.0999	997	2
338.15	0.19941	1163	2
338.15	0.29934	1288	3
338.15	0.39925	1383	3
338.15	0.49846	1462	3
343.15	0	762	2
343.15	0.0999	992	2
343.15	0.19941	1158	2
343.15	0.29934	1283	3
343.15	0.39925	1378	3
343.15	0.49846	1456	3
333.15	0.59991	1532	3
333.15	0.69895	1586	3
333.15	0.79958	1634	4
333.15	0.89727	1673	4
333.15	1	1700	4
338.15	0.59991	1526	3
338.15	0.69895	1581	3
338.15	0.79958	1628	4
338.15	0.89727	1667	4
338.15	1	1694	4
343.15	0.59991	1521	3
343.15	0.69895	1575	3
343.15	0.79958	1623	4
343.15	0.89727	1662	4
343.15	1	1688	4

System: 1,3-dihydroxyimidazolium bis(trifluoromethylsulfonyl)imide + propan-1-ol; phases: Liquid
Fixed: Pressure, kPa = 100
Property: Viscosity, Pa*s (Liquid); method: Capillary tube (Ostwald; Ubbelohde) method
Temperature, K	Mole fraction of 1,3-dihydroxyimidazolium bis(trifluoromethylsulfonyl)imide	Viscosity, Pa*s	uncertainty
293.15	0	0.00214	0.000172
293.15	0.0999	0.006428	0.000516
293.15	0.19941	0.010556	0.000847
293.15	0.29934	0.01874	0.001503
293.15	0.39925	0.031049	0.002492
293.15	0.49846	0.046707	0.00375
298.15	0	0.001897	0.000152
298.15	0.0999	0.005606	0.00045
298.15	0.19941	0.009087	0.000729
298.15	0.29934	0.015555	0.001248
298.15	0.39925	0.025305	0.002031
298.15	0.49846	0.037273	0.002993
303.15	0	0.001688	0.000135
303.15	0.0999	0.004921	0.000395
303.15	0.19941	0.007864	0.000631
303.15	0.29934	0.013067	0.001048
303.15	0.39925	0.020934	0.00168
303.15	0.49846	0.030208	0.002425
308.15	0	0.001506	0.000121
308.15	0.0999	0.00434	0.000348
308.15	0.19941	0.006844	0.000549
308.15	0.29934	0.011092	0.00089
308.15	0.39925	0.017589	0.001411
308.15	0.49846	0.024909	0.002
293.15	0.59991	0.065747	0.005286
293.15	0.69895	0.099341	0.008053
293.15	0.79958	0.120222	0.00981
293.15	0.89727	0.184261	0.0153
293.15	1	0.238601	0.020086
298.15	0.59991	0.051397	0.004126
298.15	0.69895	0.076101	0.006135
298.15	0.79958	0.090444	0.007323
298.15	0.89727	0.135124	0.011081
298.15	1	0.171825	0.014241
303.15	0.59991	0.040936	0.00329
303.15	0.69895	0.059327	0.004769
303.15	0.79958	0.077947	0.006293
303.15	0.89727	0.101708	0.008268
303.15	1	0.127521	0.010449
308.15	0.59991	0.033185	0.002667
308.15	0.69895	0.047169	0.003794
308.15	0.79958	0.054768	0.004406
308.15	0.89727	0.078316	0.006331
308.15	1	0.096923	0.007879
313.15	0	0.001348	0.000108
313.15	0.0999	0.003849	0.000309
313.15	0.19941	0.005991	0.000481
313.15	0.29934	0.009541	0.000765
313.15	0.39925	0.014918	0.001197
313.15	0.49846	0.020849	0.001674
318.15	0	0.001211	9.7e-05
318.15	0.0999	0.003434	0.000275
318.15	0.19941	0.005275	0.000423
318.15	0.29934	0.008279	0.000664
318.15	0.39925	0.012808	0.001028
318.15	0.49846	0.017641	0.001416
323.15	0	0.00109	8.7e-05
323.15	0.0999	0.003072	0.000246
323.15	0.19941	0.004675	0.000375
323.15	0.29934	0.007234	0.00058
323.15	0.39925	0.011089	0.00089
323.15	0.49846	0.015107	0.001213
328.15	0	0.000985	7.9e-05
328.15	0.0999	0.002759	0.000221
328.15	0.19941	0.004171	0.000335
328.15	0.29934	0.006368	0.000511
328.15	0.39925	0.009679	0.000777
328.15	0.49846	0.013052	0.001048
313.15	0.59991	0.027381	0.0022
313.15	0.69895	0.037929	0.003051
313.15	0.79958	0.043918	0.003536
313.15	0.89727	0.061381	0.004947
313.15	1	0.075563	0.006112
318.15	0.59991	0.022858	0.001837
318.15	0.69895	0.031313	0.002518
318.15	0.79958	0.035764	0.00288
318.15	0.89727	0.049131	0.00396
318.15	1	0.059804	0.004825
323.15	0.59991	0.019341	0.001554
323.15	0.69895	0.025888	0.002082
323.15	0.79958	0.029517	0.002377
323.15	0.89727	0.039966	0.003222
323.15	1	0.048287	0.003897
328.15	0.59991	0.016533	0.001329
328.15	0.69895	0.021877	0.00176
328.15	0.79958	0.024734	0.001992
328.15	0.89727	0.032991	0.002659
328.15	1	0.039567	0.003194
333.15	0	0.000892	7.2e-05
333.15	0.0999	0.002491	0.0002
333.15	0.19941	0.003742	0.0003
333.15	0.29934	0.005644	0.000453
333.15	0.39925	0.008509	0.000683
333.15	0.49846	0.01137	0.000913
338.15	0	0.00081	6.5e-05
338.15	0.0999	0.002255	0.000181
338.15	0.19941	0.003375	0.000271
338.15	0.29934	0.005034	0.000404
338.15	0.39925	0.007522	0.000604
338.15	0.49846	0.009989	0.000802
343.15	0	0.000737	5.9e-05
343.15	0.0999	0.002051	0.000165
343.15	0.19941	0.003057	0.000245
343.15	0.29934	0.004514	0.000362
343.15	0.39925	0.006692	0.000537
343.15	0.49846	0.008831	0.000709
333.15	0.59991	0.014293	0.001149
333.15	0.69895	0.01868	0.001502
333.15	0.79958	0.020939	0.001686
333.15	0.89727	0.027567	0.002222
333.15	1	0.03288	0.002654
338.15	0.59991	0.01246	0.001001
338.15	0.69895	0.01612	0.001297
338.15	0.79958	0.017868	0.001439
338.15	0.89727	0.023338	0.001881
338.15	1	0.027691	0.002235
343.15	0.59991	0.010949	0.00088
343.15	0.69895	0.014032	0.001129
343.15	0.79958	0.015407	0.001241
343.15	0.89727	0.019943	0.001608
343.15	1	0.023593	0.001904

System: 1,3-dihydroxyimidazolium bis(trifluoromethylsulfonyl)imide + propan-1-ol; phases: Liquid
Fixed: Pressure, kPa = 100
Fixed: Frequency, MHz = 3
Property: Speed of sound, m/s (Liquid); method: Single path-length method
Temperature, K	Mole fraction of 1,3-dihydroxyimidazolium bis(trifluoromethylsulfonyl)imide	Speed of sound, m/s	uncertainty
293.15	0	1223.77	6
293.15	0.0999	1192.51	6.01
293.15	0.19941	1175.21	6.03
293.15	0.29934	1166.49	6.05
298.15	0	1206.53	6
298.15	0.0999	1177.8	6.01
298.15	0.19941	1161.89	6.03
298.15	0.29934	1153.97	6.05
303.15	0	1189.42	6
303.15	0.0999	1163.23	6.01
303.15	0.19941	1148.71	6.03
303.15	0.29934	1141.6	6.05
308.15	0	1172.44	6
308.15	0.0999	1148.86	6.01
308.15	0.19941	1135.7	6.03
308.15	0.29934	1129.4	6.05
313.15	0	1155.55	6
313.15	0.0999	1134.62	6.01
313.15	0.19941	1122.82	6.03
313.15	0.29934	1117.35	6.05
318.15	0	1138.72	6
318.15	0.0999	1120.47	6.01
318.15	0.19941	1110.06	6.03
318.15	0.29934	1105.42	6.05
293.15	0.39925	1167.04	6.07
293.15	0.49846	1170.15	6.1
293.15	0.59991	1175.29	6.14
293.15	0.69895	1182.64	6.18
298.15	0.39925	1154.97	6.07
298.15	0.49846	1158.32	6.1
298.15	0.59991	1163.55	6.14
298.15	0.69895	1170.96	6.18
303.15	0.39925	1143.07	6.07
303.15	0.49846	1146.67	6.1
303.15	0.59991	1152	6.14
303.15	0.69895	1159.5	6.18
308.15	0.39925	1131.36	6.07
308.15	0.49846	1135.19	6.1
308.15	0.59991	1140.67	6.14
308.15	0.69895	1148.27	6.18
313.15	0.39925	1119.8	6.07
313.15	0.49846	1123.87	6.1
313.15	0.59991	1129.5	6.14
313.15	0.69895	1137.2	6.18
318.15	0.39925	1108.35	6.07
318.15	0.49846	1112.68	6.1
318.15	0.59991	1118.47	6.14
318.15	0.69895	1126.27	6.18
293.15	0.79958	1190.1	6.22
293.15	0.89727	1198.43	6.27
293.15	1	1208.24	6.33
298.15	0.79958	1178.39	6.22
298.15	0.89727	1186.67	6.27
298.15	1	1196.6	6.33
303.15	0.79958	1166.91	6.22
303.15	0.89727	1175.2	6.27
303.15	1	1185.22	6.33
308.15	0.79958	1155.66	6.22
308.15	0.89727	1163.99	6.27
308.15	1	1174.06	6.33
313.15	0.79958	1144.62	6.22
313.15	0.89727	1152.97	6.27
313.15	1	1163.08	6.33
318.15	0.79958	1133.72	6.22
318.15	0.89727	1142.1	6.27
318.15	1	1152.27	6.33
323.15	0	1121.93	6
323.15	0.0999	1106.4	6.01
323.15	0.19941	1097.41	6.03
323.15	0.29934	1093.63	6.05
328.15	0	1105.15	6
328.15	0.0999	1092.39	6.01
328.15	0.19941	1084.87	6.03
328.15	0.29934	1081.96	6.05
333.15	0	1088.32	6
333.15	0.0999	1078.45	6.01
333.15	0.19941	1072.43	6.03
333.15	0.29934	1070.42	6.05
338.15	0	1071.45	6
338.15	0.0999	1064.52	6.01
338.15	0.19941	1060.07	6.03
338.15	0.29934	1059.01	6.05
343.15	0	1054.53	6
343.15	0.0999	1050.65	6.01
343.15	0.19941	1048.01	6.03
343.15	0.29934	1047.83	6.05
323.15	0.39925	1097.02	6.07
323.15	0.49846	1101.64	6.1
323.15	0.59991	1107.57	6.14
323.15	0.69895	1115.47	6.18
328.15	0.39925	1085.79	6.07
328.15	0.49846	1090.72	6.1
328.15	0.59991	1096.79	6.14
328.15	0.69895	1104.8	6.18
333.15	0.39925	1074.67	6.07
333.15	0.49846	1079.95	6.1
333.15	0.59991	1086.11	6.14
333.15	0.69895	1094.24	6.18
338.15	0.39925	1063.67	6.07
338.15	0.49846	1069.32	6.1
338.15	0.59991	1075.57	6.14
338.15	0.69895	1083.81	6.18
343.15	0.39925	1052.77	6.07
343.15	0.49846	1058.92	6.1
343.15	0.59991	1065.13	6.14
343.15	0.69895	1073.5	6.18
323.15	0.79958	1122.97	6.22
323.15	0.89727	1131.38	6.27
323.15	1	1141.6	6.33
328.15	0.79958	1112.35	6.22
328.15	0.89727	1120.81	6.27
328.15	1	1131.08	6.33
333.15	0.79958	1101.85	6.22
333.15	0.89727	1110.35	6.27
333.15	1	1120.68	6.33
338.15	0.79958	1091.46	6.22
338.15	0.89727	1100.02	6.27
338.15	1	1110.41	6.33
343.15	0.79958	1081.22	6.22
343.15	0.89727	1089.8	6.27
343.15	1	1100.25	6.33
