Measured thermophysical data. Volumetric Properties of Sodium Lauroylsarcosinate in Aqueous Alcohol Solutions of Methanol, Ethanol, and 1-Propanol
Source: J. Chem. Eng. Data, 2017, 10.1021/acs.jced.6b01058
Compound 1: sodium [dodecanoyl(methyl)amino]acetate, C15H28NNaO3, InChI=1S/C15H29NO3.Na/c1-3-4-5-6-7-8-9-10-11-12-14(17)16(2)13-15(18)19;/h3-13H2,1-2H3,(H,18,19);/q;+1/p-1
Compound 2: methanol, CH4O, InChI=1S/CH4O/c1-2/h2H,1H3
Compound 3: ethanol, C2H6O, InChI=1S/C2H6O/c1-2-3/h3H,2H2,1H3
Compound 4: propan-1-ol, C3H8O, InChI=1S/C3H8O/c1-2-3-4/h4H,2-3H2,1H3
Compound 5: water, H2O, InChI=1S/H2O/h1H2, purity 99.8%

System: water; phases: Liquid
Fixed: Pressure, kPa = 85
Property: Mass density, kg/m3 (Liquid); method: Vibrating tube method
Temperature, K	Mass density, kg/m3	uncertainty
298.15	997.29	1
303.15	995.9	1
308.15	994.27	1
313.15	992.46	1

System: sodium [dodecanoyl(methyl)amino]acetate + methanol + water; phases: Liquid
Fixed: Pressure, kPa = 85
Property: Mass density, kg/m3 (Liquid); method: Vibrating tube method
Temperature, K	Molality, mol/kg of sodium [dodecanoyl(methyl)amino]acetate	Solvent: Mass fraction of methanol	Mass density, kg/m3	uncertainty
298.15	0.02	0.04	991.79	3.64
298.15	0.03	0.04	992.12	3.63
298.15	0.04	0.04	992.41	3.64
298.15	0.05	0.04	992.75	3.65
298.15	0.06	0.04	993.05	3.66
298.15	0.07	0.04	993.4	3.65
298.15	0.08	0.04	993.67	3.7
298.15	0.09	0.04	994.03	3.69
298.15	0.02	0.08	984.15	3.66
298.15	0.03	0.08	984.47	3.7
298.15	0.04	0.08	984.73	3.75
298.15	0.05	0.08	985.02	3.79
298.15	0.06	0.08	985.34	3.83
298.15	0.07	0.08	985.64	3.88
298.15	0.08	0.08	985.85	3.91
298.15	0.09	0.08	986.19	3.97
298.15	0.02	0.16	970.46	3.61
298.15	0.03	0.16	970.56	3.62
298.15	0.04	0.16	970.62	3.67
298.15	0.05	0.16	970.68	3.72
298.15	0.06	0.16	970.77	3.78
298.15	0.07	0.16	970.83	3.84
298.15	0.08	0.16	970.92	3.87
298.15	0.09	0.16	970.99	3.93
303.15	0.02	0.04	990.5	3.62
303.15	0.03	0.04	990.79	3.63
303.15	0.04	0.04	991.06	3.65
303.15	0.05	0.04	991.41	3.66
303.15	0.06	0.04	991.68	3.67
303.15	0.07	0.04	992.03	3.69
303.15	0.08	0.04	992.26	3.71
303.15	0.09	0.04	992.6	3.71
303.15	0.02	0.08	982.77	3.76
303.15	0.03	0.08	983.05	3.8
303.15	0.04	0.08	983.29	3.83
303.15	0.05	0.08	983.55	3.88
303.15	0.06	0.08	983.84	3.91
303.15	0.07	0.08	984.08	3.95
303.15	0.08	0.08	984.33	3.99
303.15	0.09	0.08	984.6	4.03
303.15	0.02	0.16	968.55	3.72
303.15	0.03	0.16	968.63	3.74
303.15	0.04	0.16	968.7	3.78
303.15	0.05	0.16	968.77	3.83
303.15	0.06	0.16	968.87	3.88
303.15	0.07	0.16	968.97	3.92
303.15	0.08	0.16	969.01	3.96
303.15	0.09	0.16	969.09	4.01
308.15	0.02	0.04	989.04	3.66
308.15	0.03	0.04	989.28	3.66
308.15	0.04	0.04	989.46	3.68
308.15	0.05	0.04	989.72	3.69
308.15	0.06	0.04	989.9	3.7
308.15	0.07	0.04	990.12	3.71
308.15	0.08	0.04	990.34	3.73
308.15	0.09	0.04	990.56	3.72
308.15	0.02	0.08	981	3.83
308.15	0.03	0.08	981.25	3.86
308.15	0.04	0.08	981.52	3.88
308.15	0.05	0.08	981.75	3.92
308.15	0.06	0.08	982.03	3.95
308.15	0.07	0.08	982.27	3.98
308.15	0.08	0.08	982.52	4.01
308.15	0.09	0.08	982.81	4.04
308.15	0.02	0.16	966.62	3.76
308.15	0.03	0.16	966.72	3.78
308.15	0.04	0.16	966.78	3.83
308.15	0.05	0.16	966.83	3.87
308.15	0.06	0.16	966.91	3.93
308.15	0.07	0.16	966.99	3.97
308.15	0.08	0.16	967.04	4.01
308.15	0.09	0.16	967.11	4.08
313.15	0.02	0.04	987.05	3.65
313.15	0.03	0.04	987.35	3.66
313.15	0.04	0.04	987.64	3.67
313.15	0.05	0.04	987.98	3.68
313.15	0.06	0.04	988.23	3.7
313.15	0.07	0.04	988.56	3.7
313.15	0.08	0.04	988.83	3.72
313.15	0.09	0.04	989.18	3.72
313.15	0.02	0.08	979.17	3.86
313.15	0.03	0.08	979.42	3.9
313.15	0.04	0.08	979.67	3.95
313.15	0.05	0.08	979.9	4
313.15	0.06	0.08	980.17	4.04
313.15	0.07	0.08	980.45	4.09
313.15	0.08	0.08	980.65	4.13
313.15	0.09	0.08	980.94	4.19
313.15	0.02	0.16	964.55	3.83
313.15	0.03	0.16	964.6	3.84
313.15	0.04	0.16	964.62	3.89
313.15	0.05	0.16	964.65	3.94
313.15	0.06	0.16	964.67	4
313.15	0.07	0.16	964.71	4.06
313.15	0.08	0.16	964.74	4.1
313.15	0.09	0.16	964.76	4.17
298.15	0.02	0	998.13	1.01
298.15	0.03	0	998.42	1.01
298.15	0.04	0	998.73	1.01
298.15	0.05	0	999.03	1.01
298.15	0.06	0	999.43	1.01
298.15	0.07	0	999.67	1.01
298.15	0.08	0	1000.07	1.01
298.15	0.09	0	1000.37	1.01
303.15	0.02	0	996.67	1.01
303.15	0.03	0	996.99	1.01
303.15	0.04	0	997.32	1.01
303.15	0.05	0	997.61	1.01
303.15	0.06	0	997.96	1.01
303.15	0.07	0	998.27	1.01
303.15	0.08	0	998.59	1.01
303.15	0.09	0	998.88	1.01
308.15	0.02	0	995.04	1.01
308.15	0.03	0	995.33	1.01
308.15	0.04	0	995.67	1.01
308.15	0.05	0	995.93	1.01
308.15	0.06	0	996.27	1.01
308.15	0.07	0	996.56	1.01
308.15	0.08	0	996.88	1.01
308.15	0.09	0	997.14	1.01
313.15	0.02	0	993.18	1.01
313.15	0.03	0	993.48	1.01
313.15	0.04	0	993.8	1.01
313.15	0.05	0	994.06	1.01
313.15	0.06	0	994.41	1.01
313.15	0.07	0	994.7	1.01
313.15	0.08	0	994.95	1.01
313.15	0.09	0	995.27	1.01
298.15	0	0.04	989.97	3.74
303.15	0	0.04	988.62	3.75
308.15	0	0.04	987.03	3.73
313.15	0	0.04	985.22	3.73
298.15	0	0.08	982.92	3.57
303.15	0	0.08	981.47	3.64
308.15	0	0.08	979.91	3.65
313.15	0	0.08	978.12	3.73
298.15	0	0.16	969.42	3.52
303.15	0	0.16	967.61	3.6
308.15	0	0.16	965.92	3.69
313.15	0	0.16	963.68	3.75
298.15	0	0	997.29	1.01
303.15	0	0	995.9	1.01
308.15	0	0	994.27	1.01
313.15	0	0	992.46	1.01

System: sodium [dodecanoyl(methyl)amino]acetate + ethanol + water; phases: Liquid
Fixed: Pressure, kPa = 85
Property: Mass density, kg/m3 (Liquid); method: Vibrating tube method
Temperature, K	Molality, mol/kg of sodium [dodecanoyl(methyl)amino]acetate	Solvent: Mass fraction of ethanol	Mass density, kg/m3	uncertainty
298.15	0.02	0.04	991.58	3.29
298.15	0.03	0.04	991.85	3.35
298.15	0.04	0.04	992.11	3.34
298.15	0.05	0.04	992.39	3.3
298.15	0.06	0.04	992.68	3.27
298.15	0.07	0.04	992.89	3.23
298.15	0.08	0.04	993.24	3.23
298.15	0.09	0.04	993.46	3.18
298.15	0.02	0.08	985.12	3.13
298.15	0.03	0.08	985.45	3.13
298.15	0.04	0.08	985.74	3.14
298.15	0.05	0.08	986.11	3.14
298.15	0.06	0.08	986.44	3.14
298.15	0.07	0.08	986.81	3.14
298.15	0.08	0.08	987.06	3.15
298.15	0.09	0.08	987.42	3.14
298.15	0.02	0.16	973.6	3.08
298.15	0.03	0.16	973.89	3.06
298.15	0.04	0.16	974.14	3.07
298.15	0.05	0.16	974.44	3.09
298.15	0.06	0.16	974.74	3.1
298.15	0.07	0.16	975.02	3.12
298.15	0.08	0.16	975.29	3.11
298.15	0.09	0.16	975.59	3.13
303.15	0.02	0.04	990.21	3.36
303.15	0.03	0.04	990.46	3.37
303.15	0.04	0.04	990.74	3.36
303.15	0.05	0.04	990.96	3.34
303.15	0.06	0.04	991.25	3.29
303.15	0.07	0.04	991.43	3.23
303.15	0.08	0.04	991.75	3.24
303.15	0.09	0.04	991.96	3.19
303.15	0.02	0.08	983.65	3.22
303.15	0.03	0.08	983.98	3.23
303.15	0.04	0.08	984.26	3.23
303.15	0.05	0.08	984.57	3.22
303.15	0.06	0.08	984.92	3.22
303.15	0.07	0.08	985.27	3.22
303.15	0.08	0.08	985.53	3.23
303.15	0.09	0.08	985.84	3.21
303.15	0.02	0.16	971.66	3.19
303.15	0.03	0.16	971.92	3.19
303.15	0.04	0.16	972.2	3.19
303.15	0.05	0.16	972.48	3.19
303.15	0.06	0.16	972.78	3.21
303.15	0.07	0.16	973.04	3.22
303.15	0.08	0.16	973.31	3.22
303.15	0.09	0.16	973.63	3.22
308.15	0.02	0.04	988.63	3.41
308.15	0.03	0.04	988.84	3.45
308.15	0.04	0.04	989.06	3.42
308.15	0.05	0.04	989.32	3.38
308.15	0.06	0.04	989.58	3.36
308.15	0.07	0.04	989.76	3.3
308.15	0.08	0.04	990.01	3.29
308.15	0.09	0.04	990.25	3.24
308.15	0.02	0.08	981.93	3.32
308.15	0.03	0.08	982.2	3.31
308.15	0.04	0.08	982.5	3.3
308.15	0.05	0.08	982.81	3.3
308.15	0.06	0.08	983.11	3.3
308.15	0.07	0.08	983.45	3.28
308.15	0.08	0.08	983.71	3.28
308.15	0.09	0.08	984.02	3.27
308.15	0.02	0.16	969.47	3.29
308.15	0.03	0.16	969.78	3.28
308.15	0.04	0.16	970.07	3.28
308.15	0.05	0.16	970.36	3.28
308.15	0.06	0.16	970.63	3.28
308.15	0.07	0.16	971	3.29
308.15	0.08	0.16	971.26	3.28
308.15	0.09	0.16	971.56	3.29
313.15	0.02	0.04	986.75	3.43
313.15	0.03	0.04	986.96	3.51
313.15	0.04	0.04	987.18	3.47
313.15	0.05	0.04	987.42	3.44
313.15	0.06	0.04	987.67	3.41
313.15	0.07	0.04	987.86	3.38
313.15	0.08	0.04	988.11	3.36
313.15	0.09	0.04	988.3	3.31
313.15	0.02	0.08	980	3.41
313.15	0.03	0.08	980.24	3.39
313.15	0.04	0.08	980.55	3.39
313.15	0.05	0.08	980.85	3.38
313.15	0.06	0.08	981.14	3.38
313.15	0.07	0.08	981.42	3.36
313.15	0.08	0.08	981.69	3.35
313.15	0.09	0.08	981.99	3.33
313.15	0.02	0.16	967.1	3.38
313.15	0.03	0.16	967.46	3.36
313.15	0.04	0.16	967.7	3.36
313.15	0.05	0.16	968.04	3.36
313.15	0.06	0.16	968.3	3.36
313.15	0.07	0.16	968.63	3.36
313.15	0.08	0.16	968.94	3.34
313.15	0.09	0.16	969.27	3.34
298.15	0	0.04	990.13	3.28
303.15	0	0.04	988.79	3.31
308.15	0	0.04	987.24	3.35
313.15	0	0.04	985.42	3.44
298.15	0	0.08	983.9	3.08
303.15	0	0.08	982.43	3.16
308.15	0	0.08	980.77	3.25
313.15	0	0.08	978.85	3.32
298.15	0	0.16	972.57	3.01
303.15	0	0.16	970.69	3.12
308.15	0	0.16	968.6	3.22
313.15	0	0.16	966.4	3.27

System: sodium [dodecanoyl(methyl)amino]acetate + propan-1-ol + water; phases: Liquid
Fixed: Pressure, kPa = 85
Property: Mass density, kg/m3 (Liquid); method: Vibrating tube method
Temperature, K	Molality, mol/kg of sodium [dodecanoyl(methyl)amino]acetate	Solvent: Mass fraction of propan-1-ol	Mass density, kg/m3	uncertainty
298.15	0.02	0.04	991.83	2.88
298.15	0.03	0.04	992.11	2.99
298.15	0.04	0.04	992.4	3.03
298.15	0.05	0.04	992.8	3.05
298.15	0.06	0.04	993.15	3.09
298.15	0.07	0.04	993.4	3.15
298.15	0.08	0.04	993.72	3.16
298.15	0.09	0.04	994.12	3.23
298.15	0.02	0.08	986.29	3.12
298.15	0.03	0.08	986.48	3.14
298.15	0.04	0.08	986.72	3.17
298.15	0.05	0.08	987.02	3.2
298.15	0.06	0.08	987.28	3.24
298.15	0.07	0.08	987.46	3.26
298.15	0.08	0.08	987.76	3.29
298.15	0.09	0.08	987.98	3.32
298.15	0.02	0.16	974.22	3.2
298.15	0.03	0.16	974.38	3.19
298.15	0.04	0.16	974.5	3.22
298.15	0.05	0.16	974.65	3.26
298.15	0.06	0.16	974.76	3.28
298.15	0.07	0.16	974.92	3.3
298.15	0.08	0.16	975.05	3.33
298.15	0.09	0.16	975.17	3.36
303.15	0.02	0.04	990.42	2.97
303.15	0.03	0.04	990.69	3.04
303.15	0.04	0.04	990.99	3.06
303.15	0.05	0.04	991.38	3.09
303.15	0.06	0.04	991.66	3.13
303.15	0.07	0.04	991.93	3.16
303.15	0.08	0.04	992.26	3.18
303.15	0.09	0.04	992.57	3.19
303.15	0.02	0.08	984.69	3.25
303.15	0.03	0.08	984.91	3.27
303.15	0.04	0.08	985.17	3.29
303.15	0.05	0.08	985.45	3.32
303.15	0.06	0.08	985.7	3.34
303.15	0.07	0.08	985.91	3.35
303.15	0.08	0.08	986.17	3.37
303.15	0.09	0.08	986.44	3.39
303.15	0.02	0.16	972.01	3.34
303.15	0.03	0.16	972.17	3.35
303.15	0.04	0.16	972.36	3.37
303.15	0.05	0.16	972.55	3.4
303.15	0.06	0.16	972.69	3.42
303.15	0.07	0.16	972.9	3.43
303.15	0.08	0.16	973.06	3.45
303.15	0.09	0.16	973.21	3.5
308.15	0.02	0.04	988.77	3.06
308.15	0.03	0.04	988.99	3.13
308.15	0.04	0.04	989.3	3.14
308.15	0.05	0.04	989.62	3.17
308.15	0.06	0.04	989.97	3.2
308.15	0.07	0.04	990.2	3.23
308.15	0.08	0.04	990.52	3.26
308.15	0.09	0.04	990.77	3.27
308.15	0.02	0.08	982.83	3.36
308.15	0.03	0.08	983.05	3.38
308.15	0.04	0.08	983.31	3.4
308.15	0.05	0.08	983.58	3.43
308.15	0.06	0.08	983.82	3.46
308.15	0.07	0.08	984.03	3.47
308.15	0.08	0.08	984.26	3.5
308.15	0.09	0.08	984.51	3.52
308.15	0.02	0.16	969.67	3.46
308.15	0.03	0.16	969.81	3.47
308.15	0.04	0.16	969.98	3.49
308.15	0.05	0.16	970.13	3.52
308.15	0.06	0.16	970.26	3.54
308.15	0.07	0.16	970.43	3.55
308.15	0.08	0.16	970.58	3.57
308.15	0.09	0.16	970.71	3.6
313.15	0.02	0.04	986.8	3.12
313.15	0.03	0.04	987.08	3.21
313.15	0.04	0.04	987.34	3.24
313.15	0.05	0.04	987.71	3.24
313.15	0.06	0.04	988.01	3.28
313.15	0.07	0.04	988.26	3.3
313.15	0.08	0.04	988.57	3.33
313.15	0.09	0.04	988.82	3.33
313.15	0.02	0.08	980.77	3.45
313.15	0.03	0.08	980.99	3.47
313.15	0.04	0.08	981.23	3.49
313.15	0.05	0.08	981.52	3.53
313.15	0.06	0.08	981.75	3.56
313.15	0.07	0.08	981.99	3.57
313.15	0.08	0.08	982.2	3.6
313.15	0.09	0.08	982.47	3.61
313.15	0.02	0.16	967.17	3.55
313.15	0.03	0.16	967.32	3.56
313.15	0.04	0.16	967.48	3.59
313.15	0.05	0.16	967.61	3.62
313.15	0.06	0.16	967.73	3.64
313.15	0.07	0.16	967.9	3.67
313.15	0.08	0.16	968.04	3.68
313.15	0.09	0.16	968.16	3.72
298.15	0	0.04	990.59	2.76
303.15	0	0.04	989.14	2.8
308.15	0	0.04	987.49	2.83
313.15	0	0.04	985.62	2.93
298.15	0	0.08	985.46	3.02
303.15	0	0.08	983.86	3.15
308.15	0	0.08	982.13	3.27
313.15	0	0.08	980.12	3.32
298.15	0	0.16	973.64	3.12
303.15	0	0.16	971.45	3.28
308.15	0	0.16	969.08	3.41
313.15	0	0.16	966.84	3.47

System: sodium [dodecanoyl(methyl)amino]acetate + water; phases: Liquid
Fixed: Pressure, kPa = 85
Property: Mass density, kg/m3 (Liquid); method: Vibrating tube method
Temperature, K	Molality, mol/kg of sodium [dodecanoyl(methyl)amino]acetate	Mass density, kg/m3	uncertainty
298.15	0.02	998.13	1
298.15	0.03	998.42	1
298.15	0.04	998.73	1
298.15	0.05	999.03	1
298.15	0.06	999.43	1
298.15	0.07	999.67	1
298.15	0.08	1000.07	1
298.15	0.09	1000.37	1
303.15	0.02	996.67	1
303.15	0.03	996.99	1
303.15	0.04	997.32	1
303.15	0.05	997.61	1
303.15	0.06	997.96	1
303.15	0.07	998.27	1
303.15	0.08	998.59	1
303.15	0.09	998.88	1
308.15	0.02	995.04	1
308.15	0.03	995.33	1
308.15	0.04	995.67	1
308.15	0.05	995.93	1
308.15	0.06	996.27	1
308.15	0.07	996.56	1
308.15	0.08	996.88	1
308.15	0.09	997.14	1
313.15	0.02	993.18	1
313.15	0.03	993.48	1
313.15	0.04	993.8	1
313.15	0.05	994.06	1
313.15	0.06	994.41	1
313.15	0.07	994.7	1
313.15	0.08	994.95	1
313.15	0.09	995.27	1

System: methanol + water; phases: Liquid
Fixed: Pressure, kPa = 85
Property: Mass density, kg/m3 (Liquid); method: Vibrating tube method
Temperature, K	Mass fraction of methanol	Mass density, kg/m3	uncertainty
298.15	0.04	989.97	3.66
303.15	0.04	988.62	3.67
308.15	0.04	987.03	3.66
313.15	0.04	985.22	3.69
298.15	0.08	982.92	3.56
303.15	0.08	981.47	3.63
308.15	0.08	979.91	3.65
313.15	0.08	978.12	3.73
298.15	0.16	969.42	3.52
303.15	0.16	967.61	3.6
308.15	0.16	965.92	3.68
313.15	0.16	963.68	3.75

System: ethanol + water; phases: Liquid
Fixed: Pressure, kPa = 85
Property: Mass density, kg/m3 (Liquid); method: Vibrating tube method
Temperature, K	Mass fraction of ethanol	Mass density, kg/m3	uncertainty
298.15	0.04	990.13	3.27
303.15	0.04	988.79	3.3
308.15	0.04	987.24	3.34
313.15	0.04	985.42	3.43
298.15	0.08	983.9	3.08
303.15	0.08	982.43	3.16
308.15	0.08	980.77	3.24
313.15	0.08	978.85	3.32
298.15	0.16	972.57	3
303.15	0.16	970.69	3.12
308.15	0.16	968.6	3.21
313.15	0.16	966.4	3.27

System: propan-1-ol + water; phases: Liquid
Fixed: Pressure, kPa = 85
Property: Mass density, kg/m3 (Liquid); method: Vibrating tube method
Temperature, K	Mass fraction of propan-1-ol	Mass density, kg/m3	uncertainty
298.15	0.04	990.59	2.75
303.15	0.04	989.14	2.79
308.15	0.04	987.49	2.83
313.15	0.04	985.62	2.93
298.15	0.08	985.46	3.01
303.15	0.08	983.86	3.15
308.15	0.08	982.13	3.27
313.15	0.08	980.12	3.31
298.15	0.16	973.64	3.12
303.15	0.16	971.45	3.27
308.15	0.16	969.08	3.4
313.15	0.16	966.84	3.47
