Measured thermophysical data. Density Measurements of CO2-Expanded Liquids
Source: J. Chem. Eng. Data, 2017, 10.1021/acs.jced.7b00540
Compound 1: ethanol, C2H6O, InChI=1S/C2H6O/c1-2-3/h3H,2H2,1H3, purity 99.7%
Compound 2: DL-ethyl lactate, C5H10O3, InChI=1S/C5H10O3/c1-3-8-5(7)4(2)6/h4,6H,3H2,1-2H3, purity 99%
Compound 3: glycerol, C3H8O3, InChI=1S/C3H8O3/c4-1-3(6)2-5/h3-6H,1-2H2, purity 99.5%
Compound 4: carbon dioxide, CO2, InChI=1S/CO2/c2-1-3, purity 99.9993%

System: DL-ethyl lactate; phases: Liquid
Property: Mass density, kg/m3 (Liquid); method: Vibrating tube method
Temperature, K	Pressure, kPa	Mass density, kg/m3	uncertainty
308	10000	1029.1	2.6
308	20000	1034.4	2.6
308	30000	1042.6	2.7
323	10000	1009.5	2.6
323	20000	1016.8	2.6
323	30000	1023.2	2.6

System: carbon dioxide + ethanol; phases: Liquid
Property: Mass density, kg/m3 (Liquid); method: Vibrating tube method
Temperature, K	Mole fraction of carbon dioxide	Pressure, kPa	Mass density, kg/m3	uncertainty
308	0.1	5000	792.1	1.9
308	0.1	6000	793	1.9
308	0.1	7000	793.7	1.9
308	0.1	8000	794.5	1.9
308	0.1	9000	795.3	1.9
308	0.1	10000	796.2	1.9
308	0.1	11000	797.1	1.9
308	0.1	12000	798	1.9
308	0.1	13000	798.8	1.9
308	0.1	14000	799.7	1.9
308	0.1	15000	800.5	2
308	0.1	16000	801.4	2
308	0.1	17000	802.3	2
308	0.1	18000	803.2	2
308	0.1	19000	804.2	2
308	0.1	20000	805.1	2
308	0.1	21000	806	2
308	0.1	22000	807	2
308	0.1	23000	807.9	2
308	0.1	24000	808.9	2
308	0.1	25000	809.9	2
308	0.1	26000	810.9	2
308	0.1	27000	811.9	2
308	0.1	28000	812.9	2
308	0.1	29000	813.7	2
308	0.1	30000	815	2
308	0.2	5000	804.3	2
308	0.2	6000	805.1	2
308	0.2	7000	806.1	2
308	0.2	8000	807.1	2
308	0.2	9000	808.2	2
308	0.2	10000	809.2	2
308	0.2	11000	810.3	2
308	0.2	12000	811.4	2
308	0.2	13000	812.4	2
308	0.2	14000	813.5	2
308	0.2	15000	814.6	2
308	0.2	16000	815.6	2
308	0.2	17000	816.7	2
308	0.2	18000	817.8	2
308	0.2	19000	818.8	2
308	0.2	20000	819.9	2
308	0.2	21000	821	2
308	0.2	22000	822.2	2
308	0.2	23000	823.3	2
308	0.2	24000	824.4	2
308	0.2	25000	825.6	2
308	0.2	26000	826.7	2
308	0.2	27000	827.9	2
308	0.2	28000	829	2
308	0.2	29000	830.2	2
308	0.2	30000	831.5	2
308	0.3	6000	814.6	2
308	0.3	7000	815.8	2
308	0.3	8000	817.2	2
308	0.3	9000	818.5	2
308	0.3	10000	819.9	2
308	0.3	11000	821.2	2
308	0.3	12000	822.6	2
308	0.3	13000	823.9	2
308	0.3	14000	825.2	2
308	0.3	15000	826.5	2
308	0.3	16000	827.8	2
308	0.3	17000	829.1	2
308	0.3	18000	830.3	2
308	0.3	19000	831.6	2
308	0.3	20000	832.9	2
308	0.3	21000	834.3	2
308	0.3	22000	835.5	2
308	0.3	23000	836.9	2
308	0.3	24000	838.2	2
308	0.3	25000	839.5	2
308	0.3	26000	840.8	2.1
308	0.3	27000	842.2	2.1
308	0.3	28000	843.5	2.1
308	0.3	29000	844.9	2.1
308	0.3	30000	846.3	2.1
308	0.4	7000	822.9	2
308	0.4	8000	824.4	2
308	0.4	9000	826.8	2
308	0.4	10000	828.6	2
308	0.4	11000	830.3	2
308	0.4	12000	832	2
308	0.4	13000	833.8	2
308	0.4	14000	835.4	2
308	0.4	15000	837	2
308	0.4	16000	838.6	2
308	0.4	17000	840.2	2
308	0.4	18000	841.7	2
308	0.4	19000	843.3	2.1
308	0.4	20000	844.9	2.1
308	0.4	21000	846.4	2.1
308	0.4	22000	848	2.1
308	0.4	23000	849.5	2.1
308	0.4	24000	851.1	2.1
308	0.4	25000	852.6	2.1
308	0.4	26000	854.2	2.1
308	0.4	27000	855.7	2.1
308	0.4	28000	857.3	2.1
308	0.4	29000	858.9	2.1
308	0.4	30000	860.5	2.1
308	0.5	7000	827.6	2
308	0.5	8000	828	2
308	0.5	9000	830.5	2
308	0.5	10000	833	2
308	0.5	11000	835.3	2
308	0.5	12000	837.5	2
308	0.5	13000	839.7	2
308	0.5	14000	841.9	2
308	0.5	15000	844	2.1
308	0.5	16000	846.1	2.1
308	0.5	17000	848.2	2.1
308	0.5	18000	850.2	2.1
308	0.5	19000	852.2	2.1
308	0.5	20000	854.1	2.1
308	0.5	21000	856.1	2.1
308	0.5	22000	858	2.1
308	0.5	23000	859.9	2.1
308	0.5	24000	861.7	2.1
308	0.5	25000	863.5	2.1
308	0.5	26000	865.5	2.1
308	0.5	27000	867.3	2.1
308	0.5	28000	869.1	2.1
308	0.5	29000	870.9	2.1
308	0.5	30000	872.8	2.1
323	0.1	10000	786.8	3.2
323	0.1	20000	797.2	3.2
323	0.1	30000	807.5	3.2
323	0.2	10000	804.2	3.2
323	0.2	20000	817	3.3
323	0.2	30000	829.1	3.3
323	0.3	10000	811.3	3.3
323	0.3	20000	831.8	3.3
323	0.3	30000	849.6	3.4

System: carbon dioxide + DL-ethyl lactate; phases: Liquid
Property: Mass density, kg/m3 (Liquid); method: Vibrating tube method
Temperature, K	Mole fraction of carbon dioxide	Pressure, kPa	Mass density, kg/m3	uncertainty
308	0.1	8000	1023.4	0.8
308	0.1	10000	1024.6	0.8
308	0.1	12000	1025.5	0.8
308	0.1	14000	1026.6	0.8
308	0.1	16000	1027.9	0.8
308	0.1	18000	1029.1	0.8
308	0.1	20000	1030.5	0.8
308	0.1	22000	1032	0.8
308	0.1	24000	1033.7	0.9
308	0.1	26000	1035.4	0.9
308	0.1	28000	1037.2	0.9
308	0.1	30000	1039.2	0.9
308	0.2	8000	1021.8	0.8
308	0.2	10000	1023.3	0.8
308	0.2	12000	1024.3	0.8
308	0.2	14000	1025.6	0.8
308	0.2	16000	1026.8	0.8
308	0.2	18000	1028.2	0.8
308	0.2	20000	1029.8	0.8
308	0.2	22000	1031.4	0.8
308	0.2	24000	1033.1	0.8
308	0.2	26000	1035	0.8
308	0.2	28000	1036.7	0.8
308	0.2	30000	1039.1	0.9
308	0.3	8000	1019.8	0.8
308	0.3	10000	1021.4	0.8
308	0.3	12000	1022.7	0.8
308	0.3	14000	1024.1	0.8
308	0.3	16000	1025.6	0.8
308	0.3	18000	1026.9	0.8
308	0.3	20000	1028.7	0.8
308	0.3	22000	1030.6	0.8
308	0.3	24000	1032.4	0.8
308	0.3	26000	1034.4	0.8
308	0.3	28000	1036.5	0.8
308	0.3	30000	1038.7	0.8
308	0.4	8000	1015.3	0.8
308	0.4	10000	1017	0.8
308	0.4	12000	1018.5	0.8
308	0.4	14000	1020.3	0.8
308	0.4	16000	1022	0.8
308	0.4	18000	1023.7	0.8
308	0.4	20000	1025.8	0.8
308	0.4	22000	1027.9	0.8
308	0.4	24000	1030	0.8
308	0.4	26000	1032.2	0.8
308	0.4	28000	1034.3	0.8
308	0.4	30000	1037	0.8
308	0.5	8000	1010	0.8
308	0.5	10000	1011.8	0.8
308	0.5	12000	1013.8	0.8
308	0.5	14000	1015.9	0.8
308	0.5	16000	1018	0.8
308	0.5	18000	1020.2	0.8
308	0.5	20000	1022.5	0.8
308	0.5	22000	1024.7	0.8
308	0.5	24000	1027.3	0.8
308	0.5	26000	1029.8	0.8
308	0.5	28000	1032.3	0.8
308	0.5	30000	1034.9	0.8
323	0.1	10000	1007.2	0.9
323	0.1	12000	1009	0.9
323	0.1	14000	1010.7	0.9
323	0.1	16000	1012.3	0.9
323	0.1	18000	1013.9	0.9
323	0.1	20000	1015.4	0.9
323	0.1	22000	1016.9	0.9
323	0.1	24000	1018.3	0.9
323	0.1	26000	1019.8	0.9
323	0.1	28000	1021.1	0.9
323	0.1	30000	1022.4	0.9
323	0.3	10000	1002.3	0.8
323	0.3	12000	1004.5	0.8
323	0.3	14000	1006.6	0.9
323	0.3	16000	1008.6	0.9
323	0.3	18000	1010.6	0.9
323	0.3	20000	1012.4	0.9
323	0.3	22000	1014.2	0.9
323	0.3	24000	1016	0.9
323	0.3	26000	1017.7	0.9
323	0.3	28000	1019.4	0.9
323	0.3	30000	1020.9	0.9
323	0.5	10000	990.5	0.8
323	0.5	12000	993	0.8
323	0.5	14000	995.9	0.8
323	0.5	16000	998.6	0.8
323	0.5	18000	1001.2	0.8
323	0.5	20000	1003.7	0.8
323	0.5	22000	1006.1	0.8
323	0.5	24000	1008.4	0.8
323	0.5	26000	1010.7	0.9
323	0.5	28000	1012.9	0.9
323	0.5	30000	1015	0.9

System: carbon dioxide + glycerol + ethanol; phases: Liquid
Fixed: Solvent: Mole fraction of glycerol = 0.00871
Property: Mass density, kg/m3 (Liquid); method: Vibrating tube method
Temperature, K	Mole fraction of carbon dioxide	Pressure, kPa	Mass density, kg/m3	uncertainty
308	0.1	8000	799.7	3.2
308	0.1	10000	801.3	3.2
308	0.1	12000	803.1	3.2
308	0.1	14000	804.7	3.2
308	0.1	16000	806.6	3.2
308	0.1	18000	808.4	3.2
308	0.1	20000	810.2	3.3
308	0.1	22000	812.1	3.3
308	0.1	24000	814.1	3.3
308	0.1	26000	816.1	3.3
308	0.1	28000	818.2	3.3
308	0.1	30000	820.3	3.3
308	0.2	8000	813.1	3.3
308	0.2	10000	815.3	3.3
308	0.2	12000	817.5	3.3
308	0.2	14000	819.6	3.3
308	0.2	16000	821.7	3.3
308	0.2	18000	823.9	3.3
308	0.2	20000	826.1	3.3
308	0.2	22000	828.3	3.3
308	0.2	24000	830.6	3.3
308	0.2	26000	832.8	3.3
308	0.2	28000	835.2	3.4
308	0.2	30000	837.6	3.4
308	0.3	8000	823.7	3.3
308	0.3	10000	826.5	3.3
308	0.3	12000	829.2	3.3
308	0.3	14000	832	3.3
308	0.3	16000	834.7	3.3
308	0.3	18000	837.3	3.4
308	0.3	20000	840	3.4
308	0.3	22000	842.7	3.4
308	0.3	24000	845.4	3.4
308	0.3	26000	848.1	3.4
308	0.3	28000	850.9	3.4
308	0.3	30000	853.7	3.4
308	0.4	8000	827.9	3.3
308	0.4	10000	831.6	3.3
308	0.4	12000	835.1	3.3
308	0.4	14000	838.3	3.4
308	0.4	16000	841.7	3.4
308	0.4	18000	844.9	3.4
308	0.4	20000	848	3.4
308	0.4	22000	851.3	3.4
308	0.4	24000	854.5	3.4
308	0.4	26000	857.9	3.4
308	0.4	28000	861.1	3.5
308	0.4	30000	864.4	3.5
308	0.5	8000	832.8	3.3
308	0.5	10000	837.8	3.4
308	0.5	12000	842.6	3.4
308	0.5	14000	847.2	3.4
308	0.5	16000	851.5	3.4
308	0.5	18000	855.8	3.4
308	0.5	20000	859.8	3.4
308	0.5	22000	863.8	3.5
308	0.5	24000	867.6	3.5
308	0.5	26000	871.4	3.5
308	0.5	28000	875.1	3.5
308	0.5	30000	878.8	3.5
323	0.1	8000	789.3	3.2
323	0.1	10000	791.6	3.2
323	0.1	12000	793.7	3.2
323	0.1	14000	795.9	3.2
323	0.1	16000	797.9	3.2
323	0.1	18000	800	3.2
323	0.1	20000	802	3.2
323	0.1	22000	804.1	3.2
323	0.1	24000	806.1	3.2
323	0.1	26000	808.1	3.2
323	0.1	28000	810.1	3.3
323	0.1	30000	812.1	3.3
323	0.2	8000	806.5	3.2
323	0.2	10000	809.4	3.2
323	0.2	12000	813.3	3.3
323	0.2	14000	816.6	3.3
323	0.2	16000	819.3	3.3
323	0.2	18000	822.4	3.3
323	0.2	20000	825.5	3.3
323	0.2	22000	828.4	3.3
323	0.2	24000	831.2	3.3
323	0.2	26000	834.1	3.3
323	0.2	28000	836.7	3.4
323	0.2	30000	839.4	3.4
323	0.3	10000	812.9	3.3
323	0.3	12000	817.5	3.3
323	0.3	14000	822.05	3.29
323	0.3	16000	826.2	3.3
323	0.3	18000	830.2	3.3
323	0.3	20000	834	3.3
323	0.3	22000	837.7	3.4
323	0.3	24000	841.3	3.4
323	0.3	26000	844.7	3.4
323	0.3	28000	848	3.4
323	0.3	30000	851.2	3.4

System: carbon dioxide + glycerol + DL-ethyl lactate; phases: Liquid
Fixed: Solvent: Mole fraction of glycerol = 0.00871
Property: Mass density, kg/m3 (Liquid); method: Vibrating tube method
Temperature, K	Mole fraction of carbon dioxide	Pressure, kPa	Mass density, kg/m3	uncertainty
308	0.1	8000	1024.4	0.6
308	0.1	10000	1025.4	0.6
308	0.1	12000	1026.4	0.6
308	0.1	14000	1027.4	0.6
308	0.1	16000	1028.6	0.6
308	0.1	18000	1029.9	0.6
308	0.1	20000	1031.3	0.6
308	0.1	22000	1032.7	0.6
308	0.1	24000	1034.4	0.6
308	0.1	26000	1036.1	0.6
308	0.1	28000	1037.9	0.6
308	0.1	30000	1039.9	0.6
308	0.2	8000	1023.4	0.6
308	0.2	10000	1024.5	0.6
308	0.2	12000	1025.6	0.6
308	0.2	14000	1026.8	0.6
308	0.2	16000	1028	0.6
308	0.2	18000	1029.4	0.6
308	0.2	20000	1030.8	0.6
308	0.2	22000	1032.4	0.6
308	0.2	24000	1034.1	0.6
308	0.2	26000	1035.9	0.6
308	0.2	28000	1037.8	0.6
308	0.2	30000	1039.8	0.6
308	0.3	8000	1022.5	0.6
308	0.3	10000	1023.6	0.6
308	0.3	12000	1024.8	0.6
308	0.3	14000	1026.1	0.6
308	0.3	16000	1027.5	0.6
308	0.3	18000	1029	0.6
308	0.3	20000	1030.6	0.6
308	0.3	22000	1032.3	0.6
308	0.3	24000	1034.1	0.6
308	0.3	26000	1036	0.6
308	0.3	28000	1038.1	0.6
308	0.3	30000	1040.2	0.6
308	0.4	8000	1019.9	0.6
308	0.4	10000	1021.3	0.6
308	0.4	12000	1022.7	0.6
308	0.4	14000	1024.2	0.6
308	0.4	16000	1025.8	0.6
308	0.4	18000	1027.5	0.6
308	0.4	20000	1029.2	0.6
308	0.4	22000	1031.1	0.6
308	0.4	24000	1033.1	0.6
308	0.4	26000	1035.2	0.6
308	0.4	28000	1037.4	0.6
308	0.4	30000	1039.7	0.6
308	0.5	8000	1015.4	0.6
308	0.5	10000	1016.8	0.6
308	0.5	12000	1018.5	0.6
308	0.5	14000	1020.4	0.6
308	0.5	16000	1022.2	0.6
308	0.5	18000	1024	0.6
308	0.5	20000	1026	0.6
308	0.5	22000	1028	0.6
308	0.5	24000	1030.2	0.6
308	0.5	26000	1032.5	0.6
308	0.5	28000	1034.8	0.6
308	0.5	30000	1037.5	0.6
323	0.1	10000	1009.2	0.9
323	0.1	12000	1010.8	0.9
323	0.1	14000	1012.4	0.9
323	0.1	16000	1014	0.9
323	0.1	18000	1015.5	0.9
323	0.1	20000	1017	0.9
323	0.1	22000	1018.4	0.9
323	0.1	24000	1019.7	0.9
323	0.1	26000	1021	0.9
323	0.1	28000	1022.3	0.9
323	0.1	30000	1023.5	0.9
323	0.2	10000	1005.4	0.9
323	0.2	12000	1007.3	0.9
323	0.2	14000	1009.3	0.9
323	0.2	16000	1011.2	0.9
323	0.2	18000	1012.9	0.9
323	0.2	20000	1014.7	0.9
323	0.2	22000	1016.4	0.9
323	0.2	24000	1018	0.9
323	0.2	26000	1019.6	0.9
323	0.2	28000	1021.1	0.9
323	0.2	30000	1022.6	0.9
323	0.3	10000	994.3	0.9
323	0.3	12000	997	0.9
323	0.3	14000	999.6	0.9
323	0.3	16000	1002.1	0.9
323	0.3	18000	1004.5	0.9
323	0.3	20000	1006.8	0.9
323	0.3	22000	1009	0.9
323	0.3	24000	1011.2	0.9
323	0.3	26000	1013.2	0.9
323	0.3	28000	1015.2	0.9
323	0.3	30000	1017.2	0.9
