Measured thermophysical data. Effect of Ethylene, Diethylene, and Triethylene Glycols and Glycerol on the Physicochemical Properties and Phase Behavior of Benzyltrimethyl and Benzyltributylammonium Chloride Based Deep Eutectic Solvents at 283.15-343.15 K
Source: J. Chem. Eng. Data, 2018, 10.1021/acs.jced.8b00213
Compound 1: 1,2-ethanediol, C2H6O2, InChI=1S/C2H6O2/c3-1-2-4/h3-4H,1-2H2, purity 99%
Compound 2: diethylene glycol, C4H10O3, InChI=1S/C4H10O3/c5-1-3-7-4-2-6/h5-6H,1-4H2, purity 99%
Compound 3: triethylene glycol, C6H14O4, InChI=1S/C6H14O4/c7-1-3-9-5-6-10-4-2-8/h7-8H,1-6H2, purity 99%
Compound 4: trimethylbenzylammonium chloride, C10H16ClN, InChI=1S/C10H16N.ClH/c1-11(2,3)9-10-7-5-4-6-8-10;/h4-8H,9H2,1-3H3;1H/q+1;/p-1, purity 98%
Compound 5: benzyltributylammonium chloride, C19H34ClN, InChI=1S/C19H34N.ClH/c1-4-7-15-20(16-8-5-2,17-9-6-3)18-19-13-11-10-12-14-19;/h10-14H,4-9,15-18H2,1-3H3;1H/q+1;/p-1, purity 98%
Compound 6: glycerol, C3H8O3, InChI=1S/C3H8O3/c4-1-3(6)2-5/h3-6H,1-2H2, purity 99.5%
Compound 7: tripotassium phosphate, K3O4P, InChI=1S/3K.H3O4P/c;;;1-5(2,3)4/h;;;(H3,1,2,3,4)/q3*+1;/p-3, purity 98%
Compound 8: water, H2O, InChI=1S/H2O/h1H2, purity 99.9%

System: trimethylbenzylammonium chloride + 1,2-ethanediol; phases: Liquid
Fixed: Pressure, kPa = 100
Fixed: Mole fraction of trimethylbenzylammonium chloride = 0.25
Property: Mass density, kg/m3 (Liquid); method: Vibrating tube method
Temperature, K	Mass density, kg/m3	uncertainty
283.15	1110.06	11.16
288.15	1107	11.13
293.15	1103.95	11.1
298.15	1100.92	11.07
303.15	1097.89	11.04
308.15	1094.87	11.01
313.15	1091.85	10.98
318.15	1088.84	10.95
323.15	1085.83	10.92
328.15	1082.83	10.89
333.15	1079.82	10.86
338.15	1076.82	10.83
343.15	1073.83	10.8

System: trimethylbenzylammonium chloride + 1,2-ethanediol; phases: Liquid
Fixed: Pressure, kPa = 100
Fixed: Mole fraction of trimethylbenzylammonium chloride = 0.25
Property: Speed of sound, m/s (Liquid); method: Single path-length method
Temperature, K	Speed of sound, m/s	uncertainty
283.15	1856.7	3.92
288.15	1843.64	3.9
293.15	1830.76	3.87
298.15	1817.97	3.85
303.15	1805.3	3.82
308.15	1792.73	3.8
313.15	1780.23	3.78
318.15	1767.78	3.75
323.15	1755.4	3.73
328.15	1743	3.71
333.15	1730.71	3.68
338.15	1718.48	3.66
343.15	1706.56	3.64

System: trimethylbenzylammonium chloride + 1,2-ethanediol; phases: Liquid
Fixed: Pressure, kPa = 100
Fixed: Mole fraction of trimethylbenzylammonium chloride = 0.25
Property: Viscosity, Pa*s (Liquid); method: Falling or rolling sphere viscometry
Temperature, K	Viscosity, Pa*s	uncertainty
283.15	0.1019	0.0031
288.15	0.0761	0.0019
293.15	0.0582	0.0013
298.15	0.0453	0.001
303.15	0.0359	0.0008
308.15	0.029	0.0006
313.15	0.0239	0.0005
318.15	0.0199	0.0004
323.15	0.0168	0.0004
328.15	0.0143	0.0003
333.15	0.0123	0.0003
338.15	0.0107	0.0002
343.15	0.0095	0.0002

System: trimethylbenzylammonium chloride + 1,2-ethanediol; phases: Liquid
Fixed: Pressure, kPa = 100
Fixed: Mole fraction of trimethylbenzylammonium chloride = 0.25
Property: Electrical conductivity, S/m (Liquid); method: Alternating current cell with electrodes
Temperature, K	Electrical conductivity, S/m	uncertainty
283.15	0.263	0.011
288.15	0.32	0.013
293.15	0.391	0.016
298.15	0.461	0.018
303.15	0.552	0.022
308.15	0.643	0.026
313.15	0.75	0.03
318.15	0.872	0.035
323.15	0.997	0.04
328.15	1.117	0.045
333.15	1.252	0.05
338.15	1.412	0.056
343.15	1.565	0.063

System: trimethylbenzylammonium chloride + 1,2-ethanediol; phases: Liquid
Fixed: Pressure, kPa = 100
Fixed: Mole fraction of trimethylbenzylammonium chloride = 0.25
Property: Refractive index (Na D-line) (Liquid); method: Standard Abbe refractometry
Temperature, K	Refractive index (Na D-line)	uncertainty
283.15	1.4995	0.0011
288.15	1.498	0.0011
293.15	1.4966	0.0011
298.15	1.4951	0.0011
303.15	1.4935	0.0011
308.15	1.4921	0.0011
313.15	1.4907	0.0011
318.15	1.4893	0.0011
323.15	1.4878	0.0011
328.15	1.4864	0.0011
333.15	1.4849	0.0011
338.15	1.4835	0.0011
343.15	1.482	0.0011

System: trimethylbenzylammonium chloride + diethylene glycol; phases: Liquid
Fixed: Pressure, kPa = 100
Fixed: Mole fraction of trimethylbenzylammonium chloride = 0.25
Property: Mass density, kg/m3 (Liquid); method: Vibrating tube method
Temperature, K	Mass density, kg/m3	uncertainty
283.15	1120.06	11.26
288.15	1116.91	11.23
293.15	1113.75	11.2
298.15	1110.6	11.17
303.15	1107.46	11.14
308.15	1104.33	11.11
313.15	1101.21	11.07
318.15	1098.09	11.04
323.15	1094.99	11.01
328.15	1091.89	10.98
333.15	1088.79	10.95
338.15	1085.7	10.92
343.15	1082.63	10.89

System: trimethylbenzylammonium chloride + diethylene glycol; phases: Liquid
Fixed: Pressure, kPa = 100
Fixed: Mole fraction of trimethylbenzylammonium chloride = 0.25
Property: Speed of sound, m/s (Liquid); method: Single path-length method
Temperature, K	Speed of sound, m/s	uncertainty
283.15	1782.61	3.78
288.15	1768.95	3.75
293.15	1755.79	3.73
298.15	1742.88	3.7
303.15	1730.19	3.68
308.15	1717.67	3.66
313.15	1705.3	3.63
318.15	1692.97	3.61
323.15	1680.79	3.59
328.15	1668.65	3.57
333.15	1656.59	3.54
338.15	1644.66	3.52
343.15	1633.09	3.5

System: trimethylbenzylammonium chloride + diethylene glycol; phases: Liquid
Fixed: Pressure, kPa = 100
Fixed: Mole fraction of trimethylbenzylammonium chloride = 0.25
Property: Viscosity, Pa*s (Liquid); method: Falling or rolling sphere viscometry
Temperature, K	Viscosity, Pa*s	uncertainty
283.15	0.2634	0.0148
288.15	0.1854	0.0084
293.15	0.1341	0.0049
298.15	0.0986	0.0029
303.15	0.0748	0.0018
308.15	0.0579	0.0012
313.15	0.0444	0.001
318.15	0.0348	0.0008
323.15	0.0278	0.0006
328.15	0.0232	0.0005
333.15	0.0187	0.0004
338.15	0.016	0.0004
343.15	0.0142	0.0003

System: trimethylbenzylammonium chloride + diethylene glycol; phases: Liquid
Fixed: Pressure, kPa = 100
Fixed: Mole fraction of trimethylbenzylammonium chloride = 0.25
Property: Electrical conductivity, S/m (Liquid); method: Alternating current cell with electrodes
Temperature, K	Electrical conductivity, S/m	uncertainty
283.15	0.088	0.004
288.15	0.109	0.004
293.15	0.132	0.005
298.15	0.165	0.007
303.15	0.201	0.008
308.15	0.254	0.01
313.15	0.311	0.012
318.15	0.356	0.014
323.15	0.398	0.016
328.15	0.474	0.019
333.15	0.539	0.022
338.15	0.611	0.024
343.15	0.681	0.027

System: trimethylbenzylammonium chloride + diethylene glycol; phases: Liquid
Fixed: Pressure, kPa = 100
Fixed: Mole fraction of trimethylbenzylammonium chloride = 0.25
Property: Refractive index (Na D-line) (Liquid); method: Standard Abbe refractometry
Temperature, K	Refractive index (Na D-line)	uncertainty
283.15	1.4954	0.0011
288.15	1.494	0.0011
293.15	1.4925	0.0011
298.15	1.4911	0.0011
303.15	1.4897	0.0011
308.15	1.4884	0.0011
313.15	1.4869	0.0011
318.15	1.4855	0.0011
323.15	1.4841	0.0011
328.15	1.4826	0.0011
333.15	1.4813	0.0011
338.15	1.4798	0.0011
343.15	1.4784	0.0011

System: trimethylbenzylammonium chloride + triethylene glycol; phases: Liquid
Fixed: Pressure, kPa = 100
Fixed: Mole fraction of trimethylbenzylammonium chloride = 0.25
Property: Mass density, kg/m3 (Liquid); method: Vibrating tube method
Temperature, K	Mass density, kg/m3	uncertainty
283.15	1127.45	11.34
288.15	1124.08	11.31
293.15	1120.7	11.27
298.15	1117.31	11.24
303.15	1113.93	11.2
308.15	1110.57	11.17
313.15	1107.21	11.14
318.15	1103.87	11.1
323.15	1100.54	11.07
328.15	1097.22	11.03
333.15	1093.9	11
338.15	1090.59	10.97
343.15	1087.29	10.93

System: trimethylbenzylammonium chloride + triethylene glycol; phases: Liquid
Fixed: Pressure, kPa = 100
Fixed: Mole fraction of trimethylbenzylammonium chloride = 0.25
Property: Speed of sound, m/s (Liquid); method: Single path-length method
Temperature, K	Speed of sound, m/s	uncertainty
283.15	1776.24	3.77
288.15	1761.01	3.74
293.15	1746.18	3.71
298.15	1731.42	3.68
303.15	1716.93	3.66
308.15	1702.79	3.63
313.15	1688.52	3.6
318.15	1674.64	3.58
323.15	1660.85	3.55
328.15	1647.16	3.53
333.15	1633.6	3.5
338.15	1620.06	3.47
343.15	1606.61	3.45

System: trimethylbenzylammonium chloride + triethylene glycol; phases: Liquid
Fixed: Pressure, kPa = 100
Fixed: Mole fraction of trimethylbenzylammonium chloride = 0.25
Property: Viscosity, Pa*s (Liquid); method: Falling or rolling sphere viscometry
Temperature, K	Viscosity, Pa*s	uncertainty
283.15	0.6201	0.0527
288.15	0.4708	0.0356
293.15	0.3705	0.0251
298.15	0.3088	0.019
303.15	0.2143	0.0106
308.15	0.1557	0.0063
313.15	0.1156	0.0038
318.15	0.0878	0.0024
323.15	0.0685	0.0016
328.15	0.0549	0.0012
333.15	0.0435	0.001
338.15	0.0343	0.0008
343.15	0.0274	0.0006

System: trimethylbenzylammonium chloride + triethylene glycol; phases: Liquid
Fixed: Pressure, kPa = 100
Fixed: Mole fraction of trimethylbenzylammonium chloride = 0.25
Property: Electrical conductivity, S/m (Liquid); method: Alternating current cell with electrodes
Temperature, K	Electrical conductivity, S/m	uncertainty
283.15	0.048	0.002
288.15	0.063	0.003
293.15	0.081	0.003
298.15	0.101	0.004
303.15	0.124	0.005
308.15	0.152	0.006
313.15	0.187	0.008
318.15	0.226	0.009
323.15	0.278	0.011
328.15	0.325	0.013
333.15	0.377	0.015
338.15	0.44	0.018
343.15	0.506	0.02

System: trimethylbenzylammonium chloride + triethylene glycol; phases: Liquid
Fixed: Pressure, kPa = 100
Fixed: Mole fraction of trimethylbenzylammonium chloride = 0.25
Property: Refractive index (Na D-line) (Liquid); method: Standard Abbe refractometry
Temperature, K	Refractive index (Na D-line)	uncertainty
283.15	1.4923	0.0011
288.15	1.4908	0.0011
293.15	1.4894	0.0011
298.15	1.488	0.0011
303.15	1.4865	0.0011
308.15	1.4849	0.0011
313.15	1.4836	0.0011
318.15	1.4821	0.0011
323.15	1.4807	0.0011
328.15	1.4792	0.0011
333.15	1.4778	0.0011
338.15	1.4763	0.0011
343.15	1.4749	0.0011

System: benzyltributylammonium chloride + 1,2-ethanediol; phases: Liquid
Fixed: Pressure, kPa = 100
Fixed: Mole fraction of benzyltributylammonium chloride = 0.25
Property: Mass density, kg/m3 (Liquid); method: Vibrating tube method
Temperature, K	Mass density, kg/m3	uncertainty
283.15	1045.37	10.51
288.15	1042.15	10.48
293.15	1039	10.45
298.15	1035.88	10.42
303.15	1032.74	10.38
308.15	1029.6	10.35
313.15	1026.44	10.32
318.15	1023.29	10.29
323.15	1020.13	10.26
328.15	1016.97	10.23
333.15	1013.82	10.19
338.15	1010.67	10.16
343.15	1007.53	10.13

System: benzyltributylammonium chloride + 1,2-ethanediol; phases: Liquid
Fixed: Pressure, kPa = 100
Fixed: Mole fraction of benzyltributylammonium chloride = 0.25
Property: Speed of sound, m/s (Liquid); method: Single path-length method
Temperature, K	Speed of sound, m/s	uncertainty
283.15	1734.93	3.69
288.15	1716.28	3.66
293.15	1698.92	3.62
298.15	1682.24	3.59
303.15	1666.2	3.56
308.15	1650.53	3.53
313.15	1635.22	3.5
318.15	1620.11	3.47
323.15	1605.22	3.45
328.15	1590.53	3.42
333.15	1575.97	3.39
338.15	1561.66	3.37
343.15	1547.9	3.34

System: benzyltributylammonium chloride + 1,2-ethanediol; phases: Liquid
Fixed: Pressure, kPa = 100
Fixed: Mole fraction of benzyltributylammonium chloride = 0.25
Property: Viscosity, Pa*s (Liquid); method: Falling or rolling sphere viscometry
Temperature, K	Viscosity, Pa*s	uncertainty
283.15	0.9014	0.0879
288.15	0.5984	0.0501
293.15	0.4152	0.0297
298.15	0.286	0.0169
303.15	0.211	0.0103
308.15	0.1555	0.0063
313.15	0.1171	0.0039
318.15	0.0899	0.0025
323.15	0.0707	0.0017
328.15	0.0558	0.0012
333.15	0.0436	0.001
338.15	0.0349	0.0008
343.15	0.0281	0.0006

System: benzyltributylammonium chloride + 1,2-ethanediol; phases: Liquid
Fixed: Pressure, kPa = 100
Fixed: Mole fraction of benzyltributylammonium chloride = 0.25
Property: Electrical conductivity, S/m (Liquid); method: Alternating current cell with electrodes
Temperature, K	Electrical conductivity, S/m	uncertainty
283.15	0.03	0.001
288.15	0.039	0.002
293.15	0.048	0.002
298.15	0.064	0.003
303.15	0.081	0.003
308.15	0.099	0.004
313.15	0.122	0.005
318.15	0.148	0.006
323.15	0.181	0.007
328.15	0.219	0.009
333.15	0.262	0.01
338.15	0.315	0.013
343.15	0.365	0.015

System: benzyltributylammonium chloride + 1,2-ethanediol; phases: Liquid
Fixed: Pressure, kPa = 100
Fixed: Mole fraction of benzyltributylammonium chloride = 0.25
Property: Refractive index (Na D-line) (Liquid); method: Standard Abbe refractometry
Temperature, K	Refractive index (Na D-line)	uncertainty
283.15	1.4993	0.0011
288.15	1.4979	0.0011
293.15	1.4963	0.0011
298.15	1.4947	0.0011
303.15	1.4932	0.0011
308.15	1.4917	0.0011
313.15	1.4901	0.0011
318.15	1.4886	0.0011
323.15	1.4871	0.0011
328.15	1.4855	0.0011
333.15	1.484	0.0011
338.15	1.4825	0.0011
343.15	1.4809	0.0011

System: benzyltributylammonium chloride + diethylene glycol; phases: Liquid
Fixed: Pressure, kPa = 100
Fixed: Mole fraction of benzyltributylammonium chloride = 0.25
Property: Mass density, kg/m3 (Liquid); method: Vibrating tube method
Temperature, K	Mass density, kg/m3	uncertainty
283.15	1063.94	10.7
288.15	1060.76	10.67
293.15	1057.65	10.64
298.15	1054.57	10.6
303.15	1051.5	10.57
308.15	1048.41	10.54
313.15	1045.31	10.51
318.15	1042.22	10.48
323.15	1039.12	10.45
328.15	1036.03	10.42
333.15	1032.94	10.39
338.15	1029.85	10.36
343.15	1026.78	10.32

System: benzyltributylammonium chloride + diethylene glycol; phases: Liquid
Fixed: Pressure, kPa = 100
Fixed: Mole fraction of benzyltributylammonium chloride = 0.25
Property: Speed of sound, m/s (Liquid); method: Single path-length method
Temperature, K	Speed of sound, m/s	uncertainty
283.15	1706.83	3.64
288.15	1689.5	3.6
293.15	1673.25	3.57
298.15	1658.14	3.55
303.15	1643.55	3.52
308.15	1629.47	3.49
313.15	1615.6	3.47
318.15	1602.02	3.44
323.15	1588.61	3.42
328.15	1575.27	3.39
333.15	1562.14	3.37
338.15	1549.17	3.34
343.15	1536.74	3.32

System: benzyltributylammonium chloride + diethylene glycol; phases: Liquid
Fixed: Pressure, kPa = 100
Fixed: Mole fraction of benzyltributylammonium chloride = 0.25
Property: Viscosity, Pa*s (Liquid); method: Falling or rolling sphere viscometry
Temperature, K	Viscosity, Pa*s	uncertainty
283.15	0.96186	0.09587
288.15	0.64425	0.05555
293.15	0.43354	0.03163
298.15	0.31037	0.01917
303.15	0.2249	0.01147
308.15	0.16837	0.0072
313.15	0.12521	0.0044
318.15	0.09678	0.00282
323.15	0.07623	0.00188
328.15	0.06263	0.00138
333.15	0.05043	0.00106
338.15	0.04068	0.0009
343.15	0.03276	0.00073

System: benzyltributylammonium chloride + diethylene glycol; phases: Liquid
Fixed: Pressure, kPa = 100
Fixed: Mole fraction of benzyltributylammonium chloride = 0.25
Property: Electrical conductivity, S/m (Liquid); method: Alternating current cell with electrodes
Temperature, K	Electrical conductivity, S/m	uncertainty
283.15	0.019	0.001
288.15	0.025	0.001
293.15	0.032	0.001
298.15	0.04	0.002
303.15	0.052	0.002
308.15	0.066	0.003
313.15	0.081	0.003
318.15	0.099	0.004
323.15	0.115	0.005
328.15	0.13	0.005
333.15	0.154	0.006
338.15	0.178	0.007
343.15	0.207	0.008

System: benzyltributylammonium chloride + diethylene glycol; phases: Liquid
Fixed: Pressure, kPa = 100
Fixed: Mole fraction of benzyltributylammonium chloride = 0.25
Property: Refractive index (Na D-line) (Liquid); method: Standard Abbe refractometry
Temperature, K	Refractive index (Na D-line)	uncertainty
283.15	1.4957	0.0011
288.15	1.4945	0.0011
293.15	1.4929	0.0011
298.15	1.4909	0.0011
303.15	1.4893	0.0011
308.15	1.4878	0.0011
313.15	1.486	0.0011
318.15	1.4849	0.0011
323.15	1.4836	0.0011
328.15	1.4815	0.0011
333.15	1.4804	0.0011
338.15	1.4786	0.0011
343.15	1.4776	0.0011

System: benzyltributylammonium chloride + triethylene glycol; phases: Liquid
Fixed: Pressure, kPa = 100
Fixed: Mole fraction of benzyltributylammonium chloride = 0.25
Property: Mass density, kg/m3 (Liquid); method: Vibrating tube method
Temperature, K	Mass density, kg/m3	uncertainty
283.15	1077.97	10.84
288.15	1074.64	10.81
293.15	1071.36	10.77
298.15	1068.09	10.74
303.15	1064.81	10.71
308.15	1061.53	10.67
313.15	1058.25	10.64
318.15	1054.97	10.61
323.15	1051.7	10.58
328.15	1048.43	10.54
333.15	1045.18	10.51
338.15	1041.92	10.48
343.15	1038.69	10.44

System: benzyltributylammonium chloride + triethylene glycol; phases: Liquid
Fixed: Pressure, kPa = 100
Fixed: Mole fraction of benzyltributylammonium chloride = 0.25
Property: Speed of sound, m/s (Liquid); method: Single path-length method
Temperature, K	Speed of sound, m/s	uncertainty
283.15	1710.12	3.64
288.15	1692.43	3.61
293.15	1675.75	3.58
298.15	1659.77	3.55
303.15	1644.25	3.52
308.15	1629.18	3.49
313.15	1614.34	3.46
318.15	1599.78	3.44
323.15	1585.4	3.41
328.15	1571.17	3.38
333.15	1557.13	3.36
338.15	1543.26	3.33
343.15	1529.96	3.31

System: benzyltributylammonium chloride + triethylene glycol; phases: Liquid
Fixed: Pressure, kPa = 100
Fixed: Mole fraction of benzyltributylammonium chloride = 0.25
Property: Viscosity, Pa*s (Liquid); method: Falling or rolling sphere viscometry
Temperature, K	Viscosity, Pa*s	uncertainty
283.15	0.7387	0.0671
288.15	0.506	0.0395
293.15	0.3569	0.0237
298.15	0.2565	0.0142
303.15	0.1885	0.0086
308.15	0.1424	0.0055
313.15	0.1091	0.0035
318.15	0.0852	0.0023
323.15	0.0677	0.0016
328.15	0.0544	0.0012
333.15	0.0433	0.001
338.15	0.0349	0.0008
343.15	0.0283	0.0006

System: benzyltributylammonium chloride + triethylene glycol; phases: Liquid
Fixed: Pressure, kPa = 100
Fixed: Mole fraction of benzyltributylammonium chloride = 0.25
Property: Electrical conductivity, S/m (Liquid); method: Alternating current cell with electrodes
Temperature, K	Electrical conductivity, S/m	uncertainty
283.15	0.013	0.001
288.15	0.017	0.001
293.15	0.021	0.001
298.15	0.027	0.001
303.15	0.035	0.002
308.15	0.043	0.002
313.15	0.054	0.002
318.15	0.067	0.003
323.15	0.082	0.003
328.15	0.098	0.004
333.15	0.114	0.005
338.15	0.145	0.006
343.15	0.174	0.007

System: benzyltributylammonium chloride + triethylene glycol; phases: Liquid
Fixed: Pressure, kPa = 100
Fixed: Mole fraction of benzyltributylammonium chloride = 0.25
Property: Refractive index (Na D-line) (Liquid); method: Standard Abbe refractometry
Temperature, K	Refractive index (Na D-line)	uncertainty
283.15	1.4936	0.0011
288.15	1.4921	0.0011
293.15	1.4906	0.0011
298.15	1.4889	0.0011
303.15	1.4874	0.0011
308.15	1.4857	0.0011
313.15	1.4842	0.0011
318.15	1.4827	0.0011
323.15	1.4811	0.0011
328.15	1.4795	0.0011
333.15	1.4779	0.0011
338.15	1.4764	0.0011
343.15	1.4748	0.0011

System: trimethylbenzylammonium chloride + glycerol; phases: Liquid
Fixed: Pressure, kPa = 100
Fixed: Mole fraction of trimethylbenzylammonium chloride = 0.25
Property: Mass density, kg/m3 (Liquid); method: Vibrating tube method
Temperature, K	Mass density, kg/m3	uncertainty
283.15	1190.87	11.97
288.15	1187.92	11.94
293.15	1184.97	11.91
298.15	1182.02	11.88
303.15	1178.99	11.85
308.15	1176.07	11.82
313.15	1173.14	11.79
318.15	1170.19	11.76
323.15	1167.23	11.73
328.15	1164.25	11.7
333.15	1161.27	11.67
338.15	1158.29	11.64
343.15	1155.33	11.61

System: trimethylbenzylammonium chloride + glycerol; phases: Liquid
Fixed: Pressure, kPa = 100
Fixed: Mole fraction of trimethylbenzylammonium chloride = 0.25
Property: Speed of sound, m/s (Liquid); method: Single path-length method
Temperature, K	Speed of sound, m/s	uncertainty
283.15	1992.6	4.08
288.15	1970.8	4.04
293.15	1953	4
298.15	1937.57	3.97
303.15	1923.4	3.95
308.15	1910.07	3.92
313.15	1897.23	3.9
318.15	1884.63	3.87
323.15	1872.28	3.85
328.15	1860.01	3.82
333.15	1847.86	3.8
338.15	1835.78	3.78
343.15	1824.15	3.75

System: trimethylbenzylammonium chloride + glycerol; phases: Liquid
Fixed: Pressure, kPa = 100
Fixed: Mole fraction of trimethylbenzylammonium chloride = 0.25
Property: Viscosity, Pa*s (Liquid); method: Falling or rolling sphere viscometry
Temperature, K	Viscosity, Pa*s	uncertainty
288.15	1.8749	0.2288
293.15	1.1709	0.1243
298.15	0.7535	0.0689
303.15	0.5015	0.039
308.15	0.3427	0.0222
313.15	0.2383	0.0126
318.15	0.1718	0.0074
323.15	0.1267	0.0045
328.15	0.0954	0.0027
333.15	0.073	0.0017
338.15	0.0582	0.0012
343.15	0.0463	0.001

System: trimethylbenzylammonium chloride + glycerol; phases: Liquid
Fixed: Pressure, kPa = 100
Fixed: Mole fraction of trimethylbenzylammonium chloride = 0.25
Property: Electrical conductivity, S/m (Liquid); method: Alternating current cell with electrodes
Temperature, K	Electrical conductivity, S/m	uncertainty
283.15	0.012	0.001
288.15	0.019	0.001
293.15	0.027	0.001
298.15	0.039	0.002
303.15	0.055	0.002
308.15	0.077	0.003
313.15	0.104	0.004
318.15	0.138	0.006
323.15	0.181	0.007
328.15	0.231	0.009
333.15	0.283	0.011
338.15	0.34	0.014
343.15	0.413	0.017

System: trimethylbenzylammonium chloride + glycerol; phases: Liquid
Fixed: Pressure, kPa = 100
Fixed: Mole fraction of trimethylbenzylammonium chloride = 0.25
Property: Refractive index (Na D-line) (Liquid); method: Standard Abbe refractometry
Temperature, K	Refractive index (Na D-line)	uncertainty
283.15	1.5126	0.0011
288.15	1.5114	0.0011
293.15	1.5102	0.0011
298.15	1.5089	0.0011
303.15	1.5078	0.0011
308.15	1.5064	0.0011
313.15	1.5052	0.0011
318.15	1.5039	0.0011
323.15	1.5027	0.0011
328.15	1.5014	0.0011
333.15	1.5002	0.0011
338.15	1.4989	0.0011
343.15	1.4977	0.0011

System: benzyltributylammonium chloride + glycerol; phases: Liquid
Fixed: Pressure, kPa = 100
Fixed: Mole fraction of benzyltributylammonium chloride = 0.25
Property: Mass density, kg/m3 (Liquid); method: Vibrating tube method
Temperature, K	Mass density, kg/m3	uncertainty
283.15	1112.02	11.18
288.15	1108.9	11.15
293.15	1105.78	11.12
298.15	1102.66	11.08
303.15	1099.54	11.05
308.15	1096.41	11.02
313.15	1093.28	10.99
318.15	1090.07	10.96
323.15	1086.95	10.93
328.15	1083.85	10.89
333.15	1080.72	10.86
338.15	1077.58	10.83
343.15	1074.43	10.8

System: benzyltributylammonium chloride + glycerol; phases: Liquid
Fixed: Pressure, kPa = 100
Fixed: Mole fraction of benzyltributylammonium chloride = 0.25
Property: Speed of sound, m/s (Liquid); method: Single path-length method
Temperature, K	Speed of sound, m/s	uncertainty
283.15	1908	3.92
288.15	1866.41	3.84
293.15	1832.98	3.77
298.15	1805.29	3.72
303.15	1782	3.67
308.15	1761.67	3.63
313.15	1743.52	3.6
318.15	1726.8	3.56
323.15	1711.15	3.53
328.15	1696.03	3.51
333.15	1681.52	3.48
338.15	1667.34	3.45
343.15	1653.87	3.42

System: benzyltributylammonium chloride + glycerol; phases: Liquid
Fixed: Pressure, kPa = 100
Fixed: Mole fraction of benzyltributylammonium chloride = 0.25
Property: Viscosity, Pa*s (Liquid); method: Falling or rolling sphere viscometry
Temperature, K	Viscosity, Pa*s	uncertainty
298.15	2.3281	0.301
303.15	1.7092	0.2032
308.15	1.1121	0.1162
313.15	0.7409	0.0673
318.15	0.4977	0.0385
323.15	0.3461	0.0226
328.15	0.2546	0.014
333.15	0.1853	0.0084
338.15	0.1381	0.0052
343.15	0.105	0.0032

System: benzyltributylammonium chloride + glycerol; phases: Liquid
Fixed: Pressure, kPa = 100
Fixed: Mole fraction of benzyltributylammonium chloride = 0.25
Property: Electrical conductivity, S/m (Liquid); method: Alternating current cell with electrodes
Temperature, K	Electrical conductivity, S/m	uncertainty
283.15	0.003	0.001
288.15	0.005	0.001
293.15	0.007	0.001
298.15	0.009	0.001
303.15	0.013	0.001
308.15	0.019	0.001
313.15	0.025	0.001
318.15	0.038	0.002
323.15	0.047	0.002
328.15	0.065	0.003
333.15	0.086	0.003
338.15	0.109	0.004
343.15	0.138	0.006

System: benzyltributylammonium chloride + glycerol; phases: Liquid
Fixed: Pressure, kPa = 100
Fixed: Mole fraction of benzyltributylammonium chloride = 0.25
Property: Refractive index (Na D-line) (Liquid); method: Standard Abbe refractometry
Temperature, K	Refractive index (Na D-line)	uncertainty
283.15	1.5095	0.0011
288.15	1.5079	0.0011
293.15	1.5065	0.0011
298.15	1.5051	0.0011
303.15	1.5036	0.0011
308.15	1.5021	0.0011
313.15	1.5006	0.0011
318.15	1.4992	0.0011
323.15	1.4977	0.0011
328.15	1.4962	0.0011
333.15	1.4948	0.0011
338.15	1.4933	0.0011
343.15	1.4917	0.0011

System: tripotassium phosphate + trimethylbenzylammonium chloride + water; phases: Liquid mixture 1, Liquid mixture 2
Fixed: Temperature, K = 298.15
Fixed: Pressure, kPa = 100
Property: Mass fraction of trimethylbenzylammonium chloride (Liquid mixture 1); method: Titration method
Mass fraction of tripotassium phosphate	Mass fraction of trimethylbenzylammonium chloride	uncertainty
0.0454	0.3867	0.0123
0.0573	0.3549	0.0112
0.0691	0.3317	0.0105
0.0879	0.2943	0.0093
0.1048	0.266	0.0084
0.1181	0.2434	0.0077
0.135	0.217	0.0069
0.1484	0.1954	0.0062
0.1602	0.1794	0.0057
0.172	0.1628	0.0052
0.183	0.1497	0.0048
0.1913	0.1378	0.0045
0.2	0.1281	0.0041
0.2071	0.1198	0.0039
0.2126	0.1118	0.0037
0.223	0.1008	0.0033
0.2328	0.0894	0.003
0.2435	0.0795	0.0026
0.2542	0.0694	0.0024
0.2597	0.0643	0.0023
0.2645	0.0599	0.0021
0.2708	0.0551	0.002
0.2764	0.0506	0.0019
0.2813	0.0468	0.0018
