Measured thermophysical data. Liquid-Liquid Equilibrium of the Ternary System sec-Butyl Acetate + sec-Butyl Alcohol + Ethylene Glycol at 298.2, 308.2, and 318.2 K
Source: J. Chem. Eng. Data, 2019, 10.1021/acs.jced.9b00103
Compound 1: 1-methylpropyl ethanoate, C6H12O2, InChI=1S/C6H12O2/c1-4-5(2)8-6(3)7/h5H,4H2,1-3H3, purity 99.7%
Compound 2: butan-2-ol, C4H10O, InChI=1S/C4H10O/c1-3-4(2)5/h4-5H,3H2,1-2H3, purity 99.9%
Compound 3: 1,2-ethanediol, C2H6O2, InChI=1S/C2H6O2/c3-1-2-4/h3-4H,1-2H2, purity 99.9%

System: 1-methylpropyl ethanoate + butan-2-ol + 1,2-ethanediol; phases: Liquid mixture 1, Liquid mixture 2
Fixed: Pressure, kPa = 101.3
Property: Mole fraction of butan-2-ol (Liquid mixture 1); method: Chromatography
Property: Mole fraction of butan-2-ol (Liquid mixture 2); method: Chromatography
Property: Mole fraction of 1-methylpropyl ethanoate (Liquid mixture 2); method: Chromatography
Temperature, K	Mole fraction of 1-methylpropyl ethanoate	Mole fraction of butan-2-ol	uncertainty	Mole fraction of butan-2-ol	uncertainty	Mole fraction of 1-methylpropyl ethanoate	uncertainty
298.2	0.952	0		0		0.018	
298.2	0.453	0.231	0.02	0.138	0.033	0.079	
298.2	0.375	0.24	0.02	0.16	0.027	0.099	
298.2	0.302	0.24	0.02	0.184	0.025	0.131	
308.2	0.936	0		0		0.02	
308.2	0.903	0.03	0.025	0.013	0.013	0.02	
308.2	0.817	0.089	0.024	0.036	0.036	0.026	
308.2	0.771	0.117	0.023	0.06	0.038	0.037	
308.2	0.702	0.152	0.023	0.077	0.03	0.05	
308.2	0.649	0.184	0.022	0.096	0.028	0.061	
308.2	0.605	0.189	0.021	0.099	0.029	0.068	
298.2	0.863	0.059	0.023	0.027	0.027	0.021	
308.2	0.571	0.204	0.02	0.117	0.029	0.068	
308.2	0.523	0.212	0.021	0.132	0.027	0.106	
308.2	0.459	0.227	0.021	0.157	0.028	0.115	
308.2	0.409	0.236	0.02	0.173	0.022	0.144	
308.2	0.37	0.232	0.02	0.187	0.022	0.15	
308.2	0.331	0.237	0.02	0.206	0.021	0.216	
318.2	0.928	0		0		0.021	
318.2	0.9	0.028	0.026	0.012	0.012	0.022	
318.2	0.879	0.04	0.023	0.019	0.019	0.025	
318.2	0.839	0.065	0.022	0.032	0.032	0.03	
298.2	0.817	0.077	0.023	0.039	0.039	0.025	
318.2	0.783	0.089	0.023	0.046	0.038	0.038	
318.2	0.739	0.12	0.024	0.06	0.042	0.05	
318.2	0.714	0.132	0.022	0.072	0.034	0.054	
318.2	0.664	0.156	0.022	0.081	0.033	0.06	
318.2	0.616	0.182	0.021	0.107	0.033	0.071	
318.2	0.551	0.19	0.02	0.124	0.023	0.097	
318.2	0.492	0.199	0.02	0.134	0.023	0.105	
318.2	0.403	0.197	0.02	0.164	0.022	0.177	
298.2	0.768	0.11	0.024	0.056	0.041	0.028	
298.2	0.71	0.147	0.024	0.067	0.034	0.029	
298.2	0.678	0.169	0.022	0.082	0.025	0.035	
298.2	0.612	0.189	0.02	0.094	0.035	0.049	
298.2	0.547	0.194	0.021	0.104	0.032	0.065	
298.2	0.504	0.22	0.022	0.124	0.032	0.066	

System: 1-methylpropyl ethanoate + 1,2-ethanediol; phases: Liquid mixture 1, Liquid mixture 2
Fixed: Pressure, kPa = 101.3
Property: Mole fraction of 1-methylpropyl ethanoate (Liquid mixture 1); method: Chromatography
Temperature, K	Mole fraction of 1-methylpropyl ethanoate	uncertainty
298.2	0.952	0.02
318.2	0.928	0.02
308.2	0.936	0.02

System: 1-methylpropyl ethanoate + 1,2-ethanediol; phases: Liquid mixture 2, Liquid mixture 1
Fixed: Pressure, kPa = 101.3
Property: Mole fraction of 1-methylpropyl ethanoate (Liquid mixture 2); method: Chromatography
Temperature, K	Mole fraction of 1-methylpropyl ethanoate	uncertainty
298.2	0.018	0.018
318.2	0.021	0.02
308.2	0.02	0.02
