Measured thermophysical data. Isobaric Vapor-Liquid Equilibria of Binary Mixtures of Diethyl Carbonate with Isopropyl Acetate, sec-Butyl Acetate, or Isoamyl Acetate at 101.3 kPa
Source: J. Chem. Eng. Data, 2019, 10.1021/acs.jced.9b00430
Compound 1: diethyl carbonate, C5H10O3, InChI=1S/C5H10O3/c1-3-7-5(6)8-4-2/h3-4H2,1-2H3, purity 99.5%
Compound 2: 1-methylethyl ethanoate, C5H10O2, InChI=1S/C5H10O2/c1-4(2)7-5(3)6/h4H,1-3H3, purity 99.8%
Compound 3: 1-methylpropyl ethanoate, C6H12O2, InChI=1S/C6H12O2/c1-4-5(2)8-6(3)7/h5H,4H2,1-3H3, purity 99.8%
Compound 4: 3-methylbutyl ethanoate, C7H14O2, InChI=1S/C7H14O2/c1-6(2)4-5-9-7(3)8/h6H,4-5H2,1-3H3, purity 99.5%

System: diethyl carbonate; phases: Liquid
Property: Mass density, kg/m3 (Liquid); method: Vibrating tube method
Temperature, K	Pressure, kPa	Mass density, kg/m3	uncertainty
298.15	100	969.4	0.2

System: diethyl carbonate; phases: Liquid
Property: Refractive index (Na D-line) (Liquid); method: Standard Abbe refractometry
Temperature, K	Pressure, kPa	Refractive index (Na D-line)	uncertainty
298.15	100	1.3821	0.0004

System: diethyl carbonate; phases: Liquid, Gas
Property: Vapor or sublimation pressure, kPa (Liquid); method: Ebulliometric method (Recirculating still)
Temperature, K	Vapor or sublimation pressure, kPa	uncertainty
400.25	101.3	2.2

System: 1-methylethyl ethanoate; phases: Liquid
Property: Mass density, kg/m3 (Liquid); method: Vibrating tube method
Temperature, K	Pressure, kPa	Mass density, kg/m3	uncertainty
298.15	100	866.5	0.2

System: 1-methylethyl ethanoate; phases: Liquid
Property: Refractive index (Na D-line) (Liquid); method: Standard Abbe refractometry
Temperature, K	Pressure, kPa	Refractive index (Na D-line)	uncertainty
298.15	100	1.3746	0.0004

System: 1-methylethyl ethanoate; phases: Liquid, Gas
Property: Vapor or sublimation pressure, kPa (Liquid); method: Ebulliometric method (Recirculating still)
Temperature, K	Vapor or sublimation pressure, kPa	uncertainty
361.87	101.3	2.2

System: 1-methylpropyl ethanoate; phases: Liquid
Property: Mass density, kg/m3 (Liquid); method: Vibrating tube method
Temperature, K	Pressure, kPa	Mass density, kg/m3	uncertainty
298.15	100	865.5	0.2

System: 1-methylpropyl ethanoate; phases: Liquid
Property: Refractive index (Na D-line) (Liquid); method: Standard Abbe refractometry
Temperature, K	Pressure, kPa	Refractive index (Na D-line)	uncertainty
298.15	100	1.3863	0.0004

System: 1-methylpropyl ethanoate; phases: Liquid, Gas
Property: Vapor or sublimation pressure, kPa (Liquid); method: Ebulliometric method (Recirculating still)
Temperature, K	Vapor or sublimation pressure, kPa	uncertainty
385.49	101.3	2.2

System: 3-methylbutyl ethanoate; phases: Liquid
Property: Mass density, kg/m3 (Liquid); method: Vibrating tube method
Temperature, K	Pressure, kPa	Mass density, kg/m3	uncertainty
298.15	100	867.3	0.2

System: 3-methylbutyl ethanoate; phases: Liquid
Property: Refractive index (Na D-line) (Liquid); method: Standard Abbe refractometry
Temperature, K	Pressure, kPa	Refractive index (Na D-line)	uncertainty
298.15	100	1.3979	0.0004

System: 3-methylbutyl ethanoate; phases: Liquid, Gas
Property: Vapor or sublimation pressure, kPa (Liquid); method: Ebulliometric method (Recirculating still)
Temperature, K	Vapor or sublimation pressure, kPa	uncertainty
415.42	101.3	2.2

System: 1-methylethyl ethanoate + diethyl carbonate; phases: Liquid, Gas
Fixed: Pressure, kPa = 101.3
Property: Boiling temperature at pressure P, K (Liquid); method: Ebulliometric method (Recirculating still)
Mole fraction of 1-methylethyl ethanoate	Boiling temperature at pressure P, K	uncertainty
0	400.25	0.45
0.0276	398.73	0.47
0.0934	394.52	0.47
0.1545	391.01	0.46
0.2206	387.51	0.46
0.2956	384.21	0.46
0.36	381.45	0.46
0.4509	377.69	0.46
0.5168	375.39	0.46
0.5998	372.36	0.45
0.64	371.51	0.45
0.7155	369.28	0.45
0.7996	366.83	0.45
0.8889	364.76	0.45
0.9631	362.76	0.45
1	361.87	0.45

System: 1-methylethyl ethanoate + diethyl carbonate; phases: Gas, Liquid
Fixed: Pressure, kPa = 101.3
Property: Mole fraction of 1-methylethyl ethanoate (Gas); method: Chromatography
Mole fraction of 1-methylethyl ethanoate	Mole fraction of 1-methylethyl ethanoate	uncertainty
0	0	
0.0276	0.0594	0.0052
0.0934	0.2193	0.0053
0.1545	0.3464	0.0052
0.2206	0.459	0.0054
0.2956	0.5587	0.005
0.36	0.631	0.0044
0.4509	0.7196	0.0037
0.5168	0.7734	0.0032
0.5998	0.8332	0.0029
0.64	0.8602	0.0026
0.7155	0.8972	0.0024
0.7996	0.9374	0.0022
0.8889	0.9689	0.0021
0.9631	0.9908	0.0021
1	1	

System: 1-methylpropyl ethanoate + diethyl carbonate; phases: Liquid, Gas
Fixed: Pressure, kPa = 101.3
Property: Boiling temperature at pressure P, K (Liquid); method: Ebulliometric method (Recirculating still)
Mole fraction of 1-methylpropyl ethanoate	Boiling temperature at pressure P, K	uncertainty
0	400.25	0.45
0.0312	399.7	0.45
0.0927	398.66	0.45
0.1657	397.29	0.45
0.2291	396.19	0.45
0.3026	395.16	0.45
0.3708	393.98	0.45
0.4518	392.73	0.45
0.4871	392.21	0.45
0.583	390.69	0.45
0.6626	389.64	0.45
0.7503	388.6	0.45
0.8302	387.63	0.45
0.913	386.64	0.45
1	385.49	0.45

System: 1-methylpropyl ethanoate + diethyl carbonate; phases: Gas, Liquid
Fixed: Pressure, kPa = 101.3
Property: Mole fraction of 1-methylpropyl ethanoate (Gas); method: Chromatography
Mole fraction of 1-methylpropyl ethanoate	Mole fraction of 1-methylpropyl ethanoate	uncertainty
0	0	
0.0312	0.0401	0.0034
0.0927	0.1262	0.0036
0.1657	0.2271	0.0039
0.2291	0.3111	0.0042
0.3026	0.398	0.0046
0.3708	0.4738	0.0051
0.4518	0.5591	0.0049
0.4871	0.5941	0.0046
0.583	0.6871	0.0039
0.6626	0.757	0.0034
0.7503	0.8284	0.003
0.8302	0.8896	0.0027
0.913	0.9478	0.0024
1	1	

System: diethyl carbonate + 3-methylbutyl ethanoate; phases: Liquid, Gas
Fixed: Pressure, kPa = 101.3
Property: Boiling temperature at pressure P, K (Liquid); method: Ebulliometric method (Recirculating still)
Mole fraction of diethyl carbonate	Boiling temperature at pressure P, K	uncertainty
0	415.42	0.45
0.0415	414.59	0.45
0.1294	413.03	0.45
0.2072	411.53	0.45
0.2805	410.39	0.45
0.3749	408.83	0.45
0.4422	407.79	0.45
0.5307	406.37	0.45
0.6011	405.53	0.45
0.6843	404.21	0.45
0.7705	403.22	0.45
0.8321	402.32	0.45
0.9031	401.37	0.45
0.9658	400.7	0.45
1	400.25	0.45

System: diethyl carbonate + 3-methylbutyl ethanoate; phases: Gas, Liquid
Fixed: Pressure, kPa = 101.3
Property: Mole fraction of diethyl carbonate (Gas); method: Chromatography
Mole fraction of diethyl carbonate	Mole fraction of diethyl carbonate	uncertainty
0	0	
0.0415	0.0714	0.0035
0.1294	0.1878	0.0037
0.2072	0.2887	0.0041
0.2805	0.377	0.0045
0.3749	0.482	0.0053
0.4422	0.5512	0.005
0.5307	0.636	0.0044
0.6011	0.6986	0.004
0.6843	0.7684	0.0035
0.7705	0.8366	0.003
0.8321	0.8826	0.0028
0.9031	0.9319	0.0025
0.9658	0.9739	0.0025
1	1	
