Measured thermophysical data. Liquid Liquid Equilibrium Data of Water + Butyric Acid + {Butanal or n-Butanol} Ternary Systems at 293.15, 308.15, and 323.15 K
Source: J. Chem. Eng. Data, 2017, 10.1021/acs.jced.6b00941
Compound 1: water, H2O, InChI=1S/H2O/h1H2, purity 99.9%
Compound 2: butanoic acid, C4H8O2, InChI=1S/C4H8O2/c1-2-3-4(5)6/h2-3H2,1H3,(H,5,6), purity 99%
Compound 3: butanal, C4H8O, InChI=1S/C4H8O/c1-2-3-4-5/h4H,2-3H2,1H3, purity 99%
Compound 4: butan-1-ol, C4H10O, InChI=1S/C4H10O/c1-2-3-4-5/h5H,2-4H2,1H3, purity 99.5%

System: water; phases: Liquid
Property: Refractive index (Na D-line) (Liquid); method: Standard Abbe refractometry
Temperature, K	Pressure, kPa	Refractive index (Na D-line)	uncertainty
293.15	101.325	1.3327	0.0004

System: water; phases: Liquid
Property: Mass density, kg/m3 (Liquid); method: Vibrating tube method
Temperature, K	Pressure, kPa	Mass density, kg/m3	uncertainty
293.15	101.325	998.26	2

System: butanoic acid; phases: Liquid
Property: Refractive index (Na D-line) (Liquid); method: Standard Abbe refractometry
Temperature, K	Pressure, kPa	Refractive index (Na D-line)	uncertainty
293.15	101.325	1.3974	0.0004

System: butanoic acid; phases: Liquid
Property: Mass density, kg/m3 (Liquid); method: Vibrating tube method
Temperature, K	Pressure, kPa	Mass density, kg/m3	uncertainty
293.15	101.325	957.57	2.01

System: butanal; phases: Liquid
Property: Refractive index (Na D-line) (Liquid); method: Standard Abbe refractometry
Temperature, K	Pressure, kPa	Refractive index (Na D-line)	uncertainty
293.15	101.325	1.3839	0.0004

System: butanal; phases: Liquid
Property: Mass density, kg/m3 (Liquid); method: Vibrating tube method
Temperature, K	Pressure, kPa	Mass density, kg/m3	uncertainty
293.15	101.325	801.54	2.01

System: butan-1-ol; phases: Liquid
Property: Refractive index (Na D-line) (Liquid); method: Standard Abbe refractometry
Temperature, K	Pressure, kPa	Refractive index (Na D-line)	uncertainty
293.15	101.325	1.3994	0.0004

System: butan-1-ol; phases: Liquid
Property: Mass density, kg/m3 (Liquid); method: Vibrating tube method
Temperature, K	Pressure, kPa	Mass density, kg/m3	uncertainty
293.15	101.325	809.61	2.01

System: butanoic acid + butanal + water; phases: Liquid mixture 1, Liquid mixture 2
Fixed: Pressure, kPa = 100
Property: Mass fraction of butanoic acid (Liquid mixture 1); method: Chromatography
Property: Mass fraction of butanal (Liquid mixture 2); method: Chromatography
Property: Mass fraction of butanoic acid (Liquid mixture 2); method: Chromatography
Temperature, K	Mass fraction of butanal	Mass fraction of butanoic acid	uncertainty	Mass fraction of butanal	uncertainty	Mass fraction of butanoic acid	uncertainty
293.15	0.9694	0		0.0748	0.0102	0	
293.15	0.7863	0.1551	0.0093	0.0656	0.0107	0.0271	
293.15	0.6711	0.2422	0.0091	0.0641	0.0107	0.0348	
293.15	0.5942	0.3059	0.0081	0.0588	0.0107	0.0419	
293.15	0.4599	0.3838	0.008	0.054	0.0104	0.0562	
293.15	0.3411	0.4658	0.0075	0.0528	0.0107	0.0678	
293.15	0.2552	0.4918	0.0069	0.0387	0.011	0.0989	
293.15	0.1589	0.5429	0.0075	0.0261	0.0111	0.1232	
308.15	0.9659	0		0.0698	0.0102	0	
308.15	0.8342	0.0969	0.0088	0.0679	0.0105	0.0129	
308.15	0.7328	0.1751	0.0085	0.0674	0.0105	0.0204	
308.15	0.5759	0.2879	0.0084	0.0554	0.0108	0.0489	
308.15	0.4165	0.3955	0.0081	0.052	0.0104	0.0591	
308.15	0.3139	0.4538	0.0072	0.0444	0.0106	0.0941	
308.15	0.2187	0.4944	0.0066	0.033	0.0109	0.1172	
308.15	0.1662	0.509	0.0061	0.0282	0.0107	0.1297	
323.15	0.9551	0		0.0651	0.0102	0	
323.15	0.7737	0.1372	0.0083	0.0607	0.0105	0.0146	
323.15	0.5936	0.2568	0.0077	0.0558	0.0103	0.0317	
323.15	0.5145	0.2973	0.0078	0.0547	0.0104	0.0457	
323.15	0.4415	0.3512	0.0082	0.0481	0.0107	0.0643	
323.15	0.3308	0.4188	0.0078	0.0404	0.0102	0.0834	
323.15	0.241	0.4685	0.0064	0.0431	0.0103	0.1097	
323.15	0.1438	0.4871	0.0056	0.03	0.0109	0.1387	

System: butan-1-ol + butanoic acid + water; phases: Liquid mixture 1, Liquid mixture 2
Fixed: Pressure, kPa = 100
Property: Mass fraction of butan-1-ol (Liquid mixture 1); method: Chromatography
Property: Mass fraction of butan-1-ol (Liquid mixture 2); method: Chromatography
Property: Mass fraction of butanoic acid (Liquid mixture 2); method: Chromatography
Temperature, K	Mass fraction of butanoic acid	Mass fraction of butan-1-ol	uncertainty	Mass fraction of butan-1-ol	uncertainty	Mass fraction of butanoic acid	uncertainty
293.15	0	0.8144	0.0081	0.0689	0.008	0	
293.15	0.1318	0.6741	0.0094	0.0609	0.0087	0.0159	
293.15	0.2622	0.5356	0.0096	0.0555	0.0087	0.0329	
293.15	0.3488	0.4419	0.0098	0.0472	0.0091	0.0518	
293.15	0.4072	0.3655	0.01	0.0408	0.0093	0.0619	
293.15	0.4771	0.2677	0.0107	0.0332	0.0084	0.0768	
293.15	0.5064	0.1901	0.0166	0.0258	0.0081	0.1112	
293.15	0.5185	0.1088	0.0281	0.0214	0.0081	0.1531	
308.15	0	0.7879	0.0081	0.0623	0.008	0	
308.15	0.1259	0.6523	0.0094	0.0543	0.0088	0.0145	
308.15	0.2481	0.5231	0.0097	0.0477	0.0086	0.0336	
308.15	0.3349	0.4288	0.0097	0.0398	0.0085	0.0481	
308.15	0.4052	0.3409	0.01	0.0358	0.0082	0.0652	
308.15	0.4605	0.256	0.0118	0.0308	0.0082	0.0909	
308.15	0.4861	0.1802	0.0181	0.0252	0.0082	0.1249	
308.15	0.4971	0.1048	0.0237	0.0199	0.0082	0.1429	
323.15	0	0.7699	0.0082	0.0618	0.008	0	
323.15	0.1262	0.6315	0.0095	0.0561	0.0085	0.0161	
323.15	0.2362	0.5156	0.0097	0.0491	0.0084	0.0392	
323.15	0.3232	0.4179	0.0097	0.0453	0.0083	0.0532	
323.15	0.3899	0.3358	0.01	0.04	0.0083	0.0738	
323.15	0.4421	0.2533	0.0136	0.0329	0.0085	0.0985	
323.15	0.4802	0.1677	0.046	0.0268	0.0084	0.1141	
323.15	0.4741	0.0987	0.046	0.0187	0.0083	0.147	

System: butanal + water; phases: Liquid mixture 1, Liquid mixture 2
Fixed: Pressure, kPa = 100
Property: Mass fraction of butanal (Liquid mixture 1); method: Chromatography
Temperature, K	Mass fraction of butanal	uncertainty
293.15	0.9694	0.0102
323.15	0.9551	0.0102
308.15	0.9659	0.0102

System: butanal + water; phases: Liquid mixture 2, Liquid mixture 1
Fixed: Pressure, kPa = 100
Property: Mass fraction of butanal (Liquid mixture 2); method: Chromatography
Temperature, K	Mass fraction of butanal	uncertainty
293.15	0.0748	0.0102
323.15	0.0651	0.0102
308.15	0.0698	0.0102

System: butan-1-ol + water; phases: Liquid mixture 1, Liquid mixture 2
Fixed: Pressure, kPa = 100
Property: Mass fraction of butan-1-ol (Liquid mixture 1); method: Chromatography
Temperature, K	Mass fraction of butan-1-ol	uncertainty
293.15	0.8144	0.0081
323.15	0.7699	0.0082
308.15	0.7879	0.0081

System: butan-1-ol + water; phases: Liquid mixture 2, Liquid mixture 1
Fixed: Pressure, kPa = 100
Property: Mass fraction of butan-1-ol (Liquid mixture 2); method: Chromatography
Temperature, K	Mass fraction of butan-1-ol	uncertainty
293.15	0.0689	0.008
323.15	0.0618	0.008
308.15	0.0623	0.008
