Measured thermophysical data. Densities and Derived Volumetric Properties of Ionic Liquids with [Nf2] and [NTf2] Anions at High Pressures
Source: J. Chem. Eng. Data, 2018, 10.1021/acs.jced.7b00771
Compound 1: 1-ethyl-3-methyl-1H-imidazolium bis(fluorosulfonyl)amide, C6H11F2N3O4S2, InChI=1S/C6H11N2.F2NO4S2/c1-3-8-5-4-7(2)6-8;1-8(4,5)3-9(2,6)7/h4-6H,3H2,1-2H3;/q+1;-1, purity 99.9%
Compound 2: 1-methyl-1-propylpyrrolidinium bis(fluorosulfonyl)amide, C8H18F2N2O4S2, InChI=1S/C8H18N.F2NO4S2/c1-3-6-9(2)7-4-5-8-9;1-8(4,5)3-9(2,6)7/h3-8H2,1-2H3;/q+1;-1, purity 99.9%
Compound 3: 1-butyl-1-methylpyrrolidinium bis(fluorosulfonyl)amide, C9H20F2N2O4S2, InChI=1S/C9H20N.F2NO4S2/c1-3-4-7-10(2)8-5-6-9-10;1-8(4,5)3-9(2,6)7/h3-9H2,1-2H3;/q+1;-1, purity 99.9%
Compound 4: 1-butyl-1-methylpyrrolidinium bis[(trifluoromethyl)sulfonyl]imide, C11H20F6N2O4S2, InChI=1S/C9H20N.C2F6NO4S2/c1-3-4-7-10(2)8-5-6-9-10;3-1(4,5)14(10,11)9-15(12,13)2(6,7)8/h3-9H2,1-2H3;/q+1;-1, purity 99%

System: 1-ethyl-3-methyl-1H-imidazolium bis(fluorosulfonyl)amide; phases: Liquid
Property: Mass density, kg/m3 (Liquid); method: Vibrating tube method
Temperature, K	Pressure, kPa	Mass density, kg/m3	uncertainty
293.15	100	1446.4	0.9
293.15	1000	1446.9	0.9
293.15	5000	1449.3	0.9
293.15	10000	1452.1	1
293.15	15000	1454.9	1
293.15	20000	1457.7	1
293.15	25000	1460.4	1.1
293.15	30000	1463.1	1.1
293.15	35000	1465.8	1.2
293.15	40000	1468.4	1.2
293.15	45000	1471	1.3
293.15	50000	1473.6	1.4
293.15	55000	1476.1	1.4
293.15	60000	1478.6	1.5
303.15	100	1437.2	0.9
303.15	1000	1437.7	0.9
303.15	5000	1440.1	0.9
303.15	10000	1443	1
303.15	15000	1445.9	1
303.15	20000	1448.8	1
303.15	25000	1451.6	1.1
303.15	30000	1454.3	1.1
303.15	35000	1457.1	1.2
303.15	40000	1459.8	1.2
303.15	45000	1462.4	1.3
303.15	50000	1465	1.4
303.15	55000	1467.6	1.4
303.15	60000	1470.1	1.5
313.15	100	1428	0.9
313.15	1000	1428.6	0.9
313.15	5000	1431	0.9
313.15	10000	1434	1
313.15	15000	1437	1
313.15	20000	1439.9	1
313.15	25000	1442.8	1.1
313.15	30000	1445.6	1.1
313.15	35000	1448.4	1.2
313.15	40000	1451.2	1.2
313.15	45000	1453.9	1.3
313.15	50000	1456.5	1.3
313.15	55000	1459.2	1.4
313.15	60000	1461.7	1.5
323.15	100	1419	0.9
323.15	1000	1419.6	0.9
323.15	5000	1422.1	0.9
323.15	10000	1425.2	1
323.15	15000	1428.2	1
323.15	20000	1431.2	1
323.15	25000	1434.2	1.1
323.15	30000	1437.1	1.1
323.15	35000	1439.9	1.2
323.15	40000	1442.7	1.2
323.15	45000	1445.5	1.3
323.15	50000	1448.2	1.3
323.15	55000	1450.9	1.4
323.15	60000	1453.5	1.5
333.15	100	1410	0.9
333.15	1000	1410.6	0.9
333.15	5000	1413.2	0.9
333.15	10000	1416.4	1
333.15	15000	1419.5	1
333.15	20000	1422.6	1
333.15	25000	1425.6	1.1
333.15	30000	1428.6	1.1
333.15	35000	1431.5	1.2
333.15	40000	1434.4	1.2
333.15	45000	1437.2	1.3
333.15	50000	1440	1.3
333.15	55000	1442.7	1.4
333.15	60000	1445.4	1.4
343.15	100	1401.1	0.9
343.15	1000	1401.7	0.9
343.15	5000	1404.4	0.9
343.15	10000	1407.6	1
343.15	15000	1410.8	1
343.15	20000	1414	1
343.15	25000	1417.1	1.1
343.15	30000	1420.1	1.1
343.15	35000	1423.1	1.1
343.15	40000	1426.1	1.2
343.15	45000	1429	1.3
343.15	50000	1431.8	1.3
343.15	55000	1434.6	1.4
343.15	60000	1437.3	1.4
353.15	100	1392.3	0.9
353.15	1000	1392.9	0.9
353.15	5000	1395.7	0.9
353.15	10000	1399	1
353.15	15000	1402.3	1
353.15	20000	1405.5	1
353.15	25000	1408.7	1.1
353.15	30000	1411.8	1.1
353.15	35000	1414.9	1.1
353.15	40000	1417.9	1.2
353.15	45000	1420.9	1.2
353.15	50000	1423.8	1.3
353.15	55000	1426.6	1.4
353.15	60000	1429.4	1.4
363.15	100	1383.6	0.9
363.15	1000	1384.3	0.9
363.15	5000	1387	0.9
363.15	10000	1390.5	1
363.15	15000	1393.8	1
363.15	20000	1397.1	1
363.15	25000	1400.4	1
363.15	30000	1403.6	1.1
363.15	35000	1406.7	1.1
363.15	40000	1409.8	1.2
363.15	45000	1412.8	1.2
363.15	50000	1415.8	1.3
363.15	55000	1418.7	1.3
363.15	60000	1421.6	1.4
373.15	100	1374.5	2.1
373.15	1000	1375.5	2.1
373.15	5000	1378.3	2.1
373.15	10000	1381.9	2.1
373.15	15000	1385.3	2.1
373.15	20000	1388.7	2.1
373.15	25000	1392	2.2
373.15	30000	1395.3	2.2
373.15	35000	1398.5	2.2
373.15	40000	1401.7	2.2
373.15	45000	1404.8	2.3
373.15	50000	1407.8	2.3
373.15	55000	1410.8	2.3
373.15	60000	1413.7	2.4
393.15	100	1357.5	2.1
393.15	1000	1358.5	2.1
393.15	5000	1361.5	2.1
393.15	10000	1365.3	2.1
393.15	15000	1368.9	2.1
393.15	20000	1372.5	2.1
393.15	25000	1376	2.2
393.15	30000	1379.4	2.2
393.15	35000	1382.8	2.2
393.15	40000	1386.1	2.2
393.15	45000	1389.3	2.2
393.15	50000	1392.5	2.3
393.15	55000	1395.6	2.3
393.15	60000	1398.7	2.3
413.15	100	1341.1	2.1
413.15	1000	1341.8	2.1
413.15	5000	1345	2.1
413.15	10000	1348.9	2.1
413.15	15000	1352.8	2.1
413.15	20000	1356.5	2.1
413.15	25000	1360.2	2.2
413.15	30000	1363.8	2.2
413.15	35000	1367.3	2.2
413.15	40000	1370.8	2.2
413.15	45000	1374.2	2.2
413.15	50000	1377.5	2.3
413.15	55000	1380.7	2.3
413.15	60000	1383.9	2.3

System: 1-methyl-1-propylpyrrolidinium bis(fluorosulfonyl)amide; phases: Liquid
Property: Mass density, kg/m3 (Liquid); method: Vibrating tube method
Temperature, K	Pressure, kPa	Mass density, kg/m3	uncertainty
293.15	100	1342.9	0.9
293.15	1000	1343.4	0.9
293.15	5000	1345.5	0.9
293.15	10000	1348.1	0.9
293.15	15000	1350.7	1
293.15	20000	1353.2	1
293.15	25000	1355.7	1
293.15	30000	1358.2	1.1
293.15	35000	1360.6	1.1
293.15	40000	1363	1.1
293.15	45000	1365.4	1.2
293.15	50000	1367.7	1.2
293.15	55000	1370	1.3
293.15	60000	1372.2	1.3
303.15	100	1334.8	0.9
303.15	1000	1335.3	0.9
303.15	5000	1337.5	0.9
303.15	10000	1340.2	0.9
303.15	15000	1342.8	1
303.15	20000	1345.4	1
303.15	25000	1348	1
303.15	30000	1350.5	1
303.15	35000	1353	1.1
303.15	40000	1355.4	1.1
303.15	45000	1357.8	1.2
303.15	50000	1360.2	1.2
303.15	55000	1362.5	1.2
303.15	60000	1364.8	1.3
313.15	100	1326.8	0.9
313.15	1000	1327.3	0.9
313.15	5000	1329.5	0.9
313.15	10000	1332.3	0.9
313.15	15000	1335	1
313.15	20000	1337.7	1
313.15	25000	1340.3	1
313.15	30000	1342.9	1
313.15	35000	1345.4	1.1
313.15	40000	1347.9	1.1
313.15	45000	1350.4	1.1
313.15	50000	1352.8	1.2
313.15	55000	1355.2	1.2
313.15	60000	1357.5	1.3
323.15	100	1318.9	0.9
323.15	1000	1319.4	0.9
323.15	5000	1321.7	0.9
323.15	10000	1324.5	0.9
323.15	15000	1327.3	1
323.15	20000	1330	1
323.15	25000	1332.7	1
323.15	30000	1335.4	1
323.15	35000	1338	1.1
323.15	40000	1340.5	1.1
323.15	45000	1343	1.1
323.15	50000	1345.5	1.2
323.15	55000	1347.9	1.2
323.15	60000	1350.3	1.3
333.15	100	1311	0.9
333.15	1000	1311.6	0.9
333.15	5000	1313.9	0.9
333.15	10000	1316.8	0.9
333.15	15000	1319.7	1
333.15	20000	1322.5	1
333.15	25000	1325.2	1
333.15	30000	1327.9	1
333.15	35000	1330.6	1.1
333.15	40000	1333.2	1.1
333.15	45000	1335.8	1.1
333.15	50000	1338.3	1.2
333.15	55000	1340.8	1.2
333.15	60000	1343.2	1.3
343.15	100	1303.3	0.9
343.15	1000	1303.8	0.9
343.15	5000	1306.2	0.9
343.15	10000	1309.2	0.9
343.15	15000	1312.1	1
343.15	20000	1315	1
343.15	25000	1317.8	1
343.15	30000	1320.6	1
343.15	35000	1323.3	1.1
343.15	40000	1326	1.1
343.15	45000	1328.6	1.1
343.15	50000	1331.2	1.2
343.15	55000	1333.7	1.2
343.15	60000	1336.2	1.2
353.15	100	1295.6	0.9
353.15	1000	1296.2	0.9
353.15	5000	1298.6	0.9
353.15	10000	1301.7	0.9
353.15	15000	1304.7	1
353.15	20000	1307.6	1
353.15	25000	1310.5	1
353.15	30000	1313.3	1
353.15	35000	1316.1	1
353.15	40000	1318.9	1.1
353.15	45000	1321.6	1.1
353.15	50000	1324.2	1.2
353.15	55000	1326.8	1.2
353.15	60000	1329.3	1.2
363.15	100	1288	0.9
363.15	1000	1288.6	0.9
363.15	5000	1291.1	0.9
363.15	10000	1294.2	0.9
363.15	15000	1297.3	0.9
363.15	20000	1300.3	1
363.15	25000	1303.3	1
363.15	30000	1306.2	1
363.15	35000	1309.1	1
363.15	40000	1311.8	1.1
363.15	45000	1314.6	1.1
363.15	50000	1317.3	1.1
363.15	55000	1319.9	1.2
363.15	60000	1322.5	1.2
373.15	100	1279.9	2.1
373.15	1000	1280.9	2.1
373.15	5000	1283.5	2.1
373.15	10000	1286.8	2.1
373.15	15000	1289.9	2.1
373.15	20000	1293	2.1
373.15	25000	1296.1	2.1
373.15	30000	1299	2.1
373.15	35000	1301.9	2.2
373.15	40000	1304.8	2.2
373.15	45000	1307.5	2.2
373.15	50000	1310.3	2.2
373.15	55000	1312.9	2.2
373.15	60000	1315.5	2.3
393.15	100	1265.2	2.1
393.15	1000	1266.1	2.1
393.15	5000	1268.9	2.1
393.15	10000	1272.3	2.1
393.15	15000	1275.6	2.1
393.15	20000	1278.9	2.1
393.15	25000	1282	2.1
393.15	30000	1285.1	2.1
393.15	35000	1288.2	2.2
393.15	40000	1291.2	2.2
393.15	45000	1294.1	2.2
393.15	50000	1296.9	2.2
393.15	55000	1299.6	2.2
393.15	60000	1302.3	2.2
413.15	100	1250.9	2.1
413.15	1000	1251.6	2.1
413.15	5000	1254.5	2.1
413.15	10000	1258	2.1
413.15	15000	1261.5	2.1
413.15	20000	1264.9	2.1
413.15	25000	1268.3	2.1
413.15	30000	1271.5	2.1
413.15	35000	1274.7	2.2
413.15	40000	1277.8	2.2
413.15	45000	1280.8	2.2
413.15	50000	1283.7	2.2
413.15	55000	1286.6	2.2
413.15	60000	1289.3	2.2

System: 1-butyl-1-methylpyrrolidinium bis(fluorosulfonyl)amide; phases: Liquid
Property: Mass density, kg/m3 (Liquid); method: Vibrating tube method
Temperature, K	Pressure, kPa	Mass density, kg/m3	uncertainty
293.15	100	1310.6	0.9
293.15	1000	1311.1	0.9
293.15	5000	1313.2	0.9
293.15	10000	1315.8	0.9
293.15	15000	1318.4	1
293.15	20000	1320.9	1
293.15	25000	1323.4	1
293.15	30000	1325.9	1
293.15	35000	1328.3	1.1
293.15	40000	1330.7	1.1
293.15	45000	1333	1.1
293.15	50000	1335.3	1.2
293.15	55000	1337.6	1.2
293.15	60000	1339.9	1.3
303.15	100	1302.7	0.9
303.15	1000	1303.2	0.9
303.15	5000	1305.3	0.9
303.15	10000	1308	0.9
303.15	15000	1310.7	1
303.15	20000	1313.3	1
303.15	25000	1315.8	1
303.15	30000	1318.3	1
303.15	35000	1320.8	1.1
303.15	40000	1323.3	1.1
303.15	45000	1325.7	1.1
303.15	50000	1328	1.2
303.15	55000	1330.3	1.2
303.15	60000	1332.6	1.2
313.15	100	1294.8	0.9
313.15	1000	1295.3	0.9
313.15	5000	1297.6	0.9
313.15	10000	1300.3	0.9
313.15	15000	1303	1
313.15	20000	1305.7	1
313.15	25000	1308.3	1
313.15	30000	1310.9	1
313.15	35000	1313.4	1
313.15	40000	1315.9	1.1
313.15	45000	1318.4	1.1
313.15	50000	1320.8	1.1
313.15	55000	1323.1	1.2
313.15	60000	1325.5	1.2
323.15	100	1287.1	0.9
323.15	1000	1287.6	0.9
323.15	5000	1289.9	0.9
323.15	10000	1292.7	0.9
323.15	15000	1295.5	0.9
323.15	20000	1298.2	1
323.15	25000	1300.9	1
323.15	30000	1303.6	1
323.15	35000	1306.2	1
323.15	40000	1308.7	1.1
323.15	45000	1311.2	1.1
323.15	50000	1313.7	1.1
323.15	55000	1316.1	1.2
323.15	60000	1318.4	1.2
333.15	100	1279.4	0.9
333.15	1000	1279.9	0.9
333.15	5000	1282.3	0.9
333.15	10000	1285.2	0.9
333.15	15000	1288	0.9
333.15	20000	1290.8	1
333.15	25000	1293.6	1
333.15	30000	1296.3	1
333.15	35000	1298.9	1
333.15	40000	1301.5	1.1
333.15	45000	1304.1	1.1
333.15	50000	1306.6	1.1
333.15	55000	1309.1	1.2
333.15	60000	1311.5	1.2
343.15	100	1271.8	0.9
343.15	1000	1272.3	0.9
343.15	5000	1274.7	0.9
343.15	10000	1277.7	0.9
343.15	15000	1280.6	0.9
343.15	20000	1283.5	1
343.15	25000	1286.3	1
343.15	30000	1289.1	1
343.15	35000	1291.8	1
343.15	40000	1294.5	1.1
343.15	45000	1297.1	1.1
343.15	50000	1299.7	1.1
343.15	55000	1302.2	1.2
343.15	60000	1304.7	1.2
353.15	100	1264.2	0.9
353.15	1000	1264.8	0.9
353.15	5000	1267.3	0.9
353.15	10000	1270.3	0.9
353.15	15000	1273.3	0.9
353.15	20000	1276.3	1
353.15	25000	1279.2	1
353.15	30000	1282	1
353.15	35000	1284.8	1
353.15	40000	1287.5	1.1
353.15	45000	1290.2	1.1
353.15	50000	1292.8	1.1
353.15	55000	1295.4	1.1
353.15	60000	1297.9	1.2
363.15	100	1256.8	0.9
363.15	1000	1257.3	0.9
363.15	5000	1259.9	0.9
363.15	10000	1263	0.9
363.15	15000	1266.1	0.9
363.15	20000	1269.1	1
363.15	25000	1272.1	1
363.15	30000	1275	1
363.15	35000	1277.9	1
363.15	40000	1280.6	1
363.15	45000	1283.4	1.1
363.15	50000	1286.1	1.1
363.15	55000	1288.7	1.1
363.15	60000	1291.2	1.2
373.15	100	1248.9	2.1
373.15	1000	1249.8	2.1
373.15	5000	1252.5	2.1
373.15	10000	1255.7	2.1
373.15	15000	1258.8	2.1
373.15	20000	1261.9	2.1
373.15	25000	1265	2.1
373.15	30000	1268	2.1
373.15	35000	1270.9	2.2
373.15	40000	1273.7	2.2
373.15	45000	1276.5	2.2
373.15	50000	1279.3	2.2
373.15	55000	1282	2.2
373.15	60000	1284.6	2.2
393.15	100	1234.3	2.1
393.15	1000	1235.2	2.1
393.15	5000	1238	2.1
393.15	10000	1241.4	2.1
393.15	15000	1244.7	2.1
393.15	20000	1248	2.1
393.15	25000	1251.2	2.1
393.15	30000	1254.3	2.1
393.15	35000	1257.4	2.1
393.15	40000	1260.4	2.2
393.15	45000	1263.3	2.2
393.15	50000	1266.2	2.2
393.15	55000	1269	2.2
393.15	60000	1271.7	2.2
413.15	100	1220.3	2.1
413.15	1000	1220.9	2.1
413.15	5000	1223.9	2.1
413.15	10000	1227.4	2.1
413.15	15000	1230.9	2.1
413.15	20000	1234.4	2.1
413.15	25000	1237.7	2.1
413.15	30000	1241	2.1
413.15	35000	1244.2	2.1
413.15	40000	1247.3	2.2
413.15	45000	1250.4	2.2
413.15	50000	1253.4	2.2
413.15	55000	1256.3	2.2
413.15	60000	1259.1	2.2

System: 1-butyl-1-methylpyrrolidinium bis[(trifluoromethyl)sulfonyl]imide; phases: Liquid
Property: Mass density, kg/m3 (Liquid); method: Vibrating tube method
Temperature, K	Pressure, kPa	Mass density, kg/m3	uncertainty
293.15	100	1399.6	1
293.15	1000	1400.2	1.1
293.15	5000	1403	1.1
293.15	10000	1406.5	1.1
293.15	15000	1410	1.2
293.15	20000	1413.3	1.2
293.15	25000	1416.6	1.3
293.15	30000	1419.8	1.3
293.15	35000	1423	1.4
293.15	40000	1426	1.5
293.15	45000	1429.1	1.5
293.15	50000	1432	1.6
293.15	55000	1434.9	1.7
293.15	60000	1437.7	1.7
303.15	100	1390.5	1
303.15	1000	1391.2	1
303.15	5000	1394.1	1.1
303.15	10000	1397.7	1.1
303.15	15000	1401.2	1.2
303.15	20000	1404.7	1.2
303.15	25000	1408	1.3
303.15	30000	1411.3	1.3
303.15	35000	1414.5	1.4
303.15	40000	1417.7	1.4
303.15	45000	1420.8	1.5
303.15	50000	1423.8	1.6
303.15	55000	1426.7	1.6
303.15	60000	1429.6	1.7
313.15	100	1381.6	1
313.15	1000	1382.3	1
313.15	5000	1385.3	1.1
313.15	10000	1389	1.1
313.15	15000	1392.6	1.2
313.15	20000	1396.1	1.2
313.15	25000	1399.6	1.3
313.15	30000	1402.9	1.3
313.15	35000	1406.3	1.4
313.15	40000	1409.5	1.4
313.15	45000	1412.6	1.5
313.15	50000	1415.7	1.6
313.15	55000	1418.7	1.6
313.15	60000	1421.6	1.7
323.15	100	1372.7	1
323.15	1000	1373.4	1
323.15	5000	1376.6	1.1
323.15	10000	1380.4	1.1
323.15	15000	1384.1	1.2
323.15	20000	1387.7	1.2
323.15	25000	1391.3	1.2
323.15	30000	1394.7	1.3
323.15	35000	1398.1	1.4
323.15	40000	1401.4	1.4
323.15	45000	1404.6	1.5
323.15	50000	1407.8	1.5
323.15	55000	1410.8	1.6
323.15	60000	1413.8	1.7
333.15	100	1363.9	1
333.15	1000	1364.7	1
333.15	5000	1367.9	1.1
333.15	10000	1371.8	1.1
333.15	15000	1375.6	1.1
333.15	20000	1379.3	1.2
333.15	25000	1383	1.2
333.15	30000	1386.6	1.3
333.15	35000	1390	1.3
333.15	40000	1393.4	1.4
333.15	45000	1396.7	1.5
333.15	50000	1399.9	1.5
333.15	55000	1403.1	1.6
333.15	60000	1406.1	1.7
343.15	100	1355.3	1
343.15	1000	1356	1
343.15	5000	1359.3	1.1
343.15	10000	1363.3	1.1
343.15	15000	1367.3	1.1
343.15	20000	1371.1	1.2
343.15	25000	1374.9	1.2
343.15	30000	1378.5	1.3
343.15	35000	1382.1	1.3
343.15	40000	1385.5	1.4
343.15	45000	1388.9	1.4
343.15	50000	1392.2	1.5
343.15	55000	1395.4	1.6
343.15	60000	1398.5	1.6
353.15	100	1346.6	1
353.15	1000	1347.4	1
353.15	5000	1350.8	1.1
353.15	10000	1354.9	1.1
353.15	15000	1359	1.1
353.15	20000	1362.9	1.2
353.15	25000	1366.8	1.2
353.15	30000	1370.5	1.3
353.15	35000	1374.2	1.3
353.15	40000	1377.7	1.4
353.15	45000	1381.2	1.4
353.15	50000	1384.6	1.5
353.15	55000	1387.9	1.6
353.15	60000	1391	1.6
363.15	100	1338	1
363.15	1000	1338.8	1
363.15	5000	1342.3	1
363.15	10000	1346.6	1.1
363.15	15000	1350.7	1.1
363.15	20000	1354.8	1.2
363.15	25000	1358.7	1.2
363.15	30000	1362.6	1.3
363.15	35000	1366.3	1.3
363.15	40000	1370	1.4
363.15	45000	1373.5	1.4
363.15	50000	1377	1.5
363.15	55000	1380.3	1.5
363.15	60000	1383.6	1.6
373.15	100	1329	2.2
373.15	1000	1330.2	2.2
373.15	5000	1333.8	2.2
373.15	10000	1338.2	2.2
373.15	15000	1342.5	2.2
373.15	20000	1346.7	2.2
373.15	25000	1350.7	2.2
373.15	30000	1354.7	2.3
373.15	35000	1358.5	2.3
373.15	40000	1362.2	2.3
373.15	45000	1365.9	2.4
373.15	50000	1369.4	2.4
373.15	55000	1372.8	2.4
373.15	60000	1376.1	2.5
393.15	100	1312.3	2.1
393.15	1000	1313.5	2.2
393.15	5000	1317.3	2.2
393.15	10000	1321.9	2.2
393.15	15000	1326.4	2.2
393.15	20000	1330.8	2.2
393.15	25000	1335.1	2.2
393.15	30000	1339.3	2.3
393.15	35000	1343.3	2.3
393.15	40000	1347.3	2.3
393.15	45000	1351.1	2.3
393.15	50000	1354.7	2.4
393.15	55000	1358.3	2.4
393.15	60000	1361.7	2.4
413.15	100	1295.9	2.1
413.15	1000	1296.9	2.1
413.15	5000	1300.9	2.2
413.15	10000	1305.9	2.2
413.15	15000	1310.7	2.2
413.15	20000	1315.3	2.2
413.15	25000	1319.8	2.2
413.15	30000	1324.2	2.3
413.15	35000	1328.5	2.3
413.15	40000	1332.6	2.3
413.15	45000	1336.6	2.3
413.15	50000	1340.4	2.4
413.15	55000	1344.1	2.4
413.15	60000	1347.7	2.4
