Measured thermophysical data. Solubility and Preferential Solvation of Carbazochrome in Solvent Mixtures of N,N-Dimethylformamide Plus Methanol/Ethanol/n-Propanol and Dimethyl Sulfoxide Plus Water
Source: J. Chem. Eng. Data, 2018, 10.1021/acs.jced.7b00982
Compound 1: carbazochrome, C10H12N4O3, InChI=1S/C10H12N4O3/c1-14-4-9(16)5-2-6(12-13-10(11)17)8(15)3-7(5)14/h2-3,9,16H,4H2,1H3,(H3,11,13,17)/b12-6-, purity 98.6%
Compound 2: dimethylformamide, C3H7NO, InChI=1S/C3H7NO/c1-4(2)3-5/h3H,1-2H3, purity 99.4%
Compound 3: methanol, CH4O, InChI=1S/CH4O/c1-2/h2H,1H3, purity 99.5%
Compound 4: ethanol, C2H6O, InChI=1S/C2H6O/c1-2-3/h3H,2H2,1H3, purity 99.4%
Compound 5: propan-1-ol, C3H8O, InChI=1S/C3H8O/c1-2-3-4/h4H,2-3H2,1H3, purity 99.3%
Compound 6: dimethyl sulfoxide, C2H6OS, InChI=1S/C2H6OS/c1-4(2)3/h1-2H3, purity 99.3%
Compound 7: water, H2O, InChI=1S/H2O/h1H2, purity 99.9%

System: carbazochrome + dimethylformamide + methanol; phases: Liquid, Crystal
Fixed: Pressure, kPa = 101
Property: Mole fraction of carbazochrome (Liquid); method: Chromatography
Temperature, K	Solvent: Mass fraction of dimethylformamide	Mole fraction of carbazochrome	uncertainty
278.15	0	3.557e-05	1.067e-05
283.15	0	4.383e-05	1.315e-05
288.15	0	5.31e-05	1.593e-05
293.15	0	6.893e-05	2.068e-05
298.15	0	8.346e-05	2.504e-05
303.15	0	9.974e-05	2.993e-05
308.15	0	0.0001202	3.61e-05
313.15	0	0.000147	4.41e-05
318.15	0	0.000173	5.19e-05
278.15	0.1	5.831e-05	1.749e-05
283.15	0.1	7.168e-05	2.151e-05
288.15	0.1	8.609e-05	2.583e-05
293.15	0.1	0.0001103	3.31e-05
298.15	0.1	0.0001339	4.02e-05
303.15	0.1	0.0001567	4.7e-05
308.15	0.1	0.0001908	5.72e-05
313.15	0.1	0.0002291	6.87e-05
318.15	0.1	0.0002689	8.07e-05
278.15	0.2	8.877e-05	2.663e-05
283.15	0.2	0.0001091	3.27e-05
288.15	0.2	0.0001318	3.95e-05
293.15	0.2	0.0001607	4.82e-05
298.15	0.2	0.0002006	6.02e-05
303.15	0.2	0.0002401	7.2e-05
308.15	0.2	0.0002767	8.3e-05
313.15	0.2	0.0003316	9.95e-05
318.15	0.2	0.0003868	0.0001161
278.15	0.3	0.0001218	3.65e-05
283.15	0.3	0.0001544	4.63e-05
288.15	0.3	0.0002002	6.01e-05
293.15	0.3	0.0002401	7.2e-05
298.15	0.3	0.0002778	8.33e-05
303.15	0.3	0.0003354	0.0001006
308.15	0.3	0.0003831	0.0001149
313.15	0.3	0.0004643	0.0001393
318.15	0.3	0.0005427	0.0001628
278.15	0.4	0.0001766	5.3e-05
283.15	0.4	0.0002142	6.43e-05
288.15	0.4	0.0002605	7.82e-05
293.15	0.4	0.0003008	9.02e-05
298.15	0.4	0.0003666	0.00011
303.15	0.4	0.0004296	0.0001289
308.15	0.4	0.0005102	0.0001531
313.15	0.4	0.0006102	0.0001831
318.15	0.4	0.0007251	0.0002175
278.15	0.5	0.0002336	7.01e-05
283.15	0.5	0.0002908	8.72e-05
288.15	0.5	0.0003235	9.71e-05
293.15	0.5	0.0004019	0.0001206
298.15	0.5	0.0004721	0.0001416
303.15	0.5	0.0005608	0.0001683
308.15	0.5	0.0006615	0.0001985
313.15	0.5	0.0007851	0.0002356
318.15	0.5	0.0009316	0.0002795
278.15	0.6	0.0003048	9.15e-05
283.15	0.6	0.0003699	0.000111
288.15	0.6	0.0004249	0.0001275
293.15	0.6	0.0005208	0.0001563
298.15	0.6	0.0006104	0.0001831
303.15	0.6	0.0007041	0.0002112
308.15	0.6	0.0008201	0.0002461
313.15	0.6	0.0009893	0.0002968
318.15	0.6	0.00113	0.000339
278.15	0.7	0.0003851	0.0001155
283.15	0.7	0.0004719	0.0001416
288.15	0.7	0.0005561	0.0001668
293.15	0.7	0.0006472	0.0001942
298.15	0.7	0.0007766	0.000233
303.15	0.7	0.0008892	0.0002668
308.15	0.7	0.001031	0.000309
313.15	0.7	0.001242	0.000373
318.15	0.7	0.001407	0.000422
278.15	0.8	0.0005015	0.0001505
283.15	0.8	0.0006155	0.0001847
288.15	0.8	0.0007051	0.0002115
293.15	0.8	0.0008358	0.0002508
298.15	0.8	0.0009873	0.0002962
303.15	0.8	0.001131	0.000339
308.15	0.8	0.001296	0.000389
313.15	0.8	0.001576	0.000473
318.15	0.8	0.001863	0.000559
278.15	0.9	0.0006816	0.0002045
283.15	0.9	0.0008255	0.0002477
288.15	0.9	0.0009395	0.0002819
293.15	0.9	0.001105	0.000332
298.15	0.9	0.001288	0.000386
303.15	0.9	0.001485	0.000446
308.15	0.9	0.001698	0.000509
313.15	0.9	0.001948	0.000584
318.15	0.9	0.002422	0.000727
278.15	1	0.0009498	0.000285
283.15	1	0.001148	0.000344
288.15	1	0.001291	0.000387
293.15	1	0.001499	0.00045
298.15	1	0.00177	0.000531
303.15	1	0.002016	0.000605
308.15	1	0.00231	0.000693
313.15	1	0.002765	0.00083
318.15	1	0.003352	0.001006

System: carbazochrome + dimethylformamide + ethanol; phases: Liquid, Crystal
Fixed: Pressure, kPa = 101
Property: Mole fraction of carbazochrome (Liquid); method: Chromatography
Temperature, K	Solvent: Mass fraction of dimethylformamide	Mole fraction of carbazochrome	uncertainty
278.15	0	1.804e-05	5.41e-06
283.15	0	2.153e-05	6.46e-06
288.15	0	2.415e-05	7.25e-06
293.15	0	3.024e-05	9.07e-06
298.15	0	3.667e-05	1.1e-05
303.15	0	4.292e-05	1.288e-05
308.15	0	5.24e-05	1.572e-05
313.15	0	6.967e-05	2.09e-05
318.15	0	8.538e-05	2.562e-05
278.15	0.1	3.445e-05	1.034e-05
283.15	0.1	4.106e-05	1.232e-05
288.15	0.1	4.839e-05	1.452e-05
293.15	0.1	5.713e-05	1.714e-05
298.15	0.1	7.009e-05	2.103e-05
303.15	0.1	8.236e-05	2.471e-05
308.15	0.1	0.0001013	3.04e-05
313.15	0.1	0.0001281	3.84e-05
318.15	0.1	0.0001546	4.64e-05
278.15	0.2	5.731e-05	1.719e-05
283.15	0.2	6.821e-05	2.046e-05
288.15	0.2	7.8101e-05	2.3432e-05
293.15	0.2	9.321e-05	2.797e-05
298.15	0.2	0.0001118	3.35e-05
303.15	0.2	0.0001306	3.92e-05
308.15	0.2	0.0001603	4.81e-05
313.15	0.2	0.0001948	5.84e-05
318.15	0.2	0.0002429	7.29e-05
278.15	0.3	8.7e-05	2.61e-05
283.15	0.3	0.0001023	3.07e-05
288.15	0.3	0.0001218	3.65e-05
293.15	0.3	0.0001452	4.36e-05
298.15	0.3	0.0001714	5.14e-05
303.15	0.3	0.0002033	6.1e-05
308.15	0.3	0.0002431	7.29e-05
313.15	0.3	0.0002881	8.64e-05
318.15	0.3	0.0003529	0.0001059
278.15	0.4	0.0001251	3.75e-05
283.15	0.4	0.0001505	4.52e-05
288.15	0.4	0.0001784	5.35e-05
293.15	0.4	0.0002106	6.32e-05
298.15	0.4	0.0002425	7.28e-05
303.15	0.4	0.000289	8.67e-05
308.15	0.4	0.0003352	0.0001006
313.15	0.4	0.0004137	0.0001241
318.15	0.4	0.0005041	0.0001512
278.15	0.5	0.0001764	5.29e-05
283.15	0.5	0.0002129	6.39e-05
288.15	0.5	0.0002524	7.57e-05
293.15	0.5	0.0003003	9.01e-05
298.15	0.5	0.0003523	0.0001057
303.15	0.5	0.0004079	0.0001224
308.15	0.5	0.0004785	0.0001436
313.15	0.5	0.0005568	0.0001671
318.15	0.5	0.0006562	0.0001969
278.15	0.6	0.0002495	7.49e-05
283.15	0.6	0.0002935	8.81e-05
288.15	0.6	0.0003383	0.0001015
293.15	0.6	0.0003943	0.0001183
298.15	0.6	0.0004807	0.0001442
303.15	0.6	0.0005408	0.0001623
308.15	0.6	0.0006294	0.0001888
313.15	0.6	0.0007696	0.0002309
318.15	0.6	0.0009768	0.0002931
278.15	0.7	0.0003476	0.0001043
283.15	0.7	0.0004169	0.0001251
288.15	0.7	0.0004889	0.0001467
293.15	0.7	0.0005736	0.0001721
298.15	0.7	0.0006757	0.0002027
303.15	0.7	0.0007853	0.0002356
308.15	0.7	0.0009138	0.0002742
313.15	0.7	0.00108	0.000324
318.15	0.7	0.001318	0.000395
278.15	0.8	0.0004915	0.0001475
283.15	0.8	0.0005932	0.000178
288.15	0.8	0.0006734	0.000202
293.15	0.8	0.0008032	0.000241
298.15	0.8	0.0009258	0.0002778
303.15	0.8	0.001053	0.000316
308.15	0.8	0.001215	0.000365
313.15	0.8	0.001429	0.000429
318.15	0.8	0.001814	0.000544
278.15	0.9	0.0006942	0.0002083
283.15	0.9	0.00084	0.000252
288.15	0.9	0.000956	0.0002868
293.15	0.9	0.001103	0.000331
298.15	0.9	0.001287	0.000386
303.15	0.9	0.001453	0.000436
308.15	0.9	0.001691	0.000507
313.15	0.9	0.001985	0.000596
318.15	0.9	0.002416	0.000725
278.15	1	0.0009498	0.000285
283.15	1	0.001148	0.000344
288.15	1	0.001291	0.000387
293.15	1	0.001499	0.00045
298.15	1	0.00177	0.000531
303.15	1	0.002016	0.000605
308.15	1	0.00231	0.000693
313.15	1	0.002765	0.00083
318.15	1	0.003352	0.001006

System: carbazochrome + dimethylformamide + propan-1-ol; phases: Liquid, Crystal
Fixed: Pressure, kPa = 101
Property: Mole fraction of carbazochrome (Liquid); method: Chromatography
Temperature, K	Solvent: Mass fraction of dimethylformamide	Mole fraction of carbazochrome	uncertainty
278.15	0	1.755e-05	5.27e-06
283.15	0	2.048e-05	6.14e-06
288.15	0	2.414e-05	7.24e-06
293.15	0	2.766e-05	8.3e-06
298.15	0	3.183e-05	9.55e-06
303.15	0	3.656e-05	1.097e-05
308.15	0	4.498e-05	1.35e-05
313.15	0	5.919e-05	1.776e-05
318.15	0	7.313e-05	2.194e-05
278.15	0.1	3.016e-05	9.05e-06
283.15	0.1	3.578e-05	1.073e-05
288.15	0.1	4.13e-05	1.239e-05
293.15	0.1	4.664e-05	1.399e-05
298.15	0.1	5.433e-05	1.63e-05
303.15	0.1	6.201e-05	1.86e-05
308.15	0.1	7.602e-05	2.281e-05
313.15	0.1	9.889e-05	2.967e-05
318.15	0.1	0.0001213	3.64e-05
278.15	0.2	5.001e-05	1.5e-05
283.15	0.2	5.852e-05	1.756e-05
288.15	0.2	6.778e-05	2.034e-05
293.15	0.2	7.685e-05	2.306e-05
298.15	0.2	9.012e-05	2.704e-05
303.15	0.2	0.0001102	3.31e-05
308.15	0.2	0.0001304	3.91e-05
313.15	0.2	0.0001592	4.78e-05
318.15	0.2	0.0001974	5.92e-05
278.15	0.3	7.954e-05	2.386e-05
283.15	0.3	0.0001001	3e-05
288.15	0.3	0.0001115	3.35e-05
293.15	0.3	0.0001229	3.69e-05
298.15	0.3	0.0001505	4.52e-05
303.15	0.3	0.0001625	4.88e-05
308.15	0.3	0.0002006	6.02e-05
313.15	0.3	0.0002461	7.38e-05
318.15	0.3	0.0003024	9.07e-05
278.15	0.4	0.0001249	3.75e-05
283.15	0.4	0.0001463	4.39e-05
288.15	0.4	0.0001615	4.85e-05
293.15	0.4	0.0001897	5.69e-05
298.15	0.4	0.0002164	6.49e-05
303.15	0.4	0.0002471	7.41e-05
308.15	0.4	0.0002869	8.61e-05
313.15	0.4	0.0003707	0.0001112
318.15	0.4	0.0004526	0.0001358
278.15	0.5	0.0001781	5.34e-05
283.15	0.5	0.0002163	6.49e-05
288.15	0.5	0.0002378	7.13e-05
293.15	0.5	0.0002793	8.38e-05
298.15	0.5	0.0003209	9.63e-05
303.15	0.5	0.0003646	0.0001094
308.15	0.5	0.0004305	0.0001292
313.15	0.5	0.0005388	0.0001617
318.15	0.5	0.0006563	0.0001969
278.15	0.6	0.0002551	7.65e-05
283.15	0.6	0.0003063	9.19e-05
288.15	0.6	0.0003475	0.0001043
293.15	0.6	0.0003919	0.0001176
298.15	0.6	0.0004651	0.0001395
303.15	0.6	0.0005284	0.0001585
308.15	0.6	0.0006153	0.0001846
313.15	0.6	0.0007581	0.0002275
318.15	0.6	0.0009635	0.0002891
278.15	0.7	0.0003573	0.0001072
283.15	0.7	0.0004373	0.0001312
288.15	0.7	0.0004895	0.0001469
293.15	0.7	0.0005588	0.0001677
298.15	0.7	0.0006901	0.000207
303.15	0.7	0.0007416	0.0002225
308.15	0.7	0.0008581	0.0002575
313.15	0.7	0.001065	0.00032
318.15	0.7	0.001295	0.000389
278.15	0.8	0.0005002	0.0001501
283.15	0.8	0.0005923	0.0001777
288.15	0.8	0.0006643	0.0001993
293.15	0.8	0.0007817	0.0002345
298.15	0.8	0.0009024	0.0002707
303.15	0.8	0.0009979	0.0002994
308.15	0.8	0.001191	0.000357
313.15	0.8	0.001422	0.000427
318.15	0.8	0.001734	0.00052
278.15	0.9	0.0006759	0.0002028
283.15	0.9	0.0008252	0.0002476
288.15	0.9	0.0009271	0.0002782
293.15	0.9	0.0011	0.00033
298.15	0.9	0.001267	0.00038
303.15	0.9	0.00144	0.000432
308.15	0.9	0.001652	0.000496
313.15	0.9	0.001997	0.000599
318.15	0.9	0.002418	0.000725
278.15	1	0.0009498	0.000285
283.15	1	0.001148	0.000344
288.15	1	0.001291	0.000387
293.15	1	0.001499	0.00045
298.15	1	0.00177	0.000531
303.15	1	0.002016	0.000605
308.15	1	0.00231	0.000693
313.15	1	0.002765	0.00083
318.15	1	0.003352	0.001006

System: carbazochrome + dimethyl sulfoxide + water; phases: Liquid, Crystal
Fixed: Pressure, kPa = 101
Property: Mole fraction of carbazochrome (Liquid); method: Chromatography
Temperature, K	Solvent: Mass fraction of dimethyl sulfoxide	Mole fraction of carbazochrome	uncertainty
278.15	0	2.811e-05	8.43e-06
283.15	0	3.256e-05	9.77e-06
288.15	0	3.783e-05	1.135e-05
293.15	0	4.399e-05	1.32e-05
298.15	0	5.155e-05	1.547e-05
303.15	0	6.025e-05	1.808e-05
308.15	0	6.873e-05	2.062e-05
313.15	0	7.976e-05	2.393e-05
318.15	0	9.688e-05	2.907e-05
278.15	0.1	6.954e-05	2.086e-05
283.15	0.1	7.958e-05	2.388e-05
288.15	0.1	9.355e-05	2.807e-05
293.15	0.1	0.0001164	3.49e-05
298.15	0.1	0.0001309	3.93e-05
303.15	0.1	0.0001499	4.5e-05
308.15	0.1	0.0001722	5.17e-05
313.15	0.1	0.0002009	6.03e-05
318.15	0.1	0.0002794	8.383e-05
278.15	0.2	0.0001186	3.56e-05
283.15	0.2	0.0001397	4.19e-05
288.15	0.2	0.0001644	4.93e-05
293.15	0.2	0.0001891	5.67e-05
298.15	0.2	0.0002184	6.55e-05
303.15	0.2	0.0002541	7.62e-05
308.15	0.2	0.0002728	8.18e-05
313.15	0.2	0.000319	9.57e-05
318.15	0.2	0.0003463	0.0001039
278.15	0.3	0.0001717	5.15e-05
283.15	0.3	0.0001971	5.91e-05
288.15	0.3	0.0002276	6.83e-05
293.15	0.3	0.0002687	8.06e-05
298.15	0.3	0.0003115	9.35e-05
303.15	0.3	0.0003583	0.0001075
308.15	0.3	0.0004181	0.0001254
313.15	0.3	0.0004682	0.0001405
318.15	0.3	0.0005869	0.0001761
278.15	0.4	0.0002175	6.53e-05
283.15	0.4	0.0002604	7.81e-05
288.15	0.4	0.0003082	9.25e-05
293.15	0.4	0.0003493	0.0001048
298.15	0.4	0.0004068	0.000122
303.15	0.4	0.0004681	0.0001404
308.15	0.4	0.0005461	0.0001638
313.15	0.4	0.0006178	0.0001854
318.15	0.4	0.0007161	0.0002149
278.15	0.5	0.0002878	8.63e-05
283.15	0.5	0.0003433	0.000103
288.15	0.5	0.0004031	0.0001209
293.15	0.5	0.0004752	0.0001426
298.15	0.5	0.0005472	0.0001642
303.15	0.5	0.0006341	0.0001902
308.15	0.5	0.0007373	0.0002212
313.15	0.5	0.0008221	0.0002467
318.15	0.5	0.001043	0.000313
278.15	0.6	0.0004351	0.0001305
283.15	0.6	0.0005042	0.0001513
288.15	0.6	0.0005883	0.0001765
293.15	0.6	0.0006981	0.0002094
298.15	0.6	0.0008151	0.0002445
303.15	0.6	0.0009483	0.0002845
308.15	0.6	0.001172	0.000352
313.15	0.6	0.001231	0.000369
318.15	0.6	0.001395	0.000419
278.15	0.7	0.0007428	0.0002228
283.15	0.7	0.0009019	0.0002706
288.15	0.7	0.001023	0.000307
293.15	0.7	0.001175	0.000353
298.15	0.7	0.001327	0.000398
303.15	0.7	0.001584	0.000475
308.15	0.7	0.001765	0.00053
313.15	0.7	0.001996	0.000599
318.15	0.7	0.002006	0.000602
278.15	0.8	0.001452	0.000436
283.15	0.8	0.00162	0.000486
288.15	0.8	0.001977	0.000593
293.15	0.8	0.002261	0.000678
298.15	0.8	0.002587	0.000776
303.15	0.8	0.002939	0.000882
308.15	0.8	0.003466	0.00104
313.15	0.8	0.003795	0.001139
318.15	0.8	0.004267	0.00128
278.15	0.9	0.003162	0.000949
283.15	0.9	0.003522	0.001057
288.15	0.9	0.004185	0.001256
293.15	0.9	0.004742	0.001423
298.15	0.9	0.005509	0.001653
303.15	0.9	0.006166	0.00185
308.15	0.9	0.007043	0.002113
313.15	0.9	0.007855	0.002357
318.15	0.9	0.008577	0.002574
278.15	1	0.006194	0.001858
283.15	1	0.007296	0.002189
288.15	1	0.008634	0.00259
293.15	1	0.01002	0.00301
298.15	1	0.01128	0.00338
303.15	1	0.01289	0.00387
308.15	1	0.01455	0.00437
313.15	1	0.01594	0.00478
318.15	1	0.01739	0.00522

System: carbazochrome + methanol; phases: Liquid, Crystal
Fixed: Pressure, kPa = 101
Property: Mole fraction of carbazochrome (Liquid); method: Chromatography
Temperature, K	Mole fraction of carbazochrome	uncertainty
278.15	3.557e-05	1.067e-05
283.15	4.383e-05	1.315e-05
288.15	5.31e-05	1.593e-05
293.15	6.893e-05	2.068e-05
298.15	8.346e-05	2.504e-05
303.15	9.974e-05	2.993e-05
308.15	0.0001202	3.61e-05
313.15	0.000147	4.41e-05
318.15	0.000173	5.19e-05

System: carbazochrome + dimethylformamide; phases: Liquid, Crystal
Fixed: Pressure, kPa = 101
Property: Mole fraction of carbazochrome (Liquid); method: Chromatography
Temperature, K	Mole fraction of carbazochrome	uncertainty
278.15	0.0009498	0.000285
283.15	0.001148	0.000344
288.15	0.001291	0.000387
293.15	0.001499	0.00045
298.15	0.00177	0.000531
303.15	0.002016	0.000605
308.15	0.00231	0.000693
313.15	0.002765	0.00083
318.15	0.003352	0.001006

System: carbazochrome + ethanol; phases: Liquid, Crystal
Fixed: Pressure, kPa = 101
Property: Mole fraction of carbazochrome (Liquid); method: Chromatography
Temperature, K	Mole fraction of carbazochrome	uncertainty
278.15	1.804e-05	5.41e-06
283.15	2.153e-05	6.46e-06
288.15	2.415e-05	7.25e-06
293.15	3.024e-05	9.07e-06
298.15	3.667e-05	1.1e-05
303.15	4.292e-05	1.288e-05
308.15	5.24e-05	1.572e-05
313.15	6.967e-05	2.09e-05
318.15	8.538e-05	2.562e-05

System: carbazochrome + propan-1-ol; phases: Liquid, Crystal
Fixed: Pressure, kPa = 101
Property: Mole fraction of carbazochrome (Liquid); method: Chromatography
Temperature, K	Mole fraction of carbazochrome	uncertainty
278.15	1.755e-05	5.27e-06
283.15	2.048e-05	6.14e-06
288.15	2.414e-05	7.24e-06
293.15	2.766e-05	8.3e-06
298.15	3.183e-05	9.55e-06
303.15	3.656e-05	1.097e-05
308.15	4.498e-05	1.35e-05
313.15	5.919e-05	1.776e-05
318.15	7.313e-05	2.194e-05

System: carbazochrome + water; phases: Liquid, Crystal
Fixed: Pressure, kPa = 101
Property: Mole fraction of carbazochrome (Liquid); method: Chromatography
Temperature, K	Mole fraction of carbazochrome	uncertainty
278.15	2.811e-05	8.43e-06
283.15	3.256e-05	9.77e-06
288.15	3.783e-05	1.135e-05
293.15	4.399e-05	1.32e-05
298.15	5.155e-05	1.547e-05
303.15	6.025e-05	1.808e-05
308.15	6.873e-05	2.062e-05
313.15	7.976e-05	2.393e-05
318.15	9.688e-05	2.907e-05

System: carbazochrome + dimethyl sulfoxide; phases: Liquid, Crystal
Fixed: Pressure, kPa = 101
Property: Mole fraction of carbazochrome (Liquid); method: Chromatography
Temperature, K	Mole fraction of carbazochrome	uncertainty
278.15	0.006194	0.001858
283.15	0.007296	0.002189
288.15	0.008634	0.00259
293.15	0.01002	0.00301
298.15	0.01128	0.00338
303.15	0.01289	0.00387
308.15	0.01455	0.00437
313.15	0.01594	0.00478
318.15	0.01739	0.00522
