Measured thermophysical data. Density and Viscosity Study of Interactions of Some Amino Acids in Aqueous Solutions of Sodium Benzoate
Source: J. Chem. Eng. Data, 2016, 10.1021/acs.jced.5b01031
Compound 1: sodium benzoate, C7H5NaO2, InChI=1S/C7H6O2.Na/c8-7(9)6-4-2-1-3-5-6;/h1-5H,(H,8,9);/q;+1/p-1, purity 99.5%
Compound 2: 2-aminoacetic acid, C2H5NO2, InChI=1S/C2H5NO2/c3-1-2(4)5/h1,3H2,(H,4,5), purity 99%
Compound 3: (S)-2-aminopropanoic acid, C3H7NO2, InChI=1S/C3H7NO2/c1-2(4)3(5)6/h2H,4H2,1H3,(H,5,6)/t2-/m0/s1, purity 99.5%
Compound 4: L-valine, C5H11NO2, InChI=1S/C5H11NO2/c1-3(2)4(6)5(7)8/h3-4H,6H2,1-2H3,(H,7,8)/t4-/m0/s1, purity 99.5%
Compound 5: water, H2O, InChI=1S/H2O/h1H2, purity 99.8%

System: water; phases: Liquid
Fixed: Pressure, kPa = 81.5
Property: Mass density, kg/m3 (Liquid); method: Vibrating tube method
Temperature, K	Mass density, kg/m3	uncertainty
303.15	995.64	0.3
308.15	994.02	0.3
313.15	992.16	0.3
303.15	995.63	0.3
308.15	994.01	0.3

System: 2-aminoacetic acid + sodium benzoate + water; phases: Liquid
Fixed: Pressure, kPa = 81.5
Property: Mass density, kg/m3 (Liquid); method: Vibrating tube method
Solvent: Molality, mol/kg of sodium benzoate	Temperature, K	Molality, mol/kg of 2-aminoacetic acid	Mass density, kg/m3	uncertainty
0	303.15	0	995.64	0.31
0	303.15	0.1001	998.79	0.31
0	303.15	0.1498	1000.34	0.31
0	303.15	0.1998	1001.88	0.31
0	303.15	0.2497	1003.42	0.31
0	303.15	0.2999	1004.95	0.31
0	303.15	0.3502	1006.44	0.31
0	303.15	0.4005	1007.94	0.31
0	303.15	0.45	1009.44	0.31
0	303.15	0.4993	1010.87	0.31
0	308.15	0	994.02	0.31
0	308.15	0.1001	997.12	0.31
0	308.15	0.1498	998.65	0.31
0	308.15	0.1998	1000.16	0.31
0	308.15	0.2497	1001.68	0.31
0	308.15	0.2999	1003.19	0.31
0	308.15	0.3502	1004.66	0.31
0	308.15	0.4005	1006.15	0.31
0	308.15	0.45	1007.62	0.31
0	308.15	0.4993	1009.05	0.31
0	313.15	0	992.16	0.31
0	313.15	0.1001	995.14	0.31
0	313.15	0.1498	996.61	0.31
0	313.15	0.1998	998.06	0.31
0	313.15	0.2497	999.5	0.31
0	313.15	0.2999	1000.94	0.31
0	313.15	0.3502	1002.34	0.31
0	313.15	0.4005	1003.74	0.31
0	313.15	0.45	1005.12	0.31
0	313.15	0.4993	1006.46	0.31
0.1011	303.15	0	1001.3	0.31
0.1011	303.15	0.1002	1004.44	0.31
0.1011	303.15	0.15	1005.98	0.31
0.1011	303.15	0.1997	1007.5	0.31
0.1011	303.15	0.2498	1009.02	0.31
0.1011	303.15	0.3001	1010.53	0.31
0.1011	303.15	0.3494	1011.99	0.31
0.1011	303.15	0.3994	1013.47	0.31
0.1011	303.15	0.449	1014.92	0.31
0.1011	303.15	0.4976	1016.32	0.31
0.1011	308.15	0	999.62	0.31
0.1011	308.15	0.1002	1002.75	0.31
0.1011	308.15	0.15	1004.28	0.31
0.1011	308.15	0.1997	1005.79	0.31
0.1011	308.15	0.2498	1007.3	0.31
0.1011	308.15	0.3001	1008.79	0.31
0.1011	308.15	0.3494	1010.25	0.31
0.1011	308.15	0.3994	1011.7	0.31
0.1011	308.15	0.449	1013.14	0.31
0.1011	308.15	0.4976	1014.53	0.31
0.1011	313.15	0	997.51	0.31
0.1011	313.15	0.1002	1000.76	0.31
0.1011	313.15	0.15	1002.33	0.31
0.1011	313.15	0.1997	1003.87	0.31
0.1011	313.15	0.2498	1005.37	0.31
0.1011	313.15	0.3001	1006.87	0.31
0.1011	313.15	0.3494	1008.29	0.31
0.1011	313.15	0.3994	1009.71	0.31
0.1011	313.15	0.449	1011.11	0.31
0.1011	313.15	0.4976	1012.43	0.31
0.3088	303.15	0	1012.49	0.31
0.3088	303.15	0.1	1015.61	0.31
0.3088	303.15	0.1502	1017.14	0.31
0.3088	303.15	0.1998	1018.64	0.32
0.3088	303.15	0.2503	1020.15	0.32
0.3088	303.15	0.3003	1021.62	0.32
0.3088	303.15	0.3489	1023.03	0.32
0.3088	303.15	0.3998	1024.5	0.32
0.3088	303.15	0.4495	1025.91	0.32
0.3088	303.15	0.4992	1027.3	0.32
0.3088	308.15	0	1010.6	0.31
0.3088	308.15	0.1	1013.75	0.31
0.3088	308.15	0.1502	1015.29	0.31
0.3088	308.15	0.1998	1016.79	0.31
0.3088	308.15	0.2503	1018.3	0.32
0.3088	308.15	0.3003	1019.77	0.32
0.3088	308.15	0.3489	1021.18	0.32
0.3088	308.15	0.3998	1022.64	0.32
0.3088	308.15	0.4495	1024.04	0.32
0.3088	308.15	0.4992	1025.42	0.32
0.3088	313.15	0	1008.53	0.31
0.3088	313.15	0.1	1011.71	0.31
0.3088	313.15	0.1502	1013.26	0.31
0.3088	313.15	0.1998	1014.77	0.31
0.3088	313.15	0.2503	1016.27	0.31
0.3088	313.15	0.3003	1017.73	0.31
0.3088	313.15	0.3489	1019.13	0.32
0.3088	313.15	0.3998	1020.56	0.32
0.3088	313.15	0.4495	1021.93	0.32
0.3088	313.15	0.4992	1023.27	0.32
0.5245	303.15	0	1023.51	0.32
0.5245	303.15	0.1003	1026.64	0.32
0.5245	303.15	0.1502	1028.16	0.32
0.5245	303.15	0.1997	1029.65	0.32
0.5245	303.15	0.25	1031.14	0.32
0.5245	303.15	0.3003	1032.61	0.32
0.5245	303.15	0.3496	1034.03	0.32
0.5245	303.15	0.3996	1035.45	0.32
0.5245	303.15	0.4496	1036.85	0.32
0.5245	303.15	0.4987	1038.2	0.32
0.5245	308.15	0	1021.49	0.32
0.5245	308.15	0.1003	1024.64	0.32
0.5245	308.15	0.1502	1026.16	0.32
0.5245	308.15	0.1997	1027.65	0.32
0.5245	308.15	0.25	1029.13	0.32
0.5245	308.15	0.3003	1030.59	0.32
0.5245	308.15	0.3496	1031.99	0.32
0.5245	308.15	0.3996	1033.39	0.32
0.5245	308.15	0.4496	1034.76	0.32
0.5245	308.15	0.4987	1036.09	0.32
0.5245	313.15	0	1019.94	0.32
0.5245	313.15	0.1003	1023.18	0.32
0.5245	313.15	0.1502	1024.75	0.32
0.5245	313.15	0.1997	1026.28	0.32
0.5245	313.15	0.25	1027.81	0.32
0.5245	313.15	0.3003	1029.31	0.32
0.5245	313.15	0.3496	1030.76	0.32
0.5245	313.15	0.3996	1032.21	0.32
0.5245	313.15	0.4496	1033.64	0.32
0.5245	313.15	0.4987	1035.01	0.32

System: 2-aminoacetic acid + sodium benzoate + water; phases: Liquid
Fixed: Pressure, kPa = 81.5
Property: Viscosity, Pa*s (Liquid); method: Capillary tube (Ostwald; Ubbelohde) method
Solvent: Molality, mol/kg of sodium benzoate	Temperature, K	Molality, mol/kg of 2-aminoacetic acid	Viscosity, Pa*s	uncertainty
0.1011	303.15	0	0.000845	8e-05
0.1011	303.15	0.1002	0.000859	8e-05
0.1011	303.15	0.15	0.000866	8e-05
0.1011	303.15	0.1997	0.000872	8e-05
0.1011	303.15	0.2498	0.000879	8e-05
0.1011	303.15	0.3001	0.000886	8e-05
0.1011	303.15	0.3494	0.000893	8e-05
0.1011	303.15	0.3994	0.000899	8e-05
0.1011	303.15	0.449	0.000906	8e-05
0.1011	303.15	0.4976	0.000913	8e-05
0.1011	308.15	0	0.000758	8e-05
0.1011	308.15	0.1002	0.000776	8e-05
0.1011	308.15	0.15	0.000783	8e-05
0.1011	308.15	0.1997	0.00079	8e-05
0.1011	308.15	0.2498	0.000796	8e-05
0.1011	308.15	0.3001	0.000803	8e-05
0.1011	308.15	0.3494	0.000809	8e-05
0.1011	308.15	0.3994	0.000816	8e-05
0.1011	308.15	0.449	0.000823	8e-05
0.1011	308.15	0.4976	0.000829	8e-05
0.1011	313.15	0	0.000691	8e-05
0.1011	313.15	0.1002	0.00071	8e-05
0.1011	313.15	0.15	0.000716	8e-05
0.1011	313.15	0.1997	0.000723	8e-05
0.1011	313.15	0.2498	0.000729	8e-05
0.1011	313.15	0.3001	0.000736	8e-05
0.1011	313.15	0.3494	0.000742	8e-05
0.1011	313.15	0.3994	0.000749	8e-05
0.1011	313.15	0.449	0.000755	8e-05
0.1011	313.15	0.4976	0.000762	8e-05
0.3088	303.15	0	0.000931	8e-05
0.3088	303.15	0.1	0.00094	8e-05
0.3088	303.15	0.1502	0.000947	8e-05
0.3088	303.15	0.1998	0.000953	8e-05
0.3088	303.15	0.2503	0.00096	8e-05
0.3088	303.15	0.3003	0.000967	8e-05
0.3088	303.15	0.3489	0.000974	8e-05
0.3088	303.15	0.3998	0.000981	8e-05
0.3088	303.15	0.4495	0.000988	8e-05
0.3088	303.15	0.4992	0.000995	8e-05
0.3088	308.15	0	0.000837	8e-05
0.3088	308.15	0.1	0.000845	8e-05
0.3088	308.15	0.1502	0.000852	8e-05
0.3088	308.15	0.1998	0.000859	8e-05
0.3088	308.15	0.2503	0.000865	8e-05
0.3088	308.15	0.3003	0.000872	8e-05
0.3088	308.15	0.3489	0.000879	8e-05
0.3088	308.15	0.3998	0.000886	8e-05
0.3088	308.15	0.4495	0.000892	8e-05
0.3088	308.15	0.4992	0.000899	8e-05
0.3088	313.15	0	0.000753	8e-05
0.3088	313.15	0.1	0.000767	8e-05
0.3088	313.15	0.1502	0.000773	8e-05
0.3088	313.15	0.1998	0.00078	8e-05
0.3088	313.15	0.2503	0.000787	8e-05
0.3088	313.15	0.3003	0.000793	8e-05
0.3088	313.15	0.3489	0.0008	8e-05
0.3088	313.15	0.3998	0.000807	8e-05
0.3088	313.15	0.4495	0.000813	8e-05
0.3088	313.15	0.4992	0.00082	8e-05
0.5245	303.15	0	0.001019	8e-05
0.5245	303.15	0.1003	0.001033	8e-05
0.5245	303.15	0.1502	0.00104	8e-05
0.5245	303.15	0.1997	0.001047	8e-05
0.5245	303.15	0.25	0.001054	8e-05
0.5245	303.15	0.3003	0.001061	8e-05
0.5245	303.15	0.3496	0.001068	8e-05
0.5245	303.15	0.3996	0.001075	8e-05
0.5245	303.15	0.4496	0.001082	8e-05
0.5245	303.15	0.4987	0.001089	8e-05
0.5245	308.15	0	0.000912	8e-05
0.5245	308.15	0.1003	0.000926	8e-05
0.5245	308.15	0.1502	0.000933	8e-05
0.5245	308.15	0.1997	0.00094	8e-05
0.5245	308.15	0.25	0.000947	8e-05
0.5245	308.15	0.3003	0.000954	8e-05
0.5245	308.15	0.3496	0.000961	8e-05
0.5245	308.15	0.3996	0.000968	8e-05
0.5245	308.15	0.4496	0.000974	8e-05
0.5245	308.15	0.4987	0.000981	8e-05
0.5245	313.15	0	0.000817	8e-05
0.5245	313.15	0.1003	0.000831	8e-05
0.5245	313.15	0.1502	0.000838	8e-05
0.5245	313.15	0.1997	0.000845	8e-05
0.5245	313.15	0.25	0.000851	8e-05
0.5245	313.15	0.3003	0.000858	8e-05
0.5245	313.15	0.3496	0.000865	8e-05
0.5245	313.15	0.3996	0.000872	8e-05
0.5245	313.15	0.4496	0.000879	8e-05
0.5245	313.15	0.4987	0.000885	8e-05

System: (S)-2-aminopropanoic acid + sodium benzoate + water; phases: Liquid
Fixed: Pressure, kPa = 81.5
Property: Mass density, kg/m3 (Liquid); method: Vibrating tube method
Solvent: Molality, mol/kg of sodium benzoate	Temperature, K	Molality, mol/kg of (S)-2-aminopropanoic acid	Mass density, kg/m3	uncertainty
0	303.15	0	995.63	0.31
0	303.15	0.1001	998.46	0.31
0	303.15	0.1501	999.85	0.31
0	303.15	0.1998	1001.23	0.31
0	303.15	0.2502	1002.6	0.31
0	303.15	0.3	1003.96	0.31
0	303.15	0.3501	1005.32	0.31
0	303.15	0.3986	1006.62	0.31
0	303.15	0.4493	1007.97	0.31
0	303.15	0.4994	1009.28	0.31
0	308.15	0	994.01	0.31
0	308.15	0.1001	996.83	0.31
0	308.15	0.1501	998.21	0.31
0	308.15	0.1998	999.58	0.31
0	308.15	0.2502	1000.94	0.31
0	308.15	0.3	1002.29	0.31
0	308.15	0.3501	1003.64	0.31
0	308.15	0.3986	1004.93	0.31
0	308.15	0.4493	1006.27	0.31
0	308.15	0.4994	1007.56	0.31
0	313.15	0	992.16	0.31
0	313.15	0.1001	995	0.31
0	313.15	0.1501	996.39	0.31
0	313.15	0.1998	997.76	0.31
0	313.15	0.2502	999.11	0.31
0	313.15	0.3	1000.45	0.31
0	313.15	0.3501	1001.77	0.31
0	313.15	0.3986	1003.07	0.31
0	313.15	0.4493	1004.36	0.31
0	313.15	0.4994	1005.62	0.31
0.1011	303.15	0	1001.31	0.31
0.1011	303.15	0.1002	1004.14	0.31
0.1011	303.15	0.1499	1005.52	0.31
0.1011	303.15	0.1998	1006.89	0.31
0.1011	303.15	0.2497	1008.25	0.31
0.1011	303.15	0.2997	1009.59	0.31
0.1011	303.15	0.3501	1010.93	0.31
0.1011	303.15	0.3985	1012.2	0.31
0.1011	303.15	0.4493	1013.51	0.31
0.1011	303.15	0.4987	1014.78	0.31
0.1011	308.15	0	999.49	0.31
0.1011	308.15	0.1002	1002.38	0.31
0.1011	308.15	0.1499	1003.78	0.31
0.1011	308.15	0.1998	1005.16	0.31
0.1011	308.15	0.2497	1006.52	0.31
0.1011	308.15	0.2997	1007.87	0.31
0.1011	308.15	0.3501	1009.19	0.31
0.1011	308.15	0.3985	1010.45	0.31
0.1011	308.15	0.4493	1011.75	0.31
0.1011	308.15	0.4987	1012.99	0.31
0.1011	313.15	0	997.51	0.31
0.1011	313.15	0.1002	1000.44	0.31
0.1011	313.15	0.1499	1001.85	0.31
0.1011	313.15	0.1998	1003.24	0.31
0.1011	313.15	0.2497	1004.6	0.31
0.1011	313.15	0.2997	1005.94	0.31
0.1011	313.15	0.3501	1007.26	0.31
0.1011	313.15	0.3985	1008.52	0.31
0.1011	313.15	0.4493	1009.79	0.31
0.1011	313.15	0.4987	1010.99	0.31
0.3088	303.15	0	1012.49	0.31
0.3088	303.15	0.1002	1015.3	0.31
0.3088	303.15	0.1498	1016.66	0.31
0.3088	303.15	0.1992	1018	0.31
0.3088	303.15	0.25	1019.35	0.31
0.3088	303.15	0.2998	1020.66	0.31
0.3088	303.15	0.3497	1021.95	0.31
0.3088	303.15	0.3992	1023.22	0.31
0.3088	303.15	0.4494	1024.48	0.31
0.3088	303.15	0.4991	1025.72	0.31
0.3088	308.15	0	1010.59	0.31
0.3088	308.15	0.1002	1013.44	0.31
0.3088	308.15	0.1498	1014.81	0.31
0.3088	308.15	0.1992	1016.15	0.31
0.3088	308.15	0.25	1017.51	0.31
0.3088	308.15	0.2998	1018.81	0.31
0.3088	308.15	0.3497	1020.09	0.31
0.3088	308.15	0.3992	1021.34	0.31
0.3088	308.15	0.4494	1022.58	0.31
0.3088	308.15	0.4991	1023.79	0.31
0.3088	313.15	0	1008.16	0.31
0.3088	313.15	0.1002	1011.23	0.31
0.3088	313.15	0.1498	1012.68	0.31
0.3088	313.15	0.1992	1014.08	0.31
0.3088	313.15	0.25	1015.46	0.31
0.3088	313.15	0.2998	1016.77	0.31
0.3088	313.15	0.3497	1018.04	0.31
0.3088	313.15	0.3992	1019.27	0.31
0.3088	313.15	0.4494	1020.49	0.31
0.3088	313.15	0.4991	1021.63	0.31
0.5245	303.15	0	1023.61	0.31
0.5245	303.15	0.1001	1026.35	0.31
0.5245	303.15	0.15	1027.68	0.31
0.5245	303.15	0.1995	1028.98	0.31
0.5245	303.15	0.2496	1030.28	0.31
0.5245	303.15	0.3	1031.56	0.31
0.5245	303.15	0.3495	1032.8	0.31
0.5245	303.15	0.3998	1034.04	0.31
0.5245	303.15	0.45	1035.26	0.31
0.5245	303.15	0.4986	1036.43	0.31
0.5245	308.15	0	1021.52	0.31
0.5245	308.15	0.1001	1024.34	0.31
0.5245	308.15	0.15	1025.7	0.31
0.5245	308.15	0.1995	1027.01	0.31
0.5245	308.15	0.2496	1028.32	0.31
0.5245	308.15	0.3	1029.6	0.31
0.5245	308.15	0.3495	1030.84	0.31
0.5245	308.15	0.3998	1032.06	0.31
0.5245	308.15	0.45	1033.26	0.31
0.5245	308.15	0.4986	1034.39	0.31
0.5245	313.15	0	1019.94	0.31
0.5245	313.15	0.1001	1022.89	0.31
0.5245	313.15	0.15	1024.29	0.31
0.5245	313.15	0.1995	1025.63	0.31
0.5245	313.15	0.2496	1026.95	0.31
0.5245	313.15	0.3	1028.23	0.31
0.5245	313.15	0.3495	1029.45	0.31
0.5245	313.15	0.3998	1030.65	0.31
0.5245	313.15	0.45	1031.82	0.31
0.5245	313.15	0.4986	1032.92	0.31

System: (S)-2-aminopropanoic acid + sodium benzoate + water; phases: Liquid
Fixed: Pressure, kPa = 81.5
Property: Viscosity, Pa*s (Liquid); method: Capillary tube (Ostwald; Ubbelohde) method
Solvent: Molality, mol/kg of sodium benzoate	Temperature, K	Molality, mol/kg of (S)-2-aminopropanoic acid	Viscosity, Pa*s	uncertainty
0.1011	303.15	0	0.00084	8e-05
0.1011	303.15	0.1002	0.000859	8e-05
0.1011	303.15	0.1499	0.000871	8e-05
0.1011	303.15	0.1998	0.000883	8e-05
0.1011	303.15	0.2497	0.000895	8e-05
0.1011	303.15	0.2997	0.000907	8e-05
0.1011	303.15	0.3501	0.000919	8e-05
0.1011	303.15	0.3985	0.000931	8e-05
0.1011	303.15	0.4493	0.000943	8e-05
0.1011	303.15	0.4987	0.000955	8e-05
0.1011	308.15	0	0.000758	8e-05
0.1011	308.15	0.1002	0.000776	8e-05
0.1011	308.15	0.1499	0.000788	8e-05
0.1011	308.15	0.1998	0.0008	8e-05
0.1011	308.15	0.2497	0.000812	8e-05
0.1011	308.15	0.2997	0.000824	8e-05
0.1011	308.15	0.3501	0.000836	8e-05
0.1011	308.15	0.3985	0.000848	8e-05
0.1011	308.15	0.4493	0.00086	8e-05
0.1011	308.15	0.4987	0.000872	8e-05
0.1011	313.15	0	0.000686	8e-05
0.1011	313.15	0.1002	0.000709	8e-05
0.1011	313.15	0.1499	0.000721	8e-05
0.1011	313.15	0.1998	0.000733	8e-05
0.1011	313.15	0.2497	0.000745	8e-05
0.1011	313.15	0.2997	0.000757	8e-05
0.1011	313.15	0.3501	0.000769	8e-05
0.1011	313.15	0.3985	0.000781	8e-05
0.1011	313.15	0.4493	0.000793	8e-05
0.1011	313.15	0.4987	0.000805	8e-05
0.3088	303.15	0	0.00092	8e-05
0.3088	303.15	0.1002	0.000945	8e-05
0.3088	303.15	0.1498	0.000957	8e-05
0.3088	303.15	0.1992	0.000969	8e-05
0.3088	303.15	0.25	0.000982	8e-05
0.3088	303.15	0.2998	0.000994	8e-05
0.3088	303.15	0.3497	0.001006	8e-05
0.3088	303.15	0.3992	0.001018	8e-05
0.3088	303.15	0.4494	0.001031	8e-05
0.3088	303.15	0.4991	0.001043	8e-05
0.3088	308.15	0	0.000821	8e-05
0.3088	308.15	0.1002	0.000845	8e-05
0.3088	308.15	0.1498	0.000857	8e-05
0.3088	308.15	0.1992	0.000869	8e-05
0.3088	308.15	0.25	0.000881	8e-05
0.3088	308.15	0.2998	0.000893	8e-05
0.3088	308.15	0.3497	0.000905	8e-05
0.3088	308.15	0.3992	0.000917	8e-05
0.3088	308.15	0.4494	0.00093	8e-05
0.3088	308.15	0.4991	0.000942	8e-05
0.3088	313.15	0	0.000748	8e-05
0.3088	313.15	0.1002	0.000772	8e-05
0.3088	313.15	0.1498	0.000784	8e-05
0.3088	313.15	0.1992	0.000796	8e-05
0.3088	313.15	0.25	0.000808	8e-05
0.3088	313.15	0.2998	0.00082	8e-05
0.3088	313.15	0.3497	0.000832	8e-05
0.3088	313.15	0.3992	0.000844	8e-05
0.3088	313.15	0.4494	0.000856	8e-05
0.3088	313.15	0.4991	0.000868	8e-05
0.5245	303.15	0	0.001024	8e-05
0.5245	303.15	0.1001	0.001049	8e-05
0.5245	303.15	0.15	0.001062	8e-05
0.5245	303.15	0.1995	0.001074	8e-05
0.5245	303.15	0.2496	0.001086	8e-05
0.5245	303.15	0.3	0.001099	8e-05
0.5245	303.15	0.3495	0.001111	8e-05
0.5245	303.15	0.3998	0.001124	8e-05
0.5245	303.15	0.45	0.001136	8e-05
0.5245	303.15	0.4986	0.001149	8e-05
0.5245	308.15	0	0.000918	8e-05
0.5245	308.15	0.1001	0.000937	8e-05
0.5245	308.15	0.15	0.000949	8e-05
0.5245	308.15	0.1995	0.000961	8e-05
0.5245	308.15	0.2496	0.000974	8e-05
0.5245	308.15	0.3	0.000986	8e-05
0.5245	308.15	0.3495	0.000998	8e-05
0.5245	308.15	0.3998	0.001011	8e-05
0.5245	308.15	0.45	0.001023	8e-05
0.5245	308.15	0.4986	0.001035	8e-05
0.5245	313.15	0	0.000806	8e-05
0.5245	313.15	0.1001	0.000836	8e-05
0.5245	313.15	0.15	0.000848	8e-05
0.5245	313.15	0.1995	0.00086	8e-05
0.5245	313.15	0.2496	0.000873	8e-05
0.5245	313.15	0.3	0.000885	8e-05
0.5245	313.15	0.3495	0.000897	8e-05
0.5245	313.15	0.3998	0.000909	8e-05
0.5245	313.15	0.45	0.000921	8e-05
0.5245	313.15	0.4986	0.000933	8e-05

System: L-valine + sodium benzoate + water; phases: Liquid
Fixed: Pressure, kPa = 81.5
Property: Mass density, kg/m3 (Liquid); method: Vibrating tube method
Solvent: Molality, mol/kg of sodium benzoate	Temperature, K	Molality, mol/kg of L-valine	Mass density, kg/m3	uncertainty
0	303.15	0	995.63	0.31
0	303.15	0.1004	998.27	0.31
0	303.15	0.1489	999.57	0.31
0	303.15	0.1996	1000.84	0.31
0	303.15	0.2497	1002.1	0.31
0	303.15	0.3001	1003.33	0.31
0	303.15	0.3488	1004.55	0.31
0	303.15	0.3995	1005.74	0.31
0	303.15	0.4501	1006.93	0.31
0	303.15	0.4989	1008.09	0.31
0	308.15	0	994.02	0.31
0	308.15	0.1004	996.63	0.31
0	308.15	0.1489	997.9	0.31
0	308.15	0.1996	999.16	0.31
0	308.15	0.2497	1000.41	0.31
0	308.15	0.3001	1001.63	0.31
0	308.15	0.3488	1002.84	0.31
0	308.15	0.3995	1004.02	0.31
0	308.15	0.4501	1005.2	0.31
0	308.15	0.4989	1006.34	0.31
0	313.15	0	992.16	0.31
0	313.15	0.1004	994.92	0.31
0	313.15	0.1489	996.25	0.31
0	313.15	0.1996	997.55	0.31
0	313.15	0.2497	998.83	0.31
0	313.15	0.3001	1000.05	0.31
0	313.15	0.3488	1001.27	0.31
0	313.15	0.3995	1002.46	0.31
0	313.15	0.4501	1003.61	0.31
0	313.15	0.4989	1004.75	0.31
0.1011	303.15	0	1001.3	0.31
0.1011	303.15	0.1	1003.9	0.31
0.1011	303.15	0.1497	1005.17	0.31
0.1011	303.15	0.1997	1006.43	0.31
0.1011	303.15	0.2499	1007.67	0.31
0.1011	303.15	0.2994	1008.89	0.31
0.1011	303.15	0.3496	1010.1	0.31
0.1011	303.15	0.3989	1011.28	0.31
0.1011	303.15	0.4496	1012.47	0.31
0.1011	303.15	0.499	1013.62	0.31
0.1011	308.15	0	999.34	0.31
0.1011	308.15	0.1	1002.11	0.31
0.1011	308.15	0.1497	1003.44	0.31
0.1011	308.15	0.1997	1004.74	0.31
0.1011	308.15	0.2499	1005.99	0.31
0.1011	308.15	0.2994	1007.21	0.31
0.1011	308.15	0.3496	1008.41	0.31
0.1011	308.15	0.3989	1009.56	0.31
0.1011	308.15	0.4496	1010.71	0.31
0.1011	308.15	0.499	1011.8	0.31
0.1011	313.15	0	997.41	0.31
0.1011	313.15	0.1	1000.24	0.31
0.1011	313.15	0.1497	1001.58	0.31
0.1011	313.15	0.1997	1002.87	0.31
0.1011	313.15	0.2499	1004.11	0.31
0.1011	313.15	0.2994	1005.31	0.31
0.1011	313.15	0.3496	1006.46	0.31
0.1011	313.15	0.3989	1007.59	0.31
0.1011	313.15	0.4496	1008.67	0.31
0.1011	313.15	0.499	1009.69	0.31
0.3088	303.15	0	1012.46	0.31
0.3088	303.15	0.1	1015.08	0.31
0.3088	303.15	0.1498	1016.33	0.31
0.3088	303.15	0.1995	1017.54	0.31
0.3088	303.15	0.25	1018.73	0.31
0.3088	303.15	0.3001	1019.88	0.31
0.3088	303.15	0.3494	1020.98	0.31
0.3088	303.15	0.3998	1022.05	0.31
0.3088	303.15	0.4497	1023.11	0.31
0.3088	303.15	0.4994	1024.12	0.31
0.3088	308.15	0	1010.54	0.31
0.3088	308.15	0.1	1013.25	0.31
0.3088	308.15	0.1498	1014.54	0.31
0.3088	308.15	0.1995	1015.78	0.31
0.3088	308.15	0.25	1016.99	0.31
0.3088	308.15	0.3001	1018.16	0.31
0.3088	308.15	0.3494	1019.28	0.31
0.3088	308.15	0.3998	1020.38	0.31
0.3088	308.15	0.4497	1021.43	0.31
0.3088	308.15	0.4994	1022.42	0.31
0.3088	313.15	0	1008.27	0.31
0.3088	313.15	0.1	1011.18	0.31
0.3088	313.15	0.1498	1012.56	0.31
0.3088	313.15	0.1995	1013.88	0.31
0.3088	313.15	0.25	1015.17	0.31
0.3088	313.15	0.3001	1016.41	0.31
0.3088	313.15	0.3494	1017.59	0.31
0.3088	313.15	0.3998	1018.72	0.31
0.3088	313.15	0.4497	1019.82	0.31
0.3088	313.15	0.4994	1020.89	0.31
0.5245	303.15	0	1023.59	0.31
0.5245	303.15	0.1001	1026.09	0.31
0.5245	303.15	0.1497	1027.29	0.31
0.5245	303.15	0.1999	1028.47	0.31
0.5245	303.15	0.2497	1029.62	0.31
0.5245	303.15	0.3001	1030.75	0.31
0.5245	303.15	0.35	1031.85	0.31
0.5245	303.15	0.3999	1032.92	0.31
0.5245	303.15	0.4494	1033.96	0.31
0.5245	303.15	0.4995	1034.97	0.31
0.5245	308.15	0	1021.61	0.31
0.5245	308.15	0.1001	1024.17	0.31
0.5245	308.15	0.1497	1025.38	0.31
0.5245	308.15	0.1999	1026.56	0.31
0.5245	308.15	0.2497	1027.7	0.31
0.5245	308.15	0.3001	1028.81	0.31
0.5245	308.15	0.35	1029.87	0.31
0.5245	308.15	0.3999	1030.91	0.31
0.5245	308.15	0.4494	1031.91	0.31
0.5245	308.15	0.4995	1032.88	0.31
0.5245	313.15	0	1019.94	0.31
0.5245	313.15	0.1001	1022.71	0.31
0.5245	313.15	0.1497	1024.01	0.31
0.5245	313.15	0.1999	1025.27	0.31
0.5245	313.15	0.2497	1026.48	0.31
0.5245	313.15	0.3001	1027.64	0.31
0.5245	313.15	0.35	1028.76	0.31
0.5245	313.15	0.3999	1029.85	0.31
0.5245	313.15	0.4494	1030.87	0.31
0.5245	313.15	0.4995	1031.85	0.31

System: L-valine + sodium benzoate + water; phases: Liquid
Fixed: Pressure, kPa = 81.5
Property: Viscosity, Pa*s (Liquid); method: Capillary tube (Ostwald; Ubbelohde) method
Solvent: Molality, mol/kg of sodium benzoate	Temperature, K	Molality, mol/kg of L-valine	Viscosity, Pa*s	uncertainty
0.1011	303.15	0	0.00084	8e-05
0.1011	303.15	0.1	0.000875	8e-05
0.1011	303.15	0.1497	0.000892	8e-05
0.1011	303.15	0.1997	0.00091	8e-05
0.1011	303.15	0.2499	0.000927	8e-05
0.1011	303.15	0.2994	0.000944	8e-05
0.1011	303.15	0.3496	0.000962	8e-05
0.1011	303.15	0.3989	0.000979	8e-05
0.1011	303.15	0.4496	0.000997	8e-05
0.1011	303.15	0.499	0.001014	8e-05
0.1011	308.15	0	0.000757	8e-05
0.1011	308.15	0.1	0.000787	8e-05
0.1011	308.15	0.1497	0.000804	8e-05
0.1011	308.15	0.1997	0.000821	8e-05
0.1011	308.15	0.2499	0.000839	8e-05
0.1011	308.15	0.2994	0.000856	8e-05
0.1011	308.15	0.3496	0.000873	8e-05
0.1011	308.15	0.3989	0.000891	8e-05
0.1011	308.15	0.4496	0.000908	8e-05
0.1011	308.15	0.499	0.000925	8e-05
0.1011	313.15	0	0.000686	8e-05
0.1011	313.15	0.1	0.000715	8e-05
0.1011	313.15	0.1497	0.000732	8e-05
0.1011	313.15	0.1997	0.000749	8e-05
0.1011	313.15	0.2499	0.000766	8e-05
0.1011	313.15	0.2994	0.000784	8e-05
0.1011	313.15	0.3496	0.000801	8e-05
0.1011	313.15	0.3989	0.000818	8e-05
0.1011	313.15	0.4496	0.000835	8e-05
0.1011	313.15	0.499	0.000853	8e-05
0.3088	303.15	0	0.000926	8e-05
0.3088	303.15	0.1	0.000961	8e-05
0.3088	303.15	0.1498	0.000979	8e-05
0.3088	303.15	0.1995	0.000996	8e-05
0.3088	303.15	0.25	0.001014	8e-05
0.3088	303.15	0.3001	0.001032	8e-05
0.3088	303.15	0.3494	0.001049	8e-05
0.3088	303.15	0.3998	0.001067	8e-05
0.3088	303.15	0.4497	0.001084	8e-05
0.3088	303.15	0.4994	0.001102	8e-05
0.3088	308.15	0	0.000837	8e-05
0.3088	308.15	0.1	0.000872	8e-05
0.3088	308.15	0.1498	0.00089	8e-05
0.3088	308.15	0.1995	0.000907	8e-05
0.3088	308.15	0.25	0.000925	8e-05
0.3088	308.15	0.3001	0.000942	8e-05
0.3088	308.15	0.3494	0.00096	8e-05
0.3088	308.15	0.3998	0.000977	8e-05
0.3088	308.15	0.4497	0.000995	8e-05
0.3088	308.15	0.4994	0.001012	8e-05
0.3088	313.15	0	0.000748	8e-05
0.3088	313.15	0.1	0.000783	8e-05
0.3088	313.15	0.1498	0.0008	8e-05
0.3088	313.15	0.1995	0.000818	8e-05
0.3088	313.15	0.25	0.000835	8e-05
0.3088	313.15	0.3001	0.000853	8e-05
0.3088	313.15	0.3494	0.00087	8e-05
0.3088	313.15	0.3998	0.000888	8e-05
0.3088	313.15	0.4497	0.000905	8e-05
0.3088	313.15	0.4994	0.000923	8e-05
0.5245	303.15	0	0.001013	8e-05
0.5245	303.15	0.1001	0.001049	8e-05
0.5245	303.15	0.1497	0.001072	8e-05
0.5245	303.15	0.1999	0.001096	8e-05
0.5245	303.15	0.2497	0.001119	8e-05
0.5245	303.15	0.3001	0.001142	8e-05
0.5245	303.15	0.35	0.001166	8e-05
0.5245	303.15	0.3999	0.001189	8e-05
0.5245	303.15	0.4494	0.001212	8e-05
0.5245	303.15	0.4995	0.001236	8e-05
0.5245	308.15	0	0.000912	8e-05
0.5245	308.15	0.1001	0.000953	8e-05
0.5245	308.15	0.1497	0.000976	8e-05
0.5245	308.15	0.1999	0.001	8e-05
0.5245	308.15	0.2497	0.001023	8e-05
0.5245	308.15	0.3001	0.001046	8e-05
0.5245	308.15	0.35	0.001069	8e-05
0.5245	308.15	0.3999	0.001093	8e-05
0.5245	308.15	0.4494	0.001116	8e-05
0.5245	308.15	0.4995	0.001139	8e-05
0.5245	313.15	0	0.000812	8e-05
0.5245	313.15	0.1001	0.000853	8e-05
0.5245	313.15	0.1497	0.000876	8e-05
0.5245	313.15	0.1999	0.000899	8e-05
0.5245	313.15	0.2497	0.000922	8e-05
0.5245	313.15	0.3001	0.000945	8e-05
0.5245	313.15	0.35	0.000969	8e-05
0.5245	313.15	0.3999	0.000992	8e-05
0.5245	313.15	0.4494	0.001015	8e-05
0.5245	313.15	0.4995	0.001038	8e-05

System: 2-aminoacetic acid + water; phases: Liquid
Fixed: Pressure, kPa = 81.5
Property: Mass density, kg/m3 (Liquid); method: Vibrating tube method
Temperature, K	Molality, mol/kg of 2-aminoacetic acid	Mass density, kg/m3	uncertainty
303.15	0.1001	998.79	0.3
303.15	0.1498	1000.34	0.3
303.15	0.1998	1001.88	0.3
303.15	0.2497	1003.42	0.3
303.15	0.2999	1004.95	0.3
303.15	0.3502	1006.44	0.3
303.15	0.4005	1007.94	0.3
303.15	0.45	1009.44	0.3
303.15	0.4993	1010.87	0.3
308.15	0.1001	997.12	0.3
308.15	0.1498	998.65	0.3
308.15	0.1998	1000.16	0.3
308.15	0.2497	1001.68	0.3
308.15	0.2999	1003.19	0.3
308.15	0.3502	1004.66	0.3
308.15	0.4005	1006.15	0.3
308.15	0.45	1007.62	0.3
308.15	0.4993	1009.05	0.3
313.15	0.1001	995.14	0.3
313.15	0.1498	996.61	0.3
313.15	0.1998	998.06	0.3
313.15	0.2497	999.5	0.3
313.15	0.2999	1000.94	0.3
313.15	0.3502	1002.34	0.3
313.15	0.4005	1003.74	0.3
313.15	0.45	1005.12	0.3
313.15	0.4993	1006.46	0.3

System: sodium benzoate + water; phases: Liquid
Fixed: Pressure, kPa = 81.5
Property: Mass density, kg/m3 (Liquid); method: Vibrating tube method
Molality, mol/kg of sodium benzoate	Temperature, K	Mass density, kg/m3	uncertainty
0.1011	303.15	1001.3	0.3
0.1011	308.15	999.62	0.3
0.1011	313.15	997.51	0.3
0.3088	303.15	1012.49	0.3
0.3088	308.15	1010.6	0.3
0.3088	313.15	1008.53	0.3
0.5245	303.15	1023.51	0.3
0.5245	308.15	1021.49	0.3
0.5245	313.15	1019.94	0.3
0.1011	303.15	1001.31	0.3
0.1011	308.15	999.49	0.3
0.3088	308.15	1010.59	0.3
0.3088	313.15	1008.16	0.3
0.5245	303.15	1023.61	0.3
0.5245	308.15	1021.52	0.3
0.1011	308.15	999.34	0.3
0.1011	313.15	997.41	0.3
0.3088	303.15	1012.46	0.3
0.3088	308.15	1010.54	0.3
0.3088	313.15	1008.27	0.3
0.5245	303.15	1023.59	0.3
0.5245	308.15	1021.61	0.3

System: sodium benzoate + water; phases: Liquid
Fixed: Pressure, kPa = 81.5
Property: Viscosity, Pa*s (Liquid); method: Capillary tube (Ostwald; Ubbelohde) method
Molality, mol/kg of sodium benzoate	Temperature, K	Viscosity, Pa*s	uncertainty
0.1011	303.15	0.000845	8e-05
0.1011	308.15	0.000758	8e-05
0.1011	313.15	0.000691	8e-05
0.3088	303.15	0.000931	8e-05
0.3088	308.15	0.000837	8e-05
0.3088	313.15	0.000753	8e-05
0.5245	303.15	0.001019	8e-05
0.5245	308.15	0.000912	8e-05
0.5245	313.15	0.000817	8e-05
0.1011	303.15	0.00084	8e-05
0.1011	313.15	0.000686	8e-05
0.3088	303.15	0.00092	8e-05
0.3088	308.15	0.000821	8e-05
0.3088	313.15	0.000748	8e-05
0.5245	303.15	0.001024	8e-05
0.5245	308.15	0.000918	8e-05
0.5245	313.15	0.000806	8e-05
0.1011	308.15	0.000757	8e-05
0.3088	303.15	0.000926	8e-05
0.5245	303.15	0.001013	8e-05
0.5245	313.15	0.000812	8e-05

System: (S)-2-aminopropanoic acid + water; phases: Liquid
Fixed: Pressure, kPa = 81.5
Property: Mass density, kg/m3 (Liquid); method: Vibrating tube method
Temperature, K	Molality, mol/kg of (S)-2-aminopropanoic acid	Mass density, kg/m3	uncertainty
303.15	0.1001	998.46	0.3
303.15	0.1501	999.85	0.3
303.15	0.1998	1001.23	0.3
303.15	0.2502	1002.6	0.3
303.15	0.3	1003.96	0.3
303.15	0.3501	1005.32	0.3
303.15	0.3986	1006.62	0.3
303.15	0.4493	1007.97	0.3
303.15	0.4994	1009.28	0.3
308.15	0.1001	996.83	0.3
308.15	0.1501	998.21	0.3
308.15	0.1998	999.58	0.3
308.15	0.2502	1000.94	0.3
308.15	0.3	1002.29	0.3
308.15	0.3501	1003.64	0.3
308.15	0.3986	1004.93	0.3
308.15	0.4493	1006.27	0.3
308.15	0.4994	1007.56	0.3
313.15	0.1001	995	0.3
313.15	0.1501	996.39	0.3
313.15	0.1998	997.76	0.3
313.15	0.2502	999.11	0.3
313.15	0.3	1000.45	0.3
313.15	0.3501	1001.77	0.3
313.15	0.3986	1003.07	0.3
313.15	0.4493	1004.36	0.3
313.15	0.4994	1005.62	0.3

System: L-valine + water; phases: Liquid
Fixed: Pressure, kPa = 81.5
Property: Mass density, kg/m3 (Liquid); method: Vibrating tube method
Temperature, K	Molality, mol/kg of L-valine	Mass density, kg/m3	uncertainty
303.15	0.1004	998.27	0.3
303.15	0.1489	999.57	0.3
303.15	0.1996	1000.84	0.3
303.15	0.2497	1002.1	0.3
303.15	0.3001	1003.33	0.3
303.15	0.3488	1004.55	0.3
303.15	0.3995	1005.74	0.3
303.15	0.4501	1006.93	0.3
303.15	0.4989	1008.09	0.3
308.15	0.1004	996.63	0.3
308.15	0.1489	997.9	0.3
308.15	0.1996	999.16	0.3
308.15	0.2497	1000.41	0.3
308.15	0.3001	1001.63	0.3
308.15	0.3488	1002.84	0.3
308.15	0.3995	1004.02	0.3
308.15	0.4501	1005.2	0.3
308.15	0.4989	1006.34	0.3
313.15	0.1004	994.92	0.3
313.15	0.1489	996.25	0.3
313.15	0.1996	997.55	0.3
313.15	0.2497	998.83	0.3
313.15	0.3001	1000.05	0.3
313.15	0.3488	1001.27	0.3
313.15	0.3995	1002.46	0.3
313.15	0.4501	1003.61	0.3
313.15	0.4989	1004.75	0.3
