Measured thermophysical data. Differential Partitioning of Bioantioxidants in Edible Oil-Water and Octanol-Water Systems: Linear Free Energy Relationships
Source: J. Chem. Eng. Data, 2018, 10.1021/acs.jced.8b00258
Compound 1: methyl 3-(3,4-dihydroxyphenyl)-2-propenoate, C10H10O4, InChI=1S/C10H10O4/c1-14-10(13)5-3-7-2-4-8(11)9(12)6-7/h2-6,11-12H,1H3/b5-3-
Compound 2: ethyl protocatechuate, C9H10O4, InChI=1S/C9H10O4/c1-2-13-9(12)6-3-4-7(10)8(11)5-6/h3-5,10-11H,2H2,1H3
Compound 3: butyl protocatechuate, C11H14O4, InChI=1S/C11H14O4/c1-2-3-6-15-11(14)8-4-5-9(12)10(13)7-8/h4-5,7,12-13H,2-3,6H2,1H3
Compound 4: hexyl protocatechuate, C13H18O4, InChI=1S/C13H18O4/c1-2-3-4-5-8-17-13(16)10-6-7-11(14)12(15)9-10/h6-7,9,14-15H,2-5,8H2,1H3
Compound 5: propyl protocatechuate, C10H12O4, InChI=1S/C10H12O4/c1-2-5-14-10(13)7-3-4-8(11)9(12)6-7/h3-4,6,11-12H,2,5H2,1H3
Compound 6: 2-(3,4-dihydroxyphenyl)ethyl acetate, C10H12O4, InChI=1S/C10H12O4/c1-7(11)14-5-4-8-2-3-9(12)10(13)6-8/h2-3,6,12-13H,4-5H2,1H3
Compound 7: propyl 3-(3,4-dihydroxyphenyl)-2-propenoate, C12H14O4, InChI=1S/C12H14O4/c1-2-7-16-12(15)6-4-9-3-5-10(13)11(14)8-9/h3-6,8,13-14H,2,7H2,1H3/b6-4-
Compound 8: octyl 3-(3,4-dihydroxyphenyl)-2-propenoate, C17H24O4, InChI=1S/C17H24O4/c1-2-3-4-5-6-7-12-21-17(20)11-9-14-8-10-15(18)16(19)13-14/h8-11,13,18-19H,2-7,12H2,1H3/b11-9-
Compound 9: 2-(3,4-dihydroxyphenyl)ethyl octanoate, C16H24O4, InChI=1S/C16H24O4/c1-2-3-4-5-6-7-16(19)20-11-10-13-8-9-14(17)15(18)12-13/h8-9,12,17-18H,2-7,10-11H2,1H3
Compound 10: 2-(3,4-dihydroxyphenyl)ethyl propionate, C11H14O4, InChI=1S/C11H14O4/c1-2-11(14)15-6-5-8-3-4-9(12)10(13)7-8/h3-4,7,12-13H,2,5-6H2,1H3
Compound 11: 2-(3,4-dihydroxyphenyl)ethyl hexanoate, C14H20O4, InChI=1S/C14H20O4/c1-2-3-4-5-14(17)18-9-8-11-6-7-12(15)13(16)10-11/h6-7,10,15-16H,2-5,8-9H2,1H3
Compound 12: ethyl 3-(3,4-dihydroxyphenyl)-2-propenoate, C11H12O4, InChI=1S/C11H12O4/c1-2-15-11(14)6-4-8-3-5-9(12)10(13)7-8/h3-7,12-13H,2H2,1H3/b6-4-
Compound 13: ethyl gallate, C9H10O5, InChI=1S/C9H10O5/c1-2-14-9(13)5-3-6(10)8(12)7(11)4-5/h3-4,10-12H,2H2,1H3
Compound 14: butyl gallate, C11H14O5, InChI=1S/C11H14O5/c1-2-3-4-16-11(15)7-5-8(12)10(14)9(13)6-7/h5-6,12-14H,2-4H2,1H3
Compound 15: methyl protocatechuate, C8H8O4, InChI=1S/C8H8O4/c1-12-8(11)5-2-3-6(9)7(10)4-5/h2-4,9-10H,1H3
Compound 16: benzoic acid, 3,4,5-trihydroxy-, methyl ester, C8H8O5, InChI=1S/C8H8O5/c1-13-8(12)4-2-5(9)7(11)6(10)3-4/h2-3,9-11H,1H3
Compound 17: propyl 3,4,5-trihydroxybenzoate, C10H12O5, InChI=1S/C10H12O5/c1-2-3-15-10(14)6-4-7(11)9(13)8(12)5-6/h4-5,11-13H,2-3H2,1H3
Compound 18: benzoic acid, 3,4,5-trihydroxy-, octyl ester, C15H22O5, InChI=1S/C15H22O5/c1-2-3-4-5-6-7-8-20-15(19)11-9-12(16)14(18)13(17)10-11/h9-10,16-18H,2-8H2,1H3
Compound 19: octan-1-ol, C8H18O, InChI=1S/C8H18O/c1-2-3-4-5-6-7-8-9/h9H,2-8H2,1H3
Compound 20: water, H2O, InChI=1S/H2O/h1H2, purity 99.9%

System: methyl 3-(3,4-dihydroxyphenyl)-2-propenoate + octan-1-ol + water; phases: Liquid, Liquid
Property: Amount concentration (molarity), mol/dm3 of methyl 3-(3,4-dihydroxyphenyl)-2-propenoate (Liquid); method: Shake-flask
Temperature, K	Pressure, kPa	Mole fraction of methyl 3-(3,4-dihydroxyphenyl)-2-propenoate	Amount concentration (molarity), mol/dm3 of methyl 3-(3,4-dihydroxyphenyl)-2-propenoate	uncertainty
298.15	101	0	36.31	7.26

System: ethyl 3-(3,4-dihydroxyphenyl)-2-propenoate + octan-1-ol + water; phases: Liquid, Liquid
Property: Amount concentration (molarity), mol/dm3 of ethyl 3-(3,4-dihydroxyphenyl)-2-propenoate (Liquid); method: Shake-flask
Temperature, K	Pressure, kPa	Mole fraction of ethyl 3-(3,4-dihydroxyphenyl)-2-propenoate	Amount concentration (molarity), mol/dm3 of ethyl 3-(3,4-dihydroxyphenyl)-2-propenoate	uncertainty
298.15	101	0	85.11	

System: propyl 3-(3,4-dihydroxyphenyl)-2-propenoate + octan-1-ol + water; phases: Liquid, Liquid
Property: Amount concentration (molarity), mol/dm3 of propyl 3-(3,4-dihydroxyphenyl)-2-propenoate (Liquid); method: Shake-flask
Temperature, K	Pressure, kPa	Mole fraction of propyl 3-(3,4-dihydroxyphenyl)-2-propenoate	Amount concentration (molarity), mol/dm3 of propyl 3-(3,4-dihydroxyphenyl)-2-propenoate	uncertainty
298.15	101	0	275.42	

System: octyl 3-(3,4-dihydroxyphenyl)-2-propenoate + octan-1-ol + water; phases: Liquid, Liquid
Property: Amount concentration (molarity), mol/dm3 of octyl 3-(3,4-dihydroxyphenyl)-2-propenoate (Liquid); method: Shake-flask
Temperature, K	Pressure, kPa	Mole fraction of octyl 3-(3,4-dihydroxyphenyl)-2-propenoate	Amount concentration (molarity), mol/dm3 of octyl 3-(3,4-dihydroxyphenyl)-2-propenoate	uncertainty
298.15	101	0	104713	

System: benzoic acid, 3,4,5-trihydroxy-, methyl ester + octan-1-ol + water; phases: Liquid, Liquid
Property: Amount concentration (molarity), mol/dm3 of benzoic acid, 3,4,5-trihydroxy-, methyl ester (Liquid); method: Shake-flask
Temperature, K	Pressure, kPa	Mole fraction of benzoic acid, 3,4,5-trihydroxy-, methyl ester	Amount concentration (molarity), mol/dm3 of benzoic acid, 3,4,5-trihydroxy-, methyl ester	uncertainty
298.15	101	0	7.08	

System: ethyl gallate + octan-1-ol + water; phases: Liquid, Liquid
Property: Amount concentration (molarity), mol/dm3 of ethyl gallate (Liquid); method: Shake-flask
Temperature, K	Pressure, kPa	Mole fraction of ethyl gallate	Amount concentration (molarity), mol/dm3 of ethyl gallate	uncertainty
298.15	101	0	16.98	

System: propyl 3,4,5-trihydroxybenzoate + octan-1-ol + water; phases: Liquid, Liquid
Property: Amount concentration (molarity), mol/dm3 of propyl 3,4,5-trihydroxybenzoate (Liquid); method: Shake-flask
Temperature, K	Pressure, kPa	Mole fraction of propyl 3,4,5-trihydroxybenzoate	Amount concentration (molarity), mol/dm3 of propyl 3,4,5-trihydroxybenzoate	uncertainty
298.15	101	0	53.7	

System: butyl gallate + octan-1-ol + water; phases: Liquid, Liquid
Property: Amount concentration (molarity), mol/dm3 of butyl gallate (Liquid); method: Shake-flask
Temperature, K	Pressure, kPa	Mole fraction of butyl gallate	Amount concentration (molarity), mol/dm3 of butyl gallate	uncertainty
298.15	101	0	194.98	

System: benzoic acid, 3,4,5-trihydroxy-, octyl ester + octan-1-ol + water; phases: Liquid, Liquid
Property: Amount concentration (molarity), mol/dm3 of benzoic acid, 3,4,5-trihydroxy-, octyl ester (Liquid); method: Shake-flask
Temperature, K	Pressure, kPa	Mole fraction of benzoic acid, 3,4,5-trihydroxy-, octyl ester	Amount concentration (molarity), mol/dm3 of benzoic acid, 3,4,5-trihydroxy-, octyl ester	uncertainty
298.15	101	0	20417	

System: 2-(3,4-dihydroxyphenyl)ethyl acetate + octan-1-ol + water; phases: Liquid, Liquid
Property: Amount concentration (molarity), mol/dm3 of 2-(3,4-dihydroxyphenyl)ethyl acetate (Liquid); method: Shake-flask
Temperature, K	Pressure, kPa	Mole fraction of 2-(3,4-dihydroxyphenyl)ethyl acetate	Amount concentration (molarity), mol/dm3 of 2-(3,4-dihydroxyphenyl)ethyl acetate	uncertainty
298.15	101	0	16.6	

System: 2-(3,4-dihydroxyphenyl)ethyl propionate + octan-1-ol + water; phases: Liquid, Liquid
Property: Amount concentration (molarity), mol/dm3 of 2-(3,4-dihydroxyphenyl)ethyl propionate (Liquid); method: Shake-flask
Temperature, K	Pressure, kPa	Mole fraction of 2-(3,4-dihydroxyphenyl)ethyl propionate	Amount concentration (molarity), mol/dm3 of 2-(3,4-dihydroxyphenyl)ethyl propionate	uncertainty
298.15	101	0	38.02	

System: 2-(3,4-dihydroxyphenyl)ethyl hexanoate + octan-1-ol + water; phases: Liquid, Liquid
Property: Amount concentration (molarity), mol/dm3 of 2-(3,4-dihydroxyphenyl)ethyl hexanoate (Liquid); method: Shake-flask
Temperature, K	Pressure, kPa	Mole fraction of 2-(3,4-dihydroxyphenyl)ethyl hexanoate	Amount concentration (molarity), mol/dm3 of 2-(3,4-dihydroxyphenyl)ethyl hexanoate	uncertainty
298.15	101	0	1412.5	

System: 2-(3,4-dihydroxyphenyl)ethyl octanoate + octan-1-ol + water; phases: Liquid, Liquid
Property: Amount concentration (molarity), mol/dm3 of 2-(3,4-dihydroxyphenyl)ethyl octanoate (Liquid); method: Shake-flask
Temperature, K	Pressure, kPa	Mole fraction of 2-(3,4-dihydroxyphenyl)ethyl octanoate	Amount concentration (molarity), mol/dm3 of 2-(3,4-dihydroxyphenyl)ethyl octanoate	uncertainty
298.15	101	0	14454	

System: methyl protocatechuate + octan-1-ol + water; phases: Liquid, Liquid
Property: Amount concentration (molarity), mol/dm3 of methyl protocatechuate (Liquid); method: Shake-flask
Temperature, K	Pressure, kPa	Mole fraction of methyl protocatechuate	Amount concentration (molarity), mol/dm3 of methyl protocatechuate	uncertainty
298.15	101	0	13.8	

System: ethyl protocatechuate + octan-1-ol + water; phases: Liquid, Liquid
Property: Amount concentration (molarity), mol/dm3 of ethyl protocatechuate (Liquid); method: Shake-flask
Temperature, K	Pressure, kPa	Mole fraction of ethyl protocatechuate	Amount concentration (molarity), mol/dm3 of ethyl protocatechuate	uncertainty
298.15	101	0	33.11	

System: propyl protocatechuate + octan-1-ol + water; phases: Liquid, Liquid
Property: Amount concentration (molarity), mol/dm3 of propyl protocatechuate (Liquid); method: Shake-flask
Temperature, K	Pressure, kPa	Mole fraction of propyl protocatechuate	Amount concentration (molarity), mol/dm3 of propyl protocatechuate	uncertainty
298.15	101	0	104.71	

System: butyl protocatechuate + octan-1-ol + water; phases: Liquid, Liquid
Property: Amount concentration (molarity), mol/dm3 of butyl protocatechuate (Liquid); method: Shake-flask
Temperature, K	Pressure, kPa	Mole fraction of butyl protocatechuate	Amount concentration (molarity), mol/dm3 of butyl protocatechuate	uncertainty
298.15	101	0	380.19	

System: hexyl protocatechuate + octan-1-ol + water; phases: Liquid, Liquid
Property: Amount concentration (molarity), mol/dm3 of hexyl protocatechuate (Liquid); method: Shake-flask
Temperature, K	Pressure, kPa	Mole fraction of hexyl protocatechuate	Amount concentration (molarity), mol/dm3 of hexyl protocatechuate	uncertainty
298.15	101	0	3890.5	
