Measured thermophysical data. Physicochemical Properties of Aqueous Potassium Salts of Basic Amino Acids as Absorbents for CO2 Capture
Source: J. Chem. Eng. Data, 2016, 10.1021/acs.jced.6b00013
Compound 1: potassium L-lysinate, C6H13KN2O2, InChI=1S/C6H14N2O2.K/c7-4-2-1-3-5(8)6(9)10;/h5H,1-4,7-8H2,(H,9,10);/q;+1/p-1/t5-;/m0./s1, purity 98%
Compound 2: potassium L-histidinate, C6H8KN3O2, InChI=1S/C6H9N3O2.K/c7-5(6(10)11)1-4-2-8-3-9-4;/h2-3,5H,1,7H2,(H,8,9)(H,10,11);/q;+1/p-1/t5-;/m0./s1, purity 98%
Compound 3: potassium L-argininate, C6H13KN4O2, InChI=1S/C6H14N4O2.K/c7-4(5(11)12)2-1-3-10-6(8)9;/h4H,1-3,7H2,(H,11,12)(H4,8,9,10);/q;+1/p-1/t4-;/m0./s1, purity 98%
Compound 4: water, H2O, InChI=1S/H2O/h1H2, purity 99.8%
Compound 5: nitrous oxide, N2O, InChI=1S/N2O/c1-2-3

System: water + potassium L-lysinate; phases: Liquid
Fixed: Pressure, kPa = 101.3
Property: Mass density, kg/m3 (Liquid); method: Vibrating tube method
Molality, mol/kg of potassium L-lysinate	Temperature, K	Mass density, kg/m3	uncertainty
0.267	293.15	1016.8	4
0.517	293.15	1030.3	4
0.846	293.15	1045	4
1.124	293.15	1062.1	4
1.867	293.15	1089.7	4
2.57	293.15	1119.2	4
3.642	293.15	1145.9	4
0.267	298.15	1015.5	4
0.517	298.15	1028.9	4
0.846	298.15	1043.4	4
1.124	298.15	1060.2	4
1.867	298.15	1087.5	4
2.57	298.15	1116.8	4
3.642	298.15	1141.9	4
0.267	303.15	1013.9	4
0.517	303.15	1027.2	4
0.846	303.15	1041.5	4
1.124	303.15	1058.2	4
1.867	303.15	1085.3	4
2.57	303.15	1114.3	4
3.642	303.15	1139.1	4
0.267	308.15	1012.1	4
0.517	308.15	1025.3	4
0.846	308.15	1039.5	4
1.124	308.15	1056.1	4
1.867	308.15	1082.9	4
2.57	308.15	1111.7	4
3.642	308.15	1137.5	4
0.267	313.15	1010.2	4
0.517	313.15	1023.5	4
0.846	313.15	1037.4	4
1.124	313.15	1053.8	4
1.867	313.15	1080.4	4
2.57	313.15	1109.1	4
3.642	313.15	1134.6	4
0.267	318.15	1008.1	4
0.517	318.15	1021.3	4
0.846	318.15	1035.1	4
1.124	318.15	1051.4	4
1.867	318.15	1077.8	4
2.57	318.15	1106.3	4
3.642	318.15	1131.6	4
0.267	323.15	1005.8	4
0.517	323.15	1019	4
0.846	323.15	1032.7	4
1.124	323.15	1048.9	4
1.867	323.15	1075.2	4
2.57	323.15	1103.5	4
3.642	323.15	1128.7	4
0.267	328.15	1003.4	4
0.517	328.15	1016.5	4
0.846	328.15	1030.2	4
1.124	328.15	1046.3	4
1.867	328.15	1072.4	4
2.57	328.15	1100.6	4
3.642	328.15	1125.6	4
0.267	333.15	1000.8	4
0.517	333.15	1013.9	4
0.846	333.15	1027.5	4
1.124	333.15	1043.6	4
1.867	333.15	1069.6	4
2.57	333.15	1097.7	4
3.642	333.15	1122.5	4
0.267	338.15	998.1	4
0.517	338.15	1011.2	4
0.846	338.15	1024.8	4
1.124	338.15	1040.7	4
1.867	338.15	1066.6	4
2.57	338.15	1094.7	4
3.642	338.15	1119.4	4
0.267	343.15	995.3	4
0.517	343.15	1008.4	4
0.846	343.15	1021.9	4
1.124	343.15	1037.8	4
1.867	343.15	1063.6	4
2.57	343.15	1091.6	4
3.642	343.15	1116.2	4
0.267	348.15	992.4	4
0.517	348.15	1005.4	4
0.846	348.15	1018.9	4
1.124	348.15	1034.7	4
1.867	348.15	1060.5	4
2.57	348.15	1088.5	4
3.642	348.15	1113	4
0.267	353.15	989.3	4
0.517	353.15	1002.3	4
0.846	353.15	1015.8	4
1.867	353.15	1057.3	4
2.57	353.15	1085.3	4
3.642	353.15	1109.7	4

System: water + potassium L-lysinate; phases: Liquid
Fixed: Pressure, kPa = 101.3
Property: Viscosity, Pa*s (Liquid); method: Falling or rolling sphere viscometry
Molality, mol/kg of potassium L-lysinate	Temperature, K	Viscosity, Pa*s	uncertainty
0.267	293.15	0.0011834	0.000119
0.517	293.15	0.0013933	0.0001399
0.846	293.15	0.0015991	0.0001606
1.124	293.15	0.0019195	0.0001929
1.867	293.15	0.002783	0.0002796
2.57	293.15	0.0041743	0.0004194
3.642	293.15	0.0066454	0.0006674
0.267	298.15	0.0010506	0.0001056
0.517	298.15	0.0012265	0.0001231
0.846	298.15	0.0014078	0.0001414
1.124	298.15	0.0016833	0.0001691
1.867	298.15	0.0024082	0.0002419
2.57	298.15	0.003557	0.0003573
3.642	298.15	0.0055444	0.0005568
0.267	303.15	0.0009411	9.45e-05
0.517	303.15	0.0010923	0.0001097
0.846	303.15	0.001251	0.0001256
1.124	303.15	0.0014899	0.0001497
1.867	303.15	0.0021081	0.0002117
2.57	303.15	0.0030707	0.0003084
3.642	303.15	0.0047103	0.000473
0.267	308.15	0.000847	8.51e-05
0.517	308.15	0.0009834	9.87e-05
0.846	308.15	0.0011195	0.0001124
1.124	308.15	0.0013278	0.0001334
1.867	308.15	0.0018606	0.0001869
2.57	308.15	0.0026761	0.0002688
3.642	308.15	0.0040486	0.0004065
0.267	313.15	0.0007675	7.71e-05
0.517	313.15	0.0008868	8.9e-05
0.846	313.15	0.0010099	0.0001014
1.124	313.15	0.0011945	0.00012
1.867	313.15	0.0016552	0.0001662
2.57	313.15	0.0023511	0.0002361
3.642	313.15	0.0035175	0.0003532
0.267	318.15	0.0007007	7.04e-05
0.517	318.15	0.0008069	8.1e-05
0.846	318.15	0.000916	9.2e-05
1.124	318.15	0.0010769	0.0001081
1.867	318.15	0.0014829	0.0001489
2.57	318.15	0.0020939	0.0002103
3.642	318.15	0.0030814	0.0003094
0.267	323.15	0.0006435	6.46e-05
0.517	323.15	0.0007376	7.4e-05
0.846	323.15	0.0008358	8.39e-05
1.124	323.15	0.0009784	9.82e-05
1.867	323.15	0.0013373	0.0001343
2.57	323.15	0.0018719	0.000188
3.642	323.15	0.002722	0.0002733
0.267	328.15	0.0005935	5.96e-05
0.517	328.15	0.0006796	6.82e-05
0.846	328.15	0.0007669	7.7e-05
1.124	328.15	0.0008953	8.99e-05
1.867	328.15	0.0012134	0.0001218
2.57	328.15	0.0016843	0.0001691
3.642	328.15	0.0024235	0.0002433
0.267	333.15	0.0005507	5.53e-05
0.517	333.15	0.0006294	6.32e-05
0.846	333.15	0.0007064	7.09e-05
1.124	333.15	0.0008217	8.25e-05
1.867	333.15	0.0011066	0.0001111
2.57	333.15	0.0015256	0.0001532
3.642	333.15	0.0021774	0.0002186
0.267	338.15	0.0005133	5.15e-05
0.517	338.15	0.0005856	5.88e-05
0.846	338.15	0.0006548	6.57e-05
1.124	338.15	0.0007578	7.61e-05
1.867	338.15	0.001014	0.0001018
2.57	338.15	0.0013892	0.0001395
3.642	338.15	0.001962	0.000197
0.267	343.15	0.0004809	4.83e-05
0.517	343.15	0.0005441	5.46e-05
0.846	343.15	0.0006157	6.18e-05
1.124	343.15	0.0007025	7.05e-05
1.867	343.15	0.0009338	9.38e-05
2.57	343.15	0.0012714	0.0001277
3.642	343.15	0.0017803	0.0001787
0.267	348.15	0.0004516	4.54e-05
0.517	348.15	0.0005154	5.17e-05
0.846	348.15	0.0005673	5.69e-05
1.124	348.15	0.0006537	6.56e-05
1.867	348.15	0.0008639	8.67e-05
2.57	348.15	0.0011685	0.0001173
3.642	348.15	0.001624	0.000163
0.267	353.15	0.0004262	4.28e-05
0.517	353.15	0.0004858	4.87e-05
0.846	353.15	0.000532	5.34e-05
1.867	353.15	0.0008024	8.06e-05
2.57	353.15	0.0010803	0.0001085
3.642	353.15	0.0014862	0.0001492

System: water + potassium L-histidinate; phases: Liquid
Fixed: Pressure, kPa = 101.3
Property: Mass density, kg/m3 (Liquid); method: Vibrating tube method
Molality, mol/kg of potassium L-histidinate	Temperature, K	Mass density, kg/m3	uncertainty
0.265	293.15	1020.9	4.1
0.551	293.15	1041.5	4.1
0.817	293.15	1062.5	4.1
1.154	293.15	1084	4
1.849	293.15	1120	4
2.554	293.15	1153.1	4
0.265	298.15	1019.4	4.1
0.551	298.15	1040.1	4.1
0.817	298.15	1060.6	4.1
1.154	298.15	1082	4
1.849	298.15	1117.8	4
2.554	298.15	1150.7	4
0.265	303.15	1017.8	4.1
0.551	303.15	1038.4	4.1
0.817	303.15	1058.7	4.1
1.154	303.15	1079.9	4
1.849	303.15	1115.6	4
2.554	303.15	1148.3	4
0.265	308.15	1016.1	4.1
0.551	308.15	1036.5	4.1
0.817	308.15	1056.7	4.1
1.154	308.15	1077.8	4
1.849	308.15	1113.2	4
2.554	308.15	1145.7	4
0.265	313.15	1014.1	4.1
0.551	313.15	1034.4	4.1
0.817	313.15	1054.5	4.1
1.154	313.15	1075.5	4
1.849	313.15	1110.7	4
2.554	313.15	1143.2	4
0.265	318.15	1012	4.1
0.551	318.15	1032.2	4.1
0.817	318.15	1052.2	4.1
1.154	318.15	1073.1	4
1.849	318.15	1108.2	4
2.554	318.15	1140.5	4
0.265	323.15	1009.7	4.1
0.551	323.15	1029.8	4.1
0.817	323.15	1049.7	4.1
1.154	323.15	1070.6	4
1.849	323.15	1105.4	4
2.554	323.15	1137.7	4
0.265	328.15	1007.3	4.1
0.551	328.15	1027.3	4.1
0.817	328.15	1047.2	4.1
1.154	328.15	1067.9	4
1.849	328.15	1102.7	4
2.554	328.15	1134.9	4
0.265	333.15	1004.7	4.1
0.551	333.15	1024.7	4.1
0.817	333.15	1044.5	4.1
1.154	333.15	1065.2	4
1.849	333.15	1100	4
2.554	333.15	1132	4
0.265	338.15	1002	4.1
0.551	338.15	1021.8	4.1
0.817	338.15	1041.7	4.1
1.154	338.15	1062.4	4
1.849	338.15	1097.1	4
2.554	338.15	1129.1	4
0.265	343.15	999.2	4.1
0.551	343.15	1018.7	4.1
0.817	343.15	1038.8	4.1
1.154	343.15	1059.4	4
1.849	343.15	1094.1	4
2.554	343.15	1126.1	4
0.265	348.15	996.2	4.1
0.551	348.15	1015.7	4.1
0.817	348.15	1035.8	4.1
1.154	348.15	1056.4	4
1.849	348.15	1091	4
2.554	348.15	1122.9	4
0.265	353.15	993.1	4.1
0.551	353.15	1012.6	4.1
0.817	353.15	1032.6	4.1
1.154	353.15	1053.2	4
1.849	353.15	1087.9	4
2.554	353.15	1119.8	4

System: water + potassium L-histidinate; phases: Liquid
Fixed: Pressure, kPa = 101.3
Property: Viscosity, Pa*s (Liquid); method: Falling or rolling sphere viscometry
Molality, mol/kg of potassium L-histidinate	Temperature, K	Viscosity, Pa*s	uncertainty
0.265	293.15	0.0010903	0.0001095
0.551	293.15	0.0012424	0.0001247
0.817	293.15	0.0014211	0.0001427
1.154	293.15	0.0016617	0.0001669
1.849	293.15	0.0022802	0.000229
2.554	293.15	0.0030478	0.000306
0.265	298.15	0.0009617	9.65e-05
0.551	298.15	0.0010932	0.0001097
0.817	298.15	0.0012516	0.0001257
1.154	298.15	0.0014567	0.0001463
1.849	298.15	0.0020019	0.000201
2.554	298.15	0.0026319	0.0002642
0.265	303.15	0.0008629	8.66e-05
0.551	303.15	0.0009797	9.83e-05
0.817	303.15	0.0011191	0.0001124
1.154	303.15	0.0012985	0.0001304
1.849	303.15	0.0017684	0.0001775
2.554	303.15	0.0023147	0.0002324
0.265	308.15	0.0007803	7.83e-05
0.551	308.15	0.0008847	8.88e-05
0.817	308.15	0.001007	0.0001011
1.154	308.15	0.0011669	0.0001172
1.849	308.15	0.0015782	0.0001584
2.554	308.15	0.0020492	0.0002057
0.265	313.15	0.0007087	7.11e-05
0.551	313.15	0.0008025	8.06e-05
0.817	313.15	0.0009131	9.17e-05
1.154	313.15	0.001053	0.0001057
1.849	313.15	0.0014168	0.0001422
2.554	313.15	0.0018276	0.0001835
0.265	318.15	0.000648	6.5e-05
0.551	318.15	0.0007344	7.37e-05
0.817	318.15	0.0008323	8.35e-05
1.154	318.15	0.0009568	9.61e-05
1.849	318.15	0.0012794	0.0001284
2.554	318.15	0.001641	0.0001647
0.265	323.15	0.0005955	5.98e-05
0.551	323.15	0.0006734	6.76e-05
0.817	323.15	0.0007621	7.65e-05
1.154	323.15	0.0008736	8.77e-05
1.849	323.15	0.001164	0.0001168
2.554	323.15	0.0014837	0.0001489
0.265	328.15	0.0005515	5.53e-05
0.551	328.15	0.0006209	6.23e-05
0.817	328.15	0.0007022	7.05e-05
1.154	328.15	0.0008032	8.06e-05
1.849	328.15	0.0010629	0.0001067
2.554	328.15	0.0013484	0.0001354
0.265	333.15	0.0005137	5.16e-05
0.551	333.15	0.0005755	5.78e-05
0.817	333.15	0.0006494	6.52e-05
1.154	333.15	0.0007412	7.44e-05
1.849	333.15	0.0009765	9.8e-05
2.554	333.15	0.0012322	0.0001237
0.265	338.15	0.0004805	4.82e-05
0.551	338.15	0.0005364	5.38e-05
0.817	338.15	0.0006048	6.07e-05
1.154	338.15	0.0006878	6.9e-05
1.849	338.15	0.0009002	9.04e-05
2.554	338.15	0.001131	0.0001135
0.265	343.15	0.0004494	4.51e-05
0.551	343.15	0.000501	5.03e-05
0.817	343.15	0.0005644	5.66e-05
1.154	343.15	0.0006418	6.44e-05
1.849	343.15	0.0008351	8.38e-05
2.554	343.15	0.0010427	0.0001047
0.265	348.15	0.0004239	4.25e-05
0.551	348.15	0.0004714	4.73e-05
0.817	348.15	0.000528	5.3e-05
1.154	348.15	0.0005985	6.01e-05
1.849	348.15	0.0007753	7.78e-05
2.554	348.15	0.000965	9.69e-05
0.265	353.15	0.0004016	4.03e-05
0.551	353.15	0.0004451	4.47e-05
0.817	353.15	0.000497	4.99e-05
1.154	353.15	0.0005619	5.64e-05
1.849	353.15	0.0007232	7.26e-05
2.554	353.15	0.0008969	9e-05

System: water + potassium L-argininate; phases: Liquid
Fixed: Pressure, kPa = 101.3
Property: Mass density, kg/m3 (Liquid); method: Vibrating tube method
Molality, mol/kg of potassium L-argininate	Temperature, K	Mass density, kg/m3	uncertainty
0.264	293.15	1023.3	4.1
0.542	293.15	1045	4.1
0.848	293.15	1066	4.1
1.155	293.15	1086.4	4.1
0.264	298.15	1021.8	4.1
0.542	298.15	1043.6	4.1
0.848	298.15	1064.9	4.1
1.155	298.15	1085.1	4.1
0.264	303.15	1020.2	4.1
0.542	303.15	1041.7	4.1
0.848	303.15	1062.8	4.1
1.155	303.15	1082.9	4.1
0.264	308.15	1018.3	4.1
0.542	308.15	1039.7	4.1
0.848	308.15	1060.6	4.1
1.155	308.15	1080.5	4.1
0.264	313.15	1016.3	4.1
0.542	313.15	1037.5	4.1
0.848	313.15	1058.3	4.1
1.155	313.15	1078.1	4.1
0.264	318.15	1014.2	4.1
0.542	318.15	1035.2	4.1
0.848	318.15	1055.8	4.1
1.155	318.15	1075.5	4.1
0.264	323.15	1011.7	4.1
0.542	323.15	1032.7	4.1
0.848	323.15	1053.2	4.1
1.155	323.15	1072.8	4.1
0.264	328.15	1009.4	4.1
0.542	328.15	1030.2	4.1
0.848	328.15	1050.5	4.1
1.155	328.15	1070	4.1
0.264	333.15	1006.8	4.1
0.542	333.15	1027.5	4.1
0.848	333.15	1047.6	4.1
1.155	333.15	1067.2	4.1
0.264	338.15	1004	4.1
0.542	338.15	1024.6	4.1
0.848	338.15	1044.8	4.1
1.155	338.15	1064.1	4.1
0.264	343.15	1001.2	4.1
0.542	343.15	1021.7	4.1
0.848	343.15	1041.7	4.1
1.155	343.15	1061	4.1
0.264	348.15	998.2	4.1
0.542	348.15	1018.6	4.1
0.848	348.15	1038.5	4.1
1.155	348.15	1057.7	4.1
0.264	353.15	995.1	4.1
0.542	353.15	1015.4	4.1
0.848	353.15	1035.2	4.1
1.155	353.15	1054.3	4.1

System: water + potassium L-argininate; phases: Liquid
Fixed: Pressure, kPa = 101.3
Property: Viscosity, Pa*s (Liquid); method: Falling or rolling sphere viscometry
Amount concentration (molarity), mol/dm3 of potassium L-argininate	Temperature, K	Viscosity, Pa*s	uncertainty
0.264	293.15	0.0011009	0.0001106
0.542	293.15	0.0013107	0.0001317
0.848	293.15	0.0015798	0.0001587
1.155	293.15	0.0019232	0.0001932
0.264	298.15	0.0009793	9.84e-05
0.542	298.15	0.0011624	0.0001168
0.848	298.15	0.0014407	0.0001448
1.155	298.15	0.0017084	0.0001716
0.264	303.15	0.0008793	8.83e-05
0.542	303.15	0.0010401	0.0001045
0.848	303.15	0.0012523	0.0001258
1.155	303.15	0.0015167	0.0001524
0.264	308.15	0.0007934	7.97e-05
0.542	308.15	0.0009362	9.4e-05
0.848	308.15	0.0011232	0.0001128
1.155	308.15	0.0013564	0.0001363
0.264	313.15	0.0007202	7.24e-05
0.542	313.15	0.0008483	8.52e-05
0.848	313.15	0.0010145	0.0001019
1.155	313.15	0.0012195	0.0001225
0.264	318.15	0.0006587	6.62e-05
0.542	318.15	0.0007734	7.77e-05
0.848	318.15	0.0009217	9.26e-05
1.155	318.15	0.0011037	0.0001109
0.264	323.15	0.0006057	6.08e-05
0.542	323.15	0.0007088	7.12e-05
0.848	323.15	0.0008424	8.46e-05
1.155	323.15	0.0010047	0.0001009
0.264	328.15	0.0005588	5.61e-05
0.542	328.15	0.0006532	6.56e-05
0.848	328.15	0.0007748	7.78e-05
1.155	328.15	0.0009193	9.23e-05
0.264	333.15	0.0005191	5.21e-05
0.542	333.15	0.0006052	6.08e-05
0.848	333.15	0.000713	7.16e-05
1.155	333.15	0.0008449	8.49e-05
0.264	338.15	0.0004846	4.87e-05
0.542	338.15	0.0005624	5.65e-05
0.848	338.15	0.0006616	6.64e-05
1.155	338.15	0.0007796	7.83e-05
0.264	343.15	0.0004546	4.57e-05
0.542	343.15	0.0005252	5.27e-05
0.848	343.15	0.0006144	6.17e-05
1.155	343.15	0.0007222	7.25e-05
0.264	348.15	0.0004283	4.3e-05
0.542	348.15	0.0004925	4.95e-05
0.848	348.15	0.0005738	5.76e-05
1.155	348.15	0.0006709	6.74e-05
0.264	353.15	0.000405	4.07e-05
0.542	353.15	0.0004635	4.65e-05
0.848	353.15	0.0005374	5.4e-05
1.155	353.15	0.0006259	6.28e-05

System: water + nitrous oxide + potassium L-lysinate; phases: Liquid, Gas
Property: Molality, mol/kg of nitrous oxide (Liquid); method: phase equilibration
Solvent: Molality, mol/kg of potassium L-lysinate	Temperature, K	Pressure, kPa of nitrous oxide	Molality, mol/kg of nitrous oxide	uncertainty
0.249	298.45	129.67	0.0284	0.01
0.249	303.35	138.08	0.0265	0.01
0.249	308.35	145.57	0.025	0.01
0.249	313.35	152.54	0.0238	0.01
0.249	318.35	159.14	0.0226	0.01
0.249	323.35	165.2	0.0217	0.01
0.249	328.35	171.08	0.0209	0.01
0.54	298.45	134.26	0.0257	0.01
0.54	303.35	142	0.0243	0.01
0.54	308.35	149.66	0.023	0.01
0.54	313.35	156.74	0.0219	0.01
0.54	318.35	163.32	0.0211	0.01
0.54	323.35	169.7	0.0202	0.01
0.54	328.35	175.69	0.0196	0.01
0.841	298.45	145.76	0.025	0.01
0.841	303.35	153.87	0.0237	0.01
0.841	308.35	161.92	0.0226	0.01
0.841	313.35	169.45	0.0215	0.01
0.841	318.35	176.78	0.0206	0.01
0.841	323.35	183.5	0.0199	0.01
0.841	328.35	189.78	0.0193	0.01
1.155	298.45	143.94	0.0224	0.01
1.155	303.35	150.54	0.0213	0.01
1.155	308.35	157.16	0.0202	0.01
1.155	313.35	163.64	0.0192	0.01
1.155	318.35	169.54	0.0184	0.01
1.155	323.35	175.32	0.0177	0.01
1.155	328.35	180.64	0.0172	0.01
1.908	298.45	156.2	0.0205	0.01
1.908	303.35	162.69	0.0196	0.01
1.908	308.35	168.98	0.0187	0.01
1.908	313.35	174.9	0.018	0.01
1.908	318.35	180.73	0.0174	0.01
1.908	323.35	185.98	0.0169	0.01
1.908	328.35	191.33	0.0165	0.01
2.638	298.45	158.6	0.0177	0.01
2.638	303.35	164.73	0.0168	0.01
2.638	308.35	170.19	0.0162	0.01
2.638	313.35	175.35	0.0157	0.01
2.638	318.35	180.68	0.0152	0.01
2.638	323.35	185.44	0.0149	0.01
2.638	328.35	190.2	0.0145	0.01

System: water + nitrous oxide + potassium L-histidinate; phases: Liquid, Gas
Property: Molality, mol/kg of nitrous oxide (Liquid); method: phase equilibration
Solvent: Molality, mol/kg of potassium L-histidinate	Temperature, K	Pressure, kPa of nitrous oxide	Molality, mol/kg of nitrous oxide	uncertainty
0.527	293.35	121.86	0.0287	0.01
0.527	298.45	129.3	0.0269	0.0108
0.527	303.35	136.18	0.0253	0.01
0.527	308.35	142.94	0.0239	0.01
0.527	313.35	149.25	0.0227	0.01
0.527	318.35	155.22	0.0216	0.01
0.527	323.35	160.76	0.0208	0.01
1.135	298.45	140.97	0.024	0.01
1.135	303.35	147.89	0.0227	0.01
1.135	308.35	154.35	0.0216	0.01
1.135	313.35	160.4	0.0206	0.01
1.135	318.35	166.18	0.0198	0.01
1.135	323.35	171.94	0.019	0.01
1.135	328.35	177.39	0.0184	0.01
1.859	298.45	166.69	0.0233	0.01
1.859	303.35	174.25	0.0223	0.01
1.859	308.35	181.77	0.0213	0.01
1.859	313.35	188.78	0.0205	0.01
1.859	323.35	201.58	0.0192	0.01
2.645	298.45	162.06	0.019	0.01
2.645	303.35	167.97	0.0181	0.01
2.645	308.35	173.61	0.0174	0.01
2.645	313.35	179.19	0.0167	0.01
2.645	318.35	184.42	0.0162	0.01
2.645	323.35	189.78	0.0156	0.01
2.645	328.35	194.74	0.0152	0.01

System: water + nitrous oxide + potassium L-argininate; phases: Liquid, Gas
Property: Molality, mol/kg of nitrous oxide (Liquid); method: phase equilibration
Solvent: Molality, mol/kg of potassium L-argininate	Temperature, K	Pressure, kPa of nitrous oxide	Molality, mol/kg of nitrous oxide	uncertainty
0.263	293.35	118.62	0.0281	0.01
0.263	298.45	126.75	0.0264	0.01
0.263	303.35	134.62	0.0249	0.01
0.263	308.35	141.93	0.0237	0.01
0.263	313.35	148.7	0.0226	0.01
0.263	318.35	155.16	0.0216	0.01
0.263	323.35	161.29	0.0208	0.01
0.541	293.35	130.63	0.0258	0.01
0.541	298.45	138.15	0.0243	0.01
0.541	303.35	145.59	0.0229	0.01
0.541	308.35	152.45	0.0218	0.01
0.541	313.35	158.74	0.0208	0.01
0.541	318.35	164.81	0.02	0.01
0.541	323.35	170.56	0.0193	0.01
0.842	293.35	137.46	0.0243	0.01
0.842	298.45	144.79	0.0229	0.01
0.842	303.35	152.07	0.0216	0.01
0.842	308.35	158.32	0.0206	0.01
0.842	313.35	164.54	0.0197	0.01
0.842	318.35	170.47	0.0189	0.01
0.842	323.35	175.77	0.0183	0.01
1.154	293.35	139.05	0.0208	0.01
1.154	298.45	145.08	0.0197	0.01
1.154	303.35	151.65	0.0186	0.01
1.154	308.35	157.86	0.0177	0.01
1.154	313.35	163.7	0.0169	0.01
1.154	318.35	169.14	0.0162	0.01
1.154	323.35	174.05	0.0158	0.01
