Measured thermophysical data. Solubility of Calcium Carbonate in Ammonium Chloride Aqueous Solution at T = (298.15, 323.15, and 348.15) K
Source: J. Chem. Eng. Data, 2015, 10.1021/acs.jced.5b00417
Compound 1: water, H2O, InChI=1S/H2O/h1H2, purity 99.8%
Compound 2: ammonium chloride (NH4Cl), ClH4N, InChI=1S/ClH.H3N/h1H;1H3
Compound 3: calcium carbonate, CCaO3, InChI=1S/CH2O3.Ca/c2-1(3)4;/h(H2,2,3,4);/q;+2/p-2

System: calcium carbonate + water + ammonium chloride (NH4Cl); phases: Liquid, Crystal
Fixed: Pressure, kPa = 88.4
Property: Molality, mol/kg of calcium carbonate (Liquid); method: Titration
Temperature, K	Solvent: Molality, mol/kg of ammonium chloride (NH4Cl)	Molality, mol/kg of calcium carbonate	uncertainty
298.15	0.1283	3.0609	0.1852
298.15	0.2131	3.8054	0.2294
298.15	0.3496	4.1909	0.2547
298.15	0.4576	5.2187	0.3171
298.15	0.6546	5.8858	0.3572
298.15	0.8576	6.8064	0.4109
298.15	1.1388	7.1201	0.4283
298.15	1.8939	8.0012	0.4813
298.15	3.8441	9.1095	0.549
298.15	4.8123	9.549	0.5754
323.15	0.1044	3.4305	0.207
323.15	0.2061	4.5299	0.2751
323.15	0.2937	5.2009	0.3143
323.15	0.4568	5.6823	0.344
323.15	0.7449	7.639	0.4664
323.15	0.9063	8.0675	0.4857
323.15	1.1559	8.9828	0.5448
323.15	1.5946	10.5899	0.6503
323.15	2.2643	13.413	0.8081
323.15	4.1216	15.0318	0.9036
323.15	6.1213	15.304	0.9191
348.15	0.0971	4.3557	0.2661
348.15	0.2041	7.0448	0.4289
348.15	0.3531	8.8781	0.5374
348.15	0.4284	9.0819	0.5459
348.15	0.7679	11.7264	0.7129
348.15	0.8725	12.2137	0.75
348.15	1.2283	15.713	0.9508
348.15	1.7809	16.7878	1.0104
348.15	2.3545	17.82	1.0734
348.15	5.3807	18.9622	1.1392
348.15	6.7351	19.4117	1.1664

System: calcium carbonate + water + ammonium chloride (NH4Cl); phases: Liquid
Fixed: Pressure, kPa = 88.4
Property: Viscosity, Pa*s (Liquid); method: Capillary tube (Ostwald; Ubbelohde) method
Temperature, K	Solvent: Molality, mol/kg of ammonium chloride (NH4Cl)	Molality, mol/kg of calcium carbonate	Viscosity, Pa*s	uncertainty
298.15	0.1283	3.0609	0.0008801	1.52e-05
298.15	0.2131	3.8054	0.000882	1.53e-05
298.15	0.3496	4.1909	0.0008876	1.53e-05
298.15	0.4576	5.2187	0.0008923	1.55e-05
298.15	0.6546	5.8858	0.0008963	1.55e-05
298.15	0.8576	6.8064	0.0008978	1.56e-05
298.15	1.1388	7.1201	0.0009031	1.56e-05
298.15	1.8939	8.0012	0.0009047	1.6e-05
298.15	3.8441	9.1095	0.0009433	2.34e-05
298.15	4.8123	9.549	0.0009933	2.48e-05
323.15	0.1044	3.4305	0.0005558	8.07e-05
323.15	0.2061	4.5299	0.0005574	4.11e-05
323.15	0.2937	5.2009	0.0005661	5.22e-05
323.15	0.4568	5.6823	0.0005665	9.9e-06
323.15	0.7449	7.639	0.000568	1.04e-05
323.15	0.9063	8.0675	0.0005732	1.75e-05
323.15	1.1559	8.9828	0.0005738	1.34e-05
323.15	1.5946	10.5899	0.0005756	1.43e-05
323.15	2.2643	13.413	0.0005783	1.17e-05
323.15	4.1216	15.0318	0.0006304	2.86e-05
323.15	6.1213	15.304	0.0007813	4.06e-05
348.15	0.0971	4.3557	0.0003772	1.42e-05
348.15	0.2041	7.0448	0.0003778	7.8e-06
348.15	0.3531	8.8781	0.0003816	6.8e-06
348.15	0.4284	9.0819	0.0003833	6.8e-06
348.15	0.7679	11.7264	0.0003856	7.7e-06
348.15	0.8725	12.2137	0.0003894	7.8e-06
348.15	1.2283	15.713	0.0003923	7.3e-06
348.15	1.7809	16.7878	0.0004064	7.6e-06
348.15	2.3545	17.82	0.0004127	7.7e-06
348.15	5.3807	18.9622	0.0004831	1.34e-05
348.15	6.7351	19.4117	0.0005685	4.36e-05

System: calcium carbonate + water + ammonium chloride (NH4Cl); phases: Liquid
Fixed: Pressure, kPa = 88.4
Property: Mass density, kg/m3 (Liquid); method: Pycnometric method
Temperature, K	Solvent: Molality, mol/kg of ammonium chloride (NH4Cl)	Molality, mol/kg of calcium carbonate	Mass density, kg/m3	uncertainty
298.15	0.1283	3.0609	1000.3	10
298.15	0.2131	3.8054	1001.2	10
298.15	0.3496	4.1909	1004.3	10
298.15	0.4576	5.2187	1007.2	10.1
298.15	0.6546	5.8858	1009.3	10.1
298.15	0.8576	6.8064	1011.4	10.2
298.15	1.1388	7.1201	1016.3	10.2
298.15	1.8939	8.0012	1027.6	10.3
298.15	3.8441	9.1095	1062.3	18.5
298.15	4.8123	9.549	1108.5	19.6
323.15	0.1044	3.4305	992.7	10.4
323.15	0.2061	4.5299	993.3	10
323.15	0.2937	5.2009	993.9	9.9
323.15	0.4568	5.6823	997.1	10
323.15	0.7449	7.639	1001.8	11.1
323.15	0.9063	8.0675	1011.2	27
323.15	1.1559	8.9828	1012.8	12.3
323.15	1.5946	10.5899	1018.8	12
323.15	2.2643	13.413	1028.2	10.3
323.15	4.1216	15.0318	1057.1	27.2
323.15	6.1213	15.304	1195.1	22.5
348.15	0.0971	4.3557	979.4	9.8
348.15	0.2041	7.0448	982.3	9.8
348.15	0.3531	8.8781	986.1	9.9
348.15	0.4284	9.0819	987.7	9.9
348.15	0.7679	11.7264	992.3	10.1
348.15	0.8725	12.2137	994.8	10.1
348.15	1.2283	15.713	1000.4	10.1
348.15	1.7809	16.7878	1014.8	11
348.15	2.3545	17.82	1019.8	10.2
348.15	5.3807	18.9622	1067.1	36.9
348.15	6.7351	19.4117	1103.7	28.2
