Measured thermophysical data. Densities, Viscosities, Speeds of Sound, Bulk Moduli, Surface Tensions, and Flash Points of Quaternary Mixtures of n-Dodecane (1), n-Butylcyclohexane (2), n-Butylbenzene (3), and 2,2,4,4,6,8,8-Heptamethylnonane (4) at 0.1 MPa as Potential Surrogate Mixtures for Military Jet Fuel, JP-5
Source: J. Chem. Eng. Data, 2019, 10.1021/acs.jced.8b01233
Compound 1: dodecane, C12H26, InChI=1S/C12H26/c1-3-5-7-9-11-12-10-8-6-4-2/h3-12H2,1-2H3, purity 99.34%
Compound 2: butylcyclohexane, C10H20, InChI=1S/C10H20/c1-2-3-7-10-8-5-4-6-9-10/h10H,2-9H2,1H3, purity 99.1%
Compound 3: butylbenzene, C10H14, InChI=1S/C10H14/c1-2-3-7-10-8-5-4-6-9-10/h4-6,8-9H,2-3,7H2,1H3, purity 99.9%
Compound 4: 2,2,4,4,6,8,8-heptamethylnonane, C16H34, InChI=1S/C16H34/c1-13(10-14(2,3)4)11-16(8,9)12-15(5,6)7/h13H,10-12H2,1-9H3, purity 99.4%

System: dodecane; phases: Liquid
Fixed: Pressure, kPa = 102
Property: Mass density, kg/m3 (Liquid); method: Vibrating tube method
Temperature, K	Mass density, kg/m3	uncertainty
288.15	752.41	0.53
293.15	748.79	0.53
298.15	745.16	0.53
303.15	741.53	0.53
313.15	734.25	0.53
323.15	726.94	0.53
333.15	719.59	0.53

System: dodecane; phases: Liquid
Fixed: Pressure, kPa = 102
Property: Viscosity, Pa*s (Liquid); method: Concentric cylinders viscometry
Temperature, K	Viscosity, Pa*s	uncertainty
293.15	0.00151	2e-05
303.15	0.00125	2e-05
313.15	0.00106	2e-05
323.15	0.000916	2.1e-05
333.15	0.000798	2.1e-05

System: dodecane; phases: Liquid
Fixed: Pressure, kPa = 102
Fixed: Frequency, MHz = 3
Property: Speed of sound, m/s (Liquid); method: Single path-length method
Temperature, K	Speed of sound, m/s	uncertainty
288.15	1317.4	1
293.15	1297.9	1
298.15	1278.7	1
303.15	1259.5	1
313.15	1221.7	1
323.15	1184.5	1
333.15	1148.2	1

System: dodecane; phases: Liquid, Gas
Property: Surface tension liquid-gas, N/m (Liquid); method: Pendant drop shape
Temperature, K	Surface tension liquid-gas, N/m	uncertainty
295	0.0249	0.0003

System: butylcyclohexane; phases: Liquid
Fixed: Pressure, kPa = 102
Property: Mass density, kg/m3 (Liquid); method: Vibrating tube method
Temperature, K	Mass density, kg/m3	uncertainty
253.15	829.9	2
288.15	803.07	0.73
293.15	799.33	0.73
298.15	795.57	0.73
303.15	791.81	0.73
313.15	784.27	0.73
323.15	776.71	0.73
333.15	769.1	0.73

System: butylcyclohexane; phases: Liquid
Fixed: Pressure, kPa = 102
Property: Viscosity, Pa*s (Liquid); method: Concentric cylinders viscometry
Temperature, K	Viscosity, Pa*s	uncertainty
293.15	0.00132	2e-05
303.15	0.00111	2e-05
313.15	0.00095	2.1e-05
323.15	0.000826	2.1e-05
333.15	0.000729	2.1e-05
253.15	0.00308	6e-05

System: butylcyclohexane; phases: Liquid
Fixed: Pressure, kPa = 102
Fixed: Frequency, MHz = 3
Property: Speed of sound, m/s (Liquid); method: Single path-length method
Temperature, K	Speed of sound, m/s	uncertainty
288.15	1348.8	1.2
293.15	1328.3	1.2
298.15	1308.1	1.2
303.15	1288	1.2
313.15	1248.6	1.2
323.15	1210.1	1.2
333.15	1172.6	1.2

System: butylcyclohexane; phases: Liquid, Gas
Property: Surface tension liquid-gas, N/m (Liquid); method: Pendant drop shape
Temperature, K	Surface tension liquid-gas, N/m	uncertainty
294.5	0.0266	0.0004

System: butylbenzene; phases: Liquid
Fixed: Pressure, kPa = 102
Property: Mass density, kg/m3 (Liquid); method: Vibrating tube method
Temperature, K	Mass density, kg/m3	uncertainty
253.15	892.8	2
288.15	864.7	0.31
293.15	860.69	0.31
298.15	856.68	0.31
303.15	852.65	0.31
313.15	844.6	0.31
323.15	836.51	0.31
333.15	828.38	0.31

System: butylbenzene; phases: Liquid
Fixed: Pressure, kPa = 102
Property: Viscosity, Pa*s (Liquid); method: Concentric cylinders viscometry
Temperature, K	Viscosity, Pa*s	uncertainty
293.15	0.00104	2e-05
303.15	0.000891	2.1e-05
313.15	0.000773	2.1e-05
323.15	0.000679	2.1e-05
333.15	0.000601	2.1e-05
253.15	0.00236	6e-05

System: butylbenzene; phases: Liquid
Fixed: Pressure, kPa = 102
Fixed: Frequency, MHz = 3
Property: Speed of sound, m/s (Liquid); method: Single path-length method
Temperature, K	Speed of sound, m/s	uncertainty
288.15	1373.7	0.8
293.15	1353.8	0.8
298.15	1334.1	0.8
303.15	1314.5	0.8
313.15	1276.1	0.8
323.15	1238.4	0.8
333.15	1201.7	0.8

System: butylbenzene; phases: Liquid, Gas
Property: Surface tension liquid-gas, N/m (Liquid); method: Pendant drop shape
Temperature, K	Surface tension liquid-gas, N/m	uncertainty
295	0.0288	0.0003

System: 2,2,4,4,6,8,8-heptamethylnonane; phases: Liquid
Fixed: Pressure, kPa = 102
Property: Mass density, kg/m3 (Liquid); method: Vibrating tube method
Temperature, K	Mass density, kg/m3	uncertainty
253.15	811.5	2
253.15	811.4	2
288.15	787.84	0.52
288.15	787.76	0.52
293.15	784.51	0.52
293.15	784.4	0.52
298.15	781.15	0.52
298.15	781.05	0.52
303.15	777.8	0.52
303.15	777.7	0.52
313.15	771.09	0.52
313.15	770.99	0.52
323.15	764.36	0.52
323.15	764.27	0.52
333.15	757.62	0.52
333.15	757.53	0.52

System: 2,2,4,4,6,8,8-heptamethylnonane; phases: Liquid
Fixed: Pressure, kPa = 102
Property: Viscosity, Pa*s (Liquid); method: Concentric cylinders viscometry
Temperature, K	Viscosity, Pa*s	uncertainty
293.15	0.00373	3e-05
303.15	0.00296	3e-05
313.15	0.0024	2e-05
323.15	0.00198	2e-05
333.15	0.00166	2e-05
253.15	0.0141	0.0001

System: 2,2,4,4,6,8,8-heptamethylnonane; phases: Liquid
Fixed: Pressure, kPa = 102
Fixed: Frequency, MHz = 3
Property: Speed of sound, m/s (Liquid); method: Single path-length method
Temperature, K	Speed of sound, m/s	uncertainty
288.15	1305.1	1
293.15	1286	1
298.15	1267.1	1
303.15	1248.1	1
313.15	1211.8	1
323.15	1176.1	1
333.15	1141.3	1

System: 2,2,4,4,6,8,8-heptamethylnonane; phases: Liquid, Gas
Property: Surface tension liquid-gas, N/m (Liquid); method: Pendant drop shape
Temperature, K	Surface tension liquid-gas, N/m	uncertainty
295	0.0242	0.0003

System: butylcyclohexane + butylbenzene + 2,2,4,4,6,8,8-heptamethylnonane; phases: Liquid
Fixed: Mole fraction of butylcyclohexane = 0.3333
Fixed: Mole fraction of butylbenzene = 0.3334
Fixed: Pressure, kPa = 102
Property: Mass density, kg/m3 (Liquid); method: Vibrating tube method
Temperature, K	Mass density, kg/m3	uncertainty
288.15	810.7	0.7
293.15	807.1	0.7
298.15	803.4	0.7
303.15	799.8	0.7
313.15	792.5	0.7
323.15	785.2	0.7
333.15	777.9	0.7

System: butylcyclohexane + butylbenzene + 2,2,4,4,6,8,8-heptamethylnonane; phases: Liquid
Fixed: Mole fraction of butylcyclohexane = 0.3333
Fixed: Mole fraction of butylbenzene = 0.3334
Fixed: Pressure, kPa = 102
Property: Viscosity, Pa*s (Liquid); method: Concentric cylinders viscometry
Temperature, K	Viscosity, Pa*s	uncertainty
293.15	0.00164	2e-05
303.15	0.00137	2e-05
313.15	0.00114	2e-05
323.15	0.000991	2.1e-05
333.15	0.000879	2.1e-05

System: butylcyclohexane + butylbenzene + 2,2,4,4,6,8,8-heptamethylnonane; phases: Liquid
Fixed: Mole fraction of butylcyclohexane = 0.3333
Fixed: Mole fraction of butylbenzene = 0.3334
Fixed: Pressure, kPa = 102
Fixed: Frequency, MHz = 3
Property: Speed of sound, m/s (Liquid); method: Single path-length method
Temperature, K	Speed of sound, m/s	uncertainty
288.15	1322.8	1
293.15	1303.3	1
298.15	1284	1
303.15	1264.8	1
313.15	1227.1	1
323.15	1190.2	1
333.15	1154.3	1

System: butylcyclohexane + butylbenzene + 2,2,4,4,6,8,8-heptamethylnonane; phases: Liquid, Gas
Property: Surface tension liquid-gas, N/m (Liquid); method: Pendant drop shape
Mole fraction of butylcyclohexane	Mole fraction of butylbenzene	Temperature, K	Surface tension liquid-gas, N/m	uncertainty
0.3333	0.3334	295	0.0258	0.0003

System: dodecane + butylcyclohexane + butylbenzene; phases: Liquid
Fixed: Pressure, kPa = 102
Property: Mass density, kg/m3 (Liquid); method: Vibrating tube method
Temperature, K	Mole fraction of dodecane	Mole fraction of butylcyclohexane	Mass density, kg/m3	uncertainty
253.15	0.2	0.45	834	2
288.15	0.2	0.45	807.9	0.7
293.15	0.2	0.45	804.1	0.7
298.15	0.2	0.45	800.3	0.7
303.15	0.2	0.45	796.5	0.7
313.15	0.2	0.45	788.9	0.7
323.15	0.2	0.45	781.3	0.7
333.15	0.2	0.45	773.6	0.7
253.15	0.25	0.4	831	2
288.15	0.25	0.4	804.6	0.7
293.15	0.25	0.4	800.8	0.7
298.15	0.25	0.4	797.1	0.7
303.15	0.25	0.4	793.3	0.7
313.15	0.25	0.4	785.7	0.7
323.15	0.25	0.4	778.1	0.7
333.15	0.25	0.4	770.4	0.7
253.15	0.3333	0.3333	825	2
288.15	0.3333	0.3333	798.5	0.7
293.15	0.3333	0.3333	794.8	0.7
298.15	0.3333	0.3333	791	0.7
303.15	0.3333	0.3333	787.3	0.7
313.15	0.3333	0.3333	779.7	0.7
323.15	0.3333	0.3333	772.1	0.7
333.15	0.3333	0.3333	764.5	0.7

System: dodecane + butylcyclohexane + butylbenzene; phases: Liquid
Fixed: Pressure, kPa = 102
Property: Viscosity, Pa*s (Liquid); method: Concentric cylinders viscometry
Temperature, K	Mole fraction of dodecane	Mole fraction of butylcyclohexane	Viscosity, Pa*s	uncertainty
253.15	0.2	0.45	0.00266	6e-05
293.15	0.2	0.45	0.00118	2e-05
303.15	0.2	0.45	0.001	2e-05
313.15	0.2	0.45	0.000862	2.1e-05
323.15	0.2	0.45	0.000754	2.1e-05
333.15	0.2	0.45	0.000666	2.1e-05
253.15	0.3333	0.3333	0.00277	6e-05
293.15	0.3333	0.3333	0.00121	2e-05
303.15	0.3333	0.3333	0.00102	2e-05
313.15	0.3333	0.3333	0.000884	2.1e-05
323.15	0.3333	0.3333	0.000772	2.1e-05
333.15	0.3333	0.3333	0.00068	2.1e-05

System: dodecane + butylcyclohexane + butylbenzene; phases: Liquid
Fixed: Pressure, kPa = 102
Fixed: Frequency, MHz = 3
Property: Speed of sound, m/s (Liquid); method: Single path-length method
Temperature, K	Mole fraction of dodecane	Mole fraction of butylcyclohexane	Speed of sound, m/s	uncertainty
288.15	0.2	0.45	1341.6	1
293.15	0.2	0.45	1321.8	1
298.15	0.2	0.45	1302	1
303.15	0.2	0.45	1282.5	1
313.15	0.2	0.45	1244	1
323.15	0.2	0.45	1206.4	1
333.15	0.2	0.45	1169.6	1
288.15	0.25	0.4	1339.4	1
293.15	0.25	0.4	1319.8	1
298.15	0.25	0.4	1300.3	1
303.15	0.25	0.4	1280.9	1
313.15	0.25	0.4	1242.7	1
323.15	0.25	0.4	1205	1
333.15	0.25	0.4	1168.2	1
288.15	0.3333	0.3333	1335.9	1
293.15	0.3333	0.3333	1316.3	1
298.15	0.3333	0.3333	1296.7	1
303.15	0.3333	0.3333	1277.4	1
313.15	0.3333	0.3333	1239.2	1
323.15	0.3333	0.3333	1201.8	1.1
333.15	0.3333	0.3333	1165.1	1.1

System: dodecane + butylcyclohexane + butylbenzene; phases: Liquid, Gas
Fixed: Temperature, K = 295
Property: Surface tension liquid-gas, N/m (Liquid); method: Pendant drop shape
Mole fraction of dodecane	Mole fraction of butylcyclohexane	Surface tension liquid-gas, N/m	uncertainty
0.2	0.45	0.0266	0.0003
0.25	0.4	0.0265	0.0003
0.3333	0.3333	0.0263	0.0003

System: dodecane + butylcyclohexane + 2,2,4,4,6,8,8-heptamethylnonane; phases: Liquid
Fixed: Mole fraction of dodecane = 0.3332
Fixed: Mole fraction of butylcyclohexane = 0.3335
Fixed: Pressure, kPa = 102
Property: Mass density, kg/m3 (Liquid); method: Vibrating tube method
Temperature, K	Mass density, kg/m3	uncertainty
253.15	805	2
288.15	779.9	0.7
293.15	776.4	0.7
298.15	772.9	0.7
303.15	769.3	0.7
313.15	762.2	0.7
323.15	755.1	0.7
333.15	748	0.7

System: dodecane + butylcyclohexane + 2,2,4,4,6,8,8-heptamethylnonane; phases: Liquid
Fixed: Mole fraction of dodecane = 0.3332
Fixed: Mole fraction of butylcyclohexane = 0.3335
Fixed: Pressure, kPa = 102
Property: Viscosity, Pa*s (Liquid); method: Concentric cylinders viscometry
Temperature, K	Viscosity, Pa*s	uncertainty
253.15	0.00526	7e-05
293.15	0.00191	2e-05
303.15	0.00157	2e-05
313.15	0.00132	2e-05
323.15	0.00113	2e-05
333.15	0.00098	2e-05

System: dodecane + butylcyclohexane + 2,2,4,4,6,8,8-heptamethylnonane; phases: Liquid
Fixed: Mole fraction of dodecane = 0.3332
Fixed: Mole fraction of butylcyclohexane = 0.3335
Fixed: Pressure, kPa = 102
Fixed: Frequency, MHz = 3
Property: Speed of sound, m/s (Liquid); method: Single path-length method
Temperature, K	Speed of sound, m/s	uncertainty
288.15	1318.8	1.1
293.15	1299.5	1.1
298.15	1280.3	1.1
303.15	1261.2	1.1
313.15	1223.7	1.1
323.15	1186.8	1.1
333.15	1150.8	1.1

System: dodecane + butylcyclohexane + 2,2,4,4,6,8,8-heptamethylnonane; phases: Liquid, Gas
Property: Surface tension liquid-gas, N/m (Liquid); method: Pendant drop shape
Mole fraction of dodecane	Mole fraction of butylcyclohexane	Temperature, K	Surface tension liquid-gas, N/m	uncertainty
0.3332	0.3335	295	0.0248	0.0003

System: dodecane + butylbenzene + 2,2,4,4,6,8,8-heptamethylnonane; phases: Liquid
Fixed: Mole fraction of dodecane = 0.3334
Fixed: Mole fraction of butylbenzene = 0.3333
Fixed: Pressure, kPa = 102
Property: Mass density, kg/m3 (Liquid); method: Vibrating tube method
Temperature, K	Mass density, kg/m3	uncertainty
253.15	818	2
288.15	792.7	0.7
293.15	789.2	0.7
298.15	785.6	0.7
303.15	782	0.7
313.15	774.8	0.7
323.15	767.6	0.7
333.15	760.3	0.7

System: dodecane + butylbenzene + 2,2,4,4,6,8,8-heptamethylnonane; phases: Liquid
Fixed: Mole fraction of dodecane = 0.33334
Fixed: Mole fraction of butylbenzene = 0.3333
Fixed: Pressure, kPa = 102
Property: Viscosity, Pa*s (Liquid); method: Concentric cylinders viscometry
Temperature, K	Viscosity, Pa*s	uncertainty
253.15	0.00435	6e-05
293.15	0.00168	2e-05
303.15	0.00139	2e-05
313.15	0.00119	2e-05
323.15	0.00102	2e-05
333.15	0.00089	2e-05

System: dodecane + butylbenzene + 2,2,4,4,6,8,8-heptamethylnonane; phases: Liquid
Fixed: Mole fraction of dodecane = 0.3334
Fixed: Mole fraction of butylbenzene = 0.3333
Fixed: Pressure, kPa = 102
Fixed: Frequency, MHz = 3
Property: Speed of sound, m/s (Liquid); method: Single path-length method
Temperature, K	Speed of sound, m/s	uncertainty
288.15	1319.8	0.9
293.15	1300.5	0.9
298.15	1281.3	0.9
303.15	1262.3	0.9
313.15	1225	0.9
323.15	1188.4	0.9
333.15	1152.8	0.9
