Measured thermophysical data. A Low-Temperature Aqueous Thermodynamic Model for the Na-K-Ca-Mg-Cl-SO4 System Incorporating New Experimental Heat Capacities in Na2SO4, K2SO4, and MgSO4 Solutions
Source: J. Chem. Eng. Data, 2017, 10.1021/acs.jced.7b00265
Compound 1: sodium sulfate, Na2O4S, InChI=1S/2Na.H2O4S/c;;1-5(2,3)4/h;;(H2,1,2,3,4)/q2*+1;/p-2
Compound 2: water, H2O, InChI=1S/H2O/h1H2, purity 99.8%
Compound 3: potassium sulfate, K2O4S, InChI=1S/2K.H2O4S/c;;1-5(2,3)4/h;;(H2,1,2,3,4)/q2*+1;/p-2
Compound 4: magnesium sulfate, MgO4S, InChI=1S/Mg.H2O4S/c;1-5(2,3)4/h;(H2,1,2,3,4)/q+2;/p-2

System: sodium sulfate + water; phases: Liquid
Fixed: Pressure, kPa = 100
Property: Molar heat capacity at constant pressure, J/K/mol (Liquid); method: DSC
Temperature, K	Molality, mol/kg of sodium sulfate	Molar heat capacity at constant pressure, J/K/mol	uncertainty
298.15	0.1012	74.9704665868406	2.91855830995
293.15	0.1012	74.9339846079663	2.90031732051281
288.15	0.1012	74.9522255974034	2.90031732051281
283.15	0.1012	74.9887075762778	2.90031732051281
278.15	0.1012	75.0799125234637	2.90031732051281
273.15	0.1012	75.2258404389612	2.91855830995
268.15	0.1012	75.4264913227703	2.91855830995
263.15	0.1012	75.8095521009513	2.93679929938719
258.15	0.1012	76.3567817840669	2.95504028882438
298.15	0.253	74.6278961546406	2.89817072445206
293.15	0.253	74.5721621022473	2.87959270698763
288.15	0.253	74.5721621022473	2.87959270698763
283.15	0.253	74.5535840847829	2.87959270698763
278.15	0.253	74.5721621022473	2.87959270698763
273.15	0.253	74.6278961546406	2.89817072445206
268.15	0.253	74.7207862419628	2.89817072445206
263.15	0.253	74.9065664166072	2.89817072445206
258.15	0.253	75.1295026261804	2.9167487419165
298.15	0.501	74.3950809451581	2.88782962023621
293.15	0.501	74.318582147271	2.88782962023621
288.15	0.501	74.2803327483275	2.86870492076445
283.15	0.501	74.2038339504404	2.86870492076445
278.15	0.501	74.1464598520252	2.86870492076445
273.15	0.501	74.1082104530816	2.86870492076445
268.15	0.501	74.0890857536099	2.86870492076445
263.15	0.501	74.1273351525534	2.86870492076445
258.15	0.501	74.1655845514969	2.86870492076445
298.15	0.748	74.4690307702763	2.89066478036193
293.15	0.748	74.3903732252325	2.89066478036193
288.15	0.748	74.3313800664496	2.87100039410096
283.15	0.748	74.2330581351448	2.87100039410096
278.15	0.748	74.1347362038399	2.87100039410096
273.15	0.748	74.075743045057	2.87100039410096
268.15	0.748	74.0167498862741	2.87100039410096
263.15	0.748	73.9577567274912	2.87100039410096
258.15	0.748	73.8987635687083	2.87100039410096
253.15	0.748	73.9380923412303	2.87100039410096
298.15	1	74.7572919023612	2.89004940309209
293.15	1	74.6764513596174	2.89004940309209
288.15	1	74.6158209525595	2.89004940309209
283.15	1	74.4945601384438	2.89004940309209
278.15	1	74.393509460014	2.89004940309209
273.15	1	74.3126689172701	2.86983926740614
268.15	1	74.2116182388404	2.86983926740614
263.15	1	74.1509878317825	2.86983926740614
258.15	1	74.0095168819808	2.86983926740614
253.15	1	73.9690966106088	2.86983926740614
298.15	1.33	75.3657151501728	2.92844854871612
293.15	1.33	75.2820451916381	2.90753105908244
288.15	1.33	75.219292722737	2.90753105908244
283.15	1.33	75.1147052745686	2.90753105908244
278.15	1.33	75.0310353160338	2.90753105908244
273.15	1.33	74.9473653574991	2.90753105908244
268.15	1.33	74.8427779093306	2.90753105908244
263.15	1.33	74.7172729715285	2.88661356944875
258.15	1.33	74.5290155648253	2.88661356944875
253.15	1.33	74.4035106270232	2.88661356944875
298.15	1.517	75.7950359515145	2.94142715447385
293.15	1.517	75.7737212619893	2.94142715447385
288.15	1.517	75.6458331248383	2.92011246494867
283.15	1.517	75.5179449876872	2.92011246494867
278.15	1.517	75.3261127819607	2.92011246494867
273.15	1.517	75.2195393343348	2.92011246494867
268.15	1.517	75.0277071286083	2.8987977754235
263.15	1.517	74.8145602333565	2.8987977754235
258.15	1.517	74.7079867857307	2.8987977754235
298.15	2.084	77.3212230485051	2.99293441951431
293.15	2.084	77.3887328474416	2.99293441951431
288.15	2.084	77.3212230485051	2.99293441951431
283.15	2.084	77.1637001843202	2.99293441951431

System: potassium sulfate + water; phases: Liquid
Fixed: Pressure, kPa = 100
Property: Molar heat capacity at constant pressure, J/K/mol (Liquid); method: DSC
Temperature, K	Molality, mol/kg of potassium sulfate	Molar heat capacity at constant pressure, J/K/mol	uncertainty
298.15	0.1142	74.7744923428576	2.8970990167169
293.15	0.1142	74.8295005520358	2.8970990167169
288.15	0.1142	74.8478366217618	2.8970990167169
283.15	0.1142	74.8111644823097	2.8970990167169
278.15	0.1142	74.8295005520358	2.8970990167169
273.15	0.1142	74.9578530401182	2.8970990167169
268.15	0.1142	75.0678694584745	2.91543508644295
263.15	0.1142	75.3612465740914	2.91543508644295
298.15	0.201	74.4275247810747	2.87974696481942
293.15	0.201	74.4646828064272	2.87974696481942
288.15	0.201	74.446103793751	2.87974696481942
283.15	0.201	74.3903667557222	2.87974696481942
278.15	0.201	74.3346297176935	2.87974696481942
273.15	0.201	74.4832618191035	2.87974696481942
268.15	0.201	74.5018408317797	2.87974696481942
263.15	0.201	74.669051945866	2.89832597749567
298.15	0.296	74.1136102163559	2.88313815486968
293.15	0.296	74.1512982968117	2.88313815486968
288.15	0.296	74.0193900152163	2.86429411464177
283.15	0.296	73.9817019347605	2.86429411464177
278.15	0.296	73.887481733621	2.86429411464177
273.15	0.296	73.9063257738489	2.86429411464177
268.15	0.296	73.8686376933931	2.86429411464177
263.15	0.296	73.9628578945326	2.86429411464177
298.15	0.415	73.7652698916455	2.85703800724075
293.15	0.415	73.7652698916455	2.85703800724075
288.15	0.415	73.6502213812868	2.85703800724075
283.15	0.415	73.5543476226545	2.85703800724075
278.15	0.415	73.400949608843	2.85703800724075
273.15	0.415	73.4201243605694	2.85703800724075
268.15	0.415	73.3242506019372	2.8378632555143
263.15	0.415	73.3242506019372	2.85703800724075
258.15	0.415	73.4968233674752	2.85703800724075
253.15	0.415	73.746095139919	2.85703800724075
298.15	0.515	73.5269504056047	2.8593814046624
293.15	0.515	73.5269504056047	2.8593814046624
288.15	0.515	73.4102409605164	2.8593814046624
283.15	0.515	73.3324346637909	2.83992983048103
278.15	0.515	73.1573704961585	2.83992983048103
273.15	0.515	73.1184673477958	2.83992983048103
268.15	0.515	72.9823063285261	2.83992983048103
263.15	0.515	72.9434031801634	2.83992983048103
258.15	0.515	73.0601126252516	2.83992983048103
298.15	0.606	73.3331709193008	2.85688065107432
293.15	0.606	73.3331709193008	2.85688065107432
288.15	0.606	73.2149551682219	2.8371780258945
283.15	0.606	73.1361446675026	2.8371780258945
278.15	0.606	72.9194157905246	2.8371780258945
273.15	0.606	72.8997131653447	2.8371780258945
268.15	0.606	72.7420921639062	2.8371780258945
263.15	0.606	72.643579038007	2.81747540071467

System: magnesium sulfate + water; phases: Liquid
Fixed: Pressure, kPa = 100
Property: Molar heat capacity at constant pressure, J/K/mol (Liquid); method: DSC
Temperature, K	Molality, mol/kg of magnesium sulfate	Molar heat capacity at constant pressure, J/K/mol	uncertainty
298.15	0.0546	75.0540050873272	2.89853748828683
293.15	0.0546	75.0902368059307	2.91665334758862
288.15	0.0546	75.1627002431379	2.91665334758862
283.15	0.0546	75.2351636803451	2.91665334758862
278.15	0.0546	75.3619746954576	2.91665334758862
273.15	0.0546	75.5612491477774	2.93476920689042
268.15	0.0546	75.7967553187007	2.93476920689042
263.15	0.0546	76.2134200826419	2.95288506619221
298.15	0.1089	74.8300549948039	2.89629472837727
293.15	0.1089	74.8482706849195	2.89629472837727
288.15	0.1089	74.9029177552662	2.89629472837727
283.15	0.1089	74.9575648256129	2.89629472837727
278.15	0.1089	75.0668589663064	2.91451041849285
273.15	0.1089	75.2308001773466	2.91451041849285
268.15	0.1089	75.4129570785024	2.91451041849285
298.15	0.213	74.4360251511764	2.88982590225883
293.15	0.213	74.4176186167672	2.88982590225883
288.15	0.213	74.4360251511764	2.88982590225883
283.15	0.213	74.4360251511764	2.88982590225883
278.15	0.213	74.4912447544043	2.88982590225883
273.15	0.213	74.5832774264508	2.88982590225883
268.15	0.213	74.6753100984972	2.88982590225883
298.15	0.526	73.5512833900924	2.84641189590141
293.15	0.526	73.4374269142564	2.84641189590141
288.15	0.526	73.3425465177263	2.84641189590141
283.15	0.526	73.2286900418903	2.8274358165954
278.15	0.526	73.1527857246662	2.8274358165954
273.15	0.526	73.0768814074422	2.8274358165954
268.15	0.526	73.0009770902182	2.8274358165954
263.15	0.526	72.9440488523001	2.8274358165954
258.15	0.526	72.9060966936881	2.8274358165954
298.15	1.001	72.6510816549688	2.81562598116964
293.15	1.001	72.413141431208	2.79579762918957
288.15	1.001	72.2346862633874	2.79579762918957
283.15	1.001	71.9769176876465	2.79579762918957
278.15	1.001	71.7786341678458	2.77596927720951
273.15	1.001	71.540693944085	2.77596927720951
268.15	1.001	71.263097016364	2.75614092522944
263.15	1.001	70.9458433846829	2.75614092522944
298.15	1.502	72.1187873811879	2.79610462276289
293.15	1.502	71.8288209758644	2.77539273666835
288.15	1.502	71.5595664566354	2.77539273666835
283.15	1.502	71.2281762791227	2.75468085057381
278.15	1.502	70.9382098737992	2.75468085057381
273.15	1.502	70.586107810192	2.73396896447927
268.15	1.502	70.1718700883012	2.71325707838473
263.15	1.502	69.7369204803158	2.69254519229019
258.15	1.502	69.2398352140469	2.69254519229019
253.15	1.502	68.7427499477779	2.67183330619565
298.15	2.012	71.912961033976	2.7858174094243
293.15	2.012	71.5674332932723	2.76422192563031
288.15	2.012	71.2650965201564	2.76422192563031
283.15	2.012	70.8763778118647	2.74262644183632
278.15	2.012	70.4876591035729	2.74262644183632
273.15	2.012	70.0989403952812	2.74262644183632
268.15	2.012	69.6238397518134	2.76422192563031
263.15	2.012	69.1055481407578	2.72103095804234
258.15	2.012	68.5224700783201	2.74262644183632
253.15	2.012	67.9393920158825	2.72103095804234
248.15	2.012	67.2699320182689	2.67783999045436
298.15	2.495	72.0065412304386	2.77982911350386
293.15	2.495	71.6254356261679	2.77982911350386
288.15	2.495	71.266747998619	2.75741113678205
283.15	2.495	70.8856423943484	2.75741113678205
278.15	2.495	70.4597008366341	2.73499316006025
273.15	2.495	70.0337592789198	2.71257518333844
268.15	2.495	69.54056379104	2.69015720661664
263.15	2.495	68.9801143729949	2.66773922989483
258.15	2.495	68.3748290015062	2.64532125317303
253.15	2.495	67.7471256532956	2.62290327645122
248.15	2.495	67.0521683749197	2.60048529972942
298.15	2.775	72.3506820041459	2.7924021526434
293.15	2.775	71.9386882439198	2.7924021526434
288.15	2.775	71.5724715681633	2.76951361040862
283.15	2.775	71.1147007234677	2.74662506817384
278.15	2.775	70.7027069632416	2.74662506817384
273.15	2.775	70.244936118546	2.72373652593906
268.15	2.775	69.6956111049112	2.70084798370428
263.15	2.775	69.1233975490416	2.67795944146949
258.15	2.775	68.5054069087025	2.65507089923471
253.15	2.775	67.8645277261286	2.63218235699993
248.15	2.775	67.1320943746156	2.60929381476515
