Measured thermophysical data. Liquid-Liquid Equilibria for Benzene/Thiophene + Cyclohexane/Hexadecane + Deep Eutectic Solvents: Data and Correlation
Source: J. Chem. Eng. Data, 2019, 10.1021/acs.jced.9b00313
Compound 1: choline chloride, C5H14ClNO, InChI=1S/C5H14NO.ClH/c1-6(2,3)4-5-7;/h7H,4-5H2,1-3H3;1H/q+1;/p-1, purity 99%
Compound 2: 1,2-ethanediol, C2H6O2, InChI=1S/C2H6O2/c3-1-2-4/h3-4H,1-2H2, purity 99.8%
Compound 3: diethylene glycol, C4H10O3, InChI=1S/C4H10O3/c5-1-3-7-4-2-6/h5-6H,1-4H2, purity 99.8%
Compound 4: triethylene glycol, C6H14O4, InChI=1S/C6H14O4/c7-1-3-9-5-6-10-4-2-8/h7-8H,1-6H2, purity 99%
Compound 5: 2-aminoethan-1-ol, C2H7NO, InChI=1S/C2H7NO/c3-1-2-4/h4H,1-3H2, purity 99%
Compound 6: diethanolamine, C4H11NO2, InChI=1S/C4H11NO2/c6-3-1-5-2-4-7/h5-7H,1-4H2, purity 98.5%
Compound 7: triethanolamine, C6H15NO3, InChI=1S/C6H15NO3/c8-4-1-7(2-5-9)3-6-10/h8-10H,1-6H2, purity 99%
Compound 8: cyclohexane, C6H12, InChI=1S/C6H12/c1-2-4-6-5-3-1/h1-6H2, purity 99%
Compound 9: hexadecane, C16H34, InChI=1S/C16H34/c1-3-5-7-9-11-13-15-16-14-12-10-8-6-4-2/h3-16H2,1-2H3, purity 99%

System: choline chloride + 1,2-ethanediol; phases: Liquid
Fixed: Pressure, kPa = 86.5
Property: Mass density, kg/m3 (Liquid); method: Vibrating tube method
Temperature, K	Mole fraction of choline chloride	Mass density, kg/m3	uncertainty
288.15	0.167	1115.915	3.135
293.15	0.167	1113.087	3.131
298.15	0.167	1110.235	3.127
303.15	0.167	1107.339	3.123
288.15	0.125	1113.726	3.132
293.15	0.125	1111.865	3.129
298.15	0.125	1109.071	3.125
303.15	0.125	1106.165	3.121

System: choline chloride + 1,2-ethanediol; phases: Liquid
Fixed: Pressure, kPa = 86.5
Fixed: Frequency, MHz = 3
Property: Speed of sound, m/s (Liquid); method: Single path-length method
Temperature, K	Mole fraction of choline chloride	Speed of sound, m/s	uncertainty
288.15	0.167	1931.83	2.03
293.15	0.167	1920.11	2.03
298.15	0.167	1908.6	2.03
303.15	0.167	1897.08	2.03
288.15	0.125	1919.55	2.02
293.15	0.125	1907.54	2.02
298.15	0.125	1895.17	2.02
303.15	0.125	1883.53	2.02

System: choline chloride + 1,2-ethanediol; phases: Liquid
Fixed: Pressure, kPa = 86.5
Property: Refractive index (Na D-line) (Liquid); method: Standard Abbe refractometry
Temperature, K	Mole fraction of choline chloride	Refractive index (Na D-line)	uncertainty
288.15	0.167	1.4732	0.002
293.15	0.167	1.4711	0.002
298.15	0.167	1.4687	0.002
303.15	0.167	1.4668	0.002
288.15	0.125	1.467	0.002
293.15	0.125	1.4649	0.002
298.15	0.125	1.4628	0.002
303.15	0.125	1.461	0.002

System: choline chloride + 1,2-ethanediol; phases: Liquid
Fixed: Pressure, kPa = 86.5
Property: Viscosity, Pa*s (Liquid); method: Capillary tube (Ostwald; Ubbelohde) method
Temperature, K	Mole fraction of choline chloride	Viscosity, Pa*s	uncertainty
288.15	0.167	0.043394	0.001076
293.15	0.167	0.035753	0.000933
298.15	0.167	0.028862	0.000787
303.15	0.167	0.022716	0.000676
288.15	0.125	0.032074	0.000901
293.15	0.125	0.02434	0.00076
298.15	0.125	0.017712	0.000606
303.15	0.125	0.0121865	0.0005076

System: choline chloride + diethylene glycol; phases: Liquid
Fixed: Pressure, kPa = 86.5
Property: Mass density, kg/m3 (Liquid); method: Vibrating tube method
Temperature, K	Mole fraction of choline chloride	Mass density, kg/m3	uncertainty
288.15	0.167	1117.434	3.137
293.15	0.167	1114.606	3.133
298.15	0.167	1111.754	3.129
303.15	0.167	1108.858	3.125
288.15	0.125	1115.245	3.134
293.15	0.125	1113.384	3.132
298.15	0.125	1110.59	3.128
303.15	0.125	1107.684	3.123

System: choline chloride + diethylene glycol; phases: Liquid
Fixed: Pressure, kPa = 86.5
Fixed: Frequency, MHz = 3
Property: Speed of sound, m/s (Liquid); method: Single path-length method
Temperature, K	Mole fraction of choline chloride	Speed of sound, m/s	uncertainty
288.15	0.167	1764.71	2.03
293.15	0.167	1752.27	2.03
298.15	0.167	1740.27	2.03
303.15	0.167	1728.43	2.03
288.15	0.125	1752.12	2.02
293.15	0.125	1740.13	2.02
298.15	0.125	1728.43	2.02
303.15	0.125	1716.35	2.02

System: choline chloride + diethylene glycol; phases: Liquid
Fixed: Pressure, kPa = 86.5
Property: Refractive index (Na D-line) (Liquid); method: Standard Abbe refractometry
Temperature, K	Mole fraction of choline chloride	Refractive index (Na D-line)	uncertainty
288.15	0.167	1.4857	0.002
293.15	0.167	1.4836	0.002
298.15	0.167	1.4814	0.002
303.15	0.167	1.4795	0.002
288.15	0.125	1.4797	0.002
293.15	0.125	1.4776	0.002
298.15	0.125	1.4754	0.002
303.15	0.125	1.4735	0.002

System: choline chloride + diethylene glycol; phases: Liquid
Fixed: Pressure, kPa = 86.5
Property: Viscosity, Pa*s (Liquid); method: Capillary tube (Ostwald; Ubbelohde) method
Temperature, K	Mole fraction of choline chloride	Viscosity, Pa*s	uncertainty
288.15	0.167	0.125797	0.003166
293.15	0.167	0.118156	0.002912
298.15	0.167	0.111268	0.002682
303.15	0.167	0.105111	0.002487
288.15	0.125	0.110121	0.002666
293.15	0.125	0.102387	0.002422
298.15	0.125	0.095757	0.002208
303.15	0.125	0.090232	0.002042

System: choline chloride + triethylene glycol; phases: Liquid
Fixed: Pressure, kPa = 86.5
Property: Mass density, kg/m3 (Liquid); method: Vibrating tube method
Temperature, K	Mole fraction of choline chloride	Mass density, kg/m3	uncertainty
288.15	0.167	1120.953	3.155
293.15	0.167	1118.125	3.151
298.15	0.167	1115.273	3.147
303.15	0.167	1112.377	3.142
288.15	0.125	1118.764	3.152
293.15	0.125	1116.265	3.148
298.15	0.125	1113.745	3.144
303.15	0.125	1111.203	3.141

System: choline chloride + triethylene glycol; phases: Liquid
Fixed: Pressure, kPa = 86.5
Fixed: Frequency, MHz = 3
Property: Speed of sound, m/s (Liquid); method: Single path-length method
Temperature, K	Mole fraction of choline chloride	Speed of sound, m/s	uncertainty
288.15	0.167	1660.45	2.24
293.15	0.167	1648.37	2.24
298.15	0.167	1636.81	2.24
303.15	0.167	1624.86	2.24
288.15	0.125	1641.25	2.24
293.15	0.125	1629.71	2.24
298.15	0.125	1617.84	2.24
303.15	0.125	1605.83	2.24

System: choline chloride + triethylene glycol; phases: Liquid
Fixed: Pressure, kPa = 86.5
Property: Refractive index (Na D-line) (Liquid); method: Standard Abbe refractometry
Temperature, K	Mole fraction of choline chloride	Refractive index (Na D-line)	uncertainty
288.15	0.167	1.498	0.002
293.15	0.167	1.4971	0.002
298.15	0.167	1.4947	0.002
303.15	0.167	1.4928	0.002
288.15	0.125	1.492	0.002
293.15	0.125	1.4912	0.002
298.15	0.125	1.4887	0.002
303.15	0.125	1.4872	0.002

System: choline chloride + triethylene glycol; phases: Liquid
Fixed: Pressure, kPa = 86.5
Property: Viscosity, Pa*s (Liquid); method: Capillary tube (Ostwald; Ubbelohde) method
Temperature, K	Mole fraction of choline chloride	Viscosity, Pa*s	uncertainty
288.15	0.167	0.160222	0.004438
293.15	0.167	0.152581	0.004153
298.15	0.167	0.145692	0.003896
303.15	0.167	0.139544	0.003673
288.15	0.125	0.14403	0.003851
293.15	0.125	0.136296	0.003572
298.15	0.125	0.129666	0.003331
303.15	0.125	0.124141	0.003138

System: choline chloride + 2-aminoethan-1-ol; phases: Liquid
Fixed: Pressure, kPa = 86.5
Property: Mass density, kg/m3 (Liquid); method: Vibrating tube method
Temperature, K	Mole fraction of choline chloride	Mass density, kg/m3	uncertainty
288.15	0.167	1091.275	3.111
293.15	0.167	1088.112	3.107
298.15	0.167	1085.179	3.102
303.15	0.167	1082.217	3.098
288.15	0.125	1090.056	3.109
293.15	0.125	1086.893	3.105
298.15	0.125	1083.961	3.1
303.15	0.125	1080.998	3.096

System: choline chloride + 2-aminoethan-1-ol; phases: Liquid
Fixed: Pressure, kPa = 86.5
Fixed: Frequency, MHz = 3
Property: Speed of sound, m/s (Liquid); method: Single path-length method
Temperature, K	Mole fraction of choline chloride	Speed of sound, m/s	uncertainty
288.15	0.167	2006.13	2.24
293.15	0.167	1994.47	2.24
298.15	0.167	1982.01	2.24
303.15	0.167	1970.67	2.24
288.15	0.125	1989.46	2.24
293.15	0.125	1977.81	2.24
298.15	0.125	1965.34	2.24
303.15	0.125	1953.01	2.24

System: choline chloride + 2-aminoethan-1-ol; phases: Liquid
Fixed: Pressure, kPa = 86.5
Property: Refractive index (Na D-line) (Liquid); method: Standard Abbe refractometry
Temperature, K	Mole fraction of choline chloride	Refractive index (Na D-line)	uncertainty
288.15	0.167	1.4934	0.002
293.15	0.167	1.4913	0.002
298.15	0.167	1.4891	0.002
303.15	0.167	1.4873	0.002
288.15	0.125	1.4905	0.002
293.15	0.125	1.4884	0.002
298.15	0.125	1.4862	0.002
303.15	0.125	1.4844	0.002

System: choline chloride + 2-aminoethan-1-ol; phases: Liquid
Fixed: Pressure, kPa = 86.5
Property: Viscosity, Pa*s (Liquid); method: Capillary tube (Ostwald; Ubbelohde) method
Temperature, K	Mole fraction of choline chloride	Viscosity, Pa*s	uncertainty
288.15	0.167	0.059655	0.001383
293.15	0.167	0.052014	0.001387
298.15	0.167	0.037685	0.000946
303.15	0.167	0.038977	0.000823
288.15	0.125	0.050121	0.001204
293.15	0.125	0.042387	0.001058
298.15	0.125	0.035757	0.000893
303.15	0.125	0.030232	0.000773

System: choline chloride + diethanolamine; phases: Liquid
Fixed: Pressure, kPa = 86.5
Property: Mass density, kg/m3 (Liquid); method: Vibrating tube method
Temperature, K	Mole fraction of choline chloride	Mass density, kg/m3	uncertainty
288.15	0.167	1104.579	3.159
293.15	0.167	1101.416	3.154
298.15	0.167	1098.483	3.15
303.15	0.167	1095.521	3.145
288.15	0.125	1102.457	3.158
293.15	0.125	1099.487	3.153
298.15	0.125	1096.433	3.149
303.15	0.125	1092.86	3.143

System: choline chloride + diethanolamine; phases: Liquid
Fixed: Pressure, kPa = 86.5
Fixed: Frequency, MHz = 3
Property: Speed of sound, m/s (Liquid); method: Single path-length method
Temperature, K	Mole fraction of choline chloride	Speed of sound, m/s	uncertainty
288.15	0.167	1839.02	2.45
293.15	0.167	1825.67	2.45
298.15	0.167	1811.7	2.45
303.15	0.167	1799.07	2.45
288.15	0.125	1826.44	2.46
293.15	0.125	1812.5	2.46
298.15	0.125	1798.84	2.46
303.15	0.125	1783.96	2.46

System: choline chloride + diethanolamine; phases: Liquid
Fixed: Pressure, kPa = 86.5
Property: Refractive index (Na D-line) (Liquid); method: Standard Abbe refractometry
Temperature, K	Mole fraction of choline chloride	Refractive index (Na D-line)	uncertainty
288.15	0.167	1.492	0.002
293.15	0.167	1.4902	0.002
298.15	0.167	1.4877	0.002
303.15	0.167	1.4861	0.002
288.15	0.125	1.4892	0.002
293.15	0.125	1.4871	0.002
298.15	0.125	1.485	0.002
303.15	0.125	1.4831	0.002

System: choline chloride + diethanolamine; phases: Liquid
Fixed: Pressure, kPa = 86.5
Property: Viscosity, Pa*s (Liquid); method: Capillary tube (Ostwald; Ubbelohde) method
Temperature, K	Mole fraction of choline chloride	Viscosity, Pa*s	uncertainty
288.15	0.167	0.52822	0.022234
293.15	0.167	0.520582	0.021812
298.15	0.167	0.513691	0.021432
303.15	0.167	0.507541	0.021094
288.15	0.125	0.506302	0.021039
293.15	0.125	0.498568	0.020616
298.15	0.125	0.49194	0.020254
303.15	0.125	0.486414	0.019954

System: choline chloride + triethanolamine; phases: Liquid
Fixed: Pressure, kPa = 86.5
Property: Mass density, kg/m3 (Liquid); method: Vibrating tube method
Temperature, K	Mole fraction of choline chloride	Mass density, kg/m3	uncertainty
288.15	0.167	1125.757	3.162
293.15	0.167	1122.895	3.158
298.15	0.167	1120.116	3.154
303.15	0.167	1117.578	3.15
288.15	0.125	1124.873	3.161
293.15	0.125	1122.221	3.157
298.15	0.125	1119.729	3.153
303.15	0.125	1116.882	3.149

System: choline chloride + triethanolamine; phases: Liquid
Fixed: Pressure, kPa = 86.5
Fixed: Frequency, MHz = 3
Property: Speed of sound, m/s (Liquid); method: Single path-length method
Temperature, K	Mole fraction of choline chloride	Speed of sound, m/s	uncertainty
288.15	0.167	1734.74	2.24
293.15	0.167	1723.73	2.24
298.15	0.167	1712.2	2.24
303.15	0.167	1700.46	2.24
288.15	0.125	1715.54	2.24
293.15	0.125	1703.07	2.24
298.15	0.125	1691.25	2.24
303.15	0.125	1678.46	2.24

System: choline chloride + triethanolamine; phases: Liquid
Fixed: Pressure, kPa = 86.5
Property: Refractive index (Na D-line) (Liquid); method: Standard Abbe refractometry
Temperature, K	Mole fraction of choline chloride	Refractive index (Na D-line)	uncertainty
288.15	0.167	1.4926	0.002
293.15	0.167	1.4905	0.002
298.15	0.167	1.4883	0.002
303.15	0.167	1.4865	0.002
288.15	0.125	1.49	0.002
293.15	0.125	1.4877	0.002
298.15	0.125	1.4856	0.002
303.15	0.125	1.4835	0.002

System: choline chloride + triethanolamine; phases: Liquid
Fixed: Pressure, kPa = 86.5
Property: Viscosity, Pa*s (Liquid); method: Capillary tube (Ostwald; Ubbelohde) method
Temperature, K	Mole fraction of choline chloride	Viscosity, Pa*s	uncertainty
288.15	0.167	0.552671	0.02343
293.15	0.167	0.545032	0.023004
298.15	0.167	0.538144	0.022621
303.15	0.167	0.531991	0.02228
288.15	0.125	0.52291	0.021784
293.15	0.125	0.515176	0.021359
298.15	0.125	0.508547	0.020995
303.15	0.125	0.503024	0.020693

System: cyclohexane + choline chloride + 1,2-ethanediol; phases: Liquid mixture 1, Liquid mixture 2
Fixed: Pressure, kPa = 86.5
Fixed: Temperature, K = 298.15
Property: Mole fraction of cyclohexane (Liquid mixture 1); method: Titration method
Solvent: Mole fraction of choline chloride	Mole fraction of cyclohexane	uncertainty
0.167	0.019	0.003
0.125	0.02	0.003

System: cyclohexane + choline chloride + diethylene glycol; phases: Liquid mixture 1, Liquid mixture 2
Fixed: Pressure, kPa = 86.5
Fixed: Temperature, K = 298.15
Property: Mole fraction of cyclohexane (Liquid mixture 1); method: Titration method
Solvent: Mole fraction of choline chloride	Mole fraction of cyclohexane	uncertainty
0.167	0.02	0.003
0.125	0.021	0.003

System: cyclohexane + choline chloride + triethylene glycol; phases: Liquid mixture 1, Liquid mixture 2
Fixed: Pressure, kPa = 86.5
Fixed: Temperature, K = 298.15
Property: Mole fraction of cyclohexane (Liquid mixture 1); method: Titration method
Solvent: Mole fraction of choline chloride	Mole fraction of cyclohexane	uncertainty
0.167	0.017	0.003
0.125	0.029	0.003

System: cyclohexane + choline chloride + 2-aminoethan-1-ol; phases: Liquid mixture 1, Liquid mixture 2
Fixed: Pressure, kPa = 86.5
Fixed: Temperature, K = 298.15
Property: Mole fraction of cyclohexane (Liquid mixture 1); method: Titration method
Solvent: Mole fraction of choline chloride	Mole fraction of cyclohexane	uncertainty
0.167	0.026	0.003
0.125	0.027	0.003

System: cyclohexane + choline chloride + diethanolamine; phases: Liquid mixture 1, Liquid mixture 2
Fixed: Pressure, kPa = 86.5
Fixed: Temperature, K = 298.15
Property: Mole fraction of cyclohexane (Liquid mixture 1); method: Titration method
Solvent: Mole fraction of choline chloride	Mole fraction of cyclohexane	uncertainty
0.167	0.025	0.003
0.125	0.021	0.003

System: cyclohexane + choline chloride + triethanolamine; phases: Liquid mixture 1, Liquid mixture 2
Fixed: Pressure, kPa = 86.5
Fixed: Temperature, K = 298.15
Property: Mole fraction of cyclohexane (Liquid mixture 1); method: Titration method
Solvent: Mole fraction of choline chloride	Mole fraction of cyclohexane	uncertainty
0.167	0.028	0.003
0.125	0.025	0.003

System: hexadecane + choline chloride + 1,2-ethanediol; phases: Liquid mixture 1, Liquid mixture 2
Fixed: Pressure, kPa = 86.5
Fixed: Temperature, K = 298.15
Property: Mole fraction of hexadecane (Liquid mixture 1); method: Titration method
Solvent: Mole fraction of choline chloride	Mole fraction of hexadecane	uncertainty
0.167	0.007	0.003
0.125	0.008	0.003

System: hexadecane + choline chloride + diethylene glycol; phases: Liquid mixture 1, Liquid mixture 2
Fixed: Pressure, kPa = 86.5
Fixed: Temperature, K = 298.15
Property: Mole fraction of hexadecane (Liquid mixture 1); method: Titration method
Solvent: Mole fraction of choline chloride	Mole fraction of hexadecane	uncertainty
0.167	0.008	0.003
0.125	0.009	0.003

System: hexadecane + choline chloride + triethylene glycol; phases: Liquid mixture 1, Liquid mixture 2
Fixed: Pressure, kPa = 86.5
Fixed: Temperature, K = 298.15
Property: Mole fraction of hexadecane (Liquid mixture 1); method: Titration method
Solvent: Mole fraction of choline chloride	Mole fraction of hexadecane	uncertainty
0.167	0.01	0.003
0.125	0.011	0.003

System: hexadecane + choline chloride + 2-aminoethan-1-ol; phases: Liquid mixture 1, Liquid mixture 2
Fixed: Pressure, kPa = 86.5
Fixed: Temperature, K = 298.15
Property: Mole fraction of hexadecane (Liquid mixture 1); method: Titration method
Solvent: Mole fraction of choline chloride	Mole fraction of hexadecane	uncertainty
0.167	0.011	0.003
0.125	0.012	0.003

System: hexadecane + choline chloride + diethanolamine; phases: Liquid mixture 1, Liquid mixture 2
Fixed: Pressure, kPa = 86.5
Fixed: Temperature, K = 298.15
Property: Mole fraction of hexadecane (Liquid mixture 1); method: Titration method
Solvent: Mole fraction of choline chloride	Mole fraction of hexadecane	uncertainty
0.167	0.013	0.003
0.125	0.014	0.003

System: hexadecane + choline chloride + triethanolamine; phases: Liquid mixture 1, Liquid mixture 2
Fixed: Pressure, kPa = 86.5
Fixed: Temperature, K = 298.15
Property: Mole fraction of hexadecane (Liquid mixture 1); method: Titration method
Solvent: Mole fraction of choline chloride	Mole fraction of hexadecane	uncertainty
0.167	0.013	0.003
0.125	0.015	0.003
