Measured thermophysical data. Density Data of Two (H2 + CO2) Mixtures and a (H2 + CO2 + CH4) Mixture by a Modified Burnett Method at Temperature 673 K and Pressures up to 25 MPa
Source: J. Chem. Eng. Data, 2019, 10.1021/acs.jced.8b01206
Compound 1: nitrogen, N2, InChI=1S/N2/c1-2, purity 99.999%
Compound 2: helium, He, InChI=1S/He, purity 99.999%
Compound 3: hydrogen, H2, InChI=1S/H2/h1H, purity 99.999%
Compound 4: methane, CH4, InChI=1S/CH4/h1H4, purity 99.99%
Compound 5: carbon dioxide, CO2, InChI=1S/CO2/c2-1-3, purity 99.99%

System: nitrogen; phases: Gas
Property: Amount density, mol/m3 (Gas); method: Burnett expansion method
Temperature, K	Pressure, kPa	Amount density, mol/m3	uncertainty
352.8	13273	4370	30
352.8	8100	2710	10
352.8	5003	1688	7
352.8	3103	1051	3
352.8	1927	654	2
352.8	1197	407.2	1.1
353.2	13317	4370	30
353.2	8129	2720	10
353.2	5020	1692	7
353.2	3114	1053	3
353.2	1935	656	2
353.2	1204	408.6	1.1
353.2	749	254.5	0.9
393.1	19085	5420	40
393.1	11438	3360	20
393.1	6998	2090	10
393.1	4316	1299	6
393.1	2671	808	3
393.1	1655	503	1
393.1	1028	313.7	0.9
393.1	639	195.5	0.7
473.1	19290	4510	30
473.1	11426	2770	20
473.1	6895	1702	9
473.1	4200	1048	5
473.1	2570	646	2
473.1	1577	398	1
473.1	970	245.9	0.8
473.1	597	151.6	0.6
673.1	24630	3980	20
673.1	14250	2400	10
673.1	8423	1452	7
673.1	5038	881	4
673.1	3033	535	2
673.1	1833	325	1
673.1	1110	197.5	0.6
673.1	673	120.1	0.4
923.1	26060	3110	20
923.1	14835	1840	10
923.1	8620	1091	6
923.1	5060	648	3
923.1	2989	385	2
923.1	1771	229.3	0.8
923.1	1051	136.6	0.5
923.1	624	81.3	0.3

System: helium; phases: Gas
Fixed: Temperature, K = 673.2
Property: Amount density, mol/m3 (Gas); method: Burnett expansion method
Pressure, kPa	Amount density, mol/m3	uncertainty
27450	4680	20
16340	2830	10
9807	1720	6
5916	1045	3
3581	635	2
2172	386.5	0.8
1319	235.1	0.5
801	143	0.4

System: hydrogen; phases: Gas
Fixed: Temperature, K = 673.1
Property: Amount density, mol/m3 (Gas); method: Burnett expansion method
Pressure, kPa	Amount density, mol/m3	uncertainty
24400	4090	30
14370	2470	20
8574	1496	8
5153	908	4
3112	551	2
1884	335	1
1143	203.5	0.6
694	123.7	0.4

System: hydrogen + carbon dioxide; phases: Gas
Fixed: Temperature, K = 673.1
Property: Amount density, mol/m3 (Gas); method: Burnett expansion method
Pressure, kPa	Mole fraction of hydrogen	Amount density, mol/m3	uncertainty
22590	0.6005	3840	30
13255	0.6005	2300	20
7865	0.6005	1383	10
4694	0.6005	831	5
2811	0.6005	499	3
1687	0.6005	300.3	1.5
1013	0.6005	180.6	0.9
609	0.6005	108.6	0.6
25050	0.6992	4230	30
14670	0.6992	2530	20
8690	0.6992	1520	10
5181	0.6992	914	5
3101	0.6992	550	3
1860	0.6992	331	1.6
1118	0.6992	199.3	0.9
672	0.6992	120	0.6

System: hydrogen + carbon dioxide + methane; phases: Liquid
Fixed: Temperature, K = 673.1
Fixed: Mole fraction of hydrogen = 0.6026
Fixed: Mole fraction of carbon dioxide = 0.1948
Property: Amount density, mol/m3 (Liquid); method: Burnett expansion method
Pressure, kPa	Amount density, mol/m3	uncertainty
22010	3710	40
12920	2230	20
7668	1340	11
4580	807	6
2746	487	3
1651	293.6	1.9
993	177.1	1.1
598	106.9	0.6
