Measured thermophysical data. Isothermal Vapor-Liquid Equilibria for Binary Mixtures of Methyl Nonafluorobutyl Ether + Acetone, Cyclopentyl Methyl Ether, Ethyl Acetate, n-Heptane, Methanol, and Toluene
Source: J. Chem. Eng. Data, 2017, 10.1021/acs.jced.7b00599
Compound 1: acetone, C3H6O, InChI=1S/C3H6O/c1-3(2)4/h1-2H3
Compound 2: methoxycyclopentane, C6H12O, InChI=1S/C6H12O/c1-7-6-4-2-3-5-6/h6H,2-5H2,1H3
Compound 3: ethyl acetate, C4H8O2, InChI=1S/C4H8O2/c1-3-6-4(2)5/h3H2,1-2H3
Compound 4: 1-methoxy-nonafluorobutane, C5H3F9O, InChI=1S/C5H3F9O/c1-15-5(13,14)3(8,9)2(6,7)4(10,11)12/h1H3
Compound 5: methyl nonafluoroisobutyl ether, C5H3F9O, InChI=1S/C5H3F9O/c1-15-5(13,14)2(6,3(7,8)9)4(10,11)12/h1H3
Compound 6: heptane, C7H16, InChI=1S/C7H16/c1-3-5-7-6-4-2/h3-7H2,1-2H3
Compound 7: methanol, CH4O, InChI=1S/CH4O/c1-2/h2H,1H3
Compound 8: toluene, C7H8, InChI=1S/C7H8/c1-7-5-3-2-4-6-7/h2-6H,1H3

System: acetone; phases: Liquid, Gas
Property: Vapor or sublimation pressure, kPa (Liquid); method: Ebulliometric method (Recirculating still)
Temperature, K	Vapor or sublimation pressure, kPa	uncertainty
318.15	68.2	1.41

System: methoxycyclopentane; phases: Liquid, Gas
Property: Vapor or sublimation pressure, kPa (Liquid); method: Closed cell (Static) method
Temperature, K	Vapor or sublimation pressure, kPa	uncertainty
258.55	0.396	0.006
268.45	0.791	0.009
273.45	1.096	0.012
278.55	1.505	0.015
283.45	2.021	0.019
288.35	2.677	0.023
293.35	3.519	0.029
298.35	4.573	0.036
303.35	5.88	0.044
308.25	7.435	0.052

System: methoxycyclopentane; phases: Liquid
Fixed: Pressure, kPa = 100
Property: Mass density, kg/m3 (Liquid); method: Vibrating tube method
Temperature, K	Mass density, kg/m3	uncertainty
288.15	867.87	0.18
298.15	858.23	0.18
308.15	848.51	0.18
318.15	838.69	0.18
328.15	828.76	0.19

System: methoxycyclopentane; phases: Liquid, Gas
Property: Vapor or sublimation pressure, kPa (Liquid); method: Ebulliometric method (Recirculating still)
Temperature, K	Vapor or sublimation pressure, kPa	uncertainty
328.15	17.34	0.357
338.15	25.89	0.528
348.15	37.7	0.767
358.15	53.45	1.085
368.15	74.4	1.503

System: ethyl acetate; phases: Liquid, Gas
Property: Vapor or sublimation pressure, kPa (Liquid); method: Ebulliometric method (Recirculating still)
Temperature, K	Vapor or sublimation pressure, kPa	uncertainty
328.15	45.95	0.95

System: heptane; phases: Liquid, Gas
Property: Vapor or sublimation pressure, kPa (Liquid); method: Ebulliometric method (Recirculating still)
Temperature, K	Vapor or sublimation pressure, kPa	uncertainty
328.15	23.04	0.48

System: methanol; phases: Liquid, Gas
Property: Vapor or sublimation pressure, kPa (Liquid); method: Ebulliometric method (Recirculating still)
Temperature, K	Vapor or sublimation pressure, kPa	uncertainty
318.15	44.86	0.92

System: toluene; phases: Liquid, Gas
Property: Vapor or sublimation pressure, kPa (Liquid); method: Ebulliometric method (Recirculating still)
Temperature, K	Vapor or sublimation pressure, kPa	uncertainty
328.15	14.96	0.31

System: 1-methoxy-nonafluorobutane + methyl nonafluoroisobutyl ether + acetone; phases: Liquid, Gas
Fixed: Temperature, K = 318.15
Fixed: Solvent: Mole fraction of 1-methoxy-nonafluorobutane = 0.444
Property: Vapor or sublimation pressure, kPa (Liquid); method: Ebulliometric method (Recirculating still)
Mole fraction of acetone	Vapor or sublimation pressure, kPa	uncertainty
1	68.2	1.43
0.902	77.25	1.63
0.862	78.85	1.66
0.796	80.06	1.68
0.661	80.65	1.69
0.559	80.15	1.68
0.423	78	1.64
0.343	76	1.6
0.256	73.1	1.54
0.084	65	1.37
0	60.21	1.27

System: 1-methoxy-nonafluorobutane + methyl nonafluoroisobutyl ether + acetone; phases: Gas, Liquid
Fixed: Temperature, K = 318.15
Fixed: Solvent: Mole fraction of 1-methoxy-nonafluorobutane = 0.444
Property: Mole fraction of acetone (Gas); method: Chromatography
Mole fraction of acetone	Mole fraction of acetone	uncertainty
1	1	
0.902	0.833	0.004
0.862	0.788	0.003
0.796	0.744	0.003
0.661	0.665	0.004
0.559	0.6	0.004
0.423	0.506	0.005
0.343	0.441	0.005
0.256	0.36	0.004
0.084	0.141	0.004
0	0	

System: 1-methoxy-nonafluorobutane + methyl nonafluoroisobutyl ether + methoxycyclopentane; phases: Liquid, Gas
Fixed: Temperature, K = 328.15
Fixed: Solvent: Mole fraction of 1-methoxy-nonafluorobutane = 0.444
Property: Vapor or sublimation pressure, kPa (Liquid); method: Ebulliometric method (Recirculating still)
Mole fraction of methoxycyclopentane	Vapor or sublimation pressure, kPa	uncertainty
1	17.34	0.37
0.972	27.4	0.85
0.953	31.8	0.79
0.912	39.8	0.91
0.873	45.5	1
0.596	65.4	1.38
0.44	71.2	1.5
0.281	76.7	1.61
0.1	82.7	1.74
0	85.75	1.8

System: 1-methoxy-nonafluorobutane + methyl nonafluoroisobutyl ether + methoxycyclopentane; phases: Gas, Liquid
Fixed: Temperature, K = 328.15
Fixed: Solvent: Mole fraction of 1-methoxy-nonafluorobutane = 0.444
Property: Mole fraction of methoxycyclopentane (Gas); method: Chromatography
Mole fraction of methoxycyclopentane	Mole fraction of methoxycyclopentane	uncertainty
1	1	
0.972	0.64	0.02
0.953	0.543	0.008
0.912	0.427	0.006
0.873	0.366	0.005
0.596	0.221	0.003
0.44	0.179	0.003
0.281	0.134	0.002
0.1	0.058	0.002
0	0	

System: 1-methoxy-nonafluorobutane + methyl nonafluoroisobutyl ether + ethyl acetate; phases: Liquid, Gas
Fixed: Temperature, K = 328.15
Fixed: Solvent: Mole fraction of 1-methoxy-nonafluorobutane = 0.444
Property: Vapor or sublimation pressure, kPa (Liquid); method: Ebulliometric method (Recirculating still)
Mole fraction of ethyl acetate	Vapor or sublimation pressure, kPa	uncertainty
1	45.95	0.97
0.887	58.95	1.26
0.845	62.82	1.33
0.789	66.36	1.4
0.758	68.15	1.43
0.674	71.6	1.51
0.603	74.34	1.56
0.446	78.72	1.65
0.397	79.97	1.68
0.32	81.58	1.71
0.101	84.86	1.78
0	85.75	1.8

System: 1-methoxy-nonafluorobutane + methyl nonafluoroisobutyl ether + ethyl acetate; phases: Gas, Liquid
Fixed: Temperature, K = 328.15
Fixed: Solvent: Mole fraction of 1-methoxy-nonafluorobutane = 0.444
Property: Mole fraction of ethyl acetate (Gas); method: Chromatography
Mole fraction of ethyl acetate	Mole fraction of ethyl acetate	uncertainty
1	1	
0.887	0.719	0.006
0.845	0.658	0.004
0.789	0.592	0.005
0.758	0.565	0.005
0.674	0.5	0.005
0.603	0.444	0.005
0.446	0.341	0.004
0.397	0.313	0.004
0.32	0.259	0.003
0.101	0.09	0.003
0	0	

System: 1-methoxy-nonafluorobutane + methyl nonafluoroisobutyl ether + heptane; phases: Liquid, Gas
Fixed: Temperature, K = 328.15
Fixed: Solvent: Mole fraction of 1-methoxy-nonafluorobutane = 0.444
Property: Vapor or sublimation pressure, kPa (Liquid); method: Ebulliometric method (Recirculating still)
Mole fraction of heptane	Vapor or sublimation pressure, kPa	uncertainty
1	23.04	0.49
0.982	30.6	1
0.957	39.54	1.02
0.911	51.9	1.15
0.808	66.45	1.42
0.742	71.2	1.5
0.706	73.55	1.55
0.634	76.4	1.61
0.434	82.1	1.73
0.216	86.6	1.82
0.151	87.4	1.84
0.054	87.17	1.83
0.03	86.9	1.83
0	85.75	1.8

System: 1-methoxy-nonafluorobutane + methyl nonafluoroisobutyl ether + heptane; phases: Gas, Liquid
Fixed: Temperature, K = 328.15
Fixed: Solvent: Mole fraction of 1-methoxy-nonafluorobutane = 0.444
Property: Mole fraction of heptane (Gas); method: Chromatography
Mole fraction of heptane	Mole fraction of heptane	uncertainty
1	1	
0.982	0.745	0.02
0.957	0.565	0.01
0.911	0.424	0.005
0.808	0.306	0.004
0.742	0.283	0.003
0.706	0.269	0.003
0.634	0.248	0.003
0.434	0.213	0.003
0.216	0.159	0.003
0.151	0.128	0.003
0.054	0.06	0.003
0.03	0.035	0.003
0	0	

System: 1-methoxy-nonafluorobutane + methyl nonafluoroisobutyl ether + methanol; phases: Liquid, Gas
Fixed: Temperature, K = 318.15
Fixed: Solvent: Mole fraction of 1-methoxy-nonafluorobutane = 0.444
Property: Vapor or sublimation pressure, kPa (Liquid); method: Ebulliometric method (Recirculating still)
Mole fraction of methanol	Vapor or sublimation pressure, kPa	uncertainty
1	44.86	0.95
0.995	50.62	2.43
0.988	58.01	2.05
0.987	58.21	2.07
0.978	64.81	1.82
0.967	70.4	1.79
0.914	84.65	1.81
0.86	87.99	1.85
0.771	92.83	1.95
0.759	93.12	1.95
0.71	93.92	1.97
0.489	94.89	1.99
0.245	94.2	1.98
0.179	93.7	1.97
0.122	92.4	1.94
0.088	90.77	1.91
0.043	85.55	1.85
0.02	74.45	1.96
0	60.21	1.27

System: 1-methoxy-nonafluorobutane + methyl nonafluoroisobutyl ether + methanol; phases: Gas, Liquid
Fixed: Temperature, K = 318.15
Fixed: Solvent: Mole fraction of 1-methoxy-nonafluorobutane = 0.444
Property: Mole fraction of methanol (Gas); method: Chromatography
Mole fraction of methanol	Mole fraction of methanol	uncertainty
1	1	
0.995	0.878	0.039
0.988	0.761	0.023
0.987	0.759	0.023
0.978	0.679	0.014
0.967	0.62	0.011
0.914	0.502	0.006
0.86	0.466	0.005
0.771	0.45	0.005
0.759	0.441	0.005
0.71	0.44	0.004
0.489	0.424	0.004
0.245	0.398	0.004
0.179	0.384	0.004
0.122	0.366	0.004
0.088	0.347	0.004
0.043	0.286	0.005
0.02	0.187	0.013
0	0	

System: 1-methoxy-nonafluorobutane + methyl nonafluoroisobutyl ether + toluene; phases: Liquid, Gas
Fixed: Temperature, K = 328.15
Fixed: Solvent: Mole fraction of 1-methoxy-nonafluorobutane = 0.444
Property: Vapor or sublimation pressure, kPa (Liquid); method: Ebulliometric method (Recirculating still)
Mole fraction of toluene	Vapor or sublimation pressure, kPa	uncertainty
1	14.96	0.32
0.98	25.2	0.88
0.941	36.1	0.88
0.873	48.75	1.05
0.746	59.4	1.25
0.516	68.15	1.43
0.372	72.83	1.53
0.267	76.4	1.61
0.156	80.36	1.69
0	85.75	1.8

System: 1-methoxy-nonafluorobutane + methyl nonafluoroisobutyl ether + toluene; phases: Gas, Liquid
Fixed: Temperature, K = 328.15
Fixed: Solvent: Mole fraction of 1-methoxy-nonafluorobutane = 0.444
Property: Mole fraction of toluene (Gas); method: Chromatography
Mole fraction of toluene	Mole fraction of toluene	uncertainty
1	1	
0.98	0.587	0.019
0.941	0.401	0.007
0.873	0.294	0.004
0.746	0.227	0.003
0.516	0.178	0.003
0.372	0.144	0.002
0.267	0.118	0.002
0.156	0.08	0.002
0	0	

System: 1-methoxy-nonafluorobutane + methyl nonafluoroisobutyl ether; phases: Liquid, Gas
Fixed: Mole fraction of 1-methoxy-nonafluorobutane = 0.444
Property: Vapor or sublimation pressure, kPa (Liquid); method: Ebulliometric method (Recirculating still)
Temperature, K	Vapor or sublimation pressure, kPa	uncertainty
318.15	60.21	1.26
328.15	85.75	1.77
