Measured thermophysical data. Measurement and Correlation of the Solubility of Palmatine Chloride in Four Different Binary Solvent Systems at (283.15-328.15) K
Source: J. Chem. Eng. Data, 2019, 10.1021/acs.jced.8b01055
Compound 1: palmatine chloride, C21H22ClNO4, InChI=1S/C21H22NO4.ClH/c1-23-18-6-5-13-9-17-15-11-20(25-3)19(24-2)10-14(15)7-8-22(17)12-16(13)21(18)26-4;/h5-6,9-12H,7-8H2,1-4H3;1H/q+1;/p-1, purity 99%
Compound 2: ethanol, C2H6O, InChI=1S/C2H6O/c1-2-3/h3H,2H2,1H3, purity 99.4%
Compound 3: 1,2-ethanediol, C2H6O2, InChI=1S/C2H6O2/c3-1-2-4/h3-4H,1-2H2, purity 99.8%
Compound 4: propan-2-ol, C3H8O, InChI=1S/C3H8O/c1-3(2)4/h3-4H,1-2H3, purity 99.4%
Compound 5: 1,2-propanediol, C3H8O2, InChI=1S/C3H8O2/c1-3(5)2-4/h3-5H,2H2,1H3, purity 99.5%
Compound 6: water, H2O, InChI=1S/H2O/h1H2, purity 99.9%

System: palmatine chloride + ethanol + water; phases: Liquid, Crystal
Fixed: Pressure, kPa = 101.1
Property: Mole fraction of palmatine chloride (Liquid); method: Chromatography
Solvent: Mass fraction of ethanol	Temperature, K	Mole fraction of palmatine chloride	uncertainty
0	283.15	0.0005646	2.83e-05
0	288.15	0.0006933	3.47e-05
0	293.15	0.0008772	4.39e-05
0	298.15	0.001098	5.5e-05
0	303.15	0.001358	6.8e-05
0	308.15	0.001652	8.3e-05
0	313.15	0.002003	0.0001
0	318.15	0.002404	0.00012
0	323.15	0.002874	0.000144
0	328.15	0.003407	0.000171
0.1	283.15	0.0006108	3.06e-05
0.1	288.15	0.0007479	3.75e-05
0.1	293.15	0.0009444	4.73e-05
0.1	298.15	0.001181	5.9e-05
0.1	303.15	0.001459	7.3e-05
0.1	308.15	0.001774	8.9e-05
0.1	313.15	0.00215	0.000108
0.1	318.15	0.002578	0.000129
0.1	323.15	0.003081	0.000154
0.1	328.15	0.003654	0.000183
0.2	283.15	0.0006774	3.39e-05
0.2	288.15	0.0008267	4.14e-05
0.2	293.15	0.001041	5.2e-05
0.2	298.15	0.001301	6.5e-05
0.2	303.15	0.001604	8e-05
0.2	308.15	0.001949	9.8e-05
0.2	313.15	0.002361	0.000118
0.2	318.15	0.002826	0.000141
0.2	323.15	0.003377	0.000169
0.2	328.15	0.004003	0.0002
0.3	283.15	0.0007704	3.86e-05
0.3	288.15	0.0009367	4.69e-05
0.3	293.15	0.001177	5.9e-05
0.3	298.15	0.001468	7.4e-05
0.3	303.15	0.001841	9.2e-05
0.3	308.15	0.002226	0.000111
0.3	313.15	0.002687	0.000135
0.3	318.15	0.003202	0.00016
0.3	323.15	0.0038	0.00019
0.3	328.15	0.004483	0.000224
0.4	283.15	0.0008968	4.49e-05
0.4	288.15	0.001086	5.4e-05
0.4	293.15	0.00136	6.8e-05
0.4	298.15	0.001693	8.5e-05
0.4	303.15	0.002078	0.000104
0.4	308.15	0.002517	0.000126
0.4	313.15	0.003043	0.000152
0.4	318.15	0.003626	0.000182
0.4	323.15	0.004325	0.000217
0.4	328.15	0.005121	0.000256
0.5	283.15	0.001064	5.3e-05
0.5	288.15	0.001283	6.4e-05
0.5	293.15	0.001623	8.1e-05
0.5	298.15	0.002033	0.000102
0.5	303.15	0.002478	0.000124
0.5	308.15	0.003009	0.000151
0.5	313.15	0.003618	0.000181
0.5	318.15	0.004265	0.000214
0.5	323.15	0.005074	0.000254
0.5	328.15	0.00595	0.000298
0.6	283.15	0.00128	6.4e-05
0.6	288.15	0.001536	7.7e-05
0.6	293.15	0.00191	9.6e-05
0.6	298.15	0.002367	0.000119
0.6	303.15	0.002888	0.000145
0.6	308.15	0.003485	0.000174
0.6	313.15	0.004198	0.00021
0.6	318.15	0.004975	0.000249
0.6	323.15	0.005919	0.000296
0.6	328.15	0.006993	0.00035
0.7	283.15	0.001549	7.8e-05
0.7	288.15	0.001849	9.3e-05
0.7	293.15	0.00229	0.000115
0.7	298.15	0.002831	0.000142
0.7	303.15	0.003503	0.000175
0.7	308.15	0.004264	0.000213
0.7	313.15	0.005103	0.000255
0.7	318.15	0.00598	0.000299
0.7	323.15	0.007086	0.000355
0.7	328.15	0.008258	0.000413
0.8	283.15	0.001865	9.3e-05
0.8	288.15	0.002217	0.000111
0.8	293.15	0.002735	0.000137
0.8	298.15	0.003371	0.000169
0.8	303.15	0.00409	0.000205
0.8	308.15	0.004914	0.000246
0.8	313.15	0.005898	0.000295
0.8	318.15	0.00695	0.000348
0.8	323.15	0.008242	0.000413
0.8	328.15	0.009714	0.000486
0.9	283.15	0.002209	0.000111
0.9	288.15	0.002614	0.000131
0.9	293.15	0.003254	0.000163
0.9	298.15	0.004034	0.000202
0.9	303.15	0.004862	0.000243
0.9	308.15	0.005855	0.000293
0.9	313.15	0.006992	0.00035
0.9	318.15	0.008239	0.000412
0.9	323.15	0.009647	0.000483
0.9	328.15	0.01126	0.00056
1	283.15	0.002537	0.000127
1	288.15	0.00299	0.00015
1	293.15	0.003665	0.000184
1	298.15	0.004501	0.000225
1	303.15	0.005433	0.000272
1	308.15	0.006506	0.000326
1	313.15	0.007788	0.00039
1	318.15	0.009135	0.000457
1	323.15	0.01081	0.00054
1	328.15	0.01272	0.00064

System: palmatine chloride + 1,2-ethanediol + water; phases: Liquid, Crystal
Fixed: Pressure, kPa = 101.1
Property: Mole fraction of palmatine chloride (Liquid); method: Chromatography
Solvent: Mass fraction of 1,2-ethanediol	Temperature, K	Mole fraction of palmatine chloride	uncertainty
0	283.15	0.0005646	2.83e-05
0	288.15	0.0006933	3.47e-05
0	293.15	0.0008772	4.39e-05
0	298.15	0.001098	5.5e-05
0	303.15	0.001358	6.8e-05
0	308.15	0.001652	8.3e-05
0	313.15	0.002003	0.0001
0	318.15	0.002404	0.00012
0	323.15	0.002874	0.000144
0	328.15	0.003407	0.000171
0.1	283.15	0.0006051	3.03e-05
0.1	288.15	0.0007399	3.71e-05
0.1	293.15	0.0009319	4.67e-05
0.1	298.15	0.001166	5.8e-05
0.1	303.15	0.00144	7.2e-05
0.1	308.15	0.001753	8.8e-05
0.1	313.15	0.002124	0.000106
0.1	318.15	0.002549	0.000128
0.1	323.15	0.003046	0.000152
0.1	328.15	0.003612	0.000181
0.2	283.15	0.0006843	3.43e-05
0.2	288.15	0.0008322	4.17e-05
0.2	293.15	0.001043	5.2e-05
0.2	298.15	0.001303	6.5e-05
0.2	303.15	0.001605	8e-05
0.2	308.15	0.001953	9.8e-05
0.2	313.15	0.002364	0.000118
0.2	318.15	0.002835	0.000142
0.2	323.15	0.003383	0.000169
0.2	328.15	0.004011	0.000201
0.3	283.15	0.0007947	3.98e-05
0.3	288.15	0.000961	4.81e-05
0.3	293.15	0.001197	6e-05
0.3	298.15	0.001493	7.5e-05
0.3	303.15	0.001834	9.2e-05
0.3	308.15	0.002231	0.000112
0.3	313.15	0.002696	0.000135
0.3	318.15	0.003229	0.000162
0.3	323.15	0.003846	0.000193
0.3	328.15	0.004557	0.000228
0.4	283.15	0.0009283	4.65e-05
0.4	288.15	0.001116	5.6e-05
0.4	293.15	0.001382	6.9e-05
0.4	298.15	0.00172	8.6e-05
0.4	303.15	0.002107	0.000106
0.4	308.15	0.002561	0.000128
0.4	313.15	0.00309	0.000155
0.4	318.15	0.003696	0.000185
0.4	323.15	0.004395	0.00022
0.4	328.15	0.005203	0.00026
0.5	283.15	0.001074	5.4e-05
0.5	288.15	0.001306	6.5e-05
0.5	293.15	0.001646	8.2e-05
0.5	298.15	0.00203	0.000102
0.5	303.15	0.002465	0.000123
0.5	308.15	0.002981	0.000149
0.5	313.15	0.003556	0.000178
0.5	318.15	0.004261	0.000213
0.5	323.15	0.005025	0.000252
0.5	328.15	0.005894	0.000295
0.6	283.15	0.00122	6.1e-05
0.6	288.15	0.001499	7.5e-05
0.6	293.15	0.001847	9.2e-05
0.6	298.15	0.002276	0.000114
0.6	303.15	0.002733	0.000137
0.6	308.15	0.003333	0.000167
0.6	313.15	0.003973	0.000199
0.6	318.15	0.004756	0.000238
0.6	323.15	0.005603	0.00028
0.6	328.15	0.00657	0.000329
0.7	283.15	0.001356	6.8e-05
0.7	288.15	0.001687	8.4e-05
0.7	293.15	0.002037	0.000102
0.7	298.15	0.002505	0.000125
0.7	303.15	0.003028	0.000152
0.7	308.15	0.003606	0.000181
0.7	313.15	0.004302	0.000215
0.7	318.15	0.005132	0.000257
0.7	323.15	0.006078	0.000304
0.7	328.15	0.007187	0.00036
0.8	283.15	0.001479	7.4e-05
0.8	288.15	0.0018	9e-05
0.8	293.15	0.002199	0.00011
0.8	298.15	0.002674	0.000134
0.8	303.15	0.003231	0.000162
0.8	308.15	0.003886	0.000195
0.8	313.15	0.004721	0.000236
0.8	318.15	0.005554	0.000278
0.8	323.15	0.006598	0.00033
0.8	328.15	0.007734	0.000387
0.9	283.15	0.001595	8e-05
0.9	288.15	0.0019	9.5e-05
0.9	293.15	0.002345	0.000117
0.9	298.15	0.002854	0.000143
0.9	303.15	0.003473	0.000174
0.9	308.15	0.004175	0.000209
0.9	313.15	0.005002	0.00025
0.9	318.15	0.005952	0.000298
0.9	323.15	0.007028	0.000352
0.9	328.15	0.008246	0.000413
1	283.15	0.001728	8.7e-05
1	288.15	0.002017	0.000101
1	293.15	0.002422	0.000121
1	298.15	0.002998	0.00015
1	303.15	0.003624	0.000181
1	308.15	0.004409	0.000221
1	313.15	0.005292	0.000265
1	318.15	0.006308	0.000316
1	323.15	0.007455	0.000373
1	328.15	0.008822	0.000442

System: palmatine chloride + propan-2-ol + water; phases: Liquid, Crystal
Fixed: Pressure, kPa = 101.1
Property: Mole fraction of palmatine chloride (Liquid); method: Chromatography
Solvent: Mass fraction of propan-2-ol	Temperature, K	Mole fraction of palmatine chloride	uncertainty
0	283.15	0.0005646	2.83e-05
0	288.15	0.0006933	3.47e-05
0	293.15	0.0008772	4.39e-05
0	298.15	0.001098	5.5e-05
0	303.15	0.001358	6.8e-05
0	308.15	0.001652	8.3e-05
0	313.15	0.002003	0.0001
0	318.15	0.002404	0.00012
0	323.15	0.002874	0.000144
0	328.15	0.003407	0.000171
0.1	283.15	0.0005185	2.6e-05
0.1	288.15	0.0006364	3.19e-05
0.1	293.15	0.0008063	4.04e-05
0.1	298.15	0.001015	5.1e-05
0.1	303.15	0.001283	6.4e-05
0.1	308.15	0.001572	7.9e-05
0.1	313.15	0.001915	9.6e-05
0.1	318.15	0.002295	0.000115
0.1	323.15	0.002753	0.000138
0.1	328.15	0.003204	0.00016
0.2	283.15	0.0004749	2.38e-05
0.2	288.15	0.0005825	2.92e-05
0.2	293.15	0.0007391	3.7e-05
0.2	298.15	0.0009361	4.69e-05
0.2	303.15	0.001197	6e-05
0.2	308.15	0.00148	7.4e-05
0.2	313.15	0.001803	9e-05
0.2	318.15	0.002173	0.000109
0.2	323.15	0.002628	0.000132
0.2	328.15	0.003005	0.00015
0.3	283.15	0.0004295	2.15e-05
0.3	288.15	0.0005267	2.64e-05
0.3	293.15	0.0006693	3.35e-05
0.3	298.15	0.000853	4.27e-05
0.3	303.15	0.001108	5.5e-05
0.3	308.15	0.001351	6.8e-05
0.3	313.15	0.001642	8.2e-05
0.3	318.15	0.001966	9.8e-05
0.3	323.15	0.00235	0.000118
0.3	328.15	0.002789	0.00014
0.4	283.15	0.0003816	1.91e-05
0.4	288.15	0.000468	2.3e-05
0.4	293.15	0.000596	2.99e-05
0.4	298.15	0.0007644	3.83e-05
0.4	303.15	0.0009575	4.79e-05
0.4	308.15	0.00118	5.9e-05
0.4	313.15	0.001446	7.2e-05
0.4	318.15	0.001755	8.8e-05
0.4	323.15	0.00212	0.000106
0.4	328.15	0.002549	0.000128
0.5	283.15	0.0003331	1.67e-05
0.5	288.15	0.0004269	2.14e-05
0.5	293.15	0.0005491	2.75e-05
0.5	298.15	0.0006916	3.46e-05
0.5	303.15	0.0009016	4.51e-05
0.5	308.15	0.001084	5.4e-05
0.5	313.15	0.001325	6.6e-05
0.5	318.15	0.001596	8e-05
0.5	323.15	0.001919	9.6e-05
0.5	328.15	0.002294	0.000115
0.6	283.15	0.0002869	1.44e-05
0.6	288.15	0.0003522	1.76e-05
0.6	293.15	0.0004505	2.26e-05
0.6	298.15	0.0005857	2.93e-05
0.6	303.15	0.0007547	3.78e-05
0.6	308.15	0.0009641	4.83e-05
0.6	313.15	0.001187	5.9e-05
0.6	318.15	0.001439	7.2e-05
0.6	323.15	0.001729	8.7e-05
0.6	328.15	0.002041	0.000102
0.7	283.15	0.0002459	1.23e-05
0.7	288.15	0.0003021	1.51e-05
0.7	293.15	0.0003874	1.94e-05
0.7	298.15	0.0005073	2.54e-05
0.7	303.15	0.000643	3.22e-05
0.7	308.15	0.0008015	4.01e-05
0.7	313.15	0.0009932	4.97e-05
0.7	318.15	0.001218	6.1e-05
0.7	323.15	0.001485	7.4e-05
0.7	328.15	0.001808	9.1e-05
0.8	283.15	0.0002128	1.07e-05
0.8	288.15	0.0002615	1.31e-05
0.8	293.15	0.0003362	1.68e-05
0.8	298.15	0.0004432	2.22e-05
0.8	303.15	0.0005639	2.82e-05
0.8	308.15	0.0007057	3.53e-05
0.8	313.15	0.0008776	4.39e-05
0.8	318.15	0.00108	5.4e-05
0.8	323.15	0.001321	6.6e-05
0.8	328.15	0.001615	8.1e-05
0.9	283.15	0.0001893	9.5e-06
0.9	288.15	0.0002326	1.16e-05
0.9	293.15	0.0002996	1.5e-05
0.9	298.15	0.0003975	1.99e-05
0.9	303.15	0.0005076	2.54e-05
0.9	308.15	0.0006373	3.19e-05
0.9	313.15	0.0007951	3.98e-05
0.9	318.15	0.0009811	4.91e-05
0.9	323.15	0.001204	6e-05
0.9	328.15	0.001477	7.4e-05
1	283.15	0.0001771	8.9e-06
1	288.15	0.0002175	1.09e-05
1	293.15	0.0002804	1.4e-05
1	298.15	0.0003741	1.87e-05
1	303.15	0.000479	2.4e-05
1	308.15	0.0006031	3.02e-05
1	313.15	0.0007541	3.78e-05
1	318.15	0.0009327	4.67e-05
1	323.15	0.001147	5.7e-05
1	328.15	0.001412	7.1e-05

System: palmatine chloride + 1,2-propanediol + water; phases: Liquid, Crystal
Fixed: Pressure, kPa = 101.1
Property: Mole fraction of palmatine chloride (Liquid); method: Chromatography
Solvent: Mass fraction of 1,2-propanediol	Temperature, K	Mole fraction of palmatine chloride	uncertainty
0	283.15	0.0005646	2.83e-05
0	288.15	0.0006933	3.47e-05
0	293.15	0.0008772	4.39e-05
0	298.15	0.001098	5.5e-05
0	303.15	0.001358	6.8e-05
0	308.15	0.001652	8.3e-05
0	313.15	0.002003	0.0001
0	318.15	0.002404	0.00012
0	323.15	0.002874	0.000144
0	328.15	0.003407	0.000171
0.1	283.15	0.000481	2.41e-05
0.1	288.15	0.0005989	3e-05
0.1	293.15	0.0007646	3.83e-05
0.1	298.15	0.0009732	4.87e-05
0.1	303.15	0.001244	6.2e-05
0.1	308.15	0.001539	7.7e-05
0.1	313.15	0.001881	9.4e-05
0.1	318.15	0.002269	0.000114
0.1	323.15	0.00274	0.000137
0.1	328.15	0.003259	0.000163
0.2	283.15	0.0003978	1.99e-05
0.2	288.15	0.0005381	2.7e-05
0.2	293.15	0.0006832	3.42e-05
0.2	298.15	0.000874	4.38e-05
0.2	303.15	0.001089	5.5e-05
0.2	308.15	0.001355	6.8e-05
0.2	313.15	0.001679	8.4e-05
0.2	318.15	0.002066	0.000103
0.2	323.15	0.002513	0.000126
0.2	328.15	0.003038	0.000152
0.3	283.15	0.000326	1.63e-05
0.3	288.15	0.0004178	2.09e-05
0.3	293.15	0.0005437	2.72e-05
0.3	298.15	0.0007163	3.59e-05
0.3	303.15	0.000947	4.74e-05
0.3	308.15	0.001205	6e-05
0.3	313.15	0.001508	7.6e-05
0.3	318.15	0.001866	9.3e-05
0.3	323.15	0.002309	0.000116
0.3	328.15	0.00281	0.000141
0.4	283.15	0.0002653	1.33e-05
0.4	288.15	0.0003451	1.73e-05
0.4	293.15	0.0004534	2.27e-05
0.4	298.15	0.0006078	3.05e-05
0.4	303.15	0.0008165	4.09e-05
0.4	308.15	0.001064	5.3e-05
0.4	313.15	0.001346	6.7e-05
0.4	318.15	0.001685	8.4e-05
0.4	323.15	0.002096	0.000105
0.4	328.15	0.002584	0.000129
0.5	283.15	0.0002106	1.06e-05
0.5	288.15	0.0002781	1.39e-05
0.5	293.15	0.0003872	1.94e-05
0.5	298.15	0.0005312	2.66e-05
0.5	303.15	0.0006864	3.44e-05
0.5	308.15	0.0008794	4.4e-05
0.5	313.15	0.001143	5.7e-05
0.5	318.15	0.001467	7.3e-05
0.5	323.15	0.001852	9.3e-05
0.5	328.15	0.002325	0.000116
0.6	283.15	0.0001571	7.9e-06
0.6	288.15	0.0002108	1.06e-05
0.6	293.15	0.000283	1.42e-05
0.6	298.15	0.0003936	1.97e-05
0.6	303.15	0.0005301	2.66e-05
0.6	308.15	0.0007011	3.51e-05
0.6	313.15	0.0009195	4.61e-05
0.6	318.15	0.001202	6e-05
0.6	323.15	0.00155	7.8e-05
0.6	328.15	0.001983	9.9e-05
0.7	283.15	0.0001041	5.2e-06
0.7	288.15	0.0001423	7.1e-06
0.7	293.15	0.0001935	9.7e-06
0.7	298.15	0.0002748	1.38e-05
0.7	303.15	0.0003765	1.89e-05
0.7	308.15	0.0005065	2.54e-05
0.7	313.15	0.000675	3.38e-05
0.7	318.15	0.0008975	4.5e-05
0.7	323.15	0.001176	5.9e-05
0.7	328.15	0.001527	7.6e-05
0.8	283.15	5.68e-05	2.85e-06
0.8	288.15	7.931e-05	3.97e-06
0.8	293.15	0.0001097	5.5e-06
0.8	298.15	0.0001595	8e-06
0.8	303.15	0.0002231	1.12e-05
0.8	308.15	0.0003061	1.53e-05
0.8	313.15	0.0004157	2.08e-05
0.8	318.15	0.0005637	2.82e-05
0.8	323.15	0.000752	3.77e-05
0.8	328.15	0.0009944	4.98e-05
0.9	283.15	2.319e-05	1.16e-06
0.9	288.15	3.326e-05	1.67e-06
0.9	293.15	4.698e-05	2.36e-06
0.9	298.15	7.03e-05	3.52e-06
0.9	303.15	0.0001008	5.1e-06
0.9	308.15	0.0001417	7.1e-06
0.9	313.15	0.000197	9.9e-06
0.9	318.15	0.0002736	1.37e-05
0.9	323.15	0.0003731	1.87e-05
0.9	328.15	0.0005043	2.53e-05
1	283.15	6.32e-06	3.17e-07
1	288.15	9.38e-06	4.7e-07
1	293.15	1.362e-05	6.8e-07
1	298.15	2.111e-05	1.06e-06
1	303.15	3.123e-05	1.57e-06
1	308.15	4.526e-05	2.27e-06
1	313.15	6.476e-05	3.25e-06
1	318.15	9.266e-05	4.64e-06
1	323.15	0.0001299	6.5e-06
1	328.15	0.0001804	9e-06

System: palmatine chloride + water; phases: Liquid, Crystal
Fixed: Pressure, kPa = 101.1
Property: Mole fraction of palmatine chloride (Liquid); method: Chromatography
Temperature, K	Mole fraction of palmatine chloride	uncertainty
283.15	0.0005646	2.83e-05
288.15	0.0006933	3.47e-05
293.15	0.0008772	4.39e-05
298.15	0.001098	5.5e-05
303.15	0.001358	6.8e-05
308.15	0.001652	8.3e-05
313.15	0.002003	0.0001
318.15	0.002404	0.00012
323.15	0.002874	0.000144
328.15	0.003407	0.000171

System: palmatine chloride + ethanol; phases: Liquid, Crystal
Fixed: Pressure, kPa = 101.1
Property: Mole fraction of palmatine chloride (Liquid); method: Chromatography
Temperature, K	Mole fraction of palmatine chloride	uncertainty
283.15	0.002537	0.000127
288.15	0.00299	0.00015
293.15	0.003665	0.000184
298.15	0.004501	0.000225
303.15	0.005433	0.000272
308.15	0.006506	0.000326
313.15	0.007788	0.00039
318.15	0.009135	0.000457
323.15	0.01081	0.00054
328.15	0.01272	0.00064

System: palmatine chloride + 1,2-ethanediol; phases: Liquid, Crystal
Fixed: Pressure, kPa = 101.1
Property: Mole fraction of palmatine chloride (Liquid); method: Chromatography
Temperature, K	Mole fraction of palmatine chloride	uncertainty
283.15	0.001728	8.7e-05
288.15	0.002017	0.000101
293.15	0.002422	0.000121
298.15	0.002998	0.00015
303.15	0.003624	0.000181
308.15	0.004409	0.000221
313.15	0.005292	0.000265
318.15	0.006308	0.000316
323.15	0.007455	0.000373
328.15	0.008822	0.000442

System: palmatine chloride + propan-2-ol; phases: Liquid, Crystal
Fixed: Pressure, kPa = 101.1
Property: Mole fraction of palmatine chloride (Liquid); method: Chromatography
Temperature, K	Mole fraction of palmatine chloride	uncertainty
283.15	0.0001771	8.9e-06
288.15	0.0002175	1.09e-05
293.15	0.0002804	1.4e-05
298.15	0.0003741	1.87e-05
303.15	0.000479	2.4e-05
308.15	0.0006031	3.02e-05
313.15	0.0007541	3.78e-05
318.15	0.0009327	4.67e-05
323.15	0.001147	5.7e-05
328.15	0.001412	7.1e-05

System: palmatine chloride + 1,2-propanediol; phases: Liquid, Crystal
Fixed: Pressure, kPa = 101.1
Property: Mole fraction of palmatine chloride (Liquid); method: Chromatography
Temperature, K	Mole fraction of palmatine chloride	uncertainty
283.15	6.32e-06	3.17e-07
288.15	9.38e-06	4.7e-07
293.15	1.362e-05	6.8e-07
298.15	2.111e-05	1.06e-06
303.15	3.123e-05	1.57e-06
308.15	4.526e-05	2.27e-06
313.15	6.476e-05	3.25e-06
318.15	9.266e-05	4.64e-06
323.15	0.0001299	6.5e-06
328.15	0.0001804	9e-06
