Measured thermophysical data. Solubility Study and Mixing Property of 3,5-Dinitro-2-methylbenzoic Acid in 13 Pure Solvents from 288.15 to 333.15 K
Source: J. Chem. Eng. Data, 2019, 10.1021/acs.jced.9b00497
Compound 1: 2-methyl-3,5-dinitrobenzoic acid, C8H6N2O6, InChI=1S/C8H6N2O6/c1-4-6(8(11)12)2-5(9(13)14)3-7(4)10(15)16/h2-3H,1H3,(H,11,12), purity 98.4%
Compound 2: propan-1-ol, C3H8O, InChI=1S/C3H8O/c1-2-3-4/h4H,2-3H2,1H3, purity 99.5%
Compound 3: butan-1-ol, C4H10O, InChI=1S/C4H10O/c1-2-3-4-5/h5H,2-4H2,1H3, purity 99.7%
Compound 4: pentan-1-ol, C5H12O, InChI=1S/C5H12O/c1-2-3-4-5-6/h6H,2-5H2,1H3, purity 99.4%
Compound 5: hexan-1-ol, C6H14O, InChI=1S/C6H14O/c1-2-3-4-5-6-7/h7H,2-6H2,1H3, purity 99.7%
Compound 6: heptan-1-ol, C7H16O, InChI=1S/C7H16O/c1-2-3-4-5-6-7-8/h8H,2-7H2,1H3, purity 99.5%
Compound 7: propan-2-ol, C3H8O, InChI=1S/C3H8O/c1-3(2)4/h3-4H,1-2H3, purity 99.7%
Compound 8: ethyl acetate, C4H8O2, InChI=1S/C4H8O2/c1-3-6-4(2)5/h3H2,1-2H3, purity 99.4%
Compound 9: butan-2-ol, C4H10O, InChI=1S/C4H10O/c1-3-4(2)5/h4-5H,3H2,1-2H3, purity 99.5%
Compound 10: cyclohexane, C6H12, InChI=1S/C6H12/c1-2-4-6-5-3-1/h1-6H2, purity 99.6%
Compound 11: toluene, C7H8, InChI=1S/C7H8/c1-7-5-3-2-4-6-7/h2-6H,1H3, purity 99.5%
Compound 12: ethanol, C2H6O, InChI=1S/C2H6O/c1-2-3/h3H,2H2,1H3, purity 99.5%
Compound 13: acetonitrile, C2H3N, InChI=1S/C2H3N/c1-2-3/h1H3, purity 99.6%
Compound 14: water, H2O, InChI=1S/H2O/h1H2, purity 99.9%

System: 2-methyl-3,5-dinitrobenzoic acid; phases: Crystal, Liquid, Air at 1 atmosphere
Property: Triple point temperature, K (Crystal); method: DSC
Triple point temperature, K	uncertainty
478.55	1.22

System: 2-methyl-3,5-dinitrobenzoic acid; phases: Crystal, Liquid, Air at 1 atmosphere
Property: Molar enthalpy of transition or fusion, kJ/mol (Crystal); method: DSC
Molar enthalpy of transition or fusion, kJ/mol	uncertainty
36.5	1.07

System: 2-methyl-3,5-dinitrobenzoic acid + propan-1-ol; phases: Liquid, Crystal
Fixed: Pressure, kPa = 101.2
Property: Mole fraction of 2-methyl-3,5-dinitrobenzoic acid (Liquid); method: Chromatography
Temperature, K	Mole fraction of 2-methyl-3,5-dinitrobenzoic acid	uncertainty
288.15	0.01265	0.00071
293.15	0.01459	0.00082
298.15	0.01695	0.00095
303.15	0.02018	0.00113
308.15	0.0239	0.00134
313.15	0.02777	0.00156
318.15	0.03262	0.00183
323.15	0.0381	0.00214
328.15	0.04425	0.00248
333.15	0.0505	0.00283

System: 2-methyl-3,5-dinitrobenzoic acid + butan-1-ol; phases: Liquid, Crystal
Fixed: Pressure, kPa = 101.2
Property: Mole fraction of 2-methyl-3,5-dinitrobenzoic acid (Liquid); method: Chromatography
Temperature, K	Mole fraction of 2-methyl-3,5-dinitrobenzoic acid	uncertainty
288.15	0.01089	0.00061
293.15	0.01287	0.00072
298.15	0.01517	0.00085
303.15	0.01785	0.001
308.15	0.02094	0.00117
313.15	0.02431	0.00136
318.15	0.02837	0.00159
323.15	0.03402	0.00191
328.15	0.03928	0.0022
333.15	0.04565	0.00256

System: 2-methyl-3,5-dinitrobenzoic acid + pentan-1-ol; phases: Liquid, Crystal
Fixed: Pressure, kPa = 101.2
Property: Mole fraction of 2-methyl-3,5-dinitrobenzoic acid (Liquid); method: Chromatography
Temperature, K	Mole fraction of 2-methyl-3,5-dinitrobenzoic acid	uncertainty
288.15	0.01197	0.00067
293.15	0.01376	0.00077
298.15	0.01654	0.00093
303.15	0.01933	0.00108
308.15	0.02261	0.00127
313.15	0.02597	0.00146
318.15	0.0303	0.0017
323.15	0.03563	0.002
328.15	0.04137	0.00232
333.15	0.04783	0.00268

System: 2-methyl-3,5-dinitrobenzoic acid + hexan-1-ol; phases: Liquid, Crystal
Fixed: Pressure, kPa = 101.2
Property: Mole fraction of 2-methyl-3,5-dinitrobenzoic acid (Liquid); method: Chromatography
Temperature, K	Mole fraction of 2-methyl-3,5-dinitrobenzoic acid	uncertainty
288.15	0.009819	0.00055
293.15	0.01138	0.00064
298.15	0.01305	0.00073
303.15	0.01507	0.00084
308.15	0.0177	0.00099
313.15	0.0208	0.00117
318.15	0.02441	0.00137
323.15	0.02882	0.00162
328.15	0.03385	0.0019
333.15	0.03938	0.00221

System: 2-methyl-3,5-dinitrobenzoic acid + heptan-1-ol; phases: Liquid, Crystal
Fixed: Pressure, kPa = 101.2
Property: Mole fraction of 2-methyl-3,5-dinitrobenzoic acid (Liquid); method: Chromatography
Temperature, K	Mole fraction of 2-methyl-3,5-dinitrobenzoic acid	uncertainty
288.15	0.01284	0.00072
293.15	0.01465	0.00082
298.15	0.01701	0.00095
303.15	0.02077	0.00116
308.15	0.02505	0.0014
313.15	0.02948	0.00165
318.15	0.03411	0.00191
323.15	0.03955	0.00222
328.15	0.04584	0.00257
333.15	0.05245	0.00294

System: 2-methyl-3,5-dinitrobenzoic acid + propan-2-ol; phases: Liquid, Crystal
Fixed: Pressure, kPa = 101.2
Property: Mole fraction of 2-methyl-3,5-dinitrobenzoic acid (Liquid); method: Chromatography
Temperature, K	Mole fraction of 2-methyl-3,5-dinitrobenzoic acid	uncertainty
288.15	0.0102	0.00057
293.15	0.01207	0.00068
298.15	0.01467	0.00082
303.15	0.01702	0.00095
308.15	0.0202	0.00113
313.15	0.02323	0.0013
318.15	0.02755	0.00154
323.15	0.03266	0.00183
328.15	0.03839	0.00215
333.15	0.04422	0.00248

System: 2-methyl-3,5-dinitrobenzoic acid + ethyl acetate; phases: Liquid, Crystal
Fixed: Pressure, kPa = 101.2
Property: Mole fraction of 2-methyl-3,5-dinitrobenzoic acid (Liquid); method: Chromatography
Temperature, K	Mole fraction of 2-methyl-3,5-dinitrobenzoic acid	uncertainty
288.15	0.02369	0.00133
293.15	0.02707	0.00152
298.15	0.03118	0.00175
303.15	0.03591	0.00201
308.15	0.04096	0.0023
313.15	0.0467	0.00262
318.15	0.05362	0.00301
323.15	0.06112	0.00343
328.15	0.06945	0.00389
333.15	0.07814	0.00438

System: 2-methyl-3,5-dinitrobenzoic acid + butan-2-ol; phases: Liquid, Crystal
Fixed: Pressure, kPa = 101.2
Property: Mole fraction of 2-methyl-3,5-dinitrobenzoic acid (Liquid); method: Chromatography
Temperature, K	Mole fraction of 2-methyl-3,5-dinitrobenzoic acid	uncertainty
288.15	0.01136	0.00064
293.15	0.01342	0.00075
298.15	0.01584	0.00089
303.15	0.01866	0.00105
308.15	0.02193	0.00123
313.15	0.0257	0.00144
318.15	0.03002	0.00168
323.15	0.03493	0.00196
328.15	0.04049	0.00227
333.15	0.04673	0.00262

System: 2-methyl-3,5-dinitrobenzoic acid + cyclohexane; phases: Liquid, Crystal
Fixed: Pressure, kPa = 101.2
Property: Mole fraction of 2-methyl-3,5-dinitrobenzoic acid (Liquid); method: Chromatography
Temperature, K	Mole fraction of 2-methyl-3,5-dinitrobenzoic acid	uncertainty
288.15	1.395e-05	7.8e-07
293.15	1.957e-05	1.1e-06
298.15	2.692e-05	1.51e-06
303.15	3.638e-05	2.04e-06
308.15	4.866e-05	2.73e-06
313.15	6.367e-05	3.57e-06
318.15	8.119e-05	4.55e-06
323.15	0.0001035	5.8e-06
328.15	0.0001307	7.3e-06
333.15	0.0001661	9.3e-06

System: 2-methyl-3,5-dinitrobenzoic acid + toluene; phases: Liquid, Crystal
Fixed: Pressure, kPa = 101.2
Property: Mole fraction of 2-methyl-3,5-dinitrobenzoic acid (Liquid); method: Chromatography
Temperature, K	Mole fraction of 2-methyl-3,5-dinitrobenzoic acid	uncertainty
288.15	0.0174	0.00098
293.15	0.0207	0.00116
298.15	0.0242	0.00136
303.15	0.02837	0.00159
308.15	0.03276	0.00184
313.15	0.03769	0.00211
318.15	0.04342	0.00243
323.15	0.04934	0.00277
328.15	0.05576	0.00313
333.15	0.06277	0.00352

System: 2-methyl-3,5-dinitrobenzoic acid + ethanol; phases: Liquid, Crystal
Fixed: Pressure, kPa = 101.2
Property: Mole fraction of 2-methyl-3,5-dinitrobenzoic acid (Liquid); method: Chromatography
Temperature, K	Mole fraction of 2-methyl-3,5-dinitrobenzoic acid	uncertainty
288.15	0.04673	0.00262
293.15	0.05263	0.00295
298.15	0.06039	0.00338
303.15	0.06953	0.0039
308.15	0.0783	0.00439
313.15	0.08822	0.00494
318.15	0.09903	0.00555
323.15	0.1101	0.00617
328.15	0.12261	0.00687
333.15	0.1342	0.00752

System: 2-methyl-3,5-dinitrobenzoic acid + acetonitrile; phases: Liquid, Crystal
Fixed: Pressure, kPa = 101.2
Property: Mole fraction of 2-methyl-3,5-dinitrobenzoic acid (Liquid); method: Chromatography
Temperature, K	Mole fraction of 2-methyl-3,5-dinitrobenzoic acid	uncertainty
288.15	0.007099	0.000398
293.15	0.008404	0.000471
298.15	0.009938	0.000557
303.15	0.012	0.00067
308.15	0.01446	0.00081
313.15	0.01757	0.00098
318.15	0.02089	0.00117
323.15	0.02477	0.00139
328.15	0.02924	0.00164
333.15	0.03414	0.00191

System: 2-methyl-3,5-dinitrobenzoic acid + water; phases: Liquid, Crystal
Fixed: Pressure, kPa = 101.2
Property: Mole fraction of 2-methyl-3,5-dinitrobenzoic acid (Liquid); method: Chromatography
Temperature, K	Mole fraction of 2-methyl-3,5-dinitrobenzoic acid	uncertainty
288.15	1.67e-05	9.4e-07
293.15	2.351e-05	1.32e-06
298.15	3.496e-05	1.96e-06
303.15	4.549e-05	2.55e-06
308.15	5.868e-05	3.29e-06
313.15	7.989e-05	4.48e-06
318.15	0.0001082	6.1e-06
323.15	0.0001372	7.7e-06
328.15	0.0001714	9.6e-06
333.15	0.0002176	1.22e-05
