Measured thermophysical data. Measurement and Correlation of CO2 Solubility in 1-Ethyl-3-methylimidazolium ([EMIM]) Cation-Based Ionic Liquids: [EMIM][Ac], [EMIM][Cl], and [EMIM][MeSO4]
Source: J. Chem. Eng. Data, 2018, 10.1021/acs.jced.7b00532
Compound 1: carbon dioxide, CO2, InChI=1S/CO2/c2-1-3, purity 99.999%
Compound 2: 1-ethyl-3-methylimidazolium acetate, C8H14N2O2, InChI=1S/C6H11N2.C2H4O2/c1-3-8-5-4-7(2)6-8;1-2(3)4/h4-6H,3H2,1-2H3;1H3,(H,3,4)/q+1;/p-1, purity 95%
Compound 3: 1-ethyl-3-methylimidazolium chloride, C6H11ClN2, InChI=1S/C6H11N2.ClH/c1-3-8-5-4-7(2)6-8;/h4-6H,3H2,1-2H3;1H/q+1;/p-1, purity 98%
Compound 4: 1-ethyl-3-methylimidazolium methylsulfate, C7H14N2O4S, InChI=1S/C6H11N2.CH4O4S/c1-3-8-5-4-7(2)6-8;1-5-6(2,3)4/h4-6H,3H2,1-2H3;1H3,(H,2,3,4)/q+1;/p-1, purity 99%

System: 1-ethyl-3-methylimidazolium acetate + carbon dioxide; phases: Liquid, Gas
Property: Vapor or sublimation pressure, kPa (Liquid); method: Closed cell (Static) method
Mole fraction of carbon dioxide	Temperature, K	Vapor or sublimation pressure, kPa	uncertainty
0.295	303.15	450	20
0.295	313.15	570	30
0.295	323.15	740	40
0.295	333.15	930	40
0.295	343.15	1180	50
0.295	353.15	1440	70
0.295	363.15	1700	80
0.295	373.15	2010	100
0.327	303.15	620	30
0.327	313.15	820	30
0.327	323.15	1060	40
0.327	333.15	1280	50
0.327	343.15	1630	60
0.327	353.15	2010	80
0.327	363.15	2430	90
0.327	373.15	2850	110
0.357	303.15	850	40
0.357	313.15	1080	40
0.357	323.15	1350	50
0.357	333.15	1730	70
0.357	343.15	2160	80
0.357	353.15	2650	100
0.357	363.15	3180	110
0.357	373.15	3760	130
0.395	303.15	1260	50
0.395	313.15	1610	60
0.395	323.15	2020	80
0.395	333.15	2470	90
0.395	343.15	3000	110
0.395	353.15	3710	130
0.395	363.15	4370	160
0.395	373.15	4960	180
0.461	303.15	2310	70
0.461	313.15	2810	90
0.461	323.15	3490	110
0.461	333.15	4230	130
0.461	343.15	5070	160
0.461	353.15	6050	190
0.461	363.15	7170	230
0.461	373.15	8290	260
0.535	303.15	3880	100
0.535	313.15	4920	130
0.535	323.15	6120	160
0.535	333.15	7560	200
0.535	343.15	9060	250
0.535	353.15	11120	300
0.535	363.15	13280	360
0.535	373.15	15420	430
0.557	303.15	4720	150
0.557	313.15	6140	200
0.557	323.15	7700	240
0.557	333.15	9610	310
0.557	343.15	11950	400
0.557	353.15	14410	480
0.557	363.15	17300	540
0.557	373.15	20200	640
0.575	303.15	5870	200
0.575	313.15	7630	260
0.575	323.15	9460	330
0.575	333.15	11820	400
0.575	343.15	14610	480
0.575	353.15	17850	590

System: 1-ethyl-3-methylimidazolium acetate + carbon dioxide; phases: Liquid mixture 1, Liquid mixture 2
Fixed: Mole fraction of carbon dioxide = 0.575
Property: Vapor or sublimation pressure, kPa (Liquid mixture 1); method: Closed cell (Static) method
Temperature, K	Vapor or sublimation pressure, kPa	uncertainty
363.15	20960	480
373.15	24640	560

System: 1-ethyl-3-methylimidazolium chloride + carbon dioxide; phases: Liquid, Gas
Property: Vapor or sublimation pressure, kPa (Liquid); method: Closed cell (Static) method
Mole fraction of carbon dioxide	Temperature, K	Vapor or sublimation pressure, kPa	uncertainty
0.098	353.15	2530	160
0.098	363.15	2760	180
0.098	373.15	3000	200
0.098	383.15	3260	220
0.098	393.15	3500	240
0.098	403.15	3740	260
0.142	353.15	4070	170
0.142	363.15	4510	190
0.142	373.15	4980	210
0.142	383.15	5440	230
0.142	393.15	5870	250
0.142	403.15	6310	270
0.195	353.15	6230	210
0.195	363.15	6910	240
0.195	373.15	7630	270
0.195	383.15	8350	300
0.195	393.15	9040	330
0.195	403.15	9760	370
0.243	353.15	8420	270
0.243	363.15	9620	310
0.243	373.15	10850	350
0.243	383.15	12090	380
0.243	393.15	13300	420
0.243	403.15	14490	470
0.283	353.15	11210	350
0.283	363.15	12670	400
0.283	373.15	14130	440
0.283	383.15	15550	490
0.283	393.15	16990	530
0.283	403.15	18510	590
0.306	353.15	13090	390
0.306	363.15	14940	470
0.306	373.15	16840	560
0.306	383.15	18770	590
0.306	393.15	20640	660
0.306	403.15	22530	720
0.328	353.15	15270	430
0.328	363.15	17700	530
0.328	373.15	20250	600

System: 1-ethyl-3-methylimidazolium chloride + carbon dioxide; phases: Liquid mixture 1, Liquid mixture 2
Property: Vapor or sublimation pressure, kPa (Liquid mixture 1); method: Closed cell (Static) method
Mole fraction of carbon dioxide	Temperature, K	Vapor or sublimation pressure, kPa	uncertainty
0.328	383.15	22770	840
0.328	393.15	25280	930
0.328	403.15	27770	1030
0.347	353.15	18360	830
0.347	363.15	21280	450
0.347	373.15	24150	510
0.347	383.15	27110	930
0.347	393.15	30090	1030
0.347	403.15	33140	1140

System: 1-ethyl-3-methylimidazolium methylsulfate + carbon dioxide; phases: Liquid, Gas
Property: Vapor or sublimation pressure, kPa (Liquid); method: Closed cell (Static) method
Mole fraction of carbon dioxide	Temperature, K	Vapor or sublimation pressure, kPa	uncertainty
0.089	303.15	630	60
0.089	313.15	750	70
0.089	323.15	870	80
0.089	333.15	1140	110
0.089	343.15	1430	130
0.089	353.15	1710	140
0.089	363.15	2170	180
0.089	373.15	2510	240
0.145	303.15	1190	70
0.145	313.15	1390	80
0.145	323.15	1650	100
0.145	333.15	2220	130
0.145	343.15	2710	160
0.145	353.15	3170	190
0.145	363.15	3910	230
0.145	373.15	4820	260
0.213	303.15	2110	90
0.213	313.15	2560	110
0.213	323.15	3190	130
0.213	333.15	4060	170
0.213	343.15	4870	200
0.213	353.15	5830	240
0.213	363.15	7140	300
0.213	373.15	8310	350
0.296	303.15	3380	100
0.296	313.15	4100	130
0.296	323.15	5010	160
0.296	333.15	6430	200
0.296	343.15	7710	250
0.296	353.15	9360	310
0.296	363.15	11360	370
0.296	373.15	13520	460
0.339	303.15	4310	160
0.339	313.15	5370	210
0.339	323.15	6860	300
0.339	333.15	8730	400
0.339	343.15	10560	500
0.339	353.15	13140	630
0.339	363.15	16020	740
0.339	373.15	19030	860
0.378	303.15	5710	200
0.378	313.15	7390	300
0.378	323.15	9830	410
0.378	333.15	12770	530
0.378	343.15	15850	700
0.378	353.15	19570	830
0.378	363.15	23260	950
0.378	373.15	27180	1070

System: 1-ethyl-3-methylimidazolium methylsulfate + carbon dioxide; phases: Liquid mixture 1, Liquid mixture 2
Property: Vapor or sublimation pressure, kPa (Liquid mixture 1); method: Closed cell (Static) method
Mole fraction of carbon dioxide	Temperature, K	Vapor or sublimation pressure, kPa	uncertainty
0.419	323.15	15690	1310
0.419	333.15	19960	1460
0.419	343.15	24470	1490
0.419	353.15	29040	1520
0.419	363.15	33340	1500
0.419	373.15	37550	1490
0.455	303.15	16310	1060
0.455	313.15	21440	1220
0.455	323.15	26700	1400
0.455	333.15	32010	1520
0.455	343.15	36530	1590
0.455	353.15	40960	1600
0.455	363.15	44810	1610
0.455	373.15	48550	1620
0.419	303.15	7690	1020
0.419	313.15	11710	1160
