Measured thermophysical data. Density and Melting Points for the Binary Mixtures Dimethyl Sulfoxide (DMSO) + 1-Ethyl-3-methylimidazolium Acetate and DMSO + Choline Acetate
Source: J. Chem. Eng. Data, 2019, 10.1021/acs.jced.8b01048
Compound 1: 1-ethyl-3-methylimidazolium acetate, C8H14N2O2, InChI=1S/C6H11N2.C2H4O2/c1-3-8-5-4-7(2)6-8;1-2(3)4/h4-6H,3H2,1-2H3;1H3,(H,3,4)/q+1;/p-1, purity 99.6%
Compound 2: choline acetate, C7H17NO3, InChI=1S/C5H14NO.C2H4O2/c1-6(2,3)4-5-7;1-2(3)4/h7H,4-5H2,1-3H3;1H3,(H,3,4)/q+1;/p-1, purity 98%
Compound 3: dimethyl sulfoxide, C2H6OS, InChI=1S/C2H6OS/c1-4(2)3/h1-2H3, purity 98%
Compound 4: water, H2O, InChI=1S/H2O/h1H2, purity 99.9%

System: 1-ethyl-3-methylimidazolium acetate; phases: Liquid
Fixed: Pressure, kPa = 100
Property: Mass density, kg/m3 (Liquid); method: Vibrating tube method
Temperature, K	Mass density, kg/m3	uncertainty
293.15	1101.7	0.5
303.15	1095.6	0.5
313.15	1089.6	0.5
323.15	1083.7	0.5
333.15	1077.7	0.5
343.15	1071.8	0.5
353.15	1065.9	0.5
363.15	1060	0.5
373.15	1054.2	0.5

System: dimethyl sulfoxide; phases: Liquid
Fixed: Pressure, kPa = 100
Property: Mass density, kg/m3 (Liquid); method: Vibrating tube method
Temperature, K	Mass density, kg/m3	uncertainty
293.15	1100.2	1.1
303.15	1090.2	1.1
313.15	1080.4	1
323.15	1070.2	1
333.15	1060.3	1
343.15	1050.2	1
353.15	1040.2	1
363.15	1029.9	1
373.15	1019.8	0.9

System: dimethyl sulfoxide + 1-ethyl-3-methylimidazolium acetate + water; phases: Liquid
Fixed: Pressure, kPa = 100
Property: Mass density, kg/m3 (Liquid); method: Vibrating tube method
Temperature, K	Mole fraction of dimethyl sulfoxide	Mole fraction of water	Mass density, kg/m3	uncertainty
293.15	0	0.018	1101.7	0.5
293.15	0.052	0.018	1102.4	0.5
293.15	0.101	0.016	1103	0.5
293.15	0.192	0.022	1103.8	0.5
293.15	0.294	0.023	1104.9	0.6
293.15	0.395	0.016	1105.8	0.6
293.15	0.494	0.013	1106.6	0.6
293.15	0.593	0.011	1107.4	0.7
293.15	0.679	0.01	1107.6	0.8
293.15	0.795	0.009	1107.2	0.9
293.15	0.893	0.007	1105.4	1
293.15	0.998	0.002	1100.2	1.1
303.15	0	0.018	1095.6	0.5
303.15	0.052	0.018	1096.3	0.5
303.15	0.101	0.016	1096.9	0.5
303.15	0.192	0.022	1097.5	0.5
303.15	0.294	0.023	1098.4	0.6
303.15	0.395	0.016	1099	0.6
303.15	0.494	0.013	1099.5	0.6
303.15	0.593	0.011	1099.9	0.7
303.15	0.679	0.01	1099.9	0.7
303.15	0.795	0.009	1098.8	0.8
303.15	0.893	0.007	1096.3	0.9
303.15	0.998	0.002	1090.2	1.1
313.15	0	0.018	1089.6	0.5
313.15	0.052	0.018	1090.3	0.5
313.15	0.101	0.016	1090.8	0.5
313.15	0.192	0.022	1091.2	0.5
313.15	0.294	0.023	1091.8	0.6
313.15	0.395	0.016	1092.2	0.6
313.15	0.494	0.013	1092.4	0.6
313.15	0.593	0.011	1092.5	0.7
313.15	0.679	0.01	1092	0.7
313.15	0.795	0.009	1090.4	0.8
313.15	0.893	0.007	1087.3	0.9
313.15	0.998	0.002	1080.4	1
323.15	0	0.018	1083.7	0.5
323.15	0.052	0.018	1084.2	0.5
323.15	0.101	0.016	1084.5	0.5
323.15	0.192	0.022	1084.8	0.5
323.15	0.294	0.023	1085.2	0.5
323.15	0.395	0.016	1085.3	0.6
323.15	0.494	0.013	1085.4	0.6
323.15	0.593	0.011	1085.1	0.7
323.15	0.679	0.01	1084.3	0.7
323.15	0.795	0.009	1082	0.8
323.15	0.893	0.007	1078.3	0.9
323.15	0.998	0.002	1070.2	1
333.15	0	0.018	1077.7	0.5
333.15	0.052	0.018	1078.1	0.5
333.15	0.101	0.016	1078.3	0.5
333.15	0.192	0.022	1078.4	0.5
333.15	0.294	0.023	1078.7	0.5
333.15	0.395	0.016	1078.7	0.6
333.15	0.494	0.013	1078.3	0.6
333.15	0.593	0.011	1077.8	0.7
333.15	0.679	0.01	1076.6	0.7
333.15	0.795	0.009	1073.7	0.8
333.15	0.893	0.007	1069.3	0.9
333.15	0.998	0.002	1060.3	1
343.15	0	0.018	1071.8	0.5
343.15	0.052	0.018	1072	0.5
343.15	0.101	0.016	1072.2	0.5
343.15	0.192	0.022	1072.2	0.5
343.15	0.294	0.023	1072.1	0.5
343.15	0.395	0.016	1071.8	0.6
343.15	0.494	0.013	1071.3	0.6
343.15	0.593	0.011	1070.4	0.7
343.15	0.679	0.01	1068.9	0.7
343.15	0.795	0.009	1065.4	0.8
343.15	0.893	0.007	1060.3	0.9
343.15	0.998	0.002	1050.2	1
353.15	0	0.018	1065.9	0.5
353.15	0.052	0.018	1066.1	0.5
353.15	0.101	0.016	1066.1	0.5
353.15	0.192	0.022	1065.9	0.5
353.15	0.294	0.023	1065.6	0.5
353.15	0.395	0.016	1065.2	0.6
353.15	0.494	0.013	1064.4	0.6
353.15	0.593	0.011	1063.1	0.7
353.15	0.679	0.01	1061.2	0.7
353.15	0.795	0.009	1057.1	0.8
353.15	0.893	0.007	1051.3	0.9
353.15	0.998	0.002	1040.2	1
363.15	0	0.018	1060	0.5
363.15	0.052	0.018	1060.1	0.5
363.15	0.101	0.016	1060	0.5
363.15	0.192	0.022	1059.8	0.5
363.15	0.294	0.023	1059.3	0.5
363.15	0.395	0.016	1058.4	0.6
363.15	0.494	0.013	1057.5	0.6
363.15	0.593	0.011	1055.8	0.7
363.15	0.679	0.01	1053.6	0.7
363.15	0.795	0.009	1048.8	0.8
363.15	0.893	0.007	1042.3	0.9
363.15	0.998	0.002	1029.9	1
373.15	0	0.018	1054.2	0.5
373.15	0.052	0.018	1054.1	0.5
373.15	0.101	0.016	1054	0.5
373.15	0.192	0.022	1053.6	0.5
373.15	0.294	0.023	1052.9	0.5
373.15	0.395	0.016	1051.8	0.6
373.15	0.494	0.013	1050.6	0.6
373.15	0.593	0.011	1048.5	0.6
373.15	0.679	0.01	1046	0.7
373.15	0.795	0.009	1040.4	0.8
373.15	0.893	0.007	1033.2	0.9
373.15	0.998	0.002	1019.8	0.9

System: dimethyl sulfoxide + choline acetate + water; phases: Liquid
Fixed: Pressure, kPa = 100
Property: Mass density, kg/m3 (Liquid); method: Vibrating tube method
Temperature, K	Mole fraction of dimethyl sulfoxide	Mole fraction of water	Mass density, kg/m3	uncertainty
293.15	0.894	0.006	1102.7	1.1
303.15	0.894	0.006	1093.9	1.1
313.15	0.794	0.006	1086	1
313.15	0.894	0.006	1085.1	1
323.15	0.697	0.006	1079.6	1
323.15	0.794	0.006	1077.9	1
323.15	0.894	0.006	1076.3	1
333.15	0.585	0.022	1073.6	1
333.15	0.697	0.006	1072.3	1
333.15	0.794	0.006	1070	1
333.15	0.894	0.006	1067.4	1
343.15	0.488	0.029	1067.3	1
343.15	0.585	0.022	1066.7	1
343.15	0.697	0.006	1065	1
343.15	0.794	0.006	1061.8	1
343.15	0.894	0.006	1058.6	1
353.15	0.488	0.029	1060.8	1
353.15	0.585	0.022	1059.8	1
353.15	0.697	0.006	1057.6	1
353.15	0.794	0.006	1053.8	1
353.15	0.894	0.006	1049.8	1
363.15	0.488	0.029	1054.6	1
363.15	0.585	0.022	1053	1
363.15	0.697	0.006	1050.4	1
363.15	0.794	0.006	1045.6	1
363.15	0.894	0.006	1040.9	1
373.15	0.488	0.029	1048.4	1
373.15	0.585	0.022	1046.4	1
373.15	0.697	0.006	1043.3	1
373.15	0.794	0.006	1037.6	1
373.15	0.894	0.006	1032.3	1

System: dimethyl sulfoxide + choline acetate + water; phases: Liquid, Crystal 1
Fixed: Pressure, kPa = 100
Property: Solid-liquid equilibrium temperature, K (Liquid); method: VISOBS
Mole fraction of dimethyl sulfoxide	Mole fraction of water	Solid-liquid equilibrium temperature, K	uncertainty
0.488	0.029	340.35	2
0.585	0.022	330.85	2
0.697	0.006	321.45	2
0.794	0.006	308.65	2

System: dimethyl sulfoxide + 1-ethyl-3-methylimidazolium acetate; phases: Liquid
Fixed: Pressure, kPa = 100
Property: Mass density, kg/m3 (Liquid); method: Vibrating tube method
Temperature, K	Mole fraction of dimethyl sulfoxide	Mass density, kg/m3	uncertainty
293.15	0	1101.7	0.5
293.15	0.053	1102.4	0.5
293.15	0.103	1103	0.5
293.15	0.196	1103.8	0.5
293.15	0.301	1104.9	0.5
293.15	0.401	1105.8	0.5
293.15	0.501	1106.6	0.5
293.15	0.6	1107.4	0.5
293.15	0.686	1107.6	0.5
293.15	0.802	1107.2	0.5
293.15	0.899	1105.4	0.5
293.15	1	1100.2	0.5
303.15	0	1095.6	0.5
303.15	0.053	1096.3	0.5
303.15	0.103	1096.9	0.5
303.15	0.196	1097.5	0.5
303.15	0.301	1098.4	0.5
303.15	0.401	1099	0.5
303.15	0.501	1099.5	0.5
303.15	0.6	1099.9	0.5
303.15	0.686	1099.9	0.5
303.15	0.802	1098.8	0.5
303.15	0.899	1096.3	0.5
303.15	1	1090.2	0.5
313.15	0	1089.6	0.5
313.15	0.053	1090.3	0.5
313.15	0.103	1090.8	0.5
313.15	0.196	1091.2	0.5
313.15	0.301	1091.8	0.5
313.15	0.401	1092.2	0.5
313.15	0.501	1092.4	0.5
313.15	0.6	1092.5	0.5
313.15	0.686	1092	0.5
313.15	0.802	1090.4	0.5
313.15	0.899	1087.3	0.5
313.15	1	1080.4	0.5
323.15	0	1083.7	0.5
323.15	0.053	1084.2	0.5
323.15	0.103	1084.5	0.5
323.15	0.196	1084.8	0.5
323.15	0.301	1085.2	0.5
323.15	0.401	1085.3	0.5
323.15	0.501	1085.4	0.5
323.15	0.6	1085.1	0.5
323.15	0.686	1084.3	0.5
323.15	0.802	1082	0.5
323.15	0.899	1078.3	0.5
323.15	1	1070.2	0.5
333.15	0	1077.7	0.5
333.15	0.053	1078.1	0.5
333.15	0.103	1078.3	0.5
333.15	0.196	1078.4	0.5
333.15	0.301	1078.7	0.5
333.15	0.401	1078.7	0.5
333.15	0.501	1078.3	0.5
333.15	0.6	1077.8	0.5
333.15	0.686	1076.6	0.5
333.15	0.802	1073.7	0.5
333.15	0.899	1069.3	0.5
333.15	1	1060.3	0.5
343.15	0	1071.8	0.5
343.15	0.053	1072	0.5
343.15	0.103	1072.2	0.5
343.15	0.196	1072.2	0.5
343.15	0.301	1072.1	0.5
343.15	0.401	1071.8	0.5
343.15	0.501	1071.3	0.5
343.15	0.6	1070.4	0.5
343.15	0.686	1068.9	0.5
343.15	0.802	1065.4	0.5
343.15	0.899	1060.3	0.5
343.15	1	1050.2	0.5
353.15	0	1065.9	0.5
353.15	0.053	1066.1	0.5
353.15	0.103	1066.1	0.5
353.15	0.196	1065.9	0.5
353.15	0.301	1065.6	0.5
353.15	0.401	1065.2	0.5
353.15	0.501	1064.4	0.5
353.15	0.6	1063.1	0.5
353.15	0.686	1061.2	0.5
353.15	0.802	1057.1	0.5
353.15	0.899	1051.3	0.5
353.15	1	1040.2	0.5
363.15	0	1060	0.5
363.15	0.053	1060.1	0.5
363.15	0.103	1060	0.5
363.15	0.196	1059.8	0.5
363.15	0.301	1059.3	0.5
363.15	0.401	1058.4	0.5
363.15	0.501	1057.5	0.5
363.15	0.6	1055.8	0.5
363.15	0.686	1053.6	0.5
363.15	0.802	1048.8	0.5
363.15	0.899	1042.3	0.5
363.15	1	1029.9	0.5
373.15	0	1054.2	0.5
373.15	0.053	1054.1	0.5
373.15	0.103	1054	0.5
373.15	0.196	1053.6	0.5
373.15	0.301	1052.9	0.5
373.15	0.401	1051.8	0.5
373.15	0.501	1050.6	0.5
373.15	0.6	1048.5	0.5
373.15	0.686	1046	0.5
373.15	0.802	1040.4	0.5
373.15	0.899	1033.2	0.5
373.15	1	1019.8	0.5

System: dimethyl sulfoxide + choline acetate; phases: Liquid
Fixed: Pressure, kPa = 100
Property: Mass density, kg/m3 (Liquid); method: Vibrating tube method
Temperature, K	Mole fraction of dimethyl sulfoxide	Mass density, kg/m3	uncertainty
293.15	0.899	1102.7	0.5
303.15	0.899	1093.9	0.5
313.15	0.799	1086	0.5
313.15	0.899	1085.1	0.5
323.15	0.701	1079.6	0.5
323.15	0.799	1077.9	0.5
323.15	0.899	1076.3	0.5
333.15	0.598	1073.6	0.5
333.15	0.701	1072.3	0.5
333.15	0.799	1070	0.5
333.15	0.899	1067.4	0.5
343.15	0.503	1067.3	0.5
343.15	0.598	1066.7	0.5
343.15	0.701	1065	0.5
343.15	0.799	1061.8	0.5
343.15	0.899	1058.6	0.5
353.15	0.503	1060.8	0.5
353.15	0.598	1059.8	0.5
353.15	0.701	1057.6	0.5
353.15	0.799	1053.8	0.5
353.15	0.899	1049.8	0.5
363.15	0.503	1054.6	0.5
363.15	0.598	1053	0.5
363.15	0.701	1050.4	0.5
363.15	0.799	1045.6	0.5
363.15	0.899	1040.9	0.5
373.15	0.503	1048.4	0.5
373.15	0.598	1046.4	0.5
373.15	0.701	1043.3	0.5
373.15	0.799	1037.6	0.5
373.15	0.899	1032.3	0.5

System: dimethyl sulfoxide + choline acetate; phases: Liquid, Crystal
Fixed: Pressure, kPa = 100
Property: Solid-liquid equilibrium temperature, K (Liquid); method: VISOBS
Mole fraction of dimethyl sulfoxide	Solid-liquid equilibrium temperature, K	uncertainty
0.503	340.35	2
0.598	330.85	2
0.701	321.45	2
0.799	308.65	2

System: 1-ethyl-3-methylimidazolium acetate + water; phases: Liquid
Fixed: Mole fraction of water = 0.018
Fixed: Pressure, kPa = 100
Property: Mass density, kg/m3 (Liquid); method: Vibrating tube method
Temperature, K	Mass density, kg/m3	uncertainty
293.15	1101.7	0.5
303.15	1095.6	0.5
313.15	1089.6	0.5
323.15	1083.7	0.5
333.15	1077.7	0.5
343.15	1071.8	0.5
353.15	1065.9	0.5
363.15	1060	0.5
373.15	1054.2	0.5

System: dimethyl sulfoxide + water; phases: Liquid
Fixed: Mole fraction of dimethyl sulfoxide = 0.998
Fixed: Pressure, kPa = 100
Property: Mass density, kg/m3 (Liquid); method: Vibrating tube method
Temperature, K	Mass density, kg/m3	uncertainty
293.15	1100.2	1.1
303.15	1090.2	1.1
313.15	1080.4	1
323.15	1070.2	1
333.15	1060.3	1
343.15	1050.2	1
353.15	1040.2	1
363.15	1029.9	1
373.15	1019.8	0.9
