Measured thermophysical data. Density, Speed of Sound, and Refractive Index Measurements for Binary Mixtures of Pentan-2-one with Propan-2-ol and Butan-2-ol
Source: J. Chem. Eng. Data, 2018, 10.1021/acs.jced.8b00547
Compound 1: pentan-2-one, C5H10O, InChI=1S/C5H10O/c1-3-4-5(2)6/h3-4H2,1-2H3
Compound 2: propan-2-ol, C3H8O, InChI=1S/C3H8O/c1-3(2)4/h3-4H,1-2H3
Compound 3: butan-2-ol, C4H10O, InChI=1S/C4H10O/c1-3-4(2)5/h4-5H,3H2,1-2H3

System: pentan-2-one; phases: Liquid
Fixed: Pressure, kPa = 101
Property: Mass density, kg/m3 (Liquid); method: Vibrating tube method
Temperature, K	Mass density, kg/m3	uncertainty
298.15	802.09	0.41
308.15	792.32	0.41
318.15	782.44	0.41
328.15	772.43	0.42
338.15	762.27	0.42

System: pentan-2-one; phases: Liquid
Fixed: Pressure, kPa = 101
Property: Speed of sound, m/s (Liquid); method: Single path-length method
Temperature, K	Speed of sound, m/s	uncertainty
298.15	1215.95	1.41
308.15	1174.41	1.41
318.15	1133.3	1.41
328.15	1093.58	1.41
338.15	1053.84	1.41

System: pentan-2-one; phases: Liquid
Fixed: Pressure, kPa = 101
Property: Refractive index (Na D-line) (Liquid); method: Standard Abbe refractometry
Temperature, K	Refractive index (Na D-line)	uncertainty
298.15	1.38782	0.00049
308.15	1.38284	0.00049
318.15	1.37782	0.00049
328.15	1.3728	0.00049
338.15	1.36764	0.00049

System: propan-2-ol; phases: Liquid
Fixed: Pressure, kPa = 101
Property: Mass density, kg/m3 (Liquid); method: Vibrating tube method
Temperature, K	Mass density, kg/m3	uncertainty
298.15	781.1	0.41
308.15	772.51	0.42
318.15	763.51	0.42
328.15	754.19	0.42
338.15	743.66	0.42

System: propan-2-ol; phases: Liquid
Fixed: Pressure, kPa = 101
Property: Speed of sound, m/s (Liquid); method: Single path-length method
Temperature, K	Speed of sound, m/s	uncertainty
298.15	1138.5	1.41
308.15	1103.25	1.41
318.15	1068.09	1.41
328.15	1032.57	1.41
338.15	997.33	1.41

System: propan-2-ol; phases: Liquid
Fixed: Pressure, kPa = 101
Property: Refractive index (Na D-line) (Liquid); method: Standard Abbe refractometry
Temperature, K	Refractive index (Na D-line)	uncertainty
298.15	1.37522	0.00049
308.15	1.37083	0.00049
318.15	1.36622	0.00049
328.15	1.36146	0.00049
338.15	1.35637	0.00049

System: butan-2-ol; phases: Liquid
Fixed: Pressure, kPa = 101
Property: Mass density, kg/m3 (Liquid); method: Vibrating tube method
Temperature, K	Mass density, kg/m3	uncertainty
298.15	802.4	0.41
308.15	793.86	0.41
318.15	785.26	0.41
328.15	775.73	0.42
338.15	765.75	0.42

System: butan-2-ol; phases: Liquid
Fixed: Pressure, kPa = 101
Property: Speed of sound, m/s (Liquid); method: Single path-length method
Temperature, K	Speed of sound, m/s	uncertainty
298.15	1212.03	1.41
308.15	1175.8	1.41
318.15	1139.52	1.41
328.15	1102.29	1.41
338.15	1064.47	1.41

System: butan-2-ol; phases: Liquid
Fixed: Pressure, kPa = 101
Property: Refractive index (Na D-line) (Liquid); method: Standard Abbe refractometry
Temperature, K	Refractive index (Na D-line)	uncertainty
298.15	1.39474	0.00049
308.15	1.39011	0.00049
318.15	1.38547	0.00049
328.15	1.38022	0.00049
338.15	1.37621	0.00049

System: pentan-2-one + propan-2-ol; phases: Liquid
Fixed: Pressure, kPa = 101
Property: Mass density, kg/m3 (Liquid); method: Vibrating tube method
Temperature, K	Mole fraction of pentan-2-one	Mass density, kg/m3	uncertainty
298.15	0	781.1	0.41
298.15	0.0978	782.98	0.46
298.15	0.2344	785.78	0.46
298.15	0.3338	787.81	0.46
298.15	0.4126	789.5	0.46
298.15	0.4972	791.25	0.46
298.15	0.6036	793.49	0.46
298.15	0.7125	795.82	0.47
298.15	0.8043	797.8	0.47
298.15	0.9009	799.87	0.47
298.15	1	802.09	0.41
308.15	0	772.51	0.42
308.15	0.0978	774.13	0.45
308.15	0.2344	776.72	0.46
308.15	0.3338	778.65	0.46
308.15	0.4126	780.23	0.46
308.15	0.4972	781.85	0.46
308.15	0.6036	783.93	0.46
308.15	0.7125	786.12	0.46
308.15	0.8043	788.05	0.46
308.15	0.9009	790.07	0.47
308.15	1	792.32	0.41
318.15	0	763.51	0.42
318.15	0.0978	764.87	0.45
318.15	0.2344	767.32	0.45
318.15	0.3338	769.16	0.46
318.15	0.4126	770.69	0.46
318.15	0.4972	772.19	0.45
318.15	0.6036	774.18	0.46
318.15	0.7125	776.29	0.46
318.15	0.8043	778.16	0.46
318.15	0.9009	780.17	0.47
318.15	1	782.44	0.41
328.15	0	754.19	0.42
328.15	0.0978	755.34	0.44
328.15	0.2344	757.63	0.45
328.15	0.3338	759.42	0.45
328.15	0.4126	760.87	0.45
328.15	0.4972	762.28	0.45
328.15	0.6036	764.21	0.45
328.15	0.7125	766.2	0.46
328.15	0.8043	768.09	0.47
328.15	0.9009	770.12	0.47
328.15	1	772.43	0.42
338.15	0	743.66	0.42
338.15	0.0978	744.73	0.44
338.15	0.2344	746.99	0.45
338.15	0.3338	748.79	0.46
338.15	0.4126	750.28	0.45
338.15	0.4972	751.71	0.45
338.15	0.6036	753.67	0.46
338.15	0.7125	755.74	0.46
338.15	0.8043	757.71	0.47
338.15	0.9009	759.83	0.48
338.15	1	762.27	0.42

System: pentan-2-one + propan-2-ol; phases: Liquid
Fixed: Pressure, kPa = 101
Property: Speed of sound, m/s (Liquid); method: Single path-length method
Temperature, K	Mole fraction of pentan-2-one	Speed of sound, m/s	uncertainty
298.15	0	1138.5	1.41
298.15	0.0978	1146.53	1.62
298.15	0.2344	1157.54	1.62
298.15	0.3338	1165.46	1.61
298.15	0.4126	1171.7	1.61
298.15	0.4972	1178.36	1.61
298.15	0.6036	1186.64	1.6
298.15	0.7125	1195.02	1.6
298.15	0.8043	1201.95	1.59
298.15	0.9009	1209.14	1.58
298.15	1	1215.95	1.41
308.15	0	1103.25	1.41
308.15	0.0978	1110.64	1.59
308.15	0.2344	1120.78	1.59
308.15	0.3338	1128.06	1.58
308.15	0.4126	1133.78	1.58
308.15	0.4972	1139.92	1.58
308.15	0.6036	1147.51	1.57
308.15	0.7125	1155.2	1.57
308.15	0.8043	1161.57	1.57
308.15	0.9009	1168.17	1.55
308.15	1	1174.41	1.41
318.15	0	1068.09	1.41
318.15	0.0978	1074.88	1.56
318.15	0.2344	1084.19	1.56
318.15	0.3338	1090.86	1.56
318.15	0.4126	1096.08	1.55
318.15	0.4972	1101.72	1.55
318.15	0.6036	1108.67	1.55
318.15	0.7125	1115.73	1.55
318.15	0.8043	1121.55	1.54
318.15	0.9009	1127.6	1.53
318.15	1	1133.3	1.41
328.15	0	1032.57	1.41
328.15	0.0978	1038.96	1.55
328.15	0.2344	1047.7	1.54
328.15	0.3338	1053.95	1.54
328.15	0.4126	1058.85	1.54
328.15	0.4972	1064.1	1.53
328.15	0.6036	1070.6	1.53
328.15	0.7125	1077.17	1.53
328.15	0.8043	1082.61	1.52
328.15	0.9009	1088.26	1.51
328.15	1	1093.58	1.41
338.15	0	997.33	1.41
338.15	0.0978	1003.32	1.53
338.15	0.2344	1011.45	1.52
338.15	0.3338	1017.27	1.52
338.15	0.4126	1021.8	1.52
338.15	0.4972	1026.68	1.52
338.15	0.6036	1032.68	1.51
338.15	0.7125	1038.75	1.51
338.15	0.8043	1043.75	1.51
338.15	0.9009	1048.95	1.5
338.15	1	1053.84	1.41

System: pentan-2-one + propan-2-ol; phases: Liquid
Fixed: Pressure, kPa = 101
Property: Refractive index (Na D-line) (Liquid); method: Standard Abbe refractometry
Temperature, K	Mole fraction of pentan-2-one	Refractive index (Na D-line)	uncertainty
298.15	0	1.37522	0.00049
298.15	0.0978	1.3767	0.00051
298.15	0.2344	1.3786	0.00051
298.15	0.3338	1.37996	0.00051
298.15	0.4126	1.38098	0.00051
298.15	0.4972	1.38207	0.00051
298.15	0.6036	1.3834	0.00051
298.15	0.7125	1.38472	0.0005
298.15	0.8043	1.3858	0.0005
298.15	0.9009	1.3869	0.0005
298.15	1	1.38782	0.00049
308.15	0	1.37083	0.00049
308.15	0.0978	1.3723	0.00051
308.15	0.2344	1.37412	0.00051
308.15	0.3338	1.3754	0.00051
308.15	0.4126	1.37637	0.00051
308.15	0.4972	1.37741	0.0005
308.15	0.6036	1.37867	0.0005
308.15	0.7125	1.37993	0.0005
308.15	0.8043	1.38098	0.0005
308.15	0.9009	1.382	0.0005
308.15	1	1.38284	0.00049
318.15	0	1.36622	0.00049
318.15	0.0978	1.3677	0.00051
318.15	0.2344	1.36948	0.00051
318.15	0.3338	1.37072	0.00051
318.15	0.4126	1.37167	0.0005
318.15	0.4972	1.37268	0.0005
318.15	0.6036	1.3739	0.0005
318.15	0.7125	1.37511	0.0005
318.15	0.8043	1.3761	0.0005
318.15	0.9009	1.37708	0.0005
318.15	1	1.37782	0.00049
328.15	0	1.36146	0.00049
328.15	0.0978	1.36295	0.00051
328.15	0.2344	1.36471	0.00051
328.15	0.3338	1.36591	0.0005
328.15	0.4126	1.36686	0.0005
328.15	0.4972	1.36785	0.0005
328.15	0.6036	1.36905	0.0005
328.15	0.7125	1.37023	0.0005
328.15	0.8043	1.3712	0.0005
328.15	0.9009	1.37215	0.0005
328.15	1	1.3728	0.00049
338.15	0	1.35637	0.00049
338.15	0.0978	1.3579	0.00051
338.15	0.2344	1.35966	0.00051
338.15	0.3338	1.36085	0.00051
338.15	0.4126	1.36181	0.0005
338.15	0.4972	1.3628	0.0005
338.15	0.6036	1.36398	0.0005
338.15	0.7125	1.36515	0.0005
338.15	0.8043	1.36612	0.0005
338.15	0.9009	1.36705	0.0005
338.15	1	1.36764	0.00049

System: pentan-2-one + butan-2-ol; phases: Liquid
Fixed: Pressure, kPa = 101
Property: Mass density, kg/m3 (Liquid); method: Vibrating tube method
Temperature, K	Mole fraction of pentan-2-one	Mass density, kg/m3	uncertainty
298.15	0	802.4	0.41
298.15	0.1227	801.36	0.42
298.15	0.2361	800.45	0.42
298.15	0.3467	800.01	0.41
298.15	0.4522	799.88	0.41
298.15	0.5521	799.79	0.41
298.15	0.6518	799.88	0.41
298.15	0.744	800.22	0.42
298.15	0.8299	800.65	0.42
298.15	0.919	801.23	0.42
298.15	1	802.09	0.41
308.15	0	793.86	0.41
308.15	0.1227	792.32	0.43
308.15	0.2361	791.24	0.42
308.15	0.3467	790.78	0.42
308.15	0.4522	790.51	0.41
308.15	0.5521	790.25	0.41
308.15	0.6518	790.23	0.41
308.15	0.744	790.31	0.41
308.15	0.8299	790.62	0.42
308.15	0.919	791.25	0.43
308.15	1	792.32	0.41
318.15	0	785.26	0.41
318.15	0.1227	783.39	0.44
318.15	0.2361	782.07	0.42
318.15	0.3467	781.42	0.42
318.15	0.4522	780.93	0.42
318.15	0.5521	780.55	0.42
318.15	0.6518	780.41	0.41
318.15	0.744	780.42	0.42
318.15	0.8299	780.73	0.42
318.15	0.919	781.32	0.43
318.15	1	782.44	0.41
328.15	0	775.73	0.42
328.15	0.1227	773.65	0.44
328.15	0.2361	772.15	0.43
328.15	0.3467	771.4	0.42
328.15	0.4522	770.91	0.42
328.15	0.5521	770.35	0.42
328.15	0.6518	770.02	0.42
328.15	0.744	770.12	0.42
328.15	0.8299	770.56	0.42
328.15	0.919	771.22	0.43
328.15	1	772.43	0.42
338.15	0	765.75	0.42
338.15	0.1227	763.26	0.45
338.15	0.2361	761.48	0.43
338.15	0.3467	760.59	0.42
338.15	0.4522	760.08	0.42
338.15	0.5521	759.46	0.42
338.15	0.6518	759.14	0.42
338.15	0.744	759.29	0.42
338.15	0.8299	759.87	0.42
338.15	0.919	760.73	0.44
338.15	1	762.27	0.42

System: pentan-2-one + butan-2-ol; phases: Liquid
Fixed: Pressure, kPa = 101
Property: Speed of sound, m/s (Liquid); method: Single path-length method
Temperature, K	Mole fraction of pentan-2-one	Speed of sound, m/s	uncertainty
298.15	0	1212.03	1.41
298.15	0.1227	1212.62	1.41
298.15	0.2361	1213.09	1.41
298.15	0.3467	1213.53	1.41
298.15	0.4522	1213.95	1.41
298.15	0.5521	1214.34	1.41
298.15	0.6518	1214.73	1.41
298.15	0.744	1215.07	1.41
298.15	0.8299	1215.39	1.41
298.15	0.919	1215.71	1.41
298.15	1	1215.95	1.41
308.15	0	1175.8	1.41
308.15	0.1227	1175.67	1.41
308.15	0.2361	1175.55	1.41
308.15	0.3467	1175.41	1.41
308.15	0.4522	1175.28	1.41
308.15	0.5521	1175.15	1.41
308.15	0.6518	1175.01	1.41
308.15	0.744	1174.87	1.41
308.15	0.8299	1174.74	1.41
308.15	0.919	1174.59	1.41
308.15	1	1174.41	1.41
318.15	0	1139.52	1.41
318.15	0.1227	1138.52	1.41
318.15	0.2361	1137.89	1.41
318.15	0.3467	1137.25	1.41
318.15	0.4522	1136.64	1.41
318.15	0.5521	1136.06	1.41
318.15	0.6518	1135.47	1.41
318.15	0.744	1134.91	1.41
318.15	0.8299	1134.4	1.41
318.15	0.919	1133.85	1.41
318.15	1	1133.3	1.41
328.15	0	1102.29	1.41
328.15	0.1227	1101.01	1.41
328.15	0.2361	1100.09	1.41
328.15	0.3467	1099.18	1.41
328.15	0.4522	1098.3	1.41
328.15	0.5521	1097.47	1.41
328.15	0.6518	1096.62	1.41
328.15	0.744	1095.84	1.41
328.15	0.8299	1095.1	1.41
328.15	0.919	1094.33	1.41
328.15	1	1093.58	1.41
338.15	0	1064.47	1.41
338.15	0.1227	1062.97	1.41
338.15	0.2361	1061.83	1.41
338.15	0.3467	1060.7	1.41
338.15	0.4522	1059.62	1.41
338.15	0.5521	1058.59	1.41
338.15	0.6518	1057.56	1.41
338.15	0.744	1056.59	1.41
338.15	0.8299	1055.69	1.41
338.15	0.919	1054.75	1.41
338.15	1	1053.84	1.41

System: pentan-2-one + butan-2-ol; phases: Liquid
Fixed: Pressure, kPa = 101
Property: Refractive index (Na D-line) (Liquid); method: Standard Abbe refractometry
Temperature, K	Mole fraction of pentan-2-one	Refractive index (Na D-line)	uncertainty
298.15	0	1.39474	0.00049
298.15	0.1227	1.39423	0.00049
298.15	0.2361	1.39353	0.00049
298.15	0.3467	1.3928	0.0005
298.15	0.4522	1.39205	0.0005
298.15	0.5521	1.39133	0.0005
298.15	0.6518	1.39059	0.0005
298.15	0.744	1.38988	0.0005
298.15	0.8299	1.38922	0.0005
298.15	0.919	1.38853	0.0005
298.15	1	1.38782	0.00049
308.15	0	1.39011	0.00049
308.15	0.1227	1.38958	0.00049
308.15	0.2361	1.38887	0.00049
308.15	0.3467	1.38809	0.0005
308.15	0.4522	1.38731	0.0005
308.15	0.5521	1.38655	0.0005
308.15	0.6518	1.38577	0.0005
308.15	0.744	1.38503	0.0005
308.15	0.8299	1.38434	0.0005
308.15	0.919	1.38358	0.0005
308.15	1	1.38284	0.00049
318.15	0	1.38547	0.00049
318.15	0.1227	1.38489	0.00049
318.15	0.2361	1.38415	0.0005
318.15	0.3467	1.38335	0.0005
318.15	0.4522	1.38254	0.0005
318.15	0.5521	1.38177	0.0005
318.15	0.6518	1.38095	0.0005
318.15	0.744	1.38018	0.0005
318.15	0.8299	1.37943	0.0005
318.15	0.919	1.3786	0.0005
318.15	1	1.37782	0.00049
328.15	0	1.38022	0.00049
328.15	0.1227	1.37968	0.00049
328.15	0.2361	1.37897	0.00049
328.15	0.3467	1.37819	0.0005
328.15	0.4522	1.3774	0.0005
328.15	0.5521	1.37666	0.0005
328.15	0.6518	1.37589	0.0005
328.15	0.744	1.37513	0.0005
328.15	0.8299	1.37437	0.0005
328.15	0.919	1.37356	0.0005
328.15	1	1.3728	0.00049
338.15	0	1.37621	0.00049
338.15	0.1227	1.37559	0.00049
338.15	0.2361	1.37472	0.0005
338.15	0.3467	1.37383	0.0005
338.15	0.4522	1.37293	0.0005
338.15	0.5521	1.37206	0.0005
338.15	0.6518	1.37116	0.0005
338.15	0.744	1.37027	0.0005
338.15	0.8299	1.36944	0.0005
338.15	0.919	1.36852	0.0005
338.15	1	1.36764	0.00049
