Measured thermophysical data. Pressure-Drop Method for Detecting Bubble and Dew Points of Multicomponent Mixtures at Temperatures of up to 573 K
Source: J. Chem. Eng. Data, 2018, 10.1021/acs.jced.7b00755
Compound 1: acetonitrile, C2H3N, InChI=1S/C2H3N/c1-2-3/h1H3, purity 99.9%
Compound 2: propan-2-ol, C3H8O, InChI=1S/C3H8O/c1-3(2)4/h3-4H,1-2H3, purity 99.8%
Compound 3: water, H2O, InChI=1S/H2O/h1H2, purity 99.9%

System: propan-2-ol; phases: Liquid, Gas
Property: Vapor or sublimation pressure, kPa (Liquid); method: pressure drop method
Temperature, K	Vapor or sublimation pressure, kPa	uncertainty
450	1610	150
451.5	1640	150
462.5	2030	180
461.5	2040	180
469	2420	200
469	2460	210
477	2740	220
477	2780	230
482	3060	250
482	3090	250
489.5	3460	280
489	3500	280
494.5	3970	320

System: propan-2-ol + water; phases: Liquid, Gas
Property: Boiling temperature at pressure P, K (Liquid); method: pressure drop method
Mole fraction of propan-2-ol	Pressure, kPa	Boiling temperature at pressure P, K	uncertainty
0.4	2030	461	3.9
0.4	3060	480	4.4
0.4	4060	495	4.5
0.4	5070	507.5	4.2
0.4	6030	516	4.7
0.4	7050	527	6
0.4	5060	507.5	4.1
0.4	5970	514.5	4.7
0.15	2090	466	4.1
0.15	3090	486	4.8
0.15	4050	501	4.7
0.15	5100	515	6.4
0.05	2070	468.5	4.7
0.05	3080	491.5	5.3
0.05	4070	508.5	5.3
0.05	5050	523	5.2
0.05	6060	534	5.2

System: propan-2-ol + water; phases: Liquid, Gas
Property: Boiling temperature at pressure P, K (Liquid); method: pressure drop method
Mole fraction of propan-2-ol	Pressure, kPa	Boiling temperature at pressure P, K	uncertainty
0.4	2030	464	3.9
0.4	3060	483	4.6
0.4	4060	499	4.8
0.4	5070	511	4.3
0.4	6030	519.5	4.7
0.4	7050	530.5	6
0.4	5060	512	4.3
0.4	5970	519	4.7
0.15	2090	476.5	5.1
0.15	3090	500	5.4
0.15	4050	516	4.4
0.15	5100	527	4.2
0.05	2070	478.5	4.4
0.05	3080	500	5.5
0.05	4070	520	5.5
0.05	5050	532.5	5.5
0.05	6060	547	6.9

System: acetonitrile + water; phases: Liquid, Gas
Fixed: Mole fraction of acetonitrile = 0.1
Property: Boiling temperature at pressure P, K (Liquid); method: pressure drop method
Pressure, kPa	Boiling temperature at pressure P, K	uncertainty
2120	481.15	4
3140	500.15	4
5610	528.15	5
8350	553.15	6
10290	569.15	7

System: acetonitrile + water; phases: Liquid, Gas
Fixed: Mole fraction of acetonitrile = 0.1
Property: Boiling temperature at pressure P, K (Liquid); method: pressure drop method
Pressure, kPa	Boiling temperature at pressure P, K	uncertainty
2120	493.15	4
3140	512.65	3.4
5610	538.15	4
8350	562.15	6
10290	578.15	7
