Measured thermophysical data. Measurement and Correlation of Solubilities and Solution Thermodynamics for N,N-Diethylformamide + MCl (M = Na, K, Rb and Cs) + Water Systems in the Temperature Range 288.15-338.15 K
Source: J. Chem. Eng. Data, 2016, 10.1021/acs.jced.5b01043
Compound 1: sodium chloride, ClNa, InChI=1S/ClH.Na/h1H;/q;+1/p-1, purity 99.5%
Compound 2: potassium chloride, ClK, InChI=1S/ClH.K/h1H;/q;+1/p-1, purity 99.5%
Compound 3: rubidium chloride, ClRb, InChI=1S/ClH.Rb/h1H;/q;+1/p-1, purity 99.5%
Compound 4: cesium chloride, ClCs, InChI=1S/ClH.Cs/h1H;/q;+1/p-1, purity 99.5%
Compound 5: N,N-diethylformamide, C5H11NO, InChI=1S/C5H11NO/c1-3-6(4-2)5-7/h5H,3-4H2,1-2H3, purity 99%
Compound 6: water, H2O, InChI=1S/H2O/h1H2, purity 99.8%

System: N,N-diethylformamide + sodium chloride + water; phases: Liquid, Crystal
Fixed: Pressure, kPa = 100
Property: Mass fraction of sodium chloride (Liquid); method: Titration method
Temperature, K	Solvent: Mass fraction of N,N-diethylformamide	Mass fraction of sodium chloride	uncertainty
288.15	0	0.2631	0.0056
288.15	0.1	0.2315	0.0056
288.15	0.2001	0.1979	0.0056
288.15	0.2999	0.1662	0.0056
288.15	0.4	0.134	0.0056
288.15	0.5	0.1017	0.0056
288.15	0.6	0.0707	0.0056
288.15	0.7001	0.039	0.0056
288.15	0.8001	0.0167	0.0056
288.15	0.9	0.0019	0.0019
288.15	1	0.0013	0.0013
298.15	0	0.265	0.0056
298.15	0.1	0.2296	0.0056
298.15	0.2001	0.1997	0.0056
298.15	0.2999	0.1675	0.0056
298.15	0.4	0.1356	0.0056
298.15	0.5	0.1064	0.0056
298.15	0.6	0.0713	0.0056
298.15	0.7001	0.0417	0.0056
298.15	0.8001	0.0156	0.0056
298.15	0.9	0.0029	0.0029
298.15	1	0.0009	0.0009
308.15	0	0.2666	0.0056
308.15	0.1	0.2317	0.0056
308.15	0.2001	0.2022	0.0056
308.15	0.2999	0.1682	0.0056
308.15	0.4	0.1378	0.0056
308.15	0.5	0.1041	0.0056
308.15	0.6	0.0753	0.0056
308.15	0.7001	0.0429	0.0056
308.15	0.8001	0.0167	0.0056
308.15	0.9	0.0033	0.0033
308.15	1	0.0005	0.0005
338.15	0.3	0.1769	0.0041
328.15	0.3	0.1755	0.0041
318.15	0.3	0.172	0.0041
308.15	0.3	0.1685	0.0041
298.15	0.3	0.1689	0.0041
288.15	0.3	0.1645	0.0041
338.15	0.5	0.1074	0.0041
328.15	0.5	0.1058	0.0041
318.15	0.5	0.1066	0.0041
308.15	0.5	0.1033	0.0041
298.15	0.5	0.1011	0.0041
288.15	0.5	0.0942	0.0041
338.15	0.7	0.0389	0.0041
328.15	0.7	0.0424	0.0041
318.15	0.7	0.0426	0.0041
308.15	0.7	0.0423	0.0041
298.15	0.7	0.0405	0.0041
288.15	0.7	0.0398	0.0041

System: N,N-diethylformamide + sodium chloride + water; phases: Liquid
Fixed: Pressure, kPa = 100
Property: Refractive index (Na D-line) (Liquid); method: Standard Abbe refractometry
Temperature, K	Solvent: Mass fraction of N,N-diethylformamide	Mass fraction of sodium chloride	Refractive index (Na D-line)	uncertainty
288.15	0	0.2631	1.381	0.00033
288.15	0.1	0.2315	1.38608	0.00245
288.15	0.2001	0.1979	1.39202	0.00047
288.15	0.2999	0.1662	1.39805	0.00378
288.15	0.4	0.134	1.40437	0.00694
288.15	0.5	0.1017	1.41052	0.00138
288.15	0.6	0.0707	1.41636	0.00037
288.15	0.7001	0.039	1.42178	0.00037
288.15	0.8001	0.0167	1.42749	0.00049
288.15	0.9	0.0019	1.43271	0.00036
288.15	1	0.0013	1.43642	0.00033
298.15	0	0.265	1.37938	0.00153
298.15	0.1	0.2296	1.38437	0.00066
298.15	0.2001	0.1997	1.38996	0.00058
298.15	0.2999	0.1675	1.3958	0.00059
298.15	0.4	0.1356	1.40164	0.00038
298.15	0.5	0.1064	1.4074	0.00033
298.15	0.6	0.0713	1.41291	0.00055
298.15	0.7001	0.0417	1.41802	0.00036
298.15	0.8001	0.0156	1.42343	0.00039
298.15	0.9	0.0029	1.42841	0.00038
298.15	1	0.0009	1.43203	0.00033
308.15	0	0.2666	1.37784	0.00033
308.15	0.1	0.2317	1.38279	0.00038
308.15	0.2001	0.2022	1.38792	0.0006
308.15	0.2999	0.1682	1.39345	0.00035
308.15	0.4	0.1378	1.39892	0.00035
308.15	0.5	0.1041	1.40432	0.00042
308.15	0.6	0.0753	1.4095	0.00034
308.15	0.7001	0.0429	1.41426	0.00034
308.15	0.8001	0.0167	1.4194	0.0004
308.15	0.9	0.0033	1.42404	0.00037
308.15	1	0.0005	1.42776	0.00033

System: N,N-diethylformamide + sodium chloride + water; phases: Liquid
Fixed: Pressure, kPa = 100
Property: Mass density, kg/m3 (Liquid); method: Vibrating tube method
Temperature, K	Solvent: Mass fraction of N,N-diethylformamide	Mass fraction of sodium chloride	Mass density, kg/m3	uncertainty
288.15	0	0.2631	1202.37	0.71
288.15	0.1	0.2315	1168.55	7.47
288.15	0.2001	0.1979	1137.32	2.8
288.15	0.2999	0.1662	1107.08	1.38
288.15	0.4	0.134	1076.65	40.69
288.15	0.5	0.1017	1045.29	0.38
288.15	0.6	0.0707	1014.01	1.62
288.15	0.7001	0.039	984.5	0.15
288.15	0.8001	0.0167	955.03	4.38
288.15	0.9	0.0019	931.43	0.75
288.15	1	0.0013	912.57	0.19
298.15	0	0.265	1197.1	24.27
298.15	0.1	0.2296	1164.4	1.18
298.15	0.2001	0.1997	1132.95	1.11
298.15	0.2999	0.1675	1101.94	2.17
298.15	0.4	0.1356	1070.15	0.37
298.15	0.5	0.1064	1038.67	0.19
298.15	0.6	0.0713	1006.81	1.82
298.15	0.7001	0.0417	976.61	2
298.15	0.8001	0.0156	946.91	2.67
298.15	0.9	0.0029	922.83	1.27
298.15	1	0.0009	904.23	0.17
308.15	0	0.2666	1193.13	0.7
308.15	0.1	0.2317	1159.89	1.74
308.15	0.2001	0.2022	1128.29	0.35
308.15	0.2999	0.1682	1096.54	0.41
308.15	0.4	0.1378	1064.45	0.61
308.15	0.5	0.1041	1032.04	0.17
308.15	0.6	0.0753	999.57	1.97
308.15	0.7001	0.0429	968.94	1.97
308.15	0.8001	0.0167	938.46	2.62
308.15	0.9	0.0033	913.98	1.71
308.15	1	0.0005	896.38	0.29

System: N,N-diethylformamide + potassium chloride + water; phases: Liquid, Crystal
Fixed: Pressure, kPa = 100
Property: Mass fraction of potassium chloride (Liquid); method: Titration method
Temperature, K	Solvent: Mass fraction of N,N-diethylformamide	Mass fraction of potassium chloride	uncertainty
288.15	0	0.2483	0.0056
288.15	0.1	0.2091	0.0056
288.15	0.2001	0.1699	0.0056
288.15	0.3	0.1367	0.0056
288.15	0.4001	0.0998	0.0056
288.15	0.5	0.0673	0.0056
288.15	0.6001	0.0386	0.0056
288.15	0.6999	0.0166	0.0056
288.15	0.7992	0.0053	0.0053
288.15	0.8968	0.0017	0.0017
288.15	1	0.0015	0.0015
298.15	0	0.2668	0.0056
298.15	0.1	0.2231	0.0056
298.15	0.2001	0.1819	0.0056
298.15	0.3	0.1433	0.0056
298.15	0.4001	0.1085	0.0056
298.15	0.5	0.0748	0.0056
298.15	0.6001	0.042	0.0056
298.15	0.6999	0.0229	0.0056
298.15	0.7992	0.0066	0.0056
298.15	0.8968	0.0018	0.0018
298.15	1	0.0009	0.0009
308.15	0	0.2768	0.0056
308.15	0.1	0.2354	0.0056
308.15	0.2001	0.198	0.0056
308.15	0.3	0.1626	0.0056
308.15	0.4001	0.118	0.0056
308.15	0.6001	0.0526	0.0056
308.15	0.6999	0.0266	0.0056
308.15	0.7992	0.0078	0.0056
308.15	0.8968	0.002	0.002
308.15	1	0.0005	0.0005
308.15	0.5	0.0848	0.0056
338.15	0.3	0.1948	0.0041
328.15	0.3	0.1822	0.0041
318.15	0.3	0.1698	0.0041
308.15	0.3	0.1573	0.0041
298.15	0.3	0.1436	0.0041
288.15	0.3	0.1288	0.0041
338.15	0.5	0.1146	0.0041
328.15	0.5	0.1039	0.0041
318.15	0.5	0.0938	0.0041
308.15	0.5	0.0842	0.0041
298.15	0.5	0.0746	0.0041
288.15	0.5	0.0637	0.0041
338.15	0.7	0.0365	0.0041
328.15	0.7	0.0326	0.0041
318.15	0.7	0.0282	0.0041
308.15	0.7	0.0245	0.0041
298.15	0.7	0.0208	0.0041
288.15	0.7	0.0174	0.0041

System: N,N-diethylformamide + potassium chloride + water; phases: Liquid
Fixed: Pressure, kPa = 100
Property: Refractive index (Na D-line) (Liquid); method: Standard Abbe refractometry
Temperature, K	Solvent: Mass fraction of N,N-diethylformamide	Mass fraction of potassium chloride	Refractive index (Na D-line)	uncertainty
288.15	0	0.2483	1.36809	0.00033
288.15	0.1	0.2091	1.37364	0.00033
288.15	0.2001	0.1699	1.38043	0.00059
288.15	0.3	0.1367	1.38772	0.00046
288.15	0.4001	0.0998	1.39564	0.00042
288.15	0.5	0.0673	1.40334	0.00099
288.15	0.6001	0.0386	1.4117	0.00079
288.15	0.6999	0.0166	1.41919	0.00033
288.15	0.7992	0.0053	1.42664	0.00056
288.15	0.8968	0.0017	1.43256	0.00129
288.15	1	0.0015	1.43618	0.00033
298.15	0	0.2668	1.36838	0.00054
298.15	0.1	0.2231	1.37359	0.00071
298.15	0.2001	0.1819	1.37967	0.00099
298.15	0.3	0.1433	1.38661	0.00033
298.15	0.4001	0.1085	1.39371	0.00055
298.15	0.5	0.0748	1.40085	0.0004
298.15	0.6001	0.042	1.40837	0.00035
298.15	0.6999	0.0229	1.41561	0.00034
298.15	0.7992	0.0066	1.42252	0.00058
298.15	0.8968	0.0018	1.42806	0.00065
298.15	1	0.0009	1.43281	0.00326
308.15	0	0.2768	1.36932	0.00033
308.15	0.1	0.2354	1.37398	0.0014
308.15	0.2001	0.198	1.37963	0.00113
308.15	0.3	0.1626	1.38564	0.00038
308.15	0.4001	0.118	1.39196	0.00033
308.15	0.5	0.0848	1.39836	0.00175
308.15	0.6001	0.0526	1.4051	0.00043
308.15	0.6999	0.0266	1.41152	0.00045
308.15	0.7992	0.0078	1.4183	0.00046
308.15	0.8968	0.002	1.42383	0.00037
308.15	1	0.0005	1.42872	0.00033

System: N,N-diethylformamide + potassium chloride + water; phases: Liquid
Fixed: Pressure, kPa = 100
Property: Mass density, kg/m3 (Liquid); method: Vibrating tube method
Temperature, K	Solvent: Mass fraction of N,N-diethylformamide	Mass fraction of potassium chloride	Mass density, kg/m3	uncertainty
288.15	0	0.2483	1169.18	0.68
288.15	0.1	0.2091	1133.93	0.66
288.15	0.2001	0.1699	1102.25	1.42
288.15	0.3	0.1367	1072.12	1.57
288.15	0.4001	0.0998	1044.24	1.67
288.15	0.5	0.0673	1017.7	0.9
288.15	0.6001	0.0386	991.72	3.1
288.15	0.6999	0.0166	969.47	1.2
288.15	0.7992	0.0053	949.58	1.24
288.15	0.8968	0.0017	930.95	0.18
288.15	1	0.0015	911.47	0.2
298.15	0	0.2668	1174.11	3.35
298.15	0.1	0.2231	1138.85	3.53
298.15	0.2001	0.1819	1103.92	9.83
298.15	0.3	0.1433	1072.6	1.68
298.15	0.4001	0.1085	1042.65	10.92
298.15	0.5	0.0748	1014.24	1.59
298.15	0.6001	0.042	986.48	1.51
298.15	0.6999	0.0229	962.49	1.67
298.15	0.7992	0.0066	941.3	1.52
298.15	0.8968	0.0018	922.34	0.57
298.15	1	0.0009	903.51	5.09
308.15	0	0.2768	1184.11	0.69
308.15	0.1	0.2354	1146.97	4.05
308.15	0.2001	0.198	1112.71	4.42
308.15	0.3	0.1626	1077	2.31
308.15	0.4001	0.118	1044.97	0.54
308.15	0.5	0.0848	1014.04	1.54
308.15	0.6001	0.0526	983.34	4.52
308.15	0.6999	0.0266	957.66	0.92
308.15	0.7992	0.0078	933.25	1.73
308.15	0.8968	0.002	913.68	0.92
308.15	1	0.0005	896.68	0.25

System: N,N-diethylformamide + water + rubidium chloride; phases: Liquid, Crystal
Fixed: Pressure, kPa = 100
Property: Mass fraction of rubidium chloride (Liquid); method: Titration method
Temperature, K	Solvent: Mass fraction of N,N-diethylformamide	Mass fraction of rubidium chloride	uncertainty
288.15	0	0.4652	0.0112
288.15	0.1	0.4107	0.0112
288.15	0.2	0.3609	0.0112
288.15	0.3001	0.3041	0.0112
288.15	0.4	0.2467	0.0112
288.15	0.5001	0.1758	0.0112
288.15	0.6	0.1137	0.0112
288.15	0.7	0.0492	0.0112
288.15	0.8	0.0213	0.0112
288.15	0.8999	0.0068	0.0068
288.15	1	0.0016	0.0016
298.15	0	0.4823	0.0112
298.15	0.1	0.4278	0.0112
298.15	0.2	0.3727	0.0112
298.15	0.3001	0.3144	0.0112
298.15	0.4	0.2531	0.0112
298.15	0.5001	0.1983	0.0112
298.15	0.6	0.1309	0.0112
298.15	0.7	0.0623	0.0112
298.15	0.8	0.0198	0.0112
298.15	0.8999	0.0032	0.0032
298.15	1	0.0011	0.0011
308.15	0	0.5033	0.0113
308.15	0.1001	0.4549	0.0112
308.15	0.2	0.4033	0.0112
308.15	0.3	0.3302	0.0112
308.15	0.4	0.2673	0.0112
308.15	0.5	0.2069	0.0112
308.15	0.6	0.1321	0.0112
308.15	0.7	0.0674	0.0112
308.15	0.8	0.0235	0.0112
308.15	0.9	0.0049	0.0049
308.15	1	0.0008	0.0008

System: N,N-diethylformamide + water + rubidium chloride; phases: Liquid
Fixed: Pressure, kPa = 100
Property: Refractive index (Na D-line) (Liquid); method: Standard Abbe refractometry
Temperature, K	Solvent: Mass fraction of N,N-diethylformamide	Mass fraction of rubidium chloride	Refractive index (Na D-line)	uncertainty
288.15	0	0.4652	1.38751	0.00033
288.15	0.1	0.4107	1.38998	0.00161
288.15	0.2	0.3609	1.39377	0.00069
288.15	0.3001	0.3041	1.39831	0.00253
288.15	0.4	0.2467	1.40316	0.00044
288.15	0.5001	0.1758	1.40873	0.0004
288.15	0.6	0.1137	1.41465	0.00035
288.15	0.7	0.0492	1.4209	0.00033
288.15	0.8	0.0213	1.42693	0.00035
288.15	0.8999	0.0068	1.4325	0.00042
288.15	1	0.0016	1.43675	0.00033
298.15	0	0.4823	1.38769	0.00221
298.15	0.1	0.4278	1.3909	0.00034
298.15	0.2	0.3727	1.39347	0.00051
298.15	0.3001	0.3144	1.39772	0.00044
298.15	0.4	0.2531	1.4023	0.00042
298.15	0.5001	0.1983	1.40686	0.00034
298.15	0.6	0.1309	1.41179	0.00034
298.15	0.7	0.0623	1.41743	0.00034
298.15	0.8	0.0198	1.423	0.00033
298.15	0.8999	0.0032	1.42831	0.00034
298.15	1	0.0011	1.43253	0.00074
308.15	0	0.5033	1.38939	0.00033
308.15	0.1001	0.4549	1.3912	0.00034
308.15	0.2	0.4033	1.39296	0.00068
308.15	0.3	0.3302	1.39701	0.00033
308.15	0.4	0.2673	1.40096	0.00039
308.15	0.5	0.2069	1.405	0.00033
308.15	0.6	0.1321	1.40935	0.00033
308.15	0.7	0.0674	1.41391	0.00033
308.15	0.8	0.0235	1.41892	0.00033
308.15	0.9	0.0049	1.42401	0.00034
308.15	1	0.0008	1.42819	0.00033

System: N,N-diethylformamide + water + rubidium chloride; phases: Liquid
Fixed: Pressure, kPa = 100
Property: Mass density, kg/m3 (Liquid); method: Vibrating tube method
Temperature, K	Solvent: Mass fraction of N,N-diethylformamide	Mass fraction of rubidium chloride	Mass density, kg/m3	uncertainty
288.15	0	0.4652	1482.6	0.9
288.15	0.1	0.4107	1400.78	7.85
288.15	0.2	0.3609	1325.54	1.55
288.15	0.3001	0.3041	1252.1	26.96
288.15	0.4	0.2467	1182.24	0.93
288.15	0.5001	0.1758	1114.37	3.72
288.15	0.6	0.1137	1052.38	3.21
288.15	0.7	0.0492	996.12	2.86
288.15	0.8	0.0213	958.55	3.65
288.15	0.8999	0.0068	932.28	3.66
288.15	1	0.0016	910.95	0.21
298.15	0	0.4823	1495.24	17.64
298.15	0.1	0.4278	1422.21	1.16
298.15	0.2	0.3727	1344.76	0.34
298.15	0.3001	0.3144	1270.28	4.06
298.15	0.4	0.2531	1195.19	1.6
298.15	0.5001	0.1983	1124.42	0.74
298.15	0.6	0.1309	1056.86	3.65
298.15	0.7	0.0623	995.49	3.41
298.15	0.8	0.0198	951.63	3.74
298.15	0.8999	0.0032	923.73	2.07
298.15	1	0.0011	902.43	3.47
308.15	0	0.5033	1520.16	0.94
308.15	0.1001	0.4549	1442.54	1.49
308.15	0.2	0.4033	1365.92	1.94
308.15	0.3	0.3302	1281.9	2.99
308.15	0.4	0.2673	1203.3	23.93
308.15	0.5	0.2069	1135.38	5.17
308.15	0.6	0.1321	1056.22	5.17
308.15	0.7	0.0674	992.14	4.16
308.15	0.8	0.0235	945.34	3.71
308.15	0.9	0.0049	915.28	3.62
308.15	1	0.0008	894.54	0.71

System: N,N-diethylformamide + water + rubidium chloride; phases: Liquid mixture 1, Liquid mixture 2, Crystal
Fixed: Pressure, kPa = 100
Property: Triple point temperature, K (Liquid mixture 1); method: VISOBS
Solvent: Mass fraction of N,N-diethylformamide	Triple point temperature, K	uncertainty
0.3	315.1	0.2
0.5	315.8	0.2
0.7	325.2	0.2

System: N,N-diethylformamide + cesium chloride + water; phases: Liquid, Crystal
Fixed: Pressure, kPa = 100
Property: Mass fraction of cesium chloride (Liquid); method: Titration method
Temperature, K	Solvent: Mass fraction of N,N-diethylformamide	Mass fraction of cesium chloride	uncertainty
288.15	0	0.6406	0.0113
288.15	0.1	0.5977	0.0113
288.15	0.2	0.5435	0.0113
288.15	0.3	0.4739	0.0112
288.15	0.4	0.4085	0.0112
288.15	0.5	0.3061	0.0112
288.15	0.6	0.2288	0.0112
288.15	0.7	0.1303	0.0112
288.15	0.8	0.0677	0.0112
288.15	0.9	0.0067	0.0067
288.15	1	0.0013	0.0013
298.15	0	0.6545	0.0113
298.15	0.1	0.6128	0.0113
298.15	0.7	0.1257	0.0112
298.15	0.8	0.0489	0.0112
298.15	0.9	0.0067	0.0067
298.15	1	0.0007	0.0007
308.15	0	0.6684	0.0113
308.15	0.8	0.0528	0.0112
308.15	0.9	0.0079	0.0079
308.15	1	0.0003	0.0003

System: N,N-diethylformamide + cesium chloride + water; phases: Liquid
Fixed: Temperature, K = 288.15
Fixed: Pressure, kPa = 100
Property: Refractive index (Na D-line) (Liquid); method: Standard Abbe refractometry
Solvent: Mass fraction of N,N-diethylformamide	Mass fraction of cesium chloride	Refractive index (Na D-line)	uncertainty
0	0.6406	1.41772	0.00054
0.1	0.5977	1.41692	0.00054
0.2	0.5435	1.41699	0.00038
0.3	0.4739	1.41755	0.00053
0.4	0.4085	1.41842	0.00034
0.5	0.3061	1.4199	0.00035
0.6	0.2288	1.42188	0.00034
0.7	0.1303	1.4241	0.00044
0.8	0.0677	1.42817	0.00033
0.9	0.0067	1.43272	0.00033
1	0.0013	1.43686	0.00033

System: N,N-diethylformamide + cesium chloride + water; phases: Liquid
Fixed: Temperature, K = 288.15
Fixed: Pressure, kPa = 100
Property: Mass density, kg/m3 (Liquid); method: Vibrating tube method
Solvent: Mass fraction of N,N-diethylformamide	Mass fraction of cesium chloride	Mass density, kg/m3	uncertainty
0	0.6406	1893.82	1.24
0.1	0.5977	1775.9	1.23
0.2	0.5435	1660.15	1.02
0.3	0.4739	1541.99	4.84
0.4	0.4085	1420.22	0.76
0.5	0.3061	1294.17	0.4
0.6	0.2288	1168.98	2.89
0.7	0.1303	1054.65	5.74
0.8	0.0677	977.08	8.42
0.9	0.0067	933.49	2.07
1	0.0013	910.38	1.06

System: N,N-diethylformamide + cesium chloride + water; phases: Liquid mixture 1, Liquid mixture 2, Crystal
Property: Mass fraction of cesium chloride (Liquid mixture 1); method: Titration method
Temperature, K	Mass fraction of N,N-diethylformamide	Mass fraction of cesium chloride	uncertainty
298.15	0.12	0.5178	0.0091
298.15	0.1289	0.5061	0.0088
298.15	0.1684	0.4692	0.0086
298.15	0.1797	0.4598	0.0085
298.15	0.1892	0.4535	0.0084
298.15	0.2411	0.4093	0.0085
298.15	0.2455	0.4055	0.0085
298.15	0.2732	0.3809	0.0084
298.15	0.2818	0.3745	0.0087
298.15	0.2882	0.3697	0.0088
298.15	0.3013	0.3543	0.0085
298.15	0.3228	0.3394	0.0081
298.15	0.3643	0.3061	0.0083
298.15	0.3757	0.2934	0.0083
298.15	0.4026	0.2742	0.0079
308.15	0.0979	0.5077	0.0081
308.15	0.116	0.4941	0.0086
308.15	0.1282	0.4829	0.0085
308.15	0.1431	0.4685	0.0086
308.15	0.1568	0.4575	0.0083
308.15	0.1706	0.446	0.0087
308.15	0.1806	0.4332	0.0087
308.15	0.1988	0.42	0.0078
308.15	0.2167	0.4086	0.0083
308.15	0.2231	0.4017	0.0082
308.15	0.2307	0.3935	0.0086
308.15	0.2474	0.3811	0.0083
308.15	0.2629	0.3675	0.008
308.15	0.2785	0.3585	0.0082
308.15	0.2923	0.344	0.0085
308.15	0.3112	0.33	0.0078
308.15	0.3286	0.3194	0.0078
308.15	0.3402	0.31	0.0078
308.15	0.3482	0.3048	0.008
308.15	0.3615	0.2947	0.008
308.15	0.3788	0.2821	0.0078
308.15	0.3876	0.2749	0.0082
308.15	0.3978	0.2695	0.0079
308.15	0.4056	0.2598	0.0078
308.15	0.4231	0.2506	0.0075
308.15	0.4409	0.238	0.0079

System: N,N-diethylformamide + cesium chloride + water; phases: Liquid mixture 2, Liquid mixture 1
Fixed: Temperature, K = 308.15
Fixed: Pressure, kPa = 100
Property: Mass fraction of N,N-diethylformamide (Liquid mixture 2); method: Titration method
Property: Mass fraction of cesium chloride (Liquid mixture 1); method: Titration method
Property: Mass fraction of N,N-diethylformamide (Liquid mixture 1); method: Titration method
Mass fraction of cesium chloride	Mass fraction of N,N-diethylformamide	uncertainty	Mass fraction of cesium chloride	uncertainty	Mass fraction of N,N-diethylformamide	uncertainty
0.562	0.0487	0.0019	0.126	0.005	0.5886	
0.6269	0.0225	0.0009	0.0621	0.0025	0.7046	
0.6062	0.0324	0.0013	0.076	0.003	0.6647	
0.6532	0.0163	0.0007	0.0549	0.0022	0.7344	

System: N,N-diethylformamide + cesium chloride + water; phases: Liquid
Fixed: Temperature, K = 298.15
Fixed: Pressure, kPa = 100
Property: Mass density, kg/m3 (Liquid); method: Vibrating tube method
Mass fraction of N,N-diethylformamide	Mass fraction of cesium chloride	Mass density, kg/m3	uncertainty
0.009925	0	996.45	0.11
0.040002	0	995.04	0.11
0.069984	0	993.7	0.11
0.099192	0	992.49	0.12
0.129023	0	991.3	0.12
0.16004	0	989.97	0.12
0.189733	0	988.8	0.12
0.01008	0.03	1019.53	0.12
0.043596	0.03	1018.02	0.12
0.070059	0.03	1016.8	0.12
0.100264	0.03	1015.47	0.12
0.130095	0.03	1014.34	0.12
0.160034	0.03	1013.03	0.12
0.19248	0.03	1011.47	0.12
0.00992	0.06	1043.62	0.13
0.04	0.06	1042.29	0.13
0.069896	0.06	1041.06	0.13
0.105468	0.06	1039.34	0.13
0.130052	0.06	1038.28	0.13
0.15997	0.06	1037.16	0.13
0.190331	0.06	1035.79	0.14

System: N,N-diethylformamide + cesium chloride + water; phases: Liquid
Fixed: Temperature, K = 298.15
Fixed: Pressure, kPa = 100
Property: Refractive index (Na D-line) (Liquid); method: Standard Abbe refractometry
Mass fraction of N,N-diethylformamide	Mass fraction of cesium chloride	Refractive index (Na D-line)	uncertainty
0.009925	0	1.33379	0.00031
0.040002	0	1.33758	0.00031
0.069984	0	1.34136	0.00032
0.099192	0	1.34512	0.00032
0.129023	0	1.34898	0.00032
0.16004	0	1.35302	0.00032
0.189733	0	1.35684	0.00032
0.01008	0.03	1.33628	0.00031
0.043596	0.03	1.34051	0.00032
0.070059	0.03	1.34398	0.00032
0.100264	0.03	1.34811	0.00032
0.130095	0.03	1.35191	0.00032
0.160034	0.03	1.35588	0.00032
0.19248	0.03	1.36014	0.00032
0.00992	0.06	1.33864	0.00031
0.04	0.06	1.34262	0.00032
0.069896	0.06	1.34666	0.00032
0.105468	0.06	1.35146	0.00032
0.130052	0.06	1.35481	0.00032
0.15997	0.06	1.35886	0.00032
0.190331	0.06	1.36296	0.00032

System: sodium chloride + water; phases: Liquid, Crystal
Fixed: Pressure, kPa = 101
Property: Mass fraction of sodium chloride (Liquid); method: Titration method
Temperature, K	Mass fraction of sodium chloride	uncertainty
288.15	0.2631	0.0027
298.15	0.265	0.0027
308.15	0.2666	0.0027

System: sodium chloride + water; phases: Liquid, Crystal
Fixed: Pressure, kPa = 100
Property: Mass fraction of sodium chloride (Liquid); method: Titration method
Temperature, K	Mass fraction of sodium chloride	uncertainty
288.15	0.2631	0.0056
298.15	0.265	0.0056
308.15	0.2666	0.0056

System: sodium chloride + water; phases: Liquid
Fixed: Pressure, kPa = 100
Property: Refractive index (Na D-line) (Liquid); method: Standard Abbe refractometry
Temperature, K	Mass fraction of sodium chloride	Refractive index (Na D-line)	uncertainty
288.15	0.2631	1.381	0.00032
298.15	0.265	1.37938	0.00031
308.15	0.2666	1.37784	0.00032

System: sodium chloride + water; phases: Liquid
Fixed: Pressure, kPa = 100
Property: Mass density, kg/m3 (Liquid); method: Vibrating tube method
Temperature, K	Mass fraction of sodium chloride	Mass density, kg/m3	uncertainty
288.15	0.2631	1202.37	0.69
298.15	0.265	1197.1	0.69
308.15	0.2666	1193.13	0.69

System: potassium chloride + water; phases: Liquid, Crystal
Fixed: Pressure, kPa = 101
Property: Mass fraction of potassium chloride (Liquid); method: Titration method
Temperature, K	Mass fraction of potassium chloride	uncertainty
288.15	0.2483	0.0026
298.15	0.2668	0.0027
308.15	0.2768	0.0028

System: potassium chloride + water; phases: Liquid, Crystal
Fixed: Pressure, kPa = 100
Property: Mass fraction of potassium chloride (Liquid); method: Titration method
Temperature, K	Mass fraction of potassium chloride	uncertainty
288.15	0.2483	0.0056
298.15	0.2668	0.0056
308.15	0.2768	0.0056

System: potassium chloride + water; phases: Liquid
Fixed: Pressure, kPa = 100
Property: Refractive index (Na D-line) (Liquid); method: Standard Abbe refractometry
Temperature, K	Mass fraction of potassium chloride	Refractive index (Na D-line)	uncertainty
288.15	0.2483	1.36809	0.00032
298.15	0.2668	1.36838	0.00032
308.15	0.2768	1.36932	0.00032

System: potassium chloride + water; phases: Liquid
Fixed: Pressure, kPa = 100
Property: Mass density, kg/m3 (Liquid); method: Vibrating tube method
Temperature, K	Mass fraction of potassium chloride	Mass density, kg/m3	uncertainty
288.15	0.2483	1169.18	0.67
298.15	0.2668	1174.11	0.68
308.15	0.2768	1184.11	0.68

System: water + rubidium chloride; phases: Liquid, Crystal
Fixed: Pressure, kPa = 101
Property: Mass fraction of rubidium chloride (Liquid); method: Titration method
Temperature, K	Mass fraction of rubidium chloride	uncertainty
288.15	0.4652	0.0048
298.15	0.4823	0.0049
308.15	0.5033	0.0052

System: water + rubidium chloride; phases: Liquid, Crystal
Fixed: Pressure, kPa = 100
Property: Mass fraction of rubidium chloride (Liquid); method: Titration method
Temperature, K	Mass fraction of rubidium chloride	uncertainty
288.15	0.4652	0.0057
298.15	0.4823	0.0057
308.15	0.5033	0.0057

System: water + rubidium chloride; phases: Liquid
Fixed: Pressure, kPa = 100
Property: Refractive index (Na D-line) (Liquid); method: Standard Abbe refractometry
Temperature, K	Mass fraction of rubidium chloride	Refractive index (Na D-line)	uncertainty
288.15	0.4652	1.38751	0.00032
298.15	0.4823	1.38769	0.00032
308.15	0.5033	1.38939	0.00032

System: water + rubidium chloride; phases: Liquid
Fixed: Pressure, kPa = 100
Property: Mass density, kg/m3 (Liquid); method: Vibrating tube method
Temperature, K	Mass fraction of rubidium chloride	Mass density, kg/m3	uncertainty
288.15	0.4652	1482.6	0.87
298.15	0.4823	1495.24	0.88
308.15	0.5033	1520.16	0.9

System: cesium chloride + water; phases: Liquid, Crystal
Fixed: Pressure, kPa = 101
Property: Mass fraction of cesium chloride (Liquid); method: Titration method
Temperature, K	Mass fraction of cesium chloride	uncertainty
288.15	0.6406	0.0066
298.15	0.6545	0.0067
308.15	0.6684	0.0068

System: cesium chloride + water; phases: Liquid, Crystal
Fixed: Pressure, kPa = 100
Property: Mass fraction of cesium chloride (Liquid); method: Titration method
Temperature, K	Mass fraction of cesium chloride	uncertainty
288.15	0.6406	0.0058
298.15	0.6545	0.0058
308.15	0.6684	0.0058

System: cesium chloride + water; phases: Liquid
Property: Refractive index (Na D-line) (Liquid); method: Standard Abbe refractometry
Temperature, K	Mass fraction of cesium chloride	Pressure, kPa	Refractive index (Na D-line)	uncertainty
288.15	0.6406	100	1.41772	0.00032

System: cesium chloride + water; phases: Liquid
Property: Mass density, kg/m3 (Liquid); method: Vibrating tube method
Temperature, K	Mass fraction of cesium chloride	Pressure, kPa	Mass density, kg/m3	uncertainty
288.15	0.6406	100	1893.82	1.17

System: N,N-diethylformamide + sodium chloride; phases: Liquid, Crystal
Fixed: Pressure, kPa = 100
Property: Mass fraction of sodium chloride (Liquid); method: Titration method
Temperature, K	Mass fraction of sodium chloride	uncertainty
288.15	0.0013	0.0013
298.15	0.0009	0.0009
308.15	0.0005	0.0005

System: N,N-diethylformamide + sodium chloride; phases: Liquid
Fixed: Pressure, kPa = 100
Property: Refractive index (Na D-line) (Liquid); method: Standard Abbe refractometry
Temperature, K	Mass fraction of sodium chloride	Refractive index (Na D-line)	uncertainty
288.15	0.0013	1.43642	0.00037
298.15	0.0009	1.43203	0.00037
308.15	0.0005	1.42776	0.00037

System: N,N-diethylformamide + sodium chloride; phases: Liquid
Fixed: Pressure, kPa = 100
Property: Mass density, kg/m3 (Liquid); method: Vibrating tube method
Temperature, K	Mass fraction of sodium chloride	Mass density, kg/m3	uncertainty
288.15	0.0013	912.57	0.26
298.15	0.0009	904.23	0.25
308.15	0.0005	896.38	0.24

System: N,N-diethylformamide + potassium chloride; phases: Liquid, Crystal
Fixed: Pressure, kPa = 100
Property: Mass fraction of potassium chloride (Liquid); method: Titration method
Temperature, K	Mass fraction of potassium chloride	uncertainty
288.15	0.0015	0.0015
298.15	0.0009	0.0009
308.15	0.0005	0.0005

System: N,N-diethylformamide + potassium chloride; phases: Liquid
Fixed: Pressure, kPa = 100
Property: Refractive index (Na D-line) (Liquid); method: Standard Abbe refractometry
Temperature, K	Mass fraction of potassium chloride	Refractive index (Na D-line)	uncertainty
288.15	0.0015	1.43618	0.00037
298.15	0.0009	1.43281	0.00037
308.15	0.0005	1.42872	0.00037

System: N,N-diethylformamide + potassium chloride; phases: Liquid
Fixed: Pressure, kPa = 100
Property: Mass density, kg/m3 (Liquid); method: Vibrating tube method
Temperature, K	Mass fraction of potassium chloride	Mass density, kg/m3	uncertainty
288.15	0.0015	911.47	0.27
298.15	0.0009	903.51	0.25
308.15	0.0005	896.68	0.24

System: N,N-diethylformamide + rubidium chloride; phases: Liquid, Crystal
Fixed: Pressure, kPa = 100
Property: Mass fraction of rubidium chloride (Liquid); method: Titration method
Temperature, K	Mass fraction of rubidium chloride	uncertainty
288.15	0.0016	0.0016
298.15	0.0011	0.0011
308.15	0.0008	0.0008

System: N,N-diethylformamide + rubidium chloride; phases: Liquid
Fixed: Pressure, kPa = 100
Property: Refractive index (Na D-line) (Liquid); method: Standard Abbe refractometry
Temperature, K	Mass fraction of rubidium chloride	Refractive index (Na D-line)	uncertainty
288.15	0.0016	1.43675	0.00037
298.15	0.0011	1.43253	0.00037
308.15	0.0008	1.42819	0.00037

System: N,N-diethylformamide + rubidium chloride; phases: Liquid
Fixed: Pressure, kPa = 100
Property: Mass density, kg/m3 (Liquid); method: Vibrating tube method
Temperature, K	Mass fraction of rubidium chloride	Mass density, kg/m3	uncertainty
288.15	0.0016	910.95	0.28
298.15	0.0011	902.43	0.25
308.15	0.0008	894.54	0.25

System: N,N-diethylformamide + cesium chloride; phases: Liquid, Crystal
Fixed: Pressure, kPa = 100
Property: Mass fraction of cesium chloride (Liquid); method: Titration method
Temperature, K	Mass fraction of cesium chloride	uncertainty
288.15	0.0013	0.0013
298.15	0.0007	0.0007
308.15	0.0003	0.0003

System: N,N-diethylformamide + cesium chloride; phases: Liquid
Property: Refractive index (Na D-line) (Liquid); method: Standard Abbe refractometry
Temperature, K	Mass fraction of cesium chloride	Pressure, kPa	Refractive index (Na D-line)	uncertainty
288.15	0.0013	100	1.43686	0.00037

System: N,N-diethylformamide + cesium chloride; phases: Liquid
Property: Mass density, kg/m3 (Liquid); method: Vibrating tube method
Temperature, K	Mass fraction of cesium chloride	Pressure, kPa	Mass density, kg/m3	uncertainty
288.15	0.0013	100	910.38	0.26

System: N,N-diethylformamide + water; phases: Liquid
Fixed: Temperature, K = 298.15
Fixed: Pressure, kPa = 100
Property: Mass density, kg/m3 (Liquid); method: Vibrating tube method
Mass fraction of N,N-diethylformamide	Mass density, kg/m3	uncertainty
0.009925	996.45	0.11
0.040002	995.04	0.11
0.069984	993.7	0.11
0.099192	992.49	0.12
0.129023	991.3	0.12
0.16004	989.97	0.12
0.189733	988.8	0.12

System: N,N-diethylformamide + water; phases: Liquid
Fixed: Temperature, K = 298.15
Fixed: Pressure, kPa = 100
Property: Refractive index (Na D-line) (Liquid); method: Standard Abbe refractometry
Mass fraction of N,N-diethylformamide	Refractive index (Na D-line)	uncertainty
0.009925	1.33379	0.00031
0.040002	1.33758	0.00031
0.069984	1.34136	0.00032
0.099192	1.34512	0.00032
0.129023	1.34898	0.00032
0.16004	1.35302	0.00032
0.189733	1.35684	0.00032
