Measured thermophysical data. High-Pressure Vapor[?]Liquid Equilibria of 1-Alkyl-1-Methylpyrrolidinium Bis(trifluoromethylsulfonyl)imide Ionic Liquids and CO2
Source: J. Chem. Eng. Data, 2019, 10.1021/acs.jced.8b01236
Compound 1: carbon dioxide, CO2, InChI=1S/CO2/c2-1-3, purity 99.999%
Compound 2: 1-hexyl-3-methylimidazolium bis[(trifluoromethyl)sulfonyl]imide, C12H19F6N3O4S2, InChI=1S/C10H19N2.C2F6NO4S2/c1-3-4-5-6-7-12-9-8-11(2)10-12;3-1(4,5)14(10,11)9-15(12,13)2(6,7)8/h8-10H,3-7H2,1-2H3;/q+1;-1, purity 99%
Compound 3: 1-methyl-1-propylpyrrolidinium bis[(trifluoromethyl)sulfonyl]imide, C10H18F6N2O4S2, InChI=1S/C8H18N.C2F6NO4S2/c1-3-6-9(2)7-4-5-8-9;3-1(4,5)14(10,11)9-15(12,13)2(6,7)8/h3-8H2,1-2H3;/q+1;-1, purity 99.5%
Compound 4: 1-butyl-1-methylpyrrolidinium bis[(trifluoromethyl)sulfonyl]imide, C11H20F6N2O4S2, InChI=1S/C9H20N.C2F6NO4S2/c1-3-4-7-10(2)8-5-6-9-10;3-1(4,5)14(10,11)9-15(12,13)2(6,7)8/h3-9H2,1-2H3;/q+1;-1, purity 99.5%
Compound 5: 1-hexyl-1-methylpyrrolidinium bis(trifluoromethanesulfonyl)imide, C13H24F6N2O4S2, InChI=1S/C11H24N.C2F6NO4S2/c1-3-4-5-6-9-12(2)10-7-8-11-12;3-1(4,5)14(10,11)9-15(12,13)2(6,7)8/h3-11H2,1-2H3;/q+1;-1, purity 99.5%

System: carbon dioxide + 1-hexyl-3-methylimidazolium bis[(trifluoromethyl)sulfonyl]imide; phases: Liquid, Gas
Property: Mole fraction of carbon dioxide (Liquid); method: Phase equilibration
Temperature, K	Pressure, kPa	Mole fraction of carbon dioxide	uncertainty
293.15	100	0.027	0.01
293.15	500	0.1563	0.0101
293.15	1000	0.2781	0.0101
293.15	2000	0.4552	0.0104
293.15	3000	0.5743	0.0103
293.15	4000	0.6596	0.0103
293.15	5000	0.7253	0.0101
297.4	10	0.0027	0.0027
297.4	50	0.0151	0.01
297.4	100	0.0301	0.01
297.4	390	0.1139	0.01
297.4	690	0.189	0.0101
297.4	990	0.256	0.0101
297.4	1280	0.3153	0.0102
297.4	1480	0.351	0.0102
297.4	1980	0.4291	0.0103
297.4	10	0.0017	0.0017
297.4	50	0.0143	0.01
297.4	100	0.0301	0.01
297.4	390	0.1166	0.01
297.4	690	0.1919	0.0101
297.4	990	0.2581	0.0101
297.4	1280	0.3165	0.0102
297.4	1480	0.3512	0.0102
297.4	1980	0.4285	0.0103
333.15	1018	0.1483	0.0196
333.15	2025	0.2653	0.0154
333.15	2515	0.2972	0.0142
333.15	3009	0.3424	0.0129
333.15	3510	0.3784	0.0121
333.15	4010	0.4098	0.0114
333.15	5108	0.4908	0.0098
333.15	6048	0.5459	0.0087
333.15	7502	0.5999	0.0087
333.15	10045	0.6871	0.0129
333.15	12479	0.7363	0.0105
333.15	14920	0.7444	0.007

System: carbon dioxide + 1-methyl-1-propylpyrrolidinium bis[(trifluoromethyl)sulfonyl]imide; phases: Liquid, Gas
Property: Mole fraction of carbon dioxide (Liquid); method: Phase equilibration
Temperature, K	Pressure, kPa	Mole fraction of carbon dioxide	uncertainty
298.15	25	0.0046	0.0046
298.16	50	0.0115	0.01
298.17	75	0.0186	0.01
298.14	100	0.0256	0.01
298.14	200	0.0524	0.01
298.16	400	0.1035	0.01
298.16	599.8	0.1502	0.01
298.16	800	0.1934	0.0101
298.16	1000.1	0.234	0.0101
298.15	1009	0.236	0.0224
298.14	1200.2	0.2717	0.0101
298.19	1400	0.3054	0.0102
298.14	1599.8	0.3384	0.0102
298.15	1800	0.3675	0.0102
298.17	2000	0.3955	0.0103
298.15	2028	0.389	0.016
298.15	3030	0.503	0.013
298.15	3507	0.553	0.009
298.15	4038	0.598	0.009
298.15	4517	0.632	0.007
298.15	5014	0.661	0.007
298.15	5505	0.688	0.006
298.15	6003	0.709	0.008
298.15	6397	0.725	0.014
318.14	25	0.008	0.008
318.15	50	0.0132	0.01
318.15	75	0.0187	0.01
318.16	100	0.0254	0.01
318.16	200	0.0448	0.01
318.15	400	0.0809	0.01
318.15	503.1	0.1039	0.01
318.15	600	0.1164	0.01
318.15	800	0.1489	0.01
318.17	1000	0.1815	0.0101
318.15	1006.5	0.1867	0.0101
318.15	1055	0.185	0.019
318.16	1200	0.21	0.0101
318.15	1400	0.2378	0.0101
318.15	1504.1	0.249	0.0101
318.14	1600	0.2636	0.0101
318.14	1800	0.2904	0.0101
318.15	2000	0.3116	0.0102
318.15	2000	0.3077	0.0102
318.15	2223	0.323	0.014
318.15	2997.9	0.401	0.0103
318.15	3998.9	0.4714	0.0104
318.15	4005	0.471	0.009
318.15	5000	0.5267	0.0104
318.15	5004	0.528	0.009
318.15	6004	0.575	0.008
318.15	7010	0.621	0.008
318.15	8010	0.664	0.01
318.15	9999	0.701	0.016
318.15	11991	0.713	0.01
318.15	16527	0.731	0.004
318.15	19966	0.751	0.008
338.15	25	0.0044	0.0044
338.15	50	0.0078	0.0078
338.15	75	0.0134	0.01
338.13	100	0.0202	0.01
338.16	200	0.0306	0.01
338.13	400	0.0587	0.01
338.14	600	0.0858	0.01
338.15	800	0.1113	0.01
338.16	1000	0.1356	0.01
338.15	1009	0.065	0.024
338.17	1200	0.1582	0.0101
338.17	1400	0.1812	0.0101
338.15	1600	0.2023	0.0101
338.16	1799.6	0.2241	0.0101
338.14	2000	0.2418	0.0101
338.15	2002	0.198	0.02
338.15	2508	0.249	0.014
338.15	3007	0.328	0.012
338.15	4008	0.413	0.012
338.15	4999	0.474	0.01
338.15	6006	0.536	0.01
338.15	7503	0.612	0.01

System: carbon dioxide + 1-methyl-1-propylpyrrolidinium bis[(trifluoromethyl)sulfonyl]imide; phases: Liquid
Property: Mass density, kg/m3 (Liquid); method: Pycnometric method
Temperature, K	Pressure, kPa	Mole fraction of carbon dioxide	Mass density, kg/m3	uncertainty
298.15	1009	0.236	1464	11
298.15	2028	0.389	1420	17
298.15	3030	0.503	1411	12
298.15	3507	0.553	1408	9
298.15	4038	0.598	1401	6
298.15	4517	0.632	1390	8
298.15	5014	0.661	1386	9
298.15	5505	0.688	1385	15
298.15	6003	0.709	1373	12
298.15	6397	0.725	1363	22
318.15	1055	0.185	1441	7
318.15	2223	0.323	1437	6
318.15	4005	0.471	1407	7
318.15	5004	0.528	1392	7
318.15	6004	0.575	1374	8
318.15	7010	0.621	1356	9
318.15	8010	0.664	1366	10
318.15	16527	0.731	1385	8
318.15	19966	0.751	1406	7
338.15	1009	0.065	1400	10
338.15	2002	0.198	1405	9
338.15	2508	0.249	1393	9
338.15	3007	0.328	1408	12
338.15	4008	0.413	1404	14
338.15	4999	0.474	1427	13
338.15	6006	0.536	1430	6
338.15	7503	0.612	1435	10

System: carbon dioxide + 1-methyl-1-propylpyrrolidinium bis[(trifluoromethyl)sulfonyl]imide; phases: Liquid, Gas
Property: Mole fraction of carbon dioxide (Liquid); method: Phase equilibration
Temperature, K	Pressure, kPa	Mole fraction of carbon dioxide	uncertainty
318.2	2000	0.3116	0.0102
318.1	1800	0.2891	0.0101
318.2	1600	0.2646	0.0101
318.2	1400	0.2398	0.0101
318.2	1200	0.2122	0.0101
318.2	1000	0.1838	0.0101
318.2	800	0.1532	0.01
318.2	600	0.121	0.01
318.2	400	0.0861	0.01
318.2	200	0.0491	0.01
318.2	100	0.0294	0.01
318.2	70	0.0204	0.01
318.2	50	0.0137	0.01
318.2	20	0.0083	0.0083

System: carbon dioxide + 1-methyl-1-propylpyrrolidinium bis[(trifluoromethyl)sulfonyl]imide; phases: Liquid
Property: Binary diffusion coefficient, m2/s (Liquid); method: Open capillary
Temperature, K	Pressure, kPa	Mole fraction of carbon dioxide	Binary diffusion coefficient, m2/s	uncertainty
298.15	100	0.2	1.3e-10	0.02
298.15	1000	0.2	1.8e-10	0.06
298.15	2000	0.2	2.4e-10	0.08
318.2	100	0.15	2.7e-10	0.02
318.2	1000	0.15	3e-10	0.06
318.2	2000	0.15	3.7e-10	0.16

System: carbon dioxide + 1-butyl-1-methylpyrrolidinium bis[(trifluoromethyl)sulfonyl]imide; phases: Liquid, Gas
Property: Mole fraction of carbon dioxide (Liquid); method: Phase equilibration
Temperature, K	Pressure, kPa	Mole fraction of carbon dioxide	uncertainty
298.15	25	0.008	0.008
298.15	50	0.0155	0.01
298.15	75	0.0226	0.01
298.15	100	0.0295	0.01
298.14	200	0.0563	0.01
298.15	400.1	0.1073	0.01
298.16	600	0.1548	0.01
298.15	799.9	0.1982	0.0101
298.16	999.8	0.2384	0.0101
298.15	996	0.199	0.022
298.15	1200.1	0.2755	0.0101
298.16	1400.2	0.3104	0.0102
298.15	1600	0.3448	0.0102
298.15	1800.1	0.3736	0.0102
298.15	2000	0.402	0.0103
298.15	1997	0.379	0.016
298.15	2502	0.449	0.01
298.15	3031	0.51	0.008
298.15	3511	0.559	0.008
298.15	4013	0.602	0.006
298.15	4504	0.638	0.006
298.15	5002	0.674	0.006
298.15	5512	0.702	0.006
298.15	6040	0.728	0.008
298.15	6378	0.745	0.01
318.15	25	0.0076	0.0076
318.15	50	0.0116	0.01
318.15	75	0.0156	0.01
318.16	100	0.0198	0.01
318.15	200.1	0.0389	0.01
318.15	399.9	0.0757	0.01
318.16	600.1	0.1118	0.01
318.15	800	0.1455	0.01
318.15	1000	0.1772	0.0101
318.15	1005	0.156	0.024
318.15	1200	0.2074	0.0101
318.15	1399.9	0.2353	0.0101
318.15	1600.1	0.2624	0.0101
318.15	1800	0.288	0.0101
318.16	2000	0.3122	0.0102
318.15	2046	0.311	0.02
318.15	3019	0.436	0.014
318.15	4000	0.528	0.01
318.15	6033	0.638	0.012
318.15	8002	0.714	0.012
318.15	10004	0.776	0.01
318.15	11989	0.804	0.006
318.15	13991	0.817	0.004
318.15	15999	0.828	0.002
318.15	19894	0.843	0.002
338.16	25	0.006	0.006
338.15	50	0.0077	0.0077
338.15	75	0.0101	0.01
338.15	100	0.0149	0.01
338.14	199.9	0.0284	0.01
338.15	400.1	0.0555	0.01
338.15	600	0.082	0.01
338.15	799.9	0.1077	0.01
338.13	999.3	0.1339	0.01
338.15	1019	0.123	0.024
338.16	1199.9	0.1572	0.01
338.17	1400.1	0.1812	0.0101
338.16	1600	0.2022	0.0101
338.16	1799.9	0.2242	0.0101
338.17	2000	0.2436	0.0101
338.15	2011	0.23	0.204
338.15	2520	0.301	0.014
338.15	3004	0.345	0.014
338.15	4000	0.435	0.012
338.15	5007	0.495	0.012
338.15	6020	0.537	0.01
338.15	7504	0.606	0.008
338.15	10012	0.682	0.012
338.15	12486	0.712	0.012
338.15	14895	0.728	0.008

System: carbon dioxide + 1-butyl-1-methylpyrrolidinium bis[(trifluoromethyl)sulfonyl]imide; phases: Liquid
Property: Mass density, kg/m3 (Liquid); method: Pycnometric method
Temperature, K	Pressure, kPa	Mole fraction of carbon dioxide	Mass density, kg/m3	uncertainty
298.15	996	0.199	1385	7
298.15	1997	0.379	1377	6
298.15	2502	0.449	1371	6
298.15	3031	0.51	1361	6
298.15	3511	0.559	1351	6
298.15	4013	0.602	1348	6
298.15	4504	0.638	1345	6
298.15	5002	0.674	1339	6
298.15	5512	0.702	1336	8
298.15	6040	0.728	1326	10
298.15	6378	0.745	1330	18
318.15	1005	0.156	1387	7
318.15	2046	0.311	1391	7
318.15	3019	0.436	1389	6
318.15	4000	0.528	1397	8
318.15	6033	0.638	1380	12
318.15	8002	0.714	1378	18
338.15	1019	0.123	1368	7
338.15	2011	0.23	1358	28
338.15	2520	0.301	1369	6
338.15	3004	0.345	1369	6
338.15	4000	0.435	1371	6
338.15	5007	0.495	1380	8
338.15	6020	0.537	1357	8
338.15	7504	0.606	1348	8
338.15	10012	0.682	1349	16
338.15	12486	0.712	1384	18
338.15	14895	0.728	1387	12

System: carbon dioxide + 1-butyl-1-methylpyrrolidinium bis[(trifluoromethyl)sulfonyl]imide; phases: Liquid, Gas
Fixed: Temperature, K = 318.2
Property: Mole fraction of carbon dioxide (Liquid); method: Phase equilibration
Pressure, kPa	Mole fraction of carbon dioxide	uncertainty
2000	0.3122	0.0102
1800	0.2887	0.0101
1600	0.264	0.0101
1400	0.238	0.0101
1200	0.2102	0.0101
1000	0.181	0.0101
800	0.1516	0.01
600	0.1182	0.01
400	0.0831	0.01
200	0.0445	0.01
100	0.0241	0.01
70	0.0196	0.01
50	0.0147	0.01
30	0.01	0.01

System: carbon dioxide + 1-butyl-1-methylpyrrolidinium bis[(trifluoromethyl)sulfonyl]imide; phases: Liquid
Property: Binary diffusion coefficient, m2/s (Liquid); method: Open capillary
Temperature, K	Pressure, kPa	Mole fraction of carbon dioxide	Binary diffusion coefficient, m2/s	uncertainty
298.15	100	0.2	1.3e-10	0.02
298.15	1000	0.2	1.6e-10	0.04
298.15	2000	0.2	3e-10	0.18
318.2	100	0.15	2.2e-10	0.02
318.2	1000	0.15	2.9e-10	0.06
318.2	2000	0.15	3.3e-10	0.14

System: carbon dioxide + 1-hexyl-1-methylpyrrolidinium bis(trifluoromethanesulfonyl)imide; phases: Liquid, Gas
Property: Mole fraction of carbon dioxide (Liquid); method: Phase equilibration
Temperature, K	Pressure, kPa	Mole fraction of carbon dioxide	uncertainty
298.16	25	0.0063	0.0063
298.16	50	0.014	0.01
298.16	75	0.0217	0.01
298.14	100	0.0293	0.01
298.15	200	0.0584	0.01
298.15	400	0.1129	0.01
298.15	600	0.163	0.0101
298.15	800	0.2087	0.0101
298.14	1000	0.2507	0.0101
298.15	1004	0.236	0.026
298.15	1200	0.2896	0.0101
298.15	1400	0.3255	0.0102
298.16	1600	0.3589	0.0102
298.15	1800	0.3899	0.0102
298.14	2000	0.4189	0.0103
298.15	2030	0.403	0.021
298.15	2493	0.484	0.013
298.15	3003	0.531	0.011
298.15	3496	0.577	0.011
298.15	3999	0.614	0.009
298.15	4496	0.653	0.008
298.15	4998	0.683	0.008
298.15	5521	0.716	0.008
298.15	5995	0.738	0.008
298.15	6387	0.751	0.014
318.15	25	0.0082	0.0082
318.14	50	0.0136	0.01
318.15	75	0.02	0.01
318.15	100	0.0267	0.01
318.14	200	0.0478	0.01
318.16	400	0.0879	0.01
318.14	600	0.1249	0.01
318.16	800	0.1612	0.01
318.15	999.9	0.1951	0.0101
318.15	1005	0.179	0.028
318.14	1199.9	0.2253	0.0101
318.16	1400.1	0.2555	0.0101
318.14	1600	0.2838	0.0101
318.17	1800.2	0.3085	0.0102
318.14	2000	0.333	0.0102
318.15	2021	0.315	0.022
318.15	2513	0.366	0.016
318.15	2996	0.416	0.014
318.15	4039	0.515	0.014
318.15	6032	0.632	0.014
318.15	7998	0.72	0.014
318.15	9884	0.783	0.02
318.15	12546	0.851	0.004
318.15	14948	0.87	0.002
338.16	25	0.0046	0.0046
338.16	50	0.0086	0.0086
338.16	75	0.0161	0.01
338.16	100	0.0218	0.01
338.15	200	0.0348	0.01
338.13	400	0.0644	0.01
338.15	600	0.0945	0.01
338.15	800	0.1223	0.01
338.16	1000	0.149	0.01
338.15	1001	0.118	0.028
338.15	1200	0.1739	0.0101
338.17	1400	0.1978	0.0101
338.18	1600.1	0.2201	0.0101
338.12	1800	0.2424	0.0101
338.15	2000	0.2637	0.0101
338.15	2028	0.264	0.024
338.15	2537	0.293	0.018
338.15	3030	0.346	0.016
338.15	4022	0.443	0.014
338.15	5027	0.508	0.012
338.15	6014	0.561	0.01
338.15	7501	0.637	0.008
338.15	10006	0.706	0.012
338.15	12478	0.752	0.01
338.15	14944	0.771	0.006

System: carbon dioxide + 1-hexyl-1-methylpyrrolidinium bis(trifluoromethanesulfonyl)imide; phases: Liquid
Property: Mass density, kg/m3 (Liquid); method: Pycnometric method
Temperature, K	Pressure, kPa	Mole fraction of carbon dioxide	Mass density, kg/m3	uncertainty
298.15	1004	0.236	1360	9
298.15	2030	0.403	1354	8
298.15	2493	0.484	1343	6
298.15	3003	0.531	1345	6
298.15	3496	0.577	1336	8
298.15	3999	0.614	1324	8
298.15	4496	0.653	1308	8
298.15	4998	0.683	1299	8
298.15	5521	0.716	1294	10
298.15	5995	0.738	1281	12
298.15	6387	0.751	1263	22
318.15	1005	0.179	1346	7
318.15	2021	0.315	1332	7
318.15	2513	0.366	1315	6
318.15	2996	0.416	1323	6
318.15	4039	0.515	1311	8
318.15	6032	0.632	1301	12
318.15	7998	0.72	1291	20
318.15	9884	0.783	1345	44
338.15	1001	0.118	1307	7
338.15	2028	0.264	1315	7
338.15	2537	0.293	1311	7
338.15	3030	0.346	1310	6
338.15	4022	0.443	1313	6
338.15	5027	0.508	1311	8
338.15	6014	0.561	1307	8
338.15	7501	0.637	1310	8
338.15	10006	0.706	1319	16
338.15	12478	0.752	1325	18
338.15	14944	0.771	1341	12

System: carbon dioxide + 1-hexyl-1-methylpyrrolidinium bis(trifluoromethanesulfonyl)imide; phases: Liquid, Gas
Property: Mole fraction of carbon dioxide (Liquid); method: Phase equilibration
Temperature, K	Pressure, kPa	Mole fraction of carbon dioxide	uncertainty
318.1	1800	0.3085	0.0102
318.2	1600	0.2852	0.0102
318.2	1400	0.2573	0.0101
318.1	1200	0.2283	0.0101
318.2	1000	0.1981	0.0101
318.1	800	0.1649	0.0101
318.1	600	0.1295	0.01
318.1	400	0.0911	0.01
318.2	200	0.0514	0.0101
318.1	100	0.0296	0.0101
318.2	80	0.0196	0.01
318.2	50	0.0132	0.0101
318.2	30	0.0072	0.0072

System: carbon dioxide + 1-hexyl-1-methylpyrrolidinium bis(trifluoromethanesulfonyl)imide; phases: Liquid
Property: Binary diffusion coefficient, m2/s (Liquid); method: Open capillary
Temperature, K	Pressure, kPa	Mole fraction of carbon dioxide	Binary diffusion coefficient, m2/s	uncertainty
298.15	100	0.2	1.6e-10	0.02
298.15	1000	0.2	2.4e-10	0.06
298.15	2000	0.2	4e-10	0.22
318.2	100	0.15	2.3e-10	0.02
318.2	1000	0.15	3.8e-10	0.08
318.2	1800	0.15	3.8e-10	0.14
