Measured thermophysical data. Thermal Properties of Choline Chloride/Urea System Studied under Moisture-Free Atmosphere
Source: J. Chem. Eng. Data, 2019, 10.1021/acs.jced.9b00474
Compound 1: choline chloride, C5H14ClNO, InChI=1S/C5H14NO.ClH/c1-6(2,3)4-5-7;/h7H,4-5H2,1-3H3;1H/q+1;/p-1, purity 98%
Compound 2: urea, CH4N2O, InChI=1S/CH4N2O/c2-1(3)4/h(H4,2,3,4), purity 99%

System: choline chloride; phases: Crystal 2, Crystal 1, Air at 1 atmosphere
Property: Triple point temperature, K (Crystal 2); method: VISOBS
Triple point temperature, K	uncertainty
351.62	3.02

System: choline chloride; phases: Crystal 2, Crystal 1, Air at 1 atmosphere
Property: Molar enthalpy of transition or fusion, kJ/mol (Crystal 2); method: DSC
Molar enthalpy of transition or fusion, kJ/mol	uncertainty
7.323252575	0.300190525

System: choline chloride + urea; phases: Liquid, Crystal 2, Crystal
Property: Eutectic temperature, K (Liquid); method: visual
Pressure, kPa	Eutectic temperature, K	uncertainty
100	305.3	3

System: choline chloride + urea; phases: Liquid, Crystal
Fixed: Pressure, kPa = 100
Property: Solid-liquid equilibrium temperature, K (Liquid); method: VISOBS
Mole fraction of choline chloride	Solid-liquid equilibrium temperature, K	uncertainty
0.101	398.25	3.01
0.203	376.95	3.01
0.301	350.75	3.02

System: choline chloride + urea; phases: Liquid, Crystal 2
Fixed: Pressure, kPa = 100
Property: Solid-liquid equilibrium temperature, K (Liquid); method: VISOBS
Mole fraction of choline chloride	Solid-liquid equilibrium temperature, K	uncertainty
0.352	314.55	3.05
0.403	341.75	3.05

System: choline chloride + urea; phases: Liquid
Fixed: Pressure, kPa = 100
Fixed: Mole fraction of choline chloride = 0.334
Property: Viscosity, Pa*s (Liquid); method: Cone and plate viscometry
Temperature, K	Viscosity, Pa*s	uncertainty
293.25	2.11	0.21
299.45	1.286	0.121
305.85	0.725	0.064
312.15	0.432	0.036
318.35	0.265	0.021
324.55	0.17	0.013
330.95	0.116	0.008
337.15	0.083	0.006
343.35	0.061	0.004
349.55	0.046	0.003
355.85	0.036	0.003
362.05	0.027	0.002
368.25	0.021	0.002

System: choline chloride + urea; phases: Liquid
Fixed: Pressure, kPa = 100
Fixed: Mole fraction of choline chloride = 0.334
Property: Mass density, kg/m3 (Liquid); method: Vibrating tube method
Temperature, K	Mass density, kg/m3	uncertainty
293.15	1203	1
303.15	1197	1
313.15	1192	1
323.15	1186	1
333.15	1180	1
343.15	1175	1
353.15	1170	1
363.15	1164	1
