Measured thermophysical data. Measurements of Vapor Pressure and Saturated Liquid Density for HFO-1234ze(E) and HFO-1234ze(Z)
Source: J. Chem. Eng. Data, 2016, 10.1021/acs.jced.5b01039
Compound 1: trans-1,3,3,3-tetrafluoropropene, C3H2F4, InChI=1S/C3H2F4/c4-2-1-3(5,6)7/h1-2H/b2-1+, purity 99.9%
Compound 2: (Z)-1,3,3,3-tetrafluoro-1-propene, C3H2F4, InChI=1S/C3H2F4/c4-2-1-3(5,6)7/h1-2H/b2-1-, purity 99.936%

System: trans-1,3,3,3-tetrafluoropropene; phases: Liquid, Gas
Property: Vapor or sublimation pressure, kPa (Liquid); method: Closed cell (Static) method
Temperature, K	Vapor or sublimation pressure, kPa	uncertainty
300	526.8	1.4
300	526.6	1.4
310	703.2	1.6
310	702.4	1.6
320	919.6	2
320	919	2
330	1182.6	2.5
330	1182.3	2.5
340	1498.4	3
340	1498.6	3
350	1874	3.7
350	1874.1	3.7
360	2318	4.5
360	2319.2	4.5
370	2841.4	5.5
370	2842.7	5.5
380	3460	6.4
380	3461.5	6.4

System: trans-1,3,3,3-tetrafluoropropene; phases: Liquid, Gas
Property: Mass density, kg/m3 (Liquid); method: Pycnometric method
Temperature, K	Mass density, kg/m3	uncertainty
300	1157.7	1
300	1158	1
310	1122.8	1
310	1122.8	1
320	1085.1	1
320	1085.1	1
330	1045.3	1
330	1044.7	1
340	1000.9	1
340	1001.5	1
350	950.3	1.1
350	950.6	1.1
360	889.8	1.1
360	889.8	1.1
370	810.1	1.3
370	810.1	1.3
380	668.8	1.5
380	670.4	1.5

System: (Z)-1,3,3,3-tetrafluoro-1-propene; phases: Liquid, Gas
Property: Vapor or sublimation pressure, kPa (Liquid); method: Closed cell (Static) method
Temperature, K	Vapor or sublimation pressure, kPa	uncertainty
300	185.9	0.8
300	186.4	0.8
310	260.4	0.9
310	260.6	0.9
320	355.3	1
320	355.1	1
330	473.3	1.2
330	473.5	1.2
340	619	1.4
340	619.2	1.4
350	795.2	1.7
350	794.7	1.7
360	1007.3	2
360	1007.3	2
370	1258.9	2.5
370	1258.7	2.5
380	1554.1	3
380	1556.9	3
390	1903.6	3.6
390	1903.7	3.6
400	2308.3	4.2
400	2308.8	4.2

System: (Z)-1,3,3,3-tetrafluoro-1-propene; phases: Liquid, Gas
Property: Mass density, kg/m3 (Liquid); method: Pycnometric method
Temperature, K	Mass density, kg/m3	uncertainty
300	1218.6	1
300	1219.2	1
310	1191.2	1
310	1191.2	1
320	1162	1
320	1163.5	1
330	1132.5	1
330	1131.5	1
340	1100.2	1
340	1101.7	1
350	1066.1	1
350	1067.3	1
360	1032.6	1
360	1032.3	1
370	993	1
370	993.3	1
380	951.5	1
380	949.7	1
390	900.5	1.1
390	901.4	1.1
400	843.9	1.1
400	843.6	1.1
