Measured thermophysical data. Liquid and Vapor Viscosities of Binary Refrigerant Mixtures Containing R1234yf or R1234ze(E)
Source: J. Chem. Eng. Data, 2019, 10.1021/acs.jced.8b01039
Compound 1: pentafluoroethane, C2HF5, InChI=1S/C2HF5/c3-1(4)2(5,6)7/h1H, purity 99.5%
Compound 2: 1,1,1-trifluoroethane, C2H3F3, InChI=1S/C2H3F3/c1-2(3,4)5/h1H3, purity 99.5%
Compound 3: 1,1-difluoroethane, C2H4F2, InChI=1S/C2H4F2/c1-2(3)4/h2H,1H3, purity 99.5%
Compound 4: 2,3,3,3-tetrafluoro-1-propene, C3H2F4, InChI=1S/C3H2F4/c1-2(4)3(5,6)7/h1H2, purity 99.5%
Compound 5: trans-1,3,3,3-tetrafluoropropene, C3H2F4, InChI=1S/C3H2F4/c4-2-1-3(5,6)7/h1-2H/b2-1+, purity 99.5%

System: pentafluoroethane; phases: Gas
Fixed: Temperature, K = 333.2
Property: Viscosity, Pa*s (Gas); method: Vibrating wire viscometry
Pressure, kPa	Viscosity, Pa*s	uncertainty
1300	1.17e-05	1.4e-06
1010	1.17e-05	1.4e-06
810	1.16e-05	1.4e-06
630	1.16e-05	1.4e-06

System: pentafluoroethane; phases: Liquid
Property: Viscosity, Pa*s (Liquid); method: Vibrating wire viscometry
Pressure, kPa	Temperature, K	Viscosity, Pa*s	uncertainty
1440	273.2	0.0002154	2.2e-05
3260	273.2	0.00022	2.24e-05
4880	273.2	0.000224	2.28e-05
6650	273.2	0.0002283	2.33e-05
8370	273.2	0.0002323	2.36e-05
10120	273.2	0.0002364	2.41e-05
11770	273.2	0.0002403	2.44e-05
13330	273.2	0.0002438	2.48e-05
1680	293.3	0.0001739	1.79e-05
4160	293.3	0.0001801	1.85e-05
6420	293.3	0.0001854	1.9e-05
8490	293.3	0.0001902	1.95e-05
10920	293.3	0.0001952	2e-05
13210	293.3	0.0002004	2.05e-05
15530	293.3	0.0002052	2.1e-05
17700	293.3	0.0002097	2.14e-05
1960	313.2	0.00014	1.46e-05
3810	313.2	0.0001447	1.5e-05
5550	313.2	0.0001487	1.54e-05
7210	313.2	0.0001525	1.58e-05
9450	313.2	0.0001576	1.63e-05
11270	313.2	0.0001616	1.67e-05
13140	313.2	0.0001653	1.7e-05

System: pentafluoroethane + 1,1-difluoroethane; phases: Gas
Fixed: Mole fraction of pentafluoroethane = 0.5
Property: Viscosity, Pa*s (Gas); method: Vibrating wire viscometry
Pressure, kPa	Temperature, K	Viscosity, Pa*s	uncertainty
3130	383.2	1.65e-05	1.8e-06
2780	363.2	1.57e-05	1.8e-06
2010	363.2	1.47e-05	1.7e-06
1800	343.2	1.4e-05	1.6e-06
1090	343.2	1.32e-05	1.5e-06
990	323.2	1.24e-05	1.5e-06

System: pentafluoroethane + 1,1-difluoroethane; phases: Liquid
Fixed: Mole fraction of pentafluoroethane = 0.5
Property: Viscosity, Pa*s (Liquid); method: Vibrating wire viscometry
Pressure, kPa	Temperature, K	Viscosity, Pa*s	uncertainty
1200	294.3	0.0001676	1.73e-05
1500	294.3	0.0001688	1.74e-05
2000	294.3	0.0001704	1.75e-05
3000	294.3	0.0001737	1.79e-05
4000	294.3	0.0001777	1.83e-05
1510	274.5	0.0002181	2.22e-05
2000	274.5	0.0002198	2.24e-05
2510	274.5	0.000222	2.26e-05
3020	274.5	0.0002233	2.28e-05
4010	274.5	0.0002261	2.3e-05
1510	263.1	0.0002558	2.6e-05
2010	263.1	0.0002574	2.61e-05
2510	263.1	0.0002593	2.63e-05
3020	263.1	0.0002612	2.65e-05
4010	263.1	0.0002643	2.68e-05
1020	252.1	0.0002923	2.96e-05
2000	252.1	0.0002944	2.98e-05
2500	252.1	0.0002966	3e-05
3000	252.1	0.000299	3.03e-05
4000	252.1	0.0003024	3.06e-05

System: pentafluoroethane + trans-1,3,3,3-tetrafluoropropene; phases: Gas
Fixed: Mole fraction of pentafluoroethane = 0.4933
Property: Viscosity, Pa*s (Gas); method: Vibrating wire viscometry
Pressure, kPa	Temperature, K	Viscosity, Pa*s	uncertainty
3110	383.2	1.82e-05	2e-06
2770	363.2	1.73e-05	1.9e-06
1960	363.2	1.6e-05	1.8e-06
1770	343.2	1.49e-05	1.7e-06
1060	343.2	1.43e-05	1.6e-06
960	323.2	1.33e-05	1.6e-06

System: pentafluoroethane + trans-1,3,3,3-tetrafluoropropene; phases: Liquid
Fixed: Mole fraction of pentafluoroethane = 0.4933
Property: Viscosity, Pa*s (Liquid); method: Vibrating wire viscometry
Pressure, kPa	Temperature, K	Viscosity, Pa*s	uncertainty
1240	294.2	0.0001821	1.87e-05
2000	294.2	0.0001861	1.91e-05
3010	294.2	0.0001906	1.95e-05
1290	273.2	0.0002388	2.43e-05
1990	273.2	0.0002407	2.45e-05
3010	273.2	0.0002451	2.49e-05
2010	252.3	0.0003181	3.22e-05
3020	252.3	0.0003224	3.26e-05

System: 1,1,1-trifluoroethane + trans-1,3,3,3-tetrafluoropropene; phases: Gas
Fixed: Mole fraction of 1,1,1-trifluoroethane = 0.5
Property: Viscosity, Pa*s (Gas); method: Vibrating wire viscometry
Pressure, kPa	Temperature, K	Viscosity, Pa*s	uncertainty
3040	383.2	1.62e-05	1.8e-06
2720	363.2	1.55e-05	1.8e-06
2120	363.2	1.46e-05	1.7e-06
1910	346.2	1.37e-05	1.6e-06
1080	346.2	1.31e-05	1.5e-06
970	323.2	1.23e-05	1.5e-06

System: 1,1,1-trifluoroethane + trans-1,3,3,3-tetrafluoropropene; phases: Liquid
Fixed: Mole fraction of 1,1,1-trifluoroethane = 0.5
Property: Viscosity, Pa*s (Liquid); method: Vibrating wire viscometry
Pressure, kPa	Temperature, K	Viscosity, Pa*s	uncertainty
1130	293.2	0.0001573	1.63e-05
2080	293.2	0.0001612	1.66e-05
3090	293.2	0.0001652	1.7e-05
1070	273.2	0.0002044	2.09e-05
2060	273.2	0.000208	2.12e-05
3130	273.2	0.0002113	2.16e-05
1030	252.3	0.0002653	2.69e-05
2020	252.3	0.0002688	2.73e-05
3090	252.3	0.0002721	2.76e-05

System: 1,1,1-trifluoroethane + 2,3,3,3-tetrafluoro-1-propene; phases: Gas
Fixed: Mole fraction of 1,1,1-trifluoroethane = 0.5
Property: Viscosity, Pa*s (Gas); method: Vibrating wire viscometry
Pressure, kPa	Temperature, K	Viscosity, Pa*s	uncertainty
3070	383.2	1.68e-05	1.9e-06
2750	363.2	1.6e-05	1.8e-06
2040	363.2	1.49e-05	1.7e-06
1840	343.2	1.4e-05	1.6e-06
1060	343.2	1.33e-05	1.6e-06
970	323.2	1.24e-05	1.5e-06

System: 1,1,1-trifluoroethane + 2,3,3,3-tetrafluoro-1-propene; phases: Liquid
Fixed: Mole fraction of 1,1,1-trifluoroethane = 0.5
Property: Viscosity, Pa*s (Liquid); method: Vibrating wire viscometry
Pressure, kPa	Temperature, K	Viscosity, Pa*s	uncertainty
1250	294.4	0.0001424	1.48e-05
2010	294.4	0.0001453	1.51e-05
2510	294.4	0.0001469	1.52e-05
3020	294.4	0.0001482	1.54e-05
910	273.2	0.0001824	1.87e-05
2010	273.2	0.0001859	1.91e-05
2500	273.2	0.000187	1.92e-05
3000	273.2	0.0001888	1.94e-05
2010	252.1	0.0002421	2.46e-05
2520	252.1	0.0002439	2.48e-05
3030	252.1	0.0002451	2.49e-05

System: trans-1,3,3,3-tetrafluoropropene + 2,3,3,3-tetrafluoro-1-propene; phases: Gas
Fixed: Mole fraction of trans-1,3,3,3-tetrafluoropropene = 0.5
Property: Viscosity, Pa*s (Gas); method: Vibrating wire viscometry
Pressure, kPa	Temperature, K	Viscosity, Pa*s	uncertainty
3020	403.2	1.75e-05	1.9e-06
2700	388.2	1.68e-05	1.9e-06
1910	388.2	1.56e-05	1.8e-06
1710	368.2	1.48e-05	1.7e-06
1050	368.2	1.39e-05	1.6e-06
950	348.2	1.32e-05	1.5e-06

System: trans-1,3,3,3-tetrafluoropropene + 2,3,3,3-tetrafluoro-1-propene; phases: Liquid
Fixed: Mole fraction of trans-1,3,3,3-tetrafluoropropene = 0.5
Property: Viscosity, Pa*s (Liquid); method: Vibrating wire viscometry
Pressure, kPa	Temperature, K	Viscosity, Pa*s	uncertainty
1010	294.2	0.000179	1.84e-05
1980	294.2	0.0001824	1.87e-05
3000	294.2	0.0001858	1.91e-05
1000	273.2	0.0002271	2.31e-05
1960	273.2	0.0002316	2.36e-05
2980	273.2	0.0002352	2.39e-05
1000	252.3	0.0002935	2.97e-05
2010	252.3	0.0002969	3.01e-05
3020	252.3	0.0003004	3.04e-05
