Measured thermophysical data. Dilute Vapor Absorption: A New Accurate Technique for Measurement of the Limiting Activity Coefficient of Water in Hydrophobic Solvents of Lower Volatility
Source: J. Chem. Eng. Data, 2017, 10.1021/acs.jced.7b00114
Compound 1: trichloroethene, C2HCl3, InChI=1S/C2HCl3/c3-1-2(4)5/h1H, purity 99.5%
Compound 2: toluene, C7H8, InChI=1S/C7H8/c1-7-5-3-2-4-6-7/h2-6H,1H3, purity 99.5%
Compound 3: anisole, C7H8O, InChI=1S/C7H8O/c1-8-7-5-3-2-4-6-7/h2-6H,1H3, purity 99.7%
Compound 4: ethoxybenzene, C8H10O, InChI=1S/C8H10O/c1-2-9-8-6-4-3-5-7-8/h3-7H,2H2,1H3, purity 99%
Compound 5: 1-bromo-4-methoxybenzene, C7H7BrO, InChI=1S/C7H7BrO/c1-9-7-4-2-6(8)3-5-7/h2-5H,1H3, purity 99%
Compound 6: (trifluoromethyl)benzene, C7H5F3, InChI=1S/C7H5F3/c8-7(9,10)6-4-2-1-3-5-6/h1-5H, purity 99%
Compound 7: chlorobenzene, C6H5Cl, InChI=1S/C6H5Cl/c7-6-4-2-1-3-5-6/h1-5H, purity 99.5%
Compound 8: bromobenzene, C6H5Br, InChI=1S/C6H5Br/c7-6-4-2-1-3-5-6/h1-5H, purity 99.5%
Compound 9: water, H2O, InChI=1S/H2O/h1H2, purity 99.9%

System: trichloroethene + water; phases: Liquid
Fixed: Pressure, kPa = 99
Fixed: Mole fraction of water = 0
Property: Activity coefficient of water (Liquid); method: Chemical equilibration / Heterogeneous equilibration
Temperature, K	Activity coefficient of water	uncertainty
278.15	1200	126
283.15	978	102
288.15	806	84
293.15	663	69
298.15	524	54
303.15	441	45

System: toluene + water; phases: Liquid
Fixed: Mole fraction of water = 0
Fixed: Pressure, kPa = 100
Property: Activity coefficient of water (Liquid); method: Chemical equilibration / Heterogeneous equilibration
Temperature, K	Activity coefficient of water	uncertainty
283.15	620	57
293.15	423	39
303.15	300	27
313.15	214	19
318.15	184	16
323.15	155	14

System: anisole + water; phases: Liquid
Fixed: Mole fraction of water = 0
Fixed: Pressure, kPa = 100
Property: Activity coefficient of water (Liquid); method: Chemical equilibration / Heterogeneous equilibration
Temperature, K	Activity coefficient of water	uncertainty
298.15	95.3	8.3
303.15	84.4	7.3
308.15	75.8	6.6
313.15	68.8	6
318.15	61.7	5.3
323.15	55.9	4.8
328.15	50	4.3

System: ethoxybenzene + water; phases: Liquid
Fixed: Mole fraction of water = 0
Fixed: Pressure, kPa = 100
Property: Activity coefficient of water (Liquid); method: Chemical equilibration / Heterogeneous equilibration
Temperature, K	Activity coefficient of water	uncertainty
298.15	110	9.6
303.15	97	8.5
308.15	87.3	7.6
313.15	77.7	6.8
318.15	69.9	6.1
323.15	62.7	5.4

System: 1-bromo-4-methoxybenzene + water; phases: Liquid
Fixed: Mole fraction of water = 0
Fixed: Pressure, kPa = 100
Property: Activity coefficient of water (Liquid); method: Chemical equilibration / Heterogeneous equilibration
Temperature, K	Activity coefficient of water	uncertainty
298.15	119.2	10.5
303.15	105.9	9.3
308.15	93.7	8.2
313.15	83.3	7.3
318.15	74.1	6.4
323.15	65.5	5.7

System: (trifluoromethyl)benzene + water; phases: Liquid
Fixed: Mole fraction of water = 0
Fixed: Pressure, kPa = 100
Property: Activity coefficient of water (Liquid); method: Chemical equilibration / Heterogeneous equilibration
Temperature, K	Activity coefficient of water	uncertainty
298.15	362	33
303.15	302	27
308.15	256	23
313.15	218	20
318.15	181	16
323.15	155	14

System: chlorobenzene + water; phases: Liquid
Fixed: Mole fraction of water = 0
Fixed: Pressure, kPa = 100
Property: Activity coefficient of water (Liquid); method: Chemical equilibration / Heterogeneous equilibration
Temperature, K	Activity coefficient of water	uncertainty
298.15	376	34
303.15	318	29
308.15	271	24
313.15	235	21
318.15	202	18
323.15	177	16

System: bromobenzene + water; phases: Liquid
Fixed: Mole fraction of water = 0
Fixed: Pressure, kPa = 100
Property: Activity coefficient of water (Liquid); method: Chemical equilibration / Heterogeneous equilibration
Temperature, K	Activity coefficient of water	uncertainty
298.15	367	33
303.15	311	28
308.15	264	24
313.15	226	20
318.15	189	17
323.15	164	15
