Measured thermophysical data. NH3 Solubilities and Physical Properties of Ethylamine Hydrochloride Plus Urea Deep Eutectic Solvents
Source: J. Chem. Eng. Data, 2019, 10.1021/acs.jced.9b00246
Compound 1: ammonia, H3N, InChI=1S/H3N/h1H3, purity 99.99%
Compound 2: ethylammonium chloride, C2H8ClN, InChI=1S/C2H7N.ClH/c1-2-3;/h2-3H2,1H3;1H, purity 98%
Compound 3: urea, CH4N2O, InChI=1S/CH4N2O/c2-1(3)4/h(H4,2,3,4), purity 98%

System: ammonia + ethylammonium chloride + urea; phases: Liquid, Gas
Property: Molality, mol/kg of ammonia (Liquid); method: phase equilibration
Solvent: Amount ratio of component to other component of binary solvent of urea	Temperature, K	Pressure, kPa	Molality, mol/kg of ammonia	uncertainty
0.5	313.2	8.5	0.518	0.167
0.5	313.2	44.5	2.52	0.145
0.5	313.2	98.5	4.396	0.134
0.5	313.2	146.8	5.939	0.137
0.5	313.2	201	7.674	0.145
0.5	313.2	248.9	9.401	0.153
0.5	313.2	301.7	11.022	0.162
0.5	323.2	13	0.66	0.138
0.5	323.2	57	2.247	0.126
0.5	323.2	107.5	3.57	0.121
0.5	323.2	152.2	4.613	0.122
0.5	323.2	199.9	5.683	0.127
0.5	323.2	248.9	6.815	0.136
0.5	323.2	299.2	8.049	0.151
0.5	333.2	20.8	0.448	0.115
0.5	333.2	49.9	1.205	0.115
0.5	333.2	100.3	2.257	0.113
0.5	333.2	155	3.238	0.112
0.5	333.2	201.5	3.987	0.113
0.5	333.2	249.2	4.727	0.117
0.5	333.2	299.3	5.542	0.128
0.5	343.2	16.3	0.345	0.108
0.5	343.2	50.5	0.914	0.093
0.5	343.2	100.6	1.585	0.108
0.5	343.2	148	2.441	0.111
0.5	343.2	204.7	3.176	0.111
0.5	343.2	250.6	3.714	0.113
0.5	343.2	301.5	4.348	0.119
0.5	353.2	22.3	0.394	0.106
0.5	353.2	51.3	0.822	0.105
0.5	353.2	101.2	1.47	0.105
0.5	353.2	151	2.068	0.105
0.5	353.2	204	2.61	0.105
0.5	353.2	249.3	3.075	0.105
0.5	353.2	301.2	3.554	0.106
1	313.2	9.5	0.647	0.156
1	313.2	56.8	2.958	0.147
1	313.2	99.1	4.573	0.138
1	313.2	151	6.322	0.137
1	313.2	200.5	7.798	0.14
1	313.2	248.1	9.116	0.147
1	313.2	300.6	10.511	0.158
1	323.2	9.2	0.4	0.13
1	323.2	47.1	1.737	0.128
1	323.2	99.1	3.186	0.125
1	323.2	151.5	4.488	0.127
1	323.2	202	5.599	0.13
1	323.2	250.9	6.613	0.135
1	323.2	298.9	7.559	0.149
1	333.2	23.1	0.271	0.116
1	333.2	53	1.21	0.117
1	333.2	101.7	2.326	0.114
1	333.2	151.8	3.283	0.114
1	333.2	202.9	4.268	0.117
1	333.2	249.8	5.21	0.118
1	333.2	298.9	5.948	0.117
1	343.2	17.7	0.402	0.112
1	343.2	53.2	1.09	0.11
1	343.2	103.6	1.954	0.11
1	343.2	150.3	2.788	0.11
1	343.2	201	3.529	0.111
1	343.2	249.5	4.222	0.113
1	343.2	299.5	4.955	0.111
1	353.2	15.7	0.252	0.105
1	353.2	52.1	0.752	0.105
1	353.2	100.8	1.362	0.106
1	353.2	150.4	1.964	0.107
1	353.2	200.6	2.515	0.107
1	353.2	250.2	3.034	0.109
1	353.2	301.5	3.555	0.11
1.94	313.2	8.4	0.527	0.15
1.94	313.2	48.6	2.395	0.15
1.94	313.2	96.3	4.179	0.144
1.94	313.2	150	5.939	0.147
1.94	313.2	199.4	7.371	0.149
1.94	313.2	247.7	8.733	0.155
1.94	313.2	296.2	10.061	0.16
1.94	323.2	8.5	0.305	0.122
1.94	323.2	47.6	1.465	0.123
1.94	323.2	97.8	2.719	0.126
1.94	323.2	146.5	3.797	0.129
1.94	323.2	192.6	4.717	0.133
1.94	323.2	246.3	5.736	0.137
1.94	323.2	298.8	6.724	0.144
1.94	333.2	10	0.242	0.118
1.94	333.2	46.6	1.05	0.111
1.94	333.2	109.8	2.255	0.114
1.94	333.2	152.7	3	0.115
1.94	333.2	203.5	3.823	0.124
1.94	333.2	252.4	4.564	0.139
1.94	333.2	303.4	5.311	0.139
1.94	343.2	11.7	0.209	0.108
1.94	343.2	54.4	0.879	0.11
1.94	343.2	104.9	1.603	0.114
1.94	343.2	153.4	2.349	0.125
1.94	343.2	202.6	2.881	0.13
1.94	343.2	249.2	3.525	0.139
1.94	343.2	299.6	4.126	0.147
1.94	353.2	20	0.274	0.104
1.94	353.2	51.4	0.635	0.105
1.94	353.2	97.6	1.147	0.106
1.94	353.2	149.3	1.707	0.109
1.94	353.2	199.9	2.226	0.111
1.94	353.2	249.5	2.712	0.113
1.94	353.2	300.7	3.204	0.115

System: urea + ethylammonium chloride; phases: Liquid
Fixed: Pressure, kPa = 101.3
Property: Mass density, kg/m3 (Liquid); method: Vibrating tube method
Temperature, K	Amount ratio of solute to solvent of urea	Mass density, kg/m3	uncertainty
313.2	0.5	1103.2	3.37
323.2	0.5	1098.1	3.32
333.2	0.5	1093.11	3.27
343.2	0.5	1088.05	3.23
353.2	0.5	1083.06	3.19
313.2	1	1141.67	3.38
323.2	1	1135.99	3.28
333.2	1	1130.4	3.24
343.2	1	1124.89	3.21
353.2	1	1119.43	3.24
313.2	1.94	1178.75	4.99
323.2	1.94	1172.79	4.95
333.2	1.94	1166.88	4.91
343.2	1.94	1160.96	4.85
353.2	1.94	1155.08	4.8

System: urea + ethylammonium chloride; phases: Liquid
Fixed: Pressure, kPa = 101.3
Property: Viscosity, Pa*s (Liquid); method: Concentric cylinders viscometry
Temperature, K	Amount ratio of solute to solvent of urea	Viscosity, Pa*s	uncertainty
313.2	0.5	0.0978	0.009
323.2	0.5	0.0696	0.0051
333.2	0.5	0.0508	0.0042
343.2	0.5	0.0409	0.004
353.2	0.5	0.0348	0.004
313.2	1	0.1977	0.0056
323.2	1	0.1101	0.0046
333.2	1	0.0683	0.0041
343.2	1	0.0476	0.0041
353.2	1	0.0348	0.004
313.2	1.94	0.1055	0.0125
323.2	1.94	0.0675	0.0062
333.2	1.94	0.0492	0.0046
343.2	1.94	0.0375	0.0042
353.2	1.94	0.0287	0.0041

System: urea + ethylammonium chloride; phases: Liquid, Crystal of unknown type
Fixed: Pressure, kPa = 101.3
Property: Solid-liquid equilibrium temperature, K (Liquid); method: DTA
Amount ratio of solute to solvent of urea	Solid-liquid equilibrium temperature, K	uncertainty
0.5	310	2
1	321	2
1.94	313	2
