Measured thermophysical data. Vapor-Liquid Equilibria for the Binary and Ternary Systems of Difluoromethane (R32), 1,1-Difluoroethane (R152a), and 2,3,3,3-Tetrafluoroprop-1-ene (R1234yf)
Source: J. Chem. Eng. Data, 2018, 10.1021/acs.jced.7b00950
Compound 1: difluoromethane, CH2F2, InChI=1S/CH2F2/c2-1-3/h1H2, purity 99.8%
Compound 2: 1,1-difluoroethane, C2H4F2, InChI=1S/C2H4F2/c1-2(3)4/h2H,1H3, purity 99.9%
Compound 3: 2,3,3,3-tetrafluoro-1-propene, C3H2F4, InChI=1S/C3H2F4/c1-2(4)3(5,6)7/h1H2, purity 99.5%

System: difluoromethane; phases: Liquid, Gas
Property: Vapor or sublimation pressure, kPa (Liquid); method: Closed cell (Static) method
Temperature, K	Vapor or sublimation pressure, kPa	uncertainty
283.147	1106.2	2
288.151	1279.9	2.2
293.157	1473.7	2.5
298.16	1688.4	2.8
303.148	1925.3	3.2
308.148	2188.3	3.6
313.15	2475.9	4
318.153	2792	4.5
323.149	3137.6	5.1

System: 1,1-difluoroethane; phases: Liquid, Gas
Property: Vapor or sublimation pressure, kPa (Liquid); method: Closed cell (Static) method
Temperature, K	Vapor or sublimation pressure, kPa	uncertainty
283.154	373.4	1.2
288.159	439.3	1.2
293.146	513.5	1.3
298.147	596.9	1.4
303.142	690.1	1.5
308.137	794.1	1.6
313.152	909.8	1.7
318.152	1037.4	1.9
323.168	1178.2	2

System: 2,3,3,3-tetrafluoro-1-propene; phases: Liquid, Gas
Property: Vapor or sublimation pressure, kPa (Liquid); method: Closed cell (Static) method
Temperature, K	Vapor or sublimation pressure, kPa	uncertainty
283.15	437.4	1.7
293.15	591.7	2.1
303.15	782.5	2.6
313.15	1017.8	3.3
323.15	1301.4	4.3

System: difluoromethane + 1,1-difluoroethane; phases: Liquid, Gas
Property: Vapor or sublimation pressure, kPa (Liquid); method: Closed cell (Static) method
Mole fraction of difluoromethane	Temperature, K	Vapor or sublimation pressure, kPa	uncertainty
0	283.15	373.4	1.5
0.11	283.15	448.5	1.7
0.1857	283.15	501.7	1.8
0.3105	283.15	589.5	2
0.3985	283.15	653	2.2
0.4801	283.15	711.4	2.4
0.6357	283.15	826.2	2.7
0.71	283.15	882.4	2.9
0.7816	283.15	936.4	3.1
0.8698	283.15	1004.4	3.3
1	283.15	1106.2	3.6
0	293.15	513.5	1.8
0.1133	293.15	613.7	2.1
0.1814	293.15	676.6	2.3
0.3071	293.15	789.3	2.6
0.3965	293.15	873.2	2.9
0.4753	293.15	947.6	3.1
0.6322	293.15	1099.1	3.6
0.7067	293.15	1172.5	3.8
0.7794	293.15	1245.2	4.1
0.8681	293.15	1335.3	4.4
1	293.15	1473.7	4.8
0	303.15	690.1	2.3
0.1119	303.15	815.2	2.7
0.1801	303.15	894.2	2.9
0.3043	303.15	1036.3	3.4
0.3935	303.15	1143.4	3.7
0.4717	303.15	1238.4	4
0.6273	303.15	1429.5	4.7
0.704	303.15	1529.9	5
0.7781	303.15	1625.8	5.3
0.8668	303.15	1743.3	5.7
1	303.15	1925.3	6.3
0	313.15	909.8	3
0.1095	313.15	1061.1	3.5
0.1782	313.15	1159.6	3.8
0.3007	313.15	1336.2	4.4
0.3916	313.15	1472.4	4.8
0.4692	313.15	1591.6	5.2
0.6225	313.15	1833.5	6
0.7014	313.15	1959	6.4
0.7767	313.15	2085.9	6.8
0.8661	313.15	2235.8	7.3
1	313.15	2475.9	8.1
0	323.15	1178.2	3.9
0.1071	323.15	1359.1	4.4
0.1762	323.15	1480	4.8
0.2968	323.15	1694.8	5.5
0.3888	323.15	1864.7	6.1
0.4674	323.15	2010.8	6.6
0.6192	323.15	2311.5	7.5
0.698	323.15	2470.8	8.1
0.7754	323.15	2635.1	8.6
0.8629	323.15	2824.5	9.2
1	323.15	3137.6	10.2

System: difluoromethane + 1,1-difluoroethane; phases: Gas, Liquid
Property: Mole fraction of difluoromethane (Gas); method: Chromatography
Mole fraction of difluoromethane	Temperature, K	Mole fraction of difluoromethane	uncertainty
0	283.15	0	
0.11	283.15	0.2368	0.0102
0.1857	283.15	0.3631	0.0105
0.3105	283.15	0.5313	0.0108
0.3985	283.15	0.6223	0.0105
0.4801	283.15	0.6926	0.0103
0.6357	283.15	0.8069	0.0101
0.71	283.15	0.8541	0.0101
0.7816	283.15	0.8938	0.01
0.8698	283.15	0.9393	0.01
1	283.15	1	
0	293.15	0	
0.1133	293.15	0.2348	0.0102
0.1814	293.15	0.3464	0.0104
0.3071	293.15	0.5116	0.0108
0.3965	293.15	0.6042	0.0106
0.4753	293.15	0.6777	0.0104
0.6322	293.15	0.7951	0.0102
0.7067	293.15	0.8443	0.0101
0.7794	293.15	0.8865	0.01
0.8681	293.15	0.9349	0.01
1	293.15	1	
0	303.15	0	
0.1119	303.15	0.2219	0.0102
0.1801	303.15	0.3312	0.0104
0.3043	303.15	0.4931	0.0108
0.3935	303.15	0.587	0.0106
0.4717	303.15	0.66	0.0104
0.6273	303.15	0.7819	0.0102
0.704	303.15	0.8338	0.0101
0.7781	303.15	0.8791	0.0101
0.8668	303.15	0.9302	0.01
1	303.15	1	
0	313.15	0	
0.1095	313.15	0.2075	0.0102
0.1782	313.15	0.3142	0.0103
0.3007	313.15	0.4731	0.0108
0.3916	313.15	0.5693	0.0106
0.4692	313.15	0.6432	0.0105
0.6225	313.15	0.7669	0.0102
0.7014	313.15	0.8224	0.0101
0.7767	313.15	0.8708	0.0101
0.8661	313.15	0.9245	0.01
1	313.15	1	
0	323.15	0	
0.1071	323.15	0.1942	0.0101
0.1762	323.15	0.2985	0.0103
0.2968	323.15	0.4531	0.0107
0.3888	323.15	0.5511	0.0107
0.4674	323.15	0.6239	0.0105
0.6192	323.15	0.751	0.0102
0.698	323.15	0.8085	0.0101
0.7754	323.15	0.8614	0.0101
0.8629	323.15	0.9172	0.01
1	323.15	1	

System: 1,1-difluoroethane + 2,3,3,3-tetrafluoro-1-propene; phases: Liquid, Gas
Property: Vapor or sublimation pressure, kPa (Liquid); method: Closed cell (Static) method
Mole fraction of 2,3,3,3-tetrafluoro-1-propene	Temperature, K	Vapor or sublimation pressure, kPa	uncertainty
0	283.15	372.8	1.5
0.2247	283.15	411.4	1.6
0.4637	283.15	433	1.7
0.7543	283.15	443.3	1.7
1	283.15	437.4	1.7
0	293.15	512.8	1.8
0.2243	293.15	561.3	2
0.4634	293.15	588.2	2
0.7538	293.15	600.6	2.1
1	293.15	591.7	2.1
0	303.15	689.7	2.3
0.2237	303.15	749.4	2.5
0.4631	303.15	782.4	2.6
0.7535	303.15	796.5	2.6
1	303.15	782.5	2.6
0	313.15	909.3	3
0.2235	313.15	981	3.2
0.4631	313.15	1021.6	3.3
0.7534	313.15	1037.2	3.4
1	313.15	1017.8	3.3
0	323.15	1177.9	3.9
0.2227	323.15	1263.1	4.1
0.4626	323.15	1311	4.3
0.7534	323.15	1327.9	4.3
1	323.15	1301.4	4.3

System: 1,1-difluoroethane + 2,3,3,3-tetrafluoro-1-propene; phases: Gas, Liquid
Property: Mole fraction of 2,3,3,3-tetrafluoro-1-propene (Gas); method: Chromatography
Mole fraction of 2,3,3,3-tetrafluoro-1-propene	Temperature, K	Mole fraction of 2,3,3,3-tetrafluoro-1-propene	uncertainty
0	283.15	0	
0.2247	283.15	0.2702	0.0103
0.4637	283.15	0.4984	0.0109
0.7543	283.15	0.7541	0.0102
1	283.15	1	
0	293.15	0	
0.2243	293.15	0.2671	0.0103
0.4634	293.15	0.4933	0.0108
0.7538	293.15	0.7532	0.0102
1	293.15	1	
0	303.15	0	
0.2237	303.15	0.2608	0.0102
0.4631	303.15	0.4889	0.0108
0.7535	303.15	0.7519	0.0102
1	303.15	1	
0	313.15	0	
0.2235	313.15	0.2573	0.0102
0.4631	313.15	0.4844	0.0108
0.7534	313.15	0.7504	0.0102
1	313.15	1	
0	323.15	0	
0.2227	323.15	0.2518	0.0102
0.4626	323.15	0.4803	0.0108
0.7534	323.15	0.7495	0.0102
1	323.15	1	

System: difluoromethane + 1,1-difluoroethane + 2,3,3,3-tetrafluoro-1-propene; phases: Liquid, Gas
Property: Mole fraction of 1,1-difluoroethane (Liquid); method: Chromatography
Property: Mole fraction of 1,1-difluoroethane (Gas); method: Chromatography
Property: Mole fraction of difluoromethane (Gas); method: Chromatography
Temperature, K	Pressure, kPa	Mole fraction of difluoromethane	Mole fraction of 1,1-difluoroethane	uncertainty	Mole fraction of 1,1-difluoroethane	uncertainty	Mole fraction of difluoromethane	uncertainty
283.15	532.1	0.1306	0.4791	0.0048	0.3801	0.0046	0.2646	
283.15	500.2	0.1462	0.7446	0.0026	0.5891	0.0049	0.2984	
283.15	594	0.1697	0.2039	0.002	0.1513	0.0018	0.3468	
283.15	663.2	0.3629	0.5223	0.0048	0.3219	0.0039	0.5741	
283.15	783	0.4253	0.1587	0.0016	0.0981	0.0012	0.6279	
283.15	833.9	0.5589	0.2513	0.0025	0.1315	0.0016	0.7274	
293.15	713.6	0.1291	0.4792	0.0048	0.3852	0.0046	0.2516	
293.15	674.3	0.1444	0.7467	0.0025	0.6012	0.0048	0.28	
293.15	789.1	0.1674	0.2044	0.002	0.1574	0.0019	0.33	
293.15	884	0.3603	0.5246	0.0048	0.3384	0.0041	0.5572	
293.15	1034.4	0.4215	0.1604	0.0016	0.0961	0.0012	0.6083	
293.15	1105.8	0.5561	0.2534	0.0025	0.1388	0.0017	0.718	
303.15	937	0.1272	0.4802	0.0048	0.3961	0.0048	0.2373	
303.15	890.1	0.1429	0.7482	0.0025	0.6167	0.0046	0.2647	
303.15	1029.5	0.1659	0.2052	0.0021	0.1634	0.002	0.3132	
303.15	1153.9	0.3574	0.5274	0.0047	0.3558	0.0043	0.5394	
303.15	1339.8	0.4165	0.1622	0.0016	0.1025	0.0012	0.5895	
303.15	1437.9	0.5536	0.2552	0.0026	0.1483	0.0018	0.7052	
313.15	1208.7	0.1247	0.4843	0.0048	0.4069	0.0049	0.2243	
313.15	1153.1	0.141	0.7503	0.0025	0.6318	0.0044	0.251	
313.15	1319	0.1641	0.205	0.0021	0.1692	0.002	0.2954	
313.15	1480.8	0.3548	0.5297	0.0047	0.3731	0.0045	0.5213	
313.15	1704	0.4113	0.1636	0.0016	0.1096	0.0013	0.5695	
313.15	1837.6	0.5506	0.2573	0.0026	0.1589	0.0019	0.6906	
323.15	1535.4	0.1232	0.4858	0.0049	0.4183	0.005	0.2107	
323.15	1468.8	0.1387	0.7524	0.0025	0.6453	0.0043	0.2384	
323.15	1664.8	0.1618	0.206	0.0021	0.175	0.0021	0.2776	
323.15	1869.5	0.351	0.5332	0.0047	0.3915	0.0047	0.5017	
323.15	2133.1	0.4058	0.1656	0.0017	0.117	0.0014	0.5496	
323.15	2309.9	0.5465	0.2598	0.0026	0.1714	0.0021	0.6733	
