Measured thermophysical data. Liquid-Liquid Equilibria for the Ternary Systems Water + Cyclohexanol + Methyl Isobutyl Carbinol and Water + Cyclohexanol + Methyl Isobutyl Ketone at Different Temperatures
Source: J. Chem. Eng. Data, 2018, 10.1021/acs.jced.7b00683
Compound 1: water, H2O, InChI=1S/H2O/h1H2, purity 99.9%
Compound 2: 4-methylpentan-2-one, C6H12O, InChI=1S/C6H12O/c1-5(2)4-6(3)7/h5H,4H2,1-3H3, purity 99%
Compound 3: 4-methyl-2-pentanol, C6H14O, InChI=1S/C6H14O/c1-5(2)4-6(3)7/h5-7H,4H2,1-3H3, purity 99%
Compound 4: cyclohexanol, C6H12O, InChI=1S/C6H12O/c7-6-4-2-1-3-5-6/h6-7H,1-5H2, purity 99%

System: water + cyclohexanol + 4-methyl-2-pentanol; phases: Liquid mixture 2, Liquid mixture 1
Fixed: Pressure, kPa = 101.3
Property: Mole fraction of cyclohexanol (Liquid mixture 2); method: Chromatography
Property: Mole fraction of water (Liquid mixture 1); method: Chromatography
Property: Mole fraction of cyclohexanol (Liquid mixture 1); method: Chromatography
Temperature, K	Mole fraction of water	Mole fraction of cyclohexanol	uncertainty	Mole fraction of water	uncertainty	Mole fraction of cyclohexanol	uncertainty
303.15	0.9955	0.0004	0.0004	0.2994	0.0085	0.0365	
303.15	0.9952	0.0008	0.0008	0.3084	0.0084	0.0716	
303.15	0.9951	0.0014	0.0014	0.3127	0.0086	0.1091	
303.15	0.9952	0.0021	0.0021	0.3356	0.0088	0.1738	
303.15	0.9947	0.0028	0.0028	0.3551	0.0086	0.2366	
303.15	0.9934	0.0036	0.0036	0.3568	0.0084	0.2667	
303.15	0.9929	0.0042	0.0042	0.3621	0.0085	0.2969	
303.15	0.9923	0.0049	0.0049	0.3651	0.0084	0.3273	
323.15	0.9961	0.0004	0.0004	0.3212	0.0087	0.0356	
323.15	0.9961	0.0007	0.0007	0.3316	0.0086	0.0702	
323.15	0.9958	0.0011	0.0011	0.3365	0.0086	0.1008	
323.15	0.9955	0.0015	0.0015	0.3472	0.0087	0.1377	
323.15	0.9952	0.0019	0.0019	0.3563	0.0087	0.1701	
323.15	0.9948	0.0023	0.0023	0.3642	0.0085	0.2006	
323.15	0.9946	0.0027	0.0027	0.3657	0.0085	0.2336	
323.15	0.9946	0.0036	0.0036	0.383	0.0086	0.3143	

System: water + cyclohexanol + 4-methylpentan-2-one; phases: Liquid mixture 2, Liquid mixture 1
Fixed: Pressure, kPa = 101.3
Property: Mole fraction of water (Liquid mixture 2); method: Chromatography
Property: Mole fraction of cyclohexanol (Liquid mixture 1); method: Chromatography
Property: Mole fraction of water (Liquid mixture 1); method: Chromatography
Temperature, K	Mole fraction of cyclohexanol	Mole fraction of water	uncertainty	Mole fraction of cyclohexanol	uncertainty	Mole fraction of water	uncertainty
308.15	0.0008	0.9932	0.0068	0.0409	0.0157	0.125	
308.15	0.0013	0.9936	0.0064	0.0849	0.015	0.1512	
308.15	0.0018	0.9936	0.0064	0.1247	0.0165	0.1777	
308.15	0.0022	0.9938	0.0062	0.1632	0.0138	0.1938	
308.15	0.0026	0.994	0.006	0.1919	0.0125	0.2239	
308.15	0.003	0.9937	0.0063	0.2255	0.0141	0.2458	
308.15	0.0034	0.9931	0.0069	0.2571	0.0126	0.2693	
308.15	0.0037	0.993	0.007	0.2838	0.0122	0.2942	
308.15	0.0042	0.9925	0.0075	0.3089	0.0131	0.3152	
308.15	0.0043	0.993	0.007	0.3349	0.0137	0.3344	
323.15	0.0006	0.9942	0.0058	0.0404	0.0214	0.1518	
323.15	0.0013	0.9936	0.0064	0.0815	0.0176	0.1684	
323.15	0.0025	0.9937	0.0063	0.1952	0.0174	0.2296	
323.15	0.0029	0.9936	0.0064	0.23	0.0134	0.2449	
323.15	0.0033	0.9933	0.0067	0.2582	0.0117	0.2749	
323.15	0.0036	0.993	0.007	0.2862	0.0119	0.2987	
323.15	0.004	0.9928	0.0072	0.3103	0.0146	0.3232	
323.15	0.0046	0.9924	0.0076	0.3409	0.0287	0.3321	
