Measured thermophysical data. Solubility Measurement and Thermodynamic Modeling of Solid-Liquid Equilibria in the MCl-M2B4O7-H2O (M = Li, Na) Systems
Source: J. Chem. Eng. Data, 2019, 10.1021/acs.jced.9b00561
Compound 1: lithium chloride, ClLi, InChI=1S/ClH.Li/h1H;/q;+1/p-1, purity 99%
Compound 2: sodium chloride, ClNa, InChI=1S/ClH.Na/h1H;/q;+1/p-1, purity 99.5%
Compound 3: lithium borate, B4Li2O7, InChI=1S/B4O7.2Li/c5-3-7-1-8-4(6,11-3)10-2-9-3;;/q-2;2*+1, purity 99.9%
Compound 4: sodium tetraborate, B4Na2O7, InChI=1S/B4O7.2Na/c5-1-9-3(7)11-4(8)10-2-6;;/q-2;2*+1, purity 99.5%
Compound 5: water, H2O, InChI=1S/H2O/h1H2, purity 99.8%

System: lithium chloride + lithium borate + water; phases: Liquid, Crystal of intercomponent compound 1
Fixed: Temperature, K = 323.15
Fixed: Pressure, kPa = 101.3
Property: Mass fraction of lithium borate (Liquid); method: Titration method
Mass fraction of lithium chloride	Mass fraction of lithium borate	uncertainty
0	0.03961	0.0066
0.0772	0.01721	0.00677
0.1534	0.00752	0.00664
0.2058	0.00383	0.00383
0.228	0.00356	0.00356
0.2607	0.00287	0.00287
0.3003	0.00284	0.00284
0.3641	0.00285	0.00285
0.4055	0.00326	0.00326
0.4772	0.00387	0.00387

System: lithium chloride + lithium borate + water; phases: Liquid, Crystal of intercomponent compound 2
Fixed: Temperature, K = 323.15
Fixed: Pressure, kPa = 101.3
Property: Mass fraction of lithium borate (Liquid); method: Titration method
Mass fraction of lithium chloride	Mass fraction of lithium borate	uncertainty
0.4772	0.00387	0.00387
0.4791	0.00323	0.00323
0.4809	0.00152	0.00152
0.4841	0	

System: lithium chloride + lithium borate + water; phases: Liquid
Fixed: Temperature, K = 323.15
Fixed: Pressure, kPa = 101.3
Property: Refractive index (Na D-line) (Liquid); method: Standard Abbe refractometry
Mass fraction of lithium chloride	Mass fraction of lithium borate	Refractive index (Na D-line)	uncertainty
0	0.03961	1.3402	0.0004
0.0772	0.01721	1.3511	0.0026
0.1534	0.00752	1.3652	0.0018
0.2058	0.00383	1.3728	0.0024
0.228	0.00356	1.3779	0.0029
0.2607	0.00287	1.3866	0.004
0.3003	0.00284	1.3978	0.0059
0.3641	0.00285	1.4125	0.0048
0.4055	0.00326	1.4214	0.0033
0.4772	0.00387	1.4395	0.0036
0.4791	0.00323	1.439	0.0022
0.4809	0.00152	1.4392	0.002
0.4841	0	1.439	0.0018

System: sodium chloride + sodium tetraborate + water; phases: Liquid, Crystal of intercomponent compound 1
Fixed: Temperature, K = 323.15
Fixed: Pressure, kPa = 101.3
Property: Mass fraction of sodium tetraborate (Liquid); method: Titration method
Mass fraction of sodium chloride	Mass fraction of sodium tetraborate	uncertainty
0	0.0953	0.0078
0.0134	0.0686	0.0154
0.0309	0.0527	0.0102
0.0547	0.0408	0.0079
0.1178	0.037	0.0078
0.1679	0.0345	0.0078
0.2224	0.028	0.0079
0.227	0.028	0.0079
0.2481	0.0265	0.0078
0.2508	0.0261	0.0078
0.2549	0.0252	0.0079

System: sodium chloride + sodium tetraborate + water; phases: Liquid, Crystal
Fixed: Temperature, K = 323.15
Fixed: Pressure, kPa = 101.3
Property: Mass fraction of sodium tetraborate (Liquid); method: Titration method
Mass fraction of sodium chloride	Mass fraction of sodium tetraborate	uncertainty
0.2549	0.0252	0.0078
0.2575	0.0178	0.0078
0.2636	0.0061	0.0061
0.2683	0	

System: sodium chloride + sodium tetraborate + water; phases: Liquid
Fixed: Temperature, K = 323.15
Fixed: Pressure, kPa = 101.3
Property: Refractive index (Na D-line) (Liquid); method: Standard Abbe refractometry
Mass fraction of sodium chloride	Mass fraction of sodium tetraborate	Refractive index (Na D-line)	uncertainty
0	0.0953	1.3477	0.0004
0.0134	0.0686	1.3482	0.0015
0.0309	0.0527	1.3493	0.0014
0.0547	0.0408	1.3511	0.0017
0.1178	0.037	1.3593	0.0017
0.1679	0.0345	1.3678	0.0029
0.2224	0.028	1.376	0.0029
0.227	0.028	1.3763	0.0032
0.2481	0.0265	1.3804	0.003
0.2508	0.0261	1.3809	0.003
0.2549	0.0252	1.3815	0.0032
0.2575	0.0178	1.3801	0.0027
0.2636	0.0061	1.3776	0.0027
0.2683	0	1.3765	0.0019

System: lithium borate + water; phases: Liquid, Crystal of intercomponent compound 1
Property: Mass fraction of lithium borate (Liquid); method: Titration method
Temperature, K	Pressure, kPa	Mass fraction of lithium borate	uncertainty
323.15	101.3	0.03961	0.0066

System: lithium borate + water; phases: Liquid
Property: Refractive index (Na D-line) (Liquid); method: Standard Abbe refractometry
Mass fraction of lithium borate	Temperature, K	Pressure, kPa	Refractive index (Na D-line)	uncertainty
0.03961	323.15	101.3	1.3402	0.0004

System: lithium chloride + water; phases: Liquid, Crystal of intercomponent compound 2
Property: Mass fraction of lithium chloride (Liquid); method: Titration method
Temperature, K	Pressure, kPa	Mass fraction of lithium chloride	uncertainty
323.15	101.3	0.4841	

System: lithium chloride + water; phases: Liquid
Property: Refractive index (Na D-line) (Liquid); method: Standard Abbe refractometry
Mass fraction of lithium chloride	Temperature, K	Pressure, kPa	Refractive index (Na D-line)	uncertainty
0.4841	323.15	101.3	1.439	0.0018

System: sodium tetraborate + water; phases: Liquid, Crystal of intercomponent compound 1
Property: Mass fraction of sodium tetraborate (Liquid); method: Titration method
Temperature, K	Pressure, kPa	Mass fraction of sodium tetraborate	uncertainty
323.15	101.3	0.0953	0.0078

System: sodium tetraborate + water; phases: Liquid
Property: Refractive index (Na D-line) (Liquid); method: Standard Abbe refractometry
Mass fraction of sodium tetraborate	Temperature, K	Pressure, kPa	Refractive index (Na D-line)	uncertainty
0.0953	323.15	101.3	1.3477	0.0004

System: sodium chloride + water; phases: Liquid, Crystal
Property: Mass fraction of sodium chloride (Liquid); method: Titration method
Temperature, K	Pressure, kPa	Mass fraction of sodium chloride	uncertainty
323.15	101.3	0.2683	

System: sodium chloride + water; phases: Liquid
Property: Refractive index (Na D-line) (Liquid); method: Standard Abbe refractometry
Mass fraction of sodium chloride	Temperature, K	Pressure, kPa	Refractive index (Na D-line)	uncertainty
0.2683	323.15	101.3	1.3765	0.0019
