Measured thermophysical data. Densities and Volumetric Properties of Aqueous Solutions of {Water (1) + N-Methylurea (2)} Mixtures at Temperatures of 274.15-333.15 K and at Pressures up to 100 MPa
Source: J. Chem. Eng. Data, 2017, 10.1021/acs.jced.7b00750
Compound 1: methylurea, C2H6N2O, InChI=1S/C2H6N2O/c1-4-2(3)5/h1H3,(H3,3,4,5), purity 97%
Compound 2: water, H2O, InChI=1S/H2O/h1H2, purity 99.8%

System: water; phases: Liquid
Fixed: Pressure, kPa = 100
Property: Mass density, kg/m3 (Liquid); method: Vibrating tube method
Temperature, K	Mass density, kg/m3	uncertainty
274.15	999.899	0.106
275.15	999.94	0.106
276.15	999.964	0.106
277.15	999.972	0.128
278.15	999.964	0.106
279.15	999.94	0.106
280.15	999.901	0.106
281.15	999.848	0.106
282.15	999.781	0.106
283.15	999.699	0.106
288.15	999.09	0.107
298.15	997.043	0.107
308.15	994.029	0.109
323.15	988.03	0.111
333.15	983.191	0.112

System: water; phases: Liquid
Property: Specific volume, m3/kg (Liquid); method: Constant-volume piezometry
Temperature, K	Pressure, kPa	Specific volume, m3/kg	uncertainty
278.15	10000	-0.004792	0.000211
278.15	25000	-0.011775	0.000458
278.15	50000	-0.022711	0.000849
278.15	75000	-0.032844	0.001177
278.15	100000	-0.042256	0.001509
288.15	10000	-0.004557	0.000203
288.15	25000	-0.011209	0.000437
288.15	50000	-0.021661	0.000813
288.15	75000	-0.03139	0.001133
288.15	100000	-0.04047	0.001491
298.15	10000	-0.004415	0.000198
298.15	25000	-0.01086	0.000425
298.15	50000	-0.021005	0.000791
298.15	75000	-0.03047	0.001104
298.15	100000	-0.039329	0.001446
308.15	10000	-0.004335	0.000196
308.15	25000	-0.010665	0.000418
308.15	50000	-0.020632	0.000777
308.15	75000	-0.02994	0.001087
308.15	100000	-0.038664	0.001428
323.15	10000	-0.004306	0.000195
323.15	25000	-0.01059	0.000415
323.15	50000	-0.020471	0.000771
323.15	75000	-0.029696	0.001077
323.15	100000	-0.038339	0.001386

System: water + methylurea; phases: Liquid
Fixed: Pressure, kPa = 100
Property: Mass density, kg/m3 (Liquid); method: Vibrating tube method
Temperature, K	Mole fraction of methylurea	Mass density, kg/m3	uncertainty
274.15	0	999.899	0.106
274.15	0.00244	1001.77	0.13
274.15	0.00291	1002.12	0.13
274.15	0.00483	1003.58	0.13
274.15	0.00553	1004.11	0.13
274.15	0.00799	1005.96	0.13
274.15	0.00834	1006.21	0.13
274.15	0.01081	1008.05	0.13
274.15	0.01421	1010.56	0.13
275.15	0	999.94	0.106
275.15	0.00244	1001.8	0.13
275.15	0.00291	1002.15	0.13
275.15	0.00483	1003.6	0.13
275.15	0.00553	1004.13	0.13
275.15	0.00799	1005.98	0.13
275.15	0.00834	1006.23	0.13
275.15	0.01081	1008.07	0.13
275.15	0.01421	1010.58	0.13
276.15	0	999.964	0.106
276.15	0.00244	1001.82	0.13
276.15	0.00291	1002.17	0.13
276.15	0.00483	1003.62	0.13
276.15	0.00553	1004.14	0.15
276.15	0.00799	1005.98	0.13
276.15	0.00834	1006.24	0.15
276.15	0.01081	1008.06	0.13
276.15	0.01421	1010.58	0.13
277.15	0	999.972	0.128
277.15	0.00244	1001.82	0.13
277.15	0.00291	1002.17	0.13
277.15	0.00483	1003.61	0.13
277.15	0.00553	1004.13	0.13
277.15	0.00799	1005.97	0.13
277.15	0.00834	1006.23	0.13
277.15	0.01081	1008.05	0.13
277.15	0.01421	1010.54	0.13
278.15	0	999.964	0.106
278.15	0.00244	1001.8	0.13
278.15	0.00291	1002.15	0.13
278.15	0.00483	1003.58	0.13
278.15	0.00553	1004.1	0.13
278.15	0.00799	1005.92	0.13
278.15	0.00834	1006.18	0.13
278.15	0.01081	1007.99	0.13
278.15	0.01421	1010.45	0.13
278.15	0.01662	1012.18	0.13
278.15	0.019	1013.89	0.13
278.15	0.02321	1016.84	0.13
278.15	0.03185	1022.7	0.13
278.15	0.04218	1029.47	0.13
278.15	0.05184	1035.47	0.13
278.15	0.06068	1040.78	0.14
278.15	0.07071	1046.57	0.14
279.15	0	999.94	0.106
279.15	0.00244	1001.76	0.13
279.15	0.00291	1002.11	0.13
279.15	0.00483	1003.53	0.13
279.15	0.00553	1004.05	0.13
279.15	0.00799	1005.86	0.13
279.15	0.00834	1006.11	0.13
279.15	0.01081	1007.92	0.13
279.15	0.01421	1010.37	0.13
280.15	0	999.901	0.106
280.15	0.00244	1001.71	0.13
280.15	0.00291	1002.05	0.13
280.15	0.00483	1003.47	0.13
280.15	0.00553	1003.98	0.13
280.15	0.00799	1005.78	0.13
280.15	0.00834	1006.03	0.13
280.15	0.01081	1007.83	0.13
280.15	0.01421	1010.26	0.13
281.15	0	999.848	0.106
281.15	0.00244	1001.65	0.13
281.15	0.00291	1001.99	0.13
281.15	0.00483	1003.39	0.13
281.15	0.00553	1003.9	0.13
281.15	0.00799	1005.7	0.13
281.15	0.00834	1005.95	0.13
281.15	0.01081	1007.72	0.13
281.15	0.01421	1010.15	0.13
282.15	0	999.781	0.106
282.15	0.00244	1001.57	0.13
282.15	0.00291	1001.91	0.13
282.15	0.00483	1003.31	0.13
282.15	0.00553	1003.81	0.13
282.15	0.00799	1005.59	0.13
282.15	0.00834	1005.84	0.13
282.15	0.01081	1007.61	0.13
282.15	0.01421	1010.02	0.13
283.15	0	999.699	0.106
283.15	0.00244	1001.47	0.13
283.15	0.00291	1001.81	0.13
283.15	0.00483	1003.2	0.13
283.15	0.00553	1003.71	0.13
283.15	0.00799	1005.48	0.13
283.15	0.00834	1005.72	0.13
283.15	0.01081	1007.48	0.13
283.15	0.01421	1009.88	0.13
288.15	0	999.09	0.107
288.15	0.00244	1000.82	0.15
288.15	0.00291	1001.15	0.11
288.15	0.00483	1002.51	0.13
288.15	0.00553	1003	0.13
288.15	0.00799	1004.72	0.16
288.15	0.00834	1004.96	0.11
288.15	0.01081	1006.67	0.13
288.15	0.01421	1009.02	0.13
288.15	0.01662	1010.63	0.13
288.15	0.019	1012.22	0.13
288.15	0.02321	1015	0.13
288.15	0.03185	1020.53	0.13
288.15	0.04218	1026.9	0.13
288.15	0.05184	1032.59	0.13
288.15	0.06068	1037.58	0.13
288.15	0.07071	1043.01	0.14
298.15	0	997.043	0.107
298.15	0.00244	998.69	0.17
298.15	0.00291	999	0.11
298.15	0.00483	1000.3	0.12
298.15	0.00553	1000.76	0.13
298.15	0.00799	1002.41	0.18
298.15	0.00834	1002.63	0.11
298.15	0.01081	1004.26	0.13
298.15	0.01421	1006.48	0.13
298.15	0.01662	1008.05	0.13
298.15	0.019	1009.57	0.13
298.15	0.02321	1012.2	0.13
298.15	0.03185	1017.45	0.13
298.15	0.04218	1023.52	0.13
298.15	0.05184	1028.96	0.13
298.15	0.06068	1033.74	0.13
298.15	0.07071	1038.96	0.14
308.15	0	994.029	0.109
308.15	0.00244	995.62	0.18
308.15	0.00291	995.92	0.11
308.15	0.00483	997.16	0.12
308.15	0.00553	997.61	0.13
308.15	0.00799	999.19	0.2
308.15	0.00834	999.41	0.12
308.15	0.01081	1000.97	0.13
308.15	0.01421	1003.1	0.13
308.15	0.01662	1004.61	0.13
308.15	0.019	1006.07	0.13
308.15	0.02321	1008.61	0.13
308.15	0.03185	1013.65	0.13
308.15	0.04218	1019.45	0.13
308.15	0.05184	1024.66	0.13
308.15	0.06068	1029.26	0.13
308.15	0.07071	1034.27	0.13
323.15	0	988.03	0.111
323.15	0.00244	989.55	0.17
323.15	0.00291	989.84	0.11
323.15	0.00483	991.02	0.12
323.15	0.00553	991.45	0.13
323.15	0.00799	992.95	0.19
323.15	0.00834	993.16	0.12
323.15	0.01081	994.63	0.13
323.15	0.01421	996.66	0.13
323.15	0.01662	998.09	0.13
323.15	0.019	999.47	0.13
323.15	0.02321	1001.87	0.13
323.15	0.03185	1006.67	0.13
323.15	0.04218	1012.19	0.13
323.15	0.05184	1017.13	0.13
323.15	0.06068	1021.48	0.13
323.15	0.07071	1026.24	0.13
333.15	0	983.191	0.112
333.15	0.00244	984.67	0.13
333.15	0.00291	984.95	0.13
333.15	0.00483	986.09	0.13
333.15	0.00553	986.51	0.13
333.15	0.00799	987.96	0.13
333.15	0.00834	988.16	0.13
333.15	0.01081	989.6	0.13
333.15	0.01421	991.56	0.13
333.15	0.01662	992.96	0.13
333.15	0.019	994.26	0.13
333.15	0.02321	996.6	0.13
333.15	0.03185	1001.3	0.13
333.15	0.04218	1006.7	0.13
333.15	0.05184	1011.49	0.13
333.15	0.06068	1015.72	0.13
333.15	0.07071	1020.32	0.13

System: water + methylurea; phases: Liquid
Property: Specific volume, m3/kg (Liquid); method: Constant-volume piezometry
Temperature, K	Pressure, kPa	Mole fraction of methylurea	Specific volume, m3/kg	uncertainty
278.15	10000	0	-0.004792	0.000211
278.15	10000	0.01081	-0.00468	0.00021
278.15	10000	0.01662	-0.00464	0.0002
278.15	10000	0.02321	-0.00458	0.0002
278.15	10000	0.03185	-0.00454	0.0002
278.15	10000	0.04218	-0.00448	0.0002
278.15	10000	0.05184	-0.00443	0.00019
278.15	10000	0.06068	-0.00438	0.00019
278.15	10000	0.07071	-0.00433	0.00019
278.15	25000	0	-0.011775	0.000458
278.15	25000	0.01081	-0.01148	0.00044
278.15	25000	0.01662	-0.01133	0.00044
278.15	25000	0.02321	-0.01118	0.00043
278.15	25000	0.03185	-0.01104	0.00042
278.15	25000	0.04218	-0.01085	0.00041
278.15	25000	0.05184	-0.01069	0.0004
278.15	25000	0.06068	-0.01054	0.0004
278.15	25000	0.07071	-0.01036	0.00039
278.15	50000	0	-0.022711	0.000849
278.15	50000	0.01081	-0.02208	0.00082
278.15	50000	0.01662	-0.02176	0.00081
278.15	50000	0.02321	-0.02142	0.00079
278.15	50000	0.03185	-0.02104	0.00077
278.15	50000	0.04218	-0.02062	0.00075
278.15	50000	0.05184	-0.02022	0.00073
278.15	50000	0.06068	-0.01986	0.00072
278.15	50000	0.07071	-0.01945	0.0007
278.15	75000	0	-0.032844	0.001177
278.15	75000	0.01081	-0.03188	0.00114
278.15	75000	0.01662	-0.03138	0.00112
278.15	75000	0.02321	-0.03085	0.0011
278.15	75000	0.03185	-0.03022	0.00107
278.15	75000	0.04218	-0.0295	0.00103
278.15	75000	0.05184	-0.02884	0.001
278.15	75000	0.06068	-0.02826	0.00098
278.15	75000	0.07071	-0.02762	0.00095
278.15	100000	0	-0.042256	0.001509
278.15	100000	0.01081	-0.04098	0.00146
278.15	100000	0.01662	-0.04033	0.00144
278.15	100000	0.02321	-0.03961	0.00141
278.15	100000	0.03185	-0.03874	0.00137
278.15	100000	0.04218	-0.03775	0.00133
278.15	100000	0.05184	-0.03685	0.00129
278.15	100000	0.06068	-0.03607	0.00125
278.15	100000	0.07071	-0.03518	0.00121
288.15	10000	0	-0.004557	0.000203
288.15	10000	0.01081	-0.00443	0.0002
288.15	10000	0.01662	-0.00437	0.0002
288.15	10000	0.02321	-0.0043	0.00019
288.15	10000	0.03185	-0.00425	0.00019
288.15	10000	0.04218	-0.00415	0.00019
288.15	10000	0.05184	-0.00407	0.00019
288.15	10000	0.06068	-0.004	0.00018
288.15	10000	0.07071	-0.00392	0.00018
288.15	25000	0	-0.011209	0.000437
288.15	25000	0.01081	-0.0109	0.00043
288.15	25000	0.01662	-0.01073	0.00042
288.15	25000	0.02321	-0.01056	0.00041
288.15	25000	0.03185	-0.01038	0.0004
288.15	25000	0.04218	-0.01015	0.00039
288.15	25000	0.05184	-0.00996	0.00039
288.15	25000	0.06068	-0.0098	0.00038
288.15	25000	0.07071	-0.00962	0.00037
288.15	50000	0	-0.021661	0.000813
288.15	50000	0.01081	-0.02105	0.00079
288.15	50000	0.01662	-0.02072	0.00078
288.15	50000	0.02321	-0.02038	0.00076
288.15	50000	0.03185	-0.01998	0.00075
288.15	50000	0.04218	-0.01951	0.00073
288.15	50000	0.05184	-0.01915	0.00071
288.15	50000	0.06068	-0.0188	0.0007
288.15	50000	0.07071	-0.01843	0.00068
288.15	75000	0	-0.03139	0.001133
288.15	75000	0.01081	-0.03048	0.0011
288.15	75000	0.01662	-0.03	0.00108
288.15	75000	0.02321	-0.02948	0.00106
288.15	75000	0.03185	-0.02888	0.00103
288.15	75000	0.04218	-0.02818	0.001
288.15	75000	0.05184	-0.02759	0.00098
288.15	75000	0.06068	-0.02707	0.00096
288.15	75000	0.07071	-0.02646	0.00093
288.15	100000	0	-0.04047	0.001491
288.15	100000	0.01081	-0.03927	0.00143
288.15	100000	0.01662	-0.03863	0.00141
288.15	100000	0.02321	-0.03794	0.00138
288.15	100000	0.03185	-0.0371	0.00135
288.15	100000	0.04218	-0.03615	0.00131
288.15	100000	0.05184	-0.03534	0.00127
288.15	100000	0.06068	-0.03463	0.00124
288.15	100000	0.07071	-0.03383	0.00124
298.15	10000	0	-0.004415	0.000198
298.15	10000	0.01081	-0.00428	0.00019
298.15	10000	0.01662	-0.0042	0.00019
298.15	10000	0.02321	-0.00412	0.00019
298.15	10000	0.03185	-0.00403	0.00019
298.15	10000	0.04218	-0.00395	0.00018
298.15	10000	0.05184	-0.00386	0.00018
298.15	10000	0.06068	-0.00378	0.00018
298.15	10000	0.07071	-0.00371	0.00018
298.15	25000	0	-0.01086	0.000425
298.15	25000	0.01081	-0.01052	0.00041
298.15	25000	0.01662	-0.01034	0.00041
298.15	25000	0.02321	-0.01015	0.0004
298.15	25000	0.03185	-0.00994	0.00039
298.15	25000	0.04218	-0.0097	0.00038
298.15	25000	0.05184	-0.00949	0.00038
298.15	25000	0.06068	-0.00933	0.00037
298.15	25000	0.07071	-0.00915	0.00036
298.15	50000	0	-0.021005	0.000791
298.15	50000	0.01081	-0.02038	0.00077
298.15	50000	0.01662	-0.02004	0.00076
298.15	50000	0.02321	-0.01969	0.00075
298.15	50000	0.03185	-0.01927	0.00073
298.15	50000	0.04218	-0.01884	0.00071
298.15	50000	0.05184	-0.01844	0.0007
298.15	50000	0.06068	-0.01814	0.00069
298.15	50000	0.07071	-0.01781	0.00068
298.15	75000	0	-0.03047	0.001104
298.15	75000	0.01081	-0.02959	0.00108
298.15	75000	0.01662	-0.02913	0.00106
298.15	75000	0.02321	-0.02864	0.00104
298.15	75000	0.03185	-0.02804	0.00102
298.15	75000	0.04218	-0.02739	0.001
298.15	75000	0.05184	-0.02681	0.00098
298.15	75000	0.06068	-0.02639	0.00096
298.15	75000	0.07071	-0.02591	0.00095
298.15	100000	0	-0.039329	0.001446
298.15	100000	0.01081	-0.03822	0.0014
298.15	100000	0.01662	-0.03763	0.00138
298.15	100000	0.02321	-0.037	0.00136
298.15	100000	0.03185	-0.03624	0.00133
298.15	100000	0.04218	-0.0354	0.0013
298.15	100000	0.05184	-0.03468	0.00128
298.15	100000	0.06068	-0.03408	0.00125
298.15	100000	0.07071	-0.03348	0.00123
308.15	10000	0	-0.004335	0.000196
308.15	10000	0.01081	-0.0042	0.00019
308.15	10000	0.01662	-0.00412	0.00019
308.15	10000	0.02321	-0.00405	0.00019
308.15	10000	0.03185	-0.00396	0.00018
308.15	10000	0.04218	-0.00387	0.00018
308.15	10000	0.05184	-0.00378	0.00018
308.15	10000	0.06068	-0.0037	0.00018
308.15	10000	0.07071	-0.00362	0.00017
308.15	25000	0	-0.010665	0.000418
308.15	25000	0.01081	-0.01034	0.00041
308.15	25000	0.01662	-0.01016	0.0004
308.15	25000	0.02321	-0.00997	0.00039
308.15	25000	0.03185	-0.00977	0.00039
308.15	25000	0.04218	-0.00952	0.00038
308.15	25000	0.05184	-0.00932	0.00037
308.15	25000	0.06068	-0.00915	0.00037
308.15	25000	0.07071	-0.00898	0.00036
308.15	50000	0	-0.020632	0.000777
308.15	50000	0.01081	-0.02002	0.00076
308.15	50000	0.01662	-0.0197	0.00075
308.15	50000	0.02321	-0.01936	0.00073
308.15	50000	0.03185	-0.01896	0.00072
308.15	50000	0.04218	-0.01853	0.00071
308.15	50000	0.05184	-0.01816	0.00069
308.15	50000	0.06068	-0.01786	0.00069
308.15	50000	0.07071	-0.01756	0.00068
308.15	75000	0	-0.02994	0.001087
308.15	75000	0.01081	-0.02909	0.00106
308.15	75000	0.01662	-0.02865	0.00104
308.15	75000	0.02321	-0.02817	0.00103
308.15	75000	0.03185	-0.02761	0.00101
308.15	75000	0.04218	-0.02701	0.00099
308.15	75000	0.05184	-0.0265	0.00098
308.15	75000	0.06068	-0.02611	0.00096
308.15	75000	0.07071	-0.0257	0.00095
308.15	100000	0	-0.038664	0.001428
308.15	100000	0.01081	-0.03758	0.00138
308.15	100000	0.01662	-0.03703	0.00136
308.15	100000	0.02321	-0.03643	0.00134
308.15	100000	0.03185	-0.03572	0.00131
308.15	100000	0.04218	-0.03497	0.00129
308.15	100000	0.05184	-0.03434	0.00127
308.15	100000	0.06068	-0.03384	0.00125
308.15	100000	0.07071	-0.03334	0.00122
323.15	10000	0	-0.004306	0.000195
323.15	10000	0.01081	-0.00418	0.00019
323.15	10000	0.01662	-0.00411	0.00019
323.15	10000	0.02321	-0.00404	0.00019
323.15	10000	0.03185	-0.00396	0.00018
323.15	10000	0.04218	-0.00384	0.00018
323.15	10000	0.05184	-0.00377	0.00018
323.15	10000	0.06068	-0.00373	0.00018
323.15	10000	0.07071	-0.00368	0.00017
323.15	25000	0	-0.01059	0.000415
323.15	25000	0.01081	-0.01028	0.0004
323.15	25000	0.01662	-0.01011	0.0004
323.15	25000	0.02321	-0.00994	0.00039
323.15	25000	0.03185	-0.00973	0.00038
323.15	25000	0.04218	-0.00948	0.00038
323.15	25000	0.05184	-0.00929	0.00037
323.15	25000	0.06068	-0.00915	0.00036
323.15	25000	0.07071	-0.00905	0.00036
323.15	50000	0	-0.020471	0.000771
323.15	50000	0.01081	-0.01987	0.00075
323.15	50000	0.01662	-0.01956	0.00074
323.15	50000	0.02321	-0.01924	0.00073
323.15	50000	0.03185	-0.01886	0.00071
323.15	50000	0.04218	-0.01842	0.0007
323.15	50000	0.05184	-0.01808	0.00069
323.15	50000	0.06068	-0.01781	0.00068
323.15	50000	0.07071	-0.0176	0.00067
323.15	75000	0	-0.029696	0.001077
323.15	75000	0.01081	-0.02882	0.00104
323.15	75000	0.01662	-0.02836	0.00103
323.15	75000	0.02321	-0.02792	0.00101
323.15	75000	0.03185	-0.02737	0.00099
323.15	75000	0.04218	-0.02681	0.00098
323.15	75000	0.05184	-0.02635	0.00096
323.15	75000	0.06068	-0.02599	0.00095
323.15	75000	0.07071	-0.0257	0.00093
323.15	100000	0	-0.038339	0.001386
323.15	100000	0.01081	-0.03719	0.00134
323.15	100000	0.01662	-0.0366	0.00133
323.15	100000	0.02321	-0.03602	0.0013
323.15	100000	0.03185	-0.03534	0.00129
323.15	100000	0.04218	-0.03465	0.00126
323.15	100000	0.05184	-0.03404	0.00124
323.15	100000	0.06068	-0.03358	0.00122
323.15	100000	0.07071	-0.03306	0.00118
