Measured thermophysical data. Vapor-Liquid Phase Equilibrium for Separation of Isopropanol from Its Aqueous Solution by Choline Chloride-Based Deep Eutectic Solvent Selected by COSMO-SAC Model
Source: J. Chem. Eng. Data, 2019, 10.1021/acs.jced.8b00895
Compound 1: propan-2-ol, C3H8O, InChI=1S/C3H8O/c1-3(2)4/h3-4H,1-2H3, purity 99%
Compound 2: choline chloride, C5H14ClNO, InChI=1S/C5H14NO.ClH/c1-6(2,3)4-5-7;/h7H,4-5H2,1-3H3;1H/q+1;/p-1, purity 99%
Compound 3: triethylene glycol, C6H14O4, InChI=1S/C6H14O4/c7-1-3-9-5-6-10-4-2-8/h7-8H,1-6H2, purity 99%
Compound 4: water, H2O, InChI=1S/H2O/h1H2, purity 99.8%

System: propan-2-ol + water; phases: Liquid, Gas
Fixed: Pressure, kPa = 101.3
Property: Boiling temperature at pressure P, K (Liquid); method: Ebulliometric method (Recirculating still)
Mole fraction of propan-2-ol	Boiling temperature at pressure P, K	uncertainty
0.0201	367.1	4.59
0.0252	365.32	4.54
0.0404	360.25	3.32
0.0513	357.23	3.5
0.0648	356.72	2.19
0.0789	356.32	2.19
0.1092	355.29	2.18
0.1253	354.96	2.17
0.2432	354.59	2.15
0.2507	354.44	2.15
0.3024	354.28	2.15
0.3792	354.01	2.15
0.4212	353.87	2.15
0.4323	353.79	2.15
0.5521	353.62	2.15
0.5707	353.51	2.15
0.6203	353.49	2.15
0.6709	353.31	2.15
0.7368	353.46	2.15
0.8268	353.78	2.15
0.8711	353.91	2.15
0.9012	354.32	2.16
0.9492	354.67	2.15

System: propan-2-ol + water; phases: Gas, Liquid
Fixed: Pressure, kPa = 101.3
Property: Mole fraction of propan-2-ol (Gas); method: Chromatography
Mole fraction of propan-2-ol	Mole fraction of propan-2-ol	uncertainty
0.0201	0.2512	0.1012
0.0252	0.3023	0.0947
0.0404	0.4212	0.0551
0.0513	0.4518	0.059
0.0648	0.4866	0.0261
0.0789	0.5043	0.0133
0.1092	0.5011	0.0134
0.1253	0.5219	0.0201
0.2432	0.5391	0.0129
0.2507	0.5432	0.0129
0.3024	0.5473	0.0128
0.3792	0.5516	0.0129
0.4212	0.5635	0.0135
0.4323	0.5781	0.0134
0.5521	0.6144	0.0163
0.5707	0.6304	0.0134
0.6203	0.6427	0.0136
0.6709	0.6731	0.0145
0.7368	0.7132	0.0156
0.8268	0.7933	0.0162
0.8711	0.8312	0.0198
0.9012	0.8925	0.02
0.9492	0.9382	0.0166

System: choline chloride + triethylene glycol + water; phases: Liquid, Gas
Fixed: Solvent: Mole fraction of choline chloride = 0.25
Fixed: Pressure, kPa = 101.3
Property: Boiling temperature at pressure P, K (Liquid); method: Ebulliometric method (Recirculating still)
Mass fraction of water	Boiling temperature at pressure P, K	uncertainty
0.9683	374.34	2.15
0.9501	374.96	2.15
0.8968	375.81	2.15
0.849	376.25	2.15
