Measured thermophysical data. Gibbs Energy of Formation of Eu3O4 and EuO
Source: J. Chem. Eng. Data, 2016, 10.1021/acs.jced.5b00728
Compound 1: europium oxide (Eu2O3), Eu2O3, InChI=1S/2Eu.3O/q2*+3;3*-2
Compound 2: europium oxide (Eu3O4), Eu3O4, InChI=1S/3Eu.4O/q+2;2*+3;4*-2
Compound 3: europium (II) oxide, EuO, InChI=1S/Eu.O/q+2;-2
Compound 4: niobium (II) oxide, NbO, InChI=1S/Nb.O/q+2;-2
Compound 5: niobium, Nb, InChI=1S/Nb

Reaction: 3 europium oxide (Eu2O3) + 1 niobium + -1 niobium (II) oxide + -2 europium oxide (Eu3O4)
Property: Molar Gibbs energy of reaction, kJ/mol
11.771
11.482
11.501
11.269
11.231
11.154
10.961
10.98
10.768
10.633
10.594
10.498
10.401

Reaction: 1 niobium + -3 europium (II) oxide + -1 niobium (II) oxide + 1 europium oxide (Eu3O4)
Property: Molar Gibbs energy of reaction, kJ/mol
21.786
21.651
21.728
21.671
21.728
21.651
21.671
21.651
21.632
21.613
21.651
21.671
21.632
