Measured thermophysical data. Separation of Azeotropes Hexane + Ethanol/1-Propanol by Ionic Liquid Extraction: Liquid-Liquid Phase Equilibrium Measurements and Thermodynamic Modeling
Source: J. Chem. Eng. Data, 2017, 10.1021/acs.jced.7b00643
Compound 1: ethanol, C2H6O, InChI=1S/C2H6O/c1-2-3/h3H,2H2,1H3, purity 99.5%
Compound 2: propan-1-ol, C3H8O, InChI=1S/C3H8O/c1-2-3-4/h4H,2-3H2,1H3, purity 99.5%
Compound 3: hexane, C6H14, InChI=1S/C6H14/c1-3-5-6-4-2/h3-6H2,1-2H3, purity 99.5%
Compound 4: 1-hexyl-3-methylimidazolium tetrafluoroborate, C10H19BF4N2, InChI=1S/C10H19N2.BF4/c1-3-4-5-6-7-12-9-8-11(2)10-12;2-1(3,4)5/h8-10H,3-7H2,1-2H3;/q+1;-1, purity 99%
Compound 5: 1-hexyl-3-methylimidazolium trifluoromethanesulfonate, C11H19F3N2O3S, InChI=1S/C10H19N2.CHF3O3S/c1-3-4-5-6-7-12-9-8-11(2)10-12;2-1(3,4)8(5,6)7/h8-10H,3-7H2,1-2H3;(H,5,6,7)/q+1;/p-1, purity 99%

System: hexane + ethanol + 1-hexyl-3-methylimidazolium tetrafluoroborate; phases: Liquid mixture 2, Liquid mixture 1
Fixed: Temperature, K = 298.15
Fixed: Pressure, kPa = 101.3
Property: Mole fraction of hexane (Liquid mixture 2); method: Chromatography
Property: Mole fraction of hexane (Liquid mixture 1); method: Chromatography
Property: Mole fraction of ethanol (Liquid mixture 1); method: Chromatography
Mole fraction of ethanol	Mole fraction of hexane	uncertainty	Mole fraction of hexane	uncertainty	Mole fraction of ethanol	uncertainty
0.148	0.069	0.04	0.99	0.01	0.01	
0.262	0.074	0.04	0.979	0.021	0.021	
0.366	0.08	0.04	0.966	0.034	0.034	
0.463	0.09	0.04	0.95	0.04	0.05	
0.551	0.104	0.041	0.931	0.04	0.069	
0.63	0.128	0.045	0.913	0.04	0.087	
0.689	0.177	0.052	0.905	0.04	0.095	

System: hexane + propan-1-ol + 1-hexyl-3-methylimidazolium tetrafluoroborate; phases: Liquid mixture 1, Liquid mixture 2
Fixed: Temperature, K = 298.15
Fixed: Pressure, kPa = 101.3
Property: Mole fraction of hexane (Liquid mixture 1); method: Chromatography
Property: Mole fraction of hexane (Liquid mixture 2); method: Chromatography
Property: Mole fraction of propan-1-ol (Liquid mixture 2); method: Chromatography
Mole fraction of propan-1-ol	Mole fraction of hexane	uncertainty	Mole fraction of hexane	uncertainty	Mole fraction of propan-1-ol	uncertainty
0.015	0.985	0.015	0.076	0.04	0.128	
0.047	0.953	0.047	0.08	0.04	0.236	
0.08	0.92	0.057	0.084	0.04	0.283	
0.147	0.853	0.057	0.089	0.04	0.326	
0.233	0.766	0.057	0.091	0.04	0.378	
0.355	0.642	0.057	0.1	0.04	0.401	
0.452	0.541	0.058	0.103	0.04	0.482	

System: hexane + propan-1-ol + 1-hexyl-3-methylimidazolium trifluoromethanesulfonate; phases: Liquid mixture 1, Liquid mixture 2
Fixed: Temperature, K = 298.15
Fixed: Pressure, kPa = 101.3
Property: Mole fraction of hexane (Liquid mixture 1); method: Chromatography
Property: Mole fraction of hexane (Liquid mixture 2); method: Chromatography
Property: Mole fraction of propan-1-ol (Liquid mixture 2); method: Chromatography
Mole fraction of propan-1-ol	Mole fraction of hexane	uncertainty	Mole fraction of hexane	uncertainty	Mole fraction of propan-1-ol	uncertainty
0.087	0.912	0.057	0.087	0.04	0.104	
0.17	0.828	0.057	0.097	0.04	0.197	
0.211	0.788	0.057	0.113	0.041	0.304	
0.229	0.767	0.057	0.131	0.043	0.383	
0.322	0.673	0.056	0.172	0.045	0.454	
0.41	0.587	0.056	0.193	0.044	0.502	
