Measured thermophysical data. Measurement and Correlation of the Solubilities of Oxygen, Nitrogen, and Carbon Dioxide in JP-10
Source: J. Chem. Eng. Data, 2017, 10.1021/acs.jced.7b00692
Compound 1: exo-tetrahydrodicyclopentadiene, C10H16, InChI=1S/C10H16/c1-2-9-7-4-5-8(6-7)10(9)3-1/h7-10H,1-6H2/t7-,8+,9+,10-, purity 99%
Compound 2: carbon dioxide, CO2, InChI=1S/CO2/c2-1-3, purity 99.999%
Compound 3: nitrogen, N2, InChI=1S/N2/c1-2, purity 99.999%
Compound 4: oxygen, O2, InChI=1S/O2/c1-2, purity 99.999%
Compound 5: 1-hexyl-3-methylimidazolium bis[(trifluoromethyl)sulfonyl]imide, C12H19F6N3O4S2, InChI=1S/C10H19N2.C2F6NO4S2/c1-3-4-5-6-7-12-9-8-11(2)10-12;3-1(4,5)14(10,11)9-15(12,13)2(6,7)8/h8-10H,3-7H2,1-2H3;/q+1;-1, purity 99%

System: carbon dioxide + 1-hexyl-3-methylimidazolium bis[(trifluoromethyl)sulfonyl]imide; phases: Liquid, Gas
Property: Mole fraction of carbon dioxide (Liquid); method: Phase equilibration
Temperature, K	Pressure, kPa	Mole fraction of carbon dioxide	uncertainty
323.4	588	0.1136	0.0019
324.6	1231	0.2193	0.0027
323.2	2272	0.3476	0.0039
324	2940	0.4265	0.0048
323.4	5126	0.5503	0.0054

System: oxygen + exo-tetrahydrodicyclopentadiene; phases: Liquid, Gas
Property: Mole fraction of oxygen (Liquid); method: Phase equilibration
Temperature, K	Pressure, kPa	Mole fraction of oxygen	uncertainty
303.08	1992	0.0193	0.0008
303.11	3115	0.0323	0.0009
303.1	4243	0.0448	0.0013
302.99	6527	0.065	0.0019
313.1	2059	0.021	0.0007
313.12	3223	0.0346	0.0009
313.18	4397	0.0473	0.0013
313.04	6770	0.0704	0.0018
323.14	2126	0.0225	0.0007
323.15	3333	0.0365	0.0009
323.19	4557	0.0476	0.0013
323.07	7018	0.0742	0.0018
333.17	2193	0.0241	0.0007
333.15	3442	0.0382	0.0009
333.18	4710	0.0501	0.0013
333.22	7268	0.0777	0.0018
343.19	2262	0.0251	0.0007
343.19	3551	0.0403	0.0009
343.18	4863	0.0524	0.0013
343.16	7516	0.0806	0.0018

System: nitrogen + exo-tetrahydrodicyclopentadiene; phases: Liquid, Gas
Property: Mole fraction of nitrogen (Liquid); method: Phase equilibration
Temperature, K	Pressure, kPa	Mole fraction of nitrogen	uncertainty
293.83	1730	0.0109	0.0004
292.7	2432	0.0154	0.0006
293.87	2896	0.0187	0.0006
293.19	4159	0.028	0.0008
303.66	1790	0.0116	0.0009
303.93	2531	0.0166	0.0004
303.63	3000	0.0198	0.0006
303.87	3609	0.0242	0.0006
303.03	4314	0.0294	0.0008
312.42	1844	0.0123	0.0009
312.86	2611	0.0175	0.0004
314.03	3110	0.0211	0.0006
312.45	3719	0.0257	0.0008
313.54	4481	0.0309	0.0009
323.2	1911	0.0132	0.0004
322.72	2698	0.0186	0.0006
322.16	3197	0.0219	0.0006
322.46	3850	0.0268	0.0008
323.7	4641	0.0327	0.0009
332.62	1968	0.0141	0.0004
333.04	2788	0.0199	0.0006
333.59	3315	0.024	0.0006
332.97	3987	0.028	0.0008
333.37	4794	0.0341	0.0009

System: carbon dioxide + exo-tetrahydrodicyclopentadiene; phases: Liquid, Gas
Property: Mole fraction of carbon dioxide (Liquid); method: Phase equilibration
Temperature, K	Pressure, kPa	Mole fraction of carbon dioxide	uncertainty
293.91	577	0.0396	0.0005
293.46	891	0.0617	0.0008
292.37	1623	0.116	0.0011
293.35	2142	0.1533	0.0014
293.29	2878	0.2152	0.0017
293.27	3629	0.276	0.002
303.68	607	0.0378	0.0006
302.2	933	0.0592	0.0008
303.66	1735	0.1091	0.001
302.47	2266	0.1462	0.0014
303.61	3101	0.201	0.0017
313.32	2411	0.1391	0.0014
313.78	3304	0.1916	0.0017
313.48	4219	0.2448	0.002
322.86	664	0.035	0.0006
323.72	1035	0.0543	0.0008
322.38	1913	0.1007	0.001
323.7	2544	0.1339	0.0014
323.21	3485	0.185	0.0017
322.63	4474	0.235	0.0019
333.08	693	0.034	0.0006
333.29	1077	0.053	0.0008
303.83	3942	0.258	0.002
312.24	632	0.0365	0.0005
312.69	984	0.0564	0.0008
313.86	1831	0.1045	0.001
333.31	2014	0.0969	0.001
333.58	2667	0.1302	0.0014
332.54	3667	0.1784	0.0017
332.54	4745	0.2261	0.0019
