Measured thermophysical data. Speed of Sound, Density, and Derivative Properties of Tris(2-ethylhexyl) Trimellitate under High Pressure
Source: J. Chem. Eng. Data, 2017, 10.1021/acs.jced.7b00162
Compound 1: tris(2-ethylhexyl) trimellitate, C33H54O6, InChI=1S/C33H54O6/c1-7-13-16-25(10-4)22-37-31(34)28-19-20-29(32(35)38-23-26(11-5)17-14-8-2)30(21-28)33(36)39-24-27(12-6)18-15-9-3/h19-21,25-27H,7-18,22-24H2,1-6H3

System: tris(2-ethylhexyl) trimellitate; phases: Liquid
Fixed: Frequency, MHz = 3
Property: Speed of sound, m/s (Liquid); method: Pulse-echo method
Pressure, kPa	Temperature, K	Speed of sound, m/s	uncertainty
101.3	293.05	1421.3	1.4
10000	293.05	1466	1.4
20000	293.05	1507.2	1.4
30000	293.05	1545	1.4
40000	293.05	1580.3	1.4
101.3	303.15	1385.4	1.4
10000	303.15	1430.5	1.4
20000	303.15	1473.7	1.4
30000	303.15	1513.3	1.4
40000	303.15	1548.7	1.4
50000	303.15	1583.6	1.4
60000	303.15	1617.5	1.4
70000	303.15	1649.8	1.4
101.3	313.35	1352.8	1.4
10000	313.35	1396.8	1.4
20000	313.35	1441.2	1.4
30000	313.35	1480.4	1.4
40000	313.35	1518.6	1.4
50000	313.35	1553.8	1.4
60000	313.35	1587.7	1.4
70000	313.35	1621.3	1.4
80000	313.35	1651.5	1.4
90000	313.35	1682.7	1.4
100000	313.35	1712.8	1.5
120000	313.35	1769.5	1.5
101.3	323.45	1319.3	1.4
10000	323.45	1365.3	1.4
20000	323.45	1410.1	1.4
30000	323.45	1450.4	1.4
40000	323.45	1488.3	1.4
50000	323.45	1525.4	1.4
60000	323.45	1560.4	1.4
70000	323.45	1593.6	1.4
80000	323.45	1626.3	1.4
90000	323.45	1656.1	1.4
100000	323.45	1685.2	1.5
120000	323.45	1740.7	1.5
140100	323.45	1796	1.5
160100	323.45	1846.7	1.5
180100	323.45	1896.3	1.5
101.3	333.55	1286.6	1.4
10000	333.55	1334.6	1.3
20000	333.55	1380.2	1.3
30000	333.55	1421.5	1.3
40000	333.55	1460.8	1.3
50000	333.55	1497.8	1.3
60000	333.55	1533.6	1.3
70000	333.55	1567.4	1.4
80000	333.55	1599.7	1.4
90000	333.55	1631.7	1.4
100000	333.55	1661.2	1.5
120000	333.55	1718.9	1.5
140100	333.55	1773.1	1.5
160100	333.55	1827.1	1.5
180100	333.55	1876.8	1.5
200100	333.55	1918.9	1.5
101.3	343.75	1255.2	1.3
10000	343.75	1304.6	1.3
20000	343.75	1351.5	1.3
30000	343.75	1394.3	1.3
40000	343.75	1435.8	1.3
50000	343.75	1473.9	1.3
60000	343.75	1509.7	1.3
70000	343.75	1543.2	1.3
80000	343.75	1576.1	1.3
90000	343.75	1606.9	1.4
100000	343.75	1637.9	1.5
120000	343.75	1693.4	1.5
140100	343.75	1746.9	1.5
160100	343.75	1800.3	1.5
180100	343.75	1849.1	1.5
200100	343.75	1897.6	1.5
101.3	353.85	1223.4	1.3
10000	353.85	1275.3	1.3
20000	353.85	1323.4	1.3
30000	353.85	1367.7	1.3
40000	353.85	1409	1.3
50000	353.85	1447.4	1.3
60000	353.85	1483.9	1.3
70000	353.85	1519.4	1.3
80000	353.85	1553	1.3
90000	353.85	1585	1.3
100000	353.85	1615.2	1.5
120000	353.85	1674.1	1.5
140100	353.85	1727.9	1.5
160100	353.85	1779.5	1.5
180100	353.85	1831	1.5
200100	353.85	1881	1.5
101.3	364.15	1193.4	1.3
10000	364.15	1246.7	1.3
20000	364.15	1295.6	1.3
30000	364.15	1341.9	1.3
40000	364.15	1383.1	1.3
50000	364.15	1422.8	1.3
60000	364.15	1460.6	1.3
70000	364.15	1495.8	1.3
80000	364.15	1529.5	1.3
90000	364.15	1562.4	1.3
100000	364.15	1593.8	1.5
120000	364.15	1651.8	1.5
140100	364.15	1706.1	1.5
160100	364.15	1758.6	1.5
180100	364.15	1810.3	1.5
200100	364.15	1856.9	1.5
101.3	374.25	1164.3	1.3
10000	374.25	1218.4	1.3
20000	374.25	1268.4	1.3
30000	374.25	1315.7	1.3
40000	374.25	1357.8	1.3
50000	374.25	1399.1	1.3
60000	374.25	1437.8	1.3
70000	374.25	1473.9	1.3
80000	374.25	1508.5	1.3
90000	374.25	1541	1.3
100000	374.25	1572.3	1.5
120000	374.25	1632.1	1.5
140100	374.25	1686.4	1.4
160100	374.25	1737.9	1.5
180100	374.25	1788.7	1.5
200100	374.25	1837.5	1.5

System: tris(2-ethylhexyl) trimellitate; phases: Liquid
Property: Mass density, kg/m3 (Liquid); method: Vibrating tube method
Pressure, kPa	Temperature, K	Mass density, kg/m3	uncertainty
101.3	293.15	988	1
10000	293.15	993.5	1
20000	293.15	998.9	1
30000	293.15	1003.9	1
40000	293.15	1008.7	1
50000	293.15	1013.4	1
60000	293.15	1017.7	1.1
70000	293.15	1022	1.1
80000	293.15	1026.1	1.1
90000	293.15	1030.1	1.1
100000	293.15	1033.9	1.1
110000	293.15	1037.6	1.1
120000	293.15	1041.2	1.1
130000	293.15	1044.8	1.1
140000	293.15	1048.1	1.2
101.3	343.15	952.6	1
10000	343.15	959.3	1
20000	343.15	965.8	1
30000	343.15	971.8	1
40000	343.15	977.8	1
50000	343.15	983.1	1
60000	343.15	988.3	1
70000	343.15	993.1	1
80000	343.15	997.8	1
90000	343.15	1002.3	1
100000	343.15	1006.6	1
110000	343.15	1010.9	1
120000	343.15	1014.9	1.1
130000	343.15	1018.8	1.1
140000	343.15	1022.6	1.1
101.3	303.15	980.8	1
10000	303.15	986.6	1
20000	303.15	992.3	1
30000	303.15	997.6	1
40000	303.15	1002.6	1
50000	303.15	1007.4	1
60000	303.15	1012	1
70000	303.15	1016.3	1.1
80000	303.15	1020.5	1.1
90000	303.15	1024.5	1.1
100000	303.15	1028.4	1.1
110000	303.15	1032.2	1.1
120000	303.15	1035.9	1.1
130000	303.15	1039.4	1.1
140000	303.15	1042.9	1.1
101.3	353.15	944.2	1
10000	353.15	951.9	1
20000	353.15	958.7	1
30000	353.15	965.1	1
40000	353.15	970.9	1
50000	353.15	976.5	1
60000	353.15	981.9	1
70000	353.15	986.9	1
80000	353.15	991.7	1
90000	353.15	996.2	1
100000	353.15	1000.5	1
110000	353.15	1004.7	1
120000	353.15	1008.8	1
130000	353.15	1012.9	1.1
140000	353.15	1016.6	1.1
101.3	313.15	973.5	1
10000	313.15	979.7	1
20000	313.15	985.5	1
30000	313.15	990.9	1
40000	313.15	996.1	1
50000	313.15	1000.9	1
60000	313.15	1005.6	1
70000	313.15	1010.1	1
80000	313.15	1014.5	1
90000	313.15	1018.6	1.1
100000	313.15	1022.7	1.1
110000	313.15	1026.7	1.1
120000	313.15	1030.4	1.1
130000	313.15	1034	1.1
140000	313.15	1037.5	1.1
101.3	363.15	937.1	1
10000	363.15	945	1
20000	363.15	952.1	1
30000	363.15	958.6	1
40000	363.15	964.8	1
50000	363.15	970.5	1
60000	363.15	976	1
70000	363.15	981.2	1
80000	363.15	986.2	1
90000	363.15	990.7	1
100000	363.15	995.1	1
110000	363.15	999.5	1
120000	363.15	1003.7	1
130000	363.15	1007.7	1
140000	363.15	1011.7	1
101.3	323.15	966.9	1
10000	323.15	973.1	1
20000	323.15	979.1	1
30000	323.15	984.7	1
40000	323.15	989.8	1
50000	323.15	994.9	1
60000	323.15	999.7	1
70000	323.15	1004.3	1
80000	323.15	1008.7	1
90000	323.15	1012.9	1
100000	323.15	1017.1	1.1
110000	323.15	1021	1.1
120000	323.15	1025	1.1
130000	323.15	1028.5	1.1
140000	323.15	1032.3	1.1
101.3	373.15	929.2	1
10000	373.15	937.9	1
20000	373.15	945.3	1
30000	373.15	952.1	1
40000	373.15	958.5	1
50000	373.15	964.5	1
60000	373.15	970	1
70000	373.15	975.2	1
80000	373.15	980.2	1
90000	373.15	985.2	1
100000	373.15	989.8	1
110000	373.15	994.5	1
120000	373.15	998.8	1
130000	373.15	1002.8	1
140000	373.15	1006.6	1
101.3	333.15	959.9	1
10000	333.15	966.5	1
20000	333.15	972.8	1
30000	333.15	978.7	1
40000	333.15	984	1
50000	333.15	989.2	1
60000	333.15	994.2	1
70000	333.15	999	1
80000	333.15	1003.5	1
90000	333.15	1008	1
100000	333.15	1012.2	1
110000	333.15	1016.2	1.1
120000	333.15	1020.1	1.1
130000	333.15	1023.9	1.1
140000	333.15	1027.5	1.1

System: tris(2-ethylhexyl) trimellitate; phases: Liquid
Fixed: Pressure, kPa = 101.325
Property: Molar heat capacity at constant pressure, J/K/mol (Liquid); method: Extra sensitive DSC
Temperature, K	Molar heat capacity at constant pressure, J/K/mol	uncertainty
297.91	991.30898538	38.2744782
307.79	1004.97844188	38.82125646
317.66	1019.7414549	39.36803472
327.54	1034.50446792	39.91481298
337.42	1048.72070268	40.46159124
347.29	1062.93693744	41.0083695
357.17	1076.60639394	41.55514776
367.05	1091.36940696	42.10192602
376.92	1107.2259765	42.64870428
386.8	1123.08254604	43.7422608
