Measured thermophysical data. Densities, Viscosities, and Refractive Indices of Binary Room-Temperature Ionic Liquids with Common Cations/Anions
Source: J. Chem. Eng. Data, 2019, 10.1021/acs.jced.8b00334
Compound 1: 1-butylpyridinium bis(fluorosulfonyl)amide, C9H14F2N2O4S2, InChI=1S/C9H14N.F2NO4S2/c1-2-3-7-10-8-5-4-6-9-10;1-8(4,5)3-9(2,6)7/h4-6,8-9H,2-3,7H2,1H3;/q+1;-1, purity 98%
Compound 2: 1-butylpyridinium tetrafluoroborate, C9H14BF4N, InChI=1S/C9H14N.BF4/c1-2-3-7-10-8-5-4-6-9-10;2-1(3,4)5/h4-6,8-9H,2-3,7H2,1H3;/q+1;-1, purity 98%
Compound 3: 1-methyl-1-propylpiperidinium bis(trifluoromethylsulfonyl)imide, C11H20F6N2O4S2, InChI=1S/C9H20N.C2F6NO4S2/c1-3-7-10(2)8-5-4-6-9-10;3-1(4,5)14(10,11)9-15(12,13)2(6,7)8/h3-9H2,1-2H3;/q+1;-1, purity 98%
Compound 4: 1-methyl-1-propylpiperidinium bis(fluorosulfonyl)imide, C9H20F2N2O4S2, InChI=1S/C9H20N.F2NO4S2/c1-3-7-10(2)8-5-4-6-9-10;1-8(4,5)3-9(2,6)7/h3-9H2,1-2H3;/q+1;-1, purity 98%
Compound 5: 1-butyl-1-methylpyrrolidinium bis(fluorosulfonyl)amide, C9H20F2N2O4S2, InChI=1S/C9H20N.F2NO4S2/c1-3-4-7-10(2)8-5-6-9-10;1-8(4,5)3-9(2,6)7/h3-9H2,1-2H3;/q+1;-1, purity 98%
Compound 6: 1-butyl-1-methylpyrrolidinium bis(oxalato)borate, C13H20BNO8, InChI=1S/C9H20N.C4BO8/c1-3-4-7-10(2)8-5-6-9-10;6-1-2(7)11-5(10-1)12-3(8)4(9)13-5/h3-9H2,1-2H3;/q+1;-1, purity 98%
Compound 7: triethylpentylammonium bis(trifluoromethylsulfonyl)imide, C13H26F6N2O4S2, InChI=1S/C11H26N.C2F6NO4S2/c1-5-9-10-11-12(6-2,7-3)8-4;3-1(4,5)14(10,11)9-15(12,13)2(6,7)8/h5-11H2,1-4H3;/q+1;-1, purity 98%
Compound 8: triethyl(pentyl)phosphonium bis((trifluoromethyl)sulfonyl)amide, C13H26F6NO4PS2, InChI=1S/C11H26P.C2F6NO4S2/c1-5-9-10-11-12(6-2,7-3)8-4;3-1(4,5)14(10,11)9-15(12,13)2(6,7)8/h5-11H2,1-4H3;/q+1;-1, purity 98%
Compound 9: N,N,N-trimethylpropanaminium bis((trifluoromethyl)sulfonyl)amide, C8H16F6N2O4S2, InChI=1S/C6H16N.C2F6NO4S2/c1-5-6-7(2,3)4;3-1(4,5)14(10,11)9-15(12,13)2(6,7)8/h5-6H2,1-4H3;/q+1;-1, purity 98%
Compound 10: 1-methyl-1-propylpyrrolidinium bis[(trifluoromethyl)sulfonyl]imide, C10H18F6N2O4S2, InChI=1S/C8H18N.C2F6NO4S2/c1-3-6-9(2)7-4-5-8-9;3-1(4,5)14(10,11)9-15(12,13)2(6,7)8/h3-8H2,1-2H3;/q+1;-1, purity 98%

System: 1-butylpyridinium bis(fluorosulfonyl)amide; phases: Liquid
Fixed: Pressure, kPa = 101.325
Property: Mass density, kg/m3 (Liquid); method: Vibrating tube method
Temperature, K	Mass density, kg/m3	uncertainty
283.15	1382	10
288.15	1377.7	10.1
293.15	1373.6	10.1
298.15	1369.4	10.1
303.15	1365.2	10.1
308.15	1361.1	10.1
313.15	1356.9	10.1
318.15	1352.8	10.1
323.15	1348.6	10.1
328.15	1344.5	10.1
333.15	1340.4	10.1
338.15	1336.3	10.1
343.15	1332.2	10.1
348.15	1328.1	10.1
353.15	1324	10.1

System: 1-butylpyridinium bis(fluorosulfonyl)amide; phases: Liquid
Fixed: Pressure, kPa = 101.325
Property: Viscosity, Pa*s (Liquid); method: Concentric cylinders viscometry
Temperature, K	Viscosity, Pa*s	uncertainty
283.15	0.076	0.0152
288.15	0.0604	0.0121
293.15	0.0488	0.0098
298.15	0.04	0.008
303.15	0.0333	0.0067
308.15	0.0281	0.0056
313.15	0.024	0.0048
318.15	0.0207	0.0041
323.15	0.018	0.0036
328.15	0.0158	0.0032
333.15	0.0139	0.0028
338.15	0.0124	0.0025
343.15	0.0111	0.0022
348.15	0.01	0.002
353.15	0.0091	0.0018

System: 1-butylpyridinium bis(fluorosulfonyl)amide; phases: Liquid
Fixed: Pressure, kPa = 101.325
Property: Refractive index (Na D-line) (Liquid); method: Standard Abbe refractometry
Temperature, K	Refractive index (Na D-line)	uncertainty
283.15	1.4757	0.0006
288.15	1.4742	0.0006
293.15	1.4727	0.0006
298.15	1.4712	0.0006
303.15	1.4698	0.0006
308.15	1.4683	0.0006
313.15	1.4668	0.0006
318.15	1.4654	0.0006
323.15	1.4639	0.0006
328.15	1.4625	0.0006
333.15	1.461	0.0006
338.15	1.4596	0.0006
343.15	1.4582	0.0006
348.15	1.4568	0.0006
353.15	1.4554	0.0006

System: 1-butylpyridinium tetrafluoroborate; phases: Liquid
Fixed: Pressure, kPa = 101.325
Property: Mass density, kg/m3 (Liquid); method: Vibrating tube method
Temperature, K	Mass density, kg/m3	uncertainty
283.15	1223	10
288.15	1219.4	10.1
293.15	1216	10.1
298.15	1212.6	10.1
303.15	1209.2	10.1
308.15	1205.8	10.1
313.15	1202.5	10.1
318.15	1199.1	10.1
323.15	1195.7	10.1
328.15	1192.3	10.1
333.15	1189	10.1
338.15	1185.6	10.1
343.15	1182.2	10.1
348.15	1178.8	10.1
353.15	1175.5	10.1

System: 1-butylpyridinium tetrafluoroborate; phases: Liquid
Fixed: Pressure, kPa = 101.325
Property: Viscosity, Pa*s (Liquid); method: Concentric cylinders viscometry
Temperature, K	Viscosity, Pa*s	uncertainty
283.15	0.46	0.093
288.15	0.315	0.064
293.15	0.223	0.045
298.15	0.163	0.033
303.15	0.121	0.024
308.15	0.0928	0.0186
313.15	0.0723	0.0145
318.15	0.0574	0.0115
323.15	0.0463	0.0093
328.15	0.038	0.0076
333.15	0.0315	0.0063
338.15	0.0265	0.0053
343.15	0.0226	0.0045
348.15	0.0194	0.0039
353.15	0.0168	0.0034

System: 1-butylpyridinium tetrafluoroborate; phases: Liquid
Fixed: Pressure, kPa = 101.325
Property: Refractive index (Na D-line) (Liquid); method: Standard Abbe refractometry
Temperature, K	Refractive index (Na D-line)	uncertainty
283.15	1.4496	0.0006
288.15	1.4483	0.0006
293.15	1.4469	0.0006
298.15	1.4454	0.0006
303.15	1.4441	0.0006
308.15	1.4427	0.0006
313.15	1.4414	0.0006
318.15	1.4401	0.0006
323.15	1.4388	0.0006
328.15	1.4375	0.0006
333.15	1.4363	0.0006
338.15	1.435	0.0006
343.15	1.4337	0.0006
348.15	1.4324	0.0006
353.15	1.4312	0.0006

System: 1-methyl-1-propylpiperidinium bis(trifluoromethylsulfonyl)imide; phases: Liquid
Fixed: Pressure, kPa = 101.325
Property: Mass density, kg/m3 (Liquid); method: Vibrating tube method
Temperature, K	Mass density, kg/m3	uncertainty
283.15	1422	10
288.15	1417.6	10.1
293.15	1413.2	10.1
298.15	1408.7	10.1
303.15	1404.4	10.1
308.15	1400	10.1
313.15	1395.7	10.1
318.15	1391.3	10.1
323.15	1386.9	10.1
328.15	1382.6	10.1
333.15	1378.3	10.1
338.15	1374	10.1
343.15	1369.7	10.1
348.15	1365.4	10.1
353.15	1361.2	10.1

System: 1-methyl-1-propylpiperidinium bis(trifluoromethylsulfonyl)imide; phases: Liquid
Fixed: Pressure, kPa = 101.325
Property: Viscosity, Pa*s (Liquid); method: Concentric cylinders viscometry
Temperature, K	Viscosity, Pa*s	uncertainty
283.15	0.397	0.08
288.15	0.277	0.056
293.15	0.199	0.04
298.15	0.147	0.03
303.15	0.112	0.022
308.15	0.0866	0.0174
313.15	0.0685	0.0137
318.15	0.0551	0.011
323.15	0.0451	0.009
328.15	0.0373	0.0075
333.15	0.0314	0.0063
338.15	0.0266	0.0053
343.15	0.0229	0.0046
348.15	0.0198	0.004
353.15	0.0173	0.0035

System: 1-methyl-1-propylpiperidinium bis(trifluoromethylsulfonyl)imide; phases: Liquid
Fixed: Pressure, kPa = 101.325
Property: Refractive index (Na D-line) (Liquid); method: Standard Abbe refractometry
Temperature, K	Refractive index (Na D-line)	uncertainty
283.15	1.4312	0.0006
288.15	1.4297	0.0006
293.15	1.4284	0.0006
298.15	1.427	0.0006
303.15	1.4256	0.0006
308.15	1.4242	0.0006
313.15	1.4228	0.0006
318.15	1.4214	0.0006
323.15	1.42	0.0006
328.15	1.4187	0.0006
333.15	1.4173	0.0006
338.15	1.416	0.0006
343.15	1.4146	0.0006
348.15	1.4133	0.0006
353.15	1.412	0.0006

System: 1-methyl-1-propylpiperidinium bis(fluorosulfonyl)imide; phases: Liquid
Fixed: Pressure, kPa = 101.325
Property: Mass density, kg/m3 (Liquid); method: Vibrating tube method
Temperature, K	Mass density, kg/m3	uncertainty
283.15	1317	10
288.15	1313.5	10.1
293.15	1309.6	10.1
298.15	1305.8	10.1
303.15	1301.9	10.1
308.15	1298.1	10.1
313.15	1294.2	10.1
318.15	1290.4	10.1
323.15	1286.6	10.1
328.15	1282.8	10.1
333.15	1279	10.1
338.15	1275.1	10.1
343.15	1271.4	10.1
348.15	1267.5	10.1
353.15	1263.8	10.1

System: 1-methyl-1-propylpiperidinium bis(fluorosulfonyl)imide; phases: Liquid
Fixed: Pressure, kPa = 101.325
Property: Viscosity, Pa*s (Liquid); method: Concentric cylinders viscometry
Temperature, K	Viscosity, Pa*s	uncertainty
283.15	0.0915	0.0183
288.15	0.0744	0.0149
293.15	0.0614	0.0123
298.15	0.0512	0.0103
303.15	0.0433	0.0087
308.15	0.0369	0.0074
313.15	0.0318	0.0064
318.15	0.0276	0.0055
323.15	0.0242	0.0048
328.15	0.0213	0.0043
333.15	0.0189	0.0038
338.15	0.0169	0.0034
343.15	0.0151	0.003
348.15	0.0137	0.0027
353.15	0.0124	0.0025

System: 1-methyl-1-propylpiperidinium bis(fluorosulfonyl)imide; phases: Liquid
Fixed: Pressure, kPa = 101.325
Property: Refractive index (Na D-line) (Liquid); method: Standard Abbe refractometry
Temperature, K	Refractive index (Na D-line)	uncertainty
283.15	1.4488	0.0006
288.15	1.4474	0.0006
293.15	1.446	0.0006
298.15	1.4446	0.0006
303.15	1.4432	0.0006
308.15	1.4418	0.0006
313.15	1.4403	0.0006
318.15	1.439	0.0006
323.15	1.4376	0.0006
328.15	1.4363	0.0006
333.15	1.4349	0.0006
338.15	1.4336	0.0006
343.15	1.4323	0.0006
348.15	1.431	0.0006
353.15	1.4297	0.0006

System: 1-butyl-1-methylpyrrolidinium bis(fluorosulfonyl)amide; phases: Liquid
Fixed: Pressure, kPa = 101.325
Property: Mass density, kg/m3 (Liquid); method: Vibrating tube method
Temperature, K	Mass density, kg/m3	uncertainty
283.15	1331	10
288.15	1326.9	10.1
293.15	1323.1	10.1
298.15	1319.4	10.1
303.15	1315.6	10.1
308.15	1311.8	10.1
313.15	1308.1	10.1
318.15	1304.3	10.1
323.15	1300.5	10.1
328.15	1296.8	10.1
333.15	1293	10.1
338.15	1289.3	10.1
343.15	1285.6	10.1
348.15	1281.8	10.1
353.15	1278.1	10.1

System: 1-butyl-1-methylpyrrolidinium bis(fluorosulfonyl)amide; phases: Liquid
Fixed: Pressure, kPa = 101.325
Property: Viscosity, Pa*s (Liquid); method: Concentric cylinders viscometry
Temperature, K	Viscosity, Pa*s	uncertainty
283.15	0.174	0.035
288.15	0.135	0.027
293.15	0.107	0.021
298.15	0.086	0.0172
303.15	0.0702	0.0141
308.15	0.058	0.0116
313.15	0.0486	0.0097
318.15	0.0412	0.0083
323.15	0.0352	0.0071
328.15	0.0304	0.0061
333.15	0.0264	0.0053
338.15	0.0231	0.0046
343.15	0.0204	0.0041
348.15	0.0181	0.0036
353.15	0.0162	0.0032

System: 1-butyl-1-methylpyrrolidinium bis(fluorosulfonyl)amide; phases: Liquid
Fixed: Pressure, kPa = 101.325
Property: Refractive index (Na D-line) (Liquid); method: Standard Abbe refractometry
Temperature, K	Refractive index (Na D-line)	uncertainty
283.15	1.453	0.0006
288.15	1.4517	0.0006
293.15	1.4503	0.0006
298.15	1.4489	0.0006
303.15	1.4476	0.0006
308.15	1.4462	0.0006
313.15	1.4449	0.0006
318.15	1.4436	0.0006
323.15	1.4422	0.0006
328.15	1.4409	0.0006
333.15	1.4396	0.0006
338.15	1.4383	0.0006
343.15	1.437	0.0006
348.15	1.4357	0.0006
353.15	1.4344	0.0006

System: 1-butyl-1-methylpyrrolidinium bis(oxalato)borate; phases: Liquid
Fixed: Pressure, kPa = 101.325
Property: Mass density, kg/m3 (Liquid); method: Vibrating tube method
Temperature, K	Mass density, kg/m3	uncertainty
303.15	1254.8	10.1
308.15	1250.7	10.1
313.15	1246.5	10.1
318.15	1242.3	10.1
323.15	1238.1	10.1
328.15	1234.1	10.1
333.15	1230	10.1
338.15	1226.1	10.1
343.15	1222.1	10.1
348.15	1218.1	10.1
353.15	1214	10.1

System: 1-butyl-1-methylpyrrolidinium bis(oxalato)borate; phases: Liquid
Fixed: Pressure, kPa = 101.325
Property: Viscosity, Pa*s (Liquid); method: Concentric cylinders viscometry
Temperature, K	Viscosity, Pa*s	uncertainty
303.15	1.732	0.355
308.15	1.055	0.215
313.15	0.674	0.137
318.15	0.448	0.091
323.15	0.309	0.062
328.15	0.219	0.044
333.15	0.16	0.032
338.15	0.12	0.024
343.15	0.0922	0.0185
348.15	0.0723	0.0145
353.15	0.0576	0.0115

System: 1-butyl-1-methylpyrrolidinium bis(oxalato)borate; phases: Liquid
Fixed: Pressure, kPa = 101.325
Property: Refractive index (Na D-line) (Liquid); method: Standard Abbe refractometry
Temperature, K	Refractive index (Na D-line)	uncertainty
303.15	1.4685	0.0006
308.15	1.4669	0.0006
313.15	1.4653	0.0006
318.15	1.4638	0.0006
323.15	1.4622	0.0006
328.15	1.4607	0.0006
333.15	1.4591	0.0006
338.15	1.4576	0.0006
343.15	1.4561	0.0006
348.15	1.4546	0.0006
353.15	1.4531	0.0006

System: triethylpentylammonium bis(trifluoromethylsulfonyl)imide; phases: Liquid
Fixed: Pressure, kPa = 101.325
Property: Mass density, kg/m3 (Liquid); method: Vibrating tube method
Temperature, K	Mass density, kg/m3	uncertainty
283.15	1324	10
288.15	1319.1	10.1
293.15	1314.9	10.1
298.15	1310.7	10.1
303.15	1306.6	10.1
308.15	1302.5	10.1
313.15	1298.4	10.1
318.15	1294.3	10.1
323.15	1290.2	10.1
328.15	1286	10.1
333.15	1281.9	10.1
338.15	1277.7	10.1
343.15	1273.6	10.1
348.15	1269.4	10.1
353.15	1265.3	10.1

System: triethylpentylammonium bis(trifluoromethylsulfonyl)imide; phases: Liquid
Fixed: Pressure, kPa = 101.325
Property: Viscosity, Pa*s (Liquid); method: Concentric cylinders viscometry
Temperature, K	Viscosity, Pa*s	uncertainty
283.15	0.479	0.097
288.15	0.329	0.066
293.15	0.233	0.047
298.15	0.169	0.034
303.15	0.126	0.025
308.15	0.0964	0.0193
313.15	0.0751	0.015
318.15	0.0596	0.0119
323.15	0.048	0.0096
328.15	0.0393	0.0079
333.15	0.0326	0.0065
338.15	0.0274	0.0055
343.15	0.0233	0.0047
348.15	0.0199	0.004
353.15	0.0173	0.0035

System: triethylpentylammonium bis(trifluoromethylsulfonyl)imide; phases: Liquid
Fixed: Pressure, kPa = 101.325
Property: Refractive index (Na D-line) (Liquid); method: Standard Abbe refractometry
Temperature, K	Refractive index (Na D-line)	uncertainty
283.15	1.4288	0.0006
288.15	1.4274	0.0006
293.15	1.426	0.0006
298.15	1.4246	0.0006
303.15	1.4232	0.0006
308.15	1.4218	0.0006
313.15	1.4203	0.0006
318.15	1.419	0.0006
323.15	1.4176	0.0006
328.15	1.4162	0.0006
333.15	1.4148	0.0006
338.15	1.4134	0.0006
343.15	1.412	0.0006
348.15	1.4107	0.0006
353.15	1.4093	0.0006

System: triethyl(pentyl)phosphonium bis((trifluoromethyl)sulfonyl)amide; phases: Liquid
Fixed: Pressure, kPa = 101.325
Property: Mass density, kg/m3 (Liquid); method: Vibrating tube method
Temperature, K	Mass density, kg/m3	uncertainty
283.15	1314	10
288.15	1310.2	10.1
293.15	1306	10.1
298.15	1301.9	10.1
303.15	1297.8	10.1
308.15	1293.6	10.1
313.15	1289.5	10.1
318.15	1285.3	10.1
323.15	1281.2	10.1
328.15	1277	10.1
333.15	1272.9	10.1
338.15	1268.7	10.1
343.15	1264.6	10.1
348.15	1260.4	10.1
353.15	1256.3	10.1

System: triethyl(pentyl)phosphonium bis((trifluoromethyl)sulfonyl)amide; phases: Liquid
Fixed: Pressure, kPa = 101.325
Property: Viscosity, Pa*s (Liquid); method: Concentric cylinders viscometry
Temperature, K	Viscosity, Pa*s	uncertainty
283.15	0.203	0.041
288.15	0.15	0.03
293.15	0.113	0.023
298.15	0.0875	0.0175
303.15	0.0688	0.0138
308.15	0.0549	0.011
313.15	0.0445	0.0089
318.15	0.0366	0.0073
323.15	0.0305	0.0061
328.15	0.0256	0.0051
333.15	0.0218	0.0044
338.15	0.0187	0.0037
343.15	0.0162	0.0032
348.15	0.0142	0.0028
353.15	0.0125	0.0025

System: triethyl(pentyl)phosphonium bis((trifluoromethyl)sulfonyl)amide; phases: Liquid
Fixed: Pressure, kPa = 101.325
Property: Refractive index (Na D-line) (Liquid); method: Standard Abbe refractometry
Temperature, K	Refractive index (Na D-line)	uncertainty
283.15	1.4383	0.0006
288.15	1.4368	0.0006
293.15	1.4354	0.0006
298.15	1.4339	0.0006
303.15	1.4325	0.0006
308.15	1.4311	0.0006
313.15	1.4296	0.0006
318.15	1.4282	0.0006
323.15	1.4267	0.0006
328.15	1.4253	0.0006
333.15	1.4239	0.0006
338.15	1.4225	0.0006
343.15	1.421	0.0006
348.15	1.4196	0.0006
353.15	1.4182	0.0006

System: N,N,N-trimethylpropanaminium bis((trifluoromethyl)sulfonyl)amide; phases: Liquid
Fixed: Pressure, kPa = 101.325
Property: Mass density, kg/m3 (Liquid); method: Vibrating tube method
Temperature, K	Mass density, kg/m3	uncertainty
283.15	1441	10
288.15	1436.2	10.1
293.15	1431.7	10.1
298.15	1427.1	10.1
303.15	1422.6	10.1
308.15	1418.1	10.1
313.15	1413.6	10.1
318.15	1409.1	10.1
323.15	1404.7	10.1
328.15	1400.2	10.1
333.15	1395.8	10.1
338.15	1391.4	10.1
343.15	1387	10.1
348.15	1382.7	10.1
353.15	1378.3	10.1

System: N,N,N-trimethylpropanaminium bis((trifluoromethyl)sulfonyl)amide; phases: Liquid
Fixed: Pressure, kPa = 101.325
Property: Viscosity, Pa*s (Liquid); method: Concentric cylinders viscometry
Temperature, K	Viscosity, Pa*s	uncertainty
283.15	0.179	0.036
288.15	0.133	0.027
293.15	0.102	0.02
298.15	0.0794	0.0159
303.15	0.0632	0.0127
308.15	0.0511	0.0102
313.15	0.042	0.0084
318.15	0.035	0.007
323.15	0.0295	0.0059
328.15	0.0252	0.005
333.15	0.0217	0.0043
338.15	0.0188	0.0038
343.15	0.0165	0.0033
348.15	0.0146	0.0029
353.15	0.0129	0.0026

System: N,N,N-trimethylpropanaminium bis((trifluoromethyl)sulfonyl)amide; phases: Liquid
Fixed: Pressure, kPa = 101.325
Property: Refractive index (Na D-line) (Liquid); method: Standard Abbe refractometry
Temperature, K	Refractive index (Na D-line)	uncertainty
283.15	1.4089	0.0006
288.15	1.4076	0.0006
293.15	1.4062	0.0006
298.15	1.4049	0.0006
303.15	1.4036	0.0006
308.15	1.4022	0.0006
313.15	1.4009	0.0006
318.15	1.3996	0.0006
323.15	1.3983	0.0006
328.15	1.397	0.0006
333.15	1.3957	0.0006
338.15	1.3944	0.0006
343.15	1.3931	0.0006
348.15	1.3918	0.0006
353.15	1.3906	0.0006

System: 1-methyl-1-propylpyrrolidinium bis[(trifluoromethyl)sulfonyl]imide; phases: Liquid
Fixed: Pressure, kPa = 101.325
Property: Mass density, kg/m3 (Liquid); method: Vibrating tube method
Temperature, K	Mass density, kg/m3	uncertainty
283.15	1441	10
288.15	1436.4	10.1
293.15	1431.9	10.1
298.15	1427.4	10.1
303.15	1422.8	10.1
308.15	1418.3	10.1
313.15	1413.8	10.1
318.15	1409.3	10.1
323.15	1404.8	10.1
328.15	1400.4	10.1
333.15	1396	10.1
338.15	1391.6	10.1
343.15	1387.2	10.1
348.15	1382.9	10.1
353.15	1378.6	10.1

System: 1-methyl-1-propylpyrrolidinium bis[(trifluoromethyl)sulfonyl]imide; phases: Liquid
Fixed: Pressure, kPa = 101.325
Property: Viscosity, Pa*s (Liquid); method: Concentric cylinders viscometry
Temperature, K	Viscosity, Pa*s	uncertainty
283.15	0.126	0.025
288.15	0.0972	0.0195
293.15	0.0764	0.0153
298.15	0.0612	0.0123
303.15	0.0498	0.01
308.15	0.0411	0.0082
313.15	0.0344	0.0069
318.15	0.0292	0.0058
323.15	0.025	0.005
328.15	0.0216	0.0043
333.15	0.0188	0.0038
338.15	0.0166	0.0033
343.15	0.0147	0.0029
348.15	0.0131	0.0026
353.15	0.0117	0.0023

System: 1-methyl-1-propylpyrrolidinium bis[(trifluoromethyl)sulfonyl]imide; phases: Liquid
Fixed: Pressure, kPa = 101.325
Property: Refractive index (Na D-line) (Liquid); method: Standard Abbe refractometry
Temperature, K	Refractive index (Na D-line)	uncertainty
283.15	1.4247	0.0006
288.15	1.4234	0.0006
293.15	1.422	0.0006
298.15	1.4206	0.0006
303.15	1.4193	0.0006
308.15	1.4179	0.0006
313.15	1.4166	0.0006
318.15	1.4152	0.0006
323.15	1.4139	0.0006
328.15	1.4125	0.0006
333.15	1.4112	0.0006
338.15	1.4099	0.0006
343.15	1.4085	0.0006
348.15	1.4072	0.0006
353.15	1.4059	0.0006

System: 1-butylpyridinium bis(fluorosulfonyl)amide + 1-butylpyridinium tetrafluoroborate; phases: Liquid
Fixed: Pressure, kPa = 101.3
Property: Mass density, kg/m3 (Liquid); method: Vibrating tube method
Temperature, K	Mole fraction of 1-butylpyridinium bis(fluorosulfonyl)amide	Mass density, kg/m3	uncertainty
283.15	0	1223	10
288.15	0	1219.4	10.1
293.15	0	1216	10.1
298.15	0	1212.6	10.1
303.15	0	1209.2	10.1
308.15	0	1205.8	10.1
313.15	0	1202.5	10.1
318.15	0	1199.1	10.1
323.15	0	1195.7	10.1
328.15	0	1192.3	10.1
333.15	0	1189	10.1
338.15	0	1185.6	10.1
343.15	0	1182.2	10.1
348.15	0	1178.8	10.1
353.15	0	1175.5	10.1
283.15	0.2	1260	11
288.15	0.2	1256.6	10.7
293.15	0.2	1253	10.7
298.15	0.2	1249.5	10.7
303.15	0.2	1245.9	10.7
308.15	0.2	1242.4	10.7
313.15	0.2	1238.8	10.6
318.15	0.2	1235.3	10.6
323.15	0.2	1231.7	10.6
328.15	0.2	1228.1	10.6
333.15	0.2	1224.6	10.6
338.15	0.2	1221	10.6
343.15	0.2	1217.5	10.6
348.15	0.2	1213.9	10.6
353.15	0.2	1210.4	10.6
283.15	0.4	1294	11
288.15	0.4	1289.9	10.6
293.15	0.4	1286.2	10.6
298.15	0.4	1282.5	10.6
303.15	0.4	1278.7	10.6
308.15	0.4	1275	10.6
313.15	0.4	1271.3	10.6
318.15	0.4	1267.6	10.6
323.15	0.4	1263.8	10.6
328.15	0.4	1260.1	10.5
333.15	0.4	1256.4	10.5
338.15	0.4	1252.7	10.5
343.15	0.4	1249	10.5
348.15	0.4	1245.3	10.5
353.15	0.4	1241.6	10.5
283.15	0.6	1325	11
288.15	0.6	1320.9	10.5
293.15	0.6	1317	10.5
298.15	0.6	1313.2	10.5
303.15	0.6	1309.3	10.5
308.15	0.6	1305.4	10.5
313.15	0.6	1301.5	10.5
318.15	0.6	1297.6	10.5
323.15	0.6	1293.8	10.5
328.15	0.6	1289.9	10.5
333.15	0.6	1286	10.5
338.15	0.6	1282.2	10.5
343.15	0.6	1278.3	10.5
348.15	0.6	1274.5	10.5
353.15	0.6	1270.7	10.5
283.15	0.8	1354	11
288.15	0.8	1350.2	10.5
293.15	0.8	1346.2	10.5
298.15	0.8	1342.2	10.5
303.15	0.8	1338.2	10.5
308.15	0.8	1334.1	10.5
313.15	0.8	1330.1	10.5
318.15	0.8	1326.1	10.5
323.15	0.8	1322.1	10.5
328.15	0.8	1318.1	10.5
333.15	0.8	1314.1	10.5
338.15	0.8	1310.1	10.5
343.15	0.8	1306.1	10.5
348.15	0.8	1302.1	10.4
353.15	0.8	1298.2	10.4
283.15	1	1382	10
288.15	1	1377.7	10.1
293.15	1	1373.6	10.1
298.15	1	1369.4	10.1
303.15	1	1365.2	10.1
308.15	1	1361.1	10.1
313.15	1	1356.9	10.1
318.15	1	1352.8	10.1
323.15	1	1348.6	10.1
328.15	1	1344.5	10.1
333.15	1	1340.4	10.1
338.15	1	1336.3	10.1
343.15	1	1332.2	10.1
348.15	1	1328.1	10.1
353.15	1	1324	10.1

System: 1-butylpyridinium bis(fluorosulfonyl)amide + 1-butylpyridinium tetrafluoroborate; phases: Liquid
Fixed: Pressure, kPa = 101.3
Property: Viscosity, Pa*s (Liquid); method: Concentric cylinders viscometry
Temperature, K	Mole fraction of 1-butylpyridinium bis(fluorosulfonyl)amide	Viscosity, Pa*s	uncertainty
283.15	0	0.46	0.093
288.15	0	0.315	0.064
293.15	0	0.223	0.045
298.15	0	0.163	0.033
303.15	0	0.121	0.024
308.15	0	0.0928	0.0186
313.15	0	0.0723	0.0145
318.15	0	0.0574	0.0115
323.15	0	0.0463	0.0093
328.15	0	0.038	0.0076
333.15	0	0.0315	0.0063
338.15	0	0.0265	0.0053
343.15	0	0.0226	0.0045
348.15	0	0.0194	0.0039
353.15	0	0.0168	0.0034
283.15	0.2	0.275	0.057
288.15	0.2	0.198	0.041
293.15	0.2	0.146	0.03
298.15	0.2	0.111	0.023
303.15	0.2	0.0857	0.0174
308.15	0.2	0.0675	0.0137
313.15	0.2	0.0542	0.011
318.15	0.2	0.0441	0.0089
323.15	0.2	0.0364	0.0073
328.15	0.2	0.0305	0.0061
333.15	0.2	0.0258	0.0052
338.15	0.2	0.022	0.0044
343.15	0.2	0.019	0.0038
348.15	0.2	0.0166	0.0033
353.15	0.2	0.0145	0.0029
283.15	0.4	0.18	0.037
288.15	0.4	0.135	0.028
293.15	0.4	0.103	0.021
298.15	0.4	0.0802	0.0163
303.15	0.4	0.0637	0.0129
308.15	0.4	0.0514	0.0104
313.15	0.4	0.0421	0.0085
318.15	0.4	0.035	0.0071
323.15	0.4	0.0294	0.0059
328.15	0.4	0.025	0.005
333.15	0.4	0.0215	0.0043
338.15	0.4	0.0186	0.0037
343.15	0.4	0.0163	0.0033
348.15	0.4	0.0143	0.0029
353.15	0.4	0.0127	0.0025
283.15	0.6	0.128	0.026
288.15	0.6	0.0983	0.0199
293.15	0.6	0.0769	0.0156
298.15	0.6	0.0612	0.0124
303.15	0.6	0.0496	0.01
308.15	0.6	0.0407	0.0082
313.15	0.6	0.0339	0.0068
318.15	0.6	0.0286	0.0058
323.15	0.6	0.0244	0.0049
328.15	0.6	0.021	0.0042
333.15	0.6	0.0182	0.0037
338.15	0.6	0.016	0.0032
343.15	0.6	0.0141	0.0028
348.15	0.6	0.0125	0.0025
353.15	0.6	0.0112	0.0022
283.15	0.8	0.0943	0.0191
288.15	0.8	0.0739	0.0149
293.15	0.8	0.059	0.0119
298.15	0.8	0.0478	0.0096
303.15	0.8	0.0394	0.0079
308.15	0.8	0.0329	0.0066
313.15	0.8	0.0278	0.0056
318.15	0.8	0.0237	0.0048
323.15	0.8	0.0205	0.0041
328.15	0.8	0.0178	0.0036
333.15	0.8	0.0156	0.0031
338.15	0.8	0.0138	0.0028
343.15	0.8	0.0123	0.0025
348.15	0.8	0.011	0.0022
353.15	0.8	0.01	0.002
283.15	1	0.076	0.0152
288.15	1	0.0604	0.0121
293.15	1	0.0488	0.0098
298.15	1	0.04	0.008
303.15	1	0.0333	0.0067
308.15	1	0.0281	0.0056
313.15	1	0.024	0.0048
318.15	1	0.0207	0.0041
323.15	1	0.018	0.0036
328.15	1	0.0158	0.0032
333.15	1	0.0139	0.0028
338.15	1	0.0124	0.0025
343.15	1	0.0111	0.0022
348.15	1	0.01	0.002
353.15	1	0.0091	0.0018

System: 1-butylpyridinium bis(fluorosulfonyl)amide + 1-butylpyridinium tetrafluoroborate; phases: Liquid
Fixed: Pressure, kPa = 101.3
Property: Refractive index (Na D-line) (Liquid); method: Standard Abbe refractometry
Temperature, K	Mole fraction of 1-butylpyridinium bis(fluorosulfonyl)amide	Refractive index (Na D-line)	uncertainty
283.15	0	1.4496	0.0006
288.15	0	1.4483	0.0006
293.15	0	1.4469	0.0006
298.15	0	1.4454	0.0006
303.15	0	1.4441	0.0006
308.15	0	1.4427	0.0006
313.15	0	1.4414	0.0006
318.15	0	1.4401	0.0006
323.15	0	1.4388	0.0006
328.15	0	1.4375	0.0006
333.15	0	1.4363	0.0006
338.15	0	1.435	0.0006
343.15	0	1.4337	0.0006
348.15	0	1.4324	0.0006
353.15	0	1.4312	0.0006
283.15	0.2	1.4554	0.0008
288.15	0.2	1.454	0.0008
293.15	0.2	1.4527	0.0008
298.15	0.2	1.4514	0.0008
303.15	0.2	1.45	0.0008
308.15	0.2	1.4486	0.0008
313.15	0.2	1.4473	0.0008
318.15	0.2	1.446	0.0008
323.15	0.2	1.4447	0.0008
328.15	0.2	1.4433	0.0008
333.15	0.2	1.4421	0.0008
338.15	0.2	1.4408	0.0008
343.15	0.2	1.4394	0.0008
348.15	0.2	1.4382	0.0008
353.15	0.2	1.4369	0.0008
283.15	0.4	1.4607	0.0008
288.15	0.4	1.4593	0.0008
293.15	0.4	1.4579	0.0008
298.15	0.4	1.4565	0.0008
303.15	0.4	1.4551	0.0008
308.15	0.4	1.4537	0.0008
313.15	0.4	1.4524	0.0008
318.15	0.4	1.451	0.0008
323.15	0.4	1.4496	0.0008
328.15	0.4	1.4483	0.0008
333.15	0.4	1.447	0.0008
338.15	0.4	1.4456	0.0008
343.15	0.4	1.4443	0.0008
348.15	0.4	1.443	0.0008
353.15	0.4	1.4417	0.0008
283.15	0.6	1.4659	0.0008
288.15	0.6	1.4645	0.0008
293.15	0.6	1.463	0.0008
298.15	0.6	1.4616	0.0008
303.15	0.6	1.4602	0.0008
308.15	0.6	1.4588	0.0008
313.15	0.6	1.4574	0.0008
318.15	0.6	1.456	0.0008
323.15	0.6	1.4546	0.0008
328.15	0.6	1.4532	0.0008
333.15	0.6	1.4518	0.0008
338.15	0.6	1.4505	0.0008
343.15	0.6	1.4491	0.0008
348.15	0.6	1.4477	0.0008
353.15	0.6	1.4464	0.0008
283.15	0.8	1.4707	0.0008
288.15	0.8	1.4692	0.0008
293.15	0.8	1.4677	0.0008
298.15	0.8	1.4662	0.0008
303.15	0.8	1.4648	0.0008
308.15	0.8	1.4634	0.0008
313.15	0.8	1.4619	0.0008
318.15	0.8	1.4605	0.0008
323.15	0.8	1.459	0.0008
328.15	0.8	1.4576	0.0008
333.15	0.8	1.4562	0.0008
338.15	0.8	1.4548	0.0008
343.15	0.8	1.4534	0.0008
348.15	0.8	1.4521	0.0008
353.15	0.8	1.4507	0.0008
283.15	1	1.4757	0.0006
288.15	1	1.4742	0.0006
293.15	1	1.4727	0.0006
298.15	1	1.4712	0.0006
303.15	1	1.4698	0.0006
308.15	1	1.4683	0.0006
313.15	1	1.4668	0.0006
318.15	1	1.4654	0.0006
323.15	1	1.4639	0.0006
328.15	1	1.4625	0.0006
333.15	1	1.461	0.001
338.15	1	1.4596	0.0006
343.15	1	1.4582	0.0006
348.15	1	1.4568	0.0006
353.15	1	1.4554	0.0006

System: 1-methyl-1-propylpiperidinium bis(trifluoromethylsulfonyl)imide + 1-methyl-1-propylpiperidinium bis(fluorosulfonyl)imide; phases: Liquid
Fixed: Pressure, kPa = 101.3
Property: Mass density, kg/m3 (Liquid); method: Vibrating tube method
Temperature, K	Mole fraction of 1-methyl-1-propylpiperidinium bis(trifluoromethylsulfonyl)imide	Mass density, kg/m3	uncertainty
283.15	0	1317	10
288.15	0	1313.5	10.1
293.15	0	1309.6	10.1
298.15	0	1305.8	10.1
303.15	0	1301.9	10.1
308.15	0	1298.1	10.1
313.15	0	1294.2	10.1
318.15	0	1290.4	10.1
323.15	0	1286.6	10.1
328.15	0	1282.8	10.1
333.15	0	1279	10.1
338.15	0	1275.1	10.1
343.15	0	1271.4	10.1
348.15	0	1267.5	10.1
353.15	0	1263.8	10.1
283.15	0.2	1341	10
288.15	0.2	1337.4	10.4
293.15	0.2	1333.4	10.4
298.15	0.2	1329.5	10.4
303.15	0.2	1325.6	10.4
308.15	0.2	1321.6	10.3
313.15	0.2	1317.7	10.3
318.15	0.2	1313.7	10.3
323.15	0.2	1309.8	10.3
328.15	0.2	1305.9	10.3
333.15	0.2	1302	10.3
338.15	0.2	1298.1	10.3
343.15	0.2	1294.1	10.3
348.15	0.2	1290.2	10.3
353.15	0.2	1286.3	10.3
283.15	0.4	1363	10
288.15	0.4	1359.1	10.3
293.15	0.4	1355.1	10.3
298.15	0.4	1351.1	10.3
303.15	0.4	1347.1	10.3
308.15	0.4	1343.1	10.3
313.15	0.4	1339	10.3
318.15	0.4	1335	10.3
323.15	0.4	1331	10.3
328.15	0.4	1327	10.3
333.15	0.4	1322.9	10.3
338.15	0.4	1318.9	10.3
343.15	0.4	1314.9	10.3
348.15	0.4	1310.9	10.3
353.15	0.4	1306.9	10.3
283.15	0.6	1384	10
288.15	0.6	1379.7	10.3
293.15	0.6	1375.5	10.3
298.15	0.6	1371.4	10.3
303.15	0.6	1367.2	10.3
308.15	0.6	1363.1	10.3
313.15	0.6	1358.9	10.3
318.15	0.6	1354.8	10.3
323.15	0.6	1350.7	10.3
328.15	0.6	1346.6	10.3
333.15	0.6	1342.4	10.3
338.15	0.6	1338.3	10.3
343.15	0.6	1334.2	10.3
348.15	0.6	1330.1	10.3
353.15	0.6	1326	10.3
283.15	0.8	1403	10
288.15	0.8	1399	10.3
293.15	0.8	1394.7	10.3
298.15	0.8	1390.5	10.3
303.15	0.8	1386.3	10.3
308.15	0.8	1382.1	10.3
313.15	0.8	1377.9	10.3
318.15	0.8	1373.7	10.3
323.15	0.8	1369.5	10.3
328.15	0.8	1365.3	10.3
333.15	0.8	1361	10.3
338.15	0.8	1356.8	10.3
343.15	0.8	1352.6	10.3
348.15	0.8	1348.4	10.3
353.15	0.8	1344.2	10.3
283.15	1	1422	10
288.15	1	1417.6	10.1
293.15	1	1413.2	10.1
298.15	1	1408.7	10.1
303.15	1	1404.4	10.1
308.15	1	1400	10.1
313.15	1	1395.7	10.1
318.15	1	1391.3	10.1
323.15	1	1386.9	10.1
328.15	1	1382.6	10.1
333.15	1	1378.3	10.1
338.15	1	1374	10.1
343.15	1	1369.7	10.1
348.15	1	1365.4	10.1
353.15	1	1361.2	10.1

System: 1-methyl-1-propylpiperidinium bis(trifluoromethylsulfonyl)imide + 1-methyl-1-propylpiperidinium bis(fluorosulfonyl)imide; phases: Liquid
Fixed: Pressure, kPa = 101.3
Property: Viscosity, Pa*s (Liquid); method: Concentric cylinders viscometry
Temperature, K	Mole fraction of 1-methyl-1-propylpiperidinium bis(trifluoromethylsulfonyl)imide	Viscosity, Pa*s	uncertainty
283.15	0	0.0915	0.0183
288.15	0	0.0744	0.0149
293.15	0	0.0614	0.0123
298.15	0	0.0512	0.0103
303.15	0	0.0433	0.0087
308.15	0	0.0369	0.0074
313.15	0	0.0318	0.0064
318.15	0	0.0276	0.0055
323.15	0	0.0242	0.0048
328.15	0	0.0213	0.0043
333.15	0	0.0189	0.0038
338.15	0	0.0169	0.0034
343.15	0	0.0151	0.003
348.15	0	0.0137	0.0027
353.15	0	0.0124	0.0025
283.15	0.2	0.108	0.022
288.15	0.2	0.0866	0.0174
293.15	0.2	0.0703	0.0141
298.15	0.2	0.0578	0.0116
303.15	0.2	0.0481	0.0097
308.15	0.2	0.0406	0.0081
313.15	0.2	0.0345	0.0069
318.15	0.2	0.0297	0.006
323.15	0.2	0.0257	0.0052
328.15	0.2	0.0225	0.0045
333.15	0.2	0.0199	0.004
338.15	0.2	0.0176	0.0035
343.15	0.2	0.0157	0.0031
348.15	0.2	0.0141	0.0028
353.15	0.2	0.0127	0.0025
283.15	0.4	0.14	0.028
288.15	0.4	0.109	0.022
293.15	0.4	0.0865	0.0174
298.15	0.4	0.0697	0.014
303.15	0.4	0.057	0.0114
308.15	0.4	0.0473	0.0095
313.15	0.4	0.0397	0.008
318.15	0.4	0.0336	0.0067
323.15	0.4	0.0288	0.0058
328.15	0.4	0.0249	0.005
333.15	0.4	0.0217	0.0043
338.15	0.4	0.0191	0.0038
343.15	0.4	0.0169	0.0034
348.15	0.4	0.015	0.003
353.15	0.4	0.0135	0.0027
283.15	0.6	0.168	0.034
288.15	0.6	0.129	0.026
293.15	0.6	0.101	0.02
298.15	0.6	0.0799	0.0161
303.15	0.6	0.0645	0.013
308.15	0.6	0.0528	0.0106
313.15	0.6	0.0439	0.0088
318.15	0.6	0.0369	0.0074
323.15	0.6	0.0313	0.0063
328.15	0.6	0.0269	0.0054
333.15	0.6	0.0232	0.0047
338.15	0.6	0.0203	0.0041
343.15	0.6	0.0178	0.0036
348.15	0.6	0.0158	0.0032
353.15	0.6	0.0141	0.0028
283.15	0.8	0.242	0.05
288.15	0.8	0.178	0.037
293.15	0.8	0.134	0.027
298.15	0.8	0.104	0.021
303.15	0.8	0.0815	0.0165
308.15	0.8	0.0652	0.0132
313.15	0.8	0.053	0.0107
318.15	0.8	0.0438	0.0088
323.15	0.8	0.0366	0.0074
328.15	0.8	0.0309	0.0062
333.15	0.8	0.0264	0.0053
338.15	0.8	0.0228	0.0046
343.15	0.8	0.0199	0.004
348.15	0.8	0.0174	0.0035
353.15	0.8	0.0154	0.0031
283.15	1	0.397	0.08
288.15	1	0.277	0.056
293.15	1	0.199	0.04
298.15	1	0.147	0.03
303.15	1	0.112	0.022
308.15	1	0.0866	0.0174
313.15	1	0.0685	0.0137
318.15	1	0.0551	0.011
323.15	1	0.0451	0.009
328.15	1	0.0373	0.0075
333.15	1	0.0314	0.0063
338.15	1	0.0266	0.0053
343.15	1	0.0229	0.0046
348.15	1	0.0198	0.004
353.15	1	0.0173	0.0035

System: 1-methyl-1-propylpiperidinium bis(trifluoromethylsulfonyl)imide + 1-methyl-1-propylpiperidinium bis(fluorosulfonyl)imide; phases: Liquid
Fixed: Pressure, kPa = 101.3
Property: Refractive index (Na D-line) (Liquid); method: Standard Abbe refractometry
Temperature, K	Mole fraction of 1-methyl-1-propylpiperidinium bis(trifluoromethylsulfonyl)imide	Refractive index (Na D-line)	uncertainty
283.15	0	1.4488	0.0006
288.15	0	1.4474	0.0006
293.15	0	1.446	0.0006
298.15	0	1.4446	0.0006
303.15	0	1.4432	0.0006
308.15	0	1.4418	0.0006
313.15	0	1.4403	0.0006
318.15	0	1.439	0.0006
323.15	0	1.4376	0.0006
328.15	0	1.4363	0.0006
333.15	0	1.4349	0.0006
338.15	0	1.4336	0.0006
343.15	0	1.4323	0.0006
348.15	0	1.431	0.0006
353.15	0	1.4297	0.0006
283.15	0.2	1.4444	0.0008
288.15	0.2	1.443	0.0008
293.15	0.2	1.4417	0.0008
298.15	0.2	1.4403	0.0007
303.15	0.2	1.4389	0.0007
308.15	0.2	1.4375	0.0007
313.15	0.2	1.4361	0.0007
318.15	0.2	1.4348	0.0007
323.15	0.2	1.4334	0.0007
328.15	0.2	1.4321	0.0007
333.15	0.2	1.4307	0.0007
338.15	0.2	1.4294	0.0007
343.15	0.2	1.4281	0.0007
348.15	0.2	1.4268	0.0007
353.15	0.2	1.4255	0.0007
283.15	0.4	1.4408	0.0007
288.15	0.4	1.4394	0.0007
293.15	0.4	1.438	0.0007
298.15	0.4	1.4367	0.0007
303.15	0.4	1.4353	0.0007
308.15	0.4	1.4339	0.0007
313.15	0.4	1.4326	0.0007
318.15	0.4	1.4312	0.0007
323.15	0.4	1.4298	0.0007
328.15	0.4	1.4285	0.0007
333.15	0.4	1.4272	0.0007
338.15	0.4	1.4259	0.0007
343.15	0.4	1.4245	0.0007
348.15	0.4	1.4232	0.0007
353.15	0.4	1.4219	0.0007
283.15	0.6	1.4371	0.0007
288.15	0.6	1.4358	0.0007
293.15	0.6	1.4344	0.0007
298.15	0.6	1.433	0.0007
303.15	0.6	1.4316	0.0007
308.15	0.6	1.4302	0.0007
313.15	0.6	1.4288	0.0007
318.15	0.6	1.4275	0.0007
323.15	0.6	1.4261	0.0007
328.15	0.6	1.4248	0.0007
333.15	0.6	1.4235	0.0007
338.15	0.6	1.4221	0.0007
343.15	0.6	1.4208	0.0007
348.15	0.6	1.4195	0.0007
353.15	0.6	1.4181	0.0007
283.15	0.8	1.4343	0.0007
288.15	0.8	1.4328	0.0007
293.15	0.8	1.4315	0.0007
298.15	0.8	1.4301	0.0007
303.15	0.8	1.4287	0.0007
308.15	0.8	1.4273	0.0007
313.15	0.8	1.426	0.0007
318.15	0.8	1.4246	0.0007
323.15	0.8	1.4232	0.0007
328.15	0.8	1.4219	0.0007
333.15	0.8	1.4205	0.0007
338.15	0.8	1.4192	0.0007
343.15	0.8	1.4179	0.0007
348.15	0.8	1.4166	0.0007
353.15	0.8	1.4152	0.0007
283.15	1	1.4312	0.0006
288.15	1	1.4297	0.0006
293.15	1	1.4284	0.0006
298.15	1	1.4269	0.0006
303.15	1	1.4256	0.0006
308.15	1	1.4242	0.0006
313.15	1	1.4228	0.0006
318.15	1	1.4214	0.0006
323.15	1	1.42	0.0006
328.15	1	1.4187	0.0006
333.15	1	1.4173	0.0006
338.15	1	1.416	0.0006
343.15	1	1.4146	0.0006
348.15	1	1.4133	0.0006
353.15	1	1.412	0.0006

System: 1-butyl-1-methylpyrrolidinium bis(fluorosulfonyl)amide + 1-butyl-1-methylpyrrolidinium bis(oxalato)borate; phases: Liquid
Fixed: Pressure, kPa = 101.3
Property: Mass density, kg/m3 (Liquid); method: Vibrating tube method
Temperature, K	Mole fraction of 1-butyl-1-methylpyrrolidinium bis(fluorosulfonyl)amide	Mass density, kg/m3	uncertainty
303.15	0	1254.8	10.1
308.15	0	1250.7	10.1
313.15	0	1246.5	10.1
318.15	0	1242.3	10.1
323.15	0	1238.1	10.1
328.15	0	1234.1	10.1
333.15	0	1230	10.1
338.15	0	1226.1	10.1
343.15	0	1222.1	10.1
348.15	0	1218.1	10.1
353.15	0	1214	10.1
298.15	0.2	1271.3	10.2
303.15	0.2	1267.1	10.2
308.15	0.2	1262.9	10.2
313.15	0.2	1258.7	10.2
318.15	0.2	1254.5	10.2
323.15	0.2	1250.5	10.2
328.15	0.2	1246.5	10.2
333.15	0.2	1242.5	10.2
338.15	0.2	1238.5	10.2
343.15	0.2	1234.5	10.2
348.15	0.2	1230.5	10.2
353.15	0.2	1226.5	10.2
293.15	0.4	1288.8	10.2
298.15	0.4	1284.7	10.2
303.15	0.4	1280.4	10.2
308.15	0.4	1276.2	10.2
313.15	0.4	1272.1	10.2
318.15	0.4	1268	10.2
323.15	0.4	1264	10.2
328.15	0.4	1260.1	10.2
333.15	0.4	1256.1	10.2
338.15	0.4	1252.1	10.2
343.15	0.4	1248.1	10.2
348.15	0.4	1244.1	10.2
353.15	0.4	1240.2	10.2
283.15	0.6	1310	10
288.15	0.6	1305.4	10.2
293.15	0.6	1301.1	10.2
298.15	0.6	1296.9	10.2
303.15	0.6	1292.8	10.2
308.15	0.6	1288.7	10.2
313.15	0.6	1284.7	10.2
318.15	0.6	1280.8	10.2
323.15	0.6	1276.8	10.2
328.15	0.6	1272.9	10.2
333.15	0.6	1268.9	10.2
338.15	0.6	1265	10.2
343.15	0.6	1261	10.2
348.15	0.6	1257.1	10.2
353.15	0.6	1253.1	10.2
283.15	0.8	1321	10
288.15	0.8	1316.8	10.2
293.15	0.8	1312.7	10.2
298.15	0.8	1308.7	10.2
303.15	0.8	1304.8	10.2
308.15	0.8	1300.9	10.2
313.15	0.8	1297	10.2
318.15	0.8	1293.1	10.2
323.15	0.8	1289.2	10.2
328.15	0.8	1285.3	10.2
333.15	0.8	1281.5	10.2
338.15	0.8	1277.6	10.2
343.15	0.8	1273.7	10.2
348.15	0.8	1269.8	10.2
353.15	0.8	1265.9	10.2
283.15	1	1331	10
288.15	1	1326.9	10.1
293.15	1	1323.1	10.1
298.15	1	1319.4	10.1
303.15	1	1315.6	10.1
308.15	1	1311.8	10.1
313.15	1	1308.1	10.1
318.15	1	1304.3	10.1
323.15	1	1300.5	10.1
328.15	1	1296.8	10.1
333.15	1	1293	10.1
338.15	1	1289.3	10.1
343.15	1	1285.6	10.1
348.15	1	1281.8	10.1
353.15	1	1278.1	10.1

System: 1-butyl-1-methylpyrrolidinium bis(fluorosulfonyl)amide + 1-butyl-1-methylpyrrolidinium bis(oxalato)borate; phases: Liquid
Fixed: Pressure, kPa = 101.3
Property: Viscosity, Pa*s (Liquid); method: Concentric cylinders viscometry
Temperature, K	Mole fraction of 1-butyl-1-methylpyrrolidinium bis(fluorosulfonyl)amide	Viscosity, Pa*s	uncertainty
303.15	0	1.732	0.355
308.15	0	1.055	0.215
313.15	0	0.674	0.137
318.15	0	0.448	0.091
323.15	0	0.309	0.062
328.15	0	0.219	0.044
333.15	0	0.16	0.032
338.15	0	0.12	0.024
343.15	0	0.0922	0.0185
348.15	0	0.0723	0.0145
353.15	0	0.0576	0.0115
298.15	0.2	1.362	0.284
303.15	0.2	0.851	0.183
308.15	0.2	0.555	0.118
313.15	0.2	0.375	0.079
318.15	0.2	0.263	0.055
323.15	0.2	0.19	0.039
328.15	0.2	0.141	0.029
333.15	0.2	0.107	0.022
338.15	0.2	0.0831	0.0169
343.15	0.2	0.0657	0.0133
348.15	0.2	0.0529	0.0107
353.15	0.2	0.0432	0.0087
293.15	0.4	1.242	0.262
298.15	0.4	0.793	0.168
303.15	0.4	0.527	0.11
308.15	0.4	0.362	0.075
313.15	0.4	0.257	0.053
318.15	0.4	0.188	0.038
323.15	0.4	0.14	0.029
328.15	0.4	0.107	0.022
333.15	0.4	0.0836	0.0169
338.15	0.4	0.0664	0.0134
343.15	0.4	0.0537	0.0108
348.15	0.4	0.044	0.0089
353.15	0.4	0.0366	0.0074
283.15	0.6	1.372	0.293
288.15	0.6	0.876	0.188
293.15	0.6	0.581	0.128
298.15	0.6	0.399	0.086
303.15	0.6	0.283	0.06
308.15	0.6	0.206	0.043
313.15	0.6	0.154	0.032
318.15	0.6	0.117	0.024
323.15	0.6	0.0913	0.0187
328.15	0.6	0.0724	0.0148
333.15	0.6	0.0584	0.0119
338.15	0.6	0.0478	0.0097
343.15	0.6	0.0397	0.008
348.15	0.6	0.0333	0.0067
353.15	0.6	0.0283	0.0057
283.15	0.8	0.514	0.12
288.15	0.8	0.361	0.082
293.15	0.8	0.261	0.058
298.15	0.8	0.194	0.042
303.15	0.8	0.147	0.031
308.15	0.8	0.114	0.024
313.15	0.8	0.09	0.0188
318.15	0.8	0.0722	0.015
323.15	0.8	0.0587	0.0121
328.15	0.8	0.0485	0.0099
333.15	0.8	0.0405	0.0083
338.15	0.8	0.0342	0.007
343.15	0.8	0.0292	0.0059
348.15	0.8	0.0251	0.0051
353.15	0.8	0.0219	0.0044
283.15	1	0.174	0.035
288.15	1	0.135	0.027
293.15	1	0.107	0.021
298.15	1	0.086	0.0172
303.15	1	0.0702	0.0141
308.15	1	0.058	0.0116
313.15	1	0.0486	0.0097
318.15	1	0.0412	0.0083
323.15	1	0.0352	0.0071
328.15	1	0.0304	0.0061
333.15	1	0.0264	0.0053
338.15	1	0.0231	0.0046
343.15	1	0.0204	0.0041
348.15	1	0.0181	0.0036
353.15	1	0.0162	0.0032

System: 1-butyl-1-methylpyrrolidinium bis(fluorosulfonyl)amide + 1-butyl-1-methylpyrrolidinium bis(oxalato)borate; phases: Liquid
Fixed: Pressure, kPa = 101.3
Property: Refractive index (Na D-line) (Liquid); method: Standard Abbe refractometry
Temperature, K	Mole fraction of 1-butyl-1-methylpyrrolidinium bis(fluorosulfonyl)amide	Refractive index (Na D-line)	uncertainty
303.15	0	1.4685	0.0006
308.15	0	1.4669	0.0006
313.15	0	1.4653	0.0006
318.15	0	1.4638	0.0006
323.15	0	1.4622	0.0006
328.15	0	1.4607	0.0006
333.15	0	1.4591	0.0006
338.15	0	1.4576	0.0006
343.15	0	1.4561	0.0006
348.15	0	1.4546	0.0006
353.15	0	1.4531	0.0006
298.15	0.2	1.4664	0.0007
303.15	0.2	1.4648	0.0007
308.15	0.2	1.4633	0.0007
313.15	0.2	1.4617	0.0007
318.15	0.2	1.4602	0.0007
323.15	0.2	1.4586	0.0007
328.15	0.2	1.4571	0.0007
333.15	0.2	1.4556	0.0007
338.15	0.2	1.454	0.0007
343.15	0.2	1.4525	0.0007
348.15	0.2	1.451	0.0007
353.15	0.2	1.4495	0.0007
293.15	0.4	1.4646	0.0008
298.15	0.4	1.463	0.0007
303.15	0.4	1.4615	0.0007
308.15	0.4	1.46	0.0007
313.15	0.4	1.4584	0.0007
318.15	0.4	1.457	0.0007
323.15	0.4	1.4555	0.0007
328.15	0.4	1.4539	0.0007
333.15	0.4	1.4525	0.0007
338.15	0.4	1.451	0.0007
343.15	0.4	1.4495	0.0007
348.15	0.4	1.448	0.0007
353.15	0.4	1.4466	0.0007
283.15	0.6	1.4635	0.0008
288.15	0.6	1.462	0.0008
293.15	0.6	1.4605	0.0008
298.15	0.6	1.459	0.0008
303.15	0.6	1.4575	0.0008
308.15	0.6	1.456	0.0008
313.15	0.6	1.4545	0.0008
318.15	0.6	1.453	0.0008
323.15	0.6	1.4516	0.0008
328.15	0.6	1.4501	0.0008
333.15	0.6	1.4486	0.0008
338.15	0.6	1.4472	0.0007
343.15	0.6	1.4457	0.0007
348.15	0.6	1.4443	0.0007
353.15	0.6	1.4429	0.0007
283.15	0.8	1.4588	0.0008
288.15	0.8	1.4573	0.0008
293.15	0.8	1.4559	0.0008
298.15	0.8	1.4544	0.0008
303.15	0.8	1.453	0.0008
308.15	0.8	1.4516	0.0008
313.15	0.8	1.4501	0.0008
318.15	0.8	1.4487	0.0008
323.15	0.8	1.4473	0.0008
328.15	0.8	1.4459	0.0008
333.15	0.8	1.4445	0.0008
338.15	0.8	1.4431	0.0008
343.15	0.8	1.4417	0.0008
348.15	0.8	1.4403	0.0008
353.15	0.8	1.439	0.0008
283.15	1	1.453	0.0006
288.15	1	1.4517	0.0006
293.15	1	1.4503	0.0006
298.15	1	1.4489	0.0006
303.15	1	1.4476	0.0006
308.15	1	1.4462	0.0006
313.15	1	1.4449	0.0006
318.15	1	1.4436	0.0006
323.15	1	1.4422	0.0006
328.15	1	1.4409	0.0006
333.15	1	1.4396	0.0006
338.15	1	1.4383	0.0006
343.15	1	1.437	0.0006
348.15	1	1.4357	0.0006
353.15	1	1.4344	0.0006

System: triethylpentylammonium bis(trifluoromethylsulfonyl)imide + triethyl(pentyl)phosphonium bis((trifluoromethyl)sulfonyl)amide; phases: Liquid
Fixed: Pressure, kPa = 101.3
Property: Mass density, kg/m3 (Liquid); method: Vibrating tube method
Temperature, K	Mole fraction of triethylpentylammonium bis(trifluoromethylsulfonyl)imide	Mass density, kg/m3	uncertainty
283.15	0	1314	10
288.15	0	1310.2	10.1
293.15	0	1306	10.1
298.15	0	1301.9	10.1
303.15	0	1297.8	10.1
308.15	0	1293.6	10.1
313.15	0	1289.5	10.1
318.15	0	1285.3	10.1
323.15	0	1281.2	10.1
328.15	0	1277	10.1
333.15	0	1272.9	10.1
338.15	0	1268.7	10.1
343.15	0	1264.6	10.1
348.15	0	1260.4	10.1
353.15	0	1256.3	10.1
283.15	0.2	1316	10
288.15	0.2	1311.8	10.1
293.15	0.2	1307.7	10.1
298.15	0.2	1303.6	10.1
303.15	0.2	1299.5	10.1
308.15	0.2	1295.3	10.1
313.15	0.2	1291.1	10.1
318.15	0.2	1287	10.1
323.15	0.2	1282.8	10.1
328.15	0.2	1278.7	10.1
333.15	0.2	1274.5	10.1
338.15	0.2	1270.3	10.1
343.15	0.2	1266.2	10.1
348.15	0.2	1262	10.1
353.15	0.2	1257.9	10.1
283.15	0.4	1318	10
288.15	0.4	1313.5	10.1
293.15	0.4	1309.3	10.1
298.15	0.4	1305.1	10.1
303.15	0.4	1301	10.1
308.15	0.4	1296.8	10.1
313.15	0.4	1292.7	10.1
318.15	0.4	1288.5	10.1
323.15	0.4	1284.3	10.1
328.15	0.4	1280.1	10.1
333.15	0.4	1275.9	10.1
338.15	0.4	1271.7	10.1
343.15	0.4	1267.6	10.1
348.15	0.4	1263.8	10.1
353.15	0.4	1259.6	10.1
283.15	0.6	1319	10
288.15	0.6	1315.1	10.1
293.15	0.6	1310.9	10.1
298.15	0.6	1306.8	10.1
303.15	0.6	1302.7	10.1
308.15	0.6	1298.5	10.1
313.15	0.6	1294.4	10.1
318.15	0.6	1290.2	10.1
323.15	0.6	1286.1	10.1
328.15	0.6	1281.9	10.1
333.15	0.6	1277.7	10.1
338.15	0.6	1273.5	10.1
343.15	0.6	1269.3	10.1
348.15	0.6	1265.2	10.1
353.15	0.6	1261	10.1
283.15	0.8	1321	10
288.15	0.8	1317.1	10.1
293.15	0.8	1312.9	10.1
298.15	0.8	1308.8	10.1
303.15	0.8	1304.7	10.1
308.15	0.8	1300.6	10.1
313.15	0.8	1296.4	10.1
318.15	0.8	1292.3	10.1
323.15	0.8	1288.1	10.1
328.15	0.8	1284	10.1
333.15	0.8	1279.8	10.1
338.15	0.8	1275.7	10.1
343.15	0.8	1271.5	10.1
348.15	0.8	1267.4	10.1
353.15	0.8	1263.2	10.1
283.15	1	1324	10
288.15	1	1319.1	10.1
293.15	1	1314.9	10.1
298.15	1	1310.7	10.1
303.15	1	1306.6	10.1
308.15	1	1302.5	10.1
313.15	1	1298.4	10.1
318.15	1	1294.3	10.1
323.15	1	1290.2	10.1
328.15	1	1286	10.1
333.15	1	1281.9	10.1
338.15	1	1277.7	10.1
343.15	1	1273.6	10.1
348.15	1	1269.4	10.1
353.15	1	1265.3	10.1

System: triethylpentylammonium bis(trifluoromethylsulfonyl)imide + triethyl(pentyl)phosphonium bis((trifluoromethyl)sulfonyl)amide; phases: Liquid
Fixed: Pressure, kPa = 101.3
Property: Viscosity, Pa*s (Liquid); method: Concentric cylinders viscometry
Temperature, K	Mole fraction of triethylpentylammonium bis(trifluoromethylsulfonyl)imide	Viscosity, Pa*s	uncertainty
283.15	0	0.203	0.041
288.15	0	0.15	0.03
293.15	0	0.113	0.023
298.15	0	0.0875	0.0175
303.15	0	0.0688	0.0138
308.15	0	0.0549	0.011
313.15	0	0.0445	0.0089
318.15	0	0.0366	0.0073
323.15	0	0.0305	0.0061
328.15	0	0.0256	0.0051
333.15	0	0.0218	0.0044
338.15	0	0.0187	0.0037
343.15	0	0.0162	0.0032
348.15	0	0.0142	0.0028
353.15	0	0.0125	0.0025
283.15	0.2	0.229	0.046
288.15	0.2	0.168	0.034
293.15	0.2	0.126	0.025
298.15	0.2	0.0966	0.0194
303.15	0.2	0.0754	0.0151
308.15	0.2	0.0598	0.012
313.15	0.2	0.0483	0.0097
318.15	0.2	0.0395	0.0079
323.15	0.2	0.0327	0.0066
328.15	0.2	0.0274	0.0055
333.15	0.2	0.0232	0.0046
338.15	0.2	0.0199	0.004
343.15	0.2	0.0172	0.0034
348.15	0.2	0.015	0.003
353.15	0.2	0.0131	0.0026
283.15	0.4	0.266	0.054
288.15	0.4	0.192	0.039
293.15	0.4	0.143	0.029
298.15	0.4	0.108	0.022
303.15	0.4	0.0836	0.0168
308.15	0.4	0.0658	0.0132
313.15	0.4	0.0527	0.0106
318.15	0.4	0.0429	0.0086
323.15	0.4	0.0354	0.0071
328.15	0.4	0.0295	0.0059
333.15	0.4	0.0249	0.005
338.15	0.4	0.0212	0.0042
343.15	0.4	0.0183	0.0037
348.15	0.4	0.0159	0.0032
353.15	0.4	0.0139	0.0028
283.15	0.6	0.316	0.064
288.15	0.6	0.225	0.045
293.15	0.6	0.165	0.033
298.15	0.6	0.123	0.025
303.15	0.6	0.0943	0.0189
308.15	0.6	0.0736	0.0148
313.15	0.6	0.0584	0.0117
318.15	0.6	0.0472	0.0095
323.15	0.6	0.0386	0.0077
328.15	0.6	0.0321	0.0064
333.15	0.6	0.0269	0.0054
338.15	0.6	0.0228	0.0046
343.15	0.6	0.0196	0.0039
348.15	0.6	0.0169	0.0034
353.15	0.6	0.0148	0.003
283.15	0.8	0.386	0.078
288.15	0.8	0.27	0.055
293.15	0.8	0.194	0.039
298.15	0.8	0.144	0.029
303.15	0.8	0.109	0.022
308.15	0.8	0.0838	0.0168
313.15	0.8	0.066	0.0132
318.15	0.8	0.0528	0.0106
323.15	0.8	0.0429	0.0086
328.15	0.8	0.0354	0.0071
333.15	0.8	0.0295	0.0059
338.15	0.8	0.0249	0.005
343.15	0.8	0.0213	0.0043
348.15	0.8	0.0183	0.0037
353.15	0.8	0.0159	0.0032
283.15	1	0.479	0.097
288.15	1	0.329	0.066
293.15	1	0.233	0.047
298.15	1	0.169	0.034
303.15	1	0.126	0.025
308.15	1	0.0964	0.0193
313.15	1	0.0751	0.015
318.15	1	0.0596	0.0119
323.15	1	0.048	0.0096
328.15	1	0.0393	0.0079
333.15	1	0.0326	0.0065
338.15	1	0.0274	0.0055
343.15	1	0.0233	0.0047
348.15	1	0.0199	0.004
353.15	1	0.0173	0.0035

System: triethylpentylammonium bis(trifluoromethylsulfonyl)imide + triethyl(pentyl)phosphonium bis((trifluoromethyl)sulfonyl)amide; phases: Liquid
Fixed: Pressure, kPa = 101.3
Property: Refractive index (Na D-line) (Liquid); method: Standard Abbe refractometry
Temperature, K	Mole fraction of triethylpentylammonium bis(trifluoromethylsulfonyl)imide	Refractive index (Na D-line)	uncertainty
283.15	0	1.4383	0.0006
288.15	0	1.4368	0.0006
293.15	0	1.4354	0.0006
298.15	0	1.4339	0.0006
303.15	0	1.4325	0.0006
308.15	0	1.4311	0.0006
313.15	0	1.4296	0.0006
318.15	0	1.4282	0.0006
323.15	0	1.4267	0.0006
328.15	0	1.4253	0.0006
333.15	0	1.4239	0.0006
338.15	0	1.4225	0.0006
343.15	0	1.421	0.0006
348.15	0	1.4196	0.0006
353.15	0	1.4182	0.0006
283.15	0.2	1.4365	0.0007
288.15	0.2	1.435	0.0007
293.15	0.2	1.4336	0.0007
298.15	0.2	1.4321	0.0007
303.15	0.2	1.4307	0.0007
308.15	0.2	1.4293	0.0007
313.15	0.2	1.4278	0.0007
318.15	0.2	1.4264	0.0007
323.15	0.2	1.425	0.0007
328.15	0.2	1.4235	0.0007
333.15	0.2	1.4221	0.0007
338.15	0.2	1.4207	0.0007
343.15	0.2	1.4193	0.0007
348.15	0.2	1.4179	0.0007
353.15	0.2	1.4165	0.0007
283.15	0.4	1.4345	0.0007
288.15	0.4	1.4331	0.0007
293.15	0.4	1.4317	0.0007
298.15	0.4	1.4302	0.0007
303.15	0.4	1.4288	0.0007
308.15	0.4	1.4274	0.0007
313.15	0.4	1.4259	0.0007
318.15	0.4	1.4245	0.0007
323.15	0.4	1.4231	0.0007
328.15	0.4	1.4217	0.0007
333.15	0.4	1.4202	0.0007
338.15	0.4	1.4188	0.0007
343.15	0.4	1.4175	0.0007
348.15	0.4	1.4161	0.0007
353.15	0.4	1.4147	0.0007
283.15	0.6	1.4326	0.0007
288.15	0.6	1.4312	0.0007
293.15	0.6	1.4298	0.0007
298.15	0.6	1.4282	0.0007
303.15	0.6	1.4267	0.0007
308.15	0.6	1.4253	0.0007
313.15	0.6	1.4238	0.0007
318.15	0.6	1.4224	0.0007
323.15	0.6	1.421	0.0007
328.15	0.6	1.4196	0.0007
333.15	0.6	1.4182	0.0007
338.15	0.6	1.4168	0.0007
343.15	0.6	1.4154	0.0007
348.15	0.6	1.414	0.0007
353.15	0.6	1.4126	0.0007
283.15	0.8	1.4308	0.0007
288.15	0.8	1.4293	0.0007
293.15	0.8	1.4279	0.0007
298.15	0.8	1.4265	0.0007
303.15	0.8	1.4251	0.0007
308.15	0.8	1.4237	0.0007
313.15	0.8	1.4222	0.0007
318.15	0.8	1.4208	0.0007
323.15	0.8	1.4194	0.0007
328.15	0.8	1.418	0.0007
333.15	0.8	1.4166	0.0007
338.15	0.8	1.4152	0.0007
343.15	0.8	1.4139	0.0007
348.15	0.8	1.4125	0.0007
353.15	0.8	1.4111	0.0007
283.15	1	1.4288	0.0006
288.15	1	1.4274	0.0006
293.15	1	1.426	0.0006
298.15	1	1.4246	0.0006
303.15	1	1.4232	0.0006
308.15	1	1.4218	0.0006
313.15	1	1.4203	0.0006
318.15	1	1.419	0.0006
323.15	1	1.4176	0.0006
328.15	1	1.4162	0.0006
333.15	1	1.4148	0.0006
338.15	1	1.4134	0.0006
343.15	1	1.412	0.0006
348.15	1	1.4107	0.0006
353.15	1	1.4093	0.0006

System: N,N,N-trimethylpropanaminium bis((trifluoromethyl)sulfonyl)amide + 1-methyl-1-propylpiperidinium bis(trifluoromethylsulfonyl)imide; phases: Liquid
Fixed: Pressure, kPa = 101.3
Property: Mass density, kg/m3 (Liquid); method: Vibrating tube method
Temperature, K	Mole fraction of N,N,N-trimethylpropanaminium bis((trifluoromethyl)sulfonyl)amide	Mass density, kg/m3	uncertainty
283.15	0	1422	10
288.15	0	1417.6	10.1
293.15	0	1413.2	10.1
298.15	0	1408.7	10.1
303.15	0	1404.4	10.1
308.15	0	1400	10.1
313.15	0	1395.7	10.1
318.15	0	1391.3	10.1
323.15	0	1386.9	10.1
328.15	0	1382.6	10.1
333.15	0	1378.3	10.1
338.15	0	1374	10.1
343.15	0	1369.7	10.1
348.15	0	1365.4	10.1
353.15	0	1361.2	10.1
283.15	0.2	1425	10
288.15	0.2	1420.3	10.1
293.15	0.2	1416	10.1
298.15	0.2	1411.6	10.1
303.15	0.2	1407.3	10.1
308.15	0.2	1403	10.1
313.15	0.2	1398.7	10.1
318.15	0.2	1394.4	10.1
323.15	0.2	1390.1	10.1
328.15	0.2	1385.8	10.1
333.15	0.2	1381.4	10.1
338.15	0.2	1377.1	10.1
343.15	0.2	1372.8	10.1
348.15	0.2	1368.4	10.1
353.15	0.2	1364.1	10.1
283.15	0.4	1428	10
288.15	0.4	1423.9	10.1
293.15	0.4	1419.5	10.1
298.15	0.4	1415.1	10.1
303.15	0.4	1410.8	10.1
308.15	0.4	1406.5	10.1
313.15	0.4	1402.1	10.1
318.15	0.4	1397.7	10.1
323.15	0.4	1393.4	10.1
328.15	0.4	1389	10.1
333.15	0.4	1384.7	10.1
338.15	0.4	1380.3	10.1
343.15	0.4	1376	10.1
348.15	0.4	1371.6	10.1
353.15	0.4	1367.3	10.1
283.15	0.6	1432	10
288.15	0.6	1427.5	10.1
293.15	0.6	1423.1	10.1
298.15	0.6	1418.8	10.1
303.15	0.6	1414.4	10.1
308.15	0.6	1410	10.1
313.15	0.6	1405.6	10.1
318.15	0.6	1401.2	10.1
323.15	0.6	1396.8	10.1
328.15	0.6	1392.5	10.1
333.15	0.6	1388.1	10.1
338.15	0.6	1383.7	10.1
343.15	0.6	1379.3	10.1
348.15	0.6	1375	10.1
353.15	0.6	1370.6	10.1
283.15	0.8	1436	10
288.15	0.8	1431.4	10.2
293.15	0.8	1427	10.1
298.15	0.8	1422.6	10.1
303.15	0.8	1418.2	10.1
308.15	0.8	1413.8	10.1
313.15	0.8	1409.3	10.1
318.15	0.8	1404.9	10.1
323.15	0.8	1400.5	10.1
328.15	0.8	1396.1	10.1
333.15	0.8	1391.7	10.1
338.15	0.8	1387.3	10.1
343.15	0.8	1382.9	10.1
348.15	0.8	1378.5	10.1
353.15	0.8	1374.1	10.1
283.15	1	1441	10
288.15	1	1436.2	10.1
293.15	1	1431.7	10.1
298.15	1	1427.1	10.1
303.15	1	1422.6	10.1
308.15	1	1418.1	10.1
313.15	1	1413.6	10.1
318.15	1	1409.1	10.1
323.15	1	1404.7	10.1
328.15	1	1400.2	10.1
333.15	1	1395.8	10.1
338.15	1	1391.4	10.1
343.15	1	1387	10.1
348.15	1	1382.7	10.1
353.15	1	1378.3	10.1

System: N,N,N-trimethylpropanaminium bis((trifluoromethyl)sulfonyl)amide + 1-methyl-1-propylpiperidinium bis(trifluoromethylsulfonyl)imide; phases: Liquid
Fixed: Pressure, kPa = 101.3
Property: Viscosity, Pa*s (Liquid); method: Concentric cylinders viscometry
Temperature, K	Mole fraction of N,N,N-trimethylpropanaminium bis((trifluoromethyl)sulfonyl)amide	Viscosity, Pa*s	uncertainty
283.15	0	0.397	0.08
288.15	0	0.277	0.056
293.15	0	0.199	0.04
298.15	0	0.147	0.03
303.15	0	0.112	0.022
308.15	0	0.0866	0.0174
313.15	0	0.0685	0.0137
318.15	0	0.0551	0.011
323.15	0	0.0451	0.009
328.15	0	0.0373	0.0075
333.15	0	0.0314	0.0063
338.15	0	0.0266	0.0053
343.15	0	0.0229	0.0046
348.15	0	0.0198	0.004
353.15	0	0.0173	0.0035
283.15	0.2	0.34	0.069
288.15	0.2	0.24	0.048
293.15	0.2	0.175	0.035
298.15	0.2	0.131	0.026
303.15	0.2	0.1013	0.0203
308.15	0.2	0.0783	0.0157
313.15	0.2	0.0624	0.0125
318.15	0.2	0.0505	0.0101
323.15	0.2	0.0415	0.0083
328.15	0.2	0.0346	0.0069
333.15	0.2	0.0291	0.0058
338.15	0.2	0.0248	0.005
343.15	0.2	0.0214	0.0043
348.15	0.2	0.0186	0.0037
353.15	0.2	0.0163	0.0033
283.15	0.4	0.292	0.059
288.15	0.4	0.209	0.042
293.15	0.4	0.154	0.031
298.15	0.4	0.117	0.024
303.15	0.4	0.09	0.0181
308.15	0.4	0.071	0.0142
313.15	0.4	0.0569	0.0114
318.15	0.4	0.0464	0.0093
323.15	0.4	0.0384	0.0077
328.15	0.4	0.0321	0.0064
333.15	0.4	0.0272	0.0055
338.15	0.4	0.0233	0.0047
343.15	0.4	0.0202	0.004
348.15	0.4	0.0176	0.0035
353.15	0.4	0.0154	0.0031
283.15	0.6	0.248	0.05
288.15	0.6	0.18	0.036
293.15	0.6	0.134	0.027
298.15	0.6	0.103	0.021
303.15	0.6	0.08	0.0161
308.15	0.6	0.0636	0.0128
313.15	0.6	0.0515	0.0103
318.15	0.6	0.0423	0.0085
323.15	0.6	0.0352	0.0071
328.15	0.6	0.0296	0.0059
333.15	0.6	0.0253	0.0051
338.15	0.6	0.0217	0.0043
343.15	0.6	0.0189	0.0038
348.15	0.6	0.0165	0.0033
353.15	0.6	0.0146	0.0029
283.15	0.8	0.201	0.041
288.15	0.8	0.149	0.03
293.15	0.8	0.113	0.023
298.15	0.8	0.0881	0.0177
303.15	0.8	0.0697	0.014
308.15	0.8	0.0562	0.0113
313.15	0.8	0.0459	0.0092
318.15	0.8	0.038	0.0076
323.15	0.8	0.0318	0.0064
328.15	0.8	0.027	0.0054
333.15	0.8	0.0232	0.0047
338.15	0.8	0.02	0.004
343.15	0.8	0.0175	0.0035
348.15	0.8	0.0154	0.0031
353.15	0.8	0.0136	0.0027
283.15	1	0.179	0.036
288.15	1	0.133	0.027
293.15	1	0.102	0.02
298.15	1	0.0794	0.0159
303.15	1	0.0632	0.0127
308.15	1	0.0511	0.0102
313.15	1	0.042	0.0084
318.15	1	0.035	0.007
323.15	1	0.0295	0.0059
328.15	1	0.0252	0.005
333.15	1	0.0217	0.0043
338.15	1	0.0188	0.0038
343.15	1	0.0165	0.0033
348.15	1	0.0146	0.0029
353.15	1	0.0129	0.0026

System: N,N,N-trimethylpropanaminium bis((trifluoromethyl)sulfonyl)amide + 1-methyl-1-propylpiperidinium bis(trifluoromethylsulfonyl)imide; phases: Liquid
Fixed: Pressure, kPa = 101.3
Property: Refractive index (Na D-line) (Liquid); method: Standard Abbe refractometry
Temperature, K	Mole fraction of N,N,N-trimethylpropanaminium bis((trifluoromethyl)sulfonyl)amide	Refractive index (Na D-line)	uncertainty
283.15	0	1.4312	0.0006
288.15	0	1.4297	0.0006
293.15	0	1.4284	0.0006
298.15	0	1.4269	0.0006
303.15	0	1.4256	0.0006
308.15	0	1.4242	0.0006
313.15	0	1.4228	0.0006
318.15	0	1.4214	0.0006
323.15	0	1.42	0.0006
328.15	0	1.4187	0.0006
333.15	0	1.4173	0.0006
338.15	0	1.416	0.0006
343.15	0	1.4146	0.0006
348.15	0	1.4133	0.0006
353.15	0	1.412	0.0006
283.15	0.2	1.4273	0.0008
288.15	0.2	1.4259	0.0008
293.15	0.2	1.4246	0.0008
298.15	0.2	1.4231	0.0008
303.15	0.2	1.4218	0.0008
308.15	0.2	1.4204	0.0008
313.15	0.2	1.4191	0.0008
318.15	0.2	1.4177	0.0008
323.15	0.2	1.4163	0.0008
328.15	0.2	1.415	0.0008
333.15	0.2	1.4136	0.0008
338.15	0.2	1.4123	0.0008
343.15	0.2	1.411	0.0007
348.15	0.2	1.4097	0.0007
353.15	0.2	1.4083	0.0007
283.15	0.4	1.4229	0.0008
288.15	0.4	1.4215	0.0008
293.15	0.4	1.4202	0.0008
298.15	0.4	1.4188	0.0008
303.15	0.4	1.4174	0.0008
308.15	0.4	1.4161	0.0008
313.15	0.4	1.4147	0.0008
318.15	0.4	1.4133	0.0008
323.15	0.4	1.412	0.0008
328.15	0.4	1.4107	0.0008
333.15	0.4	1.4093	0.0008
338.15	0.4	1.408	0.0008
343.15	0.4	1.4067	0.0008
348.15	0.4	1.4054	0.0008
353.15	0.4	1.4041	0.0008
283.15	0.6	1.4184	0.0008
288.15	0.6	1.417	0.0008
293.15	0.6	1.4156	0.0008
298.15	0.6	1.4143	0.0008
303.15	0.6	1.4129	0.0008
308.15	0.6	1.4116	0.0008
313.15	0.6	1.4102	0.0008
318.15	0.6	1.4089	0.0008
323.15	0.6	1.4076	0.0008
328.15	0.6	1.4062	0.0008
333.15	0.6	1.4049	0.0008
338.15	0.6	1.4036	0.0008
343.15	0.6	1.4023	0.0008
348.15	0.6	1.401	0.0008
353.15	0.6	1.3997	0.0008
283.15	0.8	1.4137	0.0008
288.15	0.8	1.4124	0.0008
293.15	0.8	1.411	0.0008
298.15	0.8	1.4097	0.0008
303.15	0.8	1.4083	0.0008
308.15	0.8	1.407	0.0008
313.15	0.8	1.4056	0.0008
318.15	0.8	1.4043	0.0008
323.15	0.8	1.403	0.0008
328.15	0.8	1.4017	0.0008
333.15	0.8	1.4004	0.0008
338.15	0.8	1.3991	0.0008
343.15	0.8	1.3978	0.0008
348.15	0.8	1.3965	0.0008
353.15	0.8	1.3952	0.0008
283.15	1	1.4089	0.0006
288.15	1	1.4076	0.0006
293.15	1	1.4062	0.0006
298.15	1	1.4049	0.0006
303.15	1	1.4036	0.0006
308.15	1	1.4022	0.0006
313.15	1	1.4009	0.0006
318.15	1	1.3996	0.0006
323.15	1	1.3983	0.0006
328.15	1	1.397	0.0006
333.15	1	1.3957	0.0006
338.15	1	1.3944	0.0006
343.15	1	1.3931	0.0006
348.15	1	1.3918	0.0006
353.15	1	1.3906	0.0006

System: N,N,N-trimethylpropanaminium bis((trifluoromethyl)sulfonyl)amide + 1-methyl-1-propylpyrrolidinium bis[(trifluoromethyl)sulfonyl]imide; phases: Liquid
Fixed: Pressure, kPa = 101.3
Property: Mass density, kg/m3 (Liquid); method: Vibrating tube method
Temperature, K	Mole fraction of N,N,N-trimethylpropanaminium bis((trifluoromethyl)sulfonyl)amide	Mass density, kg/m3	uncertainty
283.15	0	1441	10
288.15	0	1436.4	10.1
293.15	0	1431.9	10.1
298.15	0	1427.4	10.1
303.15	0	1422.8	10.1
308.15	0	1418.3	10.1
313.15	0	1413.8	10.1
318.15	0	1409.3	10.1
323.15	0	1404.8	10.1
328.15	0	1400.4	10.1
333.15	0	1396	10.1
338.15	0	1391.6	10.1
343.15	0	1387.2	10.1
348.15	0	1382.9	10.1
353.15	0	1378.6	10.1
283.15	0.2	1440	10
288.15	0.2	1435.4	10.1
293.15	0.2	1431	10.1
298.15	0.2	1426.5	10.1
303.15	0.2	1422.1	10.1
308.15	0.2	1417.6	10.1
313.15	0.2	1413.2	10.1
318.15	0.2	1408.8	10.1
323.15	0.2	1404.3	10.1
328.15	0.2	1399.9	10.1
333.15	0.2	1395.5	10.1
338.15	0.2	1391	10.1
343.15	0.2	1386.6	10.1
348.15	0.2	1382.2	10.1
353.15	0.2	1377.8	10.1
283.15	0.4	1440	11
288.15	0.4	1435.2	10.1
293.15	0.4	1430.7	10.1
298.15	0.4	1426.3	10.1
303.15	0.4	1421.8	10.1
308.15	0.4	1417.4	10.1
313.15	0.4	1412.9	10.1
318.15	0.4	1408.5	10.1
323.15	0.4	1404	10.1
328.15	0.4	1399.6	10.1
333.15	0.4	1395.2	10.1
338.15	0.4	1390.7	10.1
343.15	0.4	1386.3	10.1
348.15	0.4	1381.9	10.1
353.15	0.4	1377.5	10.1
283.15	0.6	1440	11
288.15	0.6	1435.5	10.1
293.15	0.6	1431	10.1
298.15	0.6	1426.6	10.1
303.15	0.6	1422.2	10.1
308.15	0.6	1417.7	10.1
313.15	0.6	1413.3	10.1
318.15	0.6	1408.8	10.1
323.15	0.6	1404.4	10.1
328.15	0.6	1399.9	10.1
333.15	0.6	1395.5	10.1
338.15	0.6	1391	10.1
343.15	0.6	1386.6	10.1
348.15	0.6	1382.2	10.1
353.15	0.6	1377.7	10.1
283.15	0.8	1440	11
288.15	0.8	1435.7	10.1
293.15	0.8	1431.3	10.1
298.15	0.8	1426.8	10.1
303.15	0.8	1422.4	10.1
308.15	0.8	1417.9	10.1
313.15	0.8	1413.5	10.1
318.15	0.8	1409	10.1
323.15	0.8	1404.5	10.1
328.15	0.8	1400.1	10.1
333.15	0.8	1395.7	10.1
338.15	0.8	1391.2	10.1
343.15	0.8	1386.8	10.1
348.15	0.8	1382.4	10.1
353.15	0.8	1378	10.1
283.15	1	1440	10
288.15	1	1436.2	10.1
293.15	1	1431.7	10.1
298.15	1	1427.1	10.1
303.15	1	1422.6	10.1
308.15	1	1418.1	10.1
313.15	1	1413.6	10.1
318.15	1	1409.1	10.1
323.15	1	1404.7	10.1
328.15	1	1400.2	10.1
333.15	1	1395.8	10.1
338.15	1	1391.4	10.1
343.15	1	1387	10.1
348.15	1	1382.7	10.1
353.15	1	1378.3	10.1

System: N,N,N-trimethylpropanaminium bis((trifluoromethyl)sulfonyl)amide + 1-methyl-1-propylpyrrolidinium bis[(trifluoromethyl)sulfonyl]imide; phases: Liquid
Fixed: Pressure, kPa = 101.3
Property: Viscosity, Pa*s (Liquid); method: Concentric cylinders viscometry
Temperature, K	Mole fraction of N,N,N-trimethylpropanaminium bis((trifluoromethyl)sulfonyl)amide	Viscosity, Pa*s	uncertainty
283.15	0	0.126	0.025
288.15	0	0.0972	0.0195
293.15	0	0.0764	0.0153
298.15	0	0.0612	0.0123
303.15	0	0.0498	0.01
308.15	0	0.0411	0.0082
313.15	0	0.0344	0.0069
318.15	0	0.0292	0.0058
323.15	0	0.025	0.005
328.15	0	0.0216	0.0043
333.15	0	0.0188	0.0038
338.15	0	0.0166	0.0033
343.15	0	0.0147	0.0029
348.15	0	0.0131	0.0026
353.15	0	0.0117	0.0023
283.15	0.2	0.129	0.026
288.15	0.2	0.1013	0.0203
293.15	0.2	0.0784	0.0157
298.15	0.2	0.0628	0.0126
303.15	0.2	0.0511	0.0102
308.15	0.2	0.0422	0.0085
313.15	0.2	0.0352	0.0071
318.15	0.2	0.0298	0.006
323.15	0.2	0.0255	0.0051
328.15	0.2	0.022	0.0044
333.15	0.2	0.0191	0.0038
338.15	0.2	0.0168	0.0034
343.15	0.2	0.0148	0.003
348.15	0.2	0.0132	0.0026
353.15	0.2	0.0118	0.0024
283.15	0.4	0.135	0.027
288.15	0.4	0.104	0.021
293.15	0.4	0.0812	0.0163
298.15	0.4	0.0649	0.013
303.15	0.4	0.0525	0.0105
308.15	0.4	0.0431	0.0086
313.15	0.4	0.0359	0.0072
318.15	0.4	0.0303	0.0061
323.15	0.4	0.0258	0.0052
328.15	0.4	0.0222	0.0044
333.15	0.4	0.0193	0.0039
338.15	0.4	0.0169	0.0034
343.15	0.4	0.0149	0.003
348.15	0.4	0.0133	0.0027
353.15	0.4	0.0119	0.0024
283.15	0.6	0.148	0.03
288.15	0.6	0.113	0.023
293.15	0.6	0.0883	0.0177
298.15	0.6	0.07	0.014
303.15	0.6	0.0563	0.0113
308.15	0.6	0.0461	0.0092
313.15	0.6	0.0382	0.0077
318.15	0.6	0.0321	0.0064
323.15	0.6	0.0273	0.0055
328.15	0.6	0.0234	0.0047
333.15	0.6	0.0203	0.0041
338.15	0.6	0.0177	0.0035
343.15	0.6	0.0156	0.0031
348.15	0.6	0.0138	0.0028
353.15	0.6	0.0123	0.0025
283.15	0.8	0.16	0.032
288.15	0.8	0.121	0.024
293.15	0.8	0.0936	0.0188
298.15	0.8	0.0738	0.0148
303.15	0.8	0.0592	0.0119
308.15	0.8	0.0483	0.0097
313.15	0.8	0.0399	0.008
318.15	0.8	0.0334	0.0067
323.15	0.8	0.0283	0.0057
328.15	0.8	0.0242	0.0048
333.15	0.8	0.0209	0.0042
338.15	0.8	0.0182	0.0036
343.15	0.8	0.016	0.0032
348.15	0.8	0.0142	0.0028
353.15	0.8	0.0126	0.0025
283.15	1	0.179	0.036
288.15	1	0.133	0.027
293.15	1	0.102	0.02
298.15	1	0.0794	0.0159
303.15	1	0.0632	0.0127
308.15	1	0.0511	0.0102
313.15	1	0.042	0.0084
318.15	1	0.035	0.007
323.15	1	0.0295	0.0059
328.15	1	0.0252	0.005
333.15	1	0.0217	0.0043
338.15	1	0.0188	0.0038
343.15	1	0.0165	0.0033
348.15	1	0.0146	0.0029
353.15	1	0.0129	0.0026

System: N,N,N-trimethylpropanaminium bis((trifluoromethyl)sulfonyl)amide + 1-methyl-1-propylpyrrolidinium bis[(trifluoromethyl)sulfonyl]imide; phases: Liquid
Fixed: Pressure, kPa = 101.3
Property: Refractive index (Na D-line) (Liquid); method: Standard Abbe refractometry
Temperature, K	Mole fraction of N,N,N-trimethylpropanaminium bis((trifluoromethyl)sulfonyl)amide	Refractive index (Na D-line)	uncertainty
283.15	0	1.4247	0.0006
288.15	0	1.4234	0.0006
293.15	0	1.422	0.0006
298.15	0	1.4206	0.0006
303.15	0	1.4193	0.0006
308.15	0	1.4179	0.0006
313.15	0	1.4166	0.0006
318.15	0	1.4152	0.0006
323.15	0	1.4139	0.0006
328.15	0	1.4125	0.0006
333.15	0	1.4112	0.0006
338.15	0	1.4099	0.0006
343.15	0	1.4085	0.0006
348.15	0	1.4072	0.0006
353.15	0	1.4059	0.0006
283.15	0.2	1.4216	0.0007
288.15	0.2	1.4203	0.0007
293.15	0.2	1.4189	0.0007
298.15	0.2	1.4175	0.0007
303.15	0.2	1.4162	0.0007
308.15	0.2	1.4148	0.0007
313.15	0.2	1.4134	0.0007
318.15	0.2	1.4121	0.0007
323.15	0.2	1.4108	0.0007
328.15	0.2	1.4094	0.0007
333.15	0.2	1.4081	0.0007
338.15	0.2	1.4067	0.0007
343.15	0.2	1.4054	0.0007
348.15	0.2	1.4041	0.0007
353.15	0.2	1.4028	0.0007
283.15	0.4	1.4185	0.0007
288.15	0.4	1.4171	0.0007
293.15	0.4	1.4157	0.0007
298.15	0.4	1.4143	0.0007
303.15	0.4	1.413	0.0007
308.15	0.4	1.4116	0.0007
313.15	0.4	1.4103	0.0007
318.15	0.4	1.4089	0.0007
323.15	0.4	1.4076	0.0007
328.15	0.4	1.4063	0.0007
333.15	0.4	1.4049	0.0007
338.15	0.4	1.4037	0.0007
343.15	0.4	1.4023	0.0007
348.15	0.4	1.401	0.0007
353.15	0.4	1.3997	0.0007
283.15	0.6	1.4153	0.0007
288.15	0.6	1.4139	0.0007
293.15	0.6	1.4126	0.0007
298.15	0.6	1.4112	0.0007
303.15	0.6	1.4099	0.0007
308.15	0.6	1.4085	0.0007
313.15	0.6	1.4072	0.0007
318.15	0.6	1.4059	0.0007
323.15	0.6	1.4045	0.0007
328.15	0.6	1.4032	0.0007
333.15	0.6	1.4019	0.0007
338.15	0.6	1.4006	0.0007
343.15	0.6	1.3993	0.0007
348.15	0.6	1.398	0.0007
353.15	0.6	1.3967	0.0007
283.15	0.8	1.4121	0.0007
288.15	0.8	1.4107	0.0007
293.15	0.8	1.4094	0.0007
298.15	0.8	1.4081	0.0007
303.15	0.8	1.4068	0.0007
308.15	0.8	1.4054	0.0007
313.15	0.8	1.404	0.0007
318.15	0.8	1.4027	0.0007
323.15	0.8	1.4014	0.0007
328.15	0.8	1.4001	0.0007
333.15	0.8	1.3988	0.0007
338.15	0.8	1.3975	0.0007
343.15	0.8	1.3962	0.0007
348.15	0.8	1.3949	0.0007
353.15	0.8	1.3936	0.0007
283.15	1	1.4089	0.0006
288.15	1	1.4076	0.0006
293.15	1	1.4062	0.0006
298.15	1	1.4049	0.0006
303.15	1	1.4036	0.0006
308.15	1	1.4022	0.0006
313.15	1	1.4009	0.0006
318.15	1	1.3996	0.0006
323.15	1	1.3983	0.0006
328.15	1	1.397	0.0006
333.15	1	1.3957	0.0006
338.15	1	1.3944	0.0006
343.15	1	1.3931	0.0006
348.15	1	1.3918	0.0006
353.15	1	1.3906	0.0006

System: 1-methyl-1-propylpiperidinium bis(fluorosulfonyl)imide + 1-butyl-1-methylpyrrolidinium bis(fluorosulfonyl)amide; phases: Liquid
Fixed: Pressure, kPa = 101.3
Property: Mass density, kg/m3 (Liquid); method: Vibrating tube method
Temperature, K	Mole fraction of 1-methyl-1-propylpiperidinium bis(fluorosulfonyl)imide	Mass density, kg/m3	uncertainty
283.15	0	1331	10
288.15	0	1326.9	10.1
293.15	0	1323.1	10.1
298.15	0	1319.4	10.1
303.15	0	1315.6	10.1
308.15	0	1311.8	10.1
313.15	0	1308.1	10.1
318.15	0	1304.3	10.1
323.15	0	1300.5	10.1
328.15	0	1296.8	10.1
333.15	0	1293	10.1
338.15	0	1289.3	10.1
343.15	0	1285.6	10.1
348.15	0	1281.8	10.1
353.15	0	1278.1	10.1
283.15	0.2	1328	10
288.15	0.2	1324.4	10.1
293.15	0.2	1320.6	10.1
298.15	0.2	1316.8	10.1
303.15	0.2	1313	10.1
308.15	0.2	1309.2	10.1
313.15	0.2	1305.4	10.1
318.15	0.2	1301.6	10.1
323.15	0.2	1297.8	10.1
328.15	0.2	1294.1	10.1
333.15	0.2	1290.3	10.1
338.15	0.2	1286.5	10.1
343.15	0.2	1282.8	10.1
348.15	0.2	1279	10.1
353.15	0.2	1275.3	10.1
283.15	0.4	1324	10
288.15	0.4	1319.9	10.1
293.15	0.4	1316	10.1
298.15	0.4	1312.2	10.1
303.15	0.4	1308.4	10.1
308.15	0.4	1304.6	10.1
313.15	0.4	1300.8	10.1
318.15	0.4	1296.9	10.1
323.15	0.4	1293.1	10.1
328.15	0.4	1289.3	10.1
333.15	0.4	1285.5	10.1
338.15	0.4	1281.7	10.1
343.15	0.4	1278	10.1
348.15	0.4	1274.2	10.1
353.15	0.4	1270.4	10.1
283.15	0.6	1322	10
288.15	0.6	1317.9	10.1
293.15	0.6	1314	10.1
298.15	0.6	1310.2	10.1
303.15	0.6	1306.3	10.1
308.15	0.6	1302.5	10.1
313.15	0.6	1298.7	10.1
318.15	0.6	1294.9	10.1
323.15	0.6	1291	10.1
328.15	0.6	1287.2	10.1
333.15	0.6	1283.4	10.1
338.15	0.6	1279.6	10.1
343.15	0.6	1275.9	10.1
348.15	0.6	1272.1	10.1
353.15	0.6	1268.3	10.1
283.15	0.8	1320	10
288.15	0.8	1316	10.1
293.15	0.8	1312.1	10.1
298.15	0.8	1308.3	10.1
303.15	0.8	1304.4	10.1
308.15	0.8	1300.6	10.1
313.15	0.8	1296.8	10.1
318.15	0.8	1292.9	10.1
323.15	0.8	1289.1	10.1
328.15	0.8	1285.3	10.1
333.15	0.8	1281.5	10.1
338.15	0.8	1277.7	10.1
343.15	0.8	1273.9	10.1
348.15	0.8	1270.1	10.1
353.15	0.8	1266.3	10.1
283.15	1	1317	10
288.15	1	1313.5	10.1
293.15	1	1309.6	10.1
298.15	1	1305.8	10.1
303.15	1	1301.9	10.1
308.15	1	1298.1	10.1
313.15	1	1294.2	10.1
318.15	1	1290.4	10.1
323.15	1	1286.6	10.1
328.15	1	1282.8	10.1
333.15	1	1279	10.1
338.15	1	1275.1	10.1
343.15	1	1271.4	10.1
348.15	1	1267.5	10.1
353.15	1	1263.8	10.1

System: 1-methyl-1-propylpiperidinium bis(fluorosulfonyl)imide + 1-butyl-1-methylpyrrolidinium bis(fluorosulfonyl)amide; phases: Liquid
Fixed: Pressure, kPa = 101.3
Property: Viscosity, Pa*s (Liquid); method: Concentric cylinders viscometry
Temperature, K	Mole fraction of 1-methyl-1-propylpiperidinium bis(fluorosulfonyl)imide	Viscosity, Pa*s	uncertainty
283.15	0	0.174	0.035
288.15	0	0.135	0.027
293.15	0	0.107	0.021
298.15	0	0.086	0.0172
303.15	0	0.0702	0.0141
308.15	0	0.058	0.0116
313.15	0	0.0486	0.0097
318.15	0	0.0412	0.0083
323.15	0	0.0352	0.0071
328.15	0	0.0304	0.0061
333.15	0	0.0264	0.0053
338.15	0	0.0231	0.0046
343.15	0	0.0204	0.0041
348.15	0	0.0181	0.0036
353.15	0	0.0162	0.0032
283.15	0.2	0.148	0.03
288.15	0.2	0.117	0.024
293.15	0.2	0.0932	0.0188
298.15	0.2	0.0757	0.0152
303.15	0.2	0.0623	0.0125
308.15	0.2	0.052	0.0104
313.15	0.2	0.0439	0.0088
318.15	0.2	0.0374	0.0075
323.15	0.2	0.0322	0.0065
328.15	0.2	0.0279	0.0056
333.15	0.2	0.0244	0.0049
338.15	0.2	0.0215	0.0043
343.15	0.2	0.0191	0.0038
348.15	0.2	0.017	0.0034
353.15	0.2	0.0152	0.003
283.15	0.4	0.112	0.023
288.15	0.4	0.0892	0.018
293.15	0.4	0.0724	0.0146
298.15	0.4	0.0596	0.012
303.15	0.4	0.0497	0.01
308.15	0.4	0.0419	0.0084
313.15	0.4	0.0358	0.0072
318.15	0.4	0.0308	0.0062
323.15	0.4	0.0267	0.0054
328.15	0.4	0.0234	0.0047
333.15	0.4	0.0206	0.0041
338.15	0.4	0.0183	0.0037
343.15	0.4	0.0163	0.0033
348.15	0.4	0.0146	0.0029
353.15	0.4	0.0132	0.0026
283.15	0.6	0.104	0.021
288.15	0.6	0.0834	0.0167
293.15	0.6	0.0681	0.0136
298.15	0.6	0.0564	0.0113
303.15	0.6	0.0473	0.0095
308.15	0.6	0.04	0.008
313.15	0.6	0.0343	0.0069
318.15	0.6	0.0296	0.0059
323.15	0.6	0.0258	0.0052
328.15	0.6	0.0226	0.0045
333.15	0.6	0.02	0.004
338.15	0.6	0.0177	0.0035
343.15	0.6	0.0159	0.0032
348.15	0.6	0.0143	0.0029
353.15	0.6	0.0129	0.0026
283.15	0.8	0.0993	0.0199
288.15	0.8	0.0803	0.0161
293.15	0.8	0.0659	0.0132
298.15	0.8	0.0548	0.011
303.15	0.8	0.0461	0.0092
308.15	0.8	0.0392	0.0079
313.15	0.8	0.0336	0.0067
318.15	0.8	0.0291	0.0058
323.15	0.8	0.0254	0.0051
328.15	0.8	0.0224	0.0045
333.15	0.8	0.0198	0.004
338.15	0.8	0.0176	0.0035
343.15	0.8	0.0158	0.0032
348.15	0.8	0.0142	0.0028
353.15	0.8	0.0128	0.0026
283.15	1	0.0915	0.0183
288.15	1	0.0744	0.0149
293.15	1	0.0614	0.0123
298.15	1	0.0512	0.0103
303.15	1	0.0433	0.0087
308.15	1	0.0369	0.0074
313.15	1	0.0318	0.0064
318.15	1	0.0276	0.0055
323.15	1	0.0242	0.0048
328.15	1	0.0213	0.0043
333.15	1	0.0189	0.0038
338.15	1	0.0169	0.0034
343.15	1	0.0151	0.003
348.15	1	0.0137	0.0027
353.15	1	0.0124	0.0025

System: 1-methyl-1-propylpiperidinium bis(fluorosulfonyl)imide + 1-butyl-1-methylpyrrolidinium bis(fluorosulfonyl)amide; phases: Liquid
Fixed: Pressure, kPa = 101.3
Property: Refractive index (Na D-line) (Liquid); method: Standard Abbe refractometry
Temperature, K	Mole fraction of 1-methyl-1-propylpiperidinium bis(fluorosulfonyl)imide	Refractive index (Na D-line)	uncertainty
283.15	0	1.453	0.0006
288.15	0	1.4517	0.0006
293.15	0	1.4503	0.0006
298.15	0	1.4489	0.0006
303.15	0	1.4476	0.0006
308.15	0	1.4462	0.0006
313.15	0	1.4449	0.0006
318.15	0	1.4436	0.0006
323.15	0	1.4422	0.0006
328.15	0	1.4409	0.0006
333.15	0	1.4396	0.0006
338.15	0	1.4383	0.0006
343.15	0	1.437	0.0006
348.15	0	1.4357	0.0006
353.15	0	1.4344	0.0006
283.15	0.2	1.4523	0.0006
288.15	0.2	1.4509	0.0006
293.15	0.2	1.4495	0.0006
298.15	0.2	1.448	0.0006
303.15	0.2	1.4467	0.0006
308.15	0.2	1.4453	0.0006
313.15	0.2	1.4439	0.0006
318.15	0.2	1.4426	0.0006
323.15	0.2	1.4413	0.0006
328.15	0.2	1.4399	0.0006
333.15	0.2	1.4386	0.0006
338.15	0.2	1.4373	0.0006
343.15	0.2	1.4359	0.0006
348.15	0.2	1.4346	0.0006
353.15	0.2	1.4333	0.0006
283.15	0.4	1.4508	0.0006
288.15	0.4	1.4493	0.0006
293.15	0.4	1.448	0.0006
298.15	0.4	1.4466	0.0006
303.15	0.4	1.4452	0.0006
308.15	0.4	1.4439	0.0006
313.15	0.4	1.4425	0.0006
318.15	0.4	1.4412	0.0006
323.15	0.4	1.4398	0.0006
328.15	0.4	1.4385	0.0006
333.15	0.4	1.4372	0.0006
338.15	0.4	1.4358	0.0006
343.15	0.4	1.4345	0.0006
348.15	0.4	1.4332	0.0006
353.15	0.4	1.4319	0.0006
283.15	0.6	1.4501	0.0006
288.15	0.6	1.4487	0.0006
293.15	0.6	1.4473	0.0006
298.15	0.6	1.4459	0.0006
303.15	0.6	1.4446	0.0006
308.15	0.6	1.4432	0.0006
313.15	0.6	1.4419	0.0006
318.15	0.6	1.4405	0.0006
323.15	0.6	1.4391	0.0006
328.15	0.6	1.4378	0.0006
333.15	0.6	1.4365	0.0006
338.15	0.6	1.4351	0.0006
343.15	0.6	1.4338	0.0006
348.15	0.6	1.4325	0.0006
353.15	0.6	1.4312	0.0006
283.15	0.8	1.4496	0.0006
288.15	0.8	1.4482	0.0006
293.15	0.8	1.4468	0.0006
298.15	0.8	1.4454	0.0006
303.15	0.8	1.444	0.0006
308.15	0.8	1.4427	0.0006
313.15	0.8	1.4413	0.0006
318.15	0.8	1.4399	0.0006
323.15	0.8	1.4386	0.0006
328.15	0.8	1.4373	0.0006
333.15	0.8	1.4359	0.0006
338.15	0.8	1.4346	0.0006
343.15	0.8	1.4333	0.0006
348.15	0.8	1.432	0.0006
353.15	0.8	1.4307	0.0006
283.15	1	1.4488	0.0006
288.15	1	1.4474	0.0006
293.15	1	1.446	0.0006
298.15	1	1.4446	0.0006
303.15	1	1.4432	0.0006
308.15	1	1.4418	0.0006
313.15	1	1.4403	0.0006
318.15	1	1.439	0.0006
323.15	1	1.4376	0.0006
328.15	1	1.4363	0.0006
333.15	1	1.4349	0.0006
338.15	1	1.4336	0.0006
343.15	1	1.4323	0.0006
348.15	1	1.431	0.0006
353.15	1	1.4297	0.0006
