Measured thermophysical data. Solubility Measurement and Correlation for e-2,4,6,8,10,12-Hexanitro-2,4,6,8,10,12-hexaazaisowurtzitane in Five Organic Solvents at Temperatures between 283.15 and 333.15 K and Different Chloralkane + Ethyl Acetate Binary Solvents at Temperatures between 283.15 and 323.15 K
Source: J. Chem. Eng. Data, 2017, 10.1021/acs.jced.6b00664
Compound 1: N-methylpyrrolidone, C5H9NO, InChI=1S/C5H9NO/c1-6-4-2-3-5(6)7/h2-4H2,1H3, purity 99.5%
Compound 2: 2,4,6,8,10,12-hexanitro-2,4,6,8,10,12-hexaazaisowurtzitane, C6H6N12O12, InChI=1S/C6H6N12O12/c19-13(20)7-1-2-8(14(21)22)5(7)6-9(15(23)24)3(11(1)17(27)28)4(10(6)16(25)26)12(2)18(29)30/h1-6H, purity 99.5%
Compound 3: cyclohexanone, C6H10O, InChI=1S/C6H10O/c7-6-4-2-1-3-5-6/h1-5H2, purity 99.5%
Compound 4: dimethylformamide, C3H7NO, InChI=1S/C3H7NO/c1-4(2)3-5/h3H,1-2H3, purity 99.5%
Compound 5: acetonitrile, C2H3N, InChI=1S/C2H3N/c1-2-3/h1H3, purity 99.5%
Compound 6: ethyl acetate, C4H8O2, InChI=1S/C4H8O2/c1-3-6-4(2)5/h3H2,1-2H3, purity 99.5%
Compound 7: dichloromethane, CH2Cl2, InChI=1S/CH2Cl2/c2-1-3/h1H2, purity 99.5%
Compound 8: trichloromethane, CHCl3, InChI=1S/CHCl3/c2-1(3)4/h1H, purity 99.5%
Compound 9: tetrachloromethane, CCl4, InChI=1S/CCl4/c2-1(3,4)5, purity 99.5%
Compound 10: 1,2-dichloroethane, C2H4Cl2, InChI=1S/C2H4Cl2/c3-1-2-4/h1-2H2, purity 99.5%
Compound 11: cyclotetramethylene tetranitramine, C4H8N8O8, InChI=1S/C4H8N8O8/c13-9(14)5-1-6(10(15)16)3-8(12(19)20)4-7(2-5)11(17)18/h1-4H2, purity 99.5%
Compound 12: acetone, C3H6O, InChI=1S/C3H6O/c1-3(2)4/h1-2H3, purity 99.5%
Compound 13: water, H2O, InChI=1S/H2O/h1H2, purity 99.5%

System: N-methylpyrrolidone + 2,4,6,8,10,12-hexanitro-2,4,6,8,10,12-hexaazaisowurtzitane; phases: Liquid, Crystal
Fixed: Pressure, kPa = 100
Property: Mole fraction of 2,4,6,8,10,12-hexanitro-2,4,6,8,10,12-hexaazaisowurtzitane (Liquid); method: Titration method
Temperature, K	Mole fraction of 2,4,6,8,10,12-hexanitro-2,4,6,8,10,12-hexaazaisowurtzitane	uncertainty
283.15	0.20874	0.02088
288.15	0.20748	0.02075
293.15	0.20632	0.02064
298.15	0.20585	0.02059
303.15	0.20506	0.02051
308.15	0.20416	0.02042
313.15	0.20344	0.02035
318.15	0.20221	0.02023
323.15	0.20156	0.02016
328.15	0.20076	0.02008
333.15	0.20013	0.02002

System: cyclohexanone + 2,4,6,8,10,12-hexanitro-2,4,6,8,10,12-hexaazaisowurtzitane; phases: Liquid, Crystal
Fixed: Pressure, kPa = 100
Property: Mole fraction of 2,4,6,8,10,12-hexanitro-2,4,6,8,10,12-hexaazaisowurtzitane (Liquid); method: Titration method
Temperature, K	Mole fraction of 2,4,6,8,10,12-hexanitro-2,4,6,8,10,12-hexaazaisowurtzitane	uncertainty
283.15	0.15862	0.01587
288.15	0.159	0.0159
293.15	0.1594	0.01594
298.15	0.15991	0.01599
303.15	0.16031	0.01603
308.15	0.16055	0.01606
313.15	0.16079	0.01608
318.15	0.16094	0.0161
323.15	0.16125	0.01613
328.15	0.16163	0.01617
333.15	0.16201	0.0162

System: dimethylformamide + 2,4,6,8,10,12-hexanitro-2,4,6,8,10,12-hexaazaisowurtzitane; phases: Liquid, Crystal
Fixed: Pressure, kPa = 100
Property: Mole fraction of 2,4,6,8,10,12-hexanitro-2,4,6,8,10,12-hexaazaisowurtzitane (Liquid); method: Titration method
Temperature, K	Mole fraction of 2,4,6,8,10,12-hexanitro-2,4,6,8,10,12-hexaazaisowurtzitane	uncertainty
283.15	0.09161	0.00916
288.15	0.09365	0.00937
293.15	0.09742	0.00975
298.15	0.10188	0.01019
303.15	0.10441	0.01044
308.15	0.10644	0.01065
313.15	0.10895	0.0109
318.15	0.11093	0.0111
323.15	0.11297	0.0113
328.15	0.11623	0.01163
333.15	0.11965	0.01197

System: acetonitrile + 2,4,6,8,10,12-hexanitro-2,4,6,8,10,12-hexaazaisowurtzitane; phases: Liquid, Crystal
Fixed: Pressure, kPa = 100
Property: Mole fraction of 2,4,6,8,10,12-hexanitro-2,4,6,8,10,12-hexaazaisowurtzitane (Liquid); method: Titration method
Temperature, K	Mole fraction of 2,4,6,8,10,12-hexanitro-2,4,6,8,10,12-hexaazaisowurtzitane	uncertainty
283.15	0.04328	0.00433
288.15	0.04696	0.0047
293.15	0.04981	0.00498
298.15	0.05294	0.0053
303.15	0.05593	0.0056
308.15	0.0579	0.00579
313.15	0.06073	0.00608
318.15	0.06411	0.00641
323.15	0.06842	0.00685
328.15	0.0722	0.00722
333.15	0.07575	0.00758

System: ethyl acetate + 2,4,6,8,10,12-hexanitro-2,4,6,8,10,12-hexaazaisowurtzitane; phases: Liquid, Crystal
Fixed: Pressure, kPa = 100
Property: Mole fraction of 2,4,6,8,10,12-hexanitro-2,4,6,8,10,12-hexaazaisowurtzitane (Liquid); method: Titration method
Temperature, K	Mole fraction of 2,4,6,8,10,12-hexanitro-2,4,6,8,10,12-hexaazaisowurtzitane	uncertainty
283.15	0.09928	0.00993
288.15	0.09901	0.0099
293.15	0.09885	0.00989
298.15	0.09851	0.00985
303.15	0.09812	0.00981
308.15	0.09771	0.00977
313.15	0.09751	0.00975
318.15	0.09713	0.00972
323.15	0.09693	0.0097
328.15	0.09663	0.00967
333.15	0.09641	0.00964

System: dichloromethane + ethyl acetate + 2,4,6,8,10,12-hexanitro-2,4,6,8,10,12-hexaazaisowurtzitane; phases: Liquid, Crystal
Fixed: Pressure, kPa = 100
Property: Mole fraction of 2,4,6,8,10,12-hexanitro-2,4,6,8,10,12-hexaazaisowurtzitane (Liquid); method: Titration method
Temperature, K	Solvent: Mole fraction of dichloromethane	Mole fraction of 2,4,6,8,10,12-hexanitro-2,4,6,8,10,12-hexaazaisowurtzitane	uncertainty
283.15	0	0.09928	0.00993
283.15	0.14	0.07156	0.007163
283.15	0.28	0.049854	0.005005
283.15	0.4	0.031705	0.003225
283.15	0.5	0.017575	0.001844
283.15	0.6	0.009615	0.000999
283.15	0.7	0.004214	0.000443
283.15	0.78	0.001439	0.000153
283.15	0.86	0.000441	4.8e-05
288.15	0	0.099009	0.009903
288.15	0.14	0.070696	0.007076
288.15	0.28	0.048661	0.004886
288.15	0.4	0.031505	0.003202
288.15	0.5	0.01754	0.001838
288.15	0.6	0.00964	0.000998
288.15	0.7	0.004704	0.000489
288.15	0.78	0.001741	0.000184
288.15	0.86	0.000534	5.8e-05
293.15	0	0.098848	0.009887
293.15	0.14	0.07056	0.007062
293.15	0.28	0.047789	0.004799
293.15	0.4	0.030611	0.003109
293.15	0.5	0.018105	0.001885
293.15	0.6	0.009702	0.001007
293.15	0.7	0.004765	0.000494
293.15	0.78	0.002089	0.000217
293.15	0.86	0.00068	7.3e-05
298.15	0	0.098509	0.009853
298.15	0.14	0.071013	0.007107
298.15	0.28	0.04869	0.004889
298.15	0.4	0.031146	0.003162
298.15	0.5	0.019031	0.001974
298.15	0.6	0.010356	0.001073
298.15	0.7	0.005064	0.000525
298.15	0.78	0.002243	0.000232
298.15	0.86	0.000729	7.8e-05
303.15	0	0.098122	0.009814
303.15	0.14	0.071632	0.007169
303.15	0.28	0.049225	0.004943
303.15	0.4	0.03159	0.003205
303.15	0.5	0.020142	0.002079
303.15	0.6	0.011232	0.001164
303.15	0.7	0.00541	0.000562
303.15	0.78	0.00244	0.000254
303.15	0.86	0.000753	8.1e-05

System: trichloromethane + ethyl acetate + 2,4,6,8,10,12-hexanitro-2,4,6,8,10,12-hexaazaisowurtzitane; phases: Liquid, Crystal
Fixed: Pressure, kPa = 100
Property: Mole fraction of 2,4,6,8,10,12-hexanitro-2,4,6,8,10,12-hexaazaisowurtzitane (Liquid); method: Titration method
Temperature, K	Solvent: Mole fraction of trichloromethane	Mole fraction of 2,4,6,8,10,12-hexanitro-2,4,6,8,10,12-hexaazaisowurtzitane	uncertainty
283.15	0	0.09928	0.00993
283.15	0.12	0.07096	0.007103
283.15	0.23	0.049257	0.004948
283.15	0.34	0.02743	0.002795
283.15	0.45	0.014944	0.001562
283.15	0.55	0.006515	0.000714
283.15	0.65	0.002197	0.000247
283.15	0.74	0.000613	7e-05
283.15	0.83	0.000125	1.6e-05
288.15	0	0.099009	0.009903
288.15	0.12	0.070882	0.007095
288.15	0.23	0.047948	0.004816
288.15	0.34	0.029222	0.002969
288.15	0.45	0.014139	0.001496
288.15	0.55	0.006625	0.000714
288.15	0.65	0.002372	0.000262
288.15	0.74	0.000622	7e-05
288.15	0.83	0.000131	1.6e-05
293.15	0	0.098848	0.009887
293.15	0.12	0.07083	0.00709
293.15	0.23	0.04758	0.004779
293.15	0.34	0.029049	0.002949
293.15	0.45	0.015056	0.001583
293.15	0.55	0.006362	0.000697
293.15	0.65	0.002425	0.000265
293.15	0.74	0.00068	7.6e-05
293.15	0.83	0.000142	1.7e-05
298.15	0	0.098509	0.009853
298.15	0.12	0.070883	0.007095
298.15	0.23	0.047676	0.004789
298.15	0.34	0.028949	0.00294
298.15	0.45	0.014631	0.001542
298.15	0.55	0.006418	0.000698
298.15	0.65	0.002447	0.000267
298.15	0.74	0.000731	8e-05
298.15	0.83	0.000163	2e-05
303.15	0	0.098122	0.009814
303.15	0.12	0.070925	0.007099
303.15	0.23	0.047669	0.004787
303.15	0.34	0.029883	0.003032
303.15	0.45	0.014801	0.001563
303.15	0.55	0.006661	0.000722
303.15	0.65	0.002487	0.000272
303.15	0.74	0.000777	8.5e-05
303.15	0.83	0.000167	2e-05
308.15	0	0.097714	0.009774
308.15	0.12	0.070883	0.007095
308.15	0.23	0.047819	0.004802
308.15	0.34	0.029799	0.003023
308.15	0.45	0.015295	0.001608
308.15	0.55	0.006933	0.00075
308.15	0.65	0.002683	0.000292
308.15	0.74	0.000823	9e-05
308.15	0.83	0.000203	2.4e-05
313.15	0	0.097514	0.009754
313.15	0.12	0.070944	0.007101
313.15	0.23	0.048103	0.004831
313.15	0.34	0.029693	0.003011
313.15	0.45	0.016099	0.001678
313.15	0.55	0.007844	0.000838
313.15	0.65	0.003133	0.000339
313.15	0.74	0.000924	0.000102
313.15	0.83	0.000217	2.5e-05
318.15	0	0.097129	0.009715
318.15	0.12	0.070959	0.007102
318.15	0.23	0.048362	0.004856
318.15	0.34	0.030089	0.003049
318.15	0.45	0.017038	0.001768
318.15	0.55	0.008308	0.000886
318.15	0.65	0.003435	0.00037
318.15	0.74	0.001033	0.000113
318.15	0.83	0.000258	3e-05
323.15	0	0.09693	0.009695
323.15	0.12	0.070978	0.007104
323.15	0.23	0.049349	0.004953
323.15	0.34	0.033595	0.003399
323.15	0.45	0.01762	0.001843
323.15	0.55	0.009089	0.000963
323.15	0.65	0.003871	0.000416
323.15	0.74	0.001191	0.000133
323.15	0.83	0.000315	3.6e-05

System: tetrachloromethane + ethyl acetate + 2,4,6,8,10,12-hexanitro-2,4,6,8,10,12-hexaazaisowurtzitane; phases: Liquid, Crystal
Fixed: Pressure, kPa = 100
Property: Mole fraction of 2,4,6,8,10,12-hexanitro-2,4,6,8,10,12-hexaazaisowurtzitane (Liquid); method: Titration method
Temperature, K	Solvent: Mole fraction of tetrachloromethane	Mole fraction of 2,4,6,8,10,12-hexanitro-2,4,6,8,10,12-hexaazaisowurtzitane	uncertainty
283.15	0	0.09928	0.00993
283.15	0.1	0.085315	0.008535
283.15	0.2	0.067993	0.006809
283.15	0.3	0.052567	0.005277
283.15	0.4	0.038028	0.003843
283.15	0.5	0.025413	0.002611
283.15	0.6	0.014167	0.001469
283.15	0.7	0.006053	0.000636
283.15	0.8	0.001372	0.000166
288.15	0	0.099009	0.009903
288.15	0.1	0.085149	0.008519
288.15	0.2	0.066524	0.006662
288.15	0.3	0.051767	0.005196
288.15	0.4	0.037373	0.003775
288.15	0.5	0.025592	0.002624
288.15	0.6	0.014383	0.00149
288.15	0.7	0.00624	0.000654
288.15	0.8	0.001451	0.000174
293.15	0	0.098848	0.009887
293.15	0.1	0.082836	0.008287
293.15	0.2	0.067025	0.006711
293.15	0.3	0.051315	0.005152
293.15	0.4	0.03734	0.003772
293.15	0.5	0.024891	0.002555
293.15	0.6	0.014328	0.00148
293.15	0.7	0.006358	0.000664
293.15	0.8	0.001541	0.000182
298.15	0	0.098509	0.009853
298.15	0.1	0.081888	0.008192
298.15	0.2	0.066549	0.006664
298.15	0.3	0.051156	0.005136
298.15	0.4	0.037056	0.003743
298.15	0.5	0.024952	0.002559
298.15	0.6	0.014463	0.001493
298.15	0.7	0.006503	0.000678
298.15	0.8	0.001687	0.000195
303.15	0	0.098122	0.009814
303.15	0.1	0.08064	0.008067
303.15	0.2	0.066062	0.006615
303.15	0.3	0.0486	0.004882
303.15	0.4	0.036485	0.00368
303.15	0.5	0.024814	0.00254
303.15	0.6	0.014902	0.001534
303.15	0.7	0.006646	0.000693
303.15	0.8	0.001769	0.000202
308.15	0	0.097714	0.009774
308.15	0.1	0.080134	0.008017
308.15	0.2	0.066129	0.006622
308.15	0.3	0.048579	0.004879
308.15	0.4	0.036375	0.003668
308.15	0.5	0.025398	0.002596
308.15	0.6	0.014922	0.00154
308.15	0.7	0.00646	0.000675
308.15	0.8	0.00182	0.000205
313.15	0	0.097514	0.009754
313.15	0.1	0.080192	0.008023
313.15	0.2	0.065729	0.006582
313.15	0.3	0.048232	0.004844
313.15	0.4	0.036705	0.003701
313.15	0.5	0.024984	0.002557
313.15	0.6	0.015024	0.001545
313.15	0.7	0.006957	0.000724
313.15	0.8	0.001793	0.000207
318.15	0	0.097129	0.009715
318.15	0.1	0.081866	0.00819
318.15	0.2	0.064998	0.00651
318.15	0.3	0.049071	0.004926
318.15	0.4	0.037293	0.003759
318.15	0.5	0.026026	0.002662
318.15	0.6	0.014978	0.001546
318.15	0.7	0.00694	0.000721
318.15	0.8	0.001865	0.000212
323.15	0	0.09693	0.009695
323.15	0.1	0.08291	0.008294
323.15	0.2	0.066029	0.006612
323.15	0.3	0.051159	0.005136
323.15	0.4	0.037756	0.00381
323.15	0.5	0.026144	0.002673
323.15	0.6	0.015539	0.001601
323.15	0.7	0.007172	0.000748
323.15	0.8	0.001924	0.000219

System: 1,2-dichloroethane + ethyl acetate + 2,4,6,8,10,12-hexanitro-2,4,6,8,10,12-hexaazaisowurtzitane; phases: Liquid, Crystal
Fixed: Pressure, kPa = 100
Property: Mole fraction of 2,4,6,8,10,12-hexanitro-2,4,6,8,10,12-hexaazaisowurtzitane (Liquid); method: Titration method
Temperature, K	Solvent: Mole fraction of 1,2-dichloroethane	Mole fraction of 2,4,6,8,10,12-hexanitro-2,4,6,8,10,12-hexaazaisowurtzitane	uncertainty
283.15	0	0.09928	0.00993
283.15	0.12	0.077944	0.007799
283.15	0.24	0.059665	0.005978
283.15	0.35	0.045008	0.004526
283.15	0.45	0.033006	0.003349
283.15	0.55	0.021732	0.002232
283.15	0.65	0.011577	0.001207
283.15	0.74	0.004571	0.000488
283.15	0.83	0.001067	0.000126
288.15	0	0.099009	0.009903
288.15	0.12	0.077066	0.007711
288.15	0.24	0.058493	0.005862
288.15	0.35	0.041969	0.004229
288.15	0.45	0.028263	0.002879
288.15	0.55	0.018172	0.001869
288.15	0.65	0.009229	0.000963
288.15	0.74	0.003721	0.000393
288.15	0.83	0.000806	9.7e-05
293.15	0	0.098848	0.009887
293.15	0.12	0.077047	0.007709
293.15	0.24	0.058131	0.005826
293.15	0.35	0.041555	0.004187
293.15	0.45	0.027662	0.002819
293.15	0.55	0.017504	0.001802
293.15	0.65	0.00878	0.000919
293.15	0.74	0.002839	0.000307
293.15	0.83	0.000703	8.1e-05
298.15	0	0.098509	0.009853
298.15	0.12	0.075756	0.00758
298.15	0.24	0.057294	0.005742
298.15	0.35	0.040938	0.004124
298.15	0.45	0.027672	0.002822
298.15	0.55	0.016539	0.001712
298.15	0.65	0.008166	0.000855
298.15	0.74	0.002867	0.000307
298.15	0.83	0.000618	7.5e-05
303.15	0	0.098122	0.009814
303.15	0.12	0.074942	0.007499
303.15	0.24	0.056987	0.005711
303.15	0.35	0.040745	0.004104
303.15	0.45	0.027855	0.002841
303.15	0.55	0.01612	0.001675
303.15	0.65	0.007715	0.000811
303.15	0.74	0.00266	0.000285
303.15	0.83	0.000633	7.4e-05
308.15	0	0.097714	0.009774
308.15	0.12	0.075629	0.007567
308.15	0.24	0.057802	0.005793
308.15	0.35	0.041348	0.004166
308.15	0.45	0.027943	0.002849
308.15	0.55	0.016707	0.001728
308.15	0.65	0.008479	0.000885
308.15	0.74	0.003122	0.000333
308.15	0.83	0.000707	8.4e-05
313.15	0	0.097514	0.009754
313.15	0.12	0.075959	0.0076
313.15	0.24	0.058635	0.005876
313.15	0.35	0.042043	0.004236
313.15	0.45	0.028373	0.002892
313.15	0.55	0.017391	0.001794
313.15	0.65	0.009116	0.000947
313.15	0.74	0.003745	0.000394
313.15	0.83	0.000831	9.9e-05
318.15	0	0.097129	0.009715
318.15	0.12	0.076534	0.007657
318.15	0.24	0.05984	0.005996
318.15	0.35	0.043057	0.004336
318.15	0.45	0.029992	0.003051
318.15	0.55	0.019493	0.002
318.15	0.65	0.010927	0.001131
318.15	0.74	0.004477	0.000471
318.15	0.83	0.00119	0.000135
323.15	0	0.09693	0.009695
323.15	0.12	0.077456	0.00775
323.15	0.24	0.061489	0.00616
323.15	0.35	0.045435	0.004567
323.15	0.45	0.036772	0.003717
323.15	0.55	0.023531	0.002419
323.15	0.65	0.013835	0.001427
323.15	0.74	0.00591	0.000626
323.15	0.83	0.001594	0.00018

System: N-methylpyrrolidone + cyclotetramethylene tetranitramine; phases: Liquid, Crystal
Fixed: Pressure, kPa = 100
Property: Mole fraction of cyclotetramethylene tetranitramine (Liquid); method: Titration method
Temperature, K	Mole fraction of cyclotetramethylene tetranitramine	uncertainty
273	0.022741	0.002288
288	0.040962	0.004105
303	0.060014	0.006007
318	0.073385	0.007345
333	0.098414	0.009848
348	0.119565	0.011963

System: acetone + cyclotetramethylene tetranitramine + water; phases: Liquid, Crystal
Fixed: Pressure, kPa = 100
Property: Mole fraction of cyclotetramethylene tetranitramine (Liquid); method: Titration method
Temperature, K	Solvent: Mole fraction of water	Mole fraction of cyclotetramethylene tetranitramine	uncertainty
293.15	0	0.0045283	0.0004531
293.15	0.1381	0.0042016	0.0004212
293.15	0.2871	0.0027977	0.000281
293.15	0.4462	0.0015938	0.0001629
293.15	0.5707	0.0007134	7.56e-05
293.15	0.6682	0.0003248	3.42e-05
293.15	0.7632	9.58e-05	1.02e-05
293.15	0.8754	1.3e-05	1.6e-06
298.15	0	0.0048426	0.0004845
298.15	0.1381	0.004539	0.0004541
298.15	0.2871	0.003117	0.0003132
298.15	0.4462	0.0017805	0.0001818
298.15	0.5707	0.0008618	9.09e-05
298.15	0.6682	0.0003921	4.15e-05
298.15	0.7632	0.0001361	1.48e-05
298.15	0.8754	2.14e-05	2.5e-06

System: acetone + cyclotetramethylene tetranitramine; phases: Liquid, Crystal
Fixed: Pressure, kPa = 100
Property: Mole fraction of cyclotetramethylene tetranitramine (Liquid); method: Titration method
Temperature, K	Mole fraction of cyclotetramethylene tetranitramine	uncertainty
293.15	0.0045283	0.0004531
298.15	0.0048426	0.0004845
