Measured thermophysical data. Measurement of the Thermal Conductivity of 1-Butyl-3-methylimidazolium l-Tryptophan + Water + Ethanol Mixtures at T = (283.15 to 333.15) K
Source: J. Chem. Eng. Data, 2019, 10.1021/acs.jced.8b01147
Compound 1: 1-butyl-3-methylimidazolium L-tryptophanate, C19H26N4O2, InChI=1S/C11H12N2O2.C8H15N2/c12-9(11(14)15)5-7-6-13-10-4-2-1-3-8(7)10;1-3-4-5-10-7-6-9(2)8-10/h1-4,6,9,13H,5,12H2,(H,14,15);6-8H,3-5H2,1-2H3/q;+1/p-1/t9-;/m0./s1, purity 99%
Compound 2: ethanol, C2H6O, InChI=1S/C2H6O/c1-2-3/h3H,2H2,1H3, purity 99.8%
Compound 3: water, H2O, InChI=1S/H2O/h1H2, purity 99.9%

System: 1-butyl-3-methylimidazolium L-tryptophanate; phases: Liquid
Fixed: Pressure, kPa = 100
Property: Thermal conductivity, W/m/K (Liquid); method: THOTW
Temperature, K	Thermal conductivity, W/m/K	uncertainty
283.92	0.18	0.004
293.5	0.18	0.004
303.46	0.179	0.004
313.48	0.179	0.004
323.45	0.178	0.004
333.58	0.178	0.004
343.39	0.177	0.004

System: ethanol; phases: Liquid
Fixed: Pressure, kPa = 100
Property: Thermal conductivity, W/m/K (Liquid); method: THOTW
Temperature, K	Thermal conductivity, W/m/K	uncertainty
283.54	0.168	0.003
293.31	0.166	0.003
303.28	0.163	0.003
313.25	0.16	0.003
323.07	0.158	0.003
332.97	0.154	0.003
342.82	0.152	0.003

System: water; phases: Liquid
Fixed: Pressure, kPa = 100
Property: Thermal conductivity, W/m/K (Liquid); method: THOTW
Temperature, K	Thermal conductivity, W/m/K	uncertainty
283.1	0.585	0.012
293.05	0.602	0.012
303.17	0.618	0.013
313.34	0.633	0.013
323.19	0.646	0.013
332.85	0.656	0.013
343.02	0.664	0.013

System: 1-butyl-3-methylimidazolium L-tryptophanate + water; phases: Liquid
Fixed: Pressure, kPa = 100
Property: Thermal conductivity, W/m/K (Liquid); method: THOTW
Mass fraction of 1-butyl-3-methylimidazolium L-tryptophanate	Temperature, K	Thermal conductivity, W/m/K	uncertainty
0.1	282.9	0.528	0.011
0.1	293.16	0.543	0.011
0.1	303.09	0.556	0.011
0.1	312.97	0.568	0.012
0.1	322.88	0.578	0.012
0.1	333.27	0.587	0.012
0.3999	282.92	0.379	0.008
0.3999	293.22	0.388	0.008
0.3999	303.2	0.396	0.008
0.3999	313.33	0.403	0.008
0.3999	323.33	0.409	0.008
0.3999	333.2	0.414	0.008
0.6998	283.35	0.259	0.005
0.6998	293.17	0.262	0.005
0.6998	303.22	0.265	0.005
0.6998	312.97	0.266	0.005
0.6998	323.09	0.269	0.006
0.6998	333.08	0.271	0.006
0.2	283.16	0.476	0.01
0.2	292.9	0.488	0.01
0.2	303.35	0.501	0.01
0.2	312.97	0.51	0.01
0.2	322.95	0.52	0.011
0.2	333.1	0.528	0.011
0.4999	283.29	0.335	0.007
0.4999	293.22	0.342	0.007
0.4999	303.08	0.347	0.007
0.4999	313.34	0.353	0.007
0.4999	322.94	0.357	0.007
0.4999	332.98	0.361	0.007
0.7997	283.41	0.228	0.005
0.7997	293.29	0.229	0.005
0.7997	303.33	0.23	0.005
0.7997	312.96	0.231	0.005
0.7997	323.05	0.232	0.005
0.7997	333.1	0.234	0.005
0.3	283	0.427	0.009
0.3	293.22	0.437	0.009
0.3	302.99	0.447	0.009
0.3	313.37	0.456	0.009
0.3	323.07	0.463	0.009
0.3	333.09	0.469	0.01
0.5998	283.11	0.295	0.006
0.5998	293.08	0.299	0.006
0.5998	303.08	0.303	0.006
0.5998	313.15	0.307	0.006
0.5998	323.07	0.311	0.006
0.5998	333.18	0.314	0.006
0.8998	283	0.2	0.004
0.8998	293.09	0.201	0.004
0.8998	303.13	0.201	0.004
0.8998	313.28	0.202	0.004
0.8998	323.08	0.202	0.004
0.8998	333.11	0.202	0.004
0	283.1	0.585	0.012
0	293.05	0.602	0.012
0	303.17	0.618	0.013
0	313.34	0.633	0.013
0	323.19	0.646	0.013
0	332.85	0.656	0.013
0	343.02	0.664	0.013
1	283.92	0.18	0.004
1	293.5	0.18	0.004
1	303.46	0.179	0.004
1	313.48	0.179	0.004
1	323.45	0.178	0.004
1	333.58	0.178	0.004
1	343.39	0.177	0.004

System: 1-butyl-3-methylimidazolium L-tryptophanate + ethanol; phases: Liquid
Fixed: Pressure, kPa = 100
Property: Thermal conductivity, W/m/K (Liquid); method: THOTW
Mass fraction of 1-butyl-3-methylimidazolium L-tryptophanate	Temperature, K	Thermal conductivity, W/m/K	uncertainty
0.0999	283.04	0.171	0.004
0.0999	292.94	0.169	0.003
0.0999	303.07	0.166	0.003
0.0999	313.1	0.163	0.003
0.0999	323.23	0.161	0.003
0.0999	333.16	0.158	0.003
0.3995	282.86	0.175	0.004
0.3995	293.32	0.173	0.004
0.3995	303.14	0.171	0.004
0.3995	313.27	0.169	0.003
0.3995	323.07	0.168	0.003
0.3995	333.27	0.165	0.003
0.6998	283.23	0.177	0.004
0.6998	293.03	0.176	0.004
0.6998	303.08	0.175	0.004
0.6998	313.34	0.174	0.004
0.6998	323.05	0.171	0.004
0.6998	333.09	0.171	0.004
0.2	283.13	0.172	0.004
0.2	293.27	0.17	0.004
0.2	303.21	0.168	0.003
0.2	313.26	0.166	0.003
0.2	323.22	0.163	0.003
0.2	333.26	0.16	0.003
0.5	282.99	0.175	0.004
0.5	293.22	0.174	0.004
0.5	302.88	0.172	0.004
0.5	313.11	0.17	0.004
0.5	323.14	0.169	0.003
0.5	333.31	0.167	0.003
0.7996	282.95	0.177	0.004
0.7996	293.34	0.177	0.004
0.7996	303.15	0.176	0.004
0.7996	312.91	0.175	0.004
0.7996	323.12	0.174	0.004
0.7996	332.87	0.172	0.004
0.3	283.18	0.173	0.004
0.3	293.01	0.171	0.004
0.3	302.82	0.17	0.004
0.3	312.97	0.167	0.003
0.3	322.98	0.164	0.003
0.3	333.35	0.163	0.003
0.5997	283.39	0.176	0.004
0.5997	293.36	0.175	0.004
0.5997	303.45	0.174	0.004
0.5997	312.99	0.172	0.004
0.5997	323.04	0.171	0.004
0.5997	332.89	0.17	0.004
0.8998	283.06	0.177	0.004
0.8998	292.84	0.177	0.004
0.8998	302.99	0.178	0.004
0.8998	312.92	0.176	0.004
0.8998	323.09	0.175	0.004
0.8998	332.94	0.174	0.004
0	283.54	0.168	0.003
0	293.31	0.166	0.003
0	303.28	0.163	0.003
0	313.25	0.16	0.003
0	323.07	0.158	0.003
0	332.97	0.154	0.003
0	342.82	0.152	0.003
1	283.92	0.18	0.004
1	293.5	0.18	0.004
1	303.46	0.179	0.004
1	313.48	0.179	0.004
1	323.45	0.178	0.004
1	333.58	0.178	0.004
1	343.39	0.177	0.004

System: water + ethanol; phases: Liquid
Fixed: Pressure, kPa = 100
Property: Thermal conductivity, W/m/K (Liquid); method: THOTW
Mass fraction of water	Temperature, K	Thermal conductivity, W/m/K	uncertainty
0.8999	282.71	0.516	0.01
0.8999	292.96	0.53	0.011
0.8999	302.89	0.546	0.011
0.8999	312.7	0.559	0.011
0.8999	322.88	0.568	0.012
0.8999	333	0.577	0.012
0.5999	283.04	0.356	0.007
0.5999	293.26	0.362	0.007
0.5999	303.05	0.367	0.007
0.5999	313.15	0.371	0.008
0.5999	322.94	0.375	0.008
0.5999	333.13	0.379	0.008
0.3	283.1	0.24	0.005
0.3	293.16	0.24	0.005
0.3	303.19	0.24	0.005
0.3	313.02	0.24	0.005
0.3	323.05	0.239	0.005
0.3	333.14	0.238	0.005
0.8	282.89	0.455	0.009
0.8	292.86	0.467	0.009
0.8	303.04	0.48	0.01
0.8	312.98	0.491	0.01
0.8	323.02	0.499	0.01
0.8	333.09	0.505	0.01
0.4993	283.23	0.311	0.006
0.4993	293.19	0.314	0.006
0.4993	303.43	0.318	0.006
0.4993	313.23	0.319	0.006
0.4993	323.01	0.321	0.007
0.4993	333.26	0.323	0.007
0.1996	283.07	0.212	0.004
0.1996	293.13	0.211	0.004
0.1996	303.12	0.21	0.004
0.1996	313.19	0.208	0.004
0.1996	323.19	0.207	0.004
0.1996	333.26	0.206	0.004
0.7001	282.92	0.403	0.008
0.7001	292.6	0.412	0.008
0.7001	303.05	0.42	0.009
0.7001	313.03	0.427	0.009
0.7001	323.12	0.434	0.009
0.7001	333.14	0.438	0.009
0.4	283.02	0.273	0.006
0.4	293.03	0.274	0.006
0.4	303.15	0.275	0.006
0.4	313	0.276	0.006
0.4	323.33	0.277	0.006
0.4	333.32	0.277	0.006
0.1	282.85	0.189	0.004
0.1	293.16	0.186	0.004
0.1	303.11	0.184	0.004
0.1	313.18	0.182	0.004
0.1	323.15	0.18	0.004
0.1	333.15	0.178	0.004
1	283.1	0.585	0.012
1	293.05	0.602	0.012
1	303.17	0.618	0.013
1	313.34	0.633	0.013
1	323.19	0.646	0.013
1	332.85	0.656	0.013
1	343.02	0.664	0.013
0	283.54	0.168	0.003
0	293.31	0.166	0.003
0	303.28	0.163	0.003
0	313.25	0.16	0.003
0	323.07	0.158	0.003
0	332.97	0.154	0.003
0	342.82	0.152	0.003

System: 1-butyl-3-methylimidazolium L-tryptophanate + water + ethanol; phases: Liquid
Fixed: Pressure, kPa = 100
Property: Thermal conductivity, W/m/K (Liquid); method: THOTW
Mass fraction of 1-butyl-3-methylimidazolium L-tryptophanate	Mass fraction of water	Temperature, K	Thermal conductivity, W/m/K	uncertainty
0.7998	0.1002	282.99	0.201	0.008
0.7998	0.1002	292.91	0.201	0.008
0.7998	0.1002	303.02	0.202	0.008
0.7998	0.1002	313.24	0.202	0.008
0.7998	0.1002	323.1	0.202	0.008
0.7998	0.1002	333.09	0.202	0.008
0.5997	0.3002	282.97	0.255	0.01
0.5997	0.3002	292.98	0.257	0.01
0.5997	0.3002	303.02	0.259	0.01
0.5997	0.3002	313.05	0.261	0.011
0.5997	0.3002	322.88	0.263	0.011
0.5997	0.3002	333.06	0.264	0.011
0.4993	0.4009	282.78	0.291	0.012
0.4993	0.4009	292.76	0.294	0.012
0.4993	0.4009	302.81	0.298	0.012
0.4993	0.4009	312.75	0.301	0.012
0.4993	0.4009	322.93	0.304	0.012
0.4993	0.4009	333.15	0.306	0.012
0.4997	0.1002	282.6	0.196	0.008
0.4997	0.1002	292.95	0.195	0.008
0.4997	0.1002	302.76	0.195	0.008
0.4997	0.1002	312.96	0.194	0.008
0.4997	0.1002	323.17	0.193	0.008
0.4997	0.1002	333.31	0.192	0.008
0.3999	0.2999	282.82	0.253	0.01
0.3999	0.2999	293.06	0.255	0.01
0.3999	0.2999	303.03	0.256	0.01
0.3999	0.2999	312.67	0.257	0.01
0.3999	0.2999	322.68	0.259	0.01
0.3999	0.2999	333.39	0.26	0.01
0.3	0.6001	282.58	0.372	0.015
0.3	0.6001	292.91	0.381	0.015
0.3	0.6001	302.36	0.387	0.016
0.3	0.6001	312.53	0.395	0.016
0.3	0.6001	322.62	0.402	0.016
0.3	0.6001	332.71	0.405	0.016
0.2984	0.3035	283.26	0.25	0.01
0.2984	0.3035	293.15	0.251	0.01
0.2984	0.3035	302.96	0.252	0.01
0.2984	0.3035	312.9	0.253	0.01
0.2984	0.3035	323.17	0.254	0.01
0.2984	0.3035	333.14	0.254	0.01
0.1992	0.6986	282.94	0.418	0.017
0.1992	0.6986	292.93	0.427	0.017
0.1992	0.6986	303.31	0.437	0.018
0.1992	0.6986	313.08	0.444	0.018
0.1992	0.6986	323.35	0.454	0.018
0.1992	0.6986	333.26	0.458	0.018
0.1995	0.4011	283.06	0.283	0.011
0.1995	0.4011	293.09	0.285	0.011
0.1995	0.4011	303.11	0.287	0.012
0.1995	0.4011	313.03	0.289	0.012
0.1995	0.4011	323.03	0.291	0.012
0.1995	0.4011	333.14	0.292	0.012
0.2	0.0998	282.73	0.193	0.008
0.2	0.0998	292.82	0.191	0.008
0.2	0.0998	303.02	0.19	0.008
0.2	0.0998	313.04	0.188	0.008
0.2	0.0998	323.33	0.187	0.008
0.2	0.0998	333.24	0.185	0.007
0.1	0.5999	283.03	0.362	0.015
0.1	0.5999	292.63	0.368	0.015
0.1	0.5999	302.79	0.374	0.015
0.1	0.5999	312.96	0.38	0.015
0.1	0.5999	322.75	0.384	0.015
0.1	0.5999	333.01	0.388	0.016
0.1	0.3	282.86	0.244	0.01
0.1	0.3	293.01	0.244	0.01
0.1	0.3	303.11	0.245	0.01
0.1	0.3	313.01	0.245	0.01
0.1	0.3	323.13	0.245	0.01
0.1	0.3	333.3	0.244	0.01
0.6992	0.2005	282.88	0.225	0.009
0.6992	0.2005	293.16	0.226	0.009
0.6992	0.2005	303.03	0.227	0.009
0.6992	0.2005	313.03	0.228	0.009
0.6992	0.2005	323.03	0.229	0.009
0.6992	0.2005	333.37	0.23	0.009
0.5994	0.2004	283.13	0.226	0.009
0.5994	0.2004	293.2	0.227	0.009
0.5994	0.2004	302.93	0.228	0.009
0.5994	0.2004	313.1	0.228	0.009
0.5994	0.2004	323.32	0.229	0.009
0.5994	0.2004	333.24	0.229	0.009
0.4991	0.3004	282.96	0.254	0.01
0.4991	0.3004	292.97	0.256	0.01
0.4991	0.3004	303.03	0.258	0.01
0.4991	0.3004	313.08	0.26	0.01
0.4991	0.3004	322.87	0.261	0.01
0.4991	0.3004	333.13	0.261	0.01
0.4001	0.4999	282.86	0.329	0.013
0.4001	0.4999	293.39	0.335	0.013
0.4001	0.4999	303.26	0.34	0.014
0.4001	0.4999	313.18	0.344	0.014
0.4001	0.4999	323.04	0.349	0.014
0.4001	0.4999	333.03	0.352	0.014
0.4	0.2003	283.02	0.22	0.009
0.4	0.2003	292.97	0.22	0.009
0.4	0.2003	302.82	0.221	0.009
0.4	0.2003	312.81	0.22	0.009
0.4	0.2003	323.15	0.22	0.009
0.4	0.2003	333.16	0.22	0.009
0.2997	0.5004	282.99	0.325	0.013
0.2997	0.5004	292.67	0.33	0.013
0.2997	0.5004	303.09	0.335	0.013
0.2997	0.5004	312.98	0.339	0.014
0.2997	0.5004	323.12	0.343	0.014
0.2997	0.5004	333.04	0.346	0.014
0.3	0.2	282.88	0.219	0.009
0.3	0.2	293.06	0.219	0.009
0.3	0.2	302.77	0.218	0.009
0.3	0.2	312.91	0.218	0.009
0.3	0.2	323.25	0.217	0.009
0.3	0.2	333.51	0.217	0.009
0.1998	0.6006	283.07	0.369	0.015
0.1998	0.6006	293	0.376	0.015
0.1998	0.6006	302.98	0.382	0.015
0.1998	0.6006	312.97	0.389	0.016
0.1998	0.6006	323.08	0.393	0.016
0.1998	0.6006	332.81	0.398	0.016
0.1999	0.3	283.13	0.246	0.01
0.1999	0.3	293	0.247	0.01
0.1999	0.3	302.97	0.248	0.01
0.1999	0.3	312.99	0.249	0.01
0.1999	0.3	323.13	0.249	0.01
0.1999	0.3	333.08	0.249	0.01
0.1	0.8	282.69	0.465	0.019
0.1	0.8	292.98	0.48	0.019
0.1	0.8	302.88	0.491	0.02
0.1	0.8	313.03	0.502	0.02
0.1	0.8	323.14	0.508	0.02
0.1	0.8	333.08	0.516	0.021
0.0999	0.5001	283.15	0.317	0.013
0.0999	0.5001	292.98	0.32	0.013
0.0999	0.5001	303.16	0.324	0.013
0.0999	0.5001	313.11	0.327	0.013
0.0999	0.5001	323.04	0.33	0.013
0.0999	0.5001	333.15	0.332	0.013
0.0998	0.2003	282.96	0.216	0.009
0.0998	0.2003	292.81	0.214	0.009
0.0998	0.2003	302.96	0.214	0.009
0.0998	0.2003	312.79	0.213	0.009
0.0998	0.2003	322.98	0.212	0.009
0.0998	0.2003	333.22	0.21	0.008
0.6999	0.0999	283.12	0.197	0.008
0.6999	0.0999	292.77	0.198	0.008
0.6999	0.0999	303.02	0.197	0.008
0.6999	0.0999	312.98	0.197	0.008
0.6999	0.0999	323.04	0.197	0.008
0.6999	0.0999	333.46	0.197	0.008
0.5999	0.0999	282.77	0.197	0.008
0.5999	0.0999	292.9	0.197	0.008
0.5999	0.0999	303.03	0.196	0.008
0.5999	0.0999	312.91	0.196	0.008
0.5999	0.0999	323.18	0.194	0.008
0.5999	0.0999	333	0.195	0.008
0.5	0.2	282.99	0.222	0.009
0.5	0.2	292.89	0.221	0.009
0.5	0.2	302.8	0.222	0.009
0.5	0.2	312.96	0.223	0.009
0.5	0.2	323.15	0.223	0.009
0.5	0.2	333.2	0.223	0.009
0.3998	0.4004	283.12	0.287	0.012
0.3998	0.4004	292.89	0.29	0.012
0.3998	0.4004	302.74	0.293	0.012
0.3998	0.4004	312.97	0.296	0.012
0.3998	0.4004	323.1	0.299	0.012
0.3998	0.4004	333.04	0.301	0.012
0.3999	0.1002	282.97	0.195	0.008
0.3999	0.1002	292.69	0.194	0.008
0.3999	0.1002	302.86	0.193	0.008
0.3999	0.1002	313.1	0.192	0.008
0.3999	0.1002	323.03	0.191	0.008
0.3999	0.1002	333.34	0.19	0.008
0.2985	0.3985	282.95	0.284	0.011
0.2985	0.3985	292.82	0.287	0.012
0.2985	0.3985	303.36	0.29	0.012
0.2985	0.3985	313.18	0.292	0.012
0.2985	0.3985	323.28	0.294	0.012
0.2985	0.3985	333.04	0.296	0.012
0.3	0.1	282.79	0.194	0.008
0.3	0.1	292.96	0.193	0.008
0.3	0.1	303.02	0.192	0.008
0.3	0.1	312.89	0.19	0.008
0.3	0.1	323.05	0.189	0.008
0.3	0.1	333.23	0.187	0.008
0.1999	0.5004	282.9	0.321	0.013
0.1999	0.5004	293.06	0.325	0.013
0.1999	0.5004	302.93	0.329	0.013
0.1999	0.5004	312.97	0.333	0.013
0.1999	0.5004	323.04	0.336	0.013
0.1999	0.5004	333.07	0.338	0.014
0.1998	0.2006	282.86	0.217	0.009
0.1998	0.2006	292.92	0.217	0.009
0.1998	0.2006	302.99	0.216	0.009
0.1998	0.2006	312.84	0.216	0.009
0.1998	0.2006	323.34	0.215	0.009
0.1998	0.2006	333.33	0.214	0.009
0.1	0.6999	282.61	0.411	0.017
0.1	0.6999	293.07	0.42	0.017
0.1	0.6999	302.71	0.428	0.017
0.1	0.6999	312.97	0.435	0.017
0.1	0.6999	323.07	0.443	0.018
0.1	0.6999	332.95	0.448	0.018
0.0999	0.4002	283.35	0.278	0.011
0.0999	0.4002	292.88	0.28	0.011
0.0999	0.4002	303.23	0.282	0.011
0.0999	0.4002	313.14	0.283	0.011
0.0999	0.4002	323.01	0.285	0.011
0.0999	0.4002	333.13	0.286	0.011
0.0999	0.1007	283.07	0.192	0.008
0.0999	0.1007	292.93	0.189	0.008
0.0999	0.1007	302.97	0.188	0.008
0.0999	0.1007	313.12	0.186	0.007
0.0999	0.1007	323.26	0.184	0.007
0.0999	0.1007	333.25	0.182	0.007
