Measured thermophysical data. Determination and Thermodynamic Analysis of the Solubility of Limonin in Eight Organic Solvents and Ethyl Acetate + 2-Propanol Binary Solvents from 283.2 to 323.2 K
Source: J. Chem. Eng. Data, 2018, 10.1021/acs.jced.7b00851
Compound 1: limonin, C26H30O8, InChI=1S/C26H30O8/c1-22(2)15-9-16(27)24(4)14(25(15)12-31-18(28)10-17(25)33-22)5-7-23(3)19(13-6-8-30-11-13)32-21(29)20-26(23,24)34-20/h6,8,11,14-15,17,19-20H,5,7,9-10,12H2,1-4H3/t14-,15-,17-,19-,20+,23-,24-,25+,26+/m0/s1, purity 98%
Compound 2: acetonitrile, C2H3N, InChI=1S/C2H3N/c1-2-3/h1H3, purity 99.7%
Compound 3: ethyl acetate, C4H8O2, InChI=1S/C4H8O2/c1-3-6-4(2)5/h3H2,1-2H3, purity 99.5%
Compound 4: butyl ethanoate, C6H12O2, InChI=1S/C6H12O2/c1-3-4-5-8-6(2)7/h3-5H2,1-2H3, purity 99.5%
Compound 5: trichloromethane, CHCl3, InChI=1S/CHCl3/c2-1(3)4/h1H, purity 99.5%
Compound 6: tetrahydrofuran, C4H8O, InChI=1S/C4H8O/c1-2-4-5-3-1/h1-4H2, purity 99.5%
Compound 7: ethanol, C2H6O, InChI=1S/C2H6O/c1-2-3/h3H,2H2,1H3, purity 99.5%
Compound 8: propan-2-ol, C3H8O, InChI=1S/C3H8O/c1-3(2)4/h3-4H,1-2H3, purity 99.5%
Compound 9: butan-1-ol, C4H10O, InChI=1S/C4H10O/c1-2-3-4-5/h5H,2-4H2,1H3, purity 99.5%

System: limonin + acetonitrile; phases: Liquid, Crystal
Fixed: Pressure, kPa = 101.1
Property: Mole fraction of limonin (Liquid); method: Chromatography
Temperature, K	Mole fraction of limonin	uncertainty
283.2	0.002725	0.000147
288.2	0.003135	0.000169
293.2	0.003493	0.000187
298.2	0.00385	0.0002
303.2	0.00454	0.00024
308.2	0.00523	0.00028
313.2	0.00628	0.00034
318.2	0.00739	0.0004
323.2	0.00857	0.00046

System: limonin + ethyl acetate; phases: Liquid, Crystal
Fixed: Pressure, kPa = 101.1
Property: Mole fraction of limonin (Liquid); method: Chromatography
Temperature, K	Mole fraction of limonin	uncertainty
283.2	0.000746	3e-05
288.2	0.000761	3.2e-05
293.2	0.000801	3.4e-05
298.2	0.00085	3.6e-05
303.2	0.00094	3.8e-05
308.2	0.000979	4e-05
313.2	0.001011	4.2e-05
318.2	0.001188	5e-05
323.2	0.001275	5.2e-05

System: limonin + butyl ethanoate; phases: Liquid, Crystal
Fixed: Pressure, kPa = 101.1
Property: Mole fraction of limonin (Liquid); method: Chromatography
Temperature, K	Mole fraction of limonin	uncertainty
283.2	0.000323	1.29e-05
288.2	0.0003487	1.45e-05
293.2	0.0003747	1.57e-05
298.2	0.0004126	1.74e-05
303.2	0.000484	2e-05
308.2	0.00053	2.2e-05
313.2	0.000616	2.6e-05
318.2	0.000646	2.6e-05
323.2	0.00068	2.8e-05

System: limonin + trichloromethane; phases: Liquid, Crystal
Fixed: Pressure, kPa = 101.1
Property: Mole fraction of limonin (Liquid); method: Chromatography
Temperature, K	Mole fraction of limonin	uncertainty
283.2	0.00425	0.00022
288.2	0.00433	0.00024
293.2	0.00447	0.00024
298.2	0.00458	0.00024
303.2	0.00479	0.00026
308.2	0.00512	0.00028
313.2	0.00531	0.00028
318.2	0.0057	0.0003
323.2	0.00599	0.00032

System: limonin + tetrahydrofuran; phases: Liquid, Crystal
Fixed: Pressure, kPa = 101.1
Property: Mole fraction of limonin (Liquid); method: Chromatography
Temperature, K	Mole fraction of limonin	uncertainty
283.2	0.002419	0.0001
288.2	0.00257	0.000138
293.2	0.002803	0.000152
298.2	0.003093	0.000168
303.2	0.003272	0.000176
308.2	0.0035	0.000191
313.2	0.00408	0.00022
318.2	0.00458	0.00024
323.2	0.00486	0.00026

System: limonin + ethanol; phases: Liquid, Crystal
Fixed: Pressure, kPa = 101.1
Property: Mole fraction of limonin (Liquid); method: Chromatography
Temperature, K	Mole fraction of limonin	uncertainty
283.2	2.652e-05	1.45e-06
288.2	2.928e-05	1.26e-06
293.2	3.053e-05	1.31e-06
298.2	3.531e-05	1.52e-06
303.2	4.27e-05	2.4e-06
308.2	5.48e-05	3e-06
313.2	6.71e-05	2.9e-06
318.2	8.49e-05	3.7e-06
323.2	0.0001011	4.5e-06

System: limonin + propan-2-ol; phases: Liquid, Crystal
Fixed: Pressure, kPa = 101.1
Property: Mole fraction of limonin (Liquid); method: Chromatography
Temperature, K	Mole fraction of limonin	uncertainty
283.2	1.079e-05	4.7e-07
288.2	1.249e-05	5.5e-07
293.2	1.56e-05	6.9e-07
298.2	1.792e-05	7.8e-07
303.2	1.874e-05	8.3e-07
308.2	2.245e-05	1.01e-06
313.2	3.031e-05	1.32e-06
318.2	3.473e-05	1.53e-06
323.2	4.524e-05	2.01e-06

System: limonin + butan-1-ol; phases: Liquid, Crystal
Fixed: Pressure, kPa = 101.1
Property: Mole fraction of limonin (Liquid); method: Chromatography
Temperature, K	Mole fraction of limonin	uncertainty
283.2	1.531e-05	6.8e-07
288.2	1.937e-05	8.5e-07
293.2	2.011e-05	8.9e-07
298.2	2.638e-05	1.16e-06
303.2	2.91e-05	1.27e-06
308.2	3.538e-05	1.56e-06
313.2	4.233e-05	1.89e-06
318.2	5.62e-05	2.5e-06
323.2	7.25e-05	3.3e-06

System: limonin + ethyl acetate + propan-2-ol; phases: Liquid, Crystal
Fixed: Pressure, kPa = 101.1
Property: Mole fraction of limonin (Liquid); method: Chromatography
Solvent: Mole fraction of ethyl acetate	Temperature, K	Mole fraction of limonin	uncertainty
0.2	283.2	5.4e-05	1.42e-05
0.2	288.2	6.57e-05	1.63e-05
0.2	293.2	7.47e-05	1.7e-05
0.2	298.2	8.47e-05	1.89e-05
0.2	303.2	8.79e-05	2.08e-05
0.2	308.2	0.0001227	2.35e-05
0.2	313.2	0.0001606	2.66e-05
0.2	318.2	0.0001805	3.04e-05
0.2	323.2	0.0002152	3.38e-05
0.5	283.2	0.0002924	5.93e-05
0.5	288.2	0.0003298	5e-05
0.5	293.2	0.0003466	5.13e-05
0.5	298.2	0.0003842	5.62e-05
0.5	303.2	0.0004247	6.09e-05
0.5	308.2	0.000479	6.4e-05
0.5	313.2	0.00055	6.6e-05
0.5	318.2	0.000627	7.2e-05
0.5	323.2	0.000705	8.1e-05
0.8	283.2	0.000496	3.1e-05
0.8	288.2	0.000546	3.1e-05
0.8	293.2	0.000566	3.2e-05
0.8	298.2	0.000622	3.4e-05
0.8	303.2	0.000669	3.7e-05
0.8	308.2	0.000728	3.8e-05
0.8	313.2	0.000779	4e-05
0.8	318.2	0.000849	4.5e-05
0.8	323.2	0.000968	5e-05
1	283.2	0.000746	3e-05
1	288.2	0.000761	3.2e-05
1	293.2	0.000801	3.4e-05
1	298.2	0.00085	3.6e-05
1	303.2	0.00094	3.8e-05
1	308.2	0.000979	4e-05
1	313.2	0.001011	4.2e-05
1	318.2	0.001188	5e-05
1	323.2	0.001275	5.2e-05
0	283.2	1.079e-05	4.7e-07
0	288.2	1.249e-05	5.5e-07
0	293.2	1.56e-05	6.9e-07
0	298.2	1.792e-05	7.8e-07
0	303.2	1.874e-05	8.3e-07
0	308.2	2.245e-05	1.04e-06
0	313.2	3.538e-05	1.56e-06
0	318.2	3.473e-05	1.51e-06
0	323.2	4.524e-05	2.01e-06
