Measured thermophysical data. Isothermal Bubble Pressure Data for the Binary System of C2F6 and n-Octane
Source: J. Chem. Eng. Data, 2018, 10.1021/acs.jced.8b00825
Compound 1: hexafluoroethane, C2F6, InChI=1S/C2F6/c3-1(4,5)2(6,7)8
Compound 2: octane, C8H18, InChI=1S/C8H18/c1-3-5-7-8-6-4-2/h3-8H2,1-2H3, purity 99%

System: octane; phases: Liquid
Fixed: Pressure, kPa = 100.2
Property: Refractive index (Na D-line) (Liquid); method: Standard Abbe refractometry
Temperature, K	Refractive index (Na D-line)	uncertainty
293.15	1.3978	0.0007
298.15	1.3953	0.0007

System: octane; phases: Liquid
Fixed: Pressure, kPa = 100.1
Property: Mass density, kg/m3 (Liquid); method: Vibrating tube method
Temperature, K	Mass density, kg/m3	uncertainty
293.2	702.694	0.195
295.2	700.592	0.19
297.2	698.977	0.183
298.2	698.264	0.185
299.5	697.128	0.188

System: hexafluoroethane + octane; phases: Liquid, Gas
Property: Vapor or sublimation pressure, kPa (Liquid); method: Closed cell (Static) method
Temperature, K	Mole fraction of hexafluoroethane	Vapor or sublimation pressure, kPa	uncertainty
292.94	0.035	740	130
292.98	0.06	1260	140
292.97	0.105	1960	110
292.98	0.152	2570	100
293.02	0.217	2870	100
292.96	0.298	2890	100
293.01	0.417	2870	100
293.04	0.5	2880	100
303.13	0.035	780	130
303.08	0.06	1330	150
303.09	0.105	2080	110
303.1	0.152	2760	100
303.32	0.217	3600	100
303.09	0.298	3630	100
303.31	0.417	3620	100
313.07	0.035	830	140
313.07	0.06	1400	150
313.07	0.105	2180	110
313.05	0.152	2940	100
313.31	0.217	3870	110
313.06	0.298	4530	100
313.07	0.417	4540	100
313.34	0.5	4630	100
323.07	0.035	860	140
323.09	0.06	1470	160
323.09	0.105	2290	110
323.07	0.152	3110	110
323.39	0.217	4040	110
323.07	0.298	5460	110
323.11	0.417	5600	100
323.37	0.5	5610	100
