Measured thermophysical data. Experimental Determination and Correlation of Liquid Liquid Equilibria for Water + Cyclohexanone + Solvents (Toluene or p-Xylene) Ternary Systems at 303.15 and 323.15 K under 101.3 kPa
Source: J. Chem. Eng. Data, 2017, 10.1021/acs.jced.7b00266
Compound 1: water, H2O, InChI=1S/H2O/h1H2, purity 99.92%
Compound 2: cyclohexanone, C6H10O, InChI=1S/C6H10O/c7-6-4-2-1-3-5-6/h1-5H2, purity 99.5%
Compound 3: 1,4-dimethylbenzene, C8H10, InChI=1S/C8H10/c1-7-3-5-8(2)6-4-7/h3-6H,1-2H3, purity 99%
Compound 4: toluene, C7H8, InChI=1S/C7H8/c1-7-5-3-2-4-6-7/h2-6H,1H3, purity 99.5%

System: water + cyclohexanone + toluene; phases: Liquid mixture 1, Liquid mixture 2
Fixed: Pressure, kPa = 101.3
Property: Mole fraction of water (Liquid mixture 1); method: Chromatography
Property: Mole fraction of water (Liquid mixture 2); method: Chromatography
Property: Mole fraction of cyclohexanone (Liquid mixture 2); method: Chromatography
Temperature, K	Mole fraction of cyclohexanone	Mole fraction of water	uncertainty	Mole fraction of water	uncertainty	Mole fraction of cyclohexanone	uncertainty
303.15	0.0084	0.0065	0.0065	0.9995	0.0005	0.0001	
323.15	0.0565	0.0111	0.0072	0.9988	0.0012	0.0007	
323.15	0.0782	0.0126	0.0072	0.9986	0.0014	0.0009	
323.15	0.1007	0.0134	0.0072	0.9983	0.0017	0.0012	
323.15	0.1298	0.0141	0.0072	0.9979	0.0021	0.0015	
323.15	0.1605	0.0145	0.0072	0.9976	0.0024	0.0019	
323.15	0.19	0.0167	0.0072	0.9972	0.0028	0.0022	
303.15	0.0356	0.0095	0.0072	0.9991	0.0009	0.0005	
303.15	0.053	0.0114	0.0072	0.9988	0.0012	0.0007	
303.15	0.0728	0.0094	0.0072	0.9985	0.0015	0.001	
303.15	0.0996	0.0111	0.0072	0.9982	0.0018	0.0013	
303.15	0.1412	0.0134	0.0072	0.9976	0.0024	0.0019	
303.15	0.1638	0.0122	0.0072	0.9973	0.0027	0.0022	
303.15	0.1849	0.0138	0.0072	0.9971	0.0029	0.0025	
323.15	0.0082	0.0084	0.0072	0.9994	0.0006	0.0001	
323.15	0.0373	0.01	0.0072	0.9989	0.0011	0.0005	

System: water + cyclohexanone + 1,4-dimethylbenzene; phases: Liquid mixture 1, Liquid mixture 2
Fixed: Pressure, kPa = 101.3
Property: Mole fraction of water (Liquid mixture 1); method: Chromatography
Property: Mole fraction of cyclohexanone (Liquid mixture 2); method: Chromatography
Property: Mole fraction of water (Liquid mixture 2); method: Chromatography
Temperature, K	Mole fraction of cyclohexanone	Mole fraction of water	uncertainty	Mole fraction of cyclohexanone	uncertainty	Mole fraction of water	uncertainty
303.15	0.0093	0.0064	0.0064	0.0001	0.0001	0.9995	
323.15	0.0395	0.0093	0.0072	0.0005	0.0005	0.9991	
323.15	0.0537	0.0116	0.0072	0.0008	0.0008	0.9988	
323.15	0.0812	0.0124	0.0072	0.0011	0.0011	0.9981	
323.15	0.1133	0.0128	0.0072	0.0016	0.0016	0.9975	
323.15	0.1459	0.0148	0.0072	0.0019	0.0019	0.9977	
323.15	0.1778	0.0165	0.0072	0.0024	0.0024	0.9969	
323.15	0.2084	0.0214	0.0073	0.003	0.003	0.9951	
303.15	0.0385	0.0089	0.0072	0.0006	0.0006	0.999	
303.15	0.059	0.0105	0.0072	0.0009	0.0009	0.9987	
303.15	0.081	0.009	0.0072	0.0013	0.0013	0.9983	
303.15	0.1111	0.0108	0.0072	0.0017	0.0017	0.9979	
303.15	0.1427	0.0133	0.0072	0.0021	0.0021	0.9976	
303.15	0.1762	0.0131	0.0072	0.0028	0.0028	0.9966	
303.15	0.2082	0.0166	0.0072	0.003	0.003	0.9968	
323.15	0.0099	0.0083	0.0072	0.0001	0.0001	0.9996	
