Measured thermophysical data. Solubility, Model Correlation, and Solvent Effect of 2-Amino-3-methylbenzoic Acid in 12 Pure Solvents
Source: J. Chem. Eng. Data, 2019, 10.1021/acs.jced.8b01226
Compound 1: 2-amino-3-methylbenzoic acid, C8H9NO2, InChI=1S/C8H9NO2/c1-5-3-2-4-6(7(5)9)8(10)11/h2-4H,9H2,1H3,(H,10,11), purity 99.6%
Compound 2: methanol, CH4O, InChI=1S/CH4O/c1-2/h2H,1H3, purity 99.7%
Compound 3: propan-1-ol, C3H8O, InChI=1S/C3H8O/c1-2-3-4/h4H,2-3H2,1H3, purity 99.4%
Compound 4: propan-2-ol, C3H8O, InChI=1S/C3H8O/c1-3(2)4/h3-4H,1-2H3, purity 99.5%
Compound 5: butan-1-ol, C4H10O, InChI=1S/C4H10O/c1-2-3-4-5/h5H,2-4H2,1H3, purity 99.6%
Compound 6: ethanol, C2H6O, InChI=1S/C2H6O/c1-2-3/h3H,2H2,1H3, purity 99.5%
Compound 7: toluene, C7H8, InChI=1S/C7H8/c1-7-5-3-2-4-6-7/h2-6H,1H3, purity 99.6%
Compound 8: ethyl acetate, C4H8O2, InChI=1S/C4H8O2/c1-3-6-4(2)5/h3H2,1-2H3, purity 99.5%
Compound 9: acetonitrile, C2H3N, InChI=1S/C2H3N/c1-2-3/h1H3, purity 99.4%
Compound 10: 1,4-dioxane, C4H8O2, InChI=1S/C4H8O2/c1-2-6-4-3-5-1/h1-4H2, purity 99.6%
Compound 11: cyclohexane, C6H12, InChI=1S/C6H12/c1-2-4-6-5-3-1/h1-6H2, purity 99.6%
Compound 12: butanone, C4H8O, InChI=1S/C4H8O/c1-3-4(2)5/h3H2,1-2H3, purity 99.4%
Compound 13: acetone, C3H6O, InChI=1S/C3H6O/c1-3(2)4/h1-2H3, purity 99.5%
Compound 14: benzoic acid, C7H6O2, InChI=1S/C7H6O2/c8-7(9)6-4-2-1-3-5-6/h1-5H,(H,8,9), purity 99.5%

System: 2-amino-3-methylbenzoic acid + methanol; phases: Liquid, Crystal
Fixed: Pressure, kPa = 101.2
Property: Mole fraction of 2-amino-3-methylbenzoic acid (Liquid); method: Chromatography
Temperature, K	Mole fraction of 2-amino-3-methylbenzoic acid	uncertainty
278.15	0.01997	0.001
283.15	0.02349	0.00118
288.15	0.02733	0.00137
293.15	0.03173	0.00159
298.15	0.03675	0.00184
303.15	0.04234	0.00212
308.15	0.04835	0.00242
313.15	0.05501	0.00275
318.15	0.06239	0.00312

System: 2-amino-3-methylbenzoic acid + ethanol; phases: Liquid, Crystal
Fixed: Pressure, kPa = 101.2
Property: Mole fraction of 2-amino-3-methylbenzoic acid (Liquid); method: Chromatography
Temperature, K	Mole fraction of 2-amino-3-methylbenzoic acid	uncertainty
278.15	0.01762	0.00088
283.15	0.02084	0.00104
288.15	0.02442	0.00122
293.15	0.02856	0.00143
298.15	0.03326	0.00166
303.15	0.03847	0.00193
308.15	0.04439	0.00222
313.15	0.05089	0.00255
318.15	0.05818	0.00291

System: 2-amino-3-methylbenzoic acid + propan-1-ol; phases: Liquid, Crystal
Fixed: Pressure, kPa = 101.2
Property: Mole fraction of 2-amino-3-methylbenzoic acid (Liquid); method: Chromatography
Temperature, K	Mole fraction of 2-amino-3-methylbenzoic acid	uncertainty
278.15	0.01512	0.00076
283.15	0.01784	0.00089
288.15	0.02122	0.00106
293.15	0.02512	0.00126
298.15	0.02933	0.00147
303.15	0.03441	0.00172
308.15	0.03997	0.002
313.15	0.04603	0.0023
318.15	0.05323	0.00266

System: 2-amino-3-methylbenzoic acid + propan-2-ol; phases: Liquid, Crystal
Fixed: Pressure, kPa = 101.2
Property: Mole fraction of 2-amino-3-methylbenzoic acid (Liquid); method: Chromatography
Temperature, K	Mole fraction of 2-amino-3-methylbenzoic acid	uncertainty
278.15	0.008756	0.000439
283.15	0.01092	0.00055
288.15	0.0138	0.00069
293.15	0.01701	0.00085
298.15	0.02077	0.00104
303.15	0.02528	0.00127
308.15	0.03028	0.00152
313.15	0.036	0.0018
318.15	0.04271	0.00214

System: 2-amino-3-methylbenzoic acid + butan-1-ol; phases: Liquid, Crystal
Fixed: Pressure, kPa = 101.2
Property: Mole fraction of 2-amino-3-methylbenzoic acid (Liquid); method: Chromatography
Temperature, K	Mole fraction of 2-amino-3-methylbenzoic acid	uncertainty
278.15	0.01172	0.00059
283.15	0.01436	0.00072
288.15	0.01756	0.00088
293.15	0.02116	0.00106
298.15	0.02541	0.00127
303.15	0.03019	0.00151
308.15	0.03566	0.00179
313.15	0.04221	0.00211
318.15	0.04982	0.00249

System: 2-amino-3-methylbenzoic acid + butanone; phases: Liquid, Crystal
Fixed: Pressure, kPa = 101.2
Property: Mole fraction of 2-amino-3-methylbenzoic acid (Liquid); method: Chromatography
Temperature, K	Mole fraction of 2-amino-3-methylbenzoic acid	uncertainty
278.15	0.06464	0.00324
283.15	0.07212	0.00361
288.15	0.07924	0.00397
293.15	0.08723	0.00437
298.15	0.09532	0.00477
303.15	0.1041	0.0052
308.15	0.1139	0.0057
313.15	0.1238	0.0062
318.15	0.1343	0.0067

System: 2-amino-3-methylbenzoic acid + acetone; phases: Liquid, Crystal
Fixed: Pressure, kPa = 101.2
Property: Mole fraction of 2-amino-3-methylbenzoic acid (Liquid); method: Chromatography
Temperature, K	Mole fraction of 2-amino-3-methylbenzoic acid	uncertainty
278.15	0.07453	0.00373
283.15	0.08286	0.00415
288.15	0.09183	0.0046
293.15	0.101	0.0051
298.15	0.1105	0.0055
303.15	0.1206	0.006
308.15	0.1317	0.0066
313.15	0.1429	0.0072
318.15	0.1544	0.0077

System: 2-amino-3-methylbenzoic acid + 1,4-dioxane; phases: Liquid, Crystal
Fixed: Pressure, kPa = 101.2
Property: Mole fraction of 2-amino-3-methylbenzoic acid (Liquid); method: Chromatography
Temperature, K	Mole fraction of 2-amino-3-methylbenzoic acid	uncertainty
288.15	0.1076	0.0054
293.15	0.1168	0.0058
298.15	0.1267	0.0063
303.15	0.1369	0.0069
308.15	0.1477	0.0074
313.15	0.1587	0.0079
318.15	0.1706	0.0085

System: 2-amino-3-methylbenzoic acid + acetonitrile; phases: Liquid, Crystal
Fixed: Pressure, kPa = 101.2
Property: Mole fraction of 2-amino-3-methylbenzoic acid (Liquid); method: Chromatography
Temperature, K	Mole fraction of 2-amino-3-methylbenzoic acid	uncertainty
278.15	0.02267	0.00114
283.15	0.02746	0.00137
288.15	0.03293	0.00165
293.15	0.03896	0.00195
298.15	0.04615	0.00231
303.15	0.05401	0.0027
308.15	0.06281	0.00314
313.15	0.07266	0.00364
318.15	0.08341	0.00418

System: 2-amino-3-methylbenzoic acid + ethyl acetate; phases: Liquid, Crystal
Fixed: Pressure, kPa = 101.2
Property: Mole fraction of 2-amino-3-methylbenzoic acid (Liquid); method: Chromatography
Temperature, K	Mole fraction of 2-amino-3-methylbenzoic acid	uncertainty
278.15	0.02936	0.00147
283.15	0.03449	0.00173
288.15	0.04048	0.00203
293.15	0.04685	0.00235
298.15	0.05403	0.0027
303.15	0.06185	0.0031
308.15	0.07044	0.00353
313.15	0.08025	0.00402
318.15	0.09067	0.00454

System: 2-amino-3-methylbenzoic acid + toluene; phases: Liquid, Crystal
Fixed: Pressure, kPa = 101.2
Property: Mole fraction of 2-amino-3-methylbenzoic acid (Liquid); method: Chromatography
Temperature, K	Mole fraction of 2-amino-3-methylbenzoic acid	uncertainty
278.15	0.001104	5.5e-05
283.15	0.001446	7.2e-05
288.15	0.001843	9.2e-05
293.15	0.002355	0.000118
298.15	0.002983	0.000149
303.15	0.003821	0.000191
308.15	0.004904	0.000246
313.15	0.006195	0.00031
318.15	0.007973	0.000399

System: 2-amino-3-methylbenzoic acid + cyclohexane; phases: Liquid, Crystal
Fixed: Pressure, kPa = 101.2
Property: Mole fraction of 2-amino-3-methylbenzoic acid (Liquid); method: Chromatography
Temperature, K	Mole fraction of 2-amino-3-methylbenzoic acid	uncertainty
283.15	8.891e-05	4.45e-06
288.15	0.0001153	5.8e-06
293.15	0.0001533	7.7e-06
298.15	0.0002035	1.02e-05
303.15	0.0002704	1.35e-05
308.15	0.0003499	1.75e-05
313.15	0.0004535	2.27e-05
318.15	0.0005784	2.9e-05

System: benzoic acid + propan-2-ol; phases: Liquid, Crystal
Fixed: Pressure, kPa = 101.2
Property: Mole fraction of benzoic acid (Liquid); method: Chromatography
Temperature, K	Mole fraction of benzoic acid	uncertainty
278.06	0.1295	0.0065
288.15	0.1578	0.0079
293.11	0.1729	0.0087
303.45	0.2148	0.0108
