Measured thermophysical data. Investigation on Isobaric Vapor-Liquid Equilibria of the Isopropyl Acetate + Water + Ethanol System
Source: J. Chem. Eng. Data, 2018, 10.1021/acs.jced.8b00005
Compound 1: ethanol, C2H6O, InChI=1S/C2H6O/c1-2-3/h3H,2H2,1H3, purity 99.7%
Compound 2: 1-methylethyl ethanoate, C5H10O2, InChI=1S/C5H10O2/c1-4(2)7-5(3)6/h4H,1-3H3, purity 99%
Compound 3: water, H2O, InChI=1S/H2O/h1H2, purity 99.8%

System: ethanol; phases: Liquid, Gas
Property: Vapor or sublimation pressure, kPa (Liquid); method: Ebulliometric method (Recirculating still)
Temperature, K	Vapor or sublimation pressure, kPa	uncertainty
307.52	13.19	0.3
309.89	15.05	0.33
312.21	17.13	0.37
315.24	20	0.41
318.42	23.45	0.47
320.31	25.72	0.52
322.13	28.12	0.57
324.1	30.85	0.61
325.96	33.68	0.67
327.52	36.2	0.73
329.58	40	0.79
331.49	43.49	0.85
333.45	47.62	0.93
335.16	51.36	0.99
336.76	55.12	1.06
338.72	60.05	1.14
340.19	63.84	1.21
341.5	67.56	1.28
343.06	72.1	1.34
344.37	75.99	1.39
345.69	79.99	1.47
347.1	84.65	1.55
348.51	89.37	1.65
349.83	94.48	1.77
351.55	101.31	1.85
329.57	40	1
338.73	60	1
345.69	80	2
351.65	101.3	1.8

System: 1-methylethyl ethanoate; phases: Liquid, Gas
Property: Vapor or sublimation pressure, kPa (Liquid); method: Ebulliometric method (Recirculating still)
Temperature, K	Vapor or sublimation pressure, kPa	uncertainty
304.07	10.57	0.2
306.28	11.58	0.24
308.95	13.35	0.28
312.53	15.79	0.32
316.52	19	0.36
317.77	20	0.39
320.42	22.45	0.43
323.45	25.6	0.48
325.91	28.24	0.53
328.97	31.94	0.59
332.14	36.19	0.66
334.75	39.98	0.73
337.73	44.85	0.81
340.95	50.51	0.9
344.18	56.66	0.98
345.94	60.03	1.07
348.17	65.32	1.16
350.35	70.47	1.22
352.47	75.52	1.28
354.29	79.97	1.37
356.48	85.89	1.45
358.2	90.5	1.52
359.77	95.13	1.61
361.79	101.26	1.69
334.75	40	1
345.94	60	1
354.29	80	1
361.79	101.3	1.7

System: 1-methylethyl ethanoate + ethanol; phases: Liquid, Gas
Property: Boiling temperature at pressure P, K (Liquid); method: Ebulliometric method (Recirculating still)
Mole fraction of 1-methylethyl ethanoate	Pressure, kPa	Boiling temperature at pressure P, K	uncertainty
1	20	317.77	0.46
0.947	20	315.55	0.47
0.898	20	314.13	0.46
0.852	20	313.12	0.45
0.798	20	312.37	0.46
0.744	20	311.71	0.44
0.698	20	311.41	0.44
0.646	20	311.11	0.44
0.552	20	310.85	0.43
0.456	20	310.8	0.43
0.344	20	310.96	0.43
0.304	20	311.11	0.43
0.245	20	311.36	0.43
0.198	20	311.71	0.43
0.15	20	312.27	0.43
0.101	20	313.07	0.43
0.05	20	313.98	0.43
0	20	315.24	0.42
1	40	334.75	0.65
0.947	40	332.24	0.66
0.898	40	330.58	0.64
0.852	40	329.37	0.63
0.798	40	328.42	0.62
0.744	40	327.56	0.61
0.698	40	327.01	0.61
0.646	40	326.56	0.6
0.552	40	326.16	0.59
0.456	40	325.96	0.59
0.344	40	325.96	0.59
0.304	40	326.06	0.58
0.245	40	326.21	0.58
0.198	40	326.56	0.58
0.15	40	327.01	0.58
0.101	40	327.56	0.57
0.05	40	328.42	0.57
0	40	329.57	0.56
1	60	345.94	0.67
0.947	60	343.22	0.68
0.898	60	341.35	0.67
0.852	60	339.94	0.65
0.798	60	338.83	0.64
0.744	60	337.87	0.63
0.698	60	337.22	0.63
0.646	60	336.62	0.62
0.552	60	336.11	0.61
0.456	60	335.81	0.61
0.344	60	335.71	0.6
0.304	60	335.76	0.6
0.245	60	335.86	0.59
0.198	60	336.06	0.59
0.15	60	336.46	0.59
0.101	60	336.97	0.59
0.05	60	337.72	0.58
0	60	338.73	0.57
1	80	354.29	0.69
0.947	80	351.51	0.71
0.898	80	349.53	0.7
0.852	80	348.07	0.68
0.798	80	346.85	0.67
0.744	80	345.74	0.66
0.698	80	345.05	0.65
0.646	80	344.33	0.64
0.552	80	343.67	0.63
0.456	80	343.32	0.63
0.344	80	343.12	0.62
0.304	80	343.07	0.62
0.245	80	343.12	0.61
0.198	80	343.32	0.61
0.15	80	343.67	0.6
0.101	80	344.08	0.6
0.05	80	344.78	0.6
0	80	345.69	0.59
1	101.3	361.79	0.78
0.947	101.3	359.05	0.82
0.898	101.3	356.92	0.8
0.852	101.3	355.3	0.78
0.798	101.3	353.99	0.77
0.744	101.3	352.77	0.75
0.698	101.3	351.86	0.73
0.646	101.3	351.15	0.73
0.552	101.3	350.39	0.72
0.456	101.3	349.89	0.71
0.344	101.3	349.58	0.69
0.304	101.3	349.53	0.69
0.245	101.3	349.48	0.69
0.198	101.3	349.63	0.68
0.15	101.3	349.84	0.67
0.101	101.3	350.24	0.67
0.05	101.3	350.85	0.66
0	101.3	351.65	0.65

System: 1-methylethyl ethanoate + water + ethanol; phases: Liquid, Gas
Property: Boiling temperature at pressure P, K (Liquid); method: Ebulliometric method (Recirculating still)
Mole fraction of 1-methylethyl ethanoate	Mole fraction of water	Pressure, kPa	Boiling temperature at pressure P, K	uncertainty
1	0	20	317.77	0.46
0.951	0.01	20	315.7	0.58
0.9	0.02	20	313.93	0.5
0.852	0.03	20	312.77	0.47
0.797	0.041	20	312.07	0.46
0.75	0.05	20	311.56	0.45
0.702	0.06	20	311.11	0.44
0.604	0.079	20	310.6	0.44
0.5	0.1	20	310.25	0.43
0.397	0.121	20	310.4	0.43
0.3	0.14	20	310.6	0.43
0.25	0.15	20	310.96	0.43
0.201	0.16	20	311.31	0.42
0.152	0.17	20	311.86	0.43
0.099	0.18	20	312.62	0.43
0.05	0.19	20	313.93	0.42
0	0.2	20	315.45	0.42
1	0	40	334.75	0.65
0.951	0.01	40	332.34	0.73
0.9	0.02	40	330.43	0.68
0.852	0.03	40	328.87	0.65
0.797	0.041	40	327.84	0.62
0.75	0.05	40	327.16	0.64
0.702	0.06	40	326.66	0.64
0.604	0.079	40	325.86	0.6
0.5	0.1	40	325.3	0.6
0.397	0.121	40	325.25	0.58
0.3	0.14	40	325.45	0.58
0.25	0.15	40	325.66	0.59
0.201	0.16	40	326.01	0.58
0.152	0.17	40	326.51	0.6
0.099	0.18	40	327.16	0.58
0.05	0.19	40	328.27	0.57
0	0.2	40	329.67	0.56
1	0	60	345.94	0.67
0.951	0.01	60	343.32	0.67
0.9	0.02	60	341.1	0.68
0.852	0.03	60	339.54	0.66
0.797	0.041	60	338.23	0.64
0.75	0.05	60	337.42	0.64
0.702	0.06	60	336.82	0.63
0.604	0.079	60	335.81	0.61
0.5	0.1	60	335.1	0.61
0.397	0.121	60	335	0.6
0.3	0.14	60	335.1	0.59
0.25	0.15	60	335.21	0.59
0.201	0.16	60	335.56	0.59
0.152	0.17	60	336.01	0.6
0.099	0.18	60	336.72	0.59
0.05	0.19	60	337.57	0.58
0	0.2	60	338.73	0.57
1	0	80	354.29	0.69
0.951	0.01	80	351.66	0.77
0.9	0.02	80	349.35	0.72
0.852	0.03	80	347.61	0.7
0.797	0.041	80	346.2	0.68
0.75	0.05	80	345.29	0.67
0.702	0.06	80	344.58	0.66
0.604	0.079	80	343.42	0.64
0.5	0.1	80	342.56	0.63
0.397	0.121	80	342.36	0.62
0.3	0.14	80	342.36	0.61
0.25	0.15	80	342.46	0.61
0.201	0.16	80	342.76	0.61
0.152	0.17	80	343.17	0.61
0.099	0.18	80	343.82	0.6
0.05	0.19	80	344.58	0.59
0	0.2	80	345.64	0.59
1	0	101.3	361.79	0.78
0.951	0.01	101.3	359.25	0.95
0.9	0.02	101.3	356.77	0.85
0.852	0.03	101.3	354.85	0.8
0.797	0.041	101.3	353.26	0.77
0.75	0.05	101.3	352.31	0.76
0.702	0.06	101.3	351.45	0.74
0.604	0.079	101.3	350.09	0.71
0.5	0.1	101.3	349.15	0.7
0.397	0.121	101.3	348.83	0.7
0.3	0.14	101.3	348.77	0.69
0.25	0.15	101.3	348.88	0.69
0.201	0.16	101.3	349.13	0.69
0.152	0.17	101.3	349.43	0.67
0.099	0.18	101.3	349.99	0.67
0.05	0.19	101.3	350.7	0.69
0	0.2	101.3	351.66	0.65
1	0	20	317.77	0.46
0.95	0.02	20	314.79	0.58
0.901	0.04	20	312.92	0.49
0.848	0.061	20	311.61	0.47
0.8	0.08	20	310.91	0.46
0.749	0.101	20	310.4	0.45
0.701	0.119	20	310.1	0.44
0.6	0.16	20	309.9	0.43
0.501	0.2	20	309.85	0.43
0.4	0.24	20	309.95	0.43
0.3	0.28	20	310.2	0.43
0.25	0.3	20	310.5	0.43
0.2	0.32	20	311.01	0.43
0.151	0.34	20	311.56	0.43
0.102	0.359	20	312.42	0.43
0.053	0.379	20	313.83	0.45
0	0.4	20	316.1	0.42
1	0	40	334.75	0.65
0.95	0.02	40	331.33	1.32
0.901	0.04	40	329.12	0.89
0.848	0.061	40	327.51	0.74
0.8	0.08	40	326.56	0.68
0.749	0.101	40	325.76	0.65
0.701	0.119	40	325.5	0.63
0.6	0.16	40	325.05	0.6
0.501	0.2	40	324.8	0.59
0.4	0.24	40	324.85	0.59
0.3	0.28	40	325.15	0.62
0.25	0.3	40	325.45	0.59
0.2	0.32	40	325.81	0.59
0.151	0.34	40	326.31	0.61
0.102	0.359	40	327.16	0.58
0.053	0.379	40	328.32	0.64
0	0.4	40	330.43	0.56
1	0	60	345.94	0.67
0.95	0.02	60	342.26	1.03
0.901	0.04	60	339.79	0.78
0.848	0.061	60	337.92	0.71
0.8	0.08	60	336.87	0.67
0.749	0.101	60	335.91	0.65
0.701	0.119	60	335.51	0.63
0.6	0.16	60	334.8	0.61
0.501	0.2	60	334.5	0.6
0.4	0.24	60	334.5	0.6
0.3	0.28	60	334.75	0.6
0.25	0.3	60	335	0.59
0.2	0.32	60	335.31	0.59
0.151	0.34	60	335.81	0.6
0.102	0.359	60	336.56	0.59
0.053	0.379	60	337.72	0.62
0	0.4	60	339.64	0.57
1	0	80	354.29	0.69
0.95	0.02	80	350.44	0.94
0.901	0.04	80	347.92	0.77
0.848	0.061	80	345.89	0.72
0.8	0.08	80	344.68	0.68
0.749	0.101	80	343.67	0.66
0.701	0.119	80	343.07	0.65
0.6	0.16	80	342.26	0.63
0.501	0.2	80	341.91	0.63
0.4	0.24	80	341.86	0.62
0.3	0.28	80	342.01	0.62
0.25	0.3	80	342.26	0.61
0.2	0.32	80	342.56	0.61
0.151	0.34	80	343.02	0.62
0.102	0.359	80	343.72	0.6
0.053	0.379	80	344.78	0.62
0	0.4	80	346.5	0.59
1	0	101.3	361.79	0.78
0.95	0.02	101.3	357.94	0.94
0.901	0.04	101.3	355.1	0.83
0.848	0.061	101.3	352.92	0.78
0.8	0.08	101.3	351.66	0.76
0.749	0.101	101.3	350.39	0.73
0.701	0.119	101.3	349.74	0.72
0.6	0.16	101.3	348.88	0.71
0.501	0.2	101.3	348.47	0.7
0.4	0.24	101.3	348.32	0.69
0.3	0.28	101.3	348.42	0.69
0.25	0.3	101.3	348.62	0.68
0.2	0.32	101.3	348.88	0.68
0.151	0.34	101.3	349.33	0.68
0.102	0.359	101.3	349.94	0.67
0.053	0.379	101.3	350.95	0.67
0	0.4	101.3	352.57	0.66

System: water + ethanol; phases: Liquid, Gas
Property: Boiling temperature at pressure P, K (Liquid); method: Ebulliometric method (Recirculating still)
Mole fraction of water	Pressure, kPa	Boiling temperature at pressure P, K	uncertainty
0.2	20	315.45	0.42
0.2	40	329.67	0.56
0.2	60	338.73	0.57
0.2	80	345.64	0.59
0.2	101.3	351.66	0.65
0.4	20	316.1	0.42
0.4	40	330.43	0.56
0.4	60	339.64	0.57
0.4	80	346.5	0.59
0.4	101.3	352.57	0.66
