Measured thermophysical data. Vapor Pressure of 4-Ethylmorpholine Revisited: Thermodynamically Consistent Vapor Pressure Equation
Source: J. Chem. Eng. Data, 2019, 10.1021/acs.jced.8b01159
Compound 1: 4-ethylmorpholine, C6H13NO, InChI=1S/C6H13NO/c1-2-7-3-5-8-6-4-7/h2-6H2,1H3, purity 99.7%

System: 4-ethylmorpholine; phases: Liquid
Fixed: Pressure, kPa = 100
Property: Molar heat capacity at constant pressure, J/K/mol (Liquid); method: Extra sensitive DSC
Temperature, K	Molar heat capacity at constant pressure, J/K/mol	uncertainty
270	198.1	7.7
275	199.6	7.7
280	201.1	7.8
285	202.8	7.9
290	204.5	7.9
295	206.4	8
300	208.2	8.1
305	209.9	8.1
310	211.6	8.2
315	213.4	8.3
320	215.5	8.3
325	217.7	8.4
330	219.9	8.5
335	221.9	8.6
340	223.8	8.7
345	225.9	8.7
350	228	8.8
355	230.2	8.9

System: 4-ethylmorpholine; phases: Liquid, Gas
Property: Vapor or sublimation pressure, kPa (Liquid); method: Closed cell (Static) method
Temperature, K	Vapor or sublimation pressure, kPa	uncertainty
243.11	0.01727	0.00058
243.12	0.01728	0.00058
243.12	0.01725	0.00058
248.15	0.0276	0.00074
248.15	0.02761	0.00074
248.15	0.0276	0.00074
253.15	0.0431	0.00099
253.15	0.04308	0.00099
253.16	0.04305	0.00098
258.15	0.06592	0.00134
258.16	0.06592	0.00134
258.16	0.06589	0.00134
263.16	0.09902	0.00187
263.16	0.09898	0.00187
263.16	0.09893	0.00186
268.16	0.14592	0.00219
268.16	0.14596	0.00219
268.16	0.14592	0.00219
273.17	0.21119	0.00272
273.17	0.21109	0.00272
273.17	0.21119	0.00272
278.16	0.30252	0.00352
278.17	0.30272	0.00352
278.17	0.30262	0.00352
283.17	0.42445	0.0046
283.17	0.42434	0.0046
283.17	0.4243	0.0046
288.17	0.58824	0.00606
288.17	0.58826	0.00606
288.17	0.58807	0.00606
293.16	0.80456	0.00799
293.16	0.80455	0.00799
293.16	0.80453	0.00799
298.17	1.0858	0.0104
298.17	1.0857	0.0104
298.17	1.0855	0.0104
