Measured thermophysical data. Density, Speed of Sound, Compressibility, and Excess Properties of Carbon Dioxide + n-Dodecane Binary Mixtures from 10 to 70 MPa
Source: J. Chem. Eng. Data, 2019, 10.1021/acs.jced.9b00311
Compound 1: carbon dioxide, CO2, InChI=1S/CO2/c2-1-3, purity 99.995%
Compound 2: dodecane, C12H26, InChI=1S/C12H26/c1-3-5-7-9-11-12-10-8-6-4-2/h3-12H2,1-2H3, purity 99.6%

System: carbon dioxide; phases: Liquid
Property: Mass density, kg/m3 (Liquid); method: Vibrating tube method
Pressure, kPa	Temperature, K	Mass density, kg/m3	uncertainty
10000	303.15	770.5	1.8
20000	303.15	890.1	0.5
30000	303.15	949.2	0.5
40000	303.15	989.1	0.5
50000	303.15	1020	0.5
60000	303.15	1045.8	0.5
70000	303.15	1068	0.5
10000	313.15	628.9	1.9
20000	313.15	839.3	1.1
30000	313.15	909.2	0.6
40000	313.15	955.5	0.6
50000	313.15	990.5	0.5
60000	313.15	1019	0.5
70000	313.15	1043.5	0.5

System: dodecane; phases: Liquid
Fixed: Frequency, MHz = 3
Property: Speed of sound, m/s (Liquid); method: Pulse-echo method
Pressure, kPa	Temperature, K	Speed of sound, m/s	uncertainty
10000	303.15	1318.5	1.8
20000	303.15	1372.4	1.8
30000	303.15	1421.4	1.8
40000	303.15	1468.5	1.9
50000	303.15	1512.3	1.9
60000	303.15	1553.7	1.9
70000	303.15	1593.3	2
10000	313.15	1281.7	1.8
20000	313.15	1337.9	1.8
30000	313.15	1389.6	1.8
40000	313.15	1436.8	1.8
50000	313.15	1481.5	1.9
60000	313.15	1524.2	1.9
70000	313.15	1564.6	1.9

System: dodecane; phases: Liquid
Property: Mass density, kg/m3 (Liquid); method: Vibrating tube method
Pressure, kPa	Temperature, K	Mass density, kg/m3	uncertainty
10000	303.15	748.5	0.8
20000	303.15	755.1	0.9
30000	303.15	761.3	1
40000	303.15	766.9	1
50000	303.15	772	1
60000	303.15	776.8	1.1
70000	303.15	781.4	1.1
10000	313.15	741.6	0.8
20000	313.15	748.5	0.9
30000	313.15	754.8	0.9
40000	313.15	760.8	1
50000	313.15	766.3	1.1
60000	313.15	771.5	1.1
70000	313.15	776.4	1.1

System: carbon dioxide + dodecane; phases: Liquid
Fixed: Frequency, MHz = 3
Property: Speed of sound, m/s (Liquid); method: Pulse-echo method
Pressure, kPa	Temperature, K	Mole fraction of carbon dioxide	Speed of sound, m/s	uncertainty
10000	303.15	0	1318.5	1.8
20000	303.15	0	1372.4	1.8
30000	303.15	0	1421.4	1.8
40000	303.15	0	1468.5	1.9
50000	303.15	0	1512.3	1.9
60000	303.15	0	1553.7	1.9
70000	303.15	0	1593.3	2
10000	313.15	0	1281.7	1.8
20000	313.15	0	1337.9	1.8
30000	313.15	0	1389.6	1.8
40000	313.15	0	1436.8	1.8
50000	313.15	0	1481.5	1.9
60000	313.15	0	1524.2	1.9
70000	313.15	0	1564.6	1.9
10000	303.15	0.6007	1011.6	1.5
20000	303.15	0.6007	1084.4	1.4
30000	303.15	0.6007	1147.4	1.4
40000	303.15	0.6007	1204.4	1.5
50000	303.15	0.6007	1256	1.5
60000	303.15	0.6007	1303.2	1.5
70000	303.15	0.6007	1346.4	1.5
10000	313.15	0.6007	969.6	1.9
20000	313.15	0.6007	1046.4	1.7
30000	313.15	0.6007	1112.9	1.6
40000	313.15	0.6007	1170.9	1.7
50000	313.15	0.6007	1224.3	1.7
60000	313.15	0.6007	1272.9	1.7
70000	313.15	0.6007	1317.9	1.7
10000	303.15	0.2032	1245.6	1.7
20000	303.15	0.2032	1304.1	1.7
30000	303.15	0.2032	1356.4	1.8
40000	303.15	0.2032	1404.4	1.7
50000	303.15	0.2032	1449.9	1.8
60000	303.15	0.2032	1492.5	1.8
70000	303.15	0.2032	1532.6	1.8
10000	313.15	0.2032	1209.7	1.8
20000	313.15	0.2032	1269.6	1.8
30000	313.15	0.2032	1322.9	1.7
40000	313.15	0.2032	1373.3	1.7
50000	313.15	0.2032	1419.2	1.8
60000	313.15	0.2032	1462.4	1.8
70000	313.15	0.2032	1503.9	1.8
10000	303.15	0.74983	845.5	1.5
20000	303.15	0.74983	937	1.4
30000	303.15	0.74983	1010.4	1.4
40000	303.15	0.74983	1073.3	1.4
50000	303.15	0.74983	1128.9	1.4
60000	303.15	0.74983	1179.5	1.4
70000	303.15	0.74983	1225.4	1.4
10000	313.15	0.74983	793.2	1.9
20000	313.15	0.74983	893.3	1.7
30000	313.15	0.74983	971.4	1.6
40000	313.15	0.74983	1037.1	1.6
50000	313.15	0.74983	1095.2	1.6
60000	313.15	0.74983	1147	1.5
70000	313.15	0.74983	1195.2	1.6
10000	303.15	0.3989	1152.2	1.3
20000	303.15	0.3989	1214.9	1.5
30000	303.15	0.3989	1272	1.6
40000	303.15	0.3989	1323	1.6
50000	303.15	0.3989	1370.3	1.6
60000	303.15	0.3989	1414.9	1.6
70000	303.15	0.3989	1456.7	1.7
10000	313.15	0.3989	1114.6	1.8
20000	313.15	0.3989	1180.3	1.7
30000	313.15	0.3989	1238.8	1.7
40000	313.15	0.3989	1291	1.7
50000	313.15	0.3989	1339.9	1.7
60000	313.15	0.3989	1385.2	1.7
70000	313.15	0.3989	1427.5	1.8
10000	303.15	0.85278	680.5	1.6
20000	303.15	0.85278	800.1	1.5
30000	303.15	0.85278	885.8	1.5
40000	303.15	0.85278	955.4	1.4
50000	303.15	0.85278	1015.3	1.4
60000	303.15	0.85278	1068.3	1.4
70000	303.15	0.85278	1116.7	1.5
10000	313.15	0.85278	630	1.6
20000	313.15	0.85278	751.2	1.7
30000	313.15	0.85278	843.1	1.5
40000	313.15	0.85278	917.2	1.5
50000	313.15	0.85278	979.7	1.4
60000	313.15	0.85278	1034.9	1.4
70000	313.15	0.85278	1084.8	1.4

System: carbon dioxide + dodecane; phases: Liquid
Property: Mass density, kg/m3 (Liquid); method: Vibrating tube method
Pressure, kPa	Temperature, K	Mole fraction of carbon dioxide	Mass density, kg/m3	uncertainty
10000	303.15	0	748.5	0.8
20000	303.15	0	755.1	0.9
30000	303.15	0	761.3	1
40000	303.15	0	766.9	1
50000	303.15	0	772	1
60000	303.15	0	776.8	1.1
70000	303.15	0	781.4	1.1
10000	313.15	0	741.6	0.8
20000	313.15	0	748.5	0.9
30000	313.15	0	754.8	0.9
40000	313.15	0	760.8	1
50000	313.15	0	766.3	1.1
60000	313.15	0	771.5	1.1
70000	313.15	0	776.4	1.1
10000	303.15	0.6008	784.3	0.6
20000	303.15	0.6008	796.3	0.7
30000	303.15	0.6008	806.8	0.7
40000	303.15	0.6008	816	0.7
50000	303.15	0.6008	824.4	0.8
60000	303.15	0.6008	832.1	0.8
70000	303.15	0.6008	839.3	0.8
10000	313.15	0.6008	773.3	0.6
20000	313.15	0.6008	786.1	0.6
30000	313.15	0.6008	797.2	0.7
40000	313.15	0.6008	807.2	0.7
50000	313.15	0.6008	816.1	0.8
60000	313.15	0.6008	824.2	0.8
70000	313.15	0.6008	831.6	0.8
10000	303.15	0.205	756.3	0.7
20000	303.15	0.205	763.6	0.8
30000	303.15	0.205	770.5	0.9
40000	303.15	0.205	776.8	0.9
50000	303.15	0.205	782.5	1
60000	303.15	0.205	787.9	1
70000	303.15	0.205	793.2	1
10000	313.15	0.205	748.8	0.7
20000	313.15	0.205	756.5	0.8
30000	313.15	0.205	763.6	0.8
40000	313.15	0.205	770.3	0.9
50000	313.15	0.205	776.4	1
60000	313.15	0.205	782.1	1
70000	313.15	0.205	787.4	1
10000	303.15	0.7497	802.5	0.6
20000	303.15	0.7497	820.5	0.6
30000	303.15	0.7497	835.2	0.6
40000	303.15	0.7497	847.6	0.6
50000	303.15	0.7497	858.7	0.6
60000	303.15	0.7497	868.7	0.7
70000	303.15	0.7497	878	0.8
10000	313.15	0.7497	786.6	0.6
20000	313.15	0.7497	806.5	0.6
30000	313.15	0.7497	822.5	0.6
40000	313.15	0.7497	836.1	0.6
50000	313.15	0.7497	848	0.6
60000	313.15	0.7497	858.7	0.7
70000	313.15	0.7497	868.2	0.7
10000	303.15	0.4	767.4	0.6
20000	303.15	0.4	776.3	0.7
30000	303.15	0.4	784.3	0.8
40000	303.15	0.4	791.6	0.8
50000	303.15	0.4	798.2	0.9
60000	303.15	0.4	804.4	0.9
70000	303.15	0.4	810.2	0.9
10000	313.15	0.4	758.7	0.6
20000	313.15	0.4	768.1	0.7
30000	313.15	0.4	776.4	0.7
40000	313.15	0.4	784.2	0.8
50000	313.15	0.4	791.2	0.9
60000	313.15	0.4	797.6	0.9
70000	313.15	0.4	803.6	0.9
10000	303.15	0.853	815.6	0.5
20000	303.15	0.853	844.1	0.6
30000	303.15	0.853	865.6	0.6
40000	303.15	0.853	883.1	0.7
50000	303.15	0.853	898.1	0.7
60000	303.15	0.853	911.4	0.8
70000	303.15	0.853	923.3	0.8
10000	313.15	0.853	790.9	0.8
20000	313.15	0.853	824.1	0.5
30000	313.15	0.853	847.6	0.6
40000	313.15	0.853	866.6	0.6
50000	313.15	0.853	882.5	0.7
60000	313.15	0.853	896.4	0.7
70000	313.15	0.853	908.7	0.8
10000	303.15	0.9348	817.8	0.6
20000	303.15	0.9348	868.5	0.5
30000	303.15	0.9348	902.4	0.6
40000	303.15	0.9348	928.1	0.6
50000	303.15	0.9348	950.3	0.6
60000	303.15	0.9348	967.4	0.7
70000	303.15	0.9348	983.5	0.7
10000	313.15	0.9348	771.4	0.9
20000	313.15	0.9348	838.9	0.6
30000	313.15	0.9348	877.6	0.5
40000	313.15	0.9348	906.5	0.6
50000	313.15	0.9348	929.7	0.6
60000	313.15	0.9348	949.4	0.6
70000	313.15	0.9348	966.6	0.7
10000	303.15	0.9877	790.6	1.4
20000	303.15	0.9877	887.1	0.6
30000	303.15	0.9877	937.7	0.7
40000	303.15	0.9877	973.9	0.7
50000	303.15	0.9877	1002.9	0.8
60000	303.15	0.9877	1027.1	0.8
70000	303.15	0.9877	1048.1	0.8
10000	313.15	0.9877	689.4	2.4
20000	313.15	0.9877	841.4	0.8
30000	313.15	0.9877	902.7	0.6
40000	313.15	0.9877	944.5	0.7
50000	313.15	0.9877	976.7	0.7
60000	313.15	0.9877	1003.1	0.8
70000	313.15	0.9877	1025.8	0.8
10000	303.15	0.9771	801	1.1
20000	303.15	0.9771	883.1	0.6
30000	303.15	0.9771	929.5	0.6
40000	303.15	0.9771	963.1	0.6
50000	303.15	0.9771	990.1	0.7
60000	303.15	0.9771	1012.8	0.7
70000	303.15	0.9771	1032.6	0.8
10000	313.15	0.9771	721.2	1.7
20000	313.15	0.9771	842	0.7
30000	313.15	0.9771	897.3	0.6
40000	313.15	0.9771	935.9	0.6
50000	313.15	0.9771	965.6	0.6
60000	313.15	0.9771	990.3	0.7
70000	313.15	0.9771	1011.6	0.7
10000	303.15	1	770.5	1.8
20000	303.15	1	890.1	0.5
30000	303.15	1	949.2	0.5
40000	303.15	1	989.1	0.5
50000	303.15	1	1020	0.5
60000	303.15	1	1045.8	0.5
70000	303.15	1	1068	0.5
10000	313.15	1	628.9	1.9
20000	313.15	1	839.3	1.1
30000	313.15	1	909.2	0.6
40000	313.15	1	955.5	0.6
50000	313.15	1	990.5	0.5
60000	313.15	1	1019	0.5
70000	313.15	1	1043.5	0.5
