Measured thermophysical data. Phase Equilibrium of the MgSO4-(NH4)2SO4-H2O Ternary System: Effects of Sulfuric Acid and Iron Sulfate and Its Application in Mineral Carbonation of Serpentine
Source: J. Chem. Eng. Data, 2018, 10.1021/acs.jced.7b01113
Compound 1: magnesium sulfate, MgO4S, InChI=1S/Mg.H2O4S/c;1-5(2,3)4/h;(H2,1,2,3,4)/q+2;/p-2
Compound 2: ammonium sulfate, H8N2O4S, InChI=1S/2H3N.H2O4S/c;;1-5(2,3)4/h2*1H3;(H2,1,2,3,4)
Compound 3: water, H2O, InChI=1S/H2O/h1H2, purity 99.8%

System: magnesium sulfate + ammonium sulfate + water; phases: Liquid, Crystal of intercomponent compound 1
Fixed: Temperature, K = 298.15
Fixed: Pressure, kPa = 100
Property: Mass fraction of ammonium sulfate (Liquid); method: Titration method
Mass fraction of magnesium sulfate	Mass fraction of ammonium sulfate	uncertainty
0.2638	0	
0.2627	0.0224	0.0224

System: magnesium sulfate + ammonium sulfate + water; phases: Liquid, Crystal of intercomponent compound 2
Fixed: Pressure, kPa = 100
Property: Mass fraction of ammonium sulfate (Liquid); method: Titration method
Temperature, K	Mass fraction of magnesium sulfate	Mass fraction of ammonium sulfate	uncertainty
298.15	0.2627	0.0224	0.001
298.15	0.2345	0.0288	0.0012
298.15	0.1959	0.0402	0.0014
298.15	0.1355	0.0592	0.0018
298.15	0.0693	0.0935	0.0025
298.15	0.0258	0.1636	0.0051
298.15	0.0177	0.2061	0.0051
298.15	0.0106	0.2611	0.0054
298.15	0.0069	0.3003	0.0058
298.15	0.0047	0.3475	0.0063
298.15	0.0032	0.3744	0.0068
298.15	0.0023	0.407	0.0089
298.15	0.0018	0.4277	0.009
328.15	0.333	0.026	0.0016
328.15	0.2875	0.0403	0.0014
328.15	0.2615	0.0483	0.0016
328.15	0.2177	0.0664	0.0018
328.15	0.1822	0.0833	0.0022
328.15	0.1277	0.1165	0.0028
328.15	0.072	0.181	0.004
328.15	0.0402	0.2489	0.0051
328.15	0.0239	0.3199	0.0059
328.15	0.0158	0.3688	0.0062
328.15	0.011	0.4126	0.0065
328.15	0.0076	0.4589	0.0063
353.15	0.3333	0.0616	0.0017
353.15	0.2937	0.0761	0.0021
353.15	0.2379	0.1097	0.0026
353.15	0.203	0.1329	0.0028
353.15	0.1732	0.1616	0.0033
353.15	0.1317	0.2015	0.0043
353.15	0.0872	0.2646	0.0049
353.15	0.0621	0.3064	0.0052
353.15	0.0541	0.34	0.0062
353.15	0.044	0.3711	0.0064
353.15	0.0291	0.4343	0.0067
353.15	0.0246	0.4643	0.007

System: magnesium sulfate + ammonium sulfate + water; phases: Liquid, Crystal
Fixed: Pressure, kPa = 100
Property: Mass fraction of ammonium sulfate (Liquid); method: Titration method
Temperature, K	Mass fraction of magnesium sulfate	Mass fraction of ammonium sulfate	uncertainty
298.15	0.0018	0.4277	0.0033
298.15	0	0.4362	0.0034
328.15	0.0076	0.4589	0.0036
328.15	0	0.4623	0.0036
353.15	0.0246	0.4643	0.0036
353.15	0	0.485	0.0038

System: magnesium sulfate + ammonium sulfate + water; phases: Liquid, Crystal of intercomponent compound 3
Fixed: Temperature, K = 328.15
Fixed: Pressure, kPa = 100
Property: Mass fraction of ammonium sulfate (Liquid); method: Titration method
Mass fraction of magnesium sulfate	Mass fraction of ammonium sulfate	uncertainty
0.3407	0	
0.333	0.026	0.0081

System: magnesium sulfate + ammonium sulfate + water; phases: Liquid, Crystal of intercomponent compound 1
Fixed: Temperature, K = 353.15
Fixed: Pressure, kPa = 100
Property: Mass fraction of ammonium sulfate (Liquid); method: Titration method
Mass fraction of magnesium sulfate	Mass fraction of ammonium sulfate	uncertainty
0.354	0	
0.3333	0.0616	0.0072

System: magnesium sulfate + water; phases: Liquid, Crystal of intercomponent compound 1
Property: Solid-liquid equilibrium temperature, K (Liquid); method: titration
Mass fraction of magnesium sulfate	Pressure, kPa	Solid-liquid equilibrium temperature, K	uncertainty
0.2638	100	298.15	1

System: magnesium sulfate + water; phases: Liquid, Crystal of intercomponent compound 3
Property: Solid-liquid equilibrium temperature, K (Liquid); method: titration
Mass fraction of magnesium sulfate	Pressure, kPa	Solid-liquid equilibrium temperature, K	uncertainty
0.3407	100	328.15	1

System: magnesium sulfate + water; phases: Liquid, Crystal of intercomponent compound 2
Property: Solid-liquid equilibrium temperature, K (Liquid); method: titration
Mass fraction of magnesium sulfate	Pressure, kPa	Solid-liquid equilibrium temperature, K	uncertainty
0.354	100	328.15	1

System: ammonium sulfate + water; phases: Liquid, Crystal
Fixed: Pressure, kPa = 100
Property: Mass fraction of ammonium sulfate (Liquid); method: Titration method
Temperature, K	Mass fraction of ammonium sulfate	uncertainty
298.15	0.4362	0.0034
328.15	0.4623	0.0036
353.15	0.485	0.0038
