Measured thermophysical data. Viscosity Measurement and Correlation of Unloaded and CO2-Loaded 3-Amino-1-propanol Solution
Source: J. Chem. Eng. Data, 2018, 10.1021/acs.jced.7b01035
Compound 1: 3-amino-1-propanol, C3H9NO, InChI=1S/C3H9NO/c4-2-1-3-5/h5H,1-4H2, purity 99.5%
Compound 2: water, H2O, InChI=1S/H2O/h1H2, purity 99.9%
Compound 3: carbon dioxide, CO2, InChI=1S/CO2/c2-1-3, purity 99.999%

System: 3-amino-1-propanol; phases: Liquid
Fixed: Pressure, kPa = 500
Property: Viscosity, Pa*s (Liquid); method: Concentric cylinders viscometry
Temperature, K	Viscosity, Pa*s	uncertainty
298.15	0.03043	0.00033
303.15	0.02387	0.00032
308.15	0.01907	0.00031
313.15	0.01527	0.00031
318.15	0.01236	0.00031
323.15	0.01022	0.0003
328.15	0.00854	0.0003
333.15	0.00712	0.0003
338.15	0.00605	0.0003
343.15	0.00484	0.0003
348.15	0.00417	0.0003
353.15	0.00363	0.0003
358.15	0.00319	0.0003
363.15	0.00273	0.0003
368.15	0.00252	0.0003
373.15	0.00225	0.0003

System: 3-amino-1-propanol + water; phases: Liquid
Fixed: Pressure, kPa = 500
Property: Viscosity, Pa*s (Liquid); method: Concentric cylinders viscometry
Temperature, K	Mass fraction of 3-amino-1-propanol	Viscosity, Pa*s	uncertainty
298.15	0.1	0.00127	0.00032
303.15	0.1	0.00114	0.00032
308.15	0.1	0.00101	0.00031
313.15	0.1	0.00089	0.00031
318.15	0.1	0.00081	0.00031
323.15	0.1	0.00075	0.0003
328.15	0.1	0.00072	0.0003
333.15	0.1	0.00066	0.0003
338.15	0.1	0.00061	0.0003
343.15	0.1	0.00058	0.0003
348.15	0.1	0.00057	0.0003
353.15	0.1	0.00055	0.0003
358.15	0.1	0.00041	0.0003
363.15	0.1	0.00039	0.0003
368.15	0.1	0.00037	0.0003
373.15	0.1	0.00035	0.0003
298.15	0.2	0.00184	0.00034
303.15	0.2	0.00162	0.00033
308.15	0.2	0.00141	0.00032
313.15	0.2	0.00125	0.00031
318.15	0.2	0.00112	0.00031
323.15	0.2	0.00101	0.00031
328.15	0.2	0.00092	0.0003
333.15	0.2	0.00084	0.0003
338.15	0.2	0.00076	0.0003
343.15	0.2	0.00073	0.0003
348.15	0.2	0.0007	0.0003
353.15	0.2	0.00067	0.0003
358.15	0.2	0.00054	0.0003
363.15	0.2	0.00049	0.0003
368.15	0.2	0.00047	0.0003
373.15	0.2	0.00044	0.0003
298.15	0.3	0.00295	0.00042
303.15	0.3	0.0025	0.00038
308.15	0.3	0.00215	0.00036
313.15	0.3	0.00182	0.00034
318.15	0.3	0.00159	0.00033
323.15	0.3	0.0014	0.00032
328.15	0.3	0.00124	0.00031
333.15	0.3	0.0011	0.00031
338.15	0.3	0.00099	0.00031
343.15	0.3	0.0009	0.00031
348.15	0.3	0.00082	0.0003
353.15	0.3	0.00075	0.0003
358.15	0.3	0.00069	0.0003
363.15	0.3	0.00065	0.0003
368.15	0.3	0.00063	0.0003
373.15	0.3	0.00059	0.0003
298.15	0.4	0.00476	0.00055
303.15	0.4	0.00397	0.00048
308.15	0.4	0.00334	0.00042
313.15	0.4	0.00282	0.00039
318.15	0.4	0.00242	0.00036
323.15	0.4	0.00211	0.00034
328.15	0.4	0.00186	0.00033
333.15	0.4	0.00166	0.00032
338.15	0.4	0.00147	0.00032
343.15	0.4	0.00132	0.00031
348.15	0.4	0.0012	0.00031
353.15	0.4	0.00108	0.00031
358.15	0.4	0.00099	0.00031
363.15	0.4	0.00093	0.00031
368.15	0.4	0.00088	0.0003
373.15	0.4	0.00082	0.0003
298.15	0.5	0.00758	0.0008
303.15	0.5	0.00618	0.00064
308.15	0.5	0.0051	0.00053
313.15	0.5	0.00423	0.00046
318.15	0.5	0.00359	0.00041
323.15	0.5	0.00307	0.00037
328.15	0.5	0.00265	0.00035
333.15	0.5	0.00231	0.00034
338.15	0.5	0.00203	0.00033
343.15	0.5	0.00181	0.00032
348.15	0.5	0.00164	0.00031
353.15	0.5	0.00146	0.00031
358.15	0.5	0.00132	0.00031
363.15	0.5	0.00125	0.00031
368.15	0.5	0.00116	0.0003
373.15	0.5	0.00105	0.0003
298.15	0.6	0.01217	0.00114
303.15	0.6	0.00964	0.00089
308.15	0.6	0.00769	0.00071
313.15	0.6	0.00625	0.00058
318.15	0.6	0.00517	0.00049
323.15	0.6	0.00434	0.00043
328.15	0.6	0.00369	0.00039
333.15	0.6	0.00317	0.00036
338.15	0.6	0.00274	0.00034
343.15	0.6	0.00239	0.00033
348.15	0.6	0.00209	0.00032
353.15	0.6	0.00185	0.00031
358.15	0.6	0.00168	0.00031
363.15	0.6	0.00151	0.00031
368.15	0.6	0.00137	0.0003
373.15	0.6	0.00126	0.0003
298.15	0.7	0.01856	0.00144
303.15	0.7	0.0145	0.00117
308.15	0.7	0.01148	0.00086
313.15	0.7	0.00921	0.0007
318.15	0.7	0.0075	0.00058
323.15	0.7	0.00617	0.00049
328.15	0.7	0.00514	0.00043
333.15	0.7	0.00433	0.00039
338.15	0.7	0.00367	0.00036
343.15	0.7	0.00315	0.00034
348.15	0.7	0.00272	0.00033
353.15	0.7	0.00237	0.00032
358.15	0.7	0.00209	0.00032
363.15	0.7	0.00186	0.00031
368.15	0.7	0.00166	0.00031
373.15	0.7	0.00149	0.00031
298.15	0.8	0.02623	0.00112
303.15	0.8	0.02098	0.00088
308.15	0.8	0.01573	0.00072
313.15	0.8	0.01252	0.0006
318.15	0.8	0.01009	0.00051
323.15	0.8	0.00824	0.00045
328.15	0.8	0.00681	0.0004
333.15	0.8	0.00568	0.00037
338.15	0.8	0.00479	0.00035
343.15	0.8	0.00408	0.00033
348.15	0.8	0.00351	0.00032
353.15	0.8	0.00303	0.00032
358.15	0.8	0.0027	0.00031
363.15	0.8	0.0024	0.00031
368.15	0.8	0.00213	0.00031
373.15	0.8	0.00191	0.0003
298.15	0.9	0.02926	0.00053
303.15	0.9	0.02276	0.00043
308.15	0.9	0.01796	0.00046
313.15	0.9	0.01436	0.00041
318.15	0.9	0.0116	0.00038
323.15	0.9	0.00947	0.00036
328.15	0.9	0.00778	0.00035
333.15	0.9	0.00647	0.00033
338.15	0.9	0.00543	0.00033
343.15	0.9	0.00461	0.00031
348.15	0.9	0.00393	0.00031
353.15	0.9	0.00339	0.00031
358.15	0.9	0.00293	0.0003
363.15	0.9	0.00256	0.0003
368.15	0.9	0.00224	0.0003
373.15	0.9	0.00198	0.0003
298.15	1	0.03043	0.00033
303.15	1	0.02387	0.00032
308.15	1	0.01907	0.00031
313.15	1	0.01527	0.00031
318.15	1	0.01236	0.00031
323.15	1	0.01022	0.0003
328.15	1	0.00854	0.0003
333.15	1	0.00712	0.0003
338.15	1	0.00605	0.0003
343.15	1	0.00484	0.0003
348.15	1	0.00417	0.0003
353.15	1	0.00363	0.0003
358.15	1	0.00319	0.0003
363.15	1	0.00273	0.0003
368.15	1	0.00252	0.0003
373.15	1	0.00225	0.0003

System: 3-amino-1-propanol + water + carbon dioxide; phases: Liquid
Fixed: Pressure, kPa = 500
Property: Viscosity, Pa*s (Liquid); method: Concentric cylinders viscometry
Solvent: Mass fraction of 3-amino-1-propanol	Temperature, K	Mole fraction of carbon dioxide	Viscosity, Pa*s	uncertainty
0.3	298.15	0.012	0.00322	0.00066
0.3	303.15	0.012	0.00277	0.00055
0.3	308.15	0.012	0.00238	0.00048
0.3	313.15	0.012	0.00203	0.00043
0.3	318.15	0.012	0.00179	0.00039
0.3	323.15	0.012	0.00159	0.00036
0.3	328.15	0.012	0.0014	0.00035
0.3	333.15	0.012	0.00125	0.00034
0.3	338.15	0.012	0.00113	0.00033
0.3	343.15	0.012	0.00103	0.00032
0.3	348.15	0.012	0.00094	0.00032
0.3	353.15	0.012	0.00086	0.00031
0.3	358.15	0.012	0.00079	0.00031
0.3	363.15	0.012	0.00074	0.00031
0.3	368.15	0.012	0.0007	0.00031
0.3	373.15	0.012	0.00069	0.0003
0.3	298.15	0.023	0.00351	0.00066
0.3	303.15	0.023	0.00302	0.00055
0.3	308.15	0.023	0.00261	0.00048
0.3	313.15	0.023	0.00226	0.00043
0.3	318.15	0.023	0.002	0.00039
0.3	323.15	0.023	0.00178	0.00036
0.3	328.15	0.023	0.0016	0.00035
0.3	333.15	0.023	0.00144	0.00034
0.3	338.15	0.023	0.00131	0.00033
0.3	343.15	0.023	0.00119	0.00032
0.3	348.15	0.023	0.00109	0.00032
0.3	353.15	0.023	0.001	0.00031
0.3	358.15	0.023	0.00093	0.00031
0.3	363.15	0.023	0.00087	0.00031
0.3	368.15	0.023	0.0008	0.00031
0.3	373.15	0.023	0.00076	0.0003
0.3	298.15	0.031	0.00376	0.00066
0.3	303.15	0.031	0.00322	0.00056
0.3	308.15	0.031	0.00279	0.00048
0.3	313.15	0.031	0.00242	0.00043
0.3	318.15	0.031	0.00215	0.00039
0.3	323.15	0.031	0.00192	0.00036
0.3	328.15	0.031	0.00176	0.00035
0.3	333.15	0.031	0.00157	0.00033
0.3	338.15	0.031	0.00142	0.00033
0.3	343.15	0.031	0.00128	0.00032
0.3	348.15	0.031	0.00116	0.00032
0.3	353.15	0.031	0.00106	0.00031
0.3	358.15	0.031	0.00098	0.00031
0.3	363.15	0.031	0.00092	0.00031
0.3	368.15	0.031	0.00086	0.00031
0.3	373.15	0.031	0.00081	0.00031
0.3	298.15	0.039	0.00402	0.00082
0.3	303.15	0.039	0.00348	0.00066
0.3	308.15	0.039	0.00304	0.00056
0.3	313.15	0.039	0.00264	0.00049
0.3	318.15	0.039	0.00232	0.00044
0.3	323.15	0.039	0.00206	0.0004
0.3	328.15	0.039	0.00185	0.00037
0.3	333.15	0.039	0.00166	0.00035
0.3	338.15	0.039	0.00151	0.00034
0.3	343.15	0.039	0.00138	0.00033
0.3	348.15	0.039	0.00126	0.00032
0.3	353.15	0.039	0.00116	0.00032
0.3	358.15	0.039	0.00109	0.00031
0.3	363.15	0.039	0.00102	0.00031
0.3	368.15	0.039	0.00096	0.00031
0.3	373.15	0.039	0.00092	0.00031
0.3	298.15	0.048	0.00414	0.00081
0.3	303.15	0.048	0.00358	0.00066
0.3	308.15	0.048	0.00311	0.00056
0.3	313.15	0.048	0.0027	0.00048
0.3	318.15	0.048	0.00238	0.00043
0.3	323.15	0.048	0.00212	0.0004
0.3	328.15	0.048	0.00189	0.00037
0.3	333.15	0.048	0.00171	0.00035
0.3	338.15	0.048	0.00155	0.00034
0.3	343.15	0.048	0.0014	0.00033
0.3	348.15	0.048	0.00128	0.00032
0.3	353.15	0.048	0.00117	0.00032
0.3	358.15	0.048	0.00108	0.00031
0.3	363.15	0.048	0.00101	0.00031
0.3	368.15	0.048	0.00095	0.00031
0.3	373.15	0.048	0.0009	0.00031
0.5	298.15	0.025	0.00934	0.0008
0.5	303.15	0.025	0.00762	0.00065
0.5	308.15	0.025	0.0063	0.00055
0.5	313.15	0.025	0.00523	0.00049
0.5	318.15	0.025	0.00441	0.00044
0.5	323.15	0.025	0.00376	0.0004
0.5	328.15	0.025	0.00325	0.00038
0.5	333.15	0.025	0.00283	0.00036
0.5	338.15	0.025	0.00249	0.00035
0.5	343.15	0.025	0.00221	0.00034
0.5	348.15	0.025	0.00197	0.00033
0.5	353.15	0.025	0.00177	0.00032
0.5	358.15	0.025	0.00161	0.00032
0.5	363.15	0.025	0.00147	0.00031
0.5	368.15	0.025	0.00135	0.00031
0.5	373.15	0.025	0.00125	0.00031
0.5	298.15	0.044	0.01161	0.00096
0.5	303.15	0.044	0.0094	0.0008
0.5	308.15	0.044	0.00775	0.00067
0.5	313.15	0.044	0.00647	0.00058
0.5	318.15	0.044	0.00548	0.00051
0.5	323.15	0.044	0.00469	0.00046
0.5	328.15	0.044	0.00406	0.00042
0.5	333.15	0.044	0.00354	0.00039
0.5	338.15	0.044	0.00312	0.00037
0.5	343.15	0.044	0.00277	0.00036
0.5	348.15	0.044	0.00247	0.00035
0.5	353.15	0.044	0.00221	0.00034
0.5	358.15	0.044	0.002	0.00033
0.5	363.15	0.044	0.00184	0.00032
0.5	368.15	0.044	0.00169	0.00032
0.5	373.15	0.044	0.00156	0.00032
0.5	298.15	0.058	0.01314	0.00097
0.5	303.15	0.058	0.01074	0.0008
0.5	308.15	0.058	0.00889	0.00067
0.5	313.15	0.058	0.00744	0.00057
0.5	318.15	0.058	0.00632	0.00051
0.5	323.15	0.058	0.00541	0.00046
0.5	328.15	0.058	0.00469	0.00042
0.5	333.15	0.058	0.00401	0.00039
0.5	338.15	0.058	0.00362	0.00037
0.5	343.15	0.058	0.00321	0.00035
0.5	348.15	0.058	0.00287	0.00034
0.5	353.15	0.058	0.00258	0.00034
0.5	358.15	0.058	0.00234	0.00033
0.5	363.15	0.058	0.00214	0.00032
0.5	368.15	0.058	0.00197	0.00032
0.5	373.15	0.058	0.00184	0.00032
0.5	298.15	0.075	0.01529	0.001
0.5	303.15	0.075	0.01235	0.00082
0.5	308.15	0.075	0.01017	0.00068
0.5	313.15	0.075	0.00851	0.00059
0.5	318.15	0.075	0.00722	0.00052
0.5	323.15	0.075	0.0062	0.00046
0.5	328.15	0.075	0.00537	0.00042
0.5	333.15	0.075	0.00469	0.00039
0.5	338.15	0.075	0.00411	0.00037
0.5	343.15	0.075	0.00364	0.00036
0.5	348.15	0.075	0.00325	0.00034
0.5	353.15	0.075	0.00293	0.00034
0.5	358.15	0.075	0.00267	0.00033
0.5	363.15	0.075	0.00245	0.00033
0.5	368.15	0.075	0.00227	0.00032
0.5	373.15	0.075	0.00212	0.00032
0.5	298.15	0.091	0.01807	0.00077
0.5	303.15	0.091	0.01474	0.00075
0.5	308.15	0.091	0.01218	0.00075
0.5	313.15	0.091	0.01016	0.00068
0.5	318.15	0.091	0.00859	0.00061
0.5	323.15	0.091	0.00733	0.00054
0.5	328.15	0.091	0.00632	0.00048
0.5	333.15	0.091	0.00549	0.00043
0.5	338.15	0.091	0.00482	0.0004
0.5	343.15	0.091	0.00427	0.00037
0.5	348.15	0.091	0.00381	0.00035
0.5	353.15	0.091	0.00343	0.00034
0.5	358.15	0.091	0.00312	0.00033
0.5	363.15	0.091	0.00287	0.00032
0.5	368.15	0.091	0.00266	0.00032
0.5	373.15	0.091	0.00249	0.00031
