Measured thermophysical data. Densities and viscosities of amino acid + xylitol + water solutions at 293.15 less than T/K greater than 323.15
Source: J. Chem. Eng. Data, 2017, 10.1021/acs.jced.6b00766
Compound 1: xylitol, C5H12O5, InChI=1S/C5H12O5/c6-1-3(8)5(10)4(9)2-7/h3-10H,1-2H2/t3-,4+,5+, purity 99%
Compound 2: 2-aminoacetic acid, C2H5NO2, InChI=1S/C2H5NO2/c3-1-2(4)5/h1,3H2,(H,4,5), purity 99.5%
Compound 3: (S)-2-aminopropanoic acid, C3H7NO2, InChI=1S/C3H7NO2/c1-2(4)3(5)6/h2H,4H2,1H3,(H,5,6)/t2-/m0/s1, purity 99%
Compound 4: L-valine, C5H11NO2, InChI=1S/C5H11NO2/c1-3(2)4(6)5(7)8/h3-4H,6H2,1-2H3,(H,7,8)/t4-/m0/s1, purity 99%
Compound 5: L-threonine, C4H9NO3, InChI=1S/C4H9NO3/c1-2(6)3(5)4(7)8/h2-3,6H,5H2,1H3,(H,7,8)/t2-,3+/m1/s1, purity 99%
Compound 6: L-arginine, C6H14N4O2, InChI=1S/C6H14N4O2/c7-4(5(11)12)2-1-3-10-6(8)9/h4H,1-3,7H2,(H,11,12)(H4,8,9,10)/t4-/m0/s1, purity 99%
Compound 7: water, H2O, InChI=1S/H2O/h1H2, purity 99.8%

System: 2-aminoacetic acid + xylitol + water; phases: Liquid
Fixed: Pressure, kPa = 101.3
Property: Mass density, kg/m3 (Liquid); method: Vibrating tube method
Temperature, K	Molality, mol/kg of 2-aminoacetic acid	Solvent: Molality, mol/kg of xylitol	Mass density, kg/m3	uncertainty
293.15	0	0.2	1008.15	0.29
293.15	0.1001	0.2	1011.33	0.3
293.15	0.2	0.2	1014.46	0.32
293.15	0.3	0.2	1017.53	0.31
293.15	0.4	0.2	1020.56	0.31
293.15	0.5	0.2	1023.53	0.41
293.15	0.6001	0.2	1026.45	0.45
293.15	0.7	0.2	1029.31	0.5
303.15	0	0.2	1005.42	0.29
303.15	0.1001	0.2	1008.56	0.3
303.15	0.2	0.2	1011.64	0.31
303.15	0.3	0.2	1014.67	0.34
303.15	0.4	0.2	1017.65	0.37
303.15	0.5	0.2	1020.58	0.41
303.15	0.6001	0.2	1023.46	0.45
303.15	0.7	0.2	1026.29	0.46
313.15	0	0.2	1001.85	0.29
313.15	0.1001	0.2	1004.95	0.29
313.15	0.2	0.2	1007.99	0.31
313.15	0.3	0.2	1010.99	0.34
313.15	0.4	0.2	1013.93	0.37
313.15	0.5	0.2	1016.83	0.41
313.15	0.6001	0.2	1019.68	0.45
313.15	0.7	0.2	1022.47	0.46
323.15	0	0.2	997.56	0.29
323.15	0.1001	0.2	1000.62	0.29
323.15	0.2	0.2	1003.63	0.31
323.15	0.3	0.2	1006.59	0.31
323.15	0.4	0.2	1009.51	0.31
323.15	0.5	0.2	1012.38	0.4
323.15	0.6001	0.2	1015.22	0.44
323.15	0.7	0.2	1018.01	0.48
293.15	0	0.4	1017.64	0.44
293.15	0.1	0.4	1020.77	0.44
293.15	0.2	0.4	1023.85	2583852300000000
293.15	0.3	0.4	1026.89	1972936200000000
293.15	0.4	0.4	1029.88	3463461600000000
293.15	0.5	0.4	1032.84	0.52
293.15	0.6	0.4	1035.75	0.55
293.15	0.7	0.4	1038.63	2.22
303.15	0	0.4	1014.74	0.43
303.15	0.1	0.4	1017.82	0.43
303.15	0.2	0.4	1020.85	0.44
303.15	0.3	0.4	1023.84	0.46
303.15	0.4	0.4	1026.8	0.48
303.15	0.5	0.4	1029.71	0.51
303.15	0.6	0.4	1032.58	0.54
303.15	0.7	0.4	1035.41	0.56
313.15	0	0.4	1011.07	0.42
313.15	0.1	0.4	1014.11	0.43
313.15	0.2	0.4	1017.1	0.44
313.15	0.3	0.4	1020.06	0.45
313.15	0.4	0.4	1022.99	0.48
313.15	0.5	0.4	1025.87	0.51
313.15	0.6	0.4	1028.73	0.54
313.15	0.7	0.4	1031.54	0.55
323.15	0	0.4	1006.6	0.48
323.15	0.1	0.4	1009.6	0.42
323.15	0.2	0.4	1012.57	750416690000000
323.15	0.3	0.4	1015.51	1717299700000000
323.15	0.4	0.4	1018.42	3380998300000000
323.15	0.5	0.4	1021.3	0.5
323.15	0.6	0.4	1024.14	0.54
323.15	0.7	0.4	1026.96	1.17
293.15	0	0.6	1026.71	0.58
293.15	0.1	0.6	1029.81	0.58
293.15	0.2	0.6	1032.87	2358452400000000
293.15	0.3	0.6	1035.87	842157190000000
293.15	0.4	0.6	1038.82	1687750300000000
293.15	0.5	0.6	1041.73	0.64
293.15	0.6	0.6	1044.59	0.66
293.15	0.7	0.6	1047.39	1.95
303.15	0	0.6	1023.67	0.57
303.15	0.1	0.6	1026.72	0.57
303.15	0.2	0.6	1029.72	0.58
303.15	0.3	0.6	1032.68	0.59
303.15	0.4	0.6	1035.58	0.61
303.15	0.5	0.6	1038.44	0.63
303.15	0.6	0.6	1041.25	0.65
303.15	0.7	0.6	1044.01	0.66
313.15	0	0.6	1019.85	0.56
313.15	0.1	0.6	1022.86	0.56
313.15	0.2	0.6	1025.82	0.57
313.15	0.3	0.6	1028.74	0.58
313.15	0.4	0.6	1031.62	0.6
313.15	0.5	0.6	1034.45	0.62
313.15	0.6	0.6	1037.25	0.64
313.15	0.7	0.6	1039.99	0.66
323.15	0	0.6	1015.35	0.56
323.15	0.1	0.6	1018.33	0.56
323.15	0.2	0.6	1021.27	1098137200000000
323.15	0.3	0.6	1024.17	1924488900000000
323.15	0.4	0.6	1027.03	1652016200000000
323.15	0.5	0.6	1029.84	0.62
323.15	0.6	0.6	1032.63	0.64
323.15	0.7	0.6	1035.38	1.35
293.15	0	0.8	1035.41	0.73
293.15	0.1001	0.8	1038.48	393.8
293.15	0.2	0.8	1041.5	126.27
293.15	0.3	0.8	1044.46	1448263000000000
293.15	0.4	0.8	1047.37	1407374900000000
293.15	0.5	0.8	1050.23	0.76
293.15	0.6	0.8	1053.04	0.78
293.15	0.7	0.8	1055.8	0.83
303.15	0	0.8	1032.22	0.71
303.15	0.1001	0.8	1035.25	0.71
303.15	0.2	0.8	1038.22	0.71
303.15	0.3	0.8	1041.15	0.72
303.15	0.4	0.8	1044.02	0.74
303.15	0.5	0.8	1046.85	0.75
303.15	0.6	0.8	1049.63	0.77
303.15	0.7	0.8	1052.36	0.78
313.15	0	0.8	1028.28	0.7
313.15	0.1001	0.8	1031.26	0.7
313.15	0.2	0.8	1034.2	0.7
313.15	0.3	0.8	1037.09	0.71
313.15	0.4	0.8	1039.95	0.73
313.15	0.5	0.8	1042.75	0.74
313.15	0.6	0.8	1045.5	0.76
313.15	0.7	0.8	1048.22	0.77
323.15	0	0.8	1023.7	0.7
323.15	0.1001	0.8	1026.66	79.81
323.15	0.2	0.8	1029.57	98.42
323.15	0.3	0.8	1032.44	1296736500000000
323.15	0.4	0.8	1035.28	703687440000000
323.15	0.5	0.8	1038.07	0.74
323.15	0.6	0.8	1040.83	0.75
323.15	0.7	0.8	1043.55	0.73
293.15	0	1	1043.78	0.87
293.15	0.1	1	1046.82	0.87
293.15	0.2	1	1049.8	0.87
293.15	0.3	1	1052.73	0.91
293.15	0.4	1	1055.62	0.86
293.15	0.5	1	1058.44	0.9
293.15	0.6	1	1061.22	0.91
293.15	0.7	1	1063.94	0.93
303.15	0	1	1040.41	0.83
303.15	0.1	1	1043.41	0.84
303.15	0.2	1	1046.35	0.84
303.15	0.3	1	1049.25	0.85
303.15	0.4	1	1052.1	0.86
303.15	0.5	1	1054.9	0.87
303.15	0.6	1	1057.65	0.88
303.15	0.7	1	1060.35	0.88
313.15	0	1	1036.38	0.82
313.15	0.1	1	1039.34	0.83
313.15	0.2	1	1042.25	0.83
313.15	0.3	1	1045.12	0.84
313.15	0.4	1	1047.95	0.85
313.15	0.5	1	1050.72	0.86
313.15	0.6	1	1053.45	0.88
313.15	0.7	1	1056.14	0.88
323.15	0	1	1031.65	0.83
323.15	0.1	1	1034.58	0.82
323.15	0.2	1	1037.46	0.83
323.15	0.3	1	1040.31	0.83
323.15	0.4	1	1043.12	0.83
323.15	0.5	1	1045.88	0.86
323.15	0.6	1	1048.61	0.87
323.15	0.7	1	1051.3	0.89

System: 2-aminoacetic acid + xylitol + water; phases: Liquid
Fixed: Pressure, kPa = 101.3
Property: Viscosity, Pa*s (Liquid); method: Capillary tube (Ostwald; Ubbelohde) method
Temperature, K	Molality, mol/kg of 2-aminoacetic acid	Solvent: Molality, mol/kg of xylitol	Viscosity, Pa*s	uncertainty
293.15	0	0.2	0.001079	1.3e-05
293.15	0.1001	0.2	0.00109	1.3e-05
293.15	0.2	0.2	0.001101	1.3e-05
293.15	0.3	0.2	0.001114	1.4e-05
293.15	0.4	0.2	0.001128	1.4e-05
293.15	0.5	0.2	0.001142	1.4e-05
293.15	0.6001	0.2	0.001158	1.4e-05
293.15	0.7	0.2	0.001174	1.4e-05
303.15	0	0.2	0.000855	1e-05
303.15	0.1001	0.2	0.000864	1.1e-05
303.15	0.2	0.2	0.000873	1.1e-05
303.15	0.3	0.2	0.000884	1.1e-05
303.15	0.4	0.2	0.000894	1.1e-05
303.15	0.5	0.2	0.000906	1.1e-05
303.15	0.6001	0.2	0.000919	1.1e-05
303.15	0.7	0.2	0.000932	1.2e-05
313.15	0	0.2	0.000697	8e-06
313.15	0.1001	0.2	0.000705	9e-06
313.15	0.2	0.2	0.000712	9e-06
313.15	0.3	0.2	0.000721	9e-06
313.15	0.4	0.2	0.000731	9e-06
313.15	0.5	0.2	0.00074	9e-06
313.15	0.6001	0.2	0.000751	9e-06
313.15	0.7	0.2	0.000762	1e-05
323.15	0	0.2	0.000582	7e-06
323.15	0.1001	0.2	0.000589	7e-06
323.15	0.2	0.2	0.000596	7e-06
323.15	0.3	0.2	0.000603	7e-06
323.15	0.4	0.2	0.000611	8e-06
323.15	0.5	0.2	0.000619	8e-06
323.15	0.6001	0.2	0.000627	8e-06
323.15	0.7	0.2	0.000637	8e-06
293.15	0	0.4	0.001161	1.4e-05
293.15	0.1	0.4	0.001173	1.4e-05
293.15	0.2	0.4	0.001186	30874287000
293.15	0.3	0.4	0.0012	27344854000
293.15	0.4	0.4	0.001215	32105740000
293.15	0.5	0.4	0.001232	1.5e-05
293.15	0.6	0.4	0.001249	1.6e-05
293.15	0.7	0.4	0.001266	2.1e-05
303.15	0	0.4	0.000916	1.1e-05
303.15	0.1	0.4	0.000926	1.1e-05
303.15	0.2	0.4	0.000937	1.2e-05
303.15	0.3	0.4	0.000949	1.2e-05
303.15	0.4	0.4	0.000961	1.2e-05
303.15	0.5	0.4	0.000974	1.2e-05
303.15	0.6	0.4	0.000988	1.2e-05
303.15	0.7	0.4	0.001001	1.3e-05
313.15	0	0.4	0.000744	9e-06
313.15	0.1	0.4	0.000752	9e-06
313.15	0.2	0.4	0.000762	9e-06
313.15	0.3	0.4	0.000772	1e-05
313.15	0.4	0.4	0.000782	1e-05
313.15	0.5	0.4	0.000792	1e-05
313.15	0.6	0.4	0.000804	1e-05
313.15	0.7	0.4	0.000815	1.1e-05
323.15	0	0.4	0.000617	8e-06
323.15	0.1	0.4	0.000625	8e-06
323.15	0.2	0.4	0.000632	18911600000
323.15	0.3	0.4	0.00064	2539871900
323.15	0.4	0.4	0.000649	9235897700
323.15	0.5	0.4	0.000657	8e-06
323.15	0.6	0.4	0.000667	8e-06
323.15	0.7	0.4	0.000677	9e-06
293.15	0	0.6	0.00125	1.6e-05
293.15	0.1	0.6	0.001265	1.6e-05
293.15	0.2	0.6	0.00128	19153493000
293.15	0.3	0.6	0.001295	8691639400
293.15	0.4	0.6	0.001313	44926045000
293.15	0.5	0.6	0.00133	1.7e-05
293.15	0.6	0.6	0.00135	1.7e-05
293.15	0.7	0.6	0.001369	2e-05
303.15	0	0.6	0.000981	1.3e-05
303.15	0.1	0.6	0.000993	1.3e-05
303.15	0.2	0.6	0.001005	1.3e-05
303.15	0.3	0.6	0.001019	1.3e-05
303.15	0.4	0.6	0.001031	1.3e-05
303.15	0.5	0.6	0.001045	1.3e-05
303.15	0.6	0.6	0.00106	1.4e-05
303.15	0.7	0.6	0.001076	1.5e-05
313.15	0	0.6	0.000794	1e-05
313.15	0.1	0.6	0.000804	1e-05
313.15	0.2	0.6	0.000814	1e-05
313.15	0.3	0.6	0.000825	1.1e-05
313.15	0.4	0.6	0.000837	1.1e-05
313.15	0.5	0.6	0.000849	1.1e-05
313.15	0.6	0.6	0.00086	1.1e-05
313.15	0.7	0.6	0.000872	1.2e-05
323.15	0	0.6	0.000657	8e-06
323.15	0.1	0.6	0.000665	8e-06
323.15	0.2	0.6	0.000674	8785097900
323.15	0.3	0.6	0.000683	6844459900
323.15	0.4	0.6	0.000693	2188028100
323.15	0.5	0.6	0.000702	9e-06
323.15	0.6	0.6	0.000712	9e-06
323.15	0.7	0.6	0.000722	1.3e-05
293.15	0	0.8	0.001348	1.8e-05
293.15	0.1001	0.8	0.001361	0.001194
293.15	0.2	0.8	0.001376	0.004907
293.15	0.3	0.8	0.001394	17944030000
293.15	0.4	0.8	0.001413	1.9e-05
293.15	0.5	0.8	0.001432	1.9e-05
293.15	0.6	0.8	0.001454	2e-05
293.15	0.7	0.8	0.001477	2e-05
303.15	0	0.8	0.001059	1.4e-05
303.15	0.1001	0.8	0.001071	1.4e-05
303.15	0.2	0.8	0.001082	1.4e-05
303.15	0.3	0.8	0.001097	1.5e-05
303.15	0.4	0.8	0.001112	1.5e-05
303.15	0.5	0.8	0.001128	1.5e-05
303.15	0.6	0.8	0.001145	1.6e-05
303.15	0.7	0.8	0.001161	1.6e-05
313.15	0	0.8	0.000851	1.1e-05
313.15	0.1001	0.8	0.000861	1.1e-05
313.15	0.2	0.8	0.000871	1.1e-05
313.15	0.3	0.8	0.000882	1.2e-05
313.15	0.4	0.8	0.000894	1.2e-05
313.15	0.5	0.8	0.000906	1.2e-05
313.15	0.6	0.8	0.00092	1.2e-05
313.15	0.7	0.8	0.000934	1.3e-05
323.15	0	0.8	0.000701	9e-06
323.15	0.1001	0.8	0.000709	0.001324
323.15	0.2	0.8	0.000718	0.000794
323.15	0.3	0.8	0.000728	10761470000
323.15	0.4	0.8	0.000738	8444249300
323.15	0.5	0.8	0.000748	1e-05
323.15	0.6	0.8	0.000759	1e-05
323.15	0.7	0.8	0.00077	1e-05
293.15	0	1	0.001443	2e-05
293.15	0.1	1	0.00146	2e-05
293.15	0.2	1	0.001479	2e-05
293.15	0.3	1	0.0015	2.1e-05
293.15	0.4	1	0.001524	2.2e-05
293.15	0.5	1	0.001548	2.2e-05
293.15	0.6	1	0.001577	2.3e-05
293.15	0.7	1	0.001605	2.3e-05
303.15	0	1	0.001128	1.7e-05
303.15	0.1	1	0.001142	1.6e-05
303.15	0.2	1	0.001158	1.7e-05
303.15	0.3	1	0.001175	1.7e-05
303.15	0.4	1	0.001194	1.8e-05
303.15	0.5	1	0.001213	1.8e-05
303.15	0.6	1	0.001234	1.9e-05
303.15	0.7	1	0.001256	2.1e-05
313.15	0	1	0.000904	1.3e-05
313.15	0.1	1	0.000916	1.3e-05
313.15	0.2	1	0.00093	1.3e-05
313.15	0.3	1	0.000944	1.4e-05
313.15	0.4	1	0.000959	1.4e-05
313.15	0.5	1	0.000974	1.4e-05
313.15	0.6	1	0.000991	1.5e-05
313.15	0.7	1	0.001008	1.6e-05
323.15	0	1	0.000741	1e-05
323.15	0.1	1	0.000753	1e-05
323.15	0.2	1	0.000762	1e-05
323.15	0.3	1	0.000774	1e-05
323.15	0.4	1	0.000787	1.1e-05
323.15	0.5	1	0.000799	1.1e-05
323.15	0.6	1	0.000813	1.1e-05
323.15	0.7	1	0.000827	1.2e-05

System: (S)-2-aminopropanoic acid + xylitol + water; phases: Liquid
Fixed: Pressure, kPa = 101.3
Property: Mass density, kg/m3 (Liquid); method: Vibrating tube method
Temperature, K	Molality, mol/kg of (S)-2-aminopropanoic acid	Solvent: Molality, mol/kg of xylitol	Mass density, kg/m3	uncertainty
293.15	0	0.2	1008.15	0.31
293.15	0.1	0.2	1010.98	0.31
293.15	0.2	0.2	1013.76	0.38
293.15	0.3	0.2	1016.49	0.33
293.15	0.4	0.2	1019.17	0.59
293.15	0.5	0.2	1021.79	0.4
293.15	0.6	0.2	1024.38	0.43
293.15	0.7	0.2	1026.91	0.47
303.15	0	0.2	1005.42	0.31
303.15	0.1	0.2	1008.21	0.31
303.15	0.2	0.2	1010.96	0.32
303.15	0.3	0.2	1013.65	0.34
303.15	0.4	0.2	1016.29	0.37
303.15	0.5	0.2	1018.87	0.4
303.15	0.6	0.2	1021.42	0.43
303.15	0.7	0.2	1023.92	0.44
313.15	0	0.2	1001.85	0.31
313.15	0.1	0.2	1004.61	0.31
313.15	0.2	0.2	1007.33	0.32
313.15	0.3	0.2	1009.99	0.34
313.15	0.4	0.2	1012.61	0.37
313.15	0.5	0.2	1015.18	0.4
313.15	0.6	0.2	1017.71	0.43
313.15	0.7	0.2	1020.21	0.44
323.15	0	0.2	997.56	0.3
323.15	0.1	0.2	1000.28	0.3
323.15	0.2	0.2	1002.96	0.32
323.15	0.3	0.2	1005.6	0.3
323.15	0.4	0.2	1008.21	0.36
323.15	0.5	0.2	1010.76	0.39
323.15	0.6	0.2	1013.29	0.42
323.15	0.7	0.2	1015.77	0.46
293.15	0	0.4	1017.64	0.45
293.15	0.1	0.4	1020.42	0.45
293.15	0.2	0.4	1023.14	5371114300000000
293.15	0.3	0.4	1025.82	160803580000000
293.15	0.4	0.4	1028.44	2045091600000000
293.15	0.5	0.4	1031.04	0.51
293.15	0.6	0.4	1033.56	0.53
293.15	0.7	0.4	1036.06	3.77
303.15	0	0.4	1014.74	0.44
303.15	0.1	0.4	1017.47	0.44
303.15	0.2	0.4	1020.15	0.45
303.15	0.3	0.4	1022.8	0.46
303.15	0.4	0.4	1025.39	0.48
303.15	0.5	0.4	1027.94	0.5
303.15	0.6	0.4	1030.45	0.52
303.15	0.7	0.4	1032.93	0.53
313.15	0	0.4	1011.07	0.43
313.15	0.1	0.4	1013.76	0.43
313.15	0.2	0.4	1016.41	0.44
313.15	0.3	0.4	1019.02	0.46
313.15	0.4	0.4	1021.58	0.47
313.15	0.5	0.4	1024.11	0.5
313.15	0.6	0.4	1026.6	0.52
313.15	0.7	0.4	1029.03	0.53
323.15	0	0.4	1006.6	0.49
323.15	0.1	0.4	1009.27	0.43
323.15	0.2	0.4	1011.9	4859841400000000
323.15	0.3	0.4	1014.49	1696683900000000
323.15	0.4	0.4	1017.05	1962628300000000
323.15	0.5	0.4	1019.57	0.49
323.15	0.6	0.4	1022.06	0.52
323.15	0.7	0.4	1024.52	1.27
293.15	0	0.6	1026.71	0.59
293.15	0.1	0.6	1029.45	0.59
293.15	0.2	0.6	1032.13	0.59
293.15	0.3	0.6	1034.76	316453190000000
293.15	0.4	0.6	1037.35	2387314600000000
293.15	0.5	0.6	1039.87	0.63
293.15	0.6	0.6	1042.34	0.64
293.15	0.7	0.6	1044.77	1.23
303.15	0	0.6	1023.67	0.58
303.15	0.1	0.6	1026.36	0.58
303.15	0.2	0.6	1029	0.58
303.15	0.3	0.6	1031.59	0.59
303.15	0.4	0.6	1034.14	0.6
303.15	0.5	0.6	1036.63	0.62
303.15	0.6	0.6	1039.08	0.64
303.15	0.7	0.6	1041.47	0.64
313.15	0	0.6	1019.85	0.57
313.15	0.1	0.6	1022.51	0.57
313.15	0.2	0.6	1025.12	0.58
313.15	0.3	0.6	1027.68	0.59
313.15	0.4	0.6	1030.21	0.6
313.15	0.5	0.6	1032.7	0.61
313.15	0.6	0.6	1035.13	0.63
313.15	0.7	0.6	1037.52	0.63
323.15	0	0.6	1015.35	0.57
323.15	0.1	0.6	1017.98	0.57
323.15	0.2	0.6	1020.57	0.57
323.15	0.3	0.6	1023.12	1399815700000000
323.15	0.4	0.6	1025.63	944205610000000
323.15	0.5	0.6	1028.11	0.61
323.15	0.6	0.6	1030.55	0.63
323.15	0.7	0.6	1032.93	0.79
293.15	0	0.8	1035.41	0.73
293.15	0.1	0.8	1038.1	194.74
293.15	0.2001	0.8	1040.74	363.38
293.15	0.3	0.8	1043.32	636.29
293.15	0.4	0.8	1045.84	2111062300000000
293.15	0.5	0.8	1048.32	0.75
293.15	0.6	0.8	1050.73	0.76
293.15	0.7	0.8	1053.1	2
303.15	0	0.8	1032.22	0.71
303.15	0.1	0.8	1034.87	0.71
303.15	0.2001	0.8	1037.47	0.71
303.15	0.3	0.8	1040.01	0.72
303.15	0.4	0.8	1042.5	0.73
303.15	0.5	0.8	1044.95	0.74
303.15	0.6	0.8	1047.35	0.75
303.15	0.7	0.8	1049.7	0.76
313.15	0	0.8	1028.28	0.71
313.15	0.1	0.8	1030.89	0.7
313.15	0.2001	0.8	1033.46	0.71
313.15	0.3	0.8	1035.98	0.71
313.15	0.4	0.8	1038.45	0.72
313.15	0.5	0.8	1040.88	0.73
313.15	0.6	0.8	1043.28	0.74
313.15	0.7	0.8	1045.61	0.75
323.15	0	0.8	1023.7	0.7
323.15	0.1	0.8	1026.29	238.61
323.15	0.2001	0.8	1028.84	31.24
323.15	0.3	0.8	1031.34	142.48
323.15	0.4	0.8	1033.81	2111062300000000
323.15	0.5	0.8	1036.24	0.72
323.15	0.6	0.8	1038.62	0.74
323.15	0.7	0.8	1040.96	0.71
293.15	0	1	1043.78	0.87
293.15	0.1	1	1046.42	0.87
293.15	0.2	1	1049.01	0.87
293.15	0.3	1	1051.54	0.88
293.15	0.4	1	1054.03	0.96
293.15	0.5	1	1056.46	0.89
293.15	0.6	1	1058.85	0.9
293.15	0.7	1	1061.19	0.91
303.15	0	1	1040.41	0.84
303.15	0.1	1	1043.01	0.84
303.15	0.2	1	1045.56	0.84
303.15	0.3	1	1048.06	0.84
303.15	0.4	1	1050.52	0.85
303.15	0.5	1	1052.93	0.86
303.15	0.6	1	1055.3	0.87
303.15	0.7	1	1057.61	0.87
313.15	0	1	1036.38	0.83
313.15	0.1	1	1038.94	0.83
313.15	0.2	1	1041.47	0.83
313.15	0.3	1	1043.95	0.84
313.15	0.4	1	1046.39	0.84
313.15	0.5	1	1048.78	0.85
313.15	0.6	1	1051.13	0.86
313.15	0.7	1	1053.45	0.86
323.15	0	1	1031.65	0.83
323.15	0.1	1	1034.19	0.83
323.15	0.2	1	1036.7	0.83
323.15	0.3	1	1039.17	0.82
323.15	0.4	1	1041.6	0.82
323.15	0.5	1	1044	0.85
323.15	0.6	1	1046.36	0.86
323.15	0.7	1	1048.69	0.88

System: (S)-2-aminopropanoic acid + xylitol + water; phases: Liquid
Fixed: Pressure, kPa = 101.3
Property: Viscosity, Pa*s (Liquid); method: Capillary tube (Ostwald; Ubbelohde) method
Temperature, K	Molality, mol/kg of (S)-2-aminopropanoic acid	Solvent: Molality, mol/kg of xylitol	Viscosity, Pa*s	uncertainty
293.15	0	0.2	0.001079	1.3e-05
293.15	0.1	0.2	0.001099	1.4e-05
293.15	0.2	0.2	0.001123	1.4e-05
293.15	0.3	0.2	0.001149	1.4e-05
293.15	0.4	0.2	0.001179	1.5e-05
293.15	0.5	0.2	0.001209	1.5e-05
293.15	0.6	0.2	0.001242	1.6e-05
293.15	0.7	0.2	0.001273	1.6e-05
303.15	0	0.2	0.000855	1.1e-05
303.15	0.1	0.2	0.000871	1.1e-05
303.15	0.2	0.2	0.000889	1.1e-05
303.15	0.3	0.2	0.000909	1.1e-05
303.15	0.4	0.2	0.000931	1.2e-05
303.15	0.5	0.2	0.000953	1.2e-05
303.15	0.6	0.2	0.000978	1.2e-05
303.15	0.7	0.2	0.001004	1.4e-05
313.15	0	0.2	0.000697	9e-06
313.15	0.1	0.2	0.000709	9e-06
313.15	0.2	0.2	0.000723	9e-06
313.15	0.3	0.2	0.000738	9e-06
313.15	0.4	0.2	0.000755	9e-06
313.15	0.5	0.2	0.000773	1e-05
313.15	0.6	0.2	0.000792	1e-05
313.15	0.7	0.2	0.00081	1.1e-05
323.15	0	0.2	0.000582	7e-06
323.15	0.1	0.2	0.000591	7e-06
323.15	0.2	0.2	0.000602	8e-06
323.15	0.3	0.2	0.000614	8e-06
323.15	0.4	0.2	0.000627	8e-06
323.15	0.5	0.2	0.000641	8e-06
323.15	0.6	0.2	0.000656	8e-06
323.15	0.7	0.2	0.00067	9e-06
293.15	0	0.4	0.001161	1.5e-05
293.15	0.1	0.4	0.001184	1.5e-05
293.15	0.2	0.4	0.001212	35580196000
293.15	0.3	0.4	0.001242	5409597200
293.15	0.4	0.4	0.001273	44816094000
293.15	0.5	0.4	0.001308	1.7e-05
293.15	0.6	0.4	0.001342	1.7e-05
293.15	0.7	0.4	0.001381	2.8e-05
303.15	0	0.4	0.000916	1.2e-05
303.15	0.1	0.4	0.000935	1.2e-05
303.15	0.2	0.4	0.000954	1.2e-05
303.15	0.3	0.4	0.000976	1.2e-05
303.15	0.4	0.4	0.001	1.3e-05
303.15	0.5	0.4	0.001026	1.3e-05
303.15	0.6	0.4	0.001054	1.4e-05
303.15	0.7	0.4	0.001082	1.5e-05
313.15	0	0.4	0.000744	9e-06
313.15	0.1	0.4	0.000758	1e-05
313.15	0.2	0.4	0.000773	1e-05
313.15	0.3	0.4	0.00079	1e-05
313.15	0.4	0.4	0.000808	1e-05
313.15	0.5	0.4	0.000828	1.1e-05
313.15	0.6	0.4	0.000848	1.1e-05
313.15	0.7	0.4	0.00087	1.2e-05
323.15	0	0.4	0.000617	8e-06
323.15	0.1	0.4	0.000628	8e-06
323.15	0.2	0.4	0.00064	15327192000
323.15	0.3	0.4	0.000654	11149048000
323.15	0.4	0.4	0.000669	1583296700
323.15	0.5	0.4	0.000683	9e-06
323.15	0.6	0.4	0.0007	9e-06
323.15	0.7	0.4	0.000717	9e-06
293.15	0	0.6	0.00125	1.6e-05
293.15	0.1	0.6	0.001278	1.7e-05
293.15	0.2	0.6	0.001309	1.7e-05
293.15	0.3	0.6	0.00134	263882790
293.15	0.4	0.6	0.001377	12160599000
293.15	0.5	0.6	0.001415	1.9e-05
293.15	0.6	0.6	0.001454	2e-05
293.15	0.7	0.6	0.001493	2e-05
303.15	0	0.6	0.000981	1.3e-05
303.15	0.1	0.6	0.001001	1.3e-05
303.15	0.2	0.6	0.001024	1.3e-05
303.15	0.3	0.6	0.001048	1.4e-05
303.15	0.4	0.6	0.001073	1.4e-05
303.15	0.5	0.6	0.001103	1.5e-05
303.15	0.6	0.6	0.001134	1.5e-05
303.15	0.7	0.6	0.001165	1.7e-05
313.15	0	0.6	0.000794	1e-05
313.15	0.1	0.6	0.000809	1.1e-05
313.15	0.2	0.6	0.000826	1.1e-05
313.15	0.3	0.6	0.000844	1.1e-05
313.15	0.4	0.6	0.000864	1.1e-05
313.15	0.5	0.6	0.000886	1.2e-05
313.15	0.6	0.6	0.000908	1.2e-05
313.15	0.7	0.6	0.000932	1.3e-05
323.15	0	0.6	0.000657	9e-06
323.15	0.1	0.6	0.000669	9e-06
323.15	0.2	0.6	0.000683	9e-06
323.15	0.3	0.6	0.000697	4601456200
323.15	0.4	0.6	0.000713	7938474000
323.15	0.5	0.6	0.000729	1e-05
323.15	0.6	0.6	0.000746	1e-05
323.15	0.7	0.6	0.000764	1.1e-05
293.15	0	0.8	0.001348	1.8e-05
293.15	0.1	0.8	0.001378	0.000145
293.15	0.2001	0.8	0.001413	0.002601
293.15	0.3	0.8	0.001448	0.00661
293.15	0.4	0.8	0.001489	2e-05
293.15	0.5	0.8	0.001529	2.1e-05
293.15	0.6	0.8	0.001573	2.2e-05
293.15	0.7	0.8	0.001617	2.5e-05
303.15	0	0.8	0.001059	1.4e-05
303.15	0.1	0.8	0.001081	1.5e-05
303.15	0.2001	0.8	0.001105	1.5e-05
303.15	0.3	0.8	0.001131	1.5e-05
303.15	0.4	0.8	0.001159	1.6e-05
303.15	0.5	0.8	0.00119	1.6e-05
303.15	0.6	0.8	0.001222	1.7e-05
303.15	0.7	0.8	0.001254	1.9e-05
313.15	0	0.8	0.000851	1.1e-05
313.15	0.1	0.8	0.000868	1.2e-05
313.15	0.2001	0.8	0.000886	1.2e-05
313.15	0.3	0.8	0.000906	1.2e-05
313.15	0.4	0.8	0.000927	1.3e-05
313.15	0.5	0.8	0.00095	1.3e-05
313.15	0.6	0.8	0.000974	1.3e-05
313.15	0.7	0.8	0.000999	1.5e-05
323.15	0	0.8	0.000701	9e-06
323.15	0.1	0.8	0.000715	0.000919
323.15	0.2001	0.8	0.000729	0.000626
323.15	0.3	0.8	0.000745	0.008817
323.15	0.4	0.8	0.00076	11258999000
323.15	0.5	0.8	0.000778	1.1e-05
323.15	0.6	0.8	0.000796	1.1e-05
323.15	0.7	0.8	0.000815	1.1e-05
293.15	0	1	0.001443	2e-05
293.15	0.1	1	0.001478	2.1e-05
293.15	0.2	1	0.001517	2.1e-05
293.15	0.3	1	0.001559	2.2e-05
293.15	0.4	1	0.001603	2.4e-05
293.15	0.5	1	0.001649	2.4e-05
293.15	0.6	1	0.001697	2.5e-05
293.15	0.7	1	0.001749	2.6e-05
303.15	0	1	0.001128	1.7e-05
303.15	0.1	1	0.001154	1.7e-05
303.15	0.2	1	0.001181	1.7e-05
303.15	0.3	1	0.001212	1.8e-05
303.15	0.4	1	0.001242	1.9e-05
303.15	0.5	1	0.001277	1.9e-05
303.15	0.6	1	0.001313	2e-05
303.15	0.7	1	0.00135	2.4e-05
313.15	0	1	0.000904	1.3e-05
313.15	0.1	1	0.000922	1.3e-05
313.15	0.2	1	0.000943	1.4e-05
313.15	0.3	1	0.000965	1.4e-05
313.15	0.4	1	0.00099	1.5e-05
313.15	0.5	1	0.001016	1.5e-05
313.15	0.6	1	0.001042	1.6e-05
313.15	0.7	1	0.001069	1.8e-05
323.15	0	1	0.000741	1e-05
323.15	0.1	1	0.000755	1e-05
323.15	0.2	1	0.000772	1e-05
323.15	0.3	1	0.000789	1.1e-05
323.15	0.4	1	0.000808	1.1e-05
323.15	0.5	1	0.000827	1.2e-05
323.15	0.6	1	0.000848	1.2e-05
323.15	0.7	1	0.000869	1.2e-05

System: L-valine + xylitol + water; phases: Liquid
Fixed: Pressure, kPa = 101.3
Property: Mass density, kg/m3 (Liquid); method: Vibrating tube method
Temperature, K	Molality, mol/kg of L-valine	Solvent: Molality, mol/kg of xylitol	Mass density, kg/m3	uncertainty
293.15	0	0.2	1008.15	0.31
293.15	0.1	0.2	1010.77	0.31
293.15	0.2	0.2	1013.32	0.31
293.15	0.3	0.2	1015.82	0.3
293.15	0.4	0.2	1018.25	0.36
303.15	0	0.2	1005.42	0.31
303.15	0.1	0.2	1008	0.31
303.15	0.2	0.2	1010.52	0.32
303.15	0.3	0.2	1012.98	0.34
303.15	0.4	0.2	1015.39	0.35
313.15	0	0.2	1001.85	0.3
313.15	0.1	0.2	1004.39	0.31
313.15	0.2	0.2	1006.87	0.32
313.15	0.3	0.2	1009.3	0.33
313.15	0.4	0.2	1011.68	0.35
323.15	0	0.2	997.56	0.3
323.15	0.1	0.2	1000.05	0.3
323.15	0.2	0.2	1002.5	0.65
323.15	0.3	0.2	1004.89	0.57
323.15	0.4	0.2	1007.24	0.35
293.15	0	0.4	1017.64	0.45
293.15	0.1	0.4	1020.19	0.44
293.15	0.2	0.4	1022.68	324355930000000
293.15	0.3	0.4	1025.12	1898719100000000
293.15	0.4	0.4	1027.5	1.65
303.15	0	0.4	1014.74	0.44
303.15	0.1	0.4	1017.25	0.44
303.15	0.2	0.4	1019.7	0.44
303.15	0.3	0.4	1022.1	0.45
303.15	0.4	0.4	1024.44	0.46
313.15	0	0.4	1011.07	0.43
313.15	0.1	0.4	1013.54	0.43
313.15	0.2	0.4	1015.96	0.44
313.15	0.3	0.4	1018.32	0.45
313.15	0.4	0.4	1020.62	0.46
323.15	0	0.4	1006.6	0.43
323.15	0.1	0.4	1009.02	0.43
323.15	0.2	0.4	1011.4	4763634100000000
323.15	0.3	0.4	1013.72	482410730000000
323.15	0.4	0.4	1016	1.28
293.15	0	0.6	1026.71	0.59
293.15	0.1	0.6	1029.18	0.58
293.15	0.2	0.6	1031.59	288621800000000
293.15	0.3	0.6	1033.94	324699530000000
293.15	0.4	0.6	1036.24	0.75
303.15	0	0.6	1023.67	0.58
303.15	0.1	0.6	1026.1	0.58
303.15	0.2	0.6	1028.46	0.58
303.15	0.3	0.6	1030.77	0.58
303.15	0.4	0.6	1033.02	0.59
313.15	0	0.6	1019.85	0.57
313.15	0.1	0.6	1022.24	0.57
313.15	0.2	0.6	1024.57	0.57
313.15	0.3	0.6	1026.85	0.57
313.15	0.4	0.6	1029.08	0.58
323.15	0	0.6	1015.35	0.57
323.15	0.1	0.6	1017.69	0.57
323.15	0.2	0.6	1019.97	261134010000000
323.15	0.3	0.6	1022.21	881327290000000
323.15	0.4	0.6	1024.4	1.02
293.15	0	0.8	1035.41	0.73
293.15	0.1	0.8	1037.81	0.72
293.15	0.2	0.8	1040.15	206158430000000
293.15	0.3	0.8	1042.42	1922427400000000
293.15	0.4	0.8	1044.63	0.73
303.15	0	0.8	1032.22	0.71
303.15	0.1	0.8	1034.57	0.71
303.15	0.2	0.8	1036.87	0.71
303.15	0.3	0.8	1039.1	0.71
303.15	0.4	0.8	1041.27	0.71
313.15	0	0.8	1028.28	0.71
313.15	0.1	0.8	1030.59	0.7
313.15	0.2	0.8	1032.84	0.7
313.15	0.3	0.8	1035.04	0.7
313.15	0.4	0.8	1037.18	0.7
323.15	0	0.8	1023.7	0.7
323.15	0.1	0.8	1025.96	0.69
323.15	0.2	0.8	1028.18	413691250000000
323.15	0.3	0.8	1030.35	187604170000000
323.15	0.4	0.8	1032.48	0.68
293.15	0	1	1043.78	0.87
293.15	0.1	1	1046.1	0.87
293.15	0.2	1	1048.36	0.91
293.15	0.3	1	1050.55	0.86
293.15	0.4	1	1052.68	0.86
303.15	0	1	1040.41	0.84
303.15	0.1	1	1042.69	0.84
303.15	0.2	1	1044.91	0.83
303.15	0.3	1	1047.07	0.83
303.15	0.4	1	1049.17	0.82
313.15	0	1	1036.38	0.83
313.15	0.1	1	1038.62	0.83
313.15	0.2	1	1040.8	0.82
313.15	0.3	1	1042.93	0.82
313.15	0.4	1	1044.99	0.81
323.15	0	1	1031.65	0.83
323.15	0.1	1	1033.85	0.83
323.15	0.2	1	1036	0.82
323.15	0.3	1	1038.1	0.81
323.15	0.4	1	1040.16	0.82

System: L-valine + xylitol + water; phases: Liquid
Fixed: Pressure, kPa = 101.3
Property: Viscosity, Pa*s (Liquid); method: Capillary tube (Ostwald; Ubbelohde) method
Temperature, K	Molality, mol/kg of L-valine	Solvent: Molality, mol/kg of xylitol	Viscosity, Pa*s	uncertainty
293.15	0	0.2	0.001079	1.3e-05
293.15	0.1	0.2	0.001119	1.4e-05
293.15	0.2	0.2	0.001167	1.4e-05
293.15	0.3	0.2	0.001219	1.5e-05
293.15	0.4	0.2	0.001275	1.6e-05
303.15	0	0.2	0.000855	1.1e-05
303.15	0.1	0.2	0.000885	1.1e-05
303.15	0.2	0.2	0.00092	1.1e-05
303.15	0.3	0.2	0.000958	1.2e-05
303.15	0.4	0.2	0.000997	1.3e-05
313.15	0	0.2	0.000697	9e-06
313.15	0.1	0.2	0.00072	9e-06
313.15	0.2	0.2	0.000747	9e-06
313.15	0.3	0.2	0.000775	1e-05
313.15	0.4	0.2	0.000805	1.1e-05
323.15	0	0.2	0.000582	7e-06
323.15	0.1	0.2	0.0006	8e-06
323.15	0.2	0.2	0.00062	8e-06
323.15	0.3	0.2	0.000641	8e-06
323.15	0.4	0.2	0.000664	9e-06
293.15	0	0.4	0.001161	1.5e-05
293.15	0.1	0.4	0.001208	1.5e-05
293.15	0.2	0.4	0.001261	41649500000
293.15	0.3	0.4	0.001317	19263444000
293.15	0.4	0.4	0.001378	1.8e-05
303.15	0	0.4	0.000916	1.2e-05
303.15	0.1	0.4	0.00095	1.2e-05
303.15	0.2	0.4	0.000989	1.3e-05
303.15	0.3	0.4	0.00103	1.3e-05
303.15	0.4	0.4	0.001074	1.4e-05
313.15	0	0.4	0.000744	9e-06
313.15	0.1	0.4	0.00077	1e-05
313.15	0.2	0.4	0.0008	1e-05
313.15	0.3	0.4	0.000831	1.1e-05
313.15	0.4	0.4	0.000863	1.1e-05
323.15	0	0.4	0.000617	8e-06
323.15	0.1	0.4	0.000637	8e-06
323.15	0.2	0.4	0.00066	22298096000
323.15	0.3	0.4	0.000684	4057197900
323.15	0.4	0.4	0.000708	1.1e-05
293.15	0	0.6	0.00125	1.6e-05
293.15	0.1	0.6	0.001301	1.7e-05
293.15	0.2	0.6	0.001362	1803199100
293.15	0.3	0.6	0.001426	21226072000
293.15	0.4	0.6	0.001491	2.5e-05
303.15	0	0.6	0.000981	1.3e-05
303.15	0.1	0.6	0.001019	1.3e-05
303.15	0.2	0.6	0.001063	1.4e-05
303.15	0.3	0.6	0.001109	1.5e-05
303.15	0.4	0.6	0.001157	1.8e-05
313.15	0	0.6	0.000794	1e-05
313.15	0.1	0.6	0.000823	1.1e-05
313.15	0.2	0.6	0.000856	1.1e-05
313.15	0.3	0.6	0.00089	1.2e-05
313.15	0.4	0.6	0.000924	1.4e-05
323.15	0	0.6	0.000657	9e-06
323.15	0.1	0.6	0.00068	9e-06
323.15	0.2	0.6	0.000703	10357400000
323.15	0.3	0.6	0.000729	15915431000
323.15	0.4	0.6	0.000756	1e-05
293.15	0	0.8	0.001348	1.8e-05
293.15	0.1	0.8	0.001415	1.9e-05
293.15	0.2	0.8	0.001503	15766997000
293.15	0.3	0.8	0.001614	16674094000
293.15	0.4	0.8	0.001732	2.7e-05
303.15	0	0.8	0.001059	1.4e-05
303.15	0.1	0.8	0.001107	1.5e-05
303.15	0.2	0.8	0.001171	1.6e-05
303.15	0.3	0.8	0.001248	1.7e-05
303.15	0.4	0.8	0.001332	1.9e-05
313.15	0	0.8	0.000851	1.1e-05
313.15	0.1	0.8	0.000889	1.2e-05
313.15	0.2	0.8	0.000935	1.3e-05
313.15	0.3	0.8	0.000995	1.4e-05
313.15	0.4	0.8	0.001058	1.5e-05
323.15	0	0.8	0.000701	9e-06
323.15	0.1	0.8	0.000729	1e-05
323.15	0.2	0.8	0.000764	1407374900
323.15	0.3	0.8	0.000807	12460216000
323.15	0.4	0.8	0.000853	1.2e-05
293.15	0	1	0.001443	2e-05
293.15	0.1	1	0.001512	2.1e-05
293.15	0.2	1	0.001586	2.1e-05
293.15	0.3	1	0.001665	2.1e-05
293.15	0.4	1	0.001746	2.2e-05
303.15	0	1	0.001128	1.7e-05
303.15	0.1	1	0.001176	1.7e-05
303.15	0.2	1	0.001228	1.7e-05
303.15	0.3	1	0.00128	1.7e-05
303.15	0.4	1	0.001338	1.9e-05
313.15	0	1	0.000904	1.3e-05
313.15	0.1	1	0.00094	1.3e-05
313.15	0.2	1	0.00098	1.3e-05
313.15	0.3	1	0.00102	1.3e-05
313.15	0.4	1	0.00106	1.4e-05
323.15	0	1	0.000741	1e-05
323.15	0.1	1	0.000769	1e-05
323.15	0.2	1	0.000798	1.1e-05
323.15	0.3	1	0.000828	1.1e-05
323.15	0.4	1	0.000859	1.1e-05

System: L-threonine + xylitol + water; phases: Liquid
Fixed: Pressure, kPa = 101.3
Property: Mass density, kg/m3 (Liquid); method: Vibrating tube method
Temperature, K	Molality, mol/kg of L-threonine	Solvent: Molality, mol/kg of xylitol	Mass density, kg/m3	uncertainty
293.15	0	0.2	1008.15	0.31
293.15	0.1	0.2	1012.33	0.32
293.15	0.2	0.2	1016.43	0.32
293.15	0.3	0.2	1020.44	0.66
293.15	0.4	0.2	1024.36	0.59
293.15	0.5	0.2	1028.2	0.49
293.15	0.6	0.2	1031.95	0.54
293.15	0.7	0.2	1035.61	0.6
303.15	0	0.2	1005.42	0.31
303.15	0.1	0.2	1009.55	0.32
303.15	0.2	0.2	1013.59	0.34
303.15	0.3	0.2	1017.54	0.38
303.15	0.4	0.2	1021.4	0.43
303.15	0.5	0.2	1025.2	0.48
303.15	0.6	0.2	1028.89	0.54
303.15	0.7	0.2	1032.51	0.56
313.15	0	0.2	1001.85	0.31
313.15	0.1	0.2	1005.93	0.31
313.15	0.2	0.2	1009.92	0.34
313.15	0.3	0.2	1013.84	0.38
313.15	0.4	0.2	1017.67	0.43
313.15	0.5	0.2	1021.43	0.48
313.15	0.6	0.2	1025.09	0.53
313.15	0.7	0.2	1028.68	0.56
323.15	0	0.2	997.56	0.3
323.15	0.1	0.2	1001.6	0.31
323.15	0.2	0.2	1005.55	0.65
323.15	0.3	0.2	1009.44	0.3
323.15	0.4	0.2	1013.25	0.73
323.15	0.5	0.2	1016.97	0.48
323.15	0.6	0.2	1020.63	0.53
323.15	0.7	0.2	1024.22	0.59
293.15	0	0.4	1017.64	0.45
293.15	0.1	0.4	1021.77	0.45
293.15	0.2	0.4	1025.8	5354621600000000
293.15	0.3	0.4	1029.76	876173330000000
293.15	0.4	0.4	1033.63	3446969000000000
293.15	0.5	0.4	1037.42	0.58
293.15	0.6	0.4	1041.13	0.62
293.15	0.7	0.4	1044.77	0.72
303.15	0	0.4	1014.74	0.44
303.15	0.1	0.4	1018.81	0.44
303.15	0.2	0.4	1022.79	0.46
303.15	0.3	0.4	1026.69	0.49
303.15	0.4	0.4	1030.52	0.53
303.15	0.5	0.4	1034.26	0.57
303.15	0.6	0.4	1037.93	0.61
303.15	0.7	0.4	1041.53	0.64
313.15	0	0.4	1011.07	0.43
313.15	0.1	0.4	1015.08	0.44
313.15	0.2	0.4	1019.02	0.46
313.15	0.3	0.4	1022.88	0.49
313.15	0.4	0.4	1026.67	0.52
313.15	0.5	0.4	1030.4	0.56
313.15	0.6	0.4	1034.04	0.61
313.15	0.7	0.4	1037.63	0.63
323.15	0	0.4	1006.6	0.49
323.15	0.1	0.4	1010.57	0.43
323.15	0.2	0.4	1014.47	3424978700000000
323.15	0.3	0.4	1018.3	2727476000000000
323.15	0.4	0.4	1022.06	544258260000000
323.15	0.5	0.4	1025.77	0.56
323.15	0.6	0.4	1029.41	0.6
323.15	0.7	0.4	1032.98	3.13
293.15	0	0.6	1026.71	0.59
293.15	0.1	0.6	1030.79	0.59
293.15	0.2	0.6	1034.77	975816570000000
293.15	0.3	0.6	1038.66	2431638700000000
293.15	0.4	0.6	1042.47	974442180000000
293.15	0.5	0.6	1046.18	0.68
293.15	0.6	0.6	1049.84	0.72
293.15	0.7	0.6	1053.38	1.25
303.15	0	0.6	1023.67	0.58
303.15	0.1	0.6	1027.69	0.58
303.15	0.2	0.6	1031.61	0.59
303.15	0.3	0.6	1035.44	0.61
303.15	0.4	0.6	1039.19	0.64
303.15	0.5	0.6	1042.85	0.67
303.15	0.6	0.6	1046.45	0.71
303.15	0.7	0.6	1049.96	0.73
313.15	0	0.6	1019.85	0.57
313.15	0.1	0.6	1023.82	0.57
313.15	0.2	0.6	1027.7	0.59
313.15	0.3	0.6	1031.5	0.61
313.15	0.4	0.6	1035.22	0.63
313.15	0.5	0.6	1038.86	0.66
313.15	0.6	0.6	1042.42	0.7
313.15	0.7	0.6	1045.9	0.73
323.15	0	0.6	1015.35	0.57
323.15	0.1	0.6	1019.27	0.57
323.15	0.2	0.6	1023.12	1830686900000000
323.15	0.3	0.6	1026.89	875142540000000
323.15	0.4	0.6	1030.59	1641021100000000
323.15	0.5	0.6	1034.22	0.66
323.15	0.6	0.6	1037.77	0.7
323.15	0.7	0.6	1041.25	0.57
293.15	0	0.8	1035.41	0.73
293.15	0.1	0.8	1039.42	0.73
293.15	0.2	0.8	1043.34	196537700000000
293.15	0.3	0.8	1047.18	2465654800000000
293.15	0.4	0.8	1050.94	0.71
293.15	0.5	0.8	1054.62	0.79
293.15	0.6	0.8	1058.23	0.82
293.15	0.7	0.8	1061.77	0.8
303.15	0	0.8	1032.22	0.71
303.15	0.1	0.8	1036.17	0.71
303.15	0.2	0.8	1040.04	0.72
303.15	0.3	0.8	1043.83	0.74
303.15	0.4	0.8	1047.54	0.76
303.15	0.5	0.8	1051.18	0.79
303.15	0.6	0.8	1054.76	0.82
303.15	0.7	0.8	1058.26	0.83
313.15	0	0.8	1028.28	0.71
313.15	0.1	0.8	1032.18	0.71
313.15	0.2	0.8	1036	0.71
313.15	0.3	0.8	1039.76	0.73
313.15	0.4	0.8	1043.43	0.75
313.15	0.5	0.8	1047.05	0.78
313.15	0.6	0.8	1050.6	0.81
313.15	0.7	0.8	1054.09	0.83
323.15	0	0.8	1023.7	0.7
323.15	0.1	0.8	1027.56	0.7
323.15	0.2	0.8	1031.34	1702868600000000
323.15	0.3	0.8	1035.07	2312066800000000
323.15	0.4	0.8	1038.72	0.69
323.15	0.5	0.8	1042.31	0.77
323.15	0.6	0.8	1045.85	0.8
323.15	0.7	0.8	1049.31	0.87
293.15	0	1	1043.78	0.87
293.15	0.1	1	1047.71	0.87
293.15	0.2	1	1051.57	0.87
293.15	0.3	1	1055.34	0.86
293.15	0.4	1	1059.04	0.87
293.15	0.5	1	1062.66	0.91
293.15	0.6	1	1066.21	0.94
293.15	0.7	1	1069.69	0.97
303.15	0	1	1040.41	0.84
303.15	0.1	1	1044.29	0.84
303.15	0.2	1	1048.1	0.84
303.15	0.3	1	1051.84	0.86
303.15	0.4	1	1055.51	0.87
303.15	0.5	1	1059.11	0.89
303.15	0.6	1	1062.64	0.92
303.15	0.7	1	1066.12	0.92
313.15	0	1	1036.38	0.83
313.15	0.1	1	1040.22	0.83
313.15	0.2	1	1043.98	0.84
313.15	0.3	1	1047.68	0.85
313.15	0.4	1	1051.31	0.86
313.15	0.5	1	1054.88	0.88
313.15	0.6	1	1058.39	0.91
313.15	0.7	1	1061.84	0.92
323.15	0	1	1031.65	0.83
323.15	0.1	1	1035.44	0.83
323.15	0.2	1	1039.17	0.84
323.15	0.3	1	1042.84	0.83
323.15	0.4	1	1046.44	0.9
323.15	0.5	1	1049.99	0.88
323.15	0.6	1	1053.47	0.9
323.15	0.7	1	1056.9	0.93

System: L-threonine + xylitol + water; phases: Liquid
Fixed: Pressure, kPa = 101.3
Property: Viscosity, Pa*s (Liquid); method: Capillary tube (Ostwald; Ubbelohde) method
Temperature, K	Molality, mol/kg of L-threonine	Solvent: Molality, mol/kg of xylitol	Viscosity, Pa*s	uncertainty
293.15	0	0.2	0.001079	1.3e-05
293.15	0.1	0.2	0.001116	1.4e-05
293.15	0.2	0.2	0.001154	1.5e-05
293.15	0.3	0.2	0.001194	1.5e-05
293.15	0.4	0.2	0.001236	1.5e-05
293.15	0.5	0.2	0.001279	1.6e-05
293.15	0.6	0.2	0.001325	1.7e-05
293.15	0.7	0.2	0.001371	1.8e-05
303.15	0	0.2	0.000855	1.1e-05
303.15	0.1	0.2	0.000883	1.1e-05
303.15	0.2	0.2	0.000911	1.1e-05
303.15	0.3	0.2	0.000942	1.2e-05
303.15	0.4	0.2	0.000972	1.2e-05
303.15	0.5	0.2	0.001005	1.3e-05
303.15	0.6	0.2	0.001038	1.3e-05
303.15	0.7	0.2	0.001073	1.6e-05
313.15	0	0.2	0.000697	9e-06
313.15	0.1	0.2	0.000719	9e-06
313.15	0.2	0.2	0.000741	9e-06
313.15	0.3	0.2	0.000764	1e-05
313.15	0.4	0.2	0.000787	1e-05
313.15	0.5	0.2	0.000812	1e-05
313.15	0.6	0.2	0.000838	1.1e-05
313.15	0.7	0.2	0.000864	1.2e-05
323.15	0	0.2	0.000582	7e-06
323.15	0.1	0.2	0.000598	8e-06
323.15	0.2	0.2	0.000615	8e-06
323.15	0.3	0.2	0.000634	8e-06
323.15	0.4	0.2	0.000652	9e-06
323.15	0.5	0.2	0.000672	9e-06
323.15	0.6	0.2	0.000691	9e-06
323.15	0.7	0.2	0.000713	9e-06
293.15	0	0.4	0.001161	1.5e-05
293.15	0.1	0.4	0.001203	1.5e-05
293.15	0.2	0.4	0.001247	17108401000
293.15	0.3	0.4	0.001292	15865953000
293.15	0.4	0.4	0.001339	24101295000
293.15	0.5	0.4	0.001388	1.8e-05
293.15	0.6	0.4	0.001439	1.9e-05
293.15	0.7	0.4	0.001491	1.9e-05
303.15	0	0.4	0.000916	1.2e-05
303.15	0.1	0.4	0.000947	1.2e-05
303.15	0.2	0.4	0.000979	1.2e-05
303.15	0.3	0.4	0.001012	1.3e-05
303.15	0.4	0.4	0.001048	1.4e-05
303.15	0.5	0.4	0.001084	1.4e-05
303.15	0.6	0.4	0.001121	1.5e-05
303.15	0.7	0.4	0.001159	1.7e-05
313.15	0	0.4	0.000744	9e-06
313.15	0.1	0.4	0.000768	1e-05
313.15	0.2	0.4	0.000792	1e-05
313.15	0.3	0.4	0.000818	1e-05
313.15	0.4	0.4	0.000844	1.1e-05
313.15	0.5	0.4	0.000872	1.1e-05
313.15	0.6	0.4	0.0009	1.2e-05
313.15	0.7	0.4	0.000926	1.3e-05
323.15	0	0.4	0.000617	8e-06
323.15	0.1	0.4	0.000636	8e-06
323.15	0.2	0.4	0.00065	22298096000
323.15	0.3	0.4	0.000675	7949469100
323.15	0.4	0.4	0.000696	6641050200
323.15	0.5	0.4	0.000718	9e-06
323.15	0.6	0.4	0.000739	1e-05
323.15	0.7	0.4	0.000762	1.2e-05
293.15	0	0.6	0.00125	1.6e-05
293.15	0.1	0.6	0.001298	1.7e-05
293.15	0.2	0.6	0.001346	19131502000
293.15	0.3	0.6	0.001397	758663020
293.15	0.4	0.6	0.00145	12952247000
293.15	0.5	0.6	0.001505	2e-05
293.15	0.6	0.6	0.001562	2.2e-05
293.15	0.7	0.6	0.001619	2.2e-05
303.15	0	0.6	0.000981	1.3e-05
303.15	0.1	0.6	0.001017	1.3e-05
303.15	0.2	0.6	0.001052	1.4e-05
303.15	0.3	0.6	0.00109	1.4e-05
303.15	0.4	0.6	0.001128	1.5e-05
303.15	0.5	0.6	0.001168	1.6e-05
303.15	0.6	0.6	0.00121	1.7e-05
303.15	0.7	0.6	0.001252	1.9e-05
313.15	0	0.6	0.000794	1e-05
313.15	0.1	0.6	0.00082	1.1e-05
313.15	0.2	0.6	0.000848	1.1e-05
313.15	0.3	0.6	0.000878	1.2e-05
313.15	0.4	0.6	0.000906	1.2e-05
313.15	0.5	0.6	0.000936	1.3e-05
313.15	0.6	0.6	0.000966	1.3e-05
313.15	0.7	0.6	0.000998	1.5e-05
323.15	0	0.6	0.000657	9e-06
323.15	0.1	0.6	0.000677	9e-06
323.15	0.2	0.6	0.000698	9125946500
323.15	0.3	0.6	0.00072	6498113700
323.15	0.4	0.6	0.000743	120946280
323.15	0.5	0.6	0.000766	1e-05
323.15	0.6	0.6	0.000791	1.1e-05
323.15	0.7	0.6	0.000815	1.1e-05
293.15	0	0.8	0.001348	1.8e-05
293.15	0.1	0.8	0.001406	1.9e-05
293.15	0.2	0.8	0.001462	16888499000
293.15	0.3	0.8	0.00151	6976401300
293.15	0.4	0.8	0.001569	33776997000
293.15	0.5	0.8	0.001629	2.3e-05
293.15	0.6	0.8	0.001691	2.4e-05
293.15	0.7	0.8	0.001759	2.6e-05
303.15	0	0.8	0.001059	1.4e-05
303.15	0.1	0.8	0.001099	1.5e-05
303.15	0.2	0.8	0.001136	1.5e-05
303.15	0.3	0.8	0.001177	1.6e-05
303.15	0.4	0.8	0.001218	1.7e-05
303.15	0.5	0.8	0.001262	1.8e-05
303.15	0.6	0.8	0.001303	1.8e-05
303.15	0.7	0.8	0.001347	2.1e-05
313.15	0	0.8	0.000851	1.1e-05
313.15	0.1	0.8	0.000882	1.2e-05
313.15	0.2	0.8	0.000911	1.2e-05
313.15	0.3	0.8	0.000943	1.3e-05
313.15	0.4	0.8	0.000972	1.3e-05
313.15	0.5	0.8	0.001005	1.4e-05
313.15	0.6	0.8	0.001037	1.5e-05
313.15	0.7	0.8	0.001073	1.6e-05
323.15	0	0.8	0.000701	9e-06
323.15	0.1	0.8	0.000723	1e-05
323.15	0.2	0.8	0.000747	3386495800
323.15	0.3	0.8	0.000771	3801561500
323.15	0.4	0.8	0.000794	5629499500
323.15	0.5	0.8	0.000819	1.1e-05
323.15	0.6	0.8	0.000844	1.2e-05
323.15	0.7	0.8	0.000872	1.5e-05
293.15	0	1	0.001443	2e-05
293.15	0.1	1	0.001508	2.1e-05
293.15	0.2	1	0.001566	2.2e-05
293.15	0.3	1	0.00163	2.3e-05
293.15	0.4	1	0.001694	2.6e-05
293.15	0.5	1	0.001763	2.6e-05
293.15	0.6	1	0.00183	2.8e-05
293.15	0.7	1	0.001908	3e-05
303.15	0	1	0.001128	1.7e-05
303.15	0.1	1	0.001171	1.7e-05
303.15	0.2	1	0.001215	1.8e-05
303.15	0.3	1	0.001262	1.9e-05
303.15	0.4	1	0.001307	2e-05
303.15	0.5	1	0.001357	2.1e-05
303.15	0.6	1	0.001405	2.2e-05
303.15	0.7	1	0.001458	2.7e-05
313.15	0	1	0.000904	1.3e-05
313.15	0.1	1	0.000935	1.3e-05
313.15	0.2	1	0.000969	1.4e-05
313.15	0.3	1	0.001004	1.5e-05
313.15	0.4	1	0.001038	1.5e-05
313.15	0.5	1	0.001072	1.6e-05
313.15	0.6	1	0.001109	1.7e-05
313.15	0.7	1	0.001145	2e-05
323.15	0	1	0.000741	1e-05
323.15	0.1	1	0.000765	1e-05
323.15	0.2	1	0.00079	1.1e-05
323.15	0.3	1	0.000818	1.1e-05
323.15	0.4	1	0.000844	1.2e-05
323.15	0.5	1	0.000871	1.2e-05
323.15	0.6	1	0.000899	1.3e-05
323.15	0.7	1	0.000929	1.3e-05

System: L-arginine + xylitol + water; phases: Liquid
Fixed: Pressure, kPa = 101.3
Property: Mass density, kg/m3 (Liquid); method: Vibrating tube method
Temperature, K	Molality, mol/kg of L-arginine	Solvent: Molality, mol/kg of xylitol	Mass density, kg/m3	uncertainty
293.15	0	0.2	1008.15	0.31
293.15	0.1	0.2	1013.05	0.32
293.15	0.2	0.2	1017.8	0.39
293.15	0.3	0.2	1022.39	0.47
293.15	0.4	0.2	1026.84	0.6
293.15	0.5	0.2	1031.16	0.52
293.15	0.6	0.2	1035.34	0.58
293.15	0.7	0.2	1039.36	0.64
303.15	0	0.2	1005.42	0.31
303.15	0.1	0.2	1010.25	0.32
303.15	0.2	0.2	1014.92	0.36
303.15	0.3	0.2	1019.44	0.4
303.15	0.4	0.2	1023.82	0.46
303.15	0.5	0.2	1028.08	0.52
303.15	0.6	0.2	1032.19	0.57
303.15	0.7	0.2	1036.17	0.61
313.15	0	0.2	1001.85	0.31
313.15	0.1	0.2	1006.61	0.32
313.15	0.2	0.2	1011.23	0.35
313.15	0.3	0.2	1015.7	0.4
313.15	0.4	0.2	1020.04	0.46
313.15	0.5	0.2	1024.27	0.51
313.15	0.6	0.2	1028.35	0.57
313.15	0.7	0.2	1032.3	0.6
323.15	0	0.2	997.56	0.3
323.15	0.1	0.2	1002.26	0.31
323.15	0.2	0.2	1006.82	0.3
323.15	0.3	0.2	1011.25	0.57
323.15	0.4	0.2	1015.56	0.6
323.15	0.5	0.2	1019.77	0.51
323.15	0.6	0.2	1023.83	0.57
323.15	0.7	0.2	1027.79	0.63
293.15	0	0.4	1017.64	0.51
293.15	0.1	0.4	1022.43	0.45
293.15	0.2	0.4	1027.06	1003304400000000
293.15	0.3	0.4	1031.54	1325598700000000
293.15	0.4	0.4	1035.87	2223762300000000
293.15	0.5	0.4	1040.06	0.6
293.15	0.6	0.4	1044.14	0.64
293.15	0.7	0.4	1048.08	0.5
303.15	0	0.4	1014.74	0.44
303.15	0.1	0.4	1019.45	0.44
303.15	0.2	0.4	1024	0.47
303.15	0.3	0.4	1028.41	0.5
303.15	0.4	0.4	1032.69	0.54
303.15	0.5	0.4	1036.82	0.59
303.15	0.6	0.4	1040.83	0.63
303.15	0.7	0.4	1044.72	0.67
313.15	0	0.4	1011.07	0.44
313.15	0.1	0.4	1015.72	0.44
313.15	0.2	0.4	1020.22	0.46
313.15	0.3	0.4	1024.59	0.5
313.15	0.4	0.4	1028.81	0.54
313.15	0.5	0.4	1032.9	0.58
313.15	0.6	0.4	1036.9	0.63
313.15	0.7	0.4	1040.75	0.66
323.15	0	0.4	1006.6	0.49
323.15	0.1	0.4	1011.2	0.44
323.15	0.2	0.4	1015.67	500277790000000
323.15	0.3	0.4	1020	542196670000000
323.15	0.4	0.4	1024.22	2303476900000000
323.15	0.5	0.4	1028.32	0.58
323.15	0.6	0.4	1032.3	0.63
323.15	0.7	0.4	1036.15	2.85
293.15	0	0.6	1026.71	0.59
293.15	0.1	0.6	1031.41	0.59
293.15	0.2	0.6	1035.95	2414802400000000
293.15	0.3	0.6	1040.34	856588280000000
293.15	0.4	0.6	1044.59	1663011300000000
293.15	0.5	0.6	1048.7	0.69
293.15	0.6	0.6	1052.67	0.73
293.15	0.7	0.6	1056.53	0.58
303.15	0	0.6	1023.67	0.58
303.15	0.1	0.6	1028.28	0.58
303.15	0.2	0.6	1032.74	0.6
303.15	0.3	0.6	1037.06	0.62
303.15	0.4	0.6	1041.25	0.65
303.15	0.5	0.6	1045.32	0.69
303.15	0.6	0.6	1049.23	0.72
303.15	0.7	0.6	1053.04	0.75
313.15	0	0.6	1019.85	0.57
313.15	0.1	0.6	1024.4	0.57
313.15	0.2	0.6	1028.82	0.59
313.15	0.3	0.6	1033.1	0.61
313.15	0.4	0.6	1037.26	0.64
313.15	0.5	0.6	1041.3	0.68
313.15	0.6	0.6	1045.18	0.71
313.15	0.7	0.6	1048.96	0.74
323.15	0	0.6	1015.35	0.57
323.15	0.1	0.6	1019.86	0.57
323.15	0.2	0.6	1024.23	1859549000000000
323.15	0.3	0.6	1028.48	355623290000000
323.15	0.4	0.6	1032.6	2330964700000000
323.15	0.5	0.6	1036.6	0.67
323.15	0.6	0.6	1040.48	0.71
323.15	0.7	0.6	1044.27	0.54
293.15	0	0.8	1035.41	0.73
293.15	0.1	0.8	1040.02	0.73
293.15	0.2	0.8	1044.46	475538780000000
293.15	0.3	0.8	1048.76	1374045900000000
293.15	0.4	0.8	1052.91	703687440000000
293.15	0.5	0.8	1056.92	0.8
293.15	0.6	0.8	1060.79	0.83
293.15	0.7	0.8	1064.55	0.7
303.15	0	0.8	1032.22	0.72
303.15	0.1	0.8	1036.74	0.71
303.15	0.2	0.8	1041.12	0.72
303.15	0.3	0.8	1045.36	0.74
303.15	0.4	0.8	1049.45	0.76
303.15	0.5	0.8	1053.4	0.79
303.15	0.6	0.8	1057.23	0.82
303.15	0.7	0.8	1060.96	0.84
313.15	0	0.8	1028.28	0.71
313.15	0.1	0.8	1032.75	0.71
313.15	0.2	0.8	1037.07	0.71
313.15	0.3	0.8	1041.27	0.73
313.15	0.4	0.8	1045.33	0.75
313.15	0.5	0.8	1049.26	0.78
313.15	0.6	0.8	1053.07	0.81
313.15	0.7	0.8	1056.8	0.83
323.15	0	0.8	1023.7	0.7
323.15	0.1	0.8	1028.12	0.7
323.15	0.2	0.8	1032.41	974442180000000
323.15	0.3	0.8	1036.58	695784700000000
323.15	0.4	0.8	1040.61	0.68
323.15	0.5	0.8	1044.53	0.77
323.15	0.6	0.8	1048.33	0.8
323.15	0.7	0.8	1052.05	0.66
293.15	0	1	1043.78	0.87
293.15	0.1	1	1048.29	0.86
293.15	0.2	1	1052.64	0.87
293.15	0.3	1	1056.85	0.84
293.15	0.4	1	1060.91	0.92
293.15	0.5	1	1064.84	0.91
293.15	0.6	1	1068.63	0.94
293.15	0.7	1	1072.32	0.97
303.15	0	1	1040.41	0.84
303.15	0.1	1	1044.84	0.84
303.15	0.2	1	1049.13	0.84
303.15	0.3	1	1053.29	0.85
303.15	0.4	1	1057.3	0.87
303.15	0.5	1	1061.18	0.89
303.15	0.6	1	1064.93	0.92
303.15	0.7	1	1068.6	0.93
313.15	0	1	1036.38	0.83
313.15	0.1	1	1040.76	0.83
313.15	0.2	1	1045	0.83
313.15	0.3	1	1049.11	0.84
313.15	0.4	1	1053.08	0.86
313.15	0.5	1	1056.94	0.88
313.15	0.6	1	1060.68	0.91
313.15	0.7	1	1064.32	0.92
323.15	0	1	1031.65	0.83
323.15	0.1	1	1035.98	0.82
323.15	0.2	1	1040.19	0.82
323.15	0.3	1	1044.28	0.81
323.15	0.4	1	1048.24	0.87
323.15	0.5	1	1052.11	0.88
323.15	0.6	1	1055.83	0.91
323.15	0.7	1	1059.48	0.94

System: L-arginine + xylitol + water; phases: Liquid
Fixed: Pressure, kPa = 101.3
Property: Viscosity, Pa*s (Liquid); method: Capillary tube (Ostwald; Ubbelohde) method
Temperature, K	Molality, mol/kg of L-arginine	Solvent: Molality, mol/kg of xylitol	Viscosity, Pa*s	uncertainty
293.15	0	0.2	0.001079	1.3e-05
293.15	0.1	0.2	0.001136	1.4e-05
293.15	0.2	0.2	0.001199	1.6e-05
293.15	0.3	0.2	0.001264	1.6e-05
293.15	0.4	0.2	0.001335	1.9e-05
293.15	0.5	0.2	0.001411	1.9e-05
293.15	0.6	0.2	0.00149	2.1e-05
293.15	0.7	0.2	0.001575	2.3e-05
303.15	0	0.2	0.000855	1.1e-05
303.15	0.1	0.2	0.000898	1.1e-05
303.15	0.2	0.2	0.000946	1.2e-05
303.15	0.3	0.2	0.000994	1.3e-05
303.15	0.4	0.2	0.001048	1.4e-05
303.15	0.5	0.2	0.001104	1.5e-05
303.15	0.6	0.2	0.001163	1.6e-05
303.15	0.7	0.2	0.001226	2e-05
313.15	0	0.2	0.000697	9e-06
313.15	0.1	0.2	0.000731	9e-06
313.15	0.2	0.2	0.000767	1e-05
313.15	0.3	0.2	0.000805	1e-05
313.15	0.4	0.2	0.000846	1.1e-05
313.15	0.5	0.2	0.00089	1.2e-05
313.15	0.6	0.2	0.000934	1.3e-05
313.15	0.7	0.2	0.000982	1.6e-05
323.15	0	0.2	0.000582	7e-06
323.15	0.1	0.2	0.000608	8e-06
323.15	0.2	0.2	0.000637	8e-06
323.15	0.3	0.2	0.000667	9e-06
323.15	0.4	0.2	0.000699	1e-05
323.15	0.5	0.2	0.000734	1e-05
323.15	0.6	0.2	0.000769	1e-05
323.15	0.7	0.2	0.000806	1.1e-05
293.15	0	0.4	0.001161	1.5e-05
293.15	0.1	0.4	0.001226	1.5e-05
293.15	0.2	0.4	0.001294	45695703000
293.15	0.3	0.4	0.001369	40538994000
293.15	0.4	0.4	0.001448	4266105100
293.15	0.5	0.4	0.001533	2.1e-05
293.15	0.6	0.4	0.001623	2.3e-05
293.15	0.7	0.4	0.001718	5.7e-05
303.15	0	0.4	0.000916	1.2e-05
303.15	0.1	0.4	0.000964	1.2e-05
303.15	0.2	0.4	0.001016	1.3e-05
303.15	0.3	0.4	0.001071	1.4e-05
303.15	0.4	0.4	0.00113	1.5e-05
303.15	0.5	0.4	0.001192	1.6e-05
303.15	0.6	0.4	0.001258	1.8e-05
303.15	0.7	0.4	0.001328	2.2e-05
313.15	0	0.4	0.000744	9e-06
313.15	0.1	0.4	0.000782	1e-05
313.15	0.2	0.4	0.000821	1e-05
313.15	0.3	0.4	0.000864	1.1e-05
313.15	0.4	0.4	0.000908	1.2e-05
313.15	0.5	0.4	0.000956	1.3e-05
313.15	0.6	0.4	0.001006	1.4e-05
313.15	0.7	0.4	0.001059	1.7e-05
323.15	0	0.4	0.000617	8e-06
323.15	0.1	0.4	0.000647	8e-06
323.15	0.2	0.4	0.000679	24980904000
323.15	0.3	0.4	0.000712	2028599000
323.15	0.4	0.4	0.000747	219902330
323.15	0.5	0.4	0.000785	1.1e-05
323.15	0.6	0.4	0.000824	1.1e-05
323.15	0.7	0.4	0.000865	1.6e-05
293.15	0	0.6	0.00125	1.6e-05
293.15	0.1	0.6	0.001323	1.7e-05
293.15	0.2	0.6	0.0014	17328303000
293.15	0.3	0.6	0.001484	32177208000
293.15	0.4	0.6	0.001573	25772553000
293.15	0.5	0.6	0.001668	2.4e-05
293.15	0.6	0.6	0.001767	2.6e-05
293.15	0.7	0.6	0.001875	3.4e-05
303.15	0	0.6	0.000981	1.3e-05
303.15	0.1	0.6	0.001036	1.4e-05
303.15	0.2	0.6	0.001093	1.4e-05
303.15	0.3	0.6	0.001154	1.6e-05
303.15	0.4	0.6	0.001221	1.7e-05
303.15	0.5	0.6	0.00129	1.8e-05
303.15	0.6	0.6	0.001362	2e-05
303.15	0.7	0.6	0.001442	2.4e-05
313.15	0	0.6	0.000794	1e-05
313.15	0.1	0.6	0.000834	1.1e-05
313.15	0.2	0.6	0.000879	1.2e-05
313.15	0.3	0.6	0.000926	1.2e-05
313.15	0.4	0.6	0.000978	1.3e-05
313.15	0.5	0.6	0.001029	1.4e-05
313.15	0.6	0.6	0.001083	1.6e-05
313.15	0.7	0.6	0.001143	1.8e-05
323.15	0	0.6	0.000657	9e-06
323.15	0.1	0.6	0.000689	9e-06
323.15	0.2	0.6	0.000724	9125946500
323.15	0.3	0.6	0.000761	8271076200
323.15	0.4	0.6	0.000801	17449250000
323.15	0.5	0.6	0.00084	1.2e-05
323.15	0.6	0.6	0.000883	1.3e-05
323.15	0.7	0.6	0.000929	1.3e-05
293.15	0	0.8	0.001348	1.8e-05
293.15	0.1	0.8	0.001432	1.9e-05
293.15	0.2	0.8	0.001517	24475129000
293.15	0.3	0.8	0.001607	2754276600
293.15	0.4	0.8	0.001706	22517998000
293.15	0.5	0.8	0.001813	2.7e-05
293.15	0.6	0.8	0.001925	3e-05
293.15	0.7	0.8	0.002046	2.9e-05
303.15	0	0.8	0.001059	1.4e-05
303.15	0.1	0.8	0.001118	1.5e-05
303.15	0.2	0.8	0.001182	1.6e-05
303.15	0.3	0.8	0.00125	1.8e-05
303.15	0.4	0.8	0.001322	1.9e-05
303.15	0.5	0.8	0.001399	2.1e-05
303.15	0.6	0.8	0.001475	2.2e-05
303.15	0.7	0.8	0.001561	2.7e-05
313.15	0	0.8	0.000851	1.1e-05
313.15	0.1	0.8	0.000895	1.2e-05
313.15	0.2	0.8	0.000946	1.3e-05
313.15	0.3	0.8	0.000996	1.4e-05
313.15	0.4	0.8	0.00105	1.5e-05
313.15	0.5	0.8	0.001108	1.6e-05
313.15	0.6	0.8	0.001168	1.7e-05
313.15	0.7	0.8	0.001231	2e-05
323.15	0	0.8	0.000701	9e-06
323.15	0.1	0.8	0.000737	1e-05
323.15	0.2	0.8	0.000776	6201245600
323.15	0.3	0.8	0.000816	17944030000
323.15	0.4	0.8	0.000857	11258999000
323.15	0.5	0.8	0.0009	1.3e-05
323.15	0.6	0.8	0.000947	1.4e-05
323.15	0.7	0.8	0.000997	2.2e-05
293.15	0	1	0.001443	2e-05
293.15	0.1	1	0.001533	2.1e-05
293.15	0.2	1	0.001633	2.3e-05
293.15	0.3	1	0.001737	2.6e-05
293.15	0.4	1	0.001851	2.7e-05
293.15	0.5	1	0.001965	3.1e-05
293.15	0.6	1	0.002091	3.4e-05
293.15	0.7	1	0.00223	3.8e-05
303.15	0	1	0.001128	1.7e-05
303.15	0.1	1	0.001195	1.8e-05
303.15	0.2	1	0.001264	1.9e-05
303.15	0.3	1	0.001342	2.1e-05
303.15	0.4	1	0.00142	2.2e-05
303.15	0.5	1	0.001503	2.4e-05
303.15	0.6	1	0.001593	2.7e-05
303.15	0.7	1	0.00169	3.5e-05
313.15	0	1	0.000904	1.3e-05
313.15	0.1	1	0.000953	1.4e-05
313.15	0.2	1	0.001006	1.5e-05
313.15	0.3	1	0.001065	1.6e-05
313.15	0.4	1	0.001124	1.7e-05
313.15	0.5	1	0.001187	1.9e-05
313.15	0.6	1	0.001254	2e-05
313.15	0.7	1	0.001324	2.5e-05
323.15	0	1	0.000741	1e-05
323.15	0.1	1	0.00078	1.1e-05
323.15	0.2	1	0.000822	1.1e-05
323.15	0.3	1	0.000866	1.2e-05
323.15	0.4	1	0.000913	1.3e-05
323.15	0.5	1	0.000961	1.4e-05
323.15	0.6	1	0.001013	1.5e-05
323.15	0.7	1	0.001067	1.7e-05

System: xylitol + water; phases: Liquid
Fixed: Pressure, kPa = 101.3
Property: Mass density, kg/m3 (Liquid); method: Vibrating tube method
Temperature, K	Molality, mol/kg of xylitol	Mass density, kg/m3	uncertainty
293.15	0.2	1008.15	0.28
303.15	0.2	1005.42	0.28
313.15	0.2	1001.85	0.28
323.15	0.2	997.56	0.27
293.15	0.4	1017.64	0.42
303.15	0.4	1014.74	0.42
313.15	0.4	1011.07	0.41
323.15	0.4	1006.6	0.41
293.15	0.6	1026.71	0.57
303.15	0.6	1023.67	0.56
313.15	0.6	1019.85	0.56
323.15	0.6	1015.35	0.55
293.15	0.8	1035.41	0.71
303.15	0.8	1032.22	0.7
313.15	0.8	1028.28	0.69
323.15	0.8	1023.7	0.68
293.15	1	1043.78	0.86
303.15	1	1040.41	0.82
313.15	1	1036.38	0.81
323.15	1	1031.65	0.82

System: xylitol + water; phases: Liquid
Fixed: Pressure, kPa = 101.3
Property: Viscosity, Pa*s (Liquid); method: Capillary tube (Ostwald; Ubbelohde) method
Temperature, K	Molality, mol/kg of xylitol	Viscosity, Pa*s	uncertainty
293.15	0.2	0.001079	1.3e-05
303.15	0.2	0.000855	1e-05
313.15	0.2	0.000697	8e-06
323.15	0.2	0.000582	7e-06
293.15	0.4	0.001161	1.4e-05
303.15	0.4	0.000916	1.1e-05
313.15	0.4	0.000744	9e-06
323.15	0.4	0.000617	8e-06
293.15	0.6	0.00125	1.6e-05
303.15	0.6	0.000981	1.2e-05
313.15	0.6	0.000794	1e-05
323.15	0.6	0.000657	8e-06
293.15	0.8	0.001348	1.8e-05
303.15	0.8	0.001059	1.4e-05
313.15	0.8	0.000851	1.1e-05
323.15	0.8	0.000701	9e-06
293.15	1	0.001443	1.9e-05
303.15	1	0.001128	1.7e-05
313.15	1	0.000904	1.3e-05
323.15	1	0.000741	1e-05
