Measured thermophysical data. Isothermal Vapor-Liquid Equilibrium for the 2-Pentanone (MPK) + 2-Methyl Propan-1-ol Binary Mixture
Source: J. Chem. Eng. Data, 2018, 10.1021/acs.jced.8b00517
Compound 1: pentan-2-one, C5H10O, InChI=1S/C5H10O/c1-3-4-5(2)6/h3-4H2,1-2H3, purity 99%
Compound 2: 2-methyl-1-propanol, C4H10O, InChI=1S/C4H10O/c1-4(2)3-5/h4-5H,3H2,1-2H3, purity 99%

System: pentan-2-one; phases: Liquid
Property: Refractive index (Na D-line) (Liquid); method: Standard Abbe refractometry
Temperature, K	Pressure, kPa	Refractive index (Na D-line)	uncertainty
293.15	101.325	1.3906	0.0009

System: pentan-2-one; phases: Liquid
Property: Mass density, kg/m3 (Liquid); method: Vibrating tube method
Temperature, K	Pressure, kPa	Mass density, kg/m3	uncertainty
293.15	101.325	805.86	2.01

System: pentan-2-one; phases: Liquid, Gas
Property: Boiling temperature at pressure P, K (Liquid); method: Ebulliometric method (Recirculating still)
Pressure, kPa	Boiling temperature at pressure P, K	uncertainty
19.9	329.59	0.22
34.33	343.47	0.22
39.89	347.55	0.19
49.89	353.77	0.18
58.58	358.45	0.17
69.3	363.5	0.17
79.88	367.91	0.17
89.88	371.68	0.16
98.88	374.74	0.16

System: pentan-2-one; phases: Liquid, Gas
Property: Vapor or sublimation pressure, kPa (Liquid); method: Ebulliometric method (Recirculating still)
Temperature, K	Vapor or sublimation pressure, kPa	uncertainty
343.15	34.4	0.32
358.15	58.64	0.39
363.15	69.36	0.46

System: 2-methyl-1-propanol; phases: Liquid
Property: Refractive index (Na D-line) (Liquid); method: Standard Abbe refractometry
Temperature, K	Pressure, kPa	Refractive index (Na D-line)	uncertainty
293.15	101.325	1.3959	0.0009

System: 2-methyl-1-propanol; phases: Liquid
Property: Mass density, kg/m3 (Liquid); method: Vibrating tube method
Temperature, K	Pressure, kPa	Mass density, kg/m3	uncertainty
293.15	101.325	801.49	2.01

System: 2-methyl-1-propanol; phases: Liquid, Gas
Property: Boiling temperature at pressure P, K (Liquid); method: Ebulliometric method (Recirculating still)
Pressure, kPa	Boiling temperature at pressure P, K	uncertainty
9.9	329.02	0.27
20.45	343.05	0.24
29.9	351.1	0.2
41.04	358.19	0.18
50.94	363.16	0.17
59.89	367.21	0.17
69.89	371.08	0.16
79.88	374.47	0.16
89.88	377.56	0.16
99.88	380.36	0.16

System: 2-methyl-1-propanol; phases: Liquid, Gas
Property: Vapor or sublimation pressure, kPa (Liquid); method: Ebulliometric method (Recirculating still)
Temperature, K	Vapor or sublimation pressure, kPa	uncertainty
343.15	20.5	0.26
358.15	41.07	0.32
363.15	50.99	0.39

System: pentan-2-one + 2-methyl-1-propanol; phases: Liquid, Gas
Property: Vapor or sublimation pressure, kPa (Liquid); method: Ebulliometric method (Recirculating still)
Mole fraction of pentan-2-one	Temperature, K	Vapor or sublimation pressure, kPa	uncertainty
0	343.15	20.5	0.26
0.069	343.15	22.75	0.28
0.127	343.15	24.33	0.28
0.183	343.15	25.6	0.3
0.239	343.15	26.65	0.29
0.301	343.15	27.85	0.29
0.366	343.15	28.78	0.29
0.531	343.15	30.84	0.31
0.598	343.15	31.52	0.31
0.652	343.15	32.08	0.31
0.721	343.15	32.63	0.31
0.801	343.15	33.2	0.32
0.887	343.15	33.8	0.32
1	343.15	34.4	0.32
0	358.15	41.07	0.32
0.077	358.15	43.88	0.33
0.144	358.15	45.93	0.33
0.208	358.15	47.63	0.34
0.266	358.15	49	0.34
0.334	358.15	50.66	0.35
0.401	358.15	51.83	0.36
0.531	358.15	54.48	0.37
0.599	358.15	55.39	0.37
0.652	358.15	55.9	0.38
0.723	358.15	56.79	0.38
0.799	358.15	57.39	0.38
0.893	358.15	58.06	0.38
1	358.15	58.64	0.39
0	363.15	50.99	0.39
0.075	363.15	53.94	0.41
0.143	363.15	55.97	0.41
0.21	363.15	57.8	0.42
0.266	363.15	59.2	0.42
0.334	363.15	61.11	0.43
0.402	363.15	62.33	0.44
0.532	363.15	65.04	0.44
0.598	363.15	65.96	0.45
0.651	363.15	66.65	0.45
0.721	363.15	67.38	0.45
0.802	363.15	68.01	0.45
0.891	363.15	68.29	0.45
1	363.15	69.36	0.46

System: pentan-2-one + 2-methyl-1-propanol; phases: Gas, Liquid
Property: Mole fraction of pentan-2-one (Gas); method: Chromatography
Mole fraction of pentan-2-one	Temperature, K	Mole fraction of pentan-2-one	uncertainty
0	343.15	0	
0.069	343.15	0.147	0.005
0.127	343.15	0.244	0.004
0.183	343.15	0.328	0.004
0.239	343.15	0.382	0.005
0.301	343.15	0.454	0.005
0.366	343.15	0.513	0.006
0.531	343.15	0.635	0.005
0.598	343.15	0.686	0.005
0.652	343.15	0.726	0.004
0.721	343.15	0.777	0.004
0.801	343.15	0.842	0.003
0.887	343.15	0.905	0.003
1	343.15	1	
0	358.15	0	
0.077	358.15	0.139	0.004
0.144	358.15	0.238	0.004
0.208	358.15	0.321	0.004
0.266	358.15	0.378	0.005
0.334	358.15	0.453	0.005
0.401	358.15	0.512	0.006
0.531	358.15	0.603	0.005
0.599	358.15	0.655	0.005
0.652	358.15	0.701	0.004
0.723	358.15	0.758	0.004
0.799	358.15	0.827	0.004
0.893	358.15	0.9	0.003
1	358.15	1	
0	363.15	0	
0.075	363.15	0.134	0.004
0.143	363.15	0.226	0.004
0.21	363.15	0.308	0.004
0.266	363.15	0.367	0.005
0.334	363.15	0.446	0.005
0.402	363.15	0.499	0.006
0.532	363.15	0.593	0.005
0.598	363.15	0.646	0.005
0.651	363.15	0.696	0.004
0.721	363.15	0.751	0.004
0.802	363.15	0.82	0.004
0.891	363.15	0.895	0.003
1	363.15	1	
