Measured thermophysical data. Densities and Dynamic Viscosities of Alicyclic Cyclohexane with Toluene, o-Xylene, and Mesitylene at T = (303.15 to 323.15) K and Atmospheric Pressure
Source: J. Chem. Eng. Data, 2018, 10.1021/acs.jced.7b01003
Compound 1: cyclohexane, C6H12, InChI=1S/C6H12/c1-2-4-6-5-3-1/h1-6H2, purity 99%
Compound 2: toluene, C7H8, InChI=1S/C7H8/c1-7-5-3-2-4-6-7/h2-6H,1H3, purity 99%
Compound 3: 1,2-dimethylbenzene, C8H10, InChI=1S/C8H10/c1-7-5-3-4-6-8(7)2/h3-6H,1-2H3, purity 99%
Compound 4: 1,3,5-trimethylbenzene, C9H12, InChI=1S/C9H12/c1-7-4-8(2)6-9(3)5-7/h4-6H,1-3H3, purity 99%

System: cyclohexane; phases: Liquid
Fixed: Pressure, kPa = 101.325
Property: Mass density, kg/m3 (Liquid); method: Pycnometric method
Temperature, K	Mass density, kg/m3	uncertainty
303.15	768.8	0.5
308.15	764	0.5
313.15	759.3	0.5
318.15	754.4	0.5
323.15	749.5	0.5

System: cyclohexane; phases: Liquid
Fixed: Pressure, kPa = 101.325
Property: Viscosity, Pa*s (Liquid); method: Capillary tube (Ostwald; Ubbelohde) method
Temperature, K	Viscosity, Pa*s	uncertainty
303.15	0.0008235	8.1e-06
308.15	0.0007585	7.8e-06
313.15	0.0007018	7.5e-06
318.15	0.0006527	7.2e-06
323.15	0.0006039	7e-06

System: toluene; phases: Liquid
Fixed: Pressure, kPa = 101.325
Property: Mass density, kg/m3 (Liquid); method: Pycnometric method
Temperature, K	Mass density, kg/m3	uncertainty
303.15	857.5	0.5
308.15	852.8	0.5
313.15	848	0.5
318.15	843.3	0.6
323.15	838.5	0.6

System: toluene; phases: Liquid
Fixed: Pressure, kPa = 101.325
Property: Viscosity, Pa*s (Liquid); method: Capillary tube (Ostwald; Ubbelohde) method
Temperature, K	Viscosity, Pa*s	uncertainty
303.15	0.000526	6.6e-06
308.15	0.0004972	6.4e-06
313.15	0.000471	6.3e-06
318.15	0.0004475	6.2e-06
323.15	0.0004256	6.1e-06

System: 1,2-dimethylbenzene; phases: Liquid
Fixed: Pressure, kPa = 101.325
Property: Mass density, kg/m3 (Liquid); method: Pycnometric method
Temperature, K	Mass density, kg/m3	uncertainty
303.15	871.5	0.5
308.15	867.2	0.5
313.15	862.8	0.5
318.15	858.8	0.6
323.15	854.3	0.6

System: 1,2-dimethylbenzene; phases: Liquid
Fixed: Pressure, kPa = 101.325
Property: Viscosity, Pa*s (Liquid); method: Capillary tube (Ostwald; Ubbelohde) method
Temperature, K	Viscosity, Pa*s	uncertainty
303.15	0.0007078	7.5e-06
308.15	0.0006641	7.3e-06
313.15	0.0006249	7e-06
318.15	0.0005895	6.9e-06
323.15	0.0005572	6.7e-06

System: 1,3,5-trimethylbenzene; phases: Liquid
Fixed: Pressure, kPa = 101.325
Property: Mass density, kg/m3 (Liquid); method: Pycnometric method
Temperature, K	Mass density, kg/m3	uncertainty
303.15	857.4	0.5
308.15	853.3	0.5
313.15	849.3	0.5
318.15	845.1	0.5
323.15	840.9	0.6

System: 1,3,5-trimethylbenzene; phases: Liquid
Fixed: Pressure, kPa = 101.325
Property: Viscosity, Pa*s (Liquid); method: Capillary tube (Ostwald; Ubbelohde) method
Temperature, K	Viscosity, Pa*s	uncertainty
303.15	0.0006249	7e-06
308.15	0.0005888	6.9e-06
313.15	0.0005565	6.7e-06
318.15	0.0005275	6.6e-06
323.15	0.0005008	6.5e-06

System: cyclohexane + toluene; phases: Liquid
Fixed: Pressure, kPa = 101
Property: Mass density, kg/m3 (Liquid); method: Pycnometric method
Temperature, K	Mole fraction of toluene	Mass density, kg/m3	uncertainty
303.15	0.0999	775.7	0.5
303.15	0.2003	783.3	0.5
303.15	0.3	791.2	0.5
303.15	0.3999	799.7	0.5
303.15	0.5	808.6	0.5
303.15	0.6	817.6	0.5
303.15	0.6999	827	0.5
303.15	0.7998	836.8	0.5
303.15	0.9	847.2	0.5
308.15	0.0999	771	0.5
308.15	0.2003	778.7	0.5
308.15	0.3	786.6	0.5
308.15	0.3999	795.1	0.5
308.15	0.5	804	0.5
308.15	0.6	813	0.5
308.15	0.6999	822.4	0.5
308.15	0.7998	832.2	0.5
308.15	0.9	842.5	0.5
313.15	0.0999	766.4	0.5
313.15	0.2003	774.1	0.5
313.15	0.3	782	0.5
313.15	0.3999	790.5	0.5
313.15	0.5	799.4	0.5
313.15	0.6	808.4	0.5
313.15	0.6999	817.7	0.5
313.15	0.7998	827.5	0.5
313.15	0.9	837.8	0.5
318.15	0.0999	761.6	0.5
318.15	0.2003	769.3	0.5
318.15	0.3	777.3	0.5
318.15	0.3999	785.8	0.5
318.15	0.5	794.7	0.5
318.15	0.6	803.7	0.5
318.15	0.6999	813.1	0.5
318.15	0.7998	822.8	0.5
318.15	0.9	833.1	0.5
323.15	0.0999	756.8	0.5
323.15	0.2003	764.5	0.5
323.15	0.3	772.6	0.5
323.15	0.3999	781.1	0.5
323.15	0.5	790	0.5
323.15	0.6	799	0.5
323.15	0.6999	808.4	0.5
323.15	0.7998	818.1	0.5
323.15	0.9	828.3	0.6

System: cyclohexane + toluene; phases: Liquid
Fixed: Pressure, kPa = 101
Property: Viscosity, Pa*s (Liquid); method: Capillary tube (Ostwald; Ubbelohde) method
Temperature, K	Mole fraction of toluene	Viscosity, Pa*s	uncertainty
303.15	0.0999	0.0007364	7.7e-06
303.15	0.2003	0.0006714	7.3e-06
303.15	0.3	0.0006226	7.1e-06
303.15	0.3999	0.0005886	6.9e-06
303.15	0.5	0.0005635	6.8e-06
303.15	0.6	0.0005481	6.7e-06
303.15	0.6999	0.0005352	6.6e-06
303.15	0.7998	0.0005283	6.6e-06
303.15	0.9	0.0005256	6.6e-06
308.15	0.0999	0.0006829	7.4e-06
308.15	0.2003	0.0006256	7.1e-06
308.15	0.3	0.0005822	6.8e-06
308.15	0.3999	0.0005527	6.7e-06
308.15	0.5	0.0005308	6.6e-06
308.15	0.6	0.0005152	6.5e-06
308.15	0.6999	0.0005054	6.5e-06
308.15	0.7998	0.0004991	6.4e-06
308.15	0.9	0.000497	6.4e-06
313.15	0.0999	0.0006359	7.1e-06
313.15	0.2003	0.000585	6.9e-06
313.15	0.3	0.0005466	6.7e-06
313.15	0.3999	0.0005206	6.5e-06
313.15	0.5	0.0004996	6.5e-06
313.15	0.6	0.0004877	6.4e-06
313.15	0.6999	0.0004782	6.4e-06
313.15	0.7998	0.0004731	6.3e-06
313.15	0.9	0.0004707	6.3e-06
318.15	0.0999	0.0005914	6.9e-06
318.15	0.2003	0.000548	6.7e-06
318.15	0.3	0.0005136	6.5e-06
318.15	0.3999	0.0004913	6.4e-06
318.15	0.5	0.0004722	6.3e-06
318.15	0.6	0.0004614	6.3e-06
318.15	0.6999	0.0004531	6.2e-06
318.15	0.7998	0.000449	6.2e-06
318.15	0.9	0.000447	6.2e-06
323.15	0.0999	0.0005534	6.7e-06
323.15	0.2003	0.0005139	6.5e-06
323.15	0.3	0.0004839	6.4e-06
323.15	0.3999	0.0004632	6.3e-06
323.15	0.5	0.0004466	6.2e-06
323.15	0.6	0.0004383	6.2e-06
323.15	0.6999	0.0004304	6.2e-06
323.15	0.7998	0.0004264	6.1e-06
323.15	0.9	0.0004243	6.1e-06

System: cyclohexane + 1,2-dimethylbenzene; phases: Liquid
Fixed: Pressure, kPa = 101
Property: Mass density, kg/m3 (Liquid); method: Pycnometric method
Temperature, K	Mole fraction of 1,2-dimethylbenzene	Mass density, kg/m3	uncertainty
303.15	0.0998	778.1	0.5
303.15	0.2001	788	0.5
303.15	0.3	798.1	0.5
303.15	0.4	808.4	0.5
303.15	0.5	818.8	0.5
303.15	0.6	829.2	0.5
303.15	0.7001	839.6	0.5
303.15	0.7999	850.2	0.5
303.15	0.9	861	0.5
308.15	0.0998	773.4	0.5
308.15	0.2001	783.4	0.5
308.15	0.3	793.6	0.5
308.15	0.4	803.9	0.5
308.15	0.5	814.4	0.5
308.15	0.6	824.8	0.5
308.15	0.7001	835.3	0.5
308.15	0.7999	845.9	0.5
308.15	0.9	856.7	0.5
313.15	0.0998	768.8	0.5
313.15	0.2001	778.8	0.5
313.15	0.3	789.1	0.5
313.15	0.4	799.5	0.5
313.15	0.5	810	0.5
313.15	0.6	820.4	0.5
313.15	0.7001	830.9	0.5
313.15	0.7999	841.5	0.5
313.15	0.9	852.3	0.5
318.15	0.0998	764	0.5
318.15	0.2001	774.2	0.5
318.15	0.3	784.6	0.5
318.15	0.4	795.1	0.5
318.15	0.5	805.7	0.5
318.15	0.6	816.1	0.5
318.15	0.7001	826.7	0.5
318.15	0.7999	837.4	0.5
318.15	0.9	848.3	0.6
323.15	0.0998	759.2	0.5
323.15	0.2001	769.5	0.5
323.15	0.3	780	0.5
323.15	0.4	790.5	0.5
323.15	0.5	801.1	0.5
323.15	0.6	811.6	0.5
323.15	0.7001	822.2	0.5
323.15	0.7999	832.9	0.6
323.15	0.9	843.8	0.6

System: cyclohexane + 1,2-dimethylbenzene; phases: Liquid
Fixed: Pressure, kPa = 101
Property: Viscosity, Pa*s (Liquid); method: Capillary tube (Ostwald; Ubbelohde) method
Temperature, K	Mole fraction of 1,2-dimethylbenzene	Viscosity, Pa*s	uncertainty
303.15	0.0998	0.0007647	7.8e-06
303.15	0.2001	0.0007241	7.6e-06
303.15	0.3	0.0006977	7.4e-06
303.15	0.4	0.0006817	7.4e-06
303.15	0.5	0.0006728	7.3e-06
303.15	0.6	0.0006706	7.3e-06
303.15	0.7001	0.0006735	7.3e-06
303.15	0.7999	0.000681	7.3e-06
303.15	0.9	0.0006924	7.4e-06
308.15	0.0998	0.0007083	7.5e-06
308.15	0.2001	0.0006736	7.3e-06
308.15	0.3	0.0006511	7.2e-06
308.15	0.4	0.0006372	7.1e-06
308.15	0.5	0.0006306	7.1e-06
308.15	0.6	0.0006289	7.1e-06
308.15	0.7001	0.0006317	7.1e-06
308.15	0.7999	0.000639	7.1e-06
308.15	0.9	0.00065	7.2e-06
313.15	0.0998	0.0006583	7.2e-06
313.15	0.2001	0.0006281	7.1e-06
313.15	0.3	0.0006097	7e-06
313.15	0.4	0.0005979	6.9e-06
313.15	0.5	0.000592	6.9e-06
313.15	0.6	0.0005919	6.9e-06
313.15	0.7001	0.0005946	6.9e-06
313.15	0.7999	0.0006015	6.9e-06
313.15	0.9	0.0006118	7e-06
318.15	0.0998	0.0006129	7e-06
318.15	0.2001	0.0005876	6.9e-06
318.15	0.3	0.000572	6.8e-06
318.15	0.4	0.0005615	6.7e-06
318.15	0.5	0.0005568	6.7e-06
318.15	0.6	0.0005562	6.7e-06
318.15	0.7001	0.0005614	6.7e-06
318.15	0.7999	0.0005679	6.8e-06
318.15	0.9	0.0005772	6.8e-06
323.15	0.0998	0.0005722	6.8e-06
323.15	0.2001	0.0005508	6.7e-06
323.15	0.3	0.0005372	6.6e-06
323.15	0.4	0.0005284	6.6e-06
323.15	0.5	0.0005247	6.6e-06
323.15	0.6	0.0005248	6.6e-06
323.15	0.7001	0.0005293	6.6e-06
323.15	0.7999	0.0005365	6.6e-06
323.15	0.9	0.0005452	6.7e-06

System: cyclohexane + 1,3,5-trimethylbenzene; phases: Liquid
Fixed: Pressure, kPa = 101
Property: Mass density, kg/m3 (Liquid); method: Pycnometric method
Temperature, K	Mole fraction of 1,3,5-trimethylbenzene	Mass density, kg/m3	uncertainty
303.15	0.1001	776.6	0.5
303.15	0.2001	785.4	0.5
303.15	0.3	794.6	0.5
303.15	0.4	803.9	0.5
303.15	0.5	813.2	0.5
303.15	0.6	822.4	0.5
303.15	0.7	831.5	0.5
303.15	0.8001	840.3	0.5
303.15	0.9	849	0.5
308.15	0.1001	772	0.5
308.15	0.2001	780.9	0.5
308.15	0.3	790.2	0.5
308.15	0.4	799.6	0.5
308.15	0.5	808.9	0.5
308.15	0.6	818.2	0.5
308.15	0.7	827.3	0.5
308.15	0.8001	836.2	0.5
308.15	0.9	844.9	0.5
313.15	0.1001	767.5	0.5
313.15	0.2001	776.5	0.5
313.15	0.3	785.9	0.5
313.15	0.4	795.3	0.5
313.15	0.5	804.7	0.5
313.15	0.6	814	0.5
313.15	0.7	823.2	0.5
313.15	0.8001	832.2	0.5
313.15	0.9	840.9	0.5
318.15	0.1001	762.8	0.5
318.15	0.2001	771.9	0.5
318.15	0.3	781.4	0.5
318.15	0.4	790.8	0.5
318.15	0.5	800.3	0.5
318.15	0.6	809.7	0.5
318.15	0.7	818.9	0.5
318.15	0.8001	828	0.5
318.15	0.9	836.7	0.5
323.15	0.1001	758.1	0.5
323.15	0.2001	767.3	0.5
323.15	0.3	776.8	0.5
323.15	0.4	786.4	0.5
323.15	0.5	795.9	0.5
323.15	0.6	805.4	0.5
323.15	0.7	814.6	0.5
323.15	0.8001	823.8	0.5
323.15	0.9	832.5	0.6

System: cyclohexane + 1,3,5-trimethylbenzene; phases: Liquid
Fixed: Pressure, kPa = 101
Property: Viscosity, Pa*s (Liquid); method: Capillary tube (Ostwald; Ubbelohde) method
Temperature, K	Mole fraction of 1,3,5-trimethylbenzene	Viscosity, Pa*s	uncertainty
303.15	0.1001	0.0007294	7.6e-06
303.15	0.2001	0.0006775	7.3e-06
303.15	0.3	0.0006444	7.2e-06
303.15	0.4	0.0006263	7.1e-06
303.15	0.5	0.0006163	7e-06
303.15	0.6	0.0006104	7e-06
303.15	0.7	0.0006099	7e-06
303.15	0.8001	0.0006119	7e-06
303.15	0.9	0.0006162	7e-06
308.15	0.1001	0.0006779	7.3e-06
308.15	0.2001	0.0006326	7.1e-06
308.15	0.3	0.0006039	6.9e-06
308.15	0.4	0.0005881	6.9e-06
308.15	0.5	0.0005791	6.8e-06
308.15	0.6	0.0005748	6.8e-06
308.15	0.7	0.0005746	6.8e-06
308.15	0.8001	0.0005767	6.8e-06
308.15	0.9	0.0005819	6.8e-06
313.15	0.1001	0.0006321	7.1e-06
313.15	0.2001	0.0005925	6.9e-06
313.15	0.3	0.0005675	6.8e-06
313.15	0.4	0.0005539	6.7e-06
313.15	0.5	0.0005465	6.7e-06
313.15	0.6	0.0005431	6.6e-06
313.15	0.7	0.0005428	6.6e-06
313.15	0.8001	0.0005451	6.7e-06
313.15	0.9	0.000551	6.7e-06
318.15	0.1001	0.000591	6.9e-06
318.15	0.2001	0.0005562	6.7e-06
318.15	0.3	0.0005341	6.6e-06
318.15	0.4	0.0005231	6.6e-06
318.15	0.5	0.0005165	6.5e-06
318.15	0.6	0.0005143	6.5e-06
318.15	0.7	0.000514	6.5e-06
318.15	0.8001	0.0005165	6.5e-06
318.15	0.9	0.0005223	6.6e-06
323.15	0.1001	0.0005529	6.7e-06
323.15	0.2001	0.0005229	6.6e-06
323.15	0.3	0.0005036	6.5e-06
323.15	0.4	0.0004941	6.4e-06
323.15	0.5	0.0004886	6.4e-06
323.15	0.6	0.0004873	6.4e-06
323.15	0.7	0.0004871	6.4e-06
323.15	0.8001	0.0004904	6.4e-06
323.15	0.9	0.000494	6.4e-06
