Measured thermophysical data. Densities and Molar Volumes of Aqueous Solutions of Li2SO4 at Temperatures from 343 to 573 K
Source: J. Chem. Eng. Data, 2017, 10.1021/acs.jced.7b00570
Compound 1: lithium sulfate, Li2O4S, InChI=1S/2Li.H2O4S/c;;1-5(2,3)4/h;;(H2,1,2,3,4)/q2*+1;/p-2, purity 99.95%
Compound 2: water, H2O, InChI=1S/H2O/h1H2, purity 99.9%

System: lithium sulfate + water; phases: Liquid
Property: Mass density, kg/m3 (Liquid); method: Vibrating tube method
Temperature, K	Pressure, kPa	Molality, mol/kg of lithium sulfate	Mass density, kg/m3	uncertainty
373.15	300	0.10081	9.67	0.044
373.15	300	0.2024	19.08	0.06
373.15	300	0.4025	37.02	0.11
373.15	300	0.50752	46.31	0.13
373.15	300	0.70609	63.23	0.17
373.15	300	0.9969	87.31	0.22
373.15	300	1.5033	127.12	0.32
373.15	300	2.0008	163.83	0.4
373.15	300	2.6814	210.65	0.51
423.15	900	0.10081	10.29	0.05
423.15	900	0.2024	20.2	0.07
423.15	900	0.4025	39.02	0.11
423.15	900	0.50752	48.73	0.14
423.15	900	0.70609	66.39	0.18
423.15	900	0.9969	91.43	0.24
423.15	900	1.5033	132.61	0.34
423.15	900	2.0008	170.33	0.42
423.15	900	2.6814	218.37	0.54
473.15	2000	0.05013	5.787	0.056
473.15	2000	0.07004	7.993	0.059
473.15	2000	0.10081	11.34	0.06
473.15	2000	0.2024	22.02	0.09
473.15	2000	0.4025	42.15	0.13
473.15	2000	0.4993	51.53	0.16
473.15	2000	0.50752	52.4	0.16
473.15	2000	0.70609	71.05	0.2
473.15	2000	0.9969	97.33	0.26
473.15	2000	1.5033	140.34	0.37
473.15	2000	2.0008	179.72	0.46
473.15	2000	2.6814	229.5	0.58
423.15	5000	0.05013	6.66	0.048
423.15	5000	0.07004	9.129	0.052
423.15	5000	0.10081	12.86	0.06
423.15	5000	0.2024	24.62	0.09
423.15	5000	0.4025	46.49	0.15
423.15	5000	0.4993	56.65	0.17
423.15	5000	0.70609	77.44	0.23
423.15	5000	0.9969	105.48	0.3
423.15	5000	1.5003	150.78	0.42
423.15	5000	2.0008	191.93	0.52
423.15	5000	2.6814	243.92	0.66
573.15	10000	0.05013	8.165	0.16
573.15	10000	0.07004	11.08	0.17
573.15	10000	0.10081	15.44	0.18
573.15	10000	0.2024	28.99	0.21
573.15	10000	0.4025	53.63	0.27
573.15	10000	0.4993	64.79	0.3
573.15	10000	0.70609	87.57	0.37
