Measured thermophysical data. Density, Viscosity, and Excess Properties of Binary Mixtures of 2-(Methylamino)ethanol with 2-Methoxyethanol, 2-Ethoxyethanol, and 2-Butoxyethanol from 293.15 to 353.15 K
Source: J. Chem. Eng. Data, 2019, 10.1021/acs.jced.9b00364
Compound 1: 2-(methylamino)ethanol, C3H9NO, InChI=1S/C3H9NO/c1-4-2-3-5/h4-5H,2-3H2,1H3, purity 99.25%
Compound 2: 2-methoxyethan-1-ol, C3H8O2, InChI=1S/C3H8O2/c1-5-3-2-4/h4H,2-3H2,1H3, purity 99.66%
Compound 3: 2-ethoxyethan-1-ol, C4H10O2, InChI=1S/C4H10O2/c1-2-6-4-3-5/h5H,2-4H2,1H3, purity 99.13%
Compound 4: 2-butoxyethan-1-ol, C6H14O2, InChI=1S/C6H14O2/c1-2-3-5-8-6-4-7/h7H,2-6H2,1H3, purity 99.82%

System: 2-(methylamino)ethanol; phases: Liquid
Fixed: Pressure, kPa = 101.3
Property: Mass density, kg/m3 (Liquid); method: Vibrating tube method
Temperature, K	Mass density, kg/m3	uncertainty
293.15	940.1	1
298.15	936.2	1
303.15	932.3	1
308.15	928.4	1
313.15	924.5	1
318.15	920.5	1
323.15	916.5	1
328.15	912.5	1
333.15	908.5	1
338.15	904.4	1
343.15	900.3	1
348.15	896.2	1
353.15	892.1	1

System: 2-(methylamino)ethanol; phases: Liquid
Fixed: Pressure, kPa = 101.3
Property: Viscosity, Pa*s (Liquid); method: Falling or rolling sphere viscometry
Temperature, K	Viscosity, Pa*s	uncertainty
293.15	0.013356	0.000677
298.15	0.010634	0.000539
303.15	0.0086122	0.0004363
308.15	0.00707	0.0003582
313.15	0.005883	0.000298
318.15	0.0049526	0.0002509
323.15	0.0042143	0.0002135
328.15	0.0036187	0.0001833
333.15	0.0031344	0.0001588
338.15	0.0027358	0.0001386
343.15	0.0024042	0.0001218
348.15	0.0021262	0.0001077
353.15	0.0018893	9.57e-05

System: 2-methoxyethan-1-ol; phases: Liquid
Fixed: Pressure, kPa = 101.3
Property: Mass density, kg/m3 (Liquid); method: Vibrating tube method
Temperature, K	Mass density, kg/m3	uncertainty
293.15	964.7	1
298.15	960.2	1
303.15	955.5	1
308.15	950.9	1
313.15	946.2	1
318.15	941.5	1
323.15	936.8	1
328.15	932	1
333.15	927.2	1
338.15	922.4	1
343.15	917.5	1
348.15	912.5	1
353.15	907.5	1

System: 2-methoxyethan-1-ol; phases: Liquid
Fixed: Pressure, kPa = 101.3
Property: Viscosity, Pa*s (Liquid); method: Falling or rolling sphere viscometry
Temperature, K	Viscosity, Pa*s	uncertainty
293.15	0.0016855	8.52e-05
298.15	0.0015218	7.69e-05
303.15	0.0013805	6.98e-05
308.15	0.0012578	6.36e-05
313.15	0.001151	5.8e-05
318.15	0.0010571	5.34e-05
323.15	0.0009746	4.93e-05
328.15	0.0009016	4.56e-05
333.15	0.0008367	4.23e-05
338.15	0.0007788	3.94e-05
343.15	0.000727	3.67e-05
348.15	0.000681	3.44e-05
353.15	0.0006397	3.23e-05

System: 2-ethoxyethan-1-ol; phases: Liquid
Fixed: Pressure, kPa = 101.3
Property: Mass density, kg/m3 (Liquid); method: Vibrating tube method
Temperature, K	Mass density, kg/m3	uncertainty
293.15	929.5	1
298.15	925	1
303.15	920.5	1
308.15	915.9	1
313.15	911.3	1
318.15	906.6	1
323.15	901.9	1
328.15	897.2	1
333.15	892.4	1
338.15	887.6	1
343.15	882.7	1
348.15	877.8	1
353.15	872.8	1

System: 2-ethoxyethan-1-ol; phases: Liquid
Fixed: Pressure, kPa = 101.3
Property: Viscosity, Pa*s (Liquid); method: Falling or rolling sphere viscometry
Temperature, K	Viscosity, Pa*s	uncertainty
293.15	0.0020397	0.0001034
298.15	0.0018189	9.22e-05
303.15	0.0016309	8.27e-05
308.15	0.0014703	7.45e-05
313.15	0.0013323	6.75e-05
318.15	0.0012122	6.15e-05
323.15	0.0011078	5.62e-05
328.15	0.0010163	5.15e-05
333.15	0.0009358	4.74e-05
338.15	0.0008646	4.38e-05
343.15	0.0008014	4.06e-05
348.15	0.0007452	3.78e-05
353.15	0.0006952	3.52e-05

System: 2-butoxyethan-1-ol; phases: Liquid
Fixed: Pressure, kPa = 101.3
Property: Mass density, kg/m3 (Liquid); method: Vibrating tube method
Temperature, K	Mass density, kg/m3	uncertainty
293.15	900.4	1
298.15	896.2	1
303.15	892	1
308.15	887.8	1
313.15	883.5	1
318.15	879.2	1
323.15	874.9	1
328.15	870.6	1
333.15	866.2	1
338.15	861.8	1
343.15	857.3	1
348.15	852.8	1
353.15	848.3	1

System: 2-butoxyethan-1-ol; phases: Liquid
Fixed: Pressure, kPa = 101.3
Property: Viscosity, Pa*s (Liquid); method: Falling or rolling sphere viscometry
Temperature, K	Viscosity, Pa*s	uncertainty
293.15	0.0032477	0.0001641
298.15	0.002834	0.000143
303.15	0.002491	0.000126
308.15	0.0022044	0.0001114
313.15	0.0019645	9.92e-05
318.15	0.0017593	8.89e-05
323.15	0.0015843	8e-05
328.15	0.0014333	7.24e-05
333.15	0.0013025	6.58e-05
338.15	0.0011887	6.01e-05
343.15	0.0010889	5.5e-05
348.15	0.0010012	5.06e-05
353.15	0.0009235	4.67e-05

System: 2-(methylamino)ethanol + 2-methoxyethan-1-ol; phases: Liquid
Fixed: Pressure, kPa = 101.3
Property: Mass density, kg/m3 (Liquid); method: Vibrating tube method
Temperature, K	Mass fraction of 2-(methylamino)ethanol	Mass density, kg/m3	uncertainty
293.15	0	964.7	1
293.15	0.1	963.2	1
293.15	0.3	959.9	1
293.15	0.4	957.2	1
293.15	0.5	954.5	1
293.15	0.7	949.1	1
293.15	0.9	943.2	1
293.15	1	940.1	1
298.15	0	960.2	1
298.15	0.1	958.7	1
298.15	0.3	955.6	1
298.15	0.4	952.9	1
298.15	0.5	950.4	1
298.15	0.7	945	1
298.15	0.9	939.2	1
298.15	1	936.2	1
303.15	0	955.5	1
303.15	0.1	954.2	1
303.15	0.3	951.3	1
303.15	0.4	948.6	1
303.15	0.5	946.1	1
303.15	0.7	940.9	1
303.15	0.9	935.3	1
303.15	1	932.3	1
308.15	0	950.9	1
308.15	0.1	949.7	1
308.15	0.3	946.9	1
308.15	0.4	944.3	1
308.15	0.5	941.9	1
308.15	0.7	936.9	1
308.15	0.9	931.3	1
308.15	1	928.4	1
313.15	0	946.2	1
313.15	0.1	945.1	1
313.15	0.3	942.5	1
313.15	0.4	940	1
313.15	0.5	937.7	1
313.15	0.7	932.7	1
313.15	0.9	927.3	1
313.15	1	924.5	1
318.15	0	941.5	1
318.15	0.1	940.5	1
318.15	0.3	938.1	1
318.15	0.4	935.7	1
318.15	0.5	933.4	1
318.15	0.7	928.6	1
318.15	0.9	923.3	1
318.15	1	920.5	1
323.15	0	936.8	1
323.15	0.1	935.8	1
323.15	0.3	933.6	1
323.15	0.4	931.3	1
323.15	0.5	929.1	1
323.15	0.7	924.4	1
323.15	0.9	919.3	1
323.15	1	916.5	1
328.15	0	932	1
328.15	0.1	931.2	1
328.15	0.3	929.1	1
328.15	0.4	926.8	1
328.15	0.5	924.7	1
328.15	0.7	920.2	1
328.15	0.9	915.2	1
328.15	1	912.5	1
333.15	0	927.2	1
333.15	0.1	926.4	1
333.15	0.3	924.6	1
333.15	0.4	922.4	1
333.15	0.5	920.3	1
333.15	0.7	916	1
333.15	0.9	911.1	1
333.15	1	908.5	1
338.15	0	922.4	1
338.15	0.1	921.7	1
338.15	0.3	920	1
338.15	0.4	917.9	1
338.15	0.5	915.9	1
338.15	0.7	911.7	1
338.15	0.9	907	1
338.15	1	904.4	1
343.15	0	917.5	1
343.15	0.1	916.9	1
343.15	0.3	915.4	1
343.15	0.4	913.3	1
343.15	0.5	911.4	1
343.15	0.7	907.4	1
343.15	0.9	902.8	1
343.15	1	900.3	1
348.15	0	912.5	1
348.15	0.1	912	1
348.15	0.3	910.7	1
348.15	0.4	908.7	1
348.15	0.5	906.9	1
348.15	0.7	903.1	1
348.15	0.9	898.6	1
348.15	1	896.2	1
353.15	0	907.5	1
353.15	0.1	907.1	1
353.15	0.3	906	1
353.15	0.4	904.1	1
353.15	0.5	902.4	1
353.15	0.7	898.7	1
353.15	0.9	894.4	1
353.15	1	892.1	1

System: 2-(methylamino)ethanol + 2-methoxyethan-1-ol; phases: Liquid
Fixed: Pressure, kPa = 101.3
Property: Viscosity, Pa*s (Liquid); method: Falling or rolling sphere viscometry
Temperature, K	Mass fraction of 2-(methylamino)ethanol	Viscosity, Pa*s	uncertainty
293.15	0	0.0016855	8.52e-05
293.15	0.1	0.002086	0.000106
293.15	0.3	0.0032825	0.0001665
293.15	0.4	0.0039846	0.0002022
293.15	0.5	0.0049641	0.0002522
293.15	0.7	0.0073639	0.000374
293.15	0.9	0.010982	0.000558
293.15	1	0.013356	0.000677
298.15	0	0.0015218	7.69e-05
298.15	0.1	0.0018656	9.47e-05
298.15	0.3	0.0028687	0.0001454
298.15	0.4	0.0034442	0.0001747
298.15	0.5	0.0042337	0.0002149
298.15	0.7	0.0061294	0.0003111
298.15	0.9	0.0088772	0.0004506
298.15	1	0.010634	0.000539
303.15	0	0.0013805	6.98e-05
303.15	0.1	0.0016775	8.51e-05
303.15	0.3	0.002523	0.0001279
303.15	0.4	0.0030002	0.0001521
303.15	0.5	0.0036445	0.0001849
303.15	0.7	0.0051567	0.0002616
303.15	0.9	0.007286	0.0003697
303.15	1	0.0086122	0.0004363
308.15	0	0.0012578	6.36e-05
308.15	0.1	0.0015156	7.69e-05
308.15	0.3	0.0022335	0.0001132
308.15	0.4	0.0026317	0.0001334
308.15	0.5	0.0031626	0.0001604
308.15	0.7	0.0043844	0.0002224
308.15	0.9	0.0060536	0.0003071
308.15	1	0.00707	0.0003582
313.15	0	0.001151	5.8e-05
313.15	0.1	0.0013755	6.98e-05
313.15	0.3	0.0019883	0.0001007
313.15	0.4	0.0023239	0.0001178
313.15	0.5	0.0027662	0.0001403
313.15	0.7	0.0037621	0.0001908
313.15	0.9	0.005088	0.0002581
313.15	1	0.005883	0.000298
318.15	0	0.0010571	5.34e-05
318.15	0.1	0.0012537	6.36e-05
318.15	0.3	0.0017798	9.02e-05
318.15	0.4	0.002064	0.0001046
318.15	0.5	0.0024347	0.0001234
318.15	0.7	0.0032565	0.0001651
318.15	0.9	0.0043231	0.0002192
318.15	1	0.0049526	0.0002509
323.15	0	0.0009746	4.93e-05
323.15	0.1	0.0011471	5.81e-05
323.15	0.3	0.001601	8.11e-05
323.15	0.4	0.0018429	9.34e-05
323.15	0.5	0.0021559	0.0001093
323.15	0.7	0.0028395	0.0001439
323.15	0.9	0.0037086	0.000188
323.15	1	0.0042143	0.0002135
328.15	0	0.0009016	4.56e-05
328.15	0.1	0.0010534	5.34e-05
328.15	0.3	0.0014464	7.32e-05
328.15	0.4	0.0016543	8.38e-05
328.15	0.5	0.0019198	9.73e-05
328.15	0.7	0.0024926	0.0001263
328.15	0.9	0.0032085	0.0001626
328.15	1	0.0036187	0.0001833
333.15	0	0.0008367	4.23e-05
333.15	0.1	0.0009708	4.92e-05
333.15	0.3	0.0013126	6.65e-05
333.15	0.4	0.0014915	7.55e-05
333.15	0.5	0.0017169	8.7e-05
333.15	0.7	0.0022022	0.0001116
333.15	0.9	0.002798	0.0001418
333.15	1	0.0031344	0.0001588
338.15	0	0.0007788	3.94e-05
338.15	0.1	0.0008975	4.55e-05
338.15	0.3	0.0011958	6.05e-05
338.15	0.4	0.0013507	6.84e-05
338.15	0.5	0.0015447	7.82e-05
338.15	0.7	0.0019581	9.92e-05
338.15	0.9	0.0024556	0.0001245
338.15	1	0.0027358	0.0001386
343.15	0	0.000727	3.67e-05
343.15	0.1	0.0008322	4.21e-05
343.15	0.3	0.0010936	5.54e-05
343.15	0.4	0.0012281	6.22e-05
343.15	0.5	0.0013952	7.07e-05
343.15	0.7	0.0017485	8.86e-05
343.15	0.9	0.0021696	0.0001099
343.15	1	0.0024042	0.0001218
348.15	0	0.000681	3.44e-05
348.15	0.1	0.0007743	3.92e-05
348.15	0.3	0.0010036	5.08e-05
348.15	0.4	0.0011208	5.67e-05
348.15	0.5	0.0012649	6.41e-05
348.15	0.7	0.0015703	7.95e-05
348.15	0.9	0.001928	9.77e-05
348.15	1	0.0021262	0.0001077
353.15	0	0.0006397	3.23e-05
353.15	0.1	0.0007223	3.66e-05
353.15	0.3	0.0009241	4.68e-05
353.15	0.4	0.0010263	5.2e-05
353.15	0.5	0.0011516	5.83e-05
353.15	0.7	0.0014153	7.17e-05
353.15	0.9	0.0017215	8.72e-05
353.15	1	0.0018893	9.57e-05

System: 2-(methylamino)ethanol + 2-ethoxyethan-1-ol; phases: Liquid
Fixed: Pressure, kPa = 101.3
Property: Mass density, kg/m3 (Liquid); method: Vibrating tube method
Temperature, K	Mass fraction of 2-(methylamino)ethanol	Mass density, kg/m3	uncertainty
293.15	0	929.5	1
293.15	0.1	931.6	1
293.15	0.3	934.8	1
293.15	0.4	936	1
293.15	0.5	937.1	1
293.15	0.7	938.8	1
293.15	0.9	940.1	1
293.15	1	940.1	1
298.15	0	925	1
298.15	0.1	927.2	1
298.15	0.3	930.5	1
298.15	0.4	931.8	1
298.15	0.5	932.9	1
298.15	0.7	934.8	1
298.15	0.9	936.2	1
298.15	1	936.2	1
303.15	0	920.5	1
303.15	0.1	922.7	1
303.15	0.3	926.2	1
303.15	0.4	927.6	1
303.15	0.5	928.8	1
303.15	0.7	930.8	1
303.15	0.9	932.2	1
303.15	1	932.3	1
308.15	0	915.9	1
308.15	0.1	918.2	1
308.15	0.3	921.9	1
308.15	0.4	923.3	1
308.15	0.5	924.6	1
308.15	0.7	926.7	1
308.15	0.9	928.2	1
308.15	1	928.4	1
313.15	0	911.3	1
313.15	0.1	913.7	1
313.15	0.3	917.6	1
313.15	0.4	919.1	1
313.15	0.5	920.4	1
313.15	0.7	922.6	1
313.15	0.9	924.3	1
313.15	1	924.5	1
318.15	0	906.6	1
318.15	0.1	909.2	1
318.15	0.3	913.2	1
318.15	0.4	914.7	1
318.15	0.5	916.1	1
318.15	0.7	918.5	1
318.15	0.9	920.3	1
318.15	1	920.5	1
323.15	0	901.9	1
323.15	0.1	904.6	1
323.15	0.3	908.8	1
323.15	0.4	910.4	1
323.15	0.5	911.9	1
323.15	0.7	914.3	1
323.15	0.9	916.2	1
323.15	1	916.5	1
328.15	0	897.2	1
328.15	0.1	899.9	1
328.15	0.3	904.3	1
328.15	0.4	906	1
328.15	0.5	907.5	1
328.15	0.7	910.1	1
328.15	0.9	912.2	1
328.15	1	912.5	1
333.15	0	892.4	1
333.15	0.1	895.3	1
333.15	0.3	899.8	1
333.15	0.4	901.6	1
333.15	0.5	903.2	1
333.15	0.7	905.9	1
333.15	0.9	908.1	1
333.15	1	908.5	1
338.15	0	887.6	1
338.15	0.1	890.5	1
338.15	0.3	895.3	1
338.15	0.4	897.1	1
338.15	0.5	898.8	1
338.15	0.7	901.7	1
338.15	0.9	904	1
338.15	1	904.4	1
343.15	0	882.7	1
343.15	0.1	885.8	1
343.15	0.3	890.7	1
343.15	0.4	892.6	1
343.15	0.5	894.4	1
343.15	0.7	897.4	1
343.15	0.9	899.8	1
343.15	1	900.3	1
348.15	0	877.8	1
348.15	0.1	881	1
348.15	0.3	886.1	1
348.15	0.4	888.1	1
348.15	0.5	889.9	1
348.15	0.7	893.1	1
348.15	0.9	895.6	1
348.15	1	896.2	1
353.15	0	872.8	1
353.15	0.1	876.1	1
353.15	0.3	881.4	1
353.15	0.4	883.5	1
353.15	0.5	885.4	1
353.15	0.7	888.7	1
353.15	0.9	891.4	1
353.15	1	892.1	1

System: 2-(methylamino)ethanol + 2-ethoxyethan-1-ol; phases: Liquid
Fixed: Pressure, kPa = 101.3
Property: Viscosity, Pa*s (Liquid); method: Falling or rolling sphere viscometry
Temperature, K	Mass fraction of 2-(methylamino)ethanol	Viscosity, Pa*s	uncertainty
293.15	0	0.0020397	0.0001034
293.15	0.1	0.0025475	0.0001297
293.15	0.3	0.0038867	0.0001975
293.15	0.4	0.0047081	0.0002393
293.15	0.5	0.0057205	0.0002909
293.15	0.7	0.0081899	0.0004161
293.15	0.9	0.011494	0.000583
293.15	1	0.013356	0.000677
298.15	0	0.0018189	9.22e-05
298.15	0.1	0.0022491	0.0001145
298.15	0.3	0.0033558	0.0001705
298.15	0.4	0.0040209	0.0002043
298.15	0.5	0.0048277	0.0002453
298.15	0.7	0.0067513	0.0003428
298.15	0.9	0.0092524	0.0004696
298.15	1	0.010634	0.000539
303.15	0	0.0016309	8.27e-05
303.15	0.1	0.0019982	0.0001017
303.15	0.3	0.0029204	0.0001483
303.15	0.4	0.0034644	0.000176
303.15	0.5	0.0041155	0.0002091
303.15	0.7	0.005636	0.0002861
303.15	0.9	0.0075651	0.0003838
303.15	1	0.0086122	0.0004363
308.15	0	0.0014703	7.45e-05
308.15	0.1	0.0017851	9.08e-05
308.15	0.3	0.0025604	0.00013
308.15	0.4	0.0030095	0.0001528
308.15	0.5	0.0035406	0.0001798
308.15	0.7	0.00476	0.0002416
308.15	0.9	0.0062672	0.0003179
308.15	1	0.00707	0.0003582
313.15	0	0.0013323	6.75e-05
313.15	0.1	0.0016036	8.15e-05
313.15	0.3	0.00226	0.0001147
313.15	0.4	0.0026339	0.0001337
313.15	0.5	0.0030707	0.0001559
313.15	0.7	0.0040578	0.0002059
313.15	0.9	0.0052549	0.0002665
313.15	1	0.005883	0.000298
318.15	0	0.0012122	6.15e-05
318.15	0.1	0.0014476	7.36e-05
318.15	0.3	0.0020061	0.0001018
318.15	0.4	0.0023204	0.0001178
318.15	0.5	0.0026844	0.0001363
318.15	0.7	0.0034925	0.0001772
318.15	0.9	0.0044532	0.0002258
318.15	1	0.0049526	0.0002509
323.15	0	0.0011078	5.62e-05
323.15	0.1	0.0013125	6.67e-05
323.15	0.3	0.0017914	9.09e-05
323.15	0.4	0.0020569	0.0001044
323.15	0.5	0.0023617	0.0001199
323.15	0.7	0.0030302	0.0001537
323.15	0.9	0.0038119	0.0001933
323.15	1	0.0042143	0.0002135
328.15	0	0.0010163	5.15e-05
328.15	0.1	0.0011952	6.07e-05
328.15	0.3	0.0016075	8.16e-05
328.15	0.4	0.0018339	9.31e-05
328.15	0.5	0.0020911	0.0001061
328.15	0.7	0.0026491	0.0001344
328.15	0.9	0.0032931	0.0001669
328.15	1	0.0036187	0.0001833
333.15	0	0.0009358	4.74e-05
333.15	0.1	0.0010927	5.55e-05
333.15	0.3	0.0014494	7.36e-05
333.15	0.4	0.0016433	8.34e-05
333.15	0.5	0.0018621	9.45e-05
333.15	0.7	0.0023319	0.0001183
333.15	0.9	0.0028656	0.0001453
333.15	1	0.0031344	0.0001588
338.15	0	0.0008646	4.38e-05
338.15	0.1	0.0010021	5.09e-05
338.15	0.3	0.0013125	6.66e-05
338.15	0.4	0.0014795	7.51e-05
338.15	0.5	0.0016669	8.46e-05
338.15	0.7	0.0020653	0.0001047
338.15	0.9	0.002512	0.0001273
338.15	1	0.0027358	0.0001386
343.15	0	0.0008014	4.06e-05
343.15	0.1	0.0009231	4.69e-05
343.15	0.3	0.0011934	6.05e-05
343.15	0.4	0.001338	6.79e-05
343.15	0.5	0.0014992	7.6e-05
343.15	0.7	0.0018394	9.33e-05
343.15	0.9	0.0022181	0.0001124
343.15	1	0.0024042	0.0001218
348.15	0	0.0007452	3.78e-05
348.15	0.1	0.0008526	4.33e-05
348.15	0.3	0.001089	5.52e-05
348.15	0.4	0.0012148	6.16e-05
348.15	0.5	0.0013545	6.87e-05
348.15	0.7	0.0016467	8.35e-05
348.15	0.9	0.0019674	9.97e-05
348.15	1	0.0021262	0.0001077
353.15	0	0.0006952	3.52e-05
353.15	0.1	0.0007896	4.01e-05
353.15	0.3	0.000997	5.06e-05
353.15	0.4	0.0011071	5.62e-05
353.15	0.5	0.0012283	6.23e-05
353.15	0.7	0.0014807	7.51e-05
353.15	0.9	0.0017563	8.9e-05
353.15	1	0.0018893	9.57e-05

System: 2-(methylamino)ethanol + 2-butoxyethan-1-ol; phases: Liquid
Fixed: Pressure, kPa = 101.3
Property: Mass density, kg/m3 (Liquid); method: Vibrating tube method
Temperature, K	Mass fraction of 2-(methylamino)ethanol	Mass density, kg/m3	uncertainty
293.15	0	900.4	1
293.15	0.1	905	1
293.15	0.3	913.6	1
293.15	0.4	917.5	1
293.15	0.5	921.4	1
293.15	0.7	929.2	1
293.15	0.9	936.8	1
293.15	1	940.1	1
298.15	0	896.2	1
298.15	0.1	900.9	1
298.15	0.3	909.5	1
298.15	0.4	913.6	1
298.15	0.5	917.5	1
298.15	0.7	925.2	1
298.15	0.9	932.9	1
298.15	1	936.2	1
303.15	0	892	1
303.15	0.1	896.8	1
303.15	0.3	905.5	1
303.15	0.4	909.5	1
303.15	0.5	913.5	1
303.15	0.7	921.3	1
303.15	0.9	929	1
303.15	1	932.3	1
308.15	0	887.8	1
308.15	0.1	892.6	1
308.15	0.3	901.4	1
308.15	0.4	905.5	1
308.15	0.5	909.4	1
308.15	0.7	917.3	1
308.15	0.9	925	1
308.15	1	928.4	1
313.15	0	883.5	1
313.15	0.1	888.4	1
313.15	0.3	897.3	1
313.15	0.4	901.4	1
313.15	0.5	905.4	1
313.15	0.7	913.3	1
313.15	0.9	921.1	1
313.15	1	924.5	1
318.15	0	879.2	1
318.15	0.1	884.2	1
318.15	0.3	893.1	1
318.15	0.4	897.3	1
318.15	0.5	901.3	1
318.15	0.7	909.3	1
318.15	0.9	917.1	1
318.15	1	920.5	1
323.15	0	874.9	1
323.15	0.1	880	1
323.15	0.3	889	1
323.15	0.4	893.2	1
323.15	0.5	897.2	1
323.15	0.7	905.3	1
323.15	0.9	913.1	1
323.15	1	916.5	1
328.15	0	870.6	1
328.15	0.1	875.7	1
328.15	0.3	884.8	1
328.15	0.4	889	1
328.15	0.5	893.1	1
328.15	0.7	901.2	1
328.15	0.9	909.1	1
328.15	1	912.5	1
333.15	0	866.2	1
333.15	0.1	871.4	1
333.15	0.3	880.6	1
333.15	0.4	884.8	1
333.15	0.5	889	1
333.15	0.7	897.1	1
333.15	0.9	905	1
333.15	1	908.5	1
338.15	0	861.8	1
338.15	0.1	867	1
338.15	0.3	876.3	1
338.15	0.4	880.6	1
338.15	0.5	884.8	1
338.15	0.7	892.9	1
338.15	0.9	900.9	1
338.15	1	904.4	1
343.15	0	857.3	1
343.15	0.1	862.6	1
343.15	0.3	872	1
343.15	0.4	876.3	1
343.15	0.5	880.5	1
343.15	0.7	888.8	1
343.15	0.9	896.8	1
343.15	1	900.3	1
348.15	0	852.8	1
348.15	0.1	858.2	1
348.15	0.3	867.6	1
348.15	0.4	872	1
348.15	0.5	876.3	1
348.15	0.7	884.6	1
348.15	0.9	892.7	1
348.15	1	896.2	1
353.15	0	848.3	1
353.15	0.1	853.7	1
353.15	0.3	863.3	1
353.15	0.4	867.7	1
353.15	0.5	872	1
353.15	0.7	880.3	1
353.15	0.9	888.5	1
353.15	1	892.1	1

System: 2-(methylamino)ethanol + 2-butoxyethan-1-ol; phases: Liquid
Fixed: Pressure, kPa = 101.3
Property: Viscosity, Pa*s (Liquid); method: Falling or rolling sphere viscometry
Temperature, K	Mass fraction of 2-(methylamino)ethanol	Viscosity, Pa*s	uncertainty
293.15	0	0.0032477	0.0001641
293.15	0.1	0.0040158	0.0002036
293.15	0.3	0.0057477	0.0002911
293.15	0.4	0.0066716	0.0003378
293.15	0.5	0.0076323	0.0003865
293.15	0.7	0.0097129	0.000492
293.15	0.9	0.012071	0.000612
293.15	1	0.013356	0.000677
298.15	0	0.002834	0.000143
298.15	0.1	0.003469	0.0001758
298.15	0.3	0.0048618	0.0002462
298.15	0.4	0.0055908	0.0002831
298.15	0.5	0.0063415	0.0003211
298.15	0.7	0.0079292	0.0004016
298.15	0.9	0.0096737	0.0004903
298.15	1	0.010634	0.000539
303.15	0	0.002491	0.000126
303.15	0.1	0.0030199	0.000153
303.15	0.3	0.0041584	0.0002105
303.15	0.4	0.0047392	0.0002399
303.15	0.5	0.0053311	0.0002699
303.15	0.7	0.0065635	0.0003324
303.15	0.9	0.0078933	0.0004
303.15	1	0.0086122	0.0004363
308.15	0	0.0022044	0.0001114
308.15	0.1	0.0026487	0.0001341
308.15	0.3	0.0035843	0.0001814
308.15	0.4	0.0040536	0.0002052
308.15	0.5	0.0045277	0.0002292
308.15	0.7	0.0054982	0.0002784
308.15	0.9	0.0065251	0.0003306
308.15	1	0.00707	0.0003582
313.15	0	0.0019645	9.92e-05
313.15	0.1	0.0023387	0.0001184
313.15	0.3	0.0031121	0.0001575
313.15	0.4	0.0034998	0.0001771
313.15	0.5	0.0038831	0.0001965
313.15	0.7	0.0046567	0.0002358
313.15	0.9	0.0054611	0.0002767
313.15	1	0.005883	0.000298
318.15	0	0.0017593	8.89e-05
318.15	0.1	0.0020769	0.0001051
318.15	0.3	0.0027255	0.0001379
318.15	0.4	0.0030447	0.0001541
318.15	0.5	0.0033581	0.0001699
318.15	0.7	0.003983	0.0002016
318.15	0.9	0.0046208	0.0002341
318.15	1	0.0049526	0.0002509
323.15	0	0.0015843	8e-05
323.15	0.1	0.0018559	9.39e-05
323.15	0.3	0.0024013	0.0001215
323.15	0.4	0.0026672	0.0001349
323.15	0.5	0.0029264	0.0001481
323.15	0.7	0.0034364	0.0001739
323.15	0.9	0.0039482	0.0002
323.15	1	0.0042143	0.0002135
328.15	0	0.0014333	7.24e-05
328.15	0.1	0.0016665	8.43e-05
328.15	0.3	0.0021291	0.0001077
328.15	0.4	0.0023515	0.000119
328.15	0.5	0.002568	0.0001299
328.15	0.7	0.0029892	0.0001513
328.15	0.9	0.0034048	0.0001724
328.15	1	0.0036187	0.0001833
333.15	0	0.0013025	6.58e-05
333.15	0.1	0.0015035	7.61e-05
333.15	0.3	0.0018983	9.6e-05
333.15	0.4	0.0020861	0.0001055
333.15	0.5	0.0022678	0.0001147
333.15	0.7	0.0026186	0.0001325
333.15	0.9	0.0029594	0.0001499
333.15	1	0.0031344	0.0001588
338.15	0	0.0011887	6.01e-05
338.15	0.1	0.0013631	6.9e-05
338.15	0.3	0.0017005	8.6e-05
338.15	0.4	0.0018606	9.41e-05
338.15	0.5	0.0020144	0.0001019
338.15	0.7	0.002309	0.0001169
338.15	0.9	0.0025913	0.0001312
338.15	1	0.0027358	0.0001386
343.15	0	0.0010889	5.5e-05
343.15	0.1	0.0012402	6.27e-05
343.15	0.3	0.0015306	7.74e-05
343.15	0.4	0.001668	8.44e-05
343.15	0.5	0.0017989	9.1e-05
343.15	0.7	0.0020477	0.0001036
343.15	0.9	0.0022842	0.0001157
343.15	1	0.0024042	0.0001218
348.15	0	0.0010012	5.06e-05
348.15	0.1	0.0011331	5.73e-05
348.15	0.3	0.0013841	7e-05
348.15	0.4	0.0015025	7.6e-05
348.15	0.5	0.0016143	8.17e-05
348.15	0.7	0.0018263	9.24e-05
348.15	0.9	0.0020255	0.0001026
348.15	1	0.0021262	0.0001077
353.15	0	0.0009235	4.67e-05
353.15	0.1	0.0010389	5.25e-05
353.15	0.3	0.0012563	6.35e-05
353.15	0.4	0.0013585	6.87e-05
353.15	0.5	0.001455	7.36e-05
353.15	0.7	0.0016369	8.28e-05
353.15	0.9	0.0018061	9.15e-05
353.15	1	0.0018893	9.57e-05
