Measured thermophysical data. Measurements of Surface Tension of R1234yf and R1234ze(E)
Source: J. Chem. Eng. Data, 2018, 10.1021/acs.jced.7b00543
Compound 1: 2,3,3,3-tetrafluoro-1-propene, C3H2F4, InChI=1S/C3H2F4/c1-2(4)3(5,6)7/h1H2, purity 99.95%
Compound 2: trans-1,3,3,3-tetrafluoropropene, C3H2F4, InChI=1S/C3H2F4/c4-2-1-3(5,6)7/h1-2H/b2-1+, purity 99.95%
Compound 3: 2-methylpropane, C4H10, InChI=1S/C4H10/c1-4(2)3/h4H,1-3H3, purity 99.95%

System: 2,3,3,3-tetrafluoro-1-propene; phases: Liquid, Gas
Property: Surface tension liquid-gas, N/m (Liquid); method: Capillary rise
Temperature, K	Surface tension liquid-gas, N/m	uncertainty
242.21	0.013248	0.000206
244.21	0.012976	0.000206
245.22	0.012839	0.000206
248.08	0.012453	0.000206
250.1	0.012182	0.000206
252.25	0.011896	0.000206
255.34	0.011486	0.000206
258.24	0.011106	0.000206
260.34	0.01083	0.000205
263.12	0.010468	0.000205
265.13	0.01021	0.000205
268.11	0.009828	0.000205
270.15	0.009568	0.000205
275.55	0.008889	0.000205
278.58	0.008512	0.000205
280.24	0.008307	0.000205
283.24	0.00794	0.000205
285.32	0.007688	0.000205
288	0.007364	0.000205
290.08	0.007117	0.000205
296.04	0.006415	0.000204
300.01	0.005956	0.000204
305.09	0.005382	0.000204
310.09	0.004829	0.000204
312.28	0.004591	0.000204
315.2	0.004279	0.000204
317.48	0.004038	0.000204
320.48	0.003726	0.000204
322.47	0.003523	0.000204
325.1	0.003259	0.000204
327.3	0.003041	0.000204
330.27	0.002752	0.000204
332.21	0.002568	0.000204
335.26	0.002284	0.000204
337.53	0.002077	0.000204
340.11	0.00185	0.000203
342.54	0.00164	0.000203
345.13	0.001425	0.000203
347.36	0.001244	0.000203
350.21	0.001023	0.000203
355.63	0.000637	0.000203
360.23	0.000349	0.000203
362.34	0.000234	0.000203
365	0.000108	0.000203

System: trans-1,3,3,3-tetrafluoropropene; phases: Liquid, Gas
Property: Surface tension liquid-gas, N/m (Liquid); method: Capillary rise
Temperature, K	Surface tension liquid-gas, N/m	uncertainty
242.01	0.015663	0.000207
245.14	0.015227	0.000207
248.08	0.01482	0.000206
250.11	0.014539	0.000206
255.11	0.013855	0.000206
260.07	0.013184	0.000206
265.12	0.012509	0.000206
268.98	0.011998	0.000206
271.51	0.011666	0.000206
275.65	0.011127	0.000206
280.14	0.010547	0.000205
285.03	0.009923	0.000205
288.19	0.009525	0.000205
290.19	0.009275	0.000205
293.1	0.008913	0.000205
295.07	0.00867	0.000205
300.07	0.008059	0.000205
305.06	0.00746	0.000205
310.06	0.006873	0.000205
315.05	0.006304	0.000204
320.05	0.005724	0.000204
325.03	0.005171	0.000204
330.05	0.004621	0.000204
335.09	0.004087	0.000204
340.08	0.003565	0.000204
345.07	0.003094	0.000204
350.07	0.002589	0.000204
355.03	0.002132	0.000204
360.08	0.001605	0.000203
365.09	0.001171	0.000203
370.07	0.000761	0.000203
375.14	0.000395	0.000203
380.09	0.000109	0.000203

System: 2-methylpropane; phases: Liquid, Gas
Property: Surface tension liquid-gas, N/m (Liquid); method: Capillary rise
Temperature, K	Surface tension liquid-gas, N/m	uncertainty
280.34	0.011988	0.000206
283.22	0.011785	0.000206
285.45	0.011483	0.000206
288.02	0.011173	0.000206
290.14	0.010995	0.000205
293.53	0.010595	0.000205
296.42	0.010235	0.000205
299.37	0.009829	0.000205
302.08	0.009595	0.000205
305.41	0.009223	0.000205
307.43	0.00903	0.000205
310.75	0.008607	0.000205
313.15	0.008314	0.000205
315.62	0.007999	0.000205
318.22	0.007683	0.000205
320.46	0.007584	0.000205
323.41	0.007172	0.000205
325.44	0.007013	0.000205
327.83	0.006731	0.000204
329.85	0.006538	0.000204
330.18	0.006476	0.000204
332.56	0.006214	0.000204
335.58	0.005925	0.000204
338.1	0.005686	0.000204
340.42	0.005479	0.000204
342.74	0.00522	0.000204
345.39	0.004972	0.000204
347.26	0.004847	0.000204
350.12	0.004526	0.000204
