Measured thermophysical data. Experimental Measurement of CO2 Solubility in Aqueous CaCl2 Solution at Temperature from 323.15 to 423.15 K and Pressure up to 20 MPa Using the Conductometric Titration
Source: J. Chem. Eng. Data, 2017, 10.1021/acs.jced.7b00591
Compound 1: water, H2O, InChI=1S/H2O/h1H2, purity 99.9%
Compound 2: carbon dioxide, CO2, InChI=1S/CO2/c2-1-3, purity 99.7%
Compound 3: calcium chloride, CaCl2, InChI=1S/Ca.2ClH/h;2*1H/q+2;;/p-2, purity 96%

System: carbon dioxide + calcium chloride + water; phases: Liquid, Gas
Property: Molality, mol/kg of carbon dioxide (Liquid); method: titration
Molality, mol/kg of calcium chloride	Temperature, K	Pressure, kPa	Molality, mol/kg of carbon dioxide	uncertainty
1	323.15	5070	0.568	0.024
1	323.15	10000	0.829	0.035
1	323.15	15010	0.885	0.037
1	323.15	19980	0.914	0.038
3	323.15	5090	0.29	0.012
3	323.15	10050	0.429	0.018
3	323.15	15020	0.469	0.02
3	323.15	19890	0.498	0.021
6	323.15	5090	0.172	0.007
6	323.15	10080	0.227	0.01
6	323.15	14980	0.247	0.011
6	323.15	19950	0.252	0.011
0	373.15	5050	0.475	0.021
0	373.15	10070	0.804	0.034
0	373.15	14960	1.019	0.043
0	373.15	19900	1.153	0.048
1	373.15	5160	0.337	0.014
1	373.15	10270	0.568	0.024
1	373.15	15170	0.715	0.03
1	373.15	20040	0.816	0.034
3	373.15	5040	0.191	0.008
3	373.15	10040	0.32	0.014
3	373.15	15020	0.387	0.016
3	373.15	20010	0.437	0.019
6	373.15	5240	0.108	0.005
6	373.15	10100	0.171	0.007
6	373.15	15000	0.211	0.009
6	373.15	19910	0.239	0.01
0	423.15	5050	0.386	0.017
0	423.15	10120	0.729	0.031
0	423.15	15100	1.003	0.042
0	423.15	19950	1.174	0.049
1	423.15	5130	0.26	0.011
1	423.15	10180	0.495	0.021
1	423.15	15120	0.658	0.028
1	423.15	19960	0.772	0.033
3	423.15	5130	0.14	0.006
3	423.15	10270	0.262	0.011
3	423.15	15120	0.348	0.015
3	423.15	19960	0.41	0.018
6	423.15	5100	0.087	0.004
6	423.15	10480	0.139	0.006
6	423.15	15290	0.18	0.008
6	423.15	19860	0.207	0.009

System: carbon dioxide + water; phases: Liquid, Gas
Property: Boiling temperature at pressure P, K (Liquid); method: titration
Molality, mol/kg of carbon dioxide	Pressure, kPa	Boiling temperature at pressure P, K	uncertainty
0.475	5050	373.15	
0.804	10070	373.15	
1.019	14960	373.15	
1.153	19900	373.15	
0.386	5050	423.15	
0.729	10120	423.15	
1.003	15100	423.15	
1.174	19950	423.15	
