Measured thermophysical data. Solubility Determination of Nicotinamide and Its Application for the Cocrystallization with Benzoic Acid
Source: J. Chem. Eng. Data, 2018, 10.1021/acs.jced.8b00560
Compound 1: 3-pyridinecarboxamide, C6H6N2O, InChI=1S/C6H6N2O/c7-6(9)5-2-1-3-8-4-5/h1-4H,(H2,7,9), purity 99%
Compound 2: benzoic acid, C7H6O2, InChI=1S/C7H6O2/c8-7(9)6-4-2-1-3-5-6/h1-5H,(H,8,9), purity 99%
Compound 3: ethanol, C2H6O, InChI=1S/C2H6O/c1-2-3/h3H,2H2,1H3, purity 99.5%
Compound 4: methanol, CH4O, InChI=1S/CH4O/c1-2/h2H,1H3, purity 99.5%
Compound 5: propan-1-ol, C3H8O, InChI=1S/C3H8O/c1-2-3-4/h4H,2-3H2,1H3, purity 99.5%
Compound 6: propan-2-ol, C3H8O, InChI=1S/C3H8O/c1-3(2)4/h3-4H,1-2H3, purity 99.5%
Compound 7: butan-1-ol, C4H10O, InChI=1S/C4H10O/c1-2-3-4-5/h5H,2-4H2,1H3, purity 99.5%
Compound 8: 2-methyl-1-propanol, C4H10O, InChI=1S/C4H10O/c1-4(2)3-5/h4-5H,3H2,1-2H3, purity 99.5%
Compound 9: acetone, C3H6O, InChI=1S/C3H6O/c1-3(2)4/h1-2H3, purity 99.5%
Compound 10: ethyl acetate, C4H8O2, InChI=1S/C4H8O2/c1-3-6-4(2)5/h3H2,1-2H3, purity 99.5%
Compound 11: methyl ethanoate, C3H6O2, InChI=1S/C3H6O2/c1-3(4)5-2/h1-2H3, purity 99.5%
Compound 12: butyl ethanoate, C6H12O2, InChI=1S/C6H12O2/c1-3-4-5-8-6(2)7/h3-5H2,1-2H3, purity 99.5%
Compound 13: water, H2O, InChI=1S/H2O/h1H2, purity 99.9%

System: 3-pyridinecarboxamide; phases: Crystal, Liquid, Air at 1 atmosphere
Property: Triple point temperature, K (Crystal); method: DSC
Triple point temperature, K	uncertainty
398.5	3.1

System: benzoic acid; phases: Crystal, Liquid, Air at 1 atmosphere
Property: Triple point temperature, K (Crystal); method: DSC
Triple point temperature, K	uncertainty
392.5	3.1

System: 3-pyridinecarboxamide + water; phases: Liquid, Crystal
Fixed: Pressure, kPa = 100
Property: Mole fraction of 3-pyridinecarboxamide (Liquid); method: gravimetric
Temperature, K	Mole fraction of 3-pyridinecarboxamide	uncertainty
283.15	0.0015698	5.18e-05
288.15	0.0021787	7.09e-05
293.15	0.0027492	8.92e-05
298.15	0.0035198	0.0001145
303.15	0.0046454	0.0001504
308.15	0.0055742	0.00018
313.15	0.0067538	0.0002185
318.15	0.0084383	0.0002735
323.15	0.010726	0.000347

System: 3-pyridinecarboxamide + ethanol; phases: Liquid, Crystal
Fixed: Pressure, kPa = 100
Property: Mole fraction of 3-pyridinecarboxamide (Liquid); method: gravimetric
Temperature, K	Mole fraction of 3-pyridinecarboxamide	uncertainty
283.15	0.026328	0.000852
288.15	0.032035	0.001033
293.15	0.037426	0.001207
298.15	0.044441	0.001434
303.15	0.053669	0.001732
308.15	0.06384	0.00206
313.15	0.076572	0.002471
318.15	0.091225	0.002944
323.15	0.10975	0.00354

System: 3-pyridinecarboxamide + methanol; phases: Liquid, Crystal
Fixed: Pressure, kPa = 100
Property: Mole fraction of 3-pyridinecarboxamide (Liquid); method: gravimetric
Temperature, K	Mole fraction of 3-pyridinecarboxamide	uncertainty
283.15	0.054143	0.001748
288.15	0.064284	0.002072
293.15	0.074823	0.002411
298.15	0.087593	0.002822
303.15	0.10194	0.00329
308.15	0.12087	0.0039
313.15	0.1413	0.00455
318.15	0.16554	0.00533
323.15	0.19172	0.00617

System: 3-pyridinecarboxamide + propan-1-ol; phases: Liquid, Crystal
Fixed: Pressure, kPa = 100
Property: Mole fraction of 3-pyridinecarboxamide (Liquid); method: gravimetric
Temperature, K	Mole fraction of 3-pyridinecarboxamide	uncertainty
283.15	0.021853	0.000707
288.15	0.026555	0.000858
293.15	0.032065	0.001034
298.15	0.037762	0.001218
303.15	0.044966	0.001451
308.15	0.0542	0.001749
313.15	0.064701	0.002087
318.15	0.076554	0.002471
323.15	0.09238	0.00298

System: 3-pyridinecarboxamide + propan-2-ol; phases: Liquid, Crystal
Fixed: Pressure, kPa = 100
Property: Mole fraction of 3-pyridinecarboxamide (Liquid); method: gravimetric
Temperature, K	Mole fraction of 3-pyridinecarboxamide	uncertainty
283.15	0.018685	0.000605
288.15	0.022983	0.000743
293.15	0.02805	0.000905
298.15	0.032755	0.001057
303.15	0.039572	0.001278
308.15	0.04803	0.00155
313.15	0.057296	0.001848
318.15	0.067323	0.002171
323.15	0.080119	0.002582

System: 3-pyridinecarboxamide + butan-1-ol; phases: Liquid, Crystal
Fixed: Pressure, kPa = 100
Property: Mole fraction of 3-pyridinecarboxamide (Liquid); method: gravimetric
Temperature, K	Mole fraction of 3-pyridinecarboxamide	uncertainty
283.15	0.023531	0.000759
288.15	0.027438	0.000884
293.15	0.031498	0.001014
298.15	0.036158	0.001164
303.15	0.041586	0.001339
308.15	0.048239	0.001554
313.15	0.056565	0.001823
318.15	0.066364	0.002139
323.15	0.077434	0.002493

System: 3-pyridinecarboxamide + 2-methyl-1-propanol; phases: Liquid, Crystal
Fixed: Pressure, kPa = 100
Property: Mole fraction of 3-pyridinecarboxamide (Liquid); method: gravimetric
Temperature, K	Mole fraction of 3-pyridinecarboxamide	uncertainty
283.15	0.022156	0.000712
288.15	0.024757	0.000797
293.15	0.029197	0.000941
298.15	0.034519	0.001112
303.15	0.039249	0.001264
308.15	0.045637	0.001471
313.15	0.054437	0.001755
318.15	0.063735	0.002055
323.15	0.075449	0.002431

System: 3-pyridinecarboxamide + butyl ethanoate; phases: Liquid, Crystal
Fixed: Pressure, kPa = 100
Property: Mole fraction of 3-pyridinecarboxamide (Liquid); method: gravimetric
Temperature, K	Mole fraction of 3-pyridinecarboxamide	uncertainty
283.15	0.0093583	0.0003001
288.15	0.0095522	0.0003064
293.15	0.010036	0.000322
298.15	0.010726	0.000344
303.15	0.011406	0.000366
308.15	0.012431	0.000399
313.15	0.01353	0.00043
318.15	0.015349	0.000494
323.15	0.018121	0.000584

System: 3-pyridinecarboxamide + methyl ethanoate; phases: Liquid, Crystal
Fixed: Pressure, kPa = 100
Property: Mole fraction of 3-pyridinecarboxamide (Liquid); method: gravimetric
Temperature, K	Mole fraction of 3-pyridinecarboxamide	uncertainty
283.15	0.009286	0.000298
288.15	0.010136	0.000326
293.15	0.011741	0.000378
298.15	0.013526	0.000435
303.15	0.01555	0.000501
308.15	0.017883	0.000576
313.15	0.02091	0.00067
318.15	0.023513	0.000757
323.15	0.027245	0.000877

System: 3-pyridinecarboxamide + acetone; phases: Liquid, Crystal
Fixed: Pressure, kPa = 100
Property: Mole fraction of 3-pyridinecarboxamide (Liquid); method: gravimetric
Temperature, K	Mole fraction of 3-pyridinecarboxamide	uncertainty
283.15	0.011586	0.000697
288.15	0.013385	0.000805
293.15	0.016441	0.000989
298.15	0.019088	0.001148
303.15	0.023367	0.001406
308.15	0.028571	0.001719
313.15	0.034164	0.002054
318.15	0.039229	0.002359
323.15	0.047243	0.002841

System: 3-pyridinecarboxamide + ethyl acetate; phases: Liquid, Crystal
Fixed: Pressure, kPa = 100
Property: Mole fraction of 3-pyridinecarboxamide (Liquid); method: gravimetric
Temperature, K	Mole fraction of 3-pyridinecarboxamide	uncertainty
283.15	0.0079693	0.0004787
288.15	0.0087094	0.0005233
293.15	0.010006	0.000601
298.15	0.011208	0.000674
303.15	0.012899	0.000775
308.15	0.014465	0.000869
313.15	0.01634	0.000982
318.15	0.018182	0.001093
323.15	0.021299	0.00128

System: 3-pyridinecarboxamide + benzoic acid; phases: Liquid, Crystal of intercomponent compound 1
Property: Solid-liquid equilibrium temperature, K (Liquid); method: DTA
Mole fraction of 3-pyridinecarboxamide	Pressure, kPa	Solid-liquid equilibrium temperature, K	uncertainty
0.5	100	360	3
