Measured thermophysical data. Effect of the Presence of MEA on the CO2 Capture Ability of Superbase Ionic Liquids
Source: J. Chem. Eng. Data, 2016, 10.1021/acs.jced.5b00710
Compound 1: 2-aminoethan-1-ol, C2H7NO, InChI=1S/C2H7NO/c3-1-2-4/h4H,1-3H2, purity 99%
Compound 2: water, H2O, InChI=1S/H2O/h1H2, purity 99.9%
Compound 3: trihexyl(tetradecyl)phosphonium 1,2,4-triazolide, C34H70N3P, InChI=1S/C32H68P.C2H2N3/c1-5-9-13-17-18-19-20-21-22-23-24-28-32-33(29-25-14-10-6-2,30-26-15-11-7-3)31-27-16-12-8-4;1-3-2-5-4-1/h5-32H2,1-4H3;1-2H/q+1;-1
Compound 4: trihexyl(tetradecyl)phosphonium benzotriazolide, C38H72N3P, InChI=1S/C32H68P.C6H4N3/c1-5-9-13-17-18-19-20-21-22-23-24-28-32-33(29-25-14-10-6-2,30-26-15-11-7-3)31-27-16-12-8-4;1-2-4-6-5(3-1)7-9-8-6/h5-32H2,1-4H3;1-4H/q+1;-1
Compound 5: trihexyl(tetradecyl)phosphonium 1,2,3-triazolide, C34H70N3P, InChI=1S/C32H68P.C2H2N3/c1-5-9-13-17-18-19-20-21-22-23-24-28-32-33(29-25-14-10-6-2,30-26-15-11-7-3)31-27-16-12-8-4;1-2-4-5-3-1/h5-32H2,1-4H3;1-2H/q+1;-1
Compound 6: trihexyl(tetradecyl)phosphonium benzimidazolide, C39H73N2P, InChI=1S/C32H68P.C7H5N2/c1-5-9-13-17-18-19-20-21-22-23-24-28-32-33(29-25-14-10-6-2,30-26-15-11-7-3)31-27-16-12-8-4;1-2-4-7-6(3-1)8-5-9-7/h5-32H2,1-4H3;1-5H/q+1;-1
Compound 7: trihexyl(tetradecyl)phosphonium imidazolide, C35H71N2P, InChI=1S/C32H68P.C3H3N2/c1-5-9-13-17-18-19-20-21-22-23-24-28-32-33(29-25-14-10-6-2,30-26-15-11-7-3)31-27-16-12-8-4;1-2-5-3-4-1/h5-32H2,1-4H3;1-3H/q+1;-1
Compound 8: trihexyl(tetradecyl)phosphonium bis[(trifluoromethyl)sulfonyl]imide, C34H68F6NO4PS2, InChI=1S/C32H68P.C2F6NO4S2/c1-5-9-13-17-18-19-20-21-22-23-24-28-32-33(29-25-14-10-6-2,30-26-15-11-7-3)31-27-16-12-8-4;3-1(4,5)14(10,11)9-15(12,13)2(6,7)8/h5-32H2,1-4H3;/q+1;-1
Compound 9: carbon dioxide, CO2, InChI=1S/CO2/c2-1-3, purity 99.99%

System: 2-aminoethan-1-ol + water + trihexyl(tetradecyl)phosphonium 1,2,4-triazolide; phases: Liquid mixture 1, Liquid mixture 2
Property: Mass fraction of 2-aminoethan-1-ol (Liquid mixture 1); method: NMR + Karl Fischer titration
Mass fraction of water	Temperature, K	Pressure, kPa	Mass fraction of 2-aminoethan-1-ol	uncertainty
0.008	295.15	101	0.379	0.009

System: 2-aminoethan-1-ol + water + trihexyl(tetradecyl)phosphonium 1,2,4-triazolide; phases: Liquid
Property: Viscosity, Pa*s (Liquid); method: Cone and plate viscometry
Mass fraction of water	Temperature, K	Pressure, kPa	Amount ratio of solute to solvent of trihexyl(tetradecyl)phosphonium 1,2,4-triazolide	Viscosity, Pa*s	uncertainty
0.0078	298.15	101	1	0.169	0.005

System: 2-aminoethan-1-ol + water + trihexyl(tetradecyl)phosphonium 1,2,3-triazolide; phases: Liquid mixture 1, Liquid mixture 2
Property: Mass fraction of 2-aminoethan-1-ol (Liquid mixture 1); method: NMR + Karl Fischer titration
Mass fraction of water	Temperature, K	Pressure, kPa	Mass fraction of 2-aminoethan-1-ol	uncertainty
0.006	295.15	101	0.409	0.01

System: 2-aminoethan-1-ol + water + trihexyl(tetradecyl)phosphonium 1,2,3-triazolide; phases: Liquid
Property: Viscosity, Pa*s (Liquid); method: Cone and plate viscometry
Mass fraction of water	Temperature, K	Pressure, kPa	Amount ratio of solute to solvent of trihexyl(tetradecyl)phosphonium 1,2,3-triazolide	Viscosity, Pa*s	uncertainty
0.0054	298.15	101	1	0.154	0.004

System: 2-aminoethan-1-ol + water + trihexyl(tetradecyl)phosphonium benzotriazolide; phases: Liquid mixture 1, Liquid mixture 2
Property: Mass fraction of 2-aminoethan-1-ol (Liquid mixture 1); method: NMR + Karl Fischer titration
Mass fraction of water	Temperature, K	Pressure, kPa	Mass fraction of 2-aminoethan-1-ol	uncertainty
0.002	295.15	101	0.325	0.008

System: 2-aminoethan-1-ol + water + trihexyl(tetradecyl)phosphonium benzotriazolide; phases: Liquid
Property: Viscosity, Pa*s (Liquid); method: Cone and plate viscometry
Mass fraction of water	Temperature, K	Pressure, kPa	Amount ratio of solute to solvent of trihexyl(tetradecyl)phosphonium benzotriazolide	Viscosity, Pa*s	uncertainty
0.0014	298.15	101	1	0.197	0.006

System: 2-aminoethan-1-ol + water + trihexyl(tetradecyl)phosphonium benzimidazolide; phases: Liquid mixture 1, Liquid mixture 2
Property: Mass fraction of 2-aminoethan-1-ol (Liquid mixture 1); method: NMR + Karl Fischer titration
Mass fraction of water	Temperature, K	Pressure, kPa	Mass fraction of 2-aminoethan-1-ol	uncertainty
0.008	295.15	101	0.261	0.006

System: 2-aminoethan-1-ol + water + trihexyl(tetradecyl)phosphonium benzimidazolide; phases: Liquid
Property: Viscosity, Pa*s (Liquid); method: Cone and plate viscometry
Mass fraction of water	Temperature, K	Pressure, kPa	Amount ratio of solute to solvent of trihexyl(tetradecyl)phosphonium benzimidazolide	Viscosity, Pa*s	uncertainty
0.0084	298.15	101	1	0.336	0.014

System: 2-aminoethan-1-ol + water + trihexyl(tetradecyl)phosphonium imidazolide; phases: Liquid mixture 1, Liquid mixture 2
Property: Mass fraction of trihexyl(tetradecyl)phosphonium imidazolide (Liquid mixture 1); method: NMR + Karl Fischer titration
Mass fraction of water	Temperature, K	Pressure, kPa	Mass fraction of trihexyl(tetradecyl)phosphonium imidazolide	uncertainty
0.009	295.15	101	0.316	0.007

System: 2-aminoethan-1-ol + water + trihexyl(tetradecyl)phosphonium imidazolide; phases: Liquid
Property: Viscosity, Pa*s (Liquid); method: Cone and plate viscometry
Mass fraction of water	Temperature, K	Pressure, kPa	Amount ratio of solute to solvent of trihexyl(tetradecyl)phosphonium imidazolide	Viscosity, Pa*s	uncertainty
0.011	298.15	101	1	0.168	0.004

System: 2-aminoethan-1-ol + trihexyl(tetradecyl)phosphonium bis[(trifluoromethyl)sulfonyl]imide; phases: Liquid mixture 1, Liquid mixture 2
Property: Mass fraction of trihexyl(tetradecyl)phosphonium bis[(trifluoromethyl)sulfonyl]imide (Liquid mixture 1); method: NMR + Karl Fischer titration
Temperature, K	Pressure, kPa	Mass fraction of trihexyl(tetradecyl)phosphonium bis[(trifluoromethyl)sulfonyl]imide	uncertainty
295.15	101	0.203	0.005

System: 2-aminoethan-1-ol + trihexyl(tetradecyl)phosphonium bis[(trifluoromethyl)sulfonyl]imide; phases: Liquid
Property: Viscosity, Pa*s (Liquid); method: Cone and plate viscometry
Amount ratio of solute to solvent of trihexyl(tetradecyl)phosphonium bis[(trifluoromethyl)sulfonyl]imide	Temperature, K	Pressure, kPa	Viscosity, Pa*s	uncertainty
1	298.15	101	0.09	0.002

System: carbon dioxide + trihexyl(tetradecyl)phosphonium 1,2,4-triazolide; phases: Liquid, Gas
Property: Mass fraction of carbon dioxide (Liquid); method: gravimetric
Temperature, K	Pressure, kPa	Mass fraction of carbon dioxide	uncertainty
295.15	100	0.057	0.001

System: carbon dioxide + trihexyl(tetradecyl)phosphonium 1,2,3-triazolide; phases: Liquid, Gas
Property: Mass fraction of carbon dioxide (Liquid); method: gravimetric
Temperature, K	Pressure, kPa	Mass fraction of carbon dioxide	uncertainty
295.15	100	0.0584	0.001

System: carbon dioxide + trihexyl(tetradecyl)phosphonium benzotriazolide; phases: Liquid, Gas
Property: Mass fraction of carbon dioxide (Liquid); method: gravimetric
Temperature, K	Pressure, kPa	Mass fraction of carbon dioxide	uncertainty
295.15	100	0.0414	0.001

System: carbon dioxide + trihexyl(tetradecyl)phosphonium benzimidazolide; phases: Liquid, Gas
Property: Mass fraction of carbon dioxide (Liquid); method: gravimetric
Temperature, K	Pressure, kPa	Mass fraction of carbon dioxide	uncertainty
295.15	100	0.0568	0.001

System: carbon dioxide + trihexyl(tetradecyl)phosphonium imidazolide; phases: Liquid, Gas
Property: Mass fraction of carbon dioxide (Liquid); method: gravimetric
Temperature, K	Pressure, kPa	Mass fraction of carbon dioxide	uncertainty
295.15	100	0.0594	0.001

System: carbon dioxide + water + trihexyl(tetradecyl)phosphonium 1,2,4-triazolide; phases: Liquid, Gas
Property: Mass fraction of carbon dioxide (Liquid); method: gravimetric
Mass fraction of water	Temperature, K	Pressure, kPa	Mass fraction of carbon dioxide	uncertainty
0.1127	295.15	100	0.0724	0.001

System: carbon dioxide + water + trihexyl(tetradecyl)phosphonium 1,2,3-triazolide; phases: Liquid, Gas
Property: Mass fraction of carbon dioxide (Liquid); method: gravimetric
Mass fraction of water	Temperature, K	Pressure, kPa	Mass fraction of carbon dioxide	uncertainty
0.1157	295.15	100	0.0291	0.001

System: carbon dioxide + water + trihexyl(tetradecyl)phosphonium benzotriazolide; phases: Liquid, Gas
Property: Mass fraction of carbon dioxide (Liquid); method: gravimetric
Mass fraction of water	Temperature, K	Pressure, kPa	Mass fraction of carbon dioxide	uncertainty
0.0742	295.15	100	0.0207	0.001

System: carbon dioxide + water + trihexyl(tetradecyl)phosphonium benzimidazolide; phases: Liquid, Gas
Property: Mass fraction of carbon dioxide (Liquid); method: gravimetric
Mass fraction of water	Temperature, K	Pressure, kPa	Mass fraction of carbon dioxide	uncertainty
0.0842	295.15	100	0.0783	0.001

System: carbon dioxide + water + trihexyl(tetradecyl)phosphonium imidazolide; phases: Liquid, Gas
Property: Mass fraction of carbon dioxide (Liquid); method: gravimetric
Mass fraction of water	Temperature, K	Pressure, kPa	Mass fraction of carbon dioxide	uncertainty
0.1159	295.15	100	0.0654	0.001
