Measured thermophysical data. Isothermal Vapor-Liquid Equilibrium of the Absorption Working Pairs (HFC-32 + DMETrEG, HFC-32 + NMP) at Temperatures from 293.15 to 343.15 K
Source: J. Chem. Eng. Data, 2019, 10.1021/acs.jced.9b00117
Compound 1: difluoromethane, CH2F2, InChI=1S/CH2F2/c2-1-3/h1H2
Compound 2: 2,5,8,11-tetraoxadodecane, C8H18O4, InChI=1S/C8H18O4/c1-9-3-5-11-7-8-12-6-4-10-2/h3-8H2,1-2H3
Compound 3: N-methylpyrrolidone, C5H9NO, InChI=1S/C5H9NO/c1-6-4-2-3-5(6)7/h2-4H2,1H3

System: difluoromethane + 2,5,8,11-tetraoxadodecane; phases: Liquid, Gas
Property: Vapor or sublimation pressure, kPa (Liquid); method: Closed cell (Static) method
Temperature, K	Mole fraction of difluoromethane	Vapor or sublimation pressure, kPa	uncertainty
293.15	0.2204	175.7	20.9
293.15	0.3122	260.4	24.1
293.15	0.4127	360	28.6
293.15	0.5307	482.2	34.7
293.15	0.6006	566	41.8
293.15	0.6797	684	51.5
293.15	0.7731	861.5	63.4
293.15	0.8499	1033.9	76.2
293.15	0.927	1242.1	89.1
293.15	0.983	1404.1	92.8
303.15	0.2807	299.3	29.3
303.15	0.5108	581.9	42.6
303.15	0.6316	779.7	57
303.15	0.758	1034.3	75.4
303.15	0.8313	1261.7	98.1
303.15	0.8544	1340	95.3
303.15	0.9128	1529.3	114.5
303.15	0.9785	1814.3	141.3
313.15	0.3395	497.9	42.3
313.15	0.5054	783.9	58.4
313.15	0.6228	1051	74.5
313.15	0.7624	1372.5	94.5
313.15	0.8296	1641.8	124.6
313.15	0.8899	1906.7	143.7
313.15	0.9777	2350.1	169.6
323.15	0.268	471.9	48.6
323.15	0.4652	873.5	66.4
323.15	0.6454	1317.6	92.6
323.15	0.7284	1620.8	120.6
323.15	0.7998	1931.1	144.2
323.15	0.8859	2375.4	177
323.15	0.9752	2953.4	210.2
333.15	0.2742	591.8	57.5
333.15	0.4837	1084.6	82.4
333.15	0.6662	1684	117.7
333.15	0.7624	2082.5	150.3
333.15	0.8503	2557	178.6
333.15	0.8859	2738.4	223.4
333.15	0.9396	3283.8	274.2
343.15	0.2602	665.3	66.2
343.15	0.3803	993.7	81.7
343.15	0.532	1474.1	106.8
343.15	0.672	1979.9	147.7
343.15	0.8111	2832.9	201.4
343.15	0.8705	3211.8	220.7

System: difluoromethane + N-methylpyrrolidone; phases: Liquid, Gas
Property: Vapor or sublimation pressure, kPa (Liquid); method: Closed cell (Static) method
Temperature, K	Mole fraction of difluoromethane	Vapor or sublimation pressure, kPa	uncertainty
323.15	0.2045	335.2	50.1
323.15	0.3548	659.2	67.3
323.15	0.4928	983.6	93.7
323.15	0.578	1299.3	130
323.15	0.5941	1357.6	133.1
323.15	0.691	1817.2	169.9
323.15	0.7446	2105.3	192.9
333.15	0.2228	466.2	67.3
333.15	0.4061	976.9	95.5
333.15	0.5613	1484.9	134.2
333.15	0.5762	1560.2	139
333.15	0.6398	1842.3	169.5
333.15	0.6825	2065.6	196
333.15	0.7525	2502	239
343.15	0.2236	508.8	72.2
343.15	0.3569	914.8	95.7
343.15	0.5024	1423	137
343.15	0.575	1847.2	180.6
343.15	0.6796	2429.8	230.3
343.15	0.7481	3056.6	295.9
