Measured thermophysical data. Mutual Influence of Furfural and Furancarboxylic Acids on Their Solubility in Aqueous Solutions: Experiments and Perturbed-Chain Statistical Associating Fluid Theory (PC-SAFT) Predictions
Source: J. Chem. Eng. Data, 2018, 10.1021/acs.jced.7b01039
Compound 1: ethanol, C2H6O, InChI=1S/C2H6O/c1-2-3/h3H,2H2,1H3, purity 99.9%
Compound 2: 2-furaldehyde, C5H4O2, InChI=1S/C5H4O2/c6-4-5-2-1-3-7-5/h1-4H, purity 99%
Compound 3: 2-furancarboxylic acid, C5H4O3, InChI=1S/C5H4O3/c6-5(7)4-2-1-3-8-4/h1-3H,(H,6,7), purity 98%
Compound 4: 5-formyl-2-furancarboxylic acid, C6H4O4, InChI=1S/C6H4O4/c7-3-4-1-2-5(10-4)6(8)9/h1-3H,(H,8,9), purity 98%
Compound 5: 2,5-furandicarboxylic acid, C6H4O5, InChI=1S/C6H4O5/c7-5(8)3-1-2-4(11-3)6(9)10/h1-2H,(H,7,8)(H,9,10), purity 98%
Compound 6: water, H2O, InChI=1S/H2O/h1H2, purity 99.9%

System: 2-furaldehyde + water; phases: Liquid mixture 1, Liquid mixture 2
Property: Mass fraction of 2-furaldehyde (Liquid mixture 1); method: Titration method
Temperature, K	Pressure, kPa	Mass fraction of 2-furaldehyde	uncertainty
308.15	100	0.102	0.003

System: 5-formyl-2-furancarboxylic acid + water + ethanol; phases: Liquid, Crystal
Fixed: Pressure, kPa = 100
Property: Mass fraction of 5-formyl-2-furancarboxylic acid (Liquid); method: Titration method
Temperature, K	Solvent: Mass fraction of water	Mass fraction of 5-formyl-2-furancarboxylic acid	uncertainty
291.15	0	0.0549	0.002
298.15	0	0.0625	0.002
305.15	0	0.0712	0.002
310.15	0	0.0777	0.002
318.15	0	0.0899	0.002
308.15	0.25	0.0916	0.0022
308.15	0.5	0.0587	0.0022
308.15	0.75	0.0209	0.002
291.15	1	0.0057	0.002
298.15	1	0.00732	0.002
305.15	1	0.00823	0.002
308.15	1	0.0119	0.002
310.15	1	0.00938	0.002
318.15	1	0.0102	0.002

System: 2-furancarboxylic acid + water; phases: Liquid, Crystal
Property: Mass fraction of 2-furancarboxylic acid (Liquid); method: Titration method
Temperature, K	Pressure, kPa	Mass fraction of 2-furancarboxylic acid	uncertainty
308.15	100	0.0686	0.002

System: 2,5-furandicarboxylic acid + water + ethanol; phases: Liquid, Crystal
Fixed: Pressure, kPa = 100
Property: Mass fraction of 2,5-furandicarboxylic acid (Liquid); method: Titration method
Temperature, K	Solvent: Mass fraction of water	Mass fraction of 2,5-furandicarboxylic acid	uncertainty
298.15	0	0.00889	0.002
305.15	0	0.0105	0.002
310.15	0	0.0113	0.002
318.15	0	0.0144	0.002
308.15	0.25	0.0167	0.002
308.15	0.5	0.0113	0.002
308.15	0.75	0.00335	0.002
291.15	1	0.000628	0.000628
298.15	1	0.000699	0.000699
305.15	1	0.00105	0.00105
308.15	1	0.00146	0.00146
310.15	1	0.00115	0.00115
318.15	1	0.00141	0.00141

System: 5-formyl-2-furancarboxylic acid + ethanol; phases: Liquid, Crystal
Fixed: Pressure, kPa = 100
Property: Mass fraction of 5-formyl-2-furancarboxylic acid (Liquid); method: Titration method
Temperature, K	Mass fraction of 5-formyl-2-furancarboxylic acid	uncertainty
291.15	0.0549	0.002
298.15	0.0625	0.002
305.15	0.0712	0.002
310.15	0.0777	0.002
318.15	0.0899	0.002

System: 5-formyl-2-furancarboxylic acid + water; phases: Liquid, Crystal
Fixed: Pressure, kPa = 100
Property: Mass fraction of 5-formyl-2-furancarboxylic acid (Liquid); method: Titration method
Temperature, K	Mass fraction of 5-formyl-2-furancarboxylic acid	uncertainty
291.15	0.0057	0.002
298.15	0.00732	0.002
305.15	0.00823	0.002
308.15	0.0119	0.002
310.15	0.00938	0.002
318.15	0.0102	0.002

System: 2,5-furandicarboxylic acid + ethanol; phases: Liquid, Crystal
Fixed: Pressure, kPa = 100
Property: Mass fraction of 2,5-furandicarboxylic acid (Liquid); method: Titration method
Temperature, K	Mass fraction of 2,5-furandicarboxylic acid	uncertainty
298.15	0.00889	0.002
305.15	0.0105	0.002
310.15	0.0113	0.002
318.15	0.0144	0.002

System: 2,5-furandicarboxylic acid + water; phases: Liquid, Crystal
Fixed: Pressure, kPa = 100
Property: Mass fraction of 2,5-furandicarboxylic acid (Liquid); method: Titration method
Temperature, K	Mass fraction of 2,5-furandicarboxylic acid	uncertainty
291.15	0.000628	0.000628
298.15	0.000699	0.000699
305.15	0.00105	0.00105
308.15	0.00146	0.00146
310.15	0.00115	0.00115
318.15	0.00141	0.00141

System: 2-furaldehyde + 2-furancarboxylic acid + water; phases: Liquid mixture 1, Liquid mixture 2
Fixed: Pressure, kPa = 100
Fixed: Temperature, K = 308.15
Property: Mass fraction of 2-furancarboxylic acid (Liquid mixture 1); method: Chromatography
Mass fraction of 2-furaldehyde	Mass fraction of 2-furancarboxylic acid	uncertainty
0.102	0.0163	0.002
0.102	0.0318	0.002
0.101	0.0306	0.002

System: 2-furaldehyde + 2-furancarboxylic acid + water; phases: Liquid, Crystal
Fixed: Pressure, kPa = 100
Fixed: Temperature, K = 308.15
Property: Mass fraction of 2-furaldehyde (Liquid); method: Chromatography
Mass fraction of 2-furancarboxylic acid	Mass fraction of 2-furaldehyde	uncertainty
0.102	0.0282	0.0024
0.134	0.0507	0.0029
0.156	0.0856	0.0038

System: 2-furaldehyde + 5-formyl-2-furancarboxylic acid + water; phases: Liquid mixture 1, Liquid mixture 2
Fixed: Pressure, kPa = 100
Fixed: Temperature, K = 308.15
Property: Mass fraction of 5-formyl-2-furancarboxylic acid (Liquid mixture 1); method: Chromatography
Mass fraction of 2-furaldehyde	Mass fraction of 5-formyl-2-furancarboxylic acid	uncertainty
0.102	0.00198	0.00198
0.103	0.00352	0.002
0.102	0.00491	0.002

System: 2-furaldehyde + 5-formyl-2-furancarboxylic acid + water; phases: Liquid, Crystal
Fixed: Pressure, kPa = 100
Fixed: Temperature, K = 308.15
Property: Mass fraction of 2-furaldehyde (Liquid); method: Chromatography
Mass fraction of 5-formyl-2-furancarboxylic acid	Mass fraction of 2-furaldehyde	uncertainty
0.0208	0.0335	0.002
0.0216	0.063	0.002
0.0273	0.092	0.002

System: 2-furaldehyde + 2,5-furandicarboxylic acid + water; phases: Liquid mixture 1, Liquid mixture 2
Fixed: Pressure, kPa = 100
Fixed: Temperature, K = 308.15
Property: Mass fraction of 2,5-furandicarboxylic acid (Liquid mixture 1); method: Chromatography
Mass fraction of 2-furaldehyde	Mass fraction of 2,5-furandicarboxylic acid	uncertainty
0.101	0.000217	0.000217
0.103	0.000438	0.000438
0.103	0.000978	0.000978

System: 2-furaldehyde + 2,5-furandicarboxylic acid + water; phases: Liquid, Crystal
Fixed: Pressure, kPa = 100
Fixed: Temperature, K = 308.15
Property: Mass fraction of 2-furaldehyde (Liquid); method: Chromatography
Mass fraction of 2,5-furandicarboxylic acid	Mass fraction of 2-furaldehyde	uncertainty
0.00218	0.0363	0.002
0.0026	0.0678	0.002
0.00304	0.0966	0.002

System: 2-furancarboxylic acid + 5-formyl-2-furancarboxylic acid + water; phases: Liquid, Crystal
Fixed: Pressure, kPa = 100
Fixed: Temperature, K = 308.15
Property: Mass fraction of 5-formyl-2-furancarboxylic acid (Liquid); method: Chromatography
Mass fraction of 2-furancarboxylic acid	Mass fraction of 5-formyl-2-furancarboxylic acid	uncertainty
0.0743	0.00231	0.002
0.0715	0.00576	0.002
0.0736	0.00831	0.002

System: 2-furancarboxylic acid + 5-formyl-2-furancarboxylic acid + water; phases: Liquid, Crystal
Fixed: Pressure, kPa = 100
Fixed: Temperature, K = 308.15
Property: Mass fraction of 2-furancarboxylic acid (Liquid); method: Chromatography
Mass fraction of 5-formyl-2-furancarboxylic acid	Mass fraction of 2-furancarboxylic acid	uncertainty
0.0144	0.0272	0.002
0.0178	0.0515	0.002
0.0174	0.0504	0.002

System: 2-furancarboxylic acid + 2,5-furandicarboxylic acid + water; phases: Liquid, Crystal
Fixed: Pressure, kPa = 100
Fixed: Temperature, K = 308.15
Property: Mass fraction of 2,5-furandicarboxylic acid (Liquid); method: Chromatography
Mass fraction of 2-furancarboxylic acid	Mass fraction of 2,5-furandicarboxylic acid	uncertainty
0.0721	0.000378	0.000378
0.0688	0.000643	0.000643
0.0691	0.00123	0.00123

System: 2-furancarboxylic acid + 2,5-furandicarboxylic acid + water; phases: Liquid, Crystal
Fixed: Pressure, kPa = 100
Fixed: Temperature, K = 308.15
Property: Mass fraction of 2-furancarboxylic acid (Liquid); method: Chromatography
Mass fraction of 2,5-furandicarboxylic acid	Mass fraction of 2-furancarboxylic acid	uncertainty
0.00169	0.028	0.002
0.00201	0.0526	0.002
0.00202	0.0525	0.002

System: 5-formyl-2-furancarboxylic acid + 2,5-furandicarboxylic acid + water; phases: Liquid, Crystal
Fixed: Pressure, kPa = 100
Fixed: Temperature, K = 308.15
Property: Mass fraction of 2,5-furandicarboxylic acid (Liquid); method: Chromatography
Mass fraction of 5-formyl-2-furancarboxylic acid	Mass fraction of 2,5-furandicarboxylic acid	uncertainty
0.0117	0.000346	0.000346
0.0116	0.000635	0.000635
0.0112	0.000665	0.000665

System: 5-formyl-2-furancarboxylic acid + 2,5-furandicarboxylic acid + water; phases: Liquid, Crystal
Fixed: Pressure, kPa = 100
Fixed: Temperature, K = 308.15
Property: Mass fraction of 5-formyl-2-furancarboxylic acid (Liquid); method: Chromatography
Mass fraction of 2,5-furandicarboxylic acid	Mass fraction of 5-formyl-2-furancarboxylic acid	uncertainty
0.00116	0.0026	0.002
0.000869	0.00626	0.002
0.000697	0.00901	0.002
