Measured thermophysical data. Influence of Aprotic Cosolvents on the Thermophysical Properties of Imidazolium-Based Ionic Liquid
Source: J. Chem. Eng. Data, 2017, 10.1021/acs.jced.7b00002
Compound 1: 1-methyl-3-octylimidazolium chloride, C12H23ClN2, InChI=1S/C12H23N2.ClH/c1-3-4-5-6-7-8-9-14-11-10-13(2)12-14;/h10-12H,3-9H2,1-2H3;1H/q+1;/p-1, purity 98%
Compound 2: N,N-dimethylethanamide, C4H9NO, InChI=1S/C4H9NO/c1-4(6)5(2)3/h1-3H3, purity 98%
Compound 3: dimethylformamide, C3H7NO, InChI=1S/C3H7NO/c1-4(2)3-5/h3H,1-2H3, purity 99%
Compound 4: dimethyl sulfoxide, C2H6OS, InChI=1S/C2H6OS/c1-4(2)3/h1-2H3, purity 99%
Compound 5: pyridine, C5H5N, InChI=1S/C5H5N/c1-2-4-6-5-3-1/h1-5H, purity 99.8%

System: 1-methyl-3-octylimidazolium chloride; phases: Liquid
Fixed: Pressure, kPa = 97.6
Property: Mass density, kg/m3 (Liquid); method: Vibrating tube method
Temperature, K	Mass density, kg/m3	uncertainty
303.15	1006.2	2.16
308.15	1003.33	2.15
313.15	1000.48	2.14
318.15	997.64	2.14
323.15	994.82	2.13
328.15	992	2.12
333.15	989.17	2.12
338.15	986.38	2.11
343.15	983.63	2.1
348.15	980.88	2.1
353.15	978.13	2.09

System: 1-methyl-3-octylimidazolium chloride; phases: Liquid
Fixed: Pressure, kPa = 97.6
Property: Viscosity, Pa*s (Liquid); method: Capillary tube (Ostwald; Ubbelohde) method
Temperature, K	Viscosity, Pa*s	uncertainty
303.15	7.33971	4.44022
308.15	4.27286	2.58066
313.15	2.76692	1.66913
318.15	1.78859	1.0778
323.15	1.19865	0.72167
328.15	0.8283	0.49834
333.15	0.58869	0.35397
338.15	0.42628	0.25619
343.15	0.31666	0.19024
348.15	0.23714	0.14242
353.15	0.18141	0.10892

System: N,N-dimethylethanamide; phases: Liquid
Fixed: Pressure, kPa = 97.6
Property: Mass density, kg/m3 (Liquid); method: Vibrating tube method
Temperature, K	Mass density, kg/m3	uncertainty
303.15	931.85	1.99
308.15	927.26	1.98
313.15	922.66	1.97
318.15	918.06	1.96
323.15	913.44	1.95
328.15	908.81	1.94
333.15	904.16	1.93
338.15	899.53	1.92
343.15	894.87	1.91
348.15	890.19	1.9
353.15	885.51	1.89

System: N,N-dimethylethanamide; phases: Liquid
Fixed: Pressure, kPa = 97.6
Property: Viscosity, Pa*s (Liquid); method: Capillary tube (Ostwald; Ubbelohde) method
Temperature, K	Viscosity, Pa*s	uncertainty
303.15	0.00089	0.00053
308.15	0.00083	0.0005
313.15	0.00078	0.00047
318.15	0.00074	0.00044
323.15	0.0007	0.00042
328.15	0.00066	0.0004
333.15	0.00063	0.00038
338.15	0.0006	0.00036
343.15	0.00057	0.00034
348.15	0.00054	0.00032
353.15	0.00052	0.00031

System: dimethylformamide; phases: Liquid
Fixed: Pressure, kPa = 97.6
Property: Mass density, kg/m3 (Liquid); method: Vibrating tube method
Temperature, K	Mass density, kg/m3	uncertainty
303.15	939.18	1.89
308.15	934.41	1.88
313.15	929.64	1.87
318.15	924.86	1.86
323.15	920.07	1.85
328.15	915.26	1.84
333.15	910.44	1.83
338.15	905.6	1.82
343.15	900.74	1.81
348.15	895.87	1.8
353.15	890.98	1.79

System: dimethylformamide; phases: Liquid
Fixed: Pressure, kPa = 97.6
Property: Viscosity, Pa*s (Liquid); method: Capillary tube (Ostwald; Ubbelohde) method
Temperature, K	Viscosity, Pa*s	uncertainty
303.15	0.00077	0.00046
308.15	0.00072	0.00043
313.15	0.00068	0.00041
318.15	0.00065	0.00039
323.15	0.00062	0.00037
328.15	0.00059	0.00035
333.15	0.00056	0.00034
338.15	0.00054	0.00032
343.15	0.00051	0.00031
348.15	0.00049	0.00029
353.15	0.00047	0.00028

System: dimethyl sulfoxide; phases: Liquid
Fixed: Pressure, kPa = 97.6
Property: Mass density, kg/m3 (Liquid); method: Vibrating tube method
Temperature, K	Mass density, kg/m3	uncertainty
303.15	1090.29	2.2
308.15	1085.28	2.19
313.15	1080.3	2.18
318.15	1075.31	2.17
323.15	1070.32	2.16
328.15	1065.33	2.15
333.15	1060.34	2.14
338.15	1055.34	2.13
343.15	1050.35	2.12
348.15	1045.34	2.1
353.15	1040.33	2.09

System: dimethyl sulfoxide; phases: Liquid
Fixed: Pressure, kPa = 97.6
Property: Viscosity, Pa*s (Liquid); method: Capillary tube (Ostwald; Ubbelohde) method
Temperature, K	Viscosity, Pa*s	uncertainty
303.15	0.0018	0.00108
308.15	0.00166	0.001
313.15	0.00153	0.00092
318.15	0.00141	0.00085
323.15	0.0013	0.00078
328.15	0.00121	0.00073
333.15	0.00113	0.00068
338.15	0.00106	0.00064
343.15	0.00099	0.00059
348.15	0.00093	0.00056
353.15	0.00088	0.00053

System: pyridine; phases: Liquid
Fixed: Pressure, kPa = 97.6
Property: Mass density, kg/m3 (Liquid); method: Vibrating tube method
Temperature, K	Mass density, kg/m3	uncertainty
303.15	973.09	1.95
308.15	968.06	1.94
313.15	963.02	1.93
318.15	957.97	1.92
323.15	952.9	1.91
328.15	947.82	1.9
333.15	942.72	1.89
338.15	937.6	1.88
343.15	932.46	1.87
348.15	927.3	1.86
353.15	922.12	1.85

System: pyridine; phases: Liquid
Fixed: Pressure, kPa = 97.6
Property: Viscosity, Pa*s (Liquid); method: Capillary tube (Ostwald; Ubbelohde) method
Temperature, K	Viscosity, Pa*s	uncertainty
303.15	0.00084	0.0005
308.15	0.00079	0.00047
313.15	0.00074	0.00044
318.15	0.0007	0.00042
323.15	0.00066	0.0004
328.15	0.00062	0.00037
333.15	0.00059	0.00035
338.15	0.00056	0.00034
343.15	0.00053	0.00032
348.15	0.00051	0.00031
353.15	0.00048	0.00029

System: N,N-dimethylethanamide + 1-methyl-3-octylimidazolium chloride; phases: Liquid
Fixed: Pressure, kPa = 97.6
Property: Mass density, kg/m3 (Liquid); method: Vibrating tube method
Mole fraction of 1-methyl-3-octylimidazolium chloride	Temperature, K	Mass density, kg/m3	uncertainty
1	303.15	1006.2	2.16
1	308.15	1003.33	2.15
1	313.15	1000.48	2.14
1	318.15	997.64	2.14
1	323.15	994.82	2.13
1	328.15	992	2.12
1	333.15	989.17	2.12
1	338.15	986.38	2.11
1	343.15	983.63	2.1
1	348.15	980.88	2.1
1	353.15	978.13	2.09
0.877	303.15	1003.75	2.15
0.877	308.15	1000.8	2.14
0.877	313.15	997.86	2.14
0.877	318.15	994.92	2.13
0.877	323.15	992	2.12
0.877	328.15	989.12	2.12
0.877	333.15	986.24	2.11
0.877	338.15	983.37	2.1
0.877	343.15	980.49	2.1
0.877	348.15	977.62	2.09
0.877	353.15	974.77	2.08
0.786	303.15	1001.37	2.14
0.786	308.15	998.36	2.14
0.786	313.15	995.34	2.13
0.786	318.15	992.37	2.12
0.786	323.15	989.43	2.12
0.786	328.15	986.49	2.11
0.786	333.15	983.55	2.1
0.786	338.15	980.62	2.1
0.786	343.15	977.69	2.09
0.786	348.15	974.78	2.08
0.786	353.15	971.87	2.08
0.602	303.15	994.87	2.13
0.602	308.15	991.72	2.12
0.602	313.15	988.57	2.12
0.602	318.15	985.42	2.11
0.602	323.15	982.29	2.1
0.602	328.15	979.16	2.09
0.602	333.15	976.05	2.09
0.602	338.15	972.96	2.08
0.602	343.15	969.87	2.07
0.602	348.15	966.79	2.07
0.602	353.15	963.72	2.06
0.468	303.15	988.64	2.12
0.468	308.15	985.3	2.11
0.468	313.15	981.99	2.1
0.468	318.15	978.68	2.09
0.468	323.15	975.38	2.09
0.468	328.15	972.09	2.08
0.468	333.15	968.81	2.07
0.468	338.15	965.54	2.06
0.468	343.15	962.28	2.06
0.468	348.15	959.03	2.05
0.468	353.15	955.78	2.04
0.361	303.15	981.93	2.1
0.361	308.15	978.45	2.09
0.361	313.15	974.97	2.08
0.361	318.15	971.5	2.08
0.361	323.15	968.04	2.07
0.361	328.15	964.59	2.06
0.361	333.15	961.14	2.05
0.361	338.15	957.71	2.05
0.361	343.15	954.28	2.04
0.361	348.15	950.85	2.03
0.361	353.15	947.43	2.02
0.273	303.15	975.02	2.09
0.273	308.15	971.38	2.08
0.273	313.15	967.74	2.07
0.273	318.15	964.11	2.06
0.273	323.15	960.49	2.05
0.273	328.15	956.87	2.04
0.273	333.15	953.26	2.04
0.273	338.15	949.65	2.03
0.273	343.15	946.05	2.02
0.273	348.15	942.44	2.01
0.273	353.15	938.85	2
0.139	303.15	958.09	2.05
0.139	308.15	954.07	2.04
0.139	313.15	950.12	2.03
0.139	318.15	946.26	2.02
0.139	323.15	942.47	2.01
0.139	328.15	938.72	2
0.139	333.15	934.99	2
0.139	338.15	931.23	1.99
0.139	343.15	927.34	1.98
0.139	348.15	923.35	1.97
0.139	353.15	919.35	1.96
0	303.15	931.85	1.99
0	308.15	927.26	1.98
0	313.15	922.66	1.97
0	318.15	918.06	1.96
0	323.15	913.44	1.95
0	328.15	908.81	1.94
0	333.15	904.16	1.93
0	338.15	899.53	1.92
0	343.15	894.87	1.91
0	348.15	890.19	1.9
0	353.15	885.51	1.89

System: N,N-dimethylethanamide + 1-methyl-3-octylimidazolium chloride; phases: Liquid
Fixed: Pressure, kPa = 97.6
Property: Viscosity, Pa*s (Liquid); method: Capillary tube (Ostwald; Ubbelohde) method
Mole fraction of 1-methyl-3-octylimidazolium chloride	Temperature, K	Viscosity, Pa*s	uncertainty
1	303.15	7.33971	4.44022
1	308.15	4.27286	2.58066
1	313.15	2.76692	1.66913
1	318.15	1.78859	1.0778
1	323.15	1.19865	0.72167
1	328.15	0.8283	0.49834
1	333.15	0.58869	0.35397
1	338.15	0.42628	0.25619
1	343.15	0.31666	0.19024
1	348.15	0.23714	0.14242
1	353.15	0.18141	0.10892
0.877	303.15	1.86536	1.12426
0.877	308.15	1.25497	0.75569
0.877	313.15	0.85326	0.5134
0.877	318.15	0.59467	0.35758
0.877	323.15	0.42536	0.25564
0.877	328.15	0.31037	0.18646
0.877	333.15	0.2313	0.13891
0.877	338.15	0.17646	0.10595
0.877	343.15	0.13674	0.08208
0.877	348.15	0.10708	0.06427
0.877	353.15	0.08514	0.0511
0.786	303.15	1.0495	0.63171
0.786	308.15	0.71483	0.42996
0.786	313.15	0.50224	0.30192
0.786	318.15	0.35894	0.21567
0.786	323.15	0.26325	0.15812
0.786	328.15	0.19827	0.11905
0.786	333.15	0.15045	0.09032
0.786	338.15	0.11653	0.06994
0.786	343.15	0.09177	0.05508
0.786	348.15	0.07367	0.04421
0.786	353.15	0.05969	0.03582
0.602	303.15	0.28858	0.17336
0.602	308.15	0.21024	0.12625
0.602	313.15	0.15662	0.09403
0.602	318.15	0.11922	0.07156
0.602	323.15	0.09249	0.05551
0.602	328.15	0.07276	0.04366
0.602	333.15	0.05834	0.03501
0.602	338.15	0.04746	0.02848
0.602	343.15	0.03889	0.02334
0.602	348.15	0.03238	0.01943
0.602	353.15	0.02728	0.01637
0.468	303.15	0.09229	0.05539
0.468	308.15	0.07068	0.04242
0.468	313.15	0.05522	0.03314
0.468	318.15	0.0442	0.02652
0.468	323.15	0.03589	0.02154
0.468	328.15	0.02951	0.01771
0.468	333.15	0.0247	0.01482
0.468	338.15	0.02081	0.01249
0.468	343.15	0.01772	0.01063
0.468	348.15	0.01526	0.00916
0.468	353.15	0.0132	0.00792
0.361	303.15	0.03245	0.01947
0.361	308.15	0.02651	0.01591
0.361	313.15	0.02193	0.01316
0.361	318.15	0.01832	0.01099
0.361	323.15	0.01551	0.00931
0.361	328.15	0.01324	0.00795
0.361	333.15	0.01144	0.00687
0.361	338.15	0.00998	0.00599
0.361	343.15	0.00873	0.00524
0.361	348.15	0.0077	0.00462
0.361	353.15	0.00685	0.00411
0.273	303.15	0.01475	0.00885
0.273	308.15	0.01252	0.00751
0.273	313.15	0.01065	0.00639
0.273	318.15	0.0092	0.00552
0.273	323.15	0.00802	0.00481
0.273	328.15	0.00704	0.00422
0.273	333.15	0.00622	0.00373
0.273	338.15	0.00553	0.00332
0.273	343.15	0.00496	0.00298
0.273	348.15	0.00447	0.00268
0.273	353.15	0.00405	0.00243
0.139	303.15	0.00363	0.00218
0.139	308.15	0.00326	0.00196
0.139	313.15	0.00294	0.00176
0.139	318.15	0.00265	0.00159
0.139	323.15	0.00242	0.00145
0.139	328.15	0.00221	0.00133
0.139	333.15	0.00204	0.00122
0.139	338.15	0.00188	0.00113
0.139	343.15	0.00174	0.00104
0.139	348.15	0.00162	0.00097
0.139	353.15	0.00151	0.00091
0	303.15	0.00089	0.00053
0	308.15	0.00083	0.0005
0	313.15	0.00078	0.00047
0	318.15	0.00074	0.00044
0	323.15	0.0007	0.00042
0	328.15	0.00066	0.0004
0	333.15	0.00063	0.00038
0	338.15	0.0006	0.00036
0	343.15	0.00057	0.00034
0	348.15	0.00054	0.00032
0	353.15	0.00052	0.00031

System: dimethylformamide + 1-methyl-3-octylimidazolium chloride; phases: Liquid
Fixed: Pressure, kPa = 97.6
Property: Mass density, kg/m3 (Liquid); method: Vibrating tube method
Mole fraction of 1-methyl-3-octylimidazolium chloride	Temperature, K	Mass density, kg/m3	uncertainty
1	303.15	1006.2	2.16
1	308.15	1003.33	2.15
1	313.15	1000.48	2.14
1	318.15	997.64	2.14
1	323.15	994.82	2.13
1	328.15	992	2.12
1	333.15	989.17	2.12
1	338.15	986.38	2.11
1	343.15	983.63	2.1
1	348.15	980.88	2.1
1	353.15	978.13	2.09
0.858	303.15	1004.31	2.12
0.858	308.15	1001.36	2.11
0.858	313.15	998.42	2.1
0.858	318.15	995.47	2.1
0.858	323.15	992.57	2.09
0.858	328.15	989.7	2.08
0.858	333.15	986.83	2.08
0.858	338.15	983.97	2.07
0.858	343.15	981.1	2.07
0.858	348.15	978.24	2.06
0.858	353.15	975.39	2.05
0.739	303.15	1002.01	2.09
0.739	308.15	998.95	2.08
0.739	313.15	995.95	2.07
0.739	318.15	992.97	2.07
0.739	323.15	990	2.06
0.739	328.15	987.03	2.06
0.739	333.15	984.05	2.05
0.739	338.15	981.09	2.04
0.739	343.15	978.13	2.04
0.739	348.15	975.19	2.03
0.739	353.15	972.25	2.02
0.557	303.15	996.35	2.05
0.557	308.15	993.19	2.04
0.557	313.15	989.93	2.03
0.557	318.15	986.82	2.03
0.557	323.15	983.92	2.02
0.557	328.15	980.8	2.02
0.557	333.15	977.65	2.01
0.557	338.15	974.48	2
0.557	343.15	971.56	2
0.557	348.15	968.34	1.99
0.557	353.15	965.07	1.98
0.424	303.15	992	2.02
0.424	308.15	988.63	2.02
0.424	313.15	985.26	2.01
0.424	318.15	981.9	2
0.424	323.15	978.56	2
0.424	328.15	975.22	1.99
0.424	333.15	971.88	1.98
0.424	338.15	968.56	1.98
0.424	343.15	965.24	1.97
0.424	348.15	961.92	1.96
0.424	353.15	958.62	1.96
0.321	303.15	985.99	2
0.321	308.15	982.47	1.99
0.321	313.15	979.05	1.99
0.321	318.15	975.72	1.98
0.321	323.15	972.37	1.97
0.321	328.15	969.03	1.97
0.321	333.15	965.62	1.96
0.321	338.15	962.16	1.95
0.321	343.15	958.67	1.95
0.321	348.15	955.18	1.94
0.321	353.15	951.69	1.93
0.241	303.15	979.1	1.98
0.241	308.15	975.4	1.97
0.241	313.15	971.7	1.97
0.241	318.15	967.99	1.96
0.241	323.15	964.31	1.95
0.241	328.15	960.61	1.95
0.241	333.15	956.95	1.94
0.241	338.15	953.32	1.93
0.241	343.15	949.69	1.92
0.241	348.15	946.02	1.92
0.241	353.15	942.33	1.91
0.119	303.15	965.57	1.95
0.119	308.15	961.27	1.94
0.119	313.15	957.31	1.93
0.119	318.15	953.45	1.92
0.119	323.15	949.36	1.92
0.119	328.15	945.25	1.91
0.119	333.15	941.11	1.9
0.119	338.15	936.97	1.89
0.119	343.15	932.83	1.88
0.119	348.15	928.69	1.88
0.119	353.15	924.55	1.87
0	303.15	939.18	1.89
0	308.15	934.41	1.88
0	313.15	929.64	1.87
0	318.15	924.86	1.86
0	323.15	920.07	1.85
0	328.15	915.26	1.84
0	333.15	910.44	1.83
0	338.15	905.6	1.82
0	343.15	900.74	1.81
0	348.15	895.87	1.8
0	353.15	890.98	1.79

System: dimethylformamide + 1-methyl-3-octylimidazolium chloride; phases: Liquid
Fixed: Pressure, kPa = 97.6
Property: Viscosity, Pa*s (Liquid); method: Capillary tube (Ostwald; Ubbelohde) method
Mole fraction of 1-methyl-3-octylimidazolium chloride	Temperature, K	Viscosity, Pa*s	uncertainty
1	303.15	7.33971	4.44022
1	308.15	4.27286	2.58066
1	313.15	2.76692	1.66913
1	318.15	1.78859	1.0778
1	323.15	1.19865	0.72167
1	328.15	0.8283	0.49834
1	333.15	0.58869	0.35397
1	338.15	0.42628	0.25619
1	343.15	0.31666	0.19024
1	348.15	0.23714	0.14242
1	353.15	0.18141	0.10892
0.858	303.15	1.89276	1.14077
0.858	308.15	1.25796	0.75747
0.858	313.15	0.85669	0.51545
0.858	318.15	0.59605	0.35841
0.858	323.15	0.42648	0.25631
0.858	328.15	0.31238	0.18766
0.858	333.15	0.23356	0.14027
0.858	338.15	0.17682	0.10616
0.858	343.15	0.13716	0.08234
0.858	348.15	0.10817	0.06492
0.858	353.15	0.08603	0.05163
0.739	303.15	0.76679	0.46126
0.739	308.15	0.53662	0.32261
0.739	313.15	0.38117	0.22904
0.739	318.15	0.27721	0.16651
0.739	323.15	0.20644	0.12396
0.739	328.15	0.15659	0.09401
0.739	333.15	0.1209	0.07257
0.739	338.15	0.09493	0.05697
0.739	343.15	0.07565	0.0454
0.739	348.15	0.06129	0.03678
0.739	353.15	0.05008	0.03005
0.557	303.15	0.16048	0.09635
0.557	308.15	0.12267	0.07363
0.557	313.15	0.09506	0.05705
0.557	318.15	0.07418	0.04452
0.557	323.15	0.05906	0.03544
0.557	328.15	0.04765	0.02859
0.557	333.15	0.03897	0.02338
0.557	338.15	0.03238	0.01943
0.557	343.15	0.02713	0.01628
0.557	348.15	0.02293	0.01376
0.557	353.15	0.0196	0.01176
0.424	303.15	0.04908	0.02945
0.424	308.15	0.03948	0.02369
0.424	313.15	0.0322	0.01932
0.424	318.15	0.0265	0.0159
0.424	323.15	0.02211	0.01327
0.424	328.15	0.01867	0.0112
0.424	333.15	0.01592	0.00955
0.424	338.15	0.01371	0.00823
0.424	343.15	0.01191	0.00715
0.424	348.15	0.01041	0.00625
0.424	353.15	0.00916	0.0055
0.321	303.15	0.01899	0.0114
0.321	308.15	0.01591	0.00955
0.321	313.15	0.01351	0.00811
0.321	318.15	0.01156	0.00694
0.321	323.15	0.01	0.006
0.321	328.15	0.00872	0.00523
0.321	333.15	0.00767	0.0046
0.321	338.15	0.00679	0.00407
0.321	343.15	0.00606	0.00364
0.321	348.15	0.00543	0.00326
0.321	353.15	0.0049	0.00294
0.241	303.15	0.0089	0.00534
0.241	308.15	0.00769	0.00461
0.241	313.15	0.00675	0.00405
0.241	318.15	0.00596	0.00358
0.241	323.15	0.00529	0.00317
0.241	328.15	0.00475	0.00285
0.241	333.15	0.00425	0.00255
0.241	338.15	0.00385	0.00231
0.241	343.15	0.0035	0.0021
0.241	348.15	0.0032	0.00192
0.241	353.15	0.00293	0.00176
0.119	303.15	0.00256	0.00154
0.119	308.15	0.00232	0.00139
0.119	313.15	0.00213	0.00128
0.119	318.15	0.00195	0.00117
0.119	323.15	0.00181	0.00109
0.119	328.15	0.00167	0.001
0.119	333.15	0.00156	0.00094
0.119	338.15	0.00145	0.00087
0.119	343.15	0.00136	0.00082
0.119	348.15	0.00127	0.00076
0.119	353.15	0.0012	0.00072
0	303.15	0.00077	0.00046
0	308.15	0.00072	0.00043
0	313.15	0.00068	0.00041
0	318.15	0.00065	0.00039
0	323.15	0.00062	0.00037
0	328.15	0.00059	0.00035
0	333.15	0.00056	0.00034
0	338.15	0.00054	0.00032
0	343.15	0.00051	0.00031
0	348.15	0.00049	0.00029
0	353.15	0.00047	0.00028

System: dimethyl sulfoxide + 1-methyl-3-octylimidazolium chloride; phases: Liquid
Fixed: Pressure, kPa = 97.6
Property: Mass density, kg/m3 (Liquid); method: Vibrating tube method
Mole fraction of 1-methyl-3-octylimidazolium chloride	Temperature, K	Mass density, kg/m3	uncertainty
1	303.15	1006.2	2.16
1	308.15	1003.33	2.15
1	313.15	1000.48	2.14
1	318.15	997.64	2.14
1	323.15	994.82	2.13
1	328.15	992	2.12
1	333.15	989.17	2.12
1	338.15	986.38	2.11
1	343.15	983.63	2.1
1	348.15	980.88	2.1
1	353.15	978.13	2.09
0.862	303.15	1011.18	2.13
0.862	308.15	1008.24	2.13
0.862	313.15	1005.31	2.12
0.862	318.15	1002.4	2.11
0.862	323.15	999.47	2.11
0.862	328.15	996.58	2.1
0.862	333.15	993.72	2.09
0.862	338.15	990.88	2.09
0.862	343.15	988.04	2.08
0.862	348.15	985.2	2.08
0.862	353.15	982.37	2.07
0.75	303.15	1015.41	2.12
0.75	308.15	1012.38	2.11
0.75	313.15	1009.41	2.11
0.75	318.15	1006.46	2.1
0.75	323.15	1003.51	2.09
0.75	328.15	1000.56	2.09
0.75	333.15	997.59	2.08
0.75	338.15	994.64	2.07
0.75	343.15	991.75	2.07
0.75	348.15	988.9	2.06
0.75	353.15	985.96	2.06
0.574	303.15	1025.26	2.11
0.574	308.15	1022.09	2.11
0.574	313.15	1018.92	2.1
0.574	318.15	1015.75	2.09
0.574	323.15	1012.58	2.09
0.574	328.15	1009.43	2.08
0.574	333.15	1006.28	2.07
0.574	338.15	1003.15	2.06
0.574	343.15	1000.03	2.06
0.574	348.15	996.93	2.05
0.574	353.15	993.83	2.04
0.439	303.15	1034.29	2.12
0.439	308.15	1030.91	2.11
0.439	313.15	1027.54	2.1
0.439	318.15	1024.18	2.09
0.439	323.15	1020.83	2.09
0.439	328.15	1017.51	2.08
0.439	333.15	1014.19	2.07
0.439	338.15	1010.88	2.06
0.439	343.15	1007.59	2.06
0.439	348.15	1004.31	2.05
0.439	353.15	1001.04	2.04
0.338	303.15	1042.77	2.12
0.338	308.15	1039.2	2.12
0.338	313.15	1035.65	2.11
0.338	318.15	1032.11	2.1
0.338	323.15	1028.58	2.09
0.338	328.15	1025.06	2.09
0.338	333.15	1021.55	2.08
0.338	338.15	1018.05	2.07
0.338	343.15	1014.56	2.06
0.338	348.15	1011.07	2.06
0.338	353.15	1007.6	2.05
0.253	303.15	1051.57	2.13
0.253	308.15	1047.84	2.13
0.253	313.15	1044.09	2.12
0.253	318.15	1040.39	2.11
0.253	323.15	1036.65	2.1
0.253	328.15	1032.95	2.09
0.253	333.15	1029.24	2.09
0.253	338.15	1025.55	2.08
0.253	343.15	1021.86	2.07
0.253	348.15	1018.18	2.06
0.253	353.15	1014.51	2.06
0.13	303.15	1067.88	2.16
0.13	308.15	1063.71	2.15
0.13	313.15	1059.55	2.14
0.13	318.15	1055.41	2.13
0.13	323.15	1051.26	2.12
0.13	328.15	1047.12	2.12
0.13	333.15	1042.98	2.11
0.13	338.15	1038.85	2.1
0.13	343.15	1034.72	2.09
0.13	348.15	1030.6	2.08
0.13	353.15	1026.47	2.07
0	303.15	1090.29	2.2
0	308.15	1085.28	2.19
0	313.15	1080.3	2.18
0	318.15	1075.31	2.17
0	323.15	1070.32	2.16
0	328.15	1065.33	2.15
0	333.15	1060.34	2.14
0	338.15	1055.34	2.13
0	343.15	1050.35	2.12
0	348.15	1045.34	2.1
0	353.15	1040.33	2.09

System: dimethyl sulfoxide + 1-methyl-3-octylimidazolium chloride; phases: Liquid
Fixed: Pressure, kPa = 97.6
Property: Viscosity, Pa*s (Liquid); method: Capillary tube (Ostwald; Ubbelohde) method
Mole fraction of 1-methyl-3-octylimidazolium chloride	Temperature, K	Viscosity, Pa*s	uncertainty
1	303.15	7.33971	4.44022
1	308.15	4.27286	2.58066
1	313.15	2.76692	1.66913
1	318.15	1.78859	1.0778
1	323.15	1.19865	0.72167
1	328.15	0.8283	0.49834
1	333.15	0.58869	0.35397
1	338.15	0.42628	0.25619
1	343.15	0.31666	0.19024
1	348.15	0.23714	0.14242
1	353.15	0.18141	0.10892
0.862	303.15	3.23563	1.95268
0.862	308.15	2.1509	1.29669
0.862	313.15	1.40441	0.84583
0.862	318.15	0.94352	0.56779
0.862	323.15	0.6539	0.39324
0.862	328.15	0.46677	0.28056
0.862	333.15	0.33865	0.20346
0.862	338.15	0.25015	0.15024
0.862	343.15	0.18955	0.11381
0.862	348.15	0.14553	0.08736
0.862	353.15	0.11393	0.06838
0.75	303.15	1.08471	0.65294
0.75	308.15	0.74247	0.4466
0.75	313.15	0.50833	0.30558
0.75	318.15	0.36338	0.21834
0.75	323.15	0.26493	0.15912
0.75	328.15	0.19717	0.11839
0.75	333.15	0.14971	0.08987
0.75	338.15	0.11548	0.06931
0.75	343.15	0.0908	0.05449
0.75	348.15	0.07227	0.04337
0.75	353.15	0.05887	0.03533
0.574	303.15	0.37136	0.22314
0.574	308.15	0.26422	0.15869
0.574	313.15	0.19292	0.11583
0.574	318.15	0.14395	0.08641
0.574	323.15	0.10949	0.06571
0.574	328.15	0.08497	0.05099
0.574	333.15	0.06704	0.04023
0.574	338.15	0.05377	0.03227
0.574	343.15	0.0436	0.02616
0.574	348.15	0.03576	0.02146
0.574	353.15	0.0299	0.01794
0.439	303.15	0.14343	0.0861
0.439	308.15	0.1077	0.06464
0.439	313.15	0.08242	0.04946
0.439	318.15	0.06395	0.03837
0.439	323.15	0.05083	0.0305
0.439	328.15	0.04101	0.02461
0.439	333.15	0.03328	0.01997
0.439	338.15	0.02738	0.01643
0.439	343.15	0.02297	0.01378
0.439	348.15	0.01928	0.01157
0.439	353.15	0.01649	0.00989
0.338	303.15	0.05512	0.03308
0.338	308.15	0.0438	0.02628
0.338	313.15	0.03498	0.02099
0.338	318.15	0.02815	0.01689
0.338	323.15	0.02325	0.01395
0.338	328.15	0.01936	0.01162
0.338	333.15	0.01631	0.00979
0.338	338.15	0.01391	0.00835
0.338	343.15	0.01195	0.00717
0.338	348.15	0.01037	0.00622
0.338	353.15	0.00906	0.00544
0.253	303.15	0.02414	0.01449
0.253	308.15	0.01997	0.01198
0.253	313.15	0.01654	0.00992
0.253	318.15	0.01389	0.00833
0.253	323.15	0.0118	0.00708
0.253	328.15	0.01012	0.00607
0.253	333.15	0.00878	0.00527
0.253	338.15	0.00766	0.0046
0.253	343.15	0.00675	0.00405
0.253	348.15	0.00598	0.00359
0.253	353.15	0.00534	0.0032
0.13	303.15	0.00685	0.00411
0.13	308.15	0.006	0.0036
0.13	313.15	0.00524	0.00314
0.13	318.15	0.00462	0.00277
0.13	323.15	0.0041	0.00246
0.13	328.15	0.00367	0.0022
0.13	333.15	0.00331	0.00199
0.13	338.15	0.003	0.0018
0.13	343.15	0.00272	0.00163
0.13	348.15	0.0025	0.0015
0.13	353.15	0.00229	0.00137
0	303.15	0.0018	0.00108
0	308.15	0.00166	0.001
0	313.15	0.00153	0.00092
0	318.15	0.00141	0.00085
0	323.15	0.0013	0.00078
0	328.15	0.00121	0.00073
0	333.15	0.00113	0.00068
0	338.15	0.00106	0.00064
0	343.15	0.00099	0.00059
0	348.15	0.00093	0.00056
0	353.15	0.00088	0.00053

System: pyridine + 1-methyl-3-octylimidazolium chloride; phases: Liquid
Fixed: Pressure, kPa = 97.6
Property: Mass density, kg/m3 (Liquid); method: Vibrating tube method
Mole fraction of 1-methyl-3-octylimidazolium chloride	Temperature, K	Mass density, kg/m3	uncertainty
1	303.15	1006.2	2.16
1	308.15	1003.33	2.15
1	313.15	1000.48	2.14
1	318.15	997.64	2.14
1	323.15	994.82	2.13
1	328.15	992	2.12
1	333.15	989.17	2.12
1	338.15	986.38	2.11
1	343.15	983.63	2.1
1	348.15	980.88	2.1
1	353.15	978.13	2.09
0.865	303.15	1005.51	2.1
0.865	308.15	1002.58	2.09
0.865	313.15	999.66	2.09
0.865	318.15	996.75	2.08
0.865	323.15	993.8	2.07
0.865	328.15	990.92	2.07
0.865	333.15	988.06	2.06
0.865	338.15	985.22	2.05
0.865	343.15	982.37	2.05
0.865	348.15	979.56	2.04
0.865	353.15	976.69	2.04
0.755	303.15	1005.83	2.07
0.755	308.15	1002.79	2.06
0.755	313.15	999.79	2.05
0.755	318.15	996.82	2.05
0.755	323.15	993.86	2.04
0.755	328.15	990.9	2.04
0.755	333.15	987.95	2.03
0.755	338.15	984.99	2.02
0.755	343.15	982.04	2.02
0.755	348.15	979.11	2.01
0.755	353.15	976.18	2.01
0.578	303.15	1004.43	2.03
0.578	308.15	1001.29	2.03
0.578	313.15	998.15	2.02
0.578	318.15	995.01	2.01
0.578	323.15	991.88	2.01
0.578	328.15	988.75	2
0.578	333.15	985.64	1.99
0.578	338.15	982.53	1.99
0.578	343.15	979.44	1.98
0.578	348.15	976.36	1.98
0.578	353.15	973.29	1.97
0.445	303.15	1002.78	2.02
0.445	308.15	999.45	2.01
0.445	313.15	996.14	2
0.445	318.15	992.85	2
0.445	323.15	989.57	1.99
0.445	328.15	986.28	1.98
0.445	333.15	983	1.98
0.445	338.15	979.67	1.97
0.445	343.15	976.42	1.96
0.445	348.15	973.05	1.96
0.445	353.15	969.48	1.95
0.339	303.15	1000.33	2.01
0.339	308.15	996.84	2
0.339	313.15	993.34	1.99
0.339	318.15	989.85	1.99
0.339	323.15	986.38	1.98
0.339	328.15	982.9	1.97
0.339	333.15	979.42	1.96
0.339	338.15	975.93	1.96
0.339	343.15	972.4	1.95
0.339	348.15	968.9	1.94
0.339	353.15	965.27	1.94
0.255	303.15	998.25	2
0.255	308.15	994.55	1.99
0.255	313.15	990.84	1.98
0.255	318.15	987.14	1.98
0.255	323.15	983.45	1.97
0.255	328.15	979.75	1.96
0.255	333.15	976.06	1.96
0.255	338.15	972.37	1.95
0.255	343.15	968.68	1.94
0.255	348.15	965	1.93
0.255	353.15	961.31	1.93
0.128	303.15	988.9	1.98
0.128	308.15	984.71	1.97
0.128	313.15	980.51	1.96
0.128	318.15	976.31	1.95
0.128	323.15	972.1	1.95
0.128	328.15	967.86	1.94
0.128	333.15	963.58	1.93
0.128	338.15	959.29	1.92
0.128	343.15	955.03	1.91
0.128	348.15	950.66	1.9
0.128	353.15	946.27	1.9
0	303.15	973.09	1.95
0	308.15	968.06	1.94
0	313.15	963.02	1.93
0	318.15	957.97	1.92
0	323.15	952.9	1.91
0	328.15	947.82	1.9
0	333.15	942.72	1.89
0	338.15	937.6	1.88
0	343.15	932.46	1.87
0	348.15	927.3	1.86
0	353.15	922.12	1.85

System: pyridine + 1-methyl-3-octylimidazolium chloride; phases: Liquid
Fixed: Pressure, kPa = 97.6
Property: Viscosity, Pa*s (Liquid); method: Capillary tube (Ostwald; Ubbelohde) method
Mole fraction of 1-methyl-3-octylimidazolium chloride	Temperature, K	Viscosity, Pa*s	uncertainty
1	303.15	7.33971	4.44022
1	308.15	4.27286	2.58066
1	313.15	2.76692	1.66913
1	318.15	1.78859	1.0778
1	323.15	1.19865	0.72167
1	328.15	0.8283	0.49834
1	333.15	0.58869	0.35397
1	338.15	0.42628	0.25619
1	343.15	0.31666	0.19024
1	348.15	0.23714	0.14242
1	353.15	0.18141	0.10892
0.865	303.15	2.8281	1.70612
0.865	308.15	1.82355	1.0989
0.865	313.15	1.21073	0.72895
0.865	318.15	0.82967	0.49915
0.865	323.15	0.58382	0.35103
0.865	328.15	0.41977	0.25227
0.865	333.15	0.30969	0.18604
0.865	338.15	0.23302	0.13994
0.865	343.15	0.17792	0.10682
0.865	348.15	0.13826	0.08299
0.865	353.15	0.10895	0.06539
0.755	303.15	0.86391	0.5198
0.755	308.15	0.59938	0.3604
0.755	313.15	0.426	0.25601
0.755	318.15	0.30961	0.18599
0.755	323.15	0.23068	0.13853
0.755	328.15	0.1744	0.1047
0.755	333.15	0.13484	0.08094
0.755	338.15	0.10582	0.06351
0.755	343.15	0.08408	0.05046
0.755	348.15	0.06804	0.04083
0.755	353.15	0.0552	0.03312
0.578	303.15	0.29077	0.17465
0.578	308.15	0.21557	0.12944
0.578	313.15	0.16131	0.09684
0.578	318.15	0.12318	0.07393
0.578	323.15	0.09606	0.05765
0.578	328.15	0.07598	0.04559
0.578	333.15	0.06106	0.03664
0.578	338.15	0.04981	0.02989
0.578	343.15	0.04106	0.02464
0.578	348.15	0.03418	0.02051
0.578	353.15	0.02874	0.01725
0.445	303.15	0.08405	0.05044
0.445	308.15	0.06558	0.03935
0.445	313.15	0.05196	0.03118
0.445	318.15	0.04202	0.02521
0.445	323.15	0.0344	0.02064
0.445	328.15	0.02853	0.01712
0.445	333.15	0.02398	0.01439
0.445	338.15	0.02037	0.01222
0.445	343.15	0.01742	0.01045
0.445	348.15	0.01501	0.00901
0.445	353.15	0.01303	0.00782
0.339	303.15	0.02941	0.01765
0.339	308.15	0.02413	0.01448
0.339	313.15	0.02012	0.01207
0.339	318.15	0.01697	0.01018
0.339	323.15	0.01449	0.00869
0.339	328.15	0.01256	0.00754
0.339	333.15	0.01081	0.00649
0.339	338.15	0.00951	0.00571
0.339	343.15	0.00837	0.00502
0.339	348.15	0.0074	0.00444
0.339	353.15	0.00663	0.00398
0.255	303.15	0.01271	0.00763
0.255	308.15	0.01087	0.00652
0.255	313.15	0.00939	0.00563
0.255	318.15	0.00817	0.0049
0.255	323.15	0.00717	0.0043
0.255	328.15	0.00634	0.0038
0.255	333.15	0.00565	0.00339
0.255	338.15	0.00506	0.00304
0.255	343.15	0.00456	0.00274
0.255	348.15	0.00413	0.00248
0.255	353.15	0.00376	0.00226
0.128	303.15	0.00346	0.00208
0.128	308.15	0.00311	0.00187
0.128	313.15	0.00281	0.00169
0.128	318.15	0.00256	0.00154
0.128	323.15	0.00234	0.0014
0.128	328.15	0.00215	0.00129
0.128	333.15	0.00198	0.00119
0.128	338.15	0.00183	0.0011
0.128	343.15	0.0017	0.00102
0.128	348.15	0.00158	0.00095
0.128	353.15	0.00148	0.00089
0	303.15	0.00084	0.0005
0	308.15	0.00079	0.00047
0	313.15	0.00074	0.00044
0	318.15	0.0007	0.00042
0	323.15	0.00066	0.0004
0	328.15	0.00062	0.00037
0	333.15	0.00059	0.00035
0	338.15	0.00056	0.00034
0	343.15	0.00053	0.00032
0	348.15	0.00051	0.00031
0	353.15	0.00048	0.00029
