Measured thermophysical data. Solid-Liquid Equilibrium Measurements for Posaconazole and Voriconazole in Several Solvents between T = 278.2 and 323.2 K Using Differential Thermal Analysis/Thermal Gravimetric Analysis
Source: J. Chem. Eng. Data, 2019, 10.1021/acs.jced.9b00179
Compound 1: ethanol, C2H6O, InChI=1S/C2H6O/c1-2-3/h3H,2H2,1H3, purity 99%
Compound 2: propan-1-ol, C3H8O, InChI=1S/C3H8O/c1-2-3-4/h4H,2-3H2,1H3, purity 99.5%
Compound 3: propan-2-ol, C3H8O, InChI=1S/C3H8O/c1-3(2)4/h3-4H,1-2H3, purity 99%
Compound 4: butan-1-ol, C4H10O, InChI=1S/C4H10O/c1-2-3-4-5/h5H,2-4H2,1H3, purity 99%
Compound 5: 2-methyl-1-propanol, C4H10O, InChI=1S/C4H10O/c1-4(2)3-5/h4-5H,3H2,1-2H3, purity 99%
Compound 6: butanone, C4H8O, InChI=1S/C4H8O/c1-3-4(2)5/h3H2,1-2H3, purity 99%
Compound 7: pentan-2-one, C5H10O, InChI=1S/C5H10O/c1-3-4-5(2)6/h3-4H2,1-2H3, purity 99%
Compound 8: dimethyl sulfoxide, C2H6OS, InChI=1S/C2H6OS/c1-4(2)3/h1-2H3, purity 99%
Compound 9: dimethylformamide, C3H7NO, InChI=1S/C3H7NO/c1-4(2)3-5/h3H,1-2H3, purity 99.9%
Compound 10: water, H2O, InChI=1S/H2O/h1H2, purity 99.9%
Compound 11: benzoic acid, C7H6O2, InChI=1S/C7H6O2/c8-7(9)6-4-2-1-3-5-6/h1-5H,(H,8,9), purity 99.5%
Compound 12: posaconazole, C37H42F2N8O4, InChI=1S/C37H42F2N8O4/c1-3-35(26(2)48)47-36(49)46(25-42-47)31-7-5-29(6-8-31)43-14-16-44(17-15-43)30-9-11-32(12-10-30)50-20-27-19-37(51-21-27,22-45-24-40-23-41-45)33-13-4-28(38)18-34(33)39/h4-13,18,23-27,35,48H,3,14-17,19-22H2,1-2H3/t26-,27+,35-,37-/m0/s1, purity 99%
Compound 13: voriconazole, C16H14F3N5O, InChI=1S/C16H14F3N5O/c1-10(15-14(19)5-20-7-22-15)16(25,6-24-9-21-8-23-24)12-3-2-11(17)4-13(12)18/h2-5,7-10,25H,6H2,1H3/t10-,16+/m0/s1, purity 99%

System: ethanol; phases: Liquid
Property: Refractive index (Na D-line) (Liquid); method: Standard Abbe refractometry
Temperature, K	Pressure, kPa	Refractive index (Na D-line)	uncertainty
293.15	101.325	1.3613	0.0011

System: propan-1-ol; phases: Liquid
Property: Refractive index (Na D-line) (Liquid); method: Standard Abbe refractometry
Temperature, K	Pressure, kPa	Refractive index (Na D-line)	uncertainty
293.15	101.325	1.3852	0.001

System: propan-2-ol; phases: Liquid
Property: Refractive index (Na D-line) (Liquid); method: Standard Abbe refractometry
Temperature, K	Pressure, kPa	Refractive index (Na D-line)	uncertainty
293.15	101.325	1.3774	0.0011

System: butan-1-ol; phases: Liquid
Property: Refractive index (Na D-line) (Liquid); method: Standard Abbe refractometry
Temperature, K	Pressure, kPa	Refractive index (Na D-line)	uncertainty
293.15	101.325	1.3986	0.0011

System: 2-methyl-1-propanol; phases: Liquid
Property: Refractive index (Na D-line) (Liquid); method: Standard Abbe refractometry
Temperature, K	Pressure, kPa	Refractive index (Na D-line)	uncertainty
293.15	101.325	1.3957	0.0011

System: butanone; phases: Liquid
Property: Refractive index (Na D-line) (Liquid); method: Standard Abbe refractometry
Temperature, K	Pressure, kPa	Refractive index (Na D-line)	uncertainty
293.15	101.325	1.379	0.0011

System: pentan-2-one; phases: Liquid
Property: Refractive index (Na D-line) (Liquid); method: Standard Abbe refractometry
Temperature, K	Pressure, kPa	Refractive index (Na D-line)	uncertainty
293.15	101.325	1.3892	0.0011

System: dimethyl sulfoxide; phases: Liquid
Property: Refractive index (Na D-line) (Liquid); method: Standard Abbe refractometry
Temperature, K	Pressure, kPa	Refractive index (Na D-line)	uncertainty
293.15	101.325	1.4791	0.0011

System: dimethylformamide; phases: Liquid
Property: Refractive index (Na D-line) (Liquid); method: Standard Abbe refractometry
Temperature, K	Pressure, kPa	Refractive index (Na D-line)	uncertainty
293.15	101.325	1.4303	0.001

System: water; phases: Liquid
Property: Refractive index (Na D-line) (Liquid); method: Standard Abbe refractometry
Temperature, K	Pressure, kPa	Refractive index (Na D-line)	uncertainty
293.15	101.325	1.3331	0.001

System: benzoic acid; phases: Crystal, Liquid, Air at 1 atmosphere
Property: Triple point temperature, K (Crystal); method: DSC
Triple point temperature, K	uncertainty
396.8	1

System: benzoic acid; phases: Crystal, Liquid, Air at 1 atmosphere
Property: Molar enthalpy of transition or fusion, kJ/mol (Crystal); method: DSC
Molar enthalpy of transition or fusion, kJ/mol	uncertainty
17.52133	1.79314

System: posaconazole; phases: Crystal, Liquid, Air at 1 atmosphere
Property: Triple point temperature, K (Crystal); method: DSC
Triple point temperature, K	uncertainty
444.6	1

System: posaconazole; phases: Crystal, Liquid, Air at 1 atmosphere
Property: Molar enthalpy of transition or fusion, kJ/mol (Crystal); method: DSC
Molar enthalpy of transition or fusion, kJ/mol	uncertainty
47.67582	4.85457

System: voriconazole; phases: Crystal, Liquid, Air at 1 atmosphere
Property: Triple point temperature, K (Crystal); method: DSC
Triple point temperature, K	uncertainty
403.4	1

System: voriconazole; phases: Crystal, Liquid, Air at 1 atmosphere
Property: Molar enthalpy of transition or fusion, kJ/mol (Crystal); method: DSC
Molar enthalpy of transition or fusion, kJ/mol	uncertainty
26.91201	2.74657

System: posaconazole + ethanol; phases: Liquid, Crystal
Fixed: Pressure, kPa = 101
Property: Mole fraction of posaconazole (Liquid); method: gravimetric
Temperature, K	Mole fraction of posaconazole	uncertainty
278.2	0.000123	4e-05
283.2	0.00016	4e-05
288.2	0.000205	4e-05
293.2	0.000283	4e-05
298.2	0.000375	4e-05
303.2	0.000486	4e-05
308.2	0.000658	4.1e-05
313.2	0.00091	4.1e-05
318.2	0.001193	4.3e-05
323.2	0.001656	4.4e-05

System: posaconazole + propan-1-ol; phases: Liquid, Crystal
Fixed: Pressure, kPa = 101
Property: Mole fraction of posaconazole (Liquid); method: gravimetric
Temperature, K	Mole fraction of posaconazole	uncertainty
278.2	0.000115	4e-05
283.2	0.000143	4e-05
288.2	0.00018	4e-05
293.2	0.000246	4e-05
298.2	0.000314	4e-05
303.2	0.0004	4e-05
308.2	0.000519	4e-05
313.2	0.000659	4.1e-05
318.2	0.000835	4.1e-05
323.2	0.001053	4.1e-05

System: posaconazole + propan-2-ol; phases: Liquid, Crystal
Fixed: Pressure, kPa = 101
Property: Mole fraction of posaconazole (Liquid); method: gravimetric
Temperature, K	Mole fraction of posaconazole	uncertainty
278.2	0.000125	4e-05
283.2	0.000157	4e-05
288.2	0.000195	4e-05
293.2	0.000259	4e-05
298.2	0.000334	4e-05
303.2	0.000427	4e-05
308.2	0.000547	4e-05
313.2	0.000695	4.1e-05
318.2	0.000898	4.1e-05
323.2	0.001164	4.1e-05

System: posaconazole + butan-1-ol; phases: Liquid, Crystal
Fixed: Pressure, kPa = 101
Property: Mole fraction of posaconazole (Liquid); method: gravimetric
Temperature, K	Mole fraction of posaconazole	uncertainty
278.2	9.6e-05	4e-05
283.2	0.000125	4e-05
288.2	0.000155	4e-05
293.2	0.000213	4e-05
298.2	0.00027	4e-05
303.2	0.000356	4e-05
308.2	0.000445	4e-05
313.2	0.000565	4e-05
318.2	0.000715	4.1e-05
323.2	0.000898	4.1e-05

System: posaconazole + 2-methyl-1-propanol; phases: Liquid, Crystal
Fixed: Pressure, kPa = 101
Property: Mole fraction of posaconazole (Liquid); method: gravimetric
Temperature, K	Mole fraction of posaconazole	uncertainty
278.2	0.000105	4e-05
283.2	0.000134	4e-05
288.2	0.000169	4e-05
293.2	0.000227	4e-05
298.2	0.000288	4e-05
303.2	0.000371	4e-05
308.2	0.000461	4e-05
313.2	0.00059	4e-05
318.2	0.000741	4.1e-05
323.2	0.000975	4.1e-05

System: posaconazole + butanone; phases: Liquid, Crystal
Fixed: Pressure, kPa = 101
Property: Mole fraction of posaconazole (Liquid); method: gravimetric
Temperature, K	Mole fraction of posaconazole	uncertainty
278.2	0.00024	4e-05
283.2	0.000305	4e-05
288.2	0.000388	4e-05
293.2	0.000526	4e-05
298.2	0.00069	4.1e-05
303.2	0.000892	4.1e-05
308.2	0.001193	4.3e-05
313.2	0.001619	4.4e-05
318.2	0.002096	4.7e-05
323.2	0.002827	5e-05

System: posaconazole + pentan-2-one; phases: Liquid, Crystal
Fixed: Pressure, kPa = 101
Property: Mole fraction of posaconazole (Liquid); method: gravimetric
Temperature, K	Mole fraction of posaconazole	uncertainty
278.2	0.000188	4e-05
283.2	0.000241	4e-05
288.2	0.000299	4e-05
293.2	0.000408	4e-05
298.2	0.000535	4e-05
303.2	0.000684	4.1e-05
308.2	0.000919	4.2e-05
313.2	0.001253	4.3e-05
318.2	0.001642	4.5e-05
323.2	0.00226	4.7e-05

System: posaconazole + water; phases: Liquid, Crystal
Fixed: Pressure, kPa = 101
Property: Mole fraction of posaconazole (Liquid); method: gravimetric
Temperature, K	Mole fraction of posaconazole	uncertainty
278.2	2.1e-05	2.1e-05
283.2	3e-05	3e-05
288.2	4.1e-05	4e-05
293.2	5.6e-05	4e-05
298.2	8e-05	4e-05
303.2	0.000108	4e-05
308.2	0.000149	4e-05
313.2	0.000206	4e-05
318.2	0.000284	4e-05
323.2	0.000392	4e-05

System: posaconazole + dimethyl sulfoxide; phases: Liquid, Crystal
Fixed: Pressure, kPa = 101
Property: Mole fraction of posaconazole (Liquid); method: gravimetric
Temperature, K	Mole fraction of posaconazole	uncertainty
278.2	0.00044	4e-05
283.2	0.000524	4e-05
288.2	0.000619	4e-05
293.2	0.000815	4.1e-05
298.2	0.001054	4.1e-05
303.2	0.001355	4.3e-05
308.2	0.001805	4.6e-05
313.2	0.002453	4.9e-05
318.2	0.003206	5.7e-05
323.2	0.004465	6.5e-05

System: posaconazole + dimethylformamide; phases: Liquid, Crystal
Fixed: Pressure, kPa = 101
Property: Mole fraction of posaconazole (Liquid); method: gravimetric
Temperature, K	Mole fraction of posaconazole	uncertainty
278.2	0.000399	4e-05
283.2	0.000471	4e-05
288.2	0.000583	4.1e-05
293.2	0.000781	4.1e-05
298.2	0.00099	4.1e-05
303.2	0.001275	4.3e-05
308.2	0.001705	4.4e-05
313.2	0.002228	4.7e-05
318.2	0.002895	5.3e-05
323.2	0.003917	5.8e-05

System: voriconazole + ethanol; phases: Liquid, Crystal
Fixed: Pressure, kPa = 101
Property: Mole fraction of voriconazole (Liquid); method: gravimetric
Temperature, K	Mole fraction of voriconazole	uncertainty
278.2	0.000422	4e-05
283.2	0.000558	4e-05
288.2	0.000718	4.1e-05
293.2	0.000997	4.2e-05
298.2	0.001281	4.3e-05
303.2	0.001707	4.4e-05
308.2	0.002135	4.5e-05
313.2	0.002731	4.8e-05
318.2	0.003468	5.2e-05
323.2	0.004376	5.5e-05

System: voriconazole + propan-1-ol; phases: Liquid, Crystal
Fixed: Pressure, kPa = 101
Property: Mole fraction of voriconazole (Liquid); method: gravimetric
Temperature, K	Mole fraction of voriconazole	uncertainty
278.2	0.00037	4e-05
283.2	0.000485	4e-05
288.2	0.000623	4.1e-05
293.2	0.00086	4.1e-05
298.2	0.001103	4.2e-05
303.2	0.001468	4.3e-05
308.2	0.001834	4.4e-05
313.2	0.002343	4.6e-05
318.2	0.002974	4.9e-05
323.2	0.003751	5.1e-05

System: voriconazole + propan-2-ol; phases: Liquid, Crystal
Fixed: Pressure, kPa = 101
Property: Mole fraction of voriconazole (Liquid); method: gravimetric
Temperature, K	Mole fraction of voriconazole	uncertainty
278.2	0.000391	4e-05
283.2	0.000509	4e-05
288.2	0.000651	4.1e-05
293.2	0.0009	4.1e-05
298.2	0.00114	4.2e-05
303.2	0.001505	4.3e-05
308.2	0.001869	4.4e-05
313.2	0.002376	4.6e-05
318.2	0.003007	4.9e-05
323.2	0.003734	5e-05

System: voriconazole + butan-1-ol; phases: Liquid, Crystal
Fixed: Pressure, kPa = 101
Property: Mole fraction of voriconazole (Liquid); method: gravimetric
Temperature, K	Mole fraction of voriconazole	uncertainty
278.2	0.00032	4e-05
283.2	0.000418	4e-05
288.2	0.000534	4.1e-05
293.2	0.000734	4.1e-05
298.2	0.000939	4.1e-05
303.2	0.001248	4.2e-05
308.2	0.001556	4.3e-05
313.2	0.001987	4.5e-05
318.2	0.002518	4.7e-05
323.2	0.003175	4.8e-05

System: voriconazole + 2-methyl-1-propanol; phases: Liquid, Crystal
Fixed: Pressure, kPa = 101
Property: Mole fraction of voriconazole (Liquid); method: gravimetric
Temperature, K	Mole fraction of voriconazole	uncertainty
278.2	0.000356	4e-05
283.2	0.000467	4e-05
288.2	0.00059	4.1e-05
293.2	0.000815	4.1e-05
298.2	0.001032	4.1e-05
303.2	0.001325	4.2e-05
308.2	0.00162	4.3e-05
313.2	0.002042	4.4e-05
318.2	0.002542	4.6e-05
323.2	0.003177	4.8e-05

System: voriconazole + butanone; phases: Liquid, Crystal
Fixed: Pressure, kPa = 101
Property: Mole fraction of voriconazole (Liquid); method: gravimetric
Temperature, K	Mole fraction of voriconazole	uncertainty
278.2	0.000451	4e-05
283.2	0.00059	4e-05
288.2	0.00074	4.1e-05
293.2	0.001015	4.1e-05
298.2	0.001275	4.2e-05
303.2	0.001669	4.3e-05
308.2	0.00206	4.4e-05
313.2	0.002574	4.6e-05
318.2	0.003205	5e-05
323.2	0.00402	5.2e-05

System: voriconazole + pentan-2-one; phases: Liquid, Crystal
Fixed: Pressure, kPa = 101
Property: Mole fraction of voriconazole (Liquid); method: gravimetric
Temperature, K	Mole fraction of voriconazole	uncertainty
278.2	0.000419	4e-05
283.2	0.000549	4e-05
288.2	0.0007	4.1e-05
293.2	0.00096	4.1e-05
298.2	0.00122	4.2e-05
303.2	0.001607	4.3e-05
308.2	0.001995	4.4e-05
313.2	0.00254	4.7e-05
318.2	0.003204	5e-05
323.2	0.004012	5.2e-05

System: voriconazole + water; phases: Liquid, Crystal
Fixed: Pressure, kPa = 101
Property: Mole fraction of voriconazole (Liquid); method: gravimetric
Temperature, K	Mole fraction of voriconazole	uncertainty
278.2	1.9e-05	1.9e-05
283.2	2.7e-05	2.7e-05
288.2	3.7e-05	3.7e-05
293.2	5.3e-05	4e-05
298.2	7.6e-05	4e-05
303.2	0.000104	4e-05
308.2	0.000145	4e-05
313.2	0.000203	4e-05
318.2	0.000281	4e-05
323.2	0.000389	4e-05

System: voriconazole + dimethyl sulfoxide; phases: Liquid, Crystal
Fixed: Pressure, kPa = 101
Property: Mole fraction of voriconazole (Liquid); method: gravimetric
Temperature, K	Mole fraction of voriconazole	uncertainty
278.2	0.000343	4e-05
283.2	0.000445	4e-05
288.2	0.000601	4.1e-05
293.2	0.000836	4.2e-05
298.2	0.001165	4.2e-05
303.2	0.001498	4.3e-05
308.2	0.002002	4.7e-05
313.2	0.002735	5.2e-05
318.2	0.003657	6.2e-05
323.2	0.005054	7e-05

System: voriconazole + dimethylformamide; phases: Liquid, Crystal
Fixed: Pressure, kPa = 101
Property: Mole fraction of voriconazole (Liquid); method: gravimetric
Temperature, K	Mole fraction of voriconazole	uncertainty
278.2	0.000213	4e-05
283.2	0.000315	4e-05
288.2	0.000435	4e-05
293.2	0.000602	4.1e-05
298.2	0.000823	4.2e-05
303.2	0.001198	4.3e-05
308.2	0.00157	4.3e-05
313.2	0.002021	4.5e-05
318.2	0.00263	5.1e-05
323.2	0.003556	5.5e-05
