Measured thermophysical data. Measurements of the Speed of Sound in Liquid n-Butane
Source: J. Chem. Eng. Data, 2016, 10.1021/acs.jced.6b00577
Compound 1: butane, C4H10, InChI=1S/C4H10/c1-3-4-2/h3-4H2,1-2H3

System: butane; phases: Liquid
Fixed: Frequency, MHz = 8
Property: Speed of sound, m/s (Liquid); method: Pulse-echo method
Temperature, K	Pressure, kPa	Speed of sound, m/s	uncertainty
199.996	1101.43	1447.79	0.72
199.9961	2102.08	1453.53	0.72
199.9961	3102.76	1459.25	0.72
199.9961	4103.47	1464.89	0.72
199.996	5104.18	1470.49	0.72
199.9956	6105.13	1476.03	0.73
199.9956	7105.88	1481.53	0.73
199.9956	8106.6	1486.99	0.73
199.9956	9107.34	1492.39	0.73
199.9955	10108	1497.75	0.74
199.9956	12609.8	1510.92	0.74
199.9956	15111.6	1523.84	0.75
199.9957	17613.4	1536.5	0.75
199.9954	20115.2	1548.92	0.75
199.9955	25118.8	1573.08	0.76
199.9953	30122.6	1596.41	0.77
199.9952	35126.2	1618.97	0.78
199.9948	40128.5	1640.8	0.79
199.9948	45132.1	1662.03	0.8
199.9949	50135.6	1682.63	0.81
199.9951	60142.7	1722.21	0.82
199.9951	70149.8	1759.84	0.84
199.9953	80156.9	1795.79	0.85
199.9954	90164	1830.15	0.86
199.9956	100171	1863.22	0.88
200.9969	250.625	1437.19	0.71
200.9967	600.555	1439.24	0.71
200.9965	1100.47	1442.14	0.71
200.997	1101.45	1442.16	0.71
200.997	2101.94	1447.96	0.72
200.997	2102.01	1447.96	0.72
200.997	3102.62	1453.68	0.72
200.9971	4103.38	1459.38	0.72
200.9971	5104.04	1465.01	0.72
219.997	249.978	1330.46	10.02
219.9975	599.678	1332.78	0.67
219.9973	1100.72	1336.09	0.67
219.9977	1100.82	1336.09	0.67
219.9975	10107	1392.58	0.69
219.9978	12608.8	1407.34	0.7
219.9978	15110.6	1421.75	0.71
219.9977	17612.4	1435.83	0.71
219.9978	2101.56	1342.65	0.68
219.9973	2101.82	1342.65	0.68
219.9974	2102.1	1342.65	0.68
220.0041	2103.43	1342.64	0.68
219.9977	3102.31	1349.14	0.68
220.0043	3104.1	1349.13	0.68
219.9978	4103.01	1355.55	0.68
220.0042	4104.72	1355.54	0.68
219.9977	5103.6	1361.88	0.68
219.9976	6104.22	1368.15	0.68
219.9979	7104.87	1374.34	0.69
219.9976	8105.49	1380.51	0.69
219.9977	9106.16	1386.56	0.69
219.9978	20114.2	1449.59	0.72
219.9977	25117.7	1476.25	0.73
219.9976	30121.3	1501.85	0.74
219.9978	35124.9	1526.52	0.75
219.9975	40129.1	1550.28	0.76
219.9975	45132.7	1573.31	0.76
219.9978	50136.4	1595.59	0.77
219.9977	60143.6	1638.17	0.79
219.9976	70150.8	1678.49	0.81
219.9976	80157.9	1716.78	0.82
219.9978	90165.1	1753.24	0.83
219.9977	100172	1788.2	0.85
240.0016	252.205	1219.33	0.63
240.0014	602.155	1222	0.63
240.0015	1103.02	1225.8	0.63
240.0016	2103.48	1233.3	0.63
240.0029	2104.31	1233.3	0.63
240.0013	3104.05	1240.7	0.64
240.0032	3105.1	1240.7	0.64
240.0015	4104.68	1248	0.64
240.0035	4105.89	1248	0.64
240.0014	5105.31	1255.2	0.64
240.0038	5106.62	1255.2	0.64
240.0035	6107.33	1262.31	0.64
240.0033	12612	1306.37	0.66
240.0033	15113	1322.45	0.67
240.0036	17614.7	1338.08	0.67
240.0036	20116.4	1353.31	0.68
240.0035	25119.9	1382.68	0.69
240.0034	30123.4	1410.72	0.7
240.0036	35126.8	1437.56	0.71
240.0034	40130.3	1463.36	0.72
240.0024	45134.1	1488.2	0.73
240.0025	50137.6	1512.19	0.74
240.0018	60144.6	1557.82	0.76
240.0016	70151.6	1600.75	0.78
240.0037	7108.05	1269.32	0.65
240.0036	8108.78	1276.24	0.65
240.0036	9109.52	1283.08	0.65
240.0034	10110.2	1289.84	0.65
240.0021	80158.5	1641.41	0.79
240.0021	90165.3	1680.02	0.81
240.0022	100172	1716.86	0.82
259.9985	251.449	1109.14	0.58
259.9985	601.45	1112.23	0.59
259.9987	1102.15	1116.62	0.59
259.9984	2102.77	1125.27	0.59
259.9956	2103.13	1125.31	0.59
259.9986	3103.43	1133.77	0.59
259.9954	3103.82	1133.82	0.59
259.9988	4104.07	1142.13	0.6
259.9957	4104.51	1142.17	0.6
259.999	5104.72	1150.34	0.6
259.996	5105.21	1150.38	0.6
259.9957	6105.88	1158.47	0.6
259.9958	7106.52	1166.42	0.61
259.9961	8107.23	1174.26	0.61
259.9957	9107.95	1181.97	0.61
259.9951	10108.3	1189.58	0.62
259.9948	12610	1208.12	0.62
259.9953	15111.7	1226.05	0.63
259.9952	17613.4	1243.41	0.64
259.9957	20115.1	1260.26	0.64
259.9957	25118.6	1292.53	0.66
259.9961	30122.1	1323.15	0.67
259.9963	35125.5	1352.3	0.68
259.9957	40129	1380.18	0.69
259.9956	45132.7	1406.9	0.7
259.9955	50136.4	1432.6	0.71
259.9951	60143.6	1481.28	0.73
259.995	70150.7	1526.84	0.75
259.9949	80157.6	1569.77	0.76
259.9949	90164.6	1610.4	0.78
259.9963	100172	1649.05	0.79
280.0034	250.96	999.47	0.542
280.0033	601.002	1003.08	0.54
280.0033	1101.74	1008.21	0.55
280.0032	2102.38	1018.28	0.55
280.0043	12609.9	1112.63	0.59
280.0042	15111.5	1132.65	0.59
280.0041	17613.3	1151.93	0.6
280.0042	20114.9	1170.54	0.61
280.004	2102.38	1018.3	0.55
280.0032	3103.03	1028.13	0.55
280.0041	3103.12	1028.15	0.55
280.0031	4103.63	1037.77	0.56
280.0041	4103.9	1037.79	0.56
280.0028	5104.07	1047.2	0.56
280.0038	5104.65	1047.23	0.56
280.004	6105.39	1056.49	0.56
280.0042	7106.09	1065.56	0.57
280.0044	8106.82	1074.46	0.57
280.0043	9107.55	1083.21	0.57
280.0043	10108.2	1091.8	0.58
280.0041	25118.3	1205.97	0.62
280.004	30121.7	1239.32	0.64
280.0043	35125.1	1270.88	0.65
280.004	40128.5	1300.89	0.66
280.004	45132	1329.54	0.67
280.0033	50135.3	1356.98	0.68
280.0039	60142.3	1408.68	0.7
280.0039	70149.3	1456.81	0.72
280.0025	80158.9	1501.97	0.74
280.0027	90165.9	1544.56	0.75
280.0026	100173	1584.94	0.77
300.0049	599.937	893.833	0.501
300.0055	1100.4	899.926	0.504
299.9975	2102.01	911.889	0.508
300.0024	2104.25	911.909	0.508
299.9976	3102.8	923.459	0.513
300.0023	3104.95	923.478	0.513
299.9971	4103.65	934.713	0.517
300.0024	4105.67	934.728	0.517
299.9968	5104.44	945.669	0.521
300.0026	5105.89	945.676	0.521
300.0026	6106.51	956.354	0.526
300.0028	7107.18	966.776	0.53
300.0033	8107.81	976.954	0.533
299.9966	12610.5	1020.17	0.55
299.9963	15112.2	1042.56	0.56
299.9964	17613.9	1063.97	0.57
299.9972	20115	1084.5	0.58
299.9975	25118.5	1123.32	0.59
299.9972	30121.9	1159.56	0.6
299.9968	35125.4	1193.62	0.62
299.9968	40128.9	1225.82	0.63
299.9966	45132.4	1256.41	0.64
299.9965	50135.9	1285.58	0.65
299.9963	60143	1340.29	0.67
299.9962	70150.1	1390.94	0.69
299.9934	80158.1	1438.22	0.71
300.0035	9108.38	986.906	0.537
299.9968	10108.8	996.678	0.541
299.9933	90165.2	1482.66	0.73
299.9929	100172	1524.68	0.75
320.0016	601.275	783.221	0.459
319.9991	1101.18	790.665	0.461
319.9981	2101.87	805.078	0.467
319.9953	2104.08	805.159	0.467
319.9976	3102.51	818.927	0.472
319.9953	3104.8	819.008	0.472
319.9976	4103.2	832.273	0.477
319.9955	4105.51	832.354	0.478
319.997	5103.84	845.165	0.482
319.9956	5106.14	845.242	0.482
319.996	6106.8	857.711	0.487
319.996	7107.48	869.802	0.492
319.9962	8108.17	881.54	0.497
319.9963	9108.89	892.953	0.501
319.9954	10109.1	904.045	0.505
319.9963	10109.6	904.067	0.505
319.9964	12611.3	930.654	0.516
319.9965	15112.9	955.743	0.525
319.9965	17614.7	979.543	0.534
319.9966	20116.4	1002.21	0.54
319.9968	25119.9	1044.68	0.56
319.9966	30123.4	1083.95	0.57
319.9971	35126.9	1120.58	0.59
319.9971	40130.4	1155.01	0.6
319.9971	45134	1187.55	0.62
319.9956	50137.3	1218.44	0.63
319.9972	50137.5	1218.44	0.63
319.9968	60144.4	1276.1	0.65
319.9968	70151.6	1329.16	0.67
319.9971	80158.4	1378.48	0.69
319.9969	90165.5	1424.69	0.71
319.9953	100173	1468.23	0.72
340.0027	1100.43	678.122	0.418
340.0029	2101.09	696.215	0.425
340.0019	2103.65	696.271	0.425
340.0029	3101.74	713.3	0.431
340.0023	3104.31	713.359	0.431
340.0032	4102.42	729.532	0.438
340.0023	4105.01	729.589	0.438
340.0032	5102.92	745.009	0.444
340.0021	5105.58	745.066	0.444
340.0024	6106.2	759.882	0.449
340.0022	7106.82	774.104	0.455
340.0024	8107.47	787.795	0.46
340.0023	9108.12	801.008	0.465
340.0035	10106.5	813.726	0.47
340.0022	10108.5	813.773	0.47
340.0022	12610.4	844.028	0.482
340.0023	15112.2	872.222	0.493
340.0023	17614	898.696	0.503
340.0022	20115.7	923.702	0.513
340.0018	25119.2	970.085	0.531
340.0019	30122.6	1012.52	0.55
340.0021	35126.1	1051.8	0.56
340.0018	40129.6	1088.46	0.58
340.0019	45133	1122.94	0.59
340.0016	50136.5	1155.53	0.6
340.0022	60144.7	1216.04	0.63
340.002	70151.8	1271.43	0.65
340.0022	80158.8	1322.7	0.67
340.0022	90165.8	1370.55	0.69
340.0022	100173	1415.54	0.7
359.9977	2100.75	582.292	0.381
359.9974	2103.86	582.372	0.381
359.9982	3101.39	604.477	0.389
359.9978	3101.42	604.479	0.389
359.9967	3104.59	604.562	0.389
359.9977	4102	625	0.397
359.9976	4102.06	624.999	0.397
359.9967	4105.35	625.09	0.397
359.998	5102.59	644.168	0.405
359.9969	5102.98	644.182	0.405
359.9965	5106.07	644.251	0.405
359.9967	6106.86	662.279	0.412
359.9967	7107.63	679.33	0.418
359.9968	8108.38	695.538	0.425
359.9969	9109.09	711.01	0.431
359.9967	10109.8	725.827	0.436
359.9967	12611.5	760.445	0.45
359.9967	15113.3	792.205	0.462
359.9968	17615.1	821.665	0.473
359.9969	20116.8	849.226	0.484
359.9967	25120.4	899.751	0.504
359.9963	30124.2	945.466	0.521
359.9963	35127.8	987.407	0.537
359.9966	40131.2	1026.3	0.55
359.9965	45134.6	1062.68	0.57
359.9967	50138.1	1096.92	0.58
359.9966	60145.1	1160.16	0.6
359.9967	70152.1	1217.74	0.63
359.9969	80159	1270.82	0.65
359.9968	90166.1	1320.23	0.67
359.9967	100173	1366.55	0.68
379.9975	2103.23	456.129	0.332
379.9976	3104.16	488.076	0.344
379.998	4105.03	515.932	0.355
379.9979	5105.83	540.877	0.365
379.998	6106.71	563.618	0.373
379.9976	7107.52	584.618	0.382
379.9977	8108.31	604.199	0.389
379.9979	9109.12	622.597	0.396
379.9977	10109.9	639.978	0.403
379.9977	12611.1	679.849	0.418
379.9973	15112.8	715.711	0.432
379.9975	17614.5	748.486	0.445
379.9971	20116.2	778.799	0.457
379.9974	25119.7	833.691	0.478
379.9974	30123.3	882.725	0.497
379.997	35126.8	927.317	0.514
379.9983	40131.6	968.4	0.53
379.9986	45135.1	1006.62	0.54
379.9986	50138.7	1042.44	0.56
379.9989	60145.7	1108.27	0.58
379.9989	70152.7	1167.91	0.61
379.9987	80159.7	1222.69	0.63
379.9987	90166.7	1273.52	0.65
379.9986	100174	1321.06	0.67
399.9993	2704.85	329.55	0.283
399.9992	3105.08	351.68	0.292
399.9989	4105.76	396.177	0.309
399.9989	5106.37	431.84	0.323
399.9989	6107.01	462.275	0.334
399.9988	7107.72	489.164	0.345
399.9984	8108.42	513.443	0.354
399.9985	9109.39	535.712	0.363
399.9984	10110.2	556.355	0.371
399.9981	12612	602.563	0.389
399.9983	15113.9	643.081	0.404
399.9984	17615.7	679.473	0.418
399.9989	20117.5	712.704	0.431
399.9986	25121.1	772.062	0.454
399.9983	30124.7	824.409	0.474
399.9986	35128.3	871.587	0.493
399.9968	40131.5	914.764	0.509
399.9972	45135	954.727	0.525
399.9969	50138.4	992.039	0.539
399.9972	60145.3	1060.28	0.57
399.9969	70152.3	1121.82	0.59
399.997	80159.2	1178.14	0.61
399.997	90166.1	1230.27	0.63
399.9971	100173	1278.93	0.65
419.9975	4104.41	244.514	0.25
419.9969	4455.16	271.524	0.261
419.9972	4604.99	281.85	0.265
419.9971	4955.63	302.472	0.273
419.9978	5105.08	310.479	0.276
419.9969	5456.11	327.761	0.282
419.9972	5605.74	334.633	0.285
419.9977	6105.77	355.802	0.293
419.9974	6606.48	374.829	0.3
419.9978	7106.5	392.204	0.307
419.9976	8107.22	423.269	0.319
419.9976	9107.96	450.696	0.33
419.9972	10109	475.453	0.339
419.9969	12610.8	529.119	0.36
419.9972	15112.5	574.769	0.378
419.9962	17614.9	614.982	0.393
419.9961	20116.7	651.2	0.407
419.9965	25120.2	714.992	0.432
419.996	30123.7	770.535	0.453
419.9963	35127.1	820.167	0.473
419.9961	40130.6	865.305	0.49
419.9963	45134	906.887	0.506
419.9962	50137.5	945.566	0.521
419.9968	50138	945.569	0.521
419.9971	55141.5	981.829	0.535
419.9973	60145	1016.01	0.55
419.9973	70152.1	1079.28	0.57
419.9974	80159.2	1137.01	0.6
419.9976	90166.3	1190.31	0.62
419.9975	100173	1239.96	0.64
429.9958	5105.6	236.474	0.247
429.9963	5355.26	258.169	0.255
429.9959	5605.96	273.029	0.261
429.9969	5855.6	287.251	0.267
429.9963	6106.29	300.071	0.272
429.9976	6356.29	311.899	0.276
429.9976	6356.31	311.9	0.276
429.9958	6606.63	323.008	0.28
429.9972	7106.84	343.373	0.288
429.9972	7106.87	343.374	0.288
429.9975	7607.19	361.852	0.295
429.9979	8107.49	378.831	0.302
429.998	8607.8	394.6	0.308
429.9983	9108.14	409.364	0.314
429.9983	9608.49	423.279	0.319
429.9975	10108.8	436.468	0.324
429.998	11109.6	461.005	0.334
429.9979	12110.4	483.546	0.342
429.9983	13111.4	504.468	0.351
429.998	14111.8	524.058	0.358
429.998	15112.6	542.492	0.365
429.9973	17614	584.593	0.382
429.9973	20115.7	622.274	0.396
429.998	15112.6	542.492	0.365
429.9973	17614	584.593	0.382
429.9973	20115.7	622.274	0.396
