Measured thermophysical data. Solubility of Tolbutamide and Chlorpropamide in Supercritical Carbon Dioxide
Source: J. Chem. Eng. Data, 2018, 10.1021/acs.jced.8b00050
Compound 1: 4-chloro-N-(propylcarbamoyl)benzenesulfonamide, C10H13ClN2O3S, InChI=1S/C10H13ClN2O3S/c1-2-7-12-10(14)13-17(15,16)9-5-3-8(11)4-6-9/h3-6H,2,7H2,1H3,(H2,12,13,14), purity 97%
Compound 2: N-[(butylamino)carbonyl]-4-methylbenzenesulfonamide, C12H18N2O3S, InChI=1S/C12H18N2O3S/c1-3-4-9-13-12(15)14-18(16,17)11-7-5-10(2)6-8-11/h5-8H,3-4,9H2,1-2H3,(H2,13,14,15), purity 97%
Compound 3: carbon dioxide, CO2, InChI=1S/CO2/c2-1-3, purity 99.998%

System: 4-chloro-N-(propylcarbamoyl)benzenesulfonamide + carbon dioxide; phases: Fluid (supercritical or subcritical phases), Crystal
Property: Mole fraction of 4-chloro-N-(propylcarbamoyl)benzenesulfonamide (Fluid (supercritical or subcritical phases)); method: UV spectroscopy
Temperature, K	Pressure, kPa	Mole fraction of 4-chloro-N-(propylcarbamoyl)benzenesulfonamide	uncertainty
313.15	10000	2.36e-06	2.02e-06
313.15	15000	8.7e-06	2.01e-06
313.15	20000	1.39e-05	2e-06
313.15	25000	1.78e-05	2e-06
313.15	30000	2.17e-05	2e-06
333.15	15000	5.38e-06	2.06e-06
333.15	20000	1.81e-05	2.1e-06
333.15	25000	2.98e-05	2e-06
333.15	30000	3.88e-05	2.1e-06
353.15	15000	2.29e-06	2.04e-06
353.15	17500	7.11e-06	2.07e-06
353.15	20000	1.75e-05	2.2e-06
353.15	25000	3.91e-05	2.3e-06
353.15	30000	7.22e-05	2.4e-06

System: N-[(butylamino)carbonyl]-4-methylbenzenesulfonamide + carbon dioxide; phases: Fluid (supercritical or subcritical phases), Crystal
Property: Mole fraction of N-[(butylamino)carbonyl]-4-methylbenzenesulfonamide (Fluid (supercritical or subcritical phases)); method: UV spectroscopy
Temperature, K	Pressure, kPa	Mole fraction of N-[(butylamino)carbonyl]-4-methylbenzenesulfonamide	uncertainty
313.15	10000	1.66e-06	1.2e-06
313.15	15000	3.87e-06	1.2e-06
313.15	20000	5.87e-06	1.2e-06
313.15	25000	7.46e-06	1.2e-06
313.15	30000	9.2e-06	1.21e-06
333.15	15000	4.21e-06	1.23e-06
333.15	20000	9.66e-06	1.22e-06
333.15	25000	1.59e-05	1.2e-06
333.15	30000	2.09e-05	1.3e-06
353.15	15000	1.8e-06	1.22e-06
353.15	17500	4.85e-06	1.23e-06
353.15	20000	1.05e-05	1.3e-06
353.15	25000	2.43e-05	1.3e-06
353.15	30000	4.05e-05	1.4e-06
