Measured thermophysical data. Thermal and Mutual Diffusivity of Binary Mixtures of n-Dodecane and n-Tetracontane with Carbon Monoxide, Hydrogen, and Water from Dynamic Light Scattering (DLS)
Source: J. Chem. Eng. Data, 2016, 10.1021/acs.jced.5b00986
Compound 1: dodecane, C12H26, InChI=1S/C12H26/c1-3-5-7-9-11-12-10-8-6-4-2/h3-12H2,1-2H3, purity 99%
Compound 2: tetracontane, C40H82, InChI=1S/C40H82/c1-3-5-7-9-11-13-15-17-19-21-23-25-27-29-31-33-35-37-39-40-38-36-34-32-30-28-26-24-22-20-18-16-14-12-10-8-6-4-2/h3-40H2,1-2H3, purity 97%
Compound 3: hydrogen, H2, InChI=1S/H2/h1H
Compound 4: water, H2O, InChI=1S/H2O/h1H2, purity 99.9%
Compound 5: carbon monoxide, CO, InChI=1S/CO/c1-2

System: dodecane; phases: Liquid, Gas
Property: Thermal diffusivity, m2/s (Liquid); method: Dynamic light scattering
Temperature, K	Thermal diffusivity, m2/s	uncertainty
423.73	5.83e-08	3e-09
448.23	5.23e-08	2.2e-09
473.1	4.87e-08	2e-09
498.16	4.58e-08	3.4e-09
523.18	4.25e-08	2.6e-09

System: tetracontane; phases: Liquid, Gas
Property: Thermal diffusivity, m2/s (Liquid); method: Dynamic light scattering
Temperature, K	Thermal diffusivity, m2/s	uncertainty
448.09	6.57e-08	3.4e-09
448.57	6.73e-08	4.3e-09
473.26	6.86e-08	8e-09

System: dodecane + carbon monoxide; phases: Liquid, Gas
Property: Binary diffusion coefficient, m2/s (Liquid); method: Dynamic light scattering
Temperature, K	Pressure, kPa	Binary diffusion coefficient, m2/s	uncertainty
448.27	3810	1.96e-08	4.6
448.38	960	1.85e-08	3.4
473.36	1190	2.18e-08	4.2
473.37	3020	2.18e-08	3.8
498.43	2210	2.72e-08	3.4
498.56	1130	2.75e-08	3.4
523.48	1020	3.46e-08	10.8
523.49	1800	3.45e-08	5.2

System: dodecane + carbon monoxide; phases: Liquid, Gas
Property: Thermal diffusivity, m2/s (Liquid); method: Dynamic light scattering
Temperature, K	Pressure, kPa	Thermal diffusivity, m2/s	uncertainty
448.27	3810	5.72e-08	1.18e-08
448.38	960	5.5e-08	4e-09
473.36	1190	5.18e-08	1.06e-08
473.37	3020	5.16e-08	4.6e-09
498.43	2210	5.06e-08	4.2e-09
498.56	1130	4.99e-08	3e-09
523.48	1020	5.07e-08	1.22e-08
523.49	1800	5.23e-08	1.3e-08

System: dodecane + hydrogen; phases: Liquid, Gas
Property: Binary diffusion coefficient, m2/s (Liquid); method: Dynamic light scattering
Temperature, K	Pressure, kPa	Binary diffusion coefficient, m2/s	uncertainty
398.12	4210	3.05e-08	3.4
398.21	1160	2.77e-08	16.2
398.26	3580	3.08e-08	13.2
423.3	3920	3.53e-08	8.8
448.13	2450	5.2e-08	34
473.45	1930	2.1e-08	34
498.45	2960	7e-08	36
523.04	1620	8.6e-08	24
523.56	3030	7.94e-08	18

System: dodecane + hydrogen; phases: Liquid, Gas
Property: Thermal diffusivity, m2/s (Liquid); method: Dynamic light scattering
Temperature, K	Pressure, kPa	Thermal diffusivity, m2/s	uncertainty
398.12	4210	6.37e-08	5.2e-09
398.21	1160	6.27e-08	7e-09
398.26	3580	6.53e-08	1.98e-08
423.3	3920	5.9e-08	7.8e-09
448.13	2450	5.15e-08	1.34e-08
473.45	1930	5.06e-08	1.34e-08
498.45	2960	4.44e-08	1.7e-08
523.04	1620	4.61e-08	2.2e-09
523.56	3030	4.35e-08	5.8e-09

System: dodecane + water; phases: Liquid, Gas
Property: Binary diffusion coefficient, m2/s (Liquid); method: Dynamic light scattering
Temperature, K	Pressure, kPa	Binary diffusion coefficient, m2/s	uncertainty
398.11	250	1.77e-08	8.4
448.18	700	2.42e-08	7.4
472.89	500	2.74e-08	5.8
498.08	1160	3e-08	9.2
523.1	770	4.27e-08	12

System: dodecane + water; phases: Liquid, Gas
Property: Thermal diffusivity, m2/s (Liquid); method: Dynamic light scattering
Temperature, K	Pressure, kPa	Thermal diffusivity, m2/s	uncertainty
398.11	250	6.13e-08	4.8e-09
448.18	700	5.29e-08	2.6e-09
472.89	500	5.13e-08	9.2e-09
498.08	1160	5.08e-08	1.24e-08
523.1	770	4.27e-08	3.4e-09

System: carbon monoxide + tetracontane; phases: Liquid, Gas
Property: Binary diffusion coefficient, m2/s (Liquid); method: Dynamic light scattering
Temperature, K	Pressure, kPa	Binary diffusion coefficient, m2/s	uncertainty
448.37	1900	8e-09	1.74
448.38	3890	8.12e-09	1.8
473.33	1850	1.003e-08	1.58
497.65	1770	1.251e-08	1.42

System: carbon monoxide + tetracontane; phases: Liquid, Gas
Property: Thermal diffusivity, m2/s (Liquid); method: Dynamic light scattering
Temperature, K	Pressure, kPa	Thermal diffusivity, m2/s	uncertainty
448.37	1900	7.09e-08	8.2e-09
448.38	3890	7.34e-08	8.2e-09
473.33	1850	6.84e-08	4.2e-09
497.65	1770	6.49e-08	1.06e-08

System: hydrogen + tetracontane; phases: Liquid, Gas
Property: Binary diffusion coefficient, m2/s (Liquid); method: Dynamic light scattering
Temperature, K	Pressure, kPa	Binary diffusion coefficient, m2/s	uncertainty
447.71	1670	1.19e-08	4.8
473.06	3610	1.99e-08	6
498.02	3170	2.42e-08	2.4

System: hydrogen + tetracontane; phases: Liquid, Gas
Property: Thermal diffusivity, m2/s (Liquid); method: Dynamic light scattering
Temperature, K	Pressure, kPa	Thermal diffusivity, m2/s	uncertainty
447.71	1670	7.24e-08	1.32e-08
473.06	3610	6.57e-08	8.2e-09
498.02	3170	6.84e-08	7e-09

System: tetracontane + water; phases: Liquid, Gas
Property: Binary diffusion coefficient, m2/s (Liquid); method: Dynamic light scattering
Temperature, K	Pressure, kPa	Binary diffusion coefficient, m2/s	uncertainty
448.5	310	5.9e-09	2.8
473.16	590	1e-08	6.2
473.48	530	9.4e-09	2.4
498.03	910	1.31e-08	15

System: tetracontane + water; phases: Liquid, Gas
Property: Thermal diffusivity, m2/s (Liquid); method: Dynamic light scattering
Temperature, K	Pressure, kPa	Thermal diffusivity, m2/s	uncertainty
448.5	310	6.81e-08	1.14e-08
473.16	590	7.02e-08	1.74e-08
473.48	530	6.74e-08	2.8e-09
498.03	910	7.5e-08	5.2e-08
