Measured thermophysical data. Densities and Excess Molar Volumes for the Binary and Ternary Systems of (1,4-Dioxane, 1-Propanol or 2-Propanol, and 1,2-Dichloroethane) at T = (288.15 to 318.15) K. Experimental Measurements and Prigogine-Flory-Patterson Modeling
Source: J. Chem. Eng. Data, 2018, 10.1021/acs.jced.8b00067
Compound 1: 1,2-dichloroethane, C2H4Cl2, InChI=1S/C2H4Cl2/c3-1-2-4/h1-2H2
Compound 2: propan-2-ol, C3H8O, InChI=1S/C3H8O/c1-3(2)4/h3-4H,1-2H3
Compound 3: propan-1-ol, C3H8O, InChI=1S/C3H8O/c1-2-3-4/h4H,2-3H2,1H3
Compound 4: 1,4-dioxane, C4H8O2, InChI=1S/C4H8O2/c1-2-6-4-3-5-1/h1-4H2

System: 1,2-dichloroethane; phases: Liquid
Fixed: Pressure, kPa = 101.3
Property: Mass density, kg/m3 (Liquid); method: Vibrating tube method
Temperature, K	Mass density, kg/m3	uncertainty
288.15	1260.35	1.27
298.15	1245.75	1.25
308.15	1231.16	1.24
318.15	1216.56	1.22
298.15	1245.76	1.25

System: propan-2-ol; phases: Liquid
Fixed: Pressure, kPa = 101.3
Property: Mass density, kg/m3 (Liquid); method: Vibrating tube method
Temperature, K	Mass density, kg/m3	uncertainty
288.15	789.68	0.8
298.15	781.08	0.79
308.15	772.48	0.78
318.15	763.88	0.77

System: propan-1-ol; phases: Liquid
Fixed: Pressure, kPa = 101.3
Property: Mass density, kg/m3 (Liquid); method: Vibrating tube method
Temperature, K	Mass density, kg/m3	uncertainty
288.15	807.86	0.84
298.15	799.78	0.83
308.15	791.71	0.82
318.15	783.64	0.81

System: 1,4-dioxane; phases: Liquid
Fixed: Pressure, kPa = 101.3
Property: Mass density, kg/m3 (Liquid); method: Vibrating tube method
Temperature, K	Mass density, kg/m3	uncertainty
288.15	1039.12	1.04
298.15	1027.84	1.03
308.15	1016.57	1.02
318.15	1005.29	1.01

System: 1,4-dioxane + propan-1-ol; phases: Liquid
Fixed: Pressure, kPa = 101.3
Property: Mass density, kg/m3 (Liquid); method: Vibrating tube method
Temperature, K	Mole fraction of 1,4-dioxane	Mass density, kg/m3	uncertainty
288.15	0	807.86	0.84
288.15	0.05	820.78	0.85
288.15	0.15	846.12	0.87
288.15	0.249	870.65	0.89
288.15	0.35	894.72	0.91
288.15	0.35	894.75	0.91
288.15	0.45	918.23	0.94
288.15	0.496	928.74	0.95
288.15	0.55	941.07	0.96
288.15	0.55	941.11	0.96
288.15	0.65	963.51	0.97
288.15	0.75	985.54	0.99
288.15	0.75	985.58	0.99
288.15	0.849	1006.97	1.01
288.15	0.948	1028.13	1.03
288.15	0.95	1028.45	1.03
288.15	1	1039.12	1.04
298.15	0	799.78	0.83
298.15	0.05	812.62	0.84
298.15	0.15	837.54	0.86
298.15	0.249	861.62	0.88
298.15	0.35	885.38	0.9
298.15	0.35	885.41	0.9
298.15	0.45	908.54	0.93
298.15	0.496	918.89	0.94
298.15	0.55	931.06	0.95
298.15	0.55	931.09	0.95
298.15	0.65	953.2	0.96
298.15	0.75	974.94	0.98
298.15	0.75	974.98	0.98
298.15	0.849	996.12	1
298.15	0.948	1017.05	1.02
298.15	0.95	1017.36	1.02
298.15	1	1027.84	1.03
308.15	0	791.71	0.82
308.15	0.05	804.33	0.83
308.15	0.15	828.82	0.85
308.15	0.249	852.49	0.87
308.15	0.35	875.91	0.9
308.15	0.35	875.94	0.9
308.15	0.45	898.73	0.92
308.15	0.496	908.94	0.93
308.15	0.55	920.95	0.94
308.15	0.55	920.97	0.94
308.15	0.65	942.79	0.95
308.15	0.75	964.26	0.97
308.15	0.75	964.29	0.97
308.15	0.849	985.2	0.99
308.15	0.948	1005.9	1.01
308.15	0.95	1006.21	1.01
308.15	1	1016.57	1.02
318.15	0	783.64	0.81
318.15	0.05	795.88	0.82
318.15	0.15	819.95	0.84
318.15	0.249	843.22	0.86
318.15	0.35	866.3	0.89
318.15	0.35	866.33	0.89
318.15	0.45	888.78	0.91
318.15	0.496	898.85	0.92
318.15	0.55	910.71	0.93
318.15	0.55	910.73	0.93
318.15	0.65	932.28	0.94
318.15	0.75	953.5	0.96
318.15	0.75	953.51	0.96
318.15	0.849	974.19	0.98
318.15	0.948	994.68	1
318.15	0.95	995	1
318.15	1	1005.29	1.01

System: 1,4-dioxane + propan-2-ol; phases: Liquid
Fixed: Pressure, kPa = 101.3
Property: Mass density, kg/m3 (Liquid); method: Vibrating tube method
Temperature, K	Mole fraction of 1,4-dioxane	Mass density, kg/m3	uncertainty
288.15	0	789.68	0.8
288.15	0.05	802.95	0.81
288.15	0.15	829.25	0.84
288.15	0.25	855.23	0.86
288.15	0.35	880.71	0.89
288.15	0.449	905.45	0.92
288.15	0.5	918.21	0.93
288.15	0.55	930.47	0.94
288.15	0.651	955.14	0.96
288.15	0.75	979.12	0.98
288.15	0.85	1003.42	1.01
288.15	0.95	1027.3	1.03
288.15	1	1039.12	1.04
298.15	0	781.08	0.79
298.15	0.05	794.39	0.8
298.15	0.15	820.23	0.83
298.15	0.25	845.83	0.85
298.15	0.35	870.97	0.88
298.15	0.449	895.43	0.91
298.15	0.5	908.04	0.92
298.15	0.55	920.18	0.93
298.15	0.651	944.61	0.95
298.15	0.75	968.37	0.97
298.15	0.85	992.5	1
298.15	0.95	1016.17	1.02
298.15	1	1027.84	1.03
308.15	0	772.48	0.78
308.15	0.05	785.56	0.79
308.15	0.15	810.98	0.82
308.15	0.25	836.22	0.84
308.15	0.35	861.05	0.87
308.15	0.449	885.24	0.9
308.15	0.5	897.73	0.91
308.15	0.55	909.74	0.92
308.15	0.651	933.97	0.94
308.15	0.75	957.54	0.96
308.15	0.85	981.49	0.99
308.15	0.95	1004.99	1.01
308.15	1	1016.57	1.02
318.15	0	763.88	0.77
318.15	0.05	776.41	0.79
318.15	0.15	801.46	0.81
318.15	0.25	826.38	0.84
318.15	0.35	850.93	0.86
318.15	0.449	874.87	0.89
318.15	0.5	887.25	0.9
318.15	0.55	899.16	0.91
318.15	0.651	923.2	0.93
318.15	0.75	946.6	0.95
318.15	0.85	970.39	0.97
318.15	0.95	993.74	1
318.15	1	1005.29	1.01

System: 1,4-dioxane + 1,2-dichloroethane; phases: Liquid
Fixed: Pressure, kPa = 101.3
Property: Mass density, kg/m3 (Liquid); method: Vibrating tube method
Temperature, K	Mole fraction of 1,4-dioxane	Mass density, kg/m3	uncertainty
288.15	0	1260.35	1.27
288.15	0.05	1247.73	1.25
288.15	0.15	1223.15	1.23
288.15	0.25	1199.18	1.21
288.15	0.35	1175.98	1.18
288.15	0.45	1153.2	1.16
288.15	0.5	1142.13	1.15
288.15	0.55	1131.22	1.14
288.15	0.65	1109.63	1.12
288.15	0.75	1088.81	1.09
288.15	0.85	1068.59	1.07
288.15	0.95	1048.8	1.05
288.15	1	1039.12	1.04
298.15	0	1245.75	1.25
298.15	0.05	1233.53	1.24
298.15	0.15	1209.44	1.22
298.15	0.25	1185.91	1.19
298.15	0.35	1163.09	1.17
298.15	0.45	1140.69	1.15
298.15	0.5	1129.79	1.14
298.15	0.55	1119.02	1.13
298.15	0.65	1097.72	1.1
298.15	0.75	1077.13	1.08
298.15	0.85	1057.12	1.06
298.15	0.95	1037.49	1.04
298.15	1	1027.84	1.03
308.15	0	1231.16	1.24
308.15	0.05	1219.2	1.22
308.15	0.15	1195.6	1.2
308.15	0.25	1172.52	1.18
308.15	0.35	1150.11	1.16
308.15	0.45	1128.08	1.14
308.15	0.5	1117.34	1.13
308.15	0.55	1106.74	1.11
308.15	0.65	1085.72	1.09
308.15	0.75	1065.38	1.07
308.15	0.85	1045.59	1.05
308.15	0.95	1026.13	1.03
308.15	1	1016.57	1.02
318.15	0	1216.56	1.22
318.15	0.05	1204.74	1.21
318.15	0.15	1181.63	1.19
318.15	0.25	1159.01	1.16
318.15	0.35	1137.01	1.14
318.15	0.45	1115.36	1.12
318.15	0.5	1104.79	1.11
318.15	0.55	1094.34	1.1
318.15	0.65	1073.62	1.08
318.15	0.75	1053.55	1.06
318.15	0.85	1033.98	1.04
318.15	0.95	1014.72	1.02
318.15	1	1005.29	1.01

System: propan-1-ol + 1,2-dichloroethane; phases: Liquid
Fixed: Pressure, kPa = 101.3
Property: Mass density, kg/m3 (Liquid); method: Vibrating tube method
Temperature, K	Mole fraction of propan-1-ol	Mass density, kg/m3	uncertainty
288.15	0	1260.35	1.27
288.15	0.026	1248.39	1.25
288.15	0.05	1237.53	1.24
288.15	0.05	1237.37	1.24
288.15	0.1	1215.38	1.22
288.15	0.122	1205.69	1.21
288.15	0.149	1193.33	1.2
288.15	0.25	1149.08	1.16
288.15	0.35	1104.87	1.12
288.15	0.45	1060.3	1.08
288.15	0.55	1015.43	1.04
288.15	0.645	972.3	0.99
288.15	0.75	924.58	0.94
288.15	0.85	878.59	0.9
288.15	0.899	855.66	0.88
288.15	0.95	831.69	0.86
288.15	0.974	820.39	0.85
288.15	0.975	819.73	0.85
288.15	1	807.86	0.84
298.15	0	1245.75	1.25
298.15	0.026	1234.01	1.24
298.15	0.05	1223.22	1.23
298.15	0.05	1223.08	1.23
298.15	0.1	1201.26	1.21
298.15	0.122	1191.67	1.2
298.15	0.149	1179.47	1.19
298.15	0.25	1135.78	1.15
298.15	0.35	1092.18	1.11
298.15	0.45	1048.27	1.07
298.15	0.55	1004.09	1.03
298.15	0.645	961.66	0.98
298.15	0.75	914.71	0.93
298.15	0.85	869.49	0.89
298.15	0.899	846.93	0.87
298.15	0.95	823.36	0.85
298.15	0.974	812.24	0.84
298.15	0.975	811.6	0.84
298.15	1	799.78	0.83
308.15	0	1231.16	1.24
308.15	0.026	1219.5	1.22
308.15	0.05	1208.79	1.21
308.15	0.05	1208.64	1.21
308.15	0.1	1187.01	1.19
308.15	0.122	1177.5	1.18
308.15	0.149	1165.44	1.17
308.15	0.25	1122.28	1.13
308.15	0.35	1079.29	1.09
308.15	0.45	1036.04	1.06
308.15	0.55	992.55	1.02
308.15	0.645	950.81	0.97
308.15	0.75	904.65	0.92
308.15	0.85	860.21	0.88
308.15	0.899	838.05	0.86
308.15	0.95	814.89	0.84
308.15	0.974	803.95	0.83
308.15	0.975	803.33	0.83
308.15	1	791.71	0.82
318.15	0	1216.56	1.22
318.15	0.026	1204.86	1.21
318.15	0.05	1194.22	1.2
318.15	0.05	1194.08	1.2
318.15	0.1	1172.6	1.18
318.15	0.122	1163.18	1.17
318.15	0.149	1151.24	1.16
318.15	0.25	1108.59	1.12
318.15	0.35	1066.19	1.08
318.15	0.45	1023.57	1.05
318.15	0.55	980.78	1
318.15	0.645	939.73	0.96
318.15	0.75	894.38	0.91
318.15	0.85	850.73	0.87
318.15	0.899	828.97	0.85
318.15	0.95	806.24	0.83
318.15	0.974	795.49	0.82
318.15	0.975	794.89	0.82
318.15	1	783.64	0.81

System: propan-2-ol + 1,2-dichloroethane; phases: Liquid
Fixed: Pressure, kPa = 101.3
Property: Mass density, kg/m3 (Liquid); method: Vibrating tube method
Temperature, K	Mole fraction of propan-2-ol	Mass density, kg/m3	uncertainty
288.15	0	1260.35	1.27
288.15	0.05	1235.77	1.24
288.15	0.15	1188.35	1.19
288.15	0.25	1141.45	1.15
288.15	0.35	1094.84	1.11
288.15	0.45	1048.69	1.07
288.15	0.5	1025.43	1.05
288.15	0.55	1001.94	1.02
288.15	0.65	955.61	0.97
288.15	0.75	908.94	0.92
288.15	0.849	862.18	0.87
288.15	0.949	814.66	0.82
288.15	0.95	814.18	0.82
288.15	1	789.68	0.8
298.15	0	1245.75	1.25
298.15	0.05	1221.42	1.23
298.15	0.15	1174.26	1.18
298.15	0.25	1127.77	1.14
298.15	0.35	1081.66	1.1
298.15	0.45	1036.08	1.06
298.15	0.5	1013.12	1.04
298.15	0.55	989.96	1.01
298.15	0.65	944.31	0.96
298.15	0.75	898.38	0.91
298.15	0.849	852.45	0.86
298.15	0.949	805.84	0.81
298.15	0.95	805.36	0.81
298.15	1	781.08	0.79
308.15	0	1231.16	1.24
308.15	0.05	1206.94	1.21
308.15	0.15	1160	1.17
308.15	0.25	1113.89	1.12
308.15	0.35	1068.25	1.08
308.15	0.45	1023.22	1.04
308.15	0.5	1000.56	1.03
308.15	0.55	977.71	1
308.15	0.65	932.73	0.95
308.15	0.75	887.54	0.9
308.15	0.849	842.41	0.85
308.15	0.949	796.72	0.8
308.15	0.95	796.25	0.8
308.15	1	772.48	0.78
318.15	0	1216.56	1.22
318.15	0.05	1192.32	1.2
318.15	0.15	1145.58	1.15
318.15	0.25	1099.81	1.11
318.15	0.35	1054.61	1.07
318.15	0.45	1010.09	1.03
318.15	0.5	987.72	1.01
318.15	0.55	965.17	0.99
318.15	0.65	920.85	0.94
318.15	0.75	876.36	0.89
318.15	0.849	832.03	0.84
318.15	0.949	787.26	0.8
318.15	0.95	786.79	0.8
318.15	1	763.88	0.77

System: 1,4-dioxane + propan-1-ol + 1,2-dichloroethane; phases: Liquid
Fixed: Pressure, kPa = 101.3
Property: Mass density, kg/m3 (Liquid); method: Vibrating tube method
Mole fraction of 1,4-dioxane	Mole fraction of propan-1-ol	Temperature, K	Mass density, kg/m3	uncertainty
0.325	0.325	288.15	1042.56	1.14
0.275	0.275	288.15	1075.23	1.17
0.25	0.25	288.15	1091.74	1.19
0.226	0.226	288.15	1107.46	1.2
0.175	0.175	288.15	1141.19	1.23
0.125	0.125	288.15	1174.49	1.27
0.075	0.075	288.15	1208.01	1.3
0.025	0.025	288.15	1242.55	1.34
0.025	0.025	288.15	1242.64	1.34
0.75	0.25	288.15	985.54	1.2
0.75	0.25	288.15	985.58	1.2
0.713	0.238	288.15	998.01	1.21
0.637	0.212	288.15	1023.99	1.49
0.563	0.188	288.15	1050.04	1.14
0.488	0.163	288.15	1076.63	1.17
0.412	0.138	288.15	1103.47	1.31
0.412	0.137	288.15	1103.53	1.31
0.376	0.125	288.15	1116.83	1.22
0.338	0.113	288.15	1130.87	1.23
0.263	0.088	288.15	1158.61	1.25
0.188	0.063	288.15	1186.84	1.28
0.113	0.038	288.15	1215.47	1.31
0.038	0.013	288.15	1244.7	1.51
0.037	0.012	288.15	1245.1	1.51
0	0	288.15	1260.35	1.27
0.325	0.325	298.15	1031.23	1.13
0.275	0.275	298.15	1063.42	1.16
0.25	0.25	298.15	1079.69	1.17
0.226	0.226	298.15	1095.17	1.19
0.175	0.175	298.15	1128.39	1.22
0.125	0.125	298.15	1161.18	1.25
0.075	0.075	298.15	1194.21	1.29
0.025	0.025	298.15	1228.31	1.32
0.025	0.025	298.15	1228.4	1.33
0.75	0.25	298.15	974.94	1.19
0.75	0.25	298.15	974.98	1.19
0.713	0.238	298.15	987.28	1.2
0.637	0.212	298.15	1012.99	1.49
0.563	0.188	298.15	1038.73	1.13
0.488	0.163	298.15	1064.97	1.16
0.412	0.138	298.15	1091.45	1.28
0.412	0.137	298.15	1091.52	1.31
0.376	0.125	298.15	1104.62	1.2
0.338	0.113	298.15	1118.45	1.21
0.263	0.088	298.15	1145.76	1.24
0.188	0.063	298.15	1173.55	1.27
0.113	0.038	298.15	1201.7	1.3
0.038	0.013	298.15	1230.48	1.45
0.037	0.012	298.15	1230.88	1.5
0	0	298.15	1245.75	1.25
0.325	0.325	308.15	1019.75	1.11
0.275	0.275	308.15	1051.46	1.14
0.25	0.25	308.15	1067.48	1.16
0.226	0.226	308.15	1082.71	1.17
0.175	0.175	308.15	1115.43	1.2
0.125	0.125	308.15	1147.73	1.24
0.075	0.075	308.15	1180.27	1.27
0.025	0.025	308.15	1213.92	1.31
0.025	0.025	308.15	1214.02	1.31
0.75	0.25	308.15	964.26	1.18
0.75	0.25	308.15	964.29	1.18
0.713	0.238	308.15	976.47	1.18
0.637	0.212	308.15	1001.89	1.46
0.563	0.188	308.15	1027.31	1.12
0.488	0.163	308.15	1053.2	1.14
0.412	0.138	308.15	1079.3	1.26
0.412	0.137	308.15	1079.37	1.29
0.376	0.125	308.15	1092.28	1.19
0.338	0.113	308.15	1105.89	1.2
0.263	0.088	308.15	1132.79	1.22
0.188	0.063	308.15	1160.12	1.25
0.113	0.038	308.15	1187.81	1.28
0.038	0.013	308.15	1216.12	1.43
0.037	0.012	308.15	1216.52	1.48
0	0	308.15	1231.16	1.24
0.325	0.325	318.15	1008.1	1.1
0.275	0.275	318.15	1039.33	1.13
0.25	0.25	318.15	1055.1	1.14
0.226	0.226	318.15	1070.08	1.16
0.175	0.175	318.15	1102.31	1.19
0.125	0.125	318.15	1134.11	1.22
0.075	0.075	318.15	1166.18	1.25
0.025	0.025	318.15	1199.41	1.29
0.025	0.025	318.15	1199.51	1.29
0.75	0.25	318.15	953.5	1.16
0.75	0.25	318.15	953.51	1.16
0.713	0.238	318.15	965.56	1.17
0.637	0.212	318.15	990.68	1.41
0.563	0.188	318.15	1015.77	1.1
0.488	0.163	318.15	1041.3	1.13
0.412	0.138	318.15	1067.02	1.26
0.412	0.137	318.15	1067.09	1.26
0.376	0.125	318.15	1079.8	1.17
0.338	0.113	318.15	1093.2	1.18
0.263	0.088	318.15	1119.67	1.21
0.188	0.063	318.15	1146.56	1.23
0.113	0.038	318.15	1173.78	1.26
0.038	0.013	318.15	1201.63	1.44
0.037	0.012	318.15	1202.03	1.44
0	0	318.15	1216.56	1.22

System: 1,4-dioxane + propan-2-ol + 1,2-dichloroethane; phases: Liquid
Fixed: Pressure, kPa = 101.3
Property: Mass density, kg/m3 (Liquid); method: Vibrating tube method
Mole fraction of 1,4-dioxane	Mole fraction of propan-2-ol	Temperature, K	Mass density, kg/m3	uncertainty
0.25	0.75	288.15	855.23	1.34
0.219	0.731	288.15	870.56	1.35
0.196	0.655	288.15	911.12	1.36
0.173	0.578	288.15	951.49	1.4
0.151	0.502	288.15	991.55	1.42
0.128	0.426	288.15	1031.64	1.45
0.116	0.387	288.15	1052.09	1.46
0.116	0.386	288.15	1052.43	1.47
0.103	0.343	288.15	1075.03	1.45
0.104	0.348	288.15	1072.66	1.44
0.085	0.282	288.15	1107.14	1.5
0.081	0.271	288.15	1113.37	1.55
0.081	0.27	288.15	1113.48	1.51
0.059	0.195	288.15	1153.4	1.56
0.043	0.144	288.15	1180.92	1.58
0.035	0.116	288.15	1195.76	1.6
0.027	0.089	288.15	1210.46	1.62
0.015	0.049	288.15	1232.52	1.64
0.012	0.039	288.15	1238.07	1.65
0.006	0.018	288.15	1249.75	1.68
0.5	0.5	288.15	918.21	1.35
0.475	0.475	288.15	934.81	1.36
0.425	0.425	288.15	967.77	1.39
0.375	0.375	288.15	1000.92	1.89
0.373	0.373	288.15	1002.51	1.89
0.325	0.325	288.15	1034.22	1.45
0.25	0.25	288.15	1084.65	1.49
0.275	0.275	288.15	1067.76	1.48
0.25	0.25	288.15	1085.09	1.48
0.225	0.225	288.15	1101.62	1.51
0.175	0.175	288.15	1135.81	1.54
0.125	0.125	288.15	1170.42	1.58
0.075	0.075	288.15	1205.45	1.6
0.06	0.06	288.15	1216.24	1.64
0.025	0.025	288.15	1241.47	1.67
0.025	0.025	288.15	1241.48	1.67
0.018	0.018	288.15	1247.01	1.65
0.75	0.25	288.15	979.12	1.38
0.712	0.237	288.15	992.46	1.39
0.615	0.205	288.15	1026.47	1.43
0.562	0.188	288.15	1045.18	1.44
0.474	0.158	288.15	1076.97	1.47
0.417	0.139	288.15	1097.94	1.49
0.376	0.125	288.15	1113.16	1.51
0.338	0.113	288.15	1127.5	1.52
0.263	0.088	288.15	1155.77	1.55
0.188	0.063	288.15	1184.77	1.58
0.113	0.038	288.15	1214.3	1.62
0.08	0.027	288.15	1227.6	1.64
0.04	0.014	288.15	1243.46	1.66
0.017	0.006	288.15	1253.05	1.67
0	0	288.15	1260.35	1.27
0.25	0.75	298.15	845.83	1.32
0.219	0.731	298.15	860.94	1.33
0.196	0.655	298.15	900.92	1.34
0.173	0.578	298.15	940.68	1.38
0.151	0.502	298.15	980.16	1.4
0.128	0.426	298.15	1019.67	1.43
0.116	0.387	298.15	1039.83	1.44
0.116	0.386	298.15	1040.17	1.45
0.103	0.343	298.15	1062.45	1.41
0.104	0.348	298.15	1060.12	1.44
0.085	0.282	298.15	1094.14	1.49
0.081	0.271	298.15	1100.29	1.52
0.081	0.27	298.15	1100.4	1.5
0.059	0.195	298.15	1139.84	1.54
0.043	0.144	298.15	1167.06	1.56
0.035	0.116	298.15	1181.76	1.58
0.027	0.089	298.15	1196.32	1.6
0.015	0.049	298.15	1218.25	1.63
0.012	0.039	298.15	1223.76	1.64
0.006	0.018	298.15	1235.37	1.66
0.5	0.5	298.15	908.04	1.34
0.475	0.475	298.15	924.46	1.35
0.425	0.425	298.15	957.01	1.38
0.375	0.375	298.15	989.74	1.91
0.373	0.373	298.15	991.31	1.82
0.325	0.325	298.15	1022.61	1.43
0.25	0.25	298.15	1072.35	1.47
0.275	0.275	298.15	1055.7	1.46
0.25	0.25	298.15	1072.79	1.47
0.225	0.225	298.15	1089.08	1.49
0.175	0.175	298.15	1122.81	1.52
0.125	0.125	298.15	1156.95	1.56
0.075	0.075	298.15	1191.56	1.58
0.06	0.06	298.15	1202.22	1.62
0.025	0.025	298.15	1227.2	1.67
0.025	0.025	298.15	1227.21	1.66
0.018	0.018	298.15	1232.69	1.64
0.75	0.25	298.15	968.37	1.37
0.712	0.237	298.15	981.59	1.38
0.615	0.205	298.15	1015.24	1.41
0.562	0.188	298.15	1033.74	1.42
0.474	0.158	298.15	1065.14	1.45
0.417	0.139	298.15	1085.82	1.47
0.376	0.125	298.15	1100.84	1.5
0.338	0.113	298.15	1114.98	1.51
0.263	0.088	298.15	1142.84	1.53
0.188	0.063	298.15	1171.41	1.57
0.113	0.038	298.15	1200.5	1.6
0.08	0.027	298.15	1213.61	1.62
0.04	0.014	298.15	1229.24	1.64
0.017	0.006	298.15	1238.69	1.64
0	0	298.15	1245.76	1.25
0.25	0.75	308.15	836.22	1.31
0.219	0.731	308.15	851.1	1.32
0.196	0.655	308.15	890.48	1.33
0.173	0.578	308.15	929.64	1.36
0.151	0.502	308.15	968.52	1.38
0.128	0.426	308.15	1007.46	1.41
0.116	0.387	308.15	1027.35	1.42
0.116	0.386	308.15	1027.68	1.43
0.103	0.343	308.15	1049.65	1.39
0.104	0.348	308.15	1047.36	1.42
0.085	0.282	308.15	1080.93	1.47
0.081	0.271	308.15	1087.01	1.5
0.081	0.27	308.15	1087.12	1.48
0.059	0.195	308.15	1126.1	1.52
0.043	0.144	308.15	1153.04	1.54
0.035	0.116	308.15	1167.61	1.57
0.027	0.089	308.15	1182.04	1.59
0.015	0.049	308.15	1203.84	1.61
0.012	0.039	308.15	1209.32	1.62
0.006	0.018	308.15	1220.85	1.64
0.5	0.5	308.15	897.73	1.32
0.475	0.475	308.15	913.95	1.33
0.425	0.425	308.15	946.1	1.36
0.375	0.375	308.15	978.4	1.89
0.373	0.373	308.15	979.94	1.79
0.325	0.325	308.15	1010.82	1.41
0.25	0.25	308.15	1059.88	1.46
0.275	0.275	308.15	1043.44	1.44
0.25	0.25	308.15	1060.31	1.45
0.225	0.225	308.15	1076.37	1.47
0.175	0.175	308.15	1109.63	1.51
0.125	0.125	308.15	1143.34	1.55
0.075	0.075	308.15	1177.53	1.57
0.06	0.06	308.15	1188.08	1.6
0.025	0.025	308.15	1212.81	1.65
0.025	0.025	308.15	1212.82	1.65
0.018	0.018	308.15	1218.24	1.62
0.75	0.25	308.15	957.54	1.35
0.712	0.237	308.15	970.62	1.36
0.615	0.205	308.15	1003.89	1.4
0.562	0.188	308.15	1022.17	1.41
0.474	0.158	308.15	1053.17	1.44
0.417	0.139	308.15	1073.57	1.45
0.376	0.125	308.15	1088.38	1.48
0.338	0.113	308.15	1102.32	1.49
0.263	0.088	308.15	1129.78	1.52
0.188	0.063	308.15	1157.92	1.55
0.113	0.038	308.15	1186.58	1.58
0.08	0.027	308.15	1199.5	1.61
0.04	0.014	308.15	1214.89	1.62
0.017	0.006	308.15	1224.2	1.63
0	0	308.15	1231.16	1.24
0.25	0.75	318.15	826.38	1.29
0.219	0.731	318.15	841.02	1.3
0.196	0.655	318.15	879.77	1.31
0.173	0.578	318.15	918.33	1.34
0.151	0.502	318.15	956.63	1.37
0.128	0.426	318.15	995	1.39
0.116	0.387	318.15	1014.62	1.4
0.116	0.386	318.15	1014.94	1.41
0.103	0.343	318.15	1036.62	1.39
0.104	0.348	318.15	1034.36	1.38
0.085	0.282	318.15	1067.5	1.45
0.081	0.271	318.15	1073.51	1.49
0.081	0.27	318.15	1073.62	1.45
0.059	0.195	318.15	1112.17	1.5
0.043	0.144	318.15	1138.86	1.52
0.035	0.116	318.15	1153.31	1.55
0.027	0.089	318.15	1167.64	1.57
0.015	0.049	318.15	1189.3	1.59
0.012	0.039	318.15	1194.74	1.6
0.006	0.018	318.15	1206.21	1.63
0.5	0.5	318.15	887.25	1.31
0.475	0.475	318.15	903.27	1.32
0.425	0.425	318.15	935	1.34
0.375	0.375	318.15	966.86	1.82
0.373	0.373	318.15	968.39	1.82
0.325	0.325	318.15	998.84	1.39
0.25	0.25	318.15	1047.21	1.44
0.275	0.275	318.15	1031	1.42
0.25	0.25	318.15	1047.63	1.43
0.225	0.225	318.15	1063.47	1.45
0.175	0.175	318.15	1096.29	1.49
0.125	0.125	318.15	1129.56	1.53
0.075	0.075	318.15	1163.37	1.55
0.06	0.06	318.15	1173.8	1.59
0.025	0.025	318.15	1198.28	1.62
0.025	0.025	318.15	1198.29	1.62
0.018	0.018	318.15	1203.65	1.61
0.75	0.25	318.15	946.6	1.34
0.712	0.237	318.15	959.54	1.35
0.615	0.205	318.15	992.42	1.38
0.562	0.188	318.15	1010.47	1.39
0.474	0.158	318.15	1041.07	1.42
0.417	0.139	318.15	1061.18	1.44
0.376	0.125	318.15	1075.78	1.46
0.338	0.113	318.15	1089.52	1.47
0.263	0.088	318.15	1116.56	1.5
0.188	0.063	318.15	1144.28	1.53
0.113	0.038	318.15	1172.52	1.57
0.08	0.027	318.15	1185.25	1.59
0.04	0.014	318.15	1200.41	1.61
0.017	0.006	318.15	1209.58	1.62
0	0	318.15	1216.56	1.22
