Measured thermophysical data. Experimental Investigation of Isothermal Vapor-Liquid Equilibrium and Estimation of Excess Thermodynamic Properties (hE) of CHO2K-H2O from 278.15 to 423.15 K
Source: J. Chem. Eng. Data, 2019, 10.1021/acs.jced.8b01078
Compound 1: potassium formate, CHKO2, InChI=1S/CH2O2.K/c2-1-3;/h1H,(H,2,3);/q;+1/p-1, purity 99%
Compound 2: water, H2O, InChI=1S/H2O/h1H2, purity 99.8%
Compound 3: lithium bromide, BrLi, InChI=1S/BrH.Li/h1H;/q;+1/p-1, purity 99%

System: water; phases: Liquid, Gas
Property: Vapor or sublimation pressure, kPa (Liquid); method: Closed cell (Static) method
Temperature, K	Vapor or sublimation pressure, kPa	uncertainty
313.16	7.46	2.52
323.16	12.54	2.58
333.16	20.24	2.79
343.16	31.54	3.19
353.16	48.25	3.78
363.16	70.49	4.69
373.16	101.98	5.3

System: potassium formate + water; phases: Liquid, Gas
Property: Vapor or sublimation pressure, kPa (Liquid); method: Closed cell (Static) method
Mole fraction of water	Temperature, K	Vapor or sublimation pressure, kPa	uncertainty
0.824	308.15	3.5	0.6
0.824	313.15	4.5	0.6
0.824	318.15	5.5	0.8
0.824	323.15	6.8	0.9
0.824	328.15	8.5	1.4
0.824	333.15	11	1.5
0.824	338.15	13.4	1.8
0.824	343.15	16.6	2.4
0.824	348.15	21.1	3.2
0.824	351.15	25.1	3.2
0.824	353.15	26.9	3.7
0.824	355.65	29.4	3.6
0.824	358.15	32.9	5.1
0.824	363.15	39.3	5.2
0.824	368.15	50	6.2
0.824	373.15	59.5	7.1
0.824	378.15	73	8.6
0.824	383.15	77.5	3.1
0.757	311.15	2.5	0.5
0.757	313.15	3.1	0.4
0.757	319.15	3.8	0.5
0.757	323.15	4.6	0.9
0.757	328.15	6.3	1.1
0.757	333.15	7.9	1.2
0.757	338.15	10	1.4
0.757	343.15	12.5	1.9
0.757	348.15	15.8	2
0.757	353.15	18.9	2.6
0.757	364.15	29	3.2
0.757	368.15	34	4.3
0.757	373.15	42	5.7
0.757	388.15	71	6.1
0.716	308.15	2	0.5
0.716	313.15	2.7	0.6
0.716	318.15	3.3	0.5
0.716	323.15	4.3	0.6
0.716	327.15	5	0.8
0.716	333.15	6.5	1.2
0.716	338.15	9	1.7
0.716	343.15	11.6	1.7
0.716	348.15	13.4	1.6
0.716	353.15	16.4	2.3
0.716	358.15	21	2.9
0.716	363.15	26	3
0.716	368.15	31	3.1
0.716	373.15	36	4.6
0.716	388.15	60	5.1
0.667	308.15	1.6	0.3
0.667	313.15	2	0.4
0.667	318.15	2.8	0.6
0.667	323.15	3.6	0.5
0.667	328.15	4.4	0.7
0.667	333.15	5.5	0.8
0.667	338.15	6.8	0.9
0.667	343.15	8.4	1.3
0.667	348.15	10.8	1.4
0.667	353.15	13	2.1
0.667	358.15	17.4	2.5
0.667	363.15	21	2.1
0.667	368.15	24	2.8
0.667	373.15	30	3.9
0.667	392.15	54	4
0.609	323.15	3.1	0.5
0.609	333.15	4.5	0.5
0.609	338.15	5.5	0.8
0.609	343.15	6.8	1.4
0.609	348.15	9.8	1.6
0.609	350.15	11	1.7
0.609	353.15	11.8	1.6
0.609	358.15	15	1.4
0.609	363.15	16	1.6
0.609	369.15	20	1.9
0.609	373.15	22	3.5
0.539	313.15	1.1	0.3
0.539	318.15	1.3	0.5
0.539	323.15	2	0.5
0.539	328.15	2.7	0.3
0.539	333.15	3.5	0.8
0.539	338.15	4.8	1
0.539	343.15	6.5	1
0.539	348.15	7.7	1.1
0.539	353.15	10	1.3
0.539	358.15	12	1.8
0.539	373.15	21.3	2.2
0.539	380.65	28	2.7

System: lithium bromide + water; phases: Liquid, Gas
Fixed: Mass fraction of lithium bromide = 0.2
Property: Vapor or sublimation pressure, kPa (Liquid); method: Closed cell (Static) method
Temperature, K	Vapor or sublimation pressure, kPa	uncertainty
313.16	6.299	3.824
323.16	10.592	3.971
333.16	17.465	4.398
343.16	27.432	5.154
353.16	42.043	6.299
363.16	61.876	8.029
373.16	89.867	9.141
