Measured thermophysical data. Thermodynamic Properties of trans-1-Chloro-3,3,3-trifluoropropene (R1233zd(E)): Vapor Pressure, (p, p, T) Behavior, and Speed of Sound Measurements, and Equation of State
Source: J. Chem. Eng. Data, 2015, 10.1021/acs.jced.5b00348
Compound 1: (E)-1-chloro-3,3,3-trifluoroprop-1-ene, C3H2ClF3, InChI=1S/C3H2ClF3/c4-2-1-3(5,6)7/h1-2H/b2-1+, purity 99.985%

System: (E)-1-chloro-3,3,3-trifluoroprop-1-ene; phases: Liquid, Gas
Property: Vapor or sublimation pressure, kPa (Liquid); method: Closed cell (Static) method
Temperature, K	Vapor or sublimation pressure, kPa	uncertainty
280.009	65.1	2.6
290.014	96.5	2.5
300.002	139	2.5
310.013	194.9	2.7
320.023	267.1	0.4
330.007	357.9	0.6
340.011	470.7	0.8
350.024	608.7	1
360.022	775	1.2
370.026	973.2	1.5
380.034	1207.4	1.9
390.041	1480.7	2.3
400.037	1798.9	2.8
410.033	2166.7	3.4
415.027	2371	3.7
420.002	2589.3	4.1
424.979	2823.8	4.4
429.976	3076.8	4.8
434.974	3349.8	5.2
429.908	3073.2	4.8
434.907	3346	5.2
435.91	3403.5	5.3
437.909	3521	5.5

System: (E)-1-chloro-3,3,3-trifluoroprop-1-ene; phases: Liquid
Property: Mass density, kg/m3 (Liquid); method: MSTWO:UFactor:0.5
Temperature, K	Pressure, kPa	Mass density, kg/m3	uncertainty
335.006	948	1170.3	0.27
355.01	990.8	1111.28	0.28
255	1176.9	1363.85	0.31
295.004	1205.6	1273.49	0.29
314.995	1207.6	1224.52	0.28
275.001	1267.3	1319.85	0.3
234.999	1363.6	1406.94	0.32
215.006	1815.3	1449.31	0.36
220.003	1921.7	1439.12	0.33
375.009	2017.2	1052.12	0.26
355.009	2028.5	1117.99	0.28
394.996	2051.4	971.55	0.26
360.003	3249	1110.57	0.28
340.002	3674.5	1169.48	0.27
379.996	3879.4	1051.51	0.26
355.009	3980.1	1129.59	0.28
375.01	4033.7	1069.29	0.27
394.996	4073.9	999.34	0.25
335.007	4081.7	1184.44	0.27
314.996	4179.3	1234.82	0.28
319.994	4450.8	1223.61	0.28
299.99	4671.2	1271.6	0.29
300.001	4941.7	1272.36	0.29
275.001	4966.8	1328.13	0.3
255	5115	1371.16	0.31
234.999	5155.5	1412.84	0.32
295.004	5284	1284.64	0.29
365.011	5510.3	1109.87	0.28
280.001	5624.6	1318.7	0.3
384.995	5748.6	1050.89	0.26
375.01	5918	1083.16	0.27
394.997	6005.8	1020.09	0.25
355.01	6026.4	1140.59	0.28
259.995	6173.2	1362.59	0.31
345.007	6402.5	1168.7	0.29
239.998	7088	1405.56	0.32
389.998	7622.7	1050.32	0.28
325	7686.4	1222.74	0.28
370.009	7766.7	1109.2	0.27
375.01	7957.7	1096.46	0.27
394.997	7979.4	1037.8	0.28
335.008	7985.8	1199.99	0.27
355.01	8135	1150.94	0.28
314.994	8185.4	1247.49	0.28
225.004	8257.8	1437.64	0.33
220.003	8321.7	1447.77	0.33
304.995	8702.1	1271.4	0.29
350.003	9119.8	1167.95	0.29
394.998	9495	1049.74	0.28
285.004	9970.2	1317.63	0.3
355.01	9972.9	1159.29	0.29
295.004	10000.3	1296.45	0.29
375.009	10020.8	1108.53	0.27
275.001	10048.1	1338.72	0.3
234.998	10102.2	1420.19	0.32
255	10377.1	1380.36	0.31
329.998	10903.3	1221.9	0.28
264.996	11151.9	1361.41	0.31
355.01	11833.2	1167.22	0.29
335.008	11894.1	1213.83	0.28
314.995	11929.2	1258.3	0.29
309.985	12155.9	1269.71	0.29
309.991	12442	1270.47	0.29
245.003	12802.9	1404.29	0.32
335.008	14112.5	1221.09	0.3
290.006	14295.5	1316.62	0.3
230.005	14557.9	1436.27	0.35
295.005	14695	1307.26	0.3
275.001	15053.6	1348.44	0.31
235	15130.9	1427.32	0.32
255	15391.6	1388.62	0.32
269.998	16100.5	1360.29	0.31
314.994	16167.6	1269.57	0.29
250.003	18468.3	1403.09	0.32
295.003	18582.5	1315.63	0.3
319.989	19560.3	1267.92	0.29
234.998	20809	1434.98	0.35
275	21020.5	1359.23	0.31
255	21123.8	1397.53	0.34
255	24078.5	1401.93	0.35

System: (E)-1-chloro-3,3,3-trifluoroprop-1-ene; phases: Gas
Property: Mass density, kg/m3 (Gas); method: MSTWO:UFactor:0.5
Temperature, K	Pressure, kPa	Mass density, kg/m3	uncertainty
419.916	1771.2	87.947	0.029
399.936	1613	87.993	0.031
409.919	1693.1	87.977	0.03
429.904	1847.8	87.931	0.03
439.891	1922.8	87.898	0.03
439.902	1568.8	67.676	0.025
389.933	1284.7	67.575	0.029
399.932	1343.9	67.621	0.025
409.917	1401.3	67.63	0.025
419.905	1457.6	67.627	0.024
429.897	1513.1	67.627	0.029
439.95	1568.5	67.645	0.024
439.95	1137.4	46.158	0.031
369.998	523.6	24.719	0.017
380.034	547.9	25.032	0.016
390.033	572	25.32	0.016
400.032	596.5	25.617	0.018
410.014	620.7	25.887	0.016
419.997	645.1	26.148	0.015
429.998	669.6	26.403	0.015
440	694.3	26.653	0.015
359.983	499.3	24.386	0.017
370.014	524	24.736	0.017
380.032	548.2	25.047	0.017
390.034	572.2	25.33	0.016
400.031	596.5	25.615	0.016
410.01	620.7	25.885	0.016
419.996	645.1	26.149	0.015
429.997	669.6	26.403	0.015
440.001	694.2	26.651	0.016
440	551.6	20.832	0.035
349.978	366.9	17.985	0.017
359.997	387.4	18.379	0.017
370.022	407.6	18.73	0.016
380.036	428.4	19.095	0.016
390.036	448.1	19.387	0.015
400.033	468.2	19.679	0.015
410.014	488.6	19.972	0.016
419.995	508.9	20.248	0.014
419.993	510	20.295	0.015
429.998	530.5	20.558	0.014
440.001	550.9	20.806	0.014
440	255.4	9.339	0.018

System: (E)-1-chloro-3,3,3-trifluoroprop-1-ene; phases: Fluid (supercritical or subcritical phases)
Property: Mass density, kg/m3 (Fluid (supercritical or subcritical phases)); method: MSTWO:UFactor:0.5
Temperature, K	Pressure, kPa	Mass density, kg/m3	uncertainty
359.999	916.6	1094.63	0.23
364	2629	1094.08	0.23
368	1297.9	1070.52	0.23
368.001	4345.4	1093.56	0.23
372	2880.6	1070	0.23
375.995	4464.2	1069.49	0.23
375.996	1522.5	1043.77	0.27
380	2975.2	1043.29	0.22
383.991	4425	1042.8	0.24
383.993	1844.2	1016.28	0.24
391.99	2100.9	985.96	0.23
391.991	4502.1	1015.42	0.24
399.976	2020.5	946.51	0.22
399.98	2500.1	955.38	0.23
399.984	4501.4	985.13	0.23
404.945	3251	944.76	0.22
409.947	4566.2	944.3	0.22
409.948	2426	899.12	0.32
414.945	3540.5	898.69	0.22
419.944	4667.5	898.26	0.22
419.946	2831.8	841.35	0.42
424.94	3746.2	841	0.33
429.942	4675.4	840.63	0.21
429.944	3475.7	782.51	0.21
434.942	4229.4	782.14	0.33
443.943	3197.9	194.61	0.51
443.943	475.9	17.642	0.191
443.943	1352.4	55.612	0.235
443.943	547.2	20.44	0.196
443.943	2074.3	95.28	0.277
443.944	2690.9	140.42	0.35
443.944	3703.8	306.77	0.63
443.944	2893.8	159.35	0.37
443.944	2390.8	116.63	0.35
443.944	3102.5	182.38	0.5
443.944	3908.6	504.42	1.53
443.944	3199.8	194.61	0.51
443.945	1768.1	77.205	0.278
443.946	4514.9	704.98	0.26
443.946	3858	426.27	1.31
443.946	4009.4	593.8	1.23
443.947	5618.8	781.53	0.23

System: (E)-1-chloro-3,3,3-trifluoroprop-1-ene; phases: Gas
Property: Speed of sound, m/s (Gas); method: SPRES:UFactor:0.25
Temperature, K	Pressure, kPa	Speed of sound, m/s	uncertainty
289.991	80.81	137.759	0.024
289.994	80.81	137.759	0.024
289.994	80.81	137.759	0.024
290.064	80.8	137.771	0.024
290.064	80.8	137.771	0.024
290.065	80.8	137.771	0.024
300.007	79.96	140.512	0.024
300.011	80	140.516	0.024
300.012	113.38	138.897	0.025
300.012	79.96	140.513	0.024
300.012	80	140.516	0.024
300.013	79.96	140.513	0.024
300.013	80	140.516	0.024
300.014	113.38	138.897	0.025
300.017	113.38	138.898	0.025
319.592	183.14	141.46	0.029
319.594	129.53	143.662	0.024
319.595	150.7	142.805	0.027
319.597	183.12	141.461	0.03
319.599	129.45	143.666	0.027
319.601	183.09	141.461	0.03
319.601	150.69	142.806	0.027
319.603	150.69	142.806	0.027
319.605	215.23	140.111	0.028
319.605	68.35	146.027	0.024
319.607	129.45	143.666	0.024
319.608	68.35	146.027	0.024
319.612	215.18	140.112	0.028
319.614	215.09	140.116	0.025
319.615	68.35	146.028	0.024
339.429	353.83	140.908	0.027
339.435	353.63	140.919	0.024
339.435	353.76	140.912	0.027
339.441	267.83	144.074	0.027
339.444	267.89	144.072	0.027
339.444	267.82	144.074	0.027
339.444	145.11	148.285	0.026
339.446	144.98	148.29	0.026
339.449	267.82	144.076	0.027
339.453	267.8	144.076	0.027
339.453	145.24	148.282	0.026
339.468	268.41	144.06	0.028
339.473	199.9	146.451	0.027
339.474	447.53	137.128	0.028
339.474	321.82	142.124	0.027
339.476	268.39	144.062	0.028
339.477	199.88	146.452	0.026
339.477	322.03	142.115	0.027
339.478	447.52	137.129	0.028
339.478	268.43	144.062	0.027
339.479	374.34	140.121	0.028
339.48	447.57	137.128	0.025
339.48	199.88	146.453	0.026
339.483	374.34	140.121	0.028
339.485	85.51	150.214	0.026
339.485	322.01	142.117	0.027
339.486	85.52	150.219	0.029
359.44	307.1	148.625	0.027
359.443	596.92	139.26	0.026
359.443	400.17	145.801	0.027
359.444	400.23	145.8	0.027
359.445	500.35	142.579	0.028
359.446	307.4	148.616	0.027
359.447	500.35	142.579	0.028
359.45	400.08	145.806	0.027
359.45	307.02	148.628	0.027
359.452	596.94	139.259	0.029
359.454	596.95	139.259	0.029
359.454	500.35	142.581	0.027
379.766	81.05	159.475	0.024
379.767	81.05	159.474	0.024
379.767	81.06	159.476	0.024
379.769	81.05	159.473	0.025
379.77	81.06	159.477	0.024
379.773	81.06	159.479	0.024
379.773	81.06	159.48	0.024
379.775	201.41	156.715	0.026
379.777	201.47	156.718	0.025
379.778	568.62	147.472	0.026
379.778	407.46	151.699	0.026
379.779	796.81	140.888	0.029
379.78	568.62	147.473	0.026
379.781	407.74	151.687	0.033
379.782	568.62	147.473	0.026
379.782	407.41	151.701	0.026
379.782	407.5	151.699	0.026
379.782	796.76	140.89	0.029
379.783	407.82	151.692	0.027
379.783	201.53	156.716	0.025
379.784	407.85	151.691	0.026
379.785	407.85	151.69	0.027
379.787	796.72	140.893	0.03
379.787	959.42	135.639	0.029
379.79	959.4	135.64	0.027
379.791	959.44	135.638	0.03
399.682	81.08	163.784	0.024
399.685	81.08	163.783	0.024
399.686	81.08	163.785	0.024
399.692	81.05	163.759	0.024
399.693	81.05	163.757	0.024
399.702	200.89	161.425	0.025
399.703	200.81	161.425	0.025
399.704	81.05	163.76	0.024
399.707	200.94	161.421	0.025
399.71	201.02	161.421	0.024
399.719	579.15	153.489	0.025
399.72	579.09	153.49	0.025
399.723	579.18	153.489	0.025
399.727	1002.16	143.327	0.027
399.733	1002.16	143.329	0.027
399.738	1002.22	143.328	0.027
399.738	1416.67	131.288	0.031
399.739	1416.65	131.286	0.032
399.745	1416.72	131.29	0.03
399.745	1416.67	131.291	0.031
419.554	79.93	167.873	0.024
419.555	79.92	167.864	0.024
419.555	79.93	167.868	0.024
419.555	79.94	167.877	0.024
419.557	79.95	167.881	0.024
419.558	79.95	167.886	0.024
419.563	196.56	165.91	0.025
419.563	196.42	165.915	0.026
419.564	196.56	165.905	0.026
419.566	196.63	165.906	0.025
419.568	196.57	165.903	0.025
419.569	196.56	165.901	0.025
419.57	196.51	165.902	0.025
419.573	196.62	165.903	0.025
419.574	196.49	165.902	0.025
419.575	196.49	165.904	0.026
419.575	196.56	165.9	0.025
419.576	196.44	165.901	0.026
419.577	196.51	165.9	0.026
419.577	398.05	162.388	0.024
419.579	398.08	162.387	0.025
419.581	398.07	162.388	0.025
419.588	803.55	154.819	0.026
419.59	803.61	154.819	0.025
419.592	1212.38	146.317	0.027
419.592	803.59	154.819	0.026
419.593	1212.4	146.317	0.027
419.596	1212.41	146.318	0.027
419.596	1723.52	133.884	0.029
419.601	1723.51	133.886	0.029
419.603	1723.48	133.888	0.029
419.611	2072.03	123.578	0.033
419.613	2072.07	123.579	0.033
419.617	2072.13	123.582	0.033
419.627	2072.26	123.588	0.033
419.646	2072.47	123.598	0.033
419.667	2072.67	123.61	0.033
419.684	2072.8	123.621	0.033
419.69	2072.83	123.624	0.033
419.695	2072.87	123.628	0.03
