Measured thermophysical data. Solubility Modeling and Solvent Effect for Flubendazole in 12 Neat Solvents
Source: J. Chem. Eng. Data, 2019, 10.1021/acs.jced.8b01126
Compound 1: flubendazole, C16H12FN3O3, InChI=1S/C16H12FN3O3/c1-23-16(22)20-15-18-12-7-4-10(8-13(12)19-15)14(21)9-2-5-11(17)6-3-9/h2-8H,1H3,(H2,18,19,20,22), purity 98.4%
Compound 2: methanol, CH4O, InChI=1S/CH4O/c1-2/h2H,1H3, purity 99.7%
Compound 3: ethanol, C2H6O, InChI=1S/C2H6O/c1-2-3/h3H,2H2,1H3, purity 99.4%
Compound 4: propan-2-ol, C3H8O, InChI=1S/C3H8O/c1-3(2)4/h3-4H,1-2H3, purity 99.5%
Compound 5: 2-methyl-1-propanol, C4H10O, InChI=1S/C4H10O/c1-4(2)3-5/h4-5H,3H2,1-2H3, purity 99.4%
Compound 6: propan-1-ol, C3H8O, InChI=1S/C3H8O/c1-2-3-4/h4H,2-3H2,1H3, purity 99.5%
Compound 7: butan-1-ol, C4H10O, InChI=1S/C4H10O/c1-2-3-4-5/h5H,2-4H2,1H3, purity 99.4%
Compound 8: dimethylformamide, C3H7NO, InChI=1S/C3H7NO/c1-4(2)3-5/h3H,1-2H3, purity 99.5%
Compound 9: butanone, C4H8O, InChI=1S/C4H8O/c1-3-4(2)5/h3H2,1-2H3, purity 99.4%
Compound 10: 1,4-dioxane, C4H8O2, InChI=1S/C4H8O2/c1-2-6-4-3-5-1/h1-4H2, purity 99.5%
Compound 11: dimethyl sulfoxide, C2H6OS, InChI=1S/C2H6OS/c1-4(2)3/h1-2H3, purity 99.4%
Compound 12: N-methylpyrrolidone, C5H9NO, InChI=1S/C5H9NO/c1-6-4-2-3-5(6)7/h2-4H2,1H3, purity 99.5%
Compound 13: water, H2O, InChI=1S/H2O/h1H2, purity 99.9%

System: flubendazole + methanol; phases: Liquid, Crystal
Fixed: Pressure, kPa = 101.2
Property: Mole fraction of flubendazole (Liquid); method: Chromatography
Temperature, K	Mole fraction of flubendazole	uncertainty
283.15	7.083e-07	4.01e-08
288.15	1.051e-06	5.9e-08
293.15	1.57e-06	8.9e-08
298.15	2.246e-06	1.27e-07
303.15	3.149e-06	1.78e-07
308.15	4.414e-06	2.49e-07
313.15	6.314e-06	3.57e-07
318.15	8.488e-06	4.8e-07
323.15	1.168e-05	6.6e-07
328.15	1.591e-05	9e-07
333.15	2.138e-05	1.21e-06

System: flubendazole + ethanol; phases: Liquid, Crystal
Fixed: Pressure, kPa = 101.2
Property: Mole fraction of flubendazole (Liquid); method: Chromatography
Temperature, K	Mole fraction of flubendazole	uncertainty
283.15	1.028e-06	5.8e-08
288.15	1.559e-06	8.8e-08
293.15	2.407e-06	1.36e-07
298.15	3.738e-06	2.11e-07
303.15	5.436e-06	3.07e-07
308.15	7.733e-06	4.37e-07
313.15	1.007e-05	5.7e-07
318.15	1.413e-05	8e-07
323.15	1.938e-05	1.09e-06
328.15	2.554e-05	1.44e-06
333.15	3.328e-05	1.88e-06

System: flubendazole + propan-1-ol; phases: Liquid, Crystal
Fixed: Pressure, kPa = 101.2
Property: Mole fraction of flubendazole (Liquid); method: Chromatography
Temperature, K	Mole fraction of flubendazole	uncertainty
283.15	7.705e-06	4.35e-07
288.15	1.002e-05	5.7e-07
293.15	1.316e-05	7.4e-07
298.15	1.693e-05	9.6e-07
303.15	2.158e-05	1.22e-06
308.15	2.638e-05	1.49e-06
313.15	3.394e-05	1.92e-06
318.15	4.311e-05	2.43e-06
323.15	5.527e-05	3.12e-06
328.15	6.779e-05	3.83e-06
333.15	8.09e-05	4.57e-06

System: flubendazole + butan-1-ol; phases: Liquid, Crystal
Fixed: Pressure, kPa = 101.2
Property: Mole fraction of flubendazole (Liquid); method: Chromatography
Temperature, K	Mole fraction of flubendazole	uncertainty
283.15	1.934e-05	1.09e-06
288.15	2.576e-05	1.46e-06
293.15	3.463e-05	1.96e-06
298.15	4.359e-05	2.46e-06
303.15	5.639e-05	3.18e-06
308.15	7.098e-05	4.01e-06
313.15	8.77e-05	4.95e-06
318.15	0.000111	6.3e-06
323.15	0.0001413	8e-06
328.15	0.0001727	9.8e-06
333.15	0.0002178	1.23e-05

System: flubendazole + 2-methyl-1-propanol; phases: Liquid, Crystal
Fixed: Pressure, kPa = 101.2
Property: Mole fraction of flubendazole (Liquid); method: Chromatography
Temperature, K	Mole fraction of flubendazole	uncertainty
283.15	1.203e-05	6.8e-07
288.15	1.62e-05	9.2e-07
293.15	2.134e-05	1.21e-06
298.15	2.731e-05	1.54e-06
303.15	3.546e-05	2e-06
308.15	4.611e-05	2.6e-06
313.15	5.881e-05	3.32e-06
318.15	7.439e-05	4.2e-06
323.15	9.385e-05	5.3e-06
328.15	0.0001162	6.6e-06
333.15	0.0001354	7.6e-06

System: flubendazole + dimethyl sulfoxide; phases: Liquid, Crystal
Fixed: Pressure, kPa = 101.2
Property: Mole fraction of flubendazole (Liquid); method: Chromatography
Temperature, K	Mole fraction of flubendazole	uncertainty
293.15	0.001907	0.000108
298.15	0.00221	0.000125
303.15	0.002612	0.000147
308.15	0.003028	0.000171
313.15	0.003579	0.000202
318.15	0.004189	0.000236
323.15	0.004807	0.000271
328.15	0.00548	0.000309
333.15	0.006269	0.000354

System: flubendazole + dimethylformamide; phases: Liquid, Crystal
Fixed: Pressure, kPa = 101.2
Property: Mole fraction of flubendazole (Liquid); method: Chromatography
Temperature, K	Mole fraction of flubendazole	uncertainty
283.15	0.0005722	3.23e-05
288.15	0.0007084	4e-05
293.15	0.0008211	4.64e-05
298.15	0.0009801	5.53e-05
303.15	0.001158	6.5e-05
308.15	0.001383	7.8e-05
313.15	0.001619	9.1e-05
318.15	0.001876	0.000106
323.15	0.002203	0.000124
328.15	0.002588	0.000146
333.15	0.003093	0.000175

System: flubendazole + butanone; phases: Liquid, Crystal
Fixed: Pressure, kPa = 101.2
Property: Mole fraction of flubendazole (Liquid); method: Chromatography
Temperature, K	Mole fraction of flubendazole	uncertainty
283.15	0.0002317	1.31e-05
288.15	0.0003048	1.72e-05
293.15	0.0004008	2.26e-05
298.15	0.0005157	2.91e-05
303.15	0.0006819	3.85e-05
308.15	0.0008366	4.72e-05
313.15	0.001045	5.9e-05
318.15	0.001318	7.4e-05
323.15	0.001696	9.6e-05
328.15	0.00204	0.000115
333.15	0.002479	0.00014

System: flubendazole + N-methylpyrrolidone; phases: Liquid, Crystal
Fixed: Pressure, kPa = 101.2
Property: Mole fraction of flubendazole (Liquid); method: Chromatography
Temperature, K	Mole fraction of flubendazole	uncertainty
283.15	0.0007803	4.41e-05
288.15	0.000918	5.18e-05
293.15	0.001033	5.8e-05
298.15	0.001216	6.9e-05
303.15	0.001417	8e-05
308.15	0.001624	9.2e-05
313.15	0.001876	0.000106
318.15	0.002152	0.000121
323.15	0.002519	0.000142
328.15	0.003075	0.000174
333.15	0.003733	0.000211

System: flubendazole + 1,4-dioxane; phases: Liquid, Crystal
Fixed: Pressure, kPa = 101.2
Property: Mole fraction of flubendazole (Liquid); method: Chromatography
Temperature, K	Mole fraction of flubendazole	uncertainty
288.15	8.293e-05	4.68e-06
293.15	9.826e-05	5.55e-06
298.15	0.0001199	6.8e-06
303.15	0.00014	7.9e-06
308.15	0.0001684	9.5e-06
313.15	0.0001951	1.1e-05
318.15	0.0002295	1.3e-05
323.15	0.000266	1.5e-05
328.15	0.0003083	1.74e-05
333.15	0.0003573	2.02e-05

System: flubendazole + water; phases: Liquid, Crystal
Fixed: Pressure, kPa = 101.2
Property: Mole fraction of flubendazole (Liquid); method: Chromatography
Temperature, K	Mole fraction of flubendazole	uncertainty
283.15	1.033e-07	5.8e-09
288.15	1.314e-07	7.4e-09
293.15	1.668e-07	9.4e-09
298.15	2.122e-07	1.2e-08
303.15	2.602e-07	1.47e-08
308.15	3.232e-07	1.83e-08
313.15	4.003e-07	2.26e-08
318.15	4.961e-07	2.8e-08
323.15	6.065e-07	3.42e-08
328.15	7.329e-07	4.14e-08
333.15	8.814e-07	4.98e-08

System: flubendazole + propan-2-ol; phases: Liquid, Crystal
Fixed: Pressure, kPa = 101.2
Property: Mole fraction of flubendazole (Liquid); method: Chromatography
Temperature, K	Mole fraction of flubendazole	uncertainty
283.15	6.577e-06	3.71e-07
288.15	7.967e-06	4.5e-07
293.15	9.581e-06	5.41e-07
298.15	1.144e-05	6.5e-07
303.15	1.345e-05	7.6e-07
308.15	1.63e-05	9.2e-07
313.15	1.931e-05	1.09e-06
318.15	2.221e-05	1.25e-06
323.15	2.652e-05	1.5e-06
328.15	3.119e-05	1.76e-06
333.15	3.562e-05	2.01e-06
