Measured thermophysical data. Air-Water Partitioning of C5 and C6 Alkanones: Measurement, Critical Compilation, Correlation, and Recommended Data
Source: J. Chem. Eng. Data, 2019, 10.1021/acs.jced.9b00726
Compound 1: pentan-2-one, C5H10O, InChI=1S/C5H10O/c1-3-4-5(2)6/h3-4H2,1-2H3, purity 99.7%
Compound 2: pentan-3-one, C5H10O, InChI=1S/C5H10O/c1-3-5(6)4-2/h3-4H2,1-2H3, purity 99.7%
Compound 3: 3-methyl-2-butanone, C5H10O, InChI=1S/C5H10O/c1-4(2)5(3)6/h4H,1-3H3, purity 98.5%
Compound 4: 2-hexanone, C6H12O, InChI=1S/C6H12O/c1-3-4-5-6(2)7/h3-5H2,1-2H3, purity 98.2%
Compound 5: 3-hexanone, C6H12O, InChI=1S/C6H12O/c1-3-5-6(7)4-2/h3-5H2,1-2H3, purity 98.3%
Compound 6: 3-methyl-2-pentanone, C6H12O, InChI=1S/C6H12O/c1-4-5(2)6(3)7/h5H,4H2,1-3H3, purity 99%
Compound 7: 4-methylpentan-2-one, C6H12O, InChI=1S/C6H12O/c1-5(2)4-6(3)7/h5H,4H2,1-3H3, purity 99.8%
Compound 8: 2-methyl-3-pentanone, C6H12O, InChI=1S/C6H12O/c1-4-6(7)5(2)3/h5H,4H2,1-3H3, purity 99%
Compound 9: 3,3-dimethyl-2-butanone, C6H12O, InChI=1S/C6H12O/c1-5(7)6(2,3)4/h1-4H3, purity 98%
Compound 10: water, H2O, InChI=1S/H2O/h1H2, purity 99.9%

System: pentan-2-one + water; phases: Liquid
Fixed: Pressure, kPa = 100
Fixed: Mole fraction of pentan-2-one = 0
Property: Activity coefficient of pentan-2-one (Liquid); method: inert gas stripping
Temperature, K	Activity coefficient of pentan-2-one	uncertainty
273.17	61.4	6.1
278.15	67.2	6.7
288.15	78.7	7
298.15	95.9	8.6
308.15	107.3	9.4
318.15	120.6	10.6
328.15	128.8	11.3
333.15	129.9	11.4

System: pentan-3-one + water; phases: Liquid
Fixed: Pressure, kPa = 100
Fixed: Mole fraction of pentan-3-one = 0
Property: Activity coefficient of pentan-3-one (Liquid); method: inert gas stripping
Temperature, K	Activity coefficient of pentan-3-one	uncertainty
273.35	67.9	8.7
283.15	86.9	8.7
288.15	92.8	8.3
293.15	100.8	9
298.15	113.7	10.2
298.15	111.7	10
303.15	118.3	10.6
308.15	128.6	11.6
313.15	129.7	11.7
318.15	133.1	12
318.15	137.2	12.3
323.15	141.6	12.7
333.15	148	13.3

System: 3-methyl-2-butanone + water; phases: Liquid
Fixed: Pressure, kPa = 100
Fixed: Mole fraction of 3-methyl-2-butanone = 0
Property: Activity coefficient of 3-methyl-2-butanone (Liquid); method: inert gas stripping
Temperature, K	Activity coefficient of 3-methyl-2-butanone	uncertainty
278.15	64.4	8.2
288.15	72.9	7.2
298.15	91	8.1
308.15	102.2	9.1
318.15	112.2	9.8
328.15	118.7	10.4

System: 2-hexanone + water; phases: Liquid
Fixed: Pressure, kPa = 100
Fixed: Mole fraction of 2-hexanone = 0
Property: Activity coefficient of 2-hexanone (Liquid); method: inert gas stripping
Temperature, K	Activity coefficient of 2-hexanone	uncertainty
278.15	257	33
288.15	331	34
298.15	384	35
308.15	422	39
318.15	471	61
328.15	456	42

System: 3-hexanone + water; phases: Liquid
Fixed: Pressure, kPa = 100
Fixed: Mole fraction of 3-hexanone = 0
Property: Activity coefficient of 3-hexanone (Liquid); method: inert gas stripping
Temperature, K	Activity coefficient of 3-hexanone	uncertainty
278.15	260	34
288.15	340	44
298.15	418	43
308.15	458	42
319.15	515	47
328.15	524	48

System: 3-methyl-2-pentanone + water; phases: Liquid
Fixed: Pressure, kPa = 100
Fixed: Mole fraction of 3-methyl-2-pentanone = 0
Property: Activity coefficient of 3-methyl-2-pentanone (Liquid); method: inert gas stripping
Temperature, K	Activity coefficient of 3-methyl-2-pentanone	uncertainty
278.15	216	47
288.15	268	58
298.15	296	48
308.15	332	43
318.15	358	46
328.15	380	49

System: 4-methylpentan-2-one + water; phases: Liquid
Fixed: Pressure, kPa = 100
Fixed: Mole fraction of 4-methylpentan-2-one = 0
Property: Activity coefficient of 4-methylpentan-2-one (Liquid); method: inert gas stripping
Temperature, K	Activity coefficient of 4-methylpentan-2-one	uncertainty
278.15	239	24
288.15	277	28
288.15	287	29
298.15	327	30
308.15	370	34
318.15	405	37
328.15	410	38

System: 2-methyl-3-pentanone + water; phases: Liquid
Fixed: Pressure, kPa = 100
Fixed: Mole fraction of 2-methyl-3-pentanone = 0
Property: Activity coefficient of 2-methyl-3-pentanone (Liquid); method: inert gas stripping
Temperature, K	Activity coefficient of 2-methyl-3-pentanone	uncertainty
278.15	269	58
288.15	329	71
298.15	391	51
308.15	442	58
318.15	467	61
328.15	491	64

System: 3,3-dimethyl-2-butanone + water; phases: Liquid
Fixed: Pressure, kPa = 100
Fixed: Mole fraction of 3,3-dimethyl-2-butanone = 0
Property: Activity coefficient of 3,3-dimethyl-2-butanone (Liquid); method: inert gas stripping
Temperature, K	Activity coefficient of 3,3-dimethyl-2-butanone	uncertainty
278.15	217	20
288.15	272	25
298.15	321	29
308.15	345	32
318.15	370	34
328.15	379	35
