Measured thermophysical data. Solid Liquid Equilibria in the Quaternary Systems NaBr-SrBr2-MgBr2-H2O and KBr-SrBr2-MgBr2-H2O at 323 K
Source: J. Chem. Eng. Data, 2017, 10.1021/acs.jced.6b00799
Compound 1: strontium bromide (SrBr2), Br2Sr, InChI=1S/2BrH.Sr/h2*1H;/q;;+2/p-2
Compound 2: magnesium bromide (MgBr2), Br2Mg, InChI=1S/2BrH.Mg/h2*1H;/q;;+2/p-2
Compound 3: water, H2O, InChI=1S/H2O/h1H2, purity 99.8%
Compound 4: sodium bromide, BrNa, InChI=1S/BrH.Na/h1H;/q;+1/p-1
Compound 5: potassium bromide, BrK, InChI=1S/BrH.K/h1H;/q;+1/p-1

System: sodium bromide + water + strontium bromide (SrBr2); phases: Liquid, Crystal of intercomponent compound 1
Property: Mass fraction of sodium bromide (Liquid); method: Titration method
Temperature, K	Mass fraction of strontium bromide (SrBr2)	Pressure, kPa	Mass fraction of sodium bromide	uncertainty
323	0.192	100	0.3946	0.02

System: sodium bromide + water + strontium bromide (SrBr2); phases: Liquid, Crystal of intercomponent compound 2
Property: Mass fraction of sodium bromide (Liquid); method: Titration method
Temperature, K	Mass fraction of strontium bromide (SrBr2)	Pressure, kPa	Mass fraction of sodium bromide	uncertainty
323	0.192	100	0.3946	0.02

System: water + magnesium bromide (MgBr2) + strontium bromide (SrBr2); phases: Liquid, Crystal of intercomponent compound 1
Fixed: Temperature, K = 323
Fixed: Pressure, kPa = 100
Property: Mass fraction of magnesium bromide (MgBr2) (Liquid); method: Titration method
Mass fraction of strontium bromide (SrBr2)	Mass fraction of magnesium bromide (MgBr2)	uncertainty
0.159	0.3981	0.0061
0.1609	0.4007	0.0061

System: water + magnesium bromide (MgBr2) + strontium bromide (SrBr2); phases: Liquid, Crystal of intercomponent compound 2
Fixed: Temperature, K = 323
Fixed: Pressure, kPa = 100
Property: Mass fraction of magnesium bromide (MgBr2) (Liquid); method: Titration method
Mass fraction of strontium bromide (SrBr2)	Mass fraction of magnesium bromide (MgBr2)	uncertainty
0.159	0.3981	0.0061
0.1609	0.4007	0.0061

System: sodium bromide + water + magnesium bromide (MgBr2); phases: Liquid, Crystal of intercomponent compound 1
Property: Mass fraction of sodium bromide (Liquid); method: Titration method
Temperature, K	Mass fraction of magnesium bromide (MgBr2)	Pressure, kPa	Mass fraction of sodium bromide	uncertainty
323	0.5172	100	0.0051	0.0051

System: sodium bromide + water + magnesium bromide (MgBr2); phases: Liquid, Crystal of intercomponent compound 2
Property: Mass fraction of sodium bromide (Liquid); method: Titration method
Temperature, K	Mass fraction of magnesium bromide (MgBr2)	Pressure, kPa	Mass fraction of sodium bromide	uncertainty
323	0.2822	100	0.1737	0.02

System: sodium bromide + water + magnesium bromide (MgBr2); phases: Liquid, Crystal
Property: Mass fraction of sodium bromide (Liquid); method: Titration method
Temperature, K	Mass fraction of magnesium bromide (MgBr2)	Pressure, kPa	Mass fraction of sodium bromide	uncertainty
323	0.5172	100	0.0051	0.0051

System: sodium bromide + water + magnesium bromide (MgBr2); phases: Liquid, Crystal
Property: Mass fraction of sodium bromide (Liquid); method: Titration method
Temperature, K	Mass fraction of magnesium bromide (MgBr2)	Pressure, kPa	Mass fraction of sodium bromide	uncertainty
323	0.2822	100	0.1737	0.02

System: water + potassium bromide + strontium bromide (SrBr2); phases: Liquid, Crystal
Property: Mass fraction of potassium bromide (Liquid); method: Titration method
Temperature, K	Mass fraction of strontium bromide (SrBr2)	Pressure, kPa	Mass fraction of potassium bromide	uncertainty
323	0.5076	100	0.0703	0.006

System: water + potassium bromide + strontium bromide (SrBr2); phases: Liquid, Crystal of intercomponent compound 1
Property: Mass fraction of potassium bromide (Liquid); method: Titration method
Temperature, K	Mass fraction of strontium bromide (SrBr2)	Pressure, kPa	Mass fraction of potassium bromide	uncertainty
323	0.5076	100	0.0703	0.006

System: water + potassium bromide + magnesium bromide (MgBr2); phases: Liquid, Crystal of intercomponent compound 1
Property: Mass fraction of potassium bromide (Liquid); method: Titration method
Temperature, K	Mass fraction of magnesium bromide (MgBr2)	Pressure, kPa	Mass fraction of potassium bromide	uncertainty
323	0.518	100	0.008	0.006

System: water + potassium bromide + magnesium bromide (MgBr2); phases: Liquid, Crystal
Property: Mass fraction of potassium bromide (Liquid); method: Titration method
Temperature, K	Mass fraction of magnesium bromide (MgBr2)	Pressure, kPa	Mass fraction of potassium bromide	uncertainty
323	0.4433	100	0.0488	0.006

System: water + potassium bromide + magnesium bromide (MgBr2); phases: Liquid, Crystal of intercomponent compound 2
Property: Mass fraction of potassium bromide (Liquid); method: Titration method
Temperature, K	Mass fraction of magnesium bromide (MgBr2)	Pressure, kPa	Mass fraction of potassium bromide	uncertainty
323	0.518	100	0.008	0.006

System: water + potassium bromide + magnesium bromide (MgBr2); phases: Liquid, Crystal of intercomponent compound 3
Property: Mass fraction of potassium bromide (Liquid); method: Titration method
Temperature, K	Mass fraction of magnesium bromide (MgBr2)	Pressure, kPa	Mass fraction of potassium bromide	uncertainty
323	0.4433	100	0.0488	0.006
