Measured thermophysical data. Viscosities and Densities of Binary Mixtures of Hexadecane with Dissolved Methane or Carbon Dioxide at Temperatures from (298 to 473) K and at Pressures up to 120 MPa
Source: J. Chem. Eng. Data, 2017, 10.1021/acs.jced.6b00750
Compound 1: hexadecane, C16H34, InChI=1S/C16H34/c1-3-5-7-9-11-13-15-16-14-12-10-8-6-4-2/h3-16H2,1-2H3, purity 99%
Compound 2: carbon dioxide, CO2, InChI=1S/CO2/c2-1-3, purity 99.995%
Compound 3: methane, CH4, InChI=1S/CH4/h1H4, purity 99.995%

System: hexadecane; phases: Liquid
Property: Mass density, kg/m3 (Liquid); method: Vibrating wire densiometer
Temperature, K	Pressure, kPa	Mass density, kg/m3	uncertainty
298.36	1080	769.2	2.3
298.36	10010	775	2.3
298.36	21090	781.2	2.3
298.36	30500	786.4	2.4
298.36	1060	769.2	2.3
323.21	1250	751.7	2.3
323.21	21100	765.2	2.3
323.21	40990	776.9	2.3
323.21	60490	787.1	2.4
323.21	80320	796	2.4
323.21	102810	803.3	2.4
323.21	1090	751.5	2.3
348.2	1010	734.4	2.2
348.2	20050	749.2	2.3
348.2	40520	762.5	2.3
348.2	60680	773.7	2.3
348.2	80450	783.5	2.4
348.2	100940	791.9	2.4
348.2	1070	734.5	2.2
373.12	1240	717.3	2.2
373.12	20080	733.9	2.2
373.12	40700	748.6	2.2
373.12	60760	760.8	2.3
373.12	80760	771.3	2.3
373.12	100220	780.9	2.3
373.12	1210	717.2	2.2
398.21	1230	700.1	2.1
398.21	20450	719.1	2.2
398.21	40750	735.1	2.2
398.21	60560	748.2	2.2
398.21	80390	759.4	2.3
398.21	100460	769.4	2.3
398.21	1670	700.4	2.1
423.26	1420	682.4	2.1
423.26	20790	704.2	2.1
423.26	40900	721.5	2.2
423.26	60040	735.2	2.2
423.26	80490	747.7	2.2
423.26	100020	758.2	2.3
423.26	1360	682.2	2.1
448.23	1170	664.1	2
448.23	20220	688.7	2.1
448.23	40500	708.1	2.1
448.23	60460	723.5	2.2
448.23	80430	736.5	2.2
448.23	100270	748	2.2
448.23	1100	664	2
473.54	1250	645.4	2
473.54	20770	674.2	2
473.54	40980	695.3	2.1
473.54	60770	711.8	2.1
473.54	80500	725.5	2.2
473.54	101080	738.1	2.2
473.54	1270	645.8	1.9
298.61	970	768.9	2.3
298.61	10340	774.7	2.3
298.61	20570	780.8	2.3
298.61	30370	785.9	2.4
323.22	990	752.4	2.3
323.22	20960	764.8	2.3
323.22	42100	777.2	2.3
323.22	61170	787.4	2.4
323.22	81170	796	2.4
348.2	610	734.8	2.2
348.2	20370	749.8	2.3
348.2	40780	762.9	2.3
348.2	62000	773.9	2.3
348.2	80380	783.3	2.4
373.25	1370	717.7	2.2
373.25	19850	733.7	2.2
373.25	40190	748.6	2.2
373.25	59970	760.4	2.3
373.25	81310	771.4	2.3
398.28	1050	700.3	2.1
398.28	21190	719.6	2.2
398.28	41290	735.3	2.2
398.28	59990	747.8	2.2
398.28	80670	759.3	2.3
423.31	1460	682.9	2.1
423.31	20610	704.4	2.1
423.31	40760	721.8	2.2
423.31	60120	735.2	2.2
423.31	80990	748.2	2.2
448.48	1230	663.8	2
448.48	20750	688.9	2.1
448.48	40680	707.8	2.1
448.48	60650	723.1	2.2
448.48	80720	736.2	2.2
473.85	1400	645.2	1.9
473.85	21260	674.3	2
473.85	41040	694.7	2.1
473.85	61190	711.3	2.1
473.85	81710	725.7	2.2

System: hexadecane; phases: Liquid
Property: Viscosity, Pa*s (Liquid); method: Vibrating wire viscometry
Temperature, K	Pressure, kPa	Viscosity, Pa*s	uncertainty
298.36	1080	0.003109	6.5e-05
298.36	10010	0.003497	7.2e-05
298.36	21090	0.004032	8.4e-05
298.36	30500	0.004534	9.4e-05
298.36	1060	0.003107	6.5e-05
323.21	1250	0.001872	4e-05
323.21	21100	0.002387	5e-05
323.21	40990	0.002957	6.1e-05
323.21	60490	0.003598	7.5e-05
323.21	80320	0.004381	9.1e-05
323.21	102810	0.00508	0.000105
323.21	1090	0.001874	4e-05
348.2	1010	0.001255	2.7e-05
348.2	20050	0.00157	3.3e-05
348.2	40520	0.001939	4.1e-05
348.2	60680	0.002356	4.9e-05
348.2	80450	0.002806	5.9e-05
348.2	100940	0.003278	6.8e-05
348.2	1070	0.001251	2.7e-05
373.12	1240	0.00091	2e-05
373.12	20080	0.001136	2.4e-05
373.12	40700	0.001397	2.9e-05
373.12	60760	0.001678	3.5e-05
373.12	80760	0.001988	4.2e-05
373.12	100220	0.002303	4.8e-05
373.12	1210	0.000911	2e-05
398.21	1230	0.000693	1.5e-05
398.21	20450	0.000872	1.9e-05
398.21	40750	0.001066	2.3e-05
398.21	60560	0.001265	2.7e-05
398.21	80390	0.001488	3.1e-05
398.21	100460	0.00171	3.6e-05
398.21	1670	0.000694	1.5e-05
423.26	1420	0.000544	1.2e-05
423.26	20790	0.000691	1.5e-05
423.26	40900	0.000845	1.8e-05
423.26	60040	0.000998	2.1e-05
423.26	80490	0.001171	2.5e-05
423.26	100020	0.001348	2.8e-05
423.26	1360	0.000542	1.2e-05
448.23	1170	0.000438	1e-05
448.23	20220	0.000559	1.3e-05
448.23	40500	0.000689	1.5e-05
448.23	60460	0.00082	1.8e-05
448.23	80430	0.000958	2e-05
448.23	100270	0.001098	2.3e-05
448.23	1100	0.000437	1e-05
473.54	1250	0.000359	1e-05
473.54	20770	0.000469	1.1e-05
473.54	40980	0.000579	1.3e-05
473.54	60770	0.000688	1.5e-05
473.54	80500	0.000803	1.7e-05
473.54	101080	0.000924	2e-05
473.54	1270	0.00036	9e-06
298.61	970	0.003143	6.5e-05
298.61	10340	0.003562	7.3e-05
298.61	20570	0.004041	8.4e-05
298.61	30370	0.004588	9.4e-05
323.22	990	0.001878	4e-05
323.22	20960	0.002429	5.1e-05
323.22	42100	0.003007	6.2e-05
323.22	61170	0.003666	7.6e-05
323.22	81170	0.004471	9.2e-05
348.2	610	0.001275	2.7e-05
348.2	20370	0.001595	3.3e-05
348.2	40780	0.00197	4.1e-05
348.2	62000	0.002398	5e-05
348.2	80380	0.002813	5.9e-05
373.25	1370	0.000926	2e-05
373.25	19850	0.001148	2.4e-05
373.25	40190	0.001399	2.9e-05
373.25	59970	0.001692	3.5e-05
373.25	81310	0.001995	4.2e-05
398.28	1050	0.000697	1.5e-05
398.28	21190	0.000879	1.9e-05
398.28	41290	0.001082	2.3e-05
398.28	59990	0.001267	2.7e-05
398.28	80670	0.001498	3.1e-05
423.31	1460	0.000554	1.2e-05
423.31	20610	0.000699	1.5e-05
423.31	40760	0.000853	1.8e-05
423.31	60120	0.001012	2.2e-05
423.31	80990	0.001189	2.5e-05
448.48	1230	0.000445	1e-05
448.48	20750	0.000571	1.3e-05
448.48	40680	0.000702	1.5e-05
448.48	60650	0.000831	1.8e-05
448.48	80720	0.00097	2.1e-05
473.85	1400	0.000367	9e-06
473.85	21260	0.000478	1.1e-05
473.85	41040	0.00059	1.3e-05
473.85	61190	0.000706	1.5e-05
473.85	81710	0.000815	1.8e-05

System: carbon dioxide + hexadecane; phases: Liquid
Property: Mass density, kg/m3 (Liquid); method: Vibrating wire densiometer
Mole fraction of carbon dioxide	Temperature, K	Pressure, kPa	Mass density, kg/m3	uncertainty
0.069	298.16	11130	776.5	2.3
0.069	298.16	21440	782.8	2.4
0.069	298.16	30250	787.6	2.4
0.069	298.16	10920	776.3	2.3
0.069	373.08	10380	726.3	2.2
0.069	373.08	21470	735.9	2.2
0.069	373.08	40330	749.9	2.3
0.069	373.08	60300	762.5	2.3
0.069	373.08	80560	773.5	2.3
0.069	373.08	100830	783.5	2.4
0.069	373.08	12120	728	2.2
0.069	323.15	10410	759.1	2.3
0.069	323.15	20230	765.7	2.3
0.069	323.15	40860	778.3	2.3
0.069	323.15	60910	788.7	2.4
0.069	323.15	80840	798.2	2.4
0.069	323.15	99870	806	2.4
0.069	323.15	10420	759.2	2.3
0.069	423.11	11500	694.2	2.1
0.069	423.11	21700	705.2	2.2
0.069	423.11	40710	722.5	2.2
0.069	423.11	60590	737.2	2.2
0.069	423.11	80740	750	2.3
0.069	423.11	101550	761.6	2.3
0.069	423.11	11890	694.7	2.1
0.5877	298.18	10440	802.3	2.5
0.5877	298.18	20560	811.8	2.5
0.5877	298.18	30070	819.7	2.5
0.5877	298.18	40380	827.4	2.5
0.5877	298.18	10670	802.7	2.5
0.5877	373.11	20760	745.5	2.3
0.5877	373.11	40220	768.7	2.4
0.5877	373.11	60460	787.7	2.4
0.5877	373.11	80240	803.1	2.4
0.5877	373.11	20790	745.5	2.3
0.5877	473.15	43720	697.7	2.2
0.5877	473.15	60700	720.7	2.2
0.5877	473.15	80450	742	2.3
0.5877	473.15	100840	760.2	2.3
0.5877	473.15	120610	775.2	2.4
0.5877	473.15	43620	697.7	2.2
0.5877	323.15	10630	779	2.4
0.5877	323.15	20850	790.2	2.4
0.5877	323.15	40110	807.6	2.5
0.5877	323.15	60100	822.7	2.5
0.5877	323.15	10860	779.5	2.4
0.5877	423.11	25910	708.9	2.2
0.5877	423.11	40190	730.3	2.3
0.5877	423.11	60240	753.3	2.3
0.5877	423.11	80460	772	2.3
0.5877	423.11	100800	787.9	2.4
0.5877	423.11	118170	799.8	2.4
0.5877	423.11	25970	709.4	2.2
0.727	298.14	21810	822.6	2.5
0.727	298.14	31030	831.7	2.5
0.727	298.14	41130	840.7	2.6
0.727	298.14	22010	822.8	2.5
0.727	373.08	26600	752.7	2.3
0.727	373.08	40830	773	2.4
0.727	373.08	60000	794.6	2.4
0.727	373.08	80110	813.1	2.5
0.727	373.08	99990	828.7	2.5
0.727	373.08	117640	840.7	2.5
0.727	373.08	26470	752.5	2.3
0.727	473.26	61330	719.1	2.2
0.727	473.26	80480	744	2.3
0.727	473.26	100590	765.1	2.3
0.727	473.26	120860	783	2.4
0.727	473.26	61090	718.9	2.2
0.727	323.12	21410	796.3	2.4
0.727	323.12	40330	817.3	2.5
0.727	323.12	60540	835.2	2.5
0.727	323.12	80280	850.1	2.6
0.727	323.12	100230	863.2	2.6
0.727	323.12	119920	874.7	2.6
0.727	323.12	21230	796.3	2.4
0.727	423.11	42200	730.3	2.3
0.727	423.11	60280	755.6	2.3
0.727	423.11	80390	777.7	2.4
0.727	423.11	100360	795.9	2.4
0.727	423.11	120210	811.4	2.5
0.727	423.11	42080	730.1	2.3

System: carbon dioxide + hexadecane; phases: Liquid
Property: Viscosity, Pa*s (Liquid); method: Vibrating wire viscometry
Mole fraction of carbon dioxide	Temperature, K	Pressure, kPa	Viscosity, Pa*s	uncertainty
0.069	298.16	11130	0.003075	6.6e-05
0.069	298.16	21440	0.003474	7.4e-05
0.069	298.16	30250	0.00387	8.2e-05
0.069	298.16	10920	0.003057	6.6e-05
0.069	373.08	10380	0.000927	2.5e-05
0.069	373.08	21470	0.001048	2.3e-05
0.069	373.08	40330	0.001263	2.7e-05
0.069	373.08	60300	0.001514	3.2e-05
0.069	373.08	80560	0.001794	3.8e-05
0.069	373.08	100830	0.002087	4.7e-05
0.069	373.08	12120	0.000947	2e-05
0.069	323.15	10410	0.00183	3.9e-05
0.069	323.15	20230	0.002061	4.4e-05
0.069	323.15	40860	0.00256	5.4e-05
0.069	323.15	60910	0.00313	6.6e-05
0.069	323.15	80840	0.003755	7.9e-05
0.069	323.15	99870	0.004474	9.3e-05
0.069	323.15	10420	0.001827	3.9e-05
0.069	423.11	11500	0.000574	1.3e-05
0.069	423.11	21700	0.000645	1.5e-05
0.069	423.11	40710	0.000778	1.7e-05
0.069	423.11	60590	0.000929	2e-05
0.069	423.11	80740	0.001083	2.3e-05
0.069	423.11	101550	0.001253	2.7e-05
0.069	423.11	11890	0.000576	1.3e-05
0.5877	298.18	10440	0.001003	2.5e-05
0.5877	298.18	20560	0.001107	2.7e-05
0.5877	298.18	30070	0.001219	2.9e-05
0.5877	298.18	40380	0.001344	3.3e-05
0.5877	298.18	10670	0.000998	2.5e-05
0.5877	373.11	20760	0.000463	1.1e-05
0.5877	373.11	40220	0.000564	1.3e-05
0.5877	373.11	60460	0.00067	1.5e-05
0.5877	373.11	80240	0.000775	1.8e-05
0.5877	373.11	20790	0.000463	1.1e-05
0.5877	473.15	43720	0.000292	8e-06
0.5877	473.15	60700	0.000343	9e-06
0.5877	473.15	80450	0.000402	1e-05
0.5877	473.15	100840	0.00046	1.1e-05
0.5877	473.15	120610	0.00052	1.2e-05
0.5877	473.15	43620	0.000293	8e-06
0.5877	323.15	10630	0.000704	1.7e-05
0.5877	323.15	20850	0.000786	1.8e-05
0.5877	323.15	40110	0.000947	2.2e-05
0.5877	323.15	60100	0.001122	2.6e-05
0.5877	323.15	10860	0.000703	1.7e-05
0.5877	423.11	25910	0.000328	8e-06
0.5877	423.11	40190	0.000384	9e-06
0.5877	423.11	60240	0.000462	1.1e-05
0.5877	423.11	80460	0.000537	1.2e-05
0.5877	423.11	100800	0.000614	1.4e-05
0.5877	423.11	118170	0.000683	1.5e-05
0.5877	423.11	25970	0.00033	8e-06
0.727	298.14	21810	0.000786	1.8e-05
0.727	298.14	31030	0.000861	2e-05
0.727	298.14	41130	0.000943	2.1e-05
0.727	298.14	22010	0.000787	1.8e-05
0.727	373.08	26600	0.000365	9e-06
0.727	373.08	40830	0.000424	1e-05
0.727	373.08	60000	0.000503	1.2e-05
0.727	373.08	80110	0.000581	1.3e-05
0.727	373.08	99990	0.000659	1.5e-05
0.727	373.08	117640	0.000735	1.7e-05
0.727	373.08	26470	0.000365	9e-06
0.727	473.26	61330	0.000268	7e-06
0.727	473.26	80480	0.000313	8e-06
0.727	473.26	100590	0.00036	9e-06
0.727	473.26	120860	0.000407	1e-05
0.727	473.26	61090	0.000267	7e-06
0.727	323.12	21410	0.000565	1.3e-05
0.727	323.12	40330	0.000679	1.6e-05
0.727	323.12	60540	0.000806	1.8e-05
0.727	323.12	80280	0.00093	2.1e-05
0.727	323.12	100230	0.001064	2.5e-05
0.727	323.12	119920	0.001204	2.7e-05
0.727	323.12	21230	0.000565	1.3e-05
0.727	423.11	42200	0.000296	8e-06
0.727	423.11	60280	0.000353	9e-06
0.727	423.11	80390	0.000412	1e-05
0.727	423.11	100360	0.000471	1.1e-05
0.727	423.11	120210	0.000529	1.2e-05
0.727	423.11	42080	0.000296	8e-06

System: methane + hexadecane; phases: Liquid
Property: Mass density, kg/m3 (Liquid); method: Vibrating wire densiometer
Mole fraction of methane	Temperature, K	Pressure, kPa	Mass density, kg/m3	uncertainty
0.1013	298.15	10230	781.6	2.4
0.1013	298.15	19830	786.5	2.4
0.1013	323.22	10080	765.4	2.3
0.1013	323.22	20170	771.2	2.3
0.1013	323.22	40020	783.4	2.4
0.1013	323.22	60000	791.6	2.4
0.1013	323.22	78560	801.7	2.4
0.1013	373.26	10000	732.3	2.2
0.1013	373.26	20170	740.6	2.2
0.1013	373.26	40110	754.5	2.3
0.1013	373.26	60080	767.4	2.3
0.1013	373.26	80130	777.3	2.3
0.1013	423.31	15700	707.2	2.2
0.1013	423.31	20010	711.8	2.2
0.1013	423.31	40030	728	2.2
0.1013	423.31	60000	744.5	2.3
0.1013	423.31	80070	754.2	2.3
0.1013	473.17	40030	705.1	2.2
0.1013	473.17	60040	721.8	2.2
0.1013	473.17	80060	735.5	2.2
0.2021	298.22	10040	775.4	2.3
0.2021	298.22	19950	781.3	2.4
0.2021	323.32	10010	756.6	2.3
0.2021	323.32	20100	763.2	2.3
0.2021	323.32	39150	775.8	2.4
0.2021	373.2	10050	721.1	2.5
0.2021	373.2	12610	723.4	2.2
0.2021	373.2	20020	729.5	2.2
0.2021	373.2	40260	744.4	2.3
0.2021	373.2	60350	757.1	2.3
0.2021	373.2	65050	759.8	2.3
0.2021	423.24	10310	686.8	2.2
0.2021	423.24	10870	687.6	2.2
0.2021	423.24	20030	697.4	2.1
0.2021	423.24	40040	715.6	2.2
0.2021	423.24	60080	730.3	2.2
0.2021	423.24	80150	743.2	2.3
0.2021	423.24	10900	687.1	2.2
0.2021	473.36	13010	656.8	2.1
0.2021	473.36	20070	666.6	2.1
0.2021	473.36	40070	688.4	2.1
0.2021	473.36	60040	706.1	2.1
0.2021	473.36	80030	720.5	2.2
0.2021	473.36	12980	656.9	2.1
0.2976	298.21	20070	780.7	2.3
0.2976	298.21	30320	786	2.4
0.2976	323.23	20400	769.6	2.6
0.2976	323.23	21740	770.3	2.4
0.2976	323.23	40220	781.5	2.4
0.2976	323.23	60040	791.5	2.4
0.2976	323.23	79910	800.3	2.4
0.2976	323.23	21720	770.4	2.4
0.2976	373.41	24100	738.2	2.2
0.2976	373.41	40140	749.9	2.3
0.2976	373.41	60030	762.2	2.3
0.2976	373.41	80100	773.7	2.3
0.2976	373.41	24090	738.5	2.2
0.2976	423.58	20550	703.3	2.3
0.2976	423.58	22750	705.4	2.2
0.2976	423.58	40090	720.8	2.2
0.2976	423.58	60240	735.9	2.2
0.2976	423.58	80360	748.5	2.3
0.2976	423.58	20510	703.1	2.3
0.2976	473.4	24480	676.6	2.1
0.2976	473.4	40130	693.5	2.1
0.2976	473.4	60110	710.7	2.2
0.2976	473.4	79930	724.7	2.2
0.2976	473.4	24500	676.6	2.1
0.3979	298.33	13910	781.1	2.4
0.3979	298.33	20030	784.6	2.4
0.3979	298.33	30040	791	2.4
0.3979	323.26	14530	763.7	2.3
0.3979	323.26	14750	763.9	2.3
0.3979	323.26	20040	766.5	2.3
0.3979	323.26	40050	778.7	2.4
0.3979	373.47	16680	730.1	2.2
0.3979	373.47	16740	729.9	2.2
0.3979	373.47	20010	732.4	2.2
0.3979	373.47	40020	747.6	2.3
0.3979	373.47	54720	756.7	2.3
0.3979	373.47	56030	757.3	2.3
0.3979	423.94	16530	696.8	2.1
0.3979	423.94	16610	697.1	2.1
0.3979	423.94	20030	700.1	2.2
0.3979	423.94	40010	718.3	2.2
0.3979	423.94	56150	730.8	2.2
0.3979	473.68	22720	673.5	2.1
0.3979	473.68	25730	676.9	2.1
0.3979	473.68	40080	692.4	2.1
0.3979	473.68	60000	709.8	2.2
0.3979	473.68	80230	724.2	2.2

System: methane + hexadecane; phases: Liquid
Property: Viscosity, Pa*s (Liquid); method: Vibrating wire viscometry
Mole fraction of methane	Temperature, K	Pressure, kPa	Viscosity, Pa*s	uncertainty
0.1013	298.15	10230	0.003304	7e-05
0.1013	298.15	19830	0.003687	7.8e-05
0.1013	323.22	10080	0.001993	4.2e-05
0.1013	323.22	20170	0.002205	4.7e-05
0.1013	323.22	40020	0.00269	5.7e-05
0.1013	323.22	60000	0.003255	6.8e-05
0.1013	323.22	78560	0.003927	8.2e-05
0.1013	373.26	10000	0.000967	2.2e-05
0.1013	373.26	20170	0.001112	2.4e-05
0.1013	373.26	40110	0.001334	2.9e-05
0.1013	373.26	60080	0.001571	3.4e-05
0.1013	373.26	80130	0.001897	4.3e-05
0.1013	423.31	15700	0.000611	1.4e-05
0.1013	423.31	20010	0.000643	1.5e-05
0.1013	423.31	40030	0.000816	1.8e-05
0.1013	423.31	80070	0.001133	2.5e-05
0.1013	473.17	40030	0.000591	1.3e-05
0.1013	473.17	60040	0.000687	1.5e-05
0.1013	473.17	80060	0.000794	1.7e-05
0.2021	298.22	10040	0.003308	7.1e-05
0.2021	298.22	19950	0.003742	7.9e-05
0.2021	323.32	10010	0.001901	4e-05
0.2021	323.32	20100	0.002147	4.5e-05
0.2021	323.32	39150	0.002576	5.4e-05
0.2021	373.2	10050	0.000926	3.6e-05
0.2021	373.2	12610	0.000951	2.1e-05
0.2021	373.2	20020	0.001037	2.2e-05
0.2021	373.2	40260	0.00127	2.7e-05
0.2021	373.2	60350	0.001521	3.2e-05
0.2021	373.2	65050	0.001586	3.4e-05
0.2021	423.24	10310	0.000557	1.2e-05
0.2021	423.24	10870	0.000556	1.2e-05
0.2021	423.24	20030	0.000625	1.4e-05
0.2021	423.24	40040	0.000762	1.7e-05
0.2021	423.24	60080	0.000912	2e-05
0.2021	423.24	80150	0.001067	2.3e-05
0.2021	423.24	10900	0.000557	1.2e-05
0.2021	473.36	13010	0.000387	9e-06
0.2021	473.36	20070	0.000425	1e-05
0.2021	473.36	40070	0.00053	1.2e-05
0.2021	473.36	60040	0.000627	1.4e-05
0.2021	473.36	80030	0.000732	1.6e-05
0.2021	473.36	12980	0.000388	9e-06
0.2976	298.21	20070	0.003712	8e-05
0.2976	298.21	30320	0.004196	8.8e-05
0.2976	323.23	20400	0.002151	4.7e-05
0.2976	323.23	21740	0.002146	0.000119
0.2976	323.23	40220	0.002597	5.5e-05
0.2976	323.23	60040	0.003162	6.7e-05
0.2976	323.23	79910	0.003859	8.1e-05
0.2976	323.23	21720	0.002147	0.000121
0.2976	373.41	24100	0.001038	2.2e-05
0.2976	373.41	40140	0.001222	2.6e-05
0.2976	373.41	60030	0.001465	3.1e-05
0.2976	373.41	80100	0.001749	4e-05
0.2976	373.41	24090	0.00104	2.2e-05
0.2976	423.58	20550	0.000606	1.4e-05
0.2976	423.58	22750	0.000618	1.8e-05
0.2976	423.58	40090	0.000734	1.6e-05
0.2976	423.58	60240	0.000873	1.9e-05
0.2976	423.58	80360	0.00103	2.3e-05
0.2976	423.58	20510	0.000612	1.4e-05
0.2976	473.4	24480	0.000431	1e-05
0.2976	473.4	40130	0.000501	1.2e-05
0.2976	473.4	60110	0.0006	1.4e-05
0.2976	473.4	79930	0.000717	1.6e-05
0.2976	473.4	24500	0.000427	1e-05
0.3979	298.33	13910	0.003321	7.1e-05
0.3979	298.33	20030	0.003548	7.5e-05
0.3979	298.33	30040	0.003938	8.3e-05
0.3979	323.26	14530	0.001887	4.3e-05
0.3979	323.26	14750	0.001918	4.4e-05
0.3979	323.26	20040	0.002058	4.4e-05
0.3979	323.26	40050	0.00256	5.4e-05
0.3979	373.47	16680	0.000921	3.1e-05
0.3979	373.47	16740	0.000942	3.2e-05
0.3979	373.47	20010	0.00097	4.1e-05
0.3979	373.47	40020	0.00117	2.6e-05
0.3979	373.47	54720	0.001365	2.9e-05
0.3979	373.47	56030	0.001364	2.9e-05
0.3979	423.94	16530	0.000565	1.3e-05
0.3979	423.94	16610	0.000555	1.3e-05
0.3979	423.94	20030	0.000587	1.7e-05
0.3979	423.94	40010	0.000717	1.6e-05
0.3979	423.94	56150	0.000822	1.8e-05
0.3979	473.68	22720	0.00042	1e-05
0.3979	473.68	25730	0.000435	1e-05
0.3979	473.68	40080	0.000502	1.2e-05
0.3979	473.68	60000	0.000596	1.3e-05
0.3979	473.68	80230	0.000704	1.6e-05
