Measured thermophysical data. Vapor Liquid Equilibrium Measurements for Carbon Dioxide + Cyclohexene + Squalane at High Pressures Using a Synthetic Method
Source: J. Chem. Eng. Data, 2017, 10.1021/acs.jced.6b01018
Compound 1: carbon dioxide, CO2, InChI=1S/CO2/c2-1-3, purity 99%
Compound 2: cyclohexene, C6H10, InChI=1S/C6H10/c1-2-4-6-5-3-1/h1-2H,3-6H2, purity 99%
Compound 3: ethanol, C2H6O, InChI=1S/C2H6O/c1-2-3/h3H,2H2,1H3, purity 99.8%
Compound 4: 2,6,10,15,19,23-hexamethyltetracosane, C30H62, InChI=1S/C30H62/c1-25(2)15-11-19-29(7)23-13-21-27(5)17-9-10-18-28(6)22-14-24-30(8)20-12-16-26(3)4/h25-30H,9-24H2,1-8H3, purity 99%

System: cyclohexene + carbon dioxide; phases: Liquid, Gas
Property: Vapor or sublimation pressure, kPa (Liquid); method: Visual
Mole fraction of carbon dioxide	Temperature, K	Vapor or sublimation pressure, kPa	uncertainty
0.2999	371.42	6140	520
0.2999	383.3	6670	570
0.2999	392.81	6940	580
0.3978	328.29	5550	460
0.3978	348.21	6720	540
0.3978	371.48	8080	660
0.3978	388.23	9040	740
0.4635	338.92	7150	570
0.4635	357.45	8500	690
0.4635	375.3	9810	790
0.4635	387.2	10630	860
0.5147	328.23	6850	540
0.5147	348.61	8570	680
0.5147	372.2	10620	840
0.5147	398.45	12410	990
0.6001	313.35	6130	480
0.6001	342.37	8950	700
0.6001	371.55	11630	910
0.6501	313.15	6330	500
0.6501	323.25	7360	580
0.6501	333.2	8370	650
0.6998	313.2	6510	510
0.6998	323.25	7620	600
0.6998	333.15	8690	680
0.749	313.15	6620	520
0.749	323.15	7740	600
0.749	333.18	8940	700
0.7671	313.25	6670	530
0.7671	323.2	7840	620
0.7671	333.15	8990	710
0.8001	313.15	6930	550
0.8001	323.15	8230	650
0.8001	333.15	9420	740
0.8504	313.62	7210	570
0.8504	323.22	8470	660
0.8504	333.15	9750	760

System: cyclohexene + carbon dioxide; phases: Liquid, Gas
Fixed: Mole fraction of carbon dioxide = 0.4635
Property: Vapor or sublimation pressure, kPa (Liquid); method: Closed cell (Static) method
Temperature, K	Vapor or sublimation pressure, kPa	uncertainty
338.95	6977	404
357.45	8587	403
375.15	9150	403
387.15	10567	408

System: 2,6,10,15,19,23-hexamethyltetracosane + carbon dioxide; phases: Liquid, Gas
Property: Vapor or sublimation pressure, kPa (Liquid); method: Visual
Mole fraction of carbon dioxide	Temperature, K	Vapor or sublimation pressure, kPa	uncertainty
0.4738	353.23	5650	480
0.4738	362.59	6080	520
0.4738	374.1	6600	550
0.4738	382.725	6960	580
0.4738	392.97	7360	620
0.56221	332.8	6180	530
0.56221	342.83	6680	570
0.56221	353.27	7240	600
0.56221	363.39	7930	650
0.56221	373.41	8450	690
0.56221	383.47	8950	730
0.56221	393.67	9420	770
0.603	322.98	6210	540
0.603	333.48	7140	600
0.603	343.23	7680	650
0.603	352.6	8340	710
0.603	364.11	8890	730
0.603	373.13	9420	770
0.603	382.75	9990	820
0.603	393.48	10790	900
0.6854	303.4	6180	560
0.6854	313.28	7060	620
0.6854	323.2	8150	700
0.6854	333.23	8990	770
0.6854	343.08	9960	850
0.6854	353.33	10690	920
0.8002	313.15	10330	860
0.8002	323.52	11910	980
0.8002	333.13	13460	1110
0.8002	343.22	14600	1210
0.8002	353.2	16090	1330
0.8002	363.05	17360	1430
0.8002	373.15	18520	1510
0.8002	383.15	19660	1600

System: 2,6,10,15,19,23-hexamethyltetracosane + carbon dioxide; phases: Liquid, Gas
Property: Vapor or sublimation pressure, kPa (Liquid); method: Closed cell (Static) method
Mole fraction of carbon dioxide	Temperature, K	Vapor or sublimation pressure, kPa	uncertainty
0.4738	353.25	5690	270
0.4738	362.55	6160	280
0.4738	374.15	6630	290
0.4738	382.75	6950	300
0.4738	392.85	7370	320
0.5622	332.75	6140	330
0.5622	342.85	6640	360
0.5622	353.25	7210	290
0.5622	363.45	7910	290
0.5622	373.65	8470	300
0.5622	383.45	8900	320
0.5622	393.65	9570	320
0.603	323.25	6350	300
0.603	333.45	7260	300
0.603	343.35	7890	340
0.603	352.65	8330	350
0.603	364.25	8940	320
0.603	373.15	9430	330
0.603	382.75	10120	370
0.6854	304.05	6290	360
0.6854	313.25	7030	350
0.6854	323.25	8180	360
0.6854	333.15	8830	360
0.6854	342.95	9990	400
0.6854	353.25	10760	440
0.8002	313.15	10380	370
0.8002	323.45	11990	380
0.8002	333.15	12940	430
0.8002	343.15	14400	440
0.8002	353.35	15950	500
0.8002	363.05	17310	510
0.8002	373.15	18560	510
0.8002	383.25	19670	530

System: ethanol + 2,6,10,15,19,23-hexamethyltetracosane + carbon dioxide; phases: Liquid, Gas
Property: Vapor or sublimation pressure, kPa (Liquid); method: Visual
Mole fraction of carbon dioxide	Mole fraction of 2,6,10,15,19,23-hexamethyltetracosane	Temperature, K	Vapor or sublimation pressure, kPa	uncertainty
0.6414	0.01	318.15	6740	529
0.6414	0.01	328.15	7710	651
0.6414	0.01	337.95	8720	719
0.5949	0.0504	327.65	7940	632
0.5949	0.0504	337.85	8910	706
0.5949	0.0504	347.9	9950	795
0.5949	0.0504	358.15	10980	876
0.5773	0.0952	334.35	8485	681
0.5773	0.0952	343.55	9392	749
0.5773	0.0952	362.43	11234	894
0.577	0.0952	383.15	12980	1049
0.5528	0.0997	333.15	7990	668
0.5528	0.0997	343.25	8970	745
0.5528	0.0997	352.65	9720	809
0.5528	0.0997	363.05	10630	882
0.5528	0.0997	372.75	11470	932
0.509	0.1489	323.23	5690	510
0.509	0.1489	333.45	6458	555
0.509	0.1489	343.31	7198	623
0.509	0.1489	353.27	7892	676
0.509	0.1489	363.21	8593	729
0.509	0.1489	373.32	9793	817
0.509	0.1489	383.25	10477	847
0.4569	0.1964	343.4	6775	533
0.4569	0.1964	353.31	7433	584
0.4569	0.1964	363.07	8078	639
0.4569	0.1964	373.11	8370	698
0.4569	0.1964	383.29	8963	758
0.4569	0.1964	393.25	9367	787
0.2333	0.051	328.12	3237	497
0.2333	0.051	353.08	4058	1050
0.2333	0.051	362.48	4243	1111
0.2333	0.051	373.48	4540	623
0.2333	0.051	383.55	4927	710

System: ethanol + 2,6,10,15,19,23-hexamethyltetracosane + carbon dioxide; phases: Liquid, Gas
Property: Vapor or sublimation pressure, kPa (Liquid); method: Closed cell (Static) method
Mole fraction of carbon dioxide	Mole fraction of 2,6,10,15,19,23-hexamethyltetracosane	Temperature, K	Vapor or sublimation pressure, kPa	uncertainty
0.5011	0.1489	323.25	5680	440
0.5011	0.1489	333.45	6450	400
0.5011	0.1489	343.25	7220	400
0.5011	0.1489	353.35	7790	400
0.5773	0.0952	334.35	8470	460
0.5773	0.0952	343.55	9390	460
0.5773	0.0952	362.15	11180	470
0.5773	0.0952	383.15	13140	470

System: ethanol + carbon dioxide; phases: Liquid, Gas
Fixed: Mole fraction of carbon dioxide = 0.4998
Property: Vapor or sublimation pressure, kPa (Liquid); method: Visual
Temperature, K	Vapor or sublimation pressure, kPa	uncertainty
305.08	5580	450
313.08	6360	500
323	7420	580
333.1	9040	700
343.39	10110	790
352.97	11140	870
363.25	12060	940
372.5	12770	990
383.49	13470	1040
