Measured thermophysical data. Phase Equilibrium Measurement and Thermodynamic Modeling of the 4-Methylpentan-2-one/3-Methylphenol, and 4-Methylphenol/Water Ternary Systems at 298.2, 313.2, and 323.2 K and 0.1 MPa
Source: J. Chem. Eng. Data, 2017, 10.1021/acs.jced.6b00513
Compound 1: 4-methylpentan-2-one, C6H12O, InChI=1S/C6H12O/c1-5(2)4-6(3)7/h5H,4H2,1-3H3, purity 99%
Compound 2: 3-methylphenol, C7H8O, InChI=1S/C7H8O/c1-6-3-2-4-7(8)5-6/h2-5,8H,1H3, purity 99%
Compound 3: 4-methylphenol, C7H8O, InChI=1S/C7H8O/c1-6-2-4-7(8)5-3-6/h2-5,8H,1H3, purity 99%
Compound 4: 1,3,5-trimethylbenzene, C9H12, InChI=1S/C9H12/c1-7-4-8(2)6-9(3)5-7/h4-6H,1-3H3, purity 99.5%
Compound 5: methanol, CH4O, InChI=1S/CH4O/c1-2/h2H,1H3, purity 99.9%
Compound 6: butyl ethanoate, C6H12O2, InChI=1S/C6H12O2/c1-3-4-5-8-6(2)7/h3-5H2,1-2H3, purity 99.5%
Compound 7: water, H2O, InChI=1S/H2O/h1H2, purity 99.9%

System: 4-methylpentan-2-one; phases: Liquid
Property: Mass density, kg/m3 (Liquid); method: Buoyancy - hydrostatic balance
Pressure, kPa	Temperature, K	Mass density, kg/m3	uncertainty
101.3	298.2	799.8	6

System: 3-methylphenol; phases: Liquid
Property: Mass density, kg/m3 (Liquid); method: Buoyancy - hydrostatic balance
Pressure, kPa	Temperature, K	Mass density, kg/m3	uncertainty
101.3	298.2	1034.5	6

System: 4-methylphenol; phases: Metastable liquid
Property: Mass density, kg/m3 (Metastable liquid); method: Buoyancy - hydrostatic balance
Pressure, kPa	Temperature, K	Mass density, kg/m3	uncertainty
101.3	298.2	1034.4	6

System: 1,3,5-trimethylbenzene; phases: Liquid
Property: Mass density, kg/m3 (Liquid); method: Buoyancy - hydrostatic balance
Pressure, kPa	Temperature, K	Mass density, kg/m3	uncertainty
101.3	298.2	864	6

System: methanol; phases: Liquid
Property: Mass density, kg/m3 (Liquid); method: Buoyancy - hydrostatic balance
Pressure, kPa	Temperature, K	Mass density, kg/m3	uncertainty
101.3	298.2	791	6

System: butyl ethanoate; phases: Liquid
Property: Mass density, kg/m3 (Liquid); method: Buoyancy - hydrostatic balance
Pressure, kPa	Temperature, K	Mass density, kg/m3	uncertainty
101.3	298.2	882.2	6

System: water; phases: Liquid
Property: Mass density, kg/m3 (Liquid); method: Buoyancy - hydrostatic balance
Pressure, kPa	Temperature, K	Mass density, kg/m3	uncertainty
101.3	298.2	997.2	6

System: 4-methylpentan-2-one + 3-methylphenol + water; phases: Liquid mixture 2, Liquid mixture 1
Fixed: Pressure, kPa = 101.3
Property: Mass fraction of 3-methylphenol (Liquid mixture 2); method: Chromatography
Property: Mass fraction of 3-methylphenol (Liquid mixture 1); method: Chromatography
Property: Mass fraction of 4-methylpentan-2-one (Liquid mixture 1); method: Chromatography
Temperature, K	Mass fraction of 4-methylpentan-2-one	Mass fraction of 3-methylphenol	uncertainty	Mass fraction of 3-methylphenol	uncertainty	Mass fraction of 4-methylpentan-2-one	uncertainty
298.2	0.004	0.0043	0.0013	0.5283	0.0064	0.4083	
323.2	0.0057	0.0031	0.0012	0.3927	0.0061	0.5341	
323.2	0.0065	0.0024	0.0012	0.3347	0.0059	0.5985	
298.2	0.0097	0.0009	0.0009	0.2078	0.0056	0.7542	
323.2	0.0074	0.0019	0.0012	0.2858	0.0057	0.6525	
323.2	0.0092	0.0009	0.0009	0.1855	0.0054	0.7696	
313.2	0.0036	0.0047	0.0013	0.5425	0.0064	0.3856	
323.2	0.0136	0		0		0.9722	
298.2	0.0059	0.0028	0.0012	0.4094	0.0062	0.5353	
298.2	0.007	0.0021	0.0011	0.3428	0.006	0.6074	
298.2	0.008	0.0016	0.0011	0.2944	0.0058	0.6601	
313.2	0.0079	0.0015	0.0011	0.2644	0.0057	0.6867	
298.2	0.0089	0.0012	0.0011	0.2468	0.0057	0.7115	
298.2	0.0111	0.0005	0.0005	0.1538	0.0055	0.8128	
313.2	0.0148	0		0		0.9756	
298.2	0.0171	0		0		0.9806	
313.2	0.0045	0.004	0.0013	0.4872	0.0065	0.4434	
313.2	0.0054	0.0032	0.0013	0.4252	0.0062	0.5103	
313.2	0.0063	0.0024	0.0012	0.3612	0.006	0.58	
313.2	0.0073	0.0018	0.0012	0.3004	0.0058	0.6458	
313.2	0.0087	0.0011	0.0011	0.2163	0.0055	0.7404	
323.2	0.0083	0.0013	0.0011	0.2284	0.0055	0.7195	
313.2	0.0098	0.0007	0.0007	0.1681	0.0056	0.7966	
323.2	0.0032	0.005	0.0013	0.5505	0.0062	0.3575	
298.2	0.0049	0.0035	0.0012	0.4646	0.0064	0.4759	
323.2	0.0039	0.0044	0.0012	0.5046	0.0064	0.409	
323.2	0.0047	0.0037	0.0013	0.4544	0.0063	0.4653	

System: 4-methylphenol + 4-methylpentan-2-one + water; phases: Liquid mixture 2, Liquid mixture 1
Fixed: Pressure, kPa = 101.3
Property: Mass fraction of 4-methylphenol (Liquid mixture 2); method: Chromatography
Property: Mass fraction of 4-methylphenol (Liquid mixture 1); method: Chromatography
Property: Mass fraction of 4-methylpentan-2-one (Liquid mixture 1); method: Chromatography
Temperature, K	Mass fraction of 4-methylpentan-2-one	Mass fraction of 4-methylphenol	uncertainty	Mass fraction of 4-methylphenol	uncertainty	Mass fraction of 4-methylpentan-2-one	uncertainty
298.2	0.0038	0.0046	0.0013	0.5081	0.0064	0.4154	
313.2	0.0148	0		0		0.9756	
323.2	0.0028	0.0054	0.0013	0.5342	0.0063	0.3831	
298.2	0.0046	0.004	0.0013	0.4651	0.0063	0.4626	
323.2	0.0036	0.0047	0.0013	0.4835	0.0064	0.4398	
323.2	0.0046	0.0038	0.0013	0.4229	0.0061	0.5072	
323.2	0.0056	0.0031	0.0013	0.372	0.0059	0.5651	
323.2	0.0067	0.0024	0.0012	0.3227	0.0058	0.6208	
323.2	0.0077	0.0017	0.0012	0.2781	0.0057	0.6708	
323.2	0.0088	0.0011	0.0011	0.2242	0.0056	0.7309	
323.2	0.0095	0.0007	0.0007	0.1908	0.0055	0.769	
313.2	0.0034	0.0049	0.0013	0.5112	0.0065	0.4095	
323.2	0.0136	0		0		0.9722	
298.2	0.0055	0.0032	0.0013	0.4129	0.0061	0.5219	
298.2	0.0061	0.0027	0.0013	0.3747	0.006	0.5638	
298.2	0.0076	0.0017	0.0012	0.2972	0.0058	0.6508	
298.2	0.0087	0.0011	0.0011	0.233	0.0056	0.7228	
298.2	0.0098	0.0006	0.0006	0.1748	0.0055	0.7884	
298.2	0.0108	0.0004	0.0004	0.1304	0.0055	0.8376	
298.2	0.0171	0		0		0.9806	
313.2	0.0041	0.0044	0.0013	0.4719	0.0064	0.4521	
313.2	0.0051	0.0035	0.0013	0.4111	0.0061	0.5193	
313.2	0.0061	0.0027	0.0013	0.3572	0.0059	0.5796	
313.2	0.0072	0.002	0.0012	0.3086	0.0058	0.6343	
313.2	0.0082	0.0013	0.0012	0.2483	0.0056	0.7033	
313.2	0.0092	0.0008	0.0008	0.1984	0.0055	0.7593	
313.2	0.0098	0.0005	0.0005	0.163	0.0054	0.8009	

System: 4-methylpentan-2-one + water; phases: Liquid mixture 2, Liquid mixture 1
Fixed: Pressure, kPa = 101.3
Property: Mass fraction of 4-methylpentan-2-one (Liquid mixture 2); method: Chromatography
Temperature, K	Mass fraction of 4-methylpentan-2-one	uncertainty
313.2	0.0148	0.0004
323.2	0.0136	0.0004
298.2	0.0171	0.0004

System: 4-methylpentan-2-one + water; phases: Liquid mixture 1, Liquid mixture 2
Fixed: Pressure, kPa = 101.3
Property: Mass fraction of 4-methylpentan-2-one (Liquid mixture 1); method: Chromatography
Temperature, K	Mass fraction of 4-methylpentan-2-one	uncertainty
313.2	0.9756	0.0004
323.2	0.9722	0.0005
298.2	0.9806	0.0004
