Measured thermophysical data. Isobaric Vapor Liquid Equilibrium Data for the Binary Systems of Dimethyl Carbonate with Xylene Isomers at 93.13 kPa
Source: J. Chem. Eng. Data, 2017, 10.1021/acs.jced.7b00372
Compound 1: dimethyl carbonate, C3H6O3, InChI=1S/C3H6O3/c1-5-3(4)6-2/h1-2H3, purity 99%
Compound 2: 1,4-dimethylbenzene, C8H10, InChI=1S/C8H10/c1-7-3-5-8(2)6-4-7/h3-6H,1-2H3, purity 99%
Compound 3: 1,3-dimethylbenzene, C8H10, InChI=1S/C8H10/c1-7-4-3-5-8(2)6-7/h3-6H,1-2H3, purity 99%
Compound 4: 1,2-dimethylbenzene, C8H10, InChI=1S/C8H10/c1-7-5-3-4-6-8(7)2/h3-6H,1-2H3, purity 99%
Compound 5: ethylbenzene, C8H10, InChI=1S/C8H10/c1-2-8-6-4-3-5-7-8/h3-7H,2H2,1H3, purity 99%

System: dimethyl carbonate; phases: Liquid
Property: Refractive index (Na D-line) (Liquid); method: Standard Abbe refractometry
Pressure, kPa	Temperature, K	Refractive index (Na D-line)	uncertainty
93	298.15	1.3664	0.0004

System: dimethyl carbonate; phases: Liquid, Gas
Property: Vapor or sublimation pressure, kPa (Liquid); method: Ebulliometric method (Recirculating still)
Temperature, K	Vapor or sublimation pressure, kPa	uncertainty
360.73	93.13	0.96

System: dimethyl carbonate; phases: Liquid
Fixed: Pressure, kPa = 93
Fixed: Temperature, K = 293.15
Property: Refractive index (Na D-line) (Liquid); method: Standard Abbe refractometry
Refractive index (Na D-line)	uncertainty
1.3687	0.0004
1.3688	0.0004

System: 1,4-dimethylbenzene; phases: Liquid
Property: Refractive index (Na D-line) (Liquid); method: Standard Abbe refractometry
Pressure, kPa	Temperature, K	Refractive index (Na D-line)	uncertainty
93	298.15	1.4929	0.0004

System: 1,4-dimethylbenzene; phases: Liquid, Gas
Property: Vapor or sublimation pressure, kPa (Liquid); method: Ebulliometric method (Recirculating still)
Temperature, K	Vapor or sublimation pressure, kPa	uncertainty
408.37	93.13	0.96

System: 1,4-dimethylbenzene; phases: Liquid
Property: Refractive index (Na D-line) (Liquid); method: Standard Abbe refractometry
Pressure, kPa	Temperature, K	Refractive index (Na D-line)	uncertainty
93	293.15	1.4956	0.0004

System: 1,3-dimethylbenzene; phases: Liquid
Property: Refractive index (Na D-line) (Liquid); method: Standard Abbe refractometry
Pressure, kPa	Temperature, K	Refractive index (Na D-line)	uncertainty
93	298.15	1.4943	0.0004

System: 1,3-dimethylbenzene; phases: Liquid, Gas
Property: Vapor or sublimation pressure, kPa (Liquid); method: Ebulliometric method (Recirculating still)
Temperature, K	Vapor or sublimation pressure, kPa	uncertainty
409.13	93.13	0.96

System: 1,3-dimethylbenzene; phases: Liquid
Property: Refractive index (Na D-line) (Liquid); method: Standard Abbe refractometry
Pressure, kPa	Temperature, K	Refractive index (Na D-line)	uncertainty
93	293.15	1.497	0.0004

System: 1,2-dimethylbenzene; phases: Liquid
Property: Refractive index (Na D-line) (Liquid); method: Standard Abbe refractometry
Pressure, kPa	Temperature, K	Refractive index (Na D-line)	uncertainty
93	298.15	1.5022	0.0004

System: 1,2-dimethylbenzene; phases: Liquid, Gas
Property: Vapor or sublimation pressure, kPa (Liquid); method: Ebulliometric method (Recirculating still)
Temperature, K	Vapor or sublimation pressure, kPa	uncertainty
414.41	93.13	0.96

System: 1,2-dimethylbenzene; phases: Liquid
Property: Refractive index (Na D-line) (Liquid); method: Standard Abbe refractometry
Pressure, kPa	Temperature, K	Refractive index (Na D-line)	uncertainty
93	293.15	1.5048	0.0004

System: ethylbenzene; phases: Liquid
Property: Refractive index (Na D-line) (Liquid); method: Standard Abbe refractometry
Pressure, kPa	Temperature, K	Refractive index (Na D-line)	uncertainty
93	298.15	1.493	0.0004

System: ethylbenzene; phases: Liquid, Gas
Property: Vapor or sublimation pressure, kPa (Liquid); method: Ebulliometric method (Recirculating still)
Temperature, K	Vapor or sublimation pressure, kPa	uncertainty
406.23	93.13	0.96

System: ethylbenzene; phases: Liquid
Property: Refractive index (Na D-line) (Liquid); method: Standard Abbe refractometry
Pressure, kPa	Temperature, K	Refractive index (Na D-line)	uncertainty
93	293.15	1.4956	0.0004

System: 1,4-dimethylbenzene + dimethyl carbonate; phases: Liquid, Gas
Fixed: Pressure, kPa = 93.13
Property: Boiling temperature at pressure P, K (Liquid); method: Ebulliometric method (Recirculating still)
Mole fraction of 1,4-dimethylbenzene	Boiling temperature at pressure P, K	uncertainty
0	360.73	0.22
0.0551	361.49	0.23
0.1334	362.26	0.23
0.227	363.55	0.24
0.3045	364.62	0.24
0.3575	365.49	0.25
0.4678	367.65	0.25
0.5688	369.75	0.3
0.7372	376.35	0.39
0.8416	384.79	0.65
0.9369	396.71	0.84
0.9749	403.24	1.12
1	408.37	0.22

System: 1,4-dimethylbenzene + dimethyl carbonate; phases: Gas, Liquid
Fixed: Pressure, kPa = 93.13
Property: Mole fraction of 1,4-dimethylbenzene (Gas); method: Index of refraction calibration data
Mole fraction of 1,4-dimethylbenzene	Mole fraction of 1,4-dimethylbenzene	uncertainty
0	0	
0.0551	0.0284	0.0066
0.1334	0.0609	0.0064
0.227	0.0852	0.0063
0.3045	0.1089	0.0064
0.3575	0.1236	0.0065
0.4678	0.1598	0.0067
0.5688	0.1857	0.0072
0.7372	0.2935	0.0092
0.8416	0.4386	0.0148
0.9369	0.6856	0.0196
0.9749	0.8466	0.0303
1	1	

System: 1,4-dimethylbenzene + dimethyl carbonate; phases: Liquid
Fixed: Pressure, kPa = 93
Fixed: Temperature, K = 293.15
Property: Refractive index (Na D-line) (Liquid); method: Standard Abbe refractometry
Mole fraction of 1,4-dimethylbenzene	Refractive index (Na D-line)	uncertainty
0	1.3687	0.0004
0.0368	1.3752	0.0005
0.0866	1.3835	0.0005
0.157	1.3946	0.0005
0.2639	1.4106	0.0005
0.3598	1.4241	0.0005
0.4244	1.4326	0.0005
0.5293	1.4457	0.0005
0.6397	1.4586	0.0005
0.7655	1.4724	0.0005
0.8832	1.4848	0.0005
0.938	1.4898	0.0005
1	1.4956	0.0004

System: 1,3-dimethylbenzene + dimethyl carbonate; phases: Liquid, Gas
Fixed: Pressure, kPa = 93.13
Property: Boiling temperature at pressure P, K (Liquid); method: Ebulliometric method (Recirculating still)
Mole fraction of 1,3-dimethylbenzene	Boiling temperature at pressure P, K	uncertainty
0	360.73	0.22
0.0695	362.2	0.25
0.1328	363.1	0.24
0.1725	363.66	0.24
0.1973	364.16	0.25
0.3935	369.96	0.29
0.5061	373.53	0.3
0.5973	377.03	0.35
0.7279	383.5	0.4
0.8145	389.23	0.5
0.8792	394.72	0.57
0.9293	399.19	0.76
1	409.13	0.22

System: 1,3-dimethylbenzene + dimethyl carbonate; phases: Gas, Liquid
Fixed: Pressure, kPa = 93.13
Property: Mole fraction of 1,3-dimethylbenzene (Gas); method: Index of refraction calibration data
Mole fraction of 1,3-dimethylbenzene	Mole fraction of 1,3-dimethylbenzene	uncertainty
0	0	
0.0695	0.0229	0.0063
0.1328	0.0439	0.0064
0.1725	0.0571	0.0063
0.1973	0.0642	0.0063
0.3935	0.1425	0.0068
0.5061	0.1853	0.0071
0.5973	0.2386	0.0082
0.7279	0.3487	0.01
0.8145	0.4618	0.0132
0.8792	0.5869	0.0156
0.9293	0.7064	0.0222
1	1	

System: 1,3-dimethylbenzene + dimethyl carbonate; phases: Liquid
Fixed: Pressure, kPa = 93
Fixed: Temperature, K = 293.15
Property: Refractive index (Na D-line) (Liquid); method: Standard Abbe refractometry
Mole fraction of 1,3-dimethylbenzene	Refractive index (Na D-line)	uncertainty
0	1.3688	0.0004
0.0467	1.3769	0.0005
0.0871	1.3836	0.0005
0.1737	1.3973	0.0005
0.2042	1.4021	0.0005
0.2593	1.4101	0.0005
0.3033	1.4167	0.0005
0.3719	1.4262	0.0005
0.4455	1.4359	0.0005
0.4709	1.439	0.0005
0.5421	1.4481	0.0005
0.6549	1.4612	0.0005
0.7672	1.4738	0.0005
0.8662	1.4839	0.0005
0.94	1.4913	0.0005
1	1.497	0.0004

System: 1,2-dimethylbenzene + dimethyl carbonate; phases: Liquid, Gas
Fixed: Pressure, kPa = 93.13
Property: Boiling temperature at pressure P, K (Liquid); method: Ebulliometric method (Recirculating still)
Mole fraction of 1,2-dimethylbenzene	Boiling temperature at pressure P, K	uncertainty
0	360.73	0.22
0.0541	361.48	0.24
0.0888	362.09	0.26
0.1509	363.52	0.26
0.2323	365.18	0.25
0.359	367.71	0.25
0.4149	368.68	0.3
0.587	374.88	0.33
0.7345	382.02	0.43
0.8426	390.84	0.59
0.9025	397.46	0.79
0.9498	404.5	1.07
1	414.41	0.22

System: 1,2-dimethylbenzene + dimethyl carbonate; phases: Gas, Liquid
Fixed: Pressure, kPa = 93.13
Property: Mole fraction of 1,2-dimethylbenzene (Gas); method: Index of refraction calibration data
Mole fraction of 1,2-dimethylbenzene	Mole fraction of 1,2-dimethylbenzene	uncertainty
0	0	
0.0541	0.0173	0.0063
0.0888	0.0281	0.0063
0.1509	0.0492	0.0064
0.2323	0.0763	0.0064
0.359	0.1159	0.0064
0.4149	0.1249	0.0068
0.587	0.2097	0.0077
0.7345	0.3305	0.0096
0.8426	0.4525	0.0124
0.9025	0.5665	0.0178
0.9498	0.7269	0.0278
1	1	

System: 1,2-dimethylbenzene + dimethyl carbonate; phases: Liquid
Fixed: Pressure, kPa = 93
Fixed: Temperature, K = 293.15
Property: Refractive index (Na D-line) (Liquid); method: Standard Abbe refractometry
Mole fraction of 1,2-dimethylbenzene	Refractive index (Na D-line)	uncertainty
0	1.3688	0.0004
0.045	1.377	0.0005
0.1564	1.3961	0.0005
0.1622	1.3969	0.0005
0.2752	1.4149	0.0005
0.36	1.4272	0.0005
0.4516	1.4397	0.0005
0.5655	1.4556	0.0005
0.603	1.4601	0.0005
0.7134	1.4734	0.0005
0.7602	1.4795	0.0005
0.8813	1.493	0.0005
0.9276	1.4973	0.0005
1	1.5048	0.0004

System: ethylbenzene + dimethyl carbonate; phases: Liquid, Gas
Fixed: Pressure, kPa = 93.13
Property: Boiling temperature at pressure P, K (Liquid); method: Ebulliometric method (Recirculating still)
Mole fraction of ethylbenzene	Boiling temperature at pressure P, K	uncertainty
0	360.73	0.22
0.0393	361.24	0.24
0.0622	361.55	0.24
0.159	362.91	0.24
0.2804	364.85	0.25
0.3954	367.04	0.26
0.4778	368.97	0.28
0.6295	373.77	0.31
0.7054	377.14	0.39
0.8066	383.26	0.49
0.8897	390.65	0.62
0.9303	395.26	0.89
1	406.23	0.22

System: ethylbenzene + dimethyl carbonate; phases: Gas, Liquid
Fixed: Pressure, kPa = 93.13
Property: Mole fraction of ethylbenzene (Gas); method: Index of refraction calibration data
Mole fraction of ethylbenzene	Mole fraction of ethylbenzene	uncertainty
0	0	
0.0393	0.0219	0.0068
0.0622	0.033	0.0067
0.159	0.0693	0.0064
0.2804	0.1104	0.0065
0.3954	0.1475	0.0067
0.4778	0.1782	0.0071
0.6295	0.2524	0.0078
0.7054	0.3081	0.0094
0.8066	0.4176	0.0122
0.8897	0.573	0.0156
0.9303	0.6839	0.025
1	1	

System: ethylbenzene + dimethyl carbonate; phases: Liquid
Fixed: Pressure, kPa = 93
Fixed: Temperature, K = 293.15
Property: Refractive index (Na D-line) (Liquid); method: Standard Abbe refractometry
Mole fraction of ethylbenzene	Refractive index (Na D-line)	uncertainty
0	1.3688	0.0004
0.0462	1.3767	0.0005
0.089	1.3836	0.0005
0.1753	1.397	0.0005
0.2701	1.4109	0.0005
0.3564	1.4232	0.0005
0.4359	1.4335	0.0006
0.4448	1.4352	0.0005
0.468	1.4382	0.0005
0.5157	1.4441	0.0005
0.5825	1.4527	0.0005
0.6639	1.4617	0.0005
0.7377	1.4702	0.0005
0.852	1.4815	0.0005
0.8827	1.4847	0.0005
0.9124	1.4873	0.0005
0.9395	1.49	0.0005
1	1.4956	0.0004
