Measured thermophysical data. Determination of Activity Coefficients at Infinite Dilution of Solutes in N,N'-Di(2-ethylhexyl)isobutyramide Using Inverse Gas-Liquid Chromatography
Source: J. Chem. Eng. Data, 2018, 10.1021/acs.jced.8b00635
Compound 1: N,N-di-2-ethylhexylisobutyramide, C20H41NO, InChI=1S/C20H41NO/c1-7-11-13-18(9-3)15-21(20(22)17(5)6)16-19(10-4)14-12-8-2/h17-19H,7-16H2,1-6H3, purity 99%
Compound 2: ethyl acetate, C4H8O2, InChI=1S/C4H8O2/c1-3-6-4(2)5/h3H2,1-2H3, purity 99%
Compound 3: 2,2,4-trimethylpentane, C8H18, InChI=1S/C8H18/c1-7(2)6-8(3,4)5/h7H,6H2,1-5H3, purity 99%
Compound 4: pentane, C5H12, InChI=1S/C5H12/c1-3-5-4-2/h3-5H2,1-2H3, purity 99%
Compound 5: hexane, C6H14, InChI=1S/C6H14/c1-3-5-6-4-2/h3-6H2,1-2H3, purity 99%
Compound 6: heptane, C7H16, InChI=1S/C7H16/c1-3-5-7-6-4-2/h3-7H2,1-2H3, purity 99%
Compound 7: octane, C8H18, InChI=1S/C8H18/c1-3-5-7-8-6-4-2/h3-8H2,1-2H3, purity 99%
Compound 8: nonane, C9H20, InChI=1S/C9H20/c1-3-5-7-9-8-6-4-2/h3-9H2,1-2H3, purity 99%
Compound 9: decane, C10H22, InChI=1S/C10H22/c1-3-5-7-9-10-8-6-4-2/h3-10H2,1-2H3, purity 99%
Compound 10: undecane, C11H24, InChI=1S/C11H24/c1-3-5-7-9-11-10-8-6-4-2/h3-11H2,1-2H3, purity 99%
Compound 11: cyclohexane, C6H12, InChI=1S/C6H12/c1-2-4-6-5-3-1/h1-6H2, purity 99%
Compound 12: hex-1-ene, C6H12, InChI=1S/C6H12/c1-3-5-6-4-2/h3H,1,4-6H2,2H3, purity 99%
Compound 13: 1-heptene, C7H14, InChI=1S/C7H14/c1-3-5-7-6-4-2/h3H,1,4-7H2,2H3, purity 99%
Compound 14: oct-1-ene, C8H16, InChI=1S/C8H16/c1-3-5-7-8-6-4-2/h3H,1,4-8H2,2H3, purity 99%
Compound 15: 1-decene, C10H20, InChI=1S/C10H20/c1-3-5-7-9-10-8-6-4-2/h3H,1,4-10H2,2H3, purity 99%
Compound 16: benzene, C6H6, InChI=1S/C6H6/c1-2-4-6-5-3-1/h1-6H, purity 99%
Compound 17: toluene, C7H8, InChI=1S/C7H8/c1-7-5-3-2-4-6-7/h2-6H,1H3, purity 99%
Compound 18: ethylbenzene, C8H10, InChI=1S/C8H10/c1-2-8-6-4-3-5-7-8/h3-7H,2H2,1H3, purity 99%
Compound 19: propylbenzene, C9H12, InChI=1S/C9H12/c1-2-6-9-7-4-3-5-8-9/h3-5,7-8H,2,6H2,1H3, purity 99%
Compound 20: butylbenzene, C10H14, InChI=1S/C10H14/c1-2-3-7-10-8-5-4-6-9-10/h4-6,8-9H,2-3,7H2,1H3, purity 99%
Compound 21: 1,4-dimethylbenzene, C8H10, InChI=1S/C8H10/c1-7-3-5-8(2)6-4-7/h3-6H,1-2H3, purity 99%
Compound 22: 1,3-dimethylbenzene, C8H10, InChI=1S/C8H10/c1-7-4-3-5-8(2)6-7/h3-6H,1-2H3, purity 99%
Compound 23: dichloromethane, CH2Cl2, InChI=1S/CH2Cl2/c2-1-3/h1H2, purity 99%
Compound 24: trichloromethane, CHCl3, InChI=1S/CHCl3/c2-1(3)4/h1H, purity 99%
Compound 25: tetrachloromethane, CCl4, InChI=1S/CCl4/c2-1(3,4)5, purity 99%
Compound 26: acetone, C3H6O, InChI=1S/C3H6O/c1-3(2)4/h1-2H3, purity 99%
Compound 27: 3-hexanone, C6H12O, InChI=1S/C6H12O/c1-3-5-6(7)4-2/h3-5H2,1-2H3, purity 99%
Compound 28: 2-heptanone, C7H14O, InChI=1S/C7H14O/c1-3-4-5-6-7(2)8/h3-6H2,1-2H3, purity 99%
Compound 29: acetonitrile, C2H3N, InChI=1S/C2H3N/c1-2-3/h1H3, purity 99%
Compound 30: methanal, CH2O, InChI=1S/CH2O/c1-2/h1H2, purity 99%
Compound 31: 2-methylpentane, C6H14, InChI=1S/C6H14/c1-4-5-6(2)3/h6H,4-5H2,1-3H3, purity 99%

System: N,N-di-2-ethylhexylisobutyramide + pentane; phases: Liquid
Fixed: Mole fraction of pentane = 0
Fixed: Pressure, kPa = 101.325
Property: Activity coefficient of pentane (Liquid); method: Chromatography
Temperature, K	Activity coefficient of pentane	uncertainty
323.15	0.795	0.082
333.15	0.676	0.071
343.15	0.544	0.059
353.15	0.457	0.051
363.15	0.382	0.045
373.15	0.324	0.041

System: N,N-di-2-ethylhexylisobutyramide + hexane; phases: Liquid
Fixed: Mole fraction of hexane = 0
Fixed: Pressure, kPa = 101.325
Property: Activity coefficient of hexane (Liquid); method: Chromatography
Temperature, K	Activity coefficient of hexane	uncertainty
323.15	1.906	0.2
333.15	1.534	0.159
343.15	1.259	0.129
353.15	1.016	0.103
363.15	0.845	0.087
373.15	0.717	0.075

System: N,N-di-2-ethylhexylisobutyramide + heptane; phases: Liquid
Fixed: Mole fraction of heptane = 0
Fixed: Pressure, kPa = 101.325
Property: Activity coefficient of heptane (Liquid); method: Chromatography
Temperature, K	Activity coefficient of heptane	uncertainty
323.15	4.367	0.459
333.15	3.488	0.367
343.15	2.779	0.292
353.15	2.316	0.243
363.15	2.022	0.212
373.15	1.714	0.179

System: N,N-di-2-ethylhexylisobutyramide + octane; phases: Liquid
Fixed: Mole fraction of octane = 0
Fixed: Pressure, kPa = 101.325
Property: Activity coefficient of octane (Liquid); method: Chromatography
Temperature, K	Activity coefficient of octane	uncertainty
323.15	11.946	1.258
333.15	8.346	0.879
343.15	6.036	0.636
353.15	4.545	0.478
363.15	3.359	0.353
373.15	2.631	0.277

System: N,N-di-2-ethylhexylisobutyramide + nonane; phases: Liquid
Fixed: Mole fraction of nonane = 0
Fixed: Pressure, kPa = 101.325
Property: Activity coefficient of nonane (Liquid); method: Chromatography
Temperature, K	Activity coefficient of nonane	uncertainty
323.15	18.516	1.949
333.15	16.033	1.687
343.15	13.704	1.442
353.15	11.773	1.239
363.15	9.798	1.031
373.15	8.672	0.912

System: N,N-di-2-ethylhexylisobutyramide + decane; phases: Liquid
Fixed: Mole fraction of decane = 0
Fixed: Pressure, kPa = 101.325
Property: Activity coefficient of decane (Liquid); method: Chromatography
Temperature, K	Activity coefficient of decane	uncertainty
323.15	26.442	2.784
333.15	22.717	2.392
343.15	18.269	1.923
353.15	15.244	1.605
363.15	12.184	1.282
373.15	9.895	1.041

System: N,N-di-2-ethylhexylisobutyramide + undecane; phases: Liquid
Fixed: Mole fraction of undecane = 0
Fixed: Pressure, kPa = 101.325
Property: Activity coefficient of undecane (Liquid); method: Chromatography
Temperature, K	Activity coefficient of undecane	uncertainty
323.15	39.248	4.132
333.15	35.861	3.776
343.15	31.519	3.318
353.15	27.52	2.897
363.15	25.468	2.68
373.15	22.676	2.387

System: N,N-di-2-ethylhexylisobutyramide + cyclohexane; phases: Liquid
Fixed: Mole fraction of cyclohexane = 0
Fixed: Pressure, kPa = 101.325
Property: Activity coefficient of cyclohexane (Liquid); method: Chromatography
Temperature, K	Activity coefficient of cyclohexane	uncertainty
323.15	2.769	0.291
333.15	2.15	0.226
343.15	1.74	0.182
353.15	1.414	0.146
363.15	1.183	0.121
373.15	0.966	0.098

System: N,N-di-2-ethylhexylisobutyramide + hex-1-ene; phases: Liquid
Fixed: Mole fraction of hex-1-ene = 0
Fixed: Pressure, kPa = 101.325
Property: Activity coefficient of hex-1-ene (Liquid); method: Chromatography
Temperature, K	Activity coefficient of hex-1-ene	uncertainty
323.15	1.768	0.185
333.15	1.371	0.142
343.15	1.173	0.12
353.15	0.957	0.097
363.15	0.789	0.081
373.15	0.678	0.071

System: N,N-di-2-ethylhexylisobutyramide + 1-heptene; phases: Liquid
Fixed: Mole fraction of 1-heptene = 0
Fixed: Pressure, kPa = 101.325
Property: Activity coefficient of 1-heptene (Liquid); method: Chromatography
Temperature, K	Activity coefficient of 1-heptene	uncertainty
323.15	4.021	0.423
333.15	2.889	0.304
343.15	2.311	0.243
353.15	1.801	0.188
363.15	1.25	0.129
373.15	0.974	0.099

System: N,N-di-2-ethylhexylisobutyramide + oct-1-ene; phases: Liquid
Fixed: Mole fraction of oct-1-ene = 0
Fixed: Pressure, kPa = 101.325
Property: Activity coefficient of oct-1-ene (Liquid); method: Chromatography
Temperature, K	Activity coefficient of oct-1-ene	uncertainty
323.15	7.522	0.791
333.15	6.088	0.64
343.15	4.86	0.511
353.15	3.756	0.395
363.15	2.941	0.309
373.15	2.205	0.232

System: N,N-di-2-ethylhexylisobutyramide + 1-decene; phases: Liquid
Fixed: Mole fraction of 1-decene = 0
Fixed: Pressure, kPa = 101.325
Property: Activity coefficient of 1-decene (Liquid); method: Chromatography
Temperature, K	Activity coefficient of 1-decene	uncertainty
323.15	24.332	2.562
333.15	19.382	2.04
343.15	16.77	1.765
353.15	13.994	1.473
363.15	11.072	1.165
373.15	9.868	1.038

System: N,N-di-2-ethylhexylisobutyramide + benzene; phases: Liquid
Fixed: Mole fraction of benzene = 0
Fixed: Pressure, kPa = 101.325
Property: Activity coefficient of benzene (Liquid); method: Chromatography
Temperature, K	Activity coefficient of benzene	uncertainty
323.15	2.555	0.269
333.15	2.005	0.211
343.15	1.646	0.171
353.15	1.367	0.141
363.15	1.152	0.118
373.15	0.954	0.097

System: N,N-di-2-ethylhexylisobutyramide + toluene; phases: Liquid
Fixed: Mole fraction of toluene = 0
Fixed: Pressure, kPa = 101.325
Property: Activity coefficient of toluene (Liquid); method: Chromatography
Temperature, K	Activity coefficient of toluene	uncertainty
323.15	5.105	0.537
333.15	4.245	0.446
343.15	3.253	0.342
353.15	2.501	0.263
363.15	1.877	0.197
373.15	1.458	0.151

System: N,N-di-2-ethylhexylisobutyramide + ethylbenzene; phases: Liquid
Fixed: Mole fraction of ethylbenzene = 0
Fixed: Pressure, kPa = 101.325
Property: Activity coefficient of ethylbenzene (Liquid); method: Chromatography
Temperature, K	Activity coefficient of ethylbenzene	uncertainty
323.15	11.316	1.191
333.15	8.751	0.921
343.15	6.776	0.713
353.15	4.964	0.522
363.15	3.902	0.41
373.15	2.883	0.303

System: N,N-di-2-ethylhexylisobutyramide + propylbenzene; phases: Liquid
Fixed: Mole fraction of propylbenzene = 0
Fixed: Pressure, kPa = 101.325
Property: Activity coefficient of propylbenzene (Liquid); method: Chromatography
Temperature, K	Activity coefficient of propylbenzene	uncertainty
323.15	17.832	1.877
333.15	14.741	1.552
343.15	11.515	1.212
353.15	9.178	0.966
363.15	7.334	0.772
373.15	5.725	0.603

System: N,N-di-2-ethylhexylisobutyramide + butylbenzene; phases: Liquid
Fixed: Mole fraction of butylbenzene = 0
Fixed: Pressure, kPa = 101.325
Property: Activity coefficient of butylbenzene (Liquid); method: Chromatography
Temperature, K	Activity coefficient of butylbenzene	uncertainty
323.15	24.441	2.573
333.15	20.722	2.181
343.15	17.499	1.842
353.15	14.964	1.575
363.15	12.476	1.313
373.15	10.554	1.11

System: N,N-di-2-ethylhexylisobutyramide + 1,4-dimethylbenzene; phases: Liquid
Fixed: Mole fraction of 1,4-dimethylbenzene = 0
Fixed: Pressure, kPa = 101.325
Property: Activity coefficient of 1,4-dimethylbenzene (Liquid); method: Chromatography
Temperature, K	Activity coefficient of 1,4-dimethylbenzene	uncertainty
323.15	11.586	1.219
333.15	9.012	0.949
343.15	6.896	0.726
353.15	5.2	0.547
363.15	3.753	0.395
373.15	2.889	0.304

System: N,N-di-2-ethylhexylisobutyramide + 1,3-dimethylbenzene; phases: Liquid
Fixed: Mole fraction of 1,3-dimethylbenzene = 0
Fixed: Pressure, kPa = 101.325
Property: Activity coefficient of 1,3-dimethylbenzene (Liquid); method: Chromatography
Temperature, K	Activity coefficient of 1,3-dimethylbenzene	uncertainty
323.15	11.836	1.246
333.15	9.275	0.976
343.15	7.198	0.758
353.15	5.331	0.561
363.15	4.126	0.434
373.15	3.138	0.33

System: N,N-di-2-ethylhexylisobutyramide + dichloromethane; phases: Liquid
Fixed: Mole fraction of dichloromethane = 0
Fixed: Pressure, kPa = 101.325
Property: Activity coefficient of dichloromethane (Liquid); method: Chromatography
Temperature, K	Activity coefficient of dichloromethane	uncertainty
323.15	0.608	0.065
333.15	0.506	0.056
343.15	0.41	0.048
353.15	0.339	0.042
363.15	0.273	0.037
373.15	0.225	0.034

System: N,N-di-2-ethylhexylisobutyramide + trichloromethane; phases: Liquid
Fixed: Mole fraction of trichloromethane = 0
Fixed: Pressure, kPa = 101.325
Property: Activity coefficient of trichloromethane (Liquid); method: Chromatography
Temperature, K	Activity coefficient of trichloromethane	uncertainty
323.15	1.154	0.118
333.15	0.966	0.098
343.15	0.746	0.077
353.15	0.586	0.063
363.15	0.463	0.052
373.15	0.372	0.044

System: N,N-di-2-ethylhexylisobutyramide + tetrachloromethane; phases: Liquid
Fixed: Mole fraction of tetrachloromethane = 0
Fixed: Pressure, kPa = 101.325
Property: Activity coefficient of tetrachloromethane (Liquid); method: Chromatography
Temperature, K	Activity coefficient of tetrachloromethane	uncertainty
323.15	1.935	0.203
333.15	1.603	0.167
343.15	1.222	0.126
353.15	0.935	0.095
363.15	0.727	0.076
373.15	0.581	0.062

System: N,N-di-2-ethylhexylisobutyramide + acetone; phases: Liquid
Fixed: Mole fraction of acetone = 0
Fixed: Pressure, kPa = 101.325
Property: Activity coefficient of acetone (Liquid); method: Chromatography
Temperature, K	Activity coefficient of acetone	uncertainty
323.15	0.901	0.092
333.15	0.745	0.077
343.15	0.596	0.064
353.15	0.465	0.052
363.15	0.375	0.045
373.15	0.294	0.039

System: N,N-di-2-ethylhexylisobutyramide + 3-hexanone; phases: Liquid
Fixed: Mole fraction of 3-hexanone = 0
Fixed: Pressure, kPa = 101.325
Property: Activity coefficient of 3-hexanone (Liquid); method: Chromatography
Temperature, K	Activity coefficient of 3-hexanone	uncertainty
323.15	8.641	0.91
333.15	6.419	0.676
343.15	4.881	0.514
353.15	3.743	0.394
363.15	2.857	0.3
373.15	2.152	0.226

System: N,N-di-2-ethylhexylisobutyramide + 2-heptanone; phases: Liquid
Fixed: Mole fraction of 2-heptanone = 0
Fixed: Pressure, kPa = 101.325
Property: Activity coefficient of 2-heptanone (Liquid); method: Chromatography
Temperature, K	Activity coefficient of 2-heptanone	uncertainty
323.15	13.773	1.45
333.15	10.585	1.114
343.15	8.158	0.859
353.15	6.202	0.653
363.15	5.001	0.526
373.15	4.041	0.425

System: N,N-di-2-ethylhexylisobutyramide + acetonitrile; phases: Liquid
Fixed: Mole fraction of acetonitrile = 0
Fixed: Pressure, kPa = 101.325
Property: Activity coefficient of acetonitrile (Liquid); method: Chromatography
Temperature, K	Activity coefficient of acetonitrile	uncertainty
323.15	1.465	0.152
333.15	1.213	0.124
343.15	1.03	0.105
353.15	0.861	0.088
363.15	0.718	0.075
373.15	0.568	0.061

System: N,N-di-2-ethylhexylisobutyramide + methanal; phases: Liquid
Fixed: Mole fraction of methanal = 0
Fixed: Pressure, kPa = 101.325
Property: Activity coefficient of methanal (Liquid); method: Chromatography
Temperature, K	Activity coefficient of methanal	uncertainty
323.15	0.056	0.03
333.15	0.052	0.03
343.15	0.048	0.03
353.15	0.044	0.03
363.15	0.041	0.031
373.15	0.037	0.031

System: N,N-di-2-ethylhexylisobutyramide + ethyl acetate; phases: Liquid
Fixed: Mole fraction of ethyl acetate = 0
Fixed: Pressure, kPa = 101.325
Property: Activity coefficient of ethyl acetate (Liquid); method: Chromatography
Temperature, K	Activity coefficient of ethyl acetate	uncertainty
323.15	1.425	0.147
333.15	1.215	0.125
343.15	0.985	0.1
353.15	0.87	0.089
363.15	0.7	0.073
373.15	0.566	0.061

System: N,N-di-2-ethylhexylisobutyramide + 2,2,4-trimethylpentane; phases: Liquid
Fixed: Mole fraction of 2,2,4-trimethylpentane = 0
Fixed: Pressure, kPa = 101.325
Property: Activity coefficient of 2,2,4-trimethylpentane (Liquid); method: Chromatography
Temperature, K	Activity coefficient of 2,2,4-trimethylpentane	uncertainty
323.15	4.259	0.448
333.15	3.33	0.35
343.15	2.595	0.273
353.15	2.089	0.22
363.15	1.737	0.181
373.15	1.291	0.133

System: N,N-di-2-ethylhexylisobutyramide + 2-methylpentane; phases: Liquid
Fixed: Mole fraction of 2-methylpentane = 0
Fixed: Pressure, kPa = 101.325
Property: Activity coefficient of 2-methylpentane (Liquid); method: Chromatography
Temperature, K	Activity coefficient of 2-methylpentane	uncertainty
323.15	1.107	0.113
333.15	0.938	0.096
343.15	0.768	0.079
353.15	0.639	0.067
363.15	0.525	0.057
373.15	0.428	0.049
