Measured thermophysical data. Isothermal Vapor-Liquid Equilibrium Measurements of Butan-2-one + 2-Methyl-propan-1-ol/Pentan-1-ol
Source: J. Chem. Eng. Data, 2018, 10.1021/acs.jced.8b00552
Compound 1: 2-methyl-1-propanol, C4H10O, InChI=1S/C4H10O/c1-4(2)3-5/h4-5H,3H2,1-2H3, purity 99%
Compound 2: butanone, C4H8O, InChI=1S/C4H8O/c1-3-4(2)5/h3H2,1-2H3, purity 99%
Compound 3: pentan-1-ol, C5H12O, InChI=1S/C5H12O/c1-2-3-4-5-6/h6H,2-5H2,1H3, purity 99%

System: 2-methyl-1-propanol; phases: Liquid
Property: Refractive index (Na D-line) (Liquid); method: Standard Abbe refractometry
Temperature, K	Pressure, kPa	Refractive index (Na D-line)	uncertainty
293.15	101.325	1.3957	0.002

System: 2-methyl-1-propanol; phases: Liquid, Gas
Property: Vapor or sublimation pressure, kPa (Liquid); method: Ebulliometric method (Recirculating still)
Temperature, K	Vapor or sublimation pressure, kPa	uncertainty
332.65	12.17	0.63
342.63	20.07	0.63
349.06	26.53	0.64

System: butanone; phases: Liquid
Property: Refractive index (Na D-line) (Liquid); method: Standard Abbe refractometry
Temperature, K	Pressure, kPa	Refractive index (Na D-line)	uncertainty
293.15	101.325	1.3791	0.002

System: butanone; phases: Liquid, Gas
Property: Vapor or sublimation pressure, kPa (Liquid); method: Ebulliometric method (Recirculating still)
Temperature, K	Vapor or sublimation pressure, kPa	uncertainty
332.65	51.76	0.63
342.63	72.71	0.7
349.06	90.1	0.79
333.65	52.42	0.63
343.55	74.79	0.7
348.55	88.29	0.79

System: pentan-1-ol; phases: Liquid
Property: Refractive index (Na D-line) (Liquid); method: Standard Abbe refractometry
Temperature, K	Pressure, kPa	Refractive index (Na D-line)	uncertainty
293.15	101.325	1.41	0.002

System: pentan-1-ol; phases: Liquid, Gas
Property: Vapor or sublimation pressure, kPa (Liquid); method: Ebulliometric method (Recirculating still)
Temperature, K	Vapor or sublimation pressure, kPa	uncertainty
333.65	3.43	0.62
343.55	5.9	0.62
348.55	7.67	0.62

System: butanone + 2-methyl-1-propanol; phases: Liquid, Gas
Property: Vapor or sublimation pressure, kPa (Liquid); method: Ebulliometric method (Recirculating still)
Mole fraction of butanone	Temperature, K	Vapor or sublimation pressure, kPa	uncertainty
0	332.65	12.17	0.63
0.01	332.65	13.8	1.39
0.028	332.65	15.7	1.09
0.04	332.65	16.4	0.88
0.05	332.65	17.02	0.89
0.117	332.65	21.35	0.92
0.162	332.65	24.24	0.86
0.237	332.65	28.03	0.82
0.3	332.65	30.82	0.76
0.469	332.65	36.31	0.75
0.644	332.65	41.79	0.77
0.71	332.65	43.69	0.77
0.846	332.65	47.77	0.77
0.908	332.65	49.47	0.77
0.947	332.65	50.57	0.76
0.97	332.65	51.01	0.76
0.98	332.65	51.4	0.76
1	332.65	51.76	0.72
0	342.63	20.07	0.64
0.011	342.63	22.2	1.43
0.029	342.63	24.1	1.21
0.041	342.63	25.3	1.5
0.05	342.63	26.2	1.19
0.118	342.63	33.12	1.16
0.169	342.63	37.51	0.99
0.235	342.63	41.39	0.9
0.296	342.63	45.28	0.83
0.473	342.63	52.86	0.84
0.651	342.63	61.54	0.82
0.694	342.63	63.23	0.81
0.846	342.63	68.32	0.82
0.926	342.63	70.6	1.51
0.936	342.63	70.91	0.77
0.975	342.63	72.1	0.85
0.983	342.63	72.49	0.85
1	342.63	72.71	0.76
0	349.06	26.53	0.65
0.011	349.06	28.7	1.57
0.02	349.06	29.95	1.41
0.024	349.06	30	1.27
0.025	349.06	30.1	1.27
0.052	349.06	33.15	1.34
0.085	349.06	37.1	1.28
0.119	349.06	40.5	1
0.251	349.06	49.77	0.97
0.32	349.06	54.51	0.92
0.478	349.06	64.03	0.89
0.694	349.06	74.8	0.92
0.865	349.06	85.08	0.97
0.917	349.06	87.28	0.91
0.931	349.06	87.91	0.89
0.982	349.06	89.8	0.87
0.991	349.06	89.93	0.86
1	349.06	90.1	0.81

System: butanone + 2-methyl-1-propanol; phases: Gas, Liquid
Property: Mole fraction of butanone (Gas); method: Chromatography
Mole fraction of butanone	Temperature, K	Mole fraction of butanone	uncertainty
0	332.65	0	
0.01	332.65	0.127	0.086
0.028	332.65	0.246	0.055
0.04	332.65	0.286	0.033
0.05	332.65	0.315	0.031
0.117	332.65	0.491	0.025
0.162	332.65	0.569	0.017
0.237	332.65	0.65	0.015
0.3	332.65	0.708	0.012
0.469	332.65	0.789	0.011
0.644	332.65	0.863	0.011
0.71	332.65	0.887	0.011
0.846	332.65	0.936	0.011
0.908	332.65	0.962	0.011
0.947	332.65	0.975	0.011
0.97	332.65	0.985	0.011
0.98	332.65	0.989	0.011
1	332.65	1	
0	342.63	0	
0.011	342.63	0.101	0.064
0.029	342.63	0.19	0.046
0.041	342.63	0.235	0.033
0.05	342.63	0.26	0.029
0.118	342.63	0.44	0.026
0.169	342.63	0.535	0.018
0.235	342.63	0.608	0.015
0.296	342.63	0.663	0.012
0.473	342.63	0.772	0.011
0.651	342.63	0.85	0.011
0.694	342.63	0.869	0.011
0.846	342.63	0.928	0.011
0.926	342.63	0.956	0.01
0.936	342.63	0.961	0.012
0.975	342.63	0.984	0.012
0.983	342.63	0.989	0.011
1	342.63	1	
0	349.06	0	
0.011	349.06	0.066	0.052
0.02	349.06	0.106	0.044
0.024	349.06	0.122	0.04
0.025	349.06	0.128	0.039
0.052	349.06	0.224	0.033
0.085	349.06	0.32	0.028
0.119	349.06	0.395	0.019
0.251	349.06	0.586	0.017
0.32	349.06	0.648	0.013
0.478	349.06	0.755	0.012
0.694	349.06	0.858	0.011
0.865	349.06	0.929	0.011
0.917	349.06	0.948	0.011
0.931	349.06	0.955	0.012
0.982	349.06	0.987	0.012
0.991	349.06	0.993	0.007
1	349.06	1	

System: butanone + pentan-1-ol; phases: Liquid, Gas
Property: Vapor or sublimation pressure, kPa (Liquid); method: Ebulliometric method (Recirculating still)
Mole fraction of butanone	Temperature, K	Vapor or sublimation pressure, kPa	uncertainty
0	333.65	3.43	0.62
0.005	333.65	3.87	0.73
0.009	333.65	4.2	0.94
0.017	333.65	4.8	1.01
0.032	333.65	6	0.99
0.065	333.65	8.52	0.97
0.129	333.65	13.15	1
0.219	333.65	20.4	0.9
0.34	333.65	26.6	0.85
0.419	333.65	31.3	0.79
0.521	333.65	34.7	0.75
0.631	333.65	38.81	0.77
0.692	333.65	40.67	0.74
0.75	333.65	42.12	0.77
0.839	333.65	45.6	0.81
0.9	333.65	48.16	0.83
0.94	333.65	49.85	0.84
0.959	333.65	50.65	0.85
0.98	333.65	51.6	0.85
0.99	333.65	52.02	0.84
0.998	333.65	52.37	0.74
1	333.65	52.42	0.73
0	343.55	5.9	0.62
0.004	343.55	6.5	0.75
0.008	343.55	6.86	1.03
0.017	343.55	7.98	1.24
0.035	343.55	9.88	1.25
0.062	343.55	12.95	1.2
0.124	343.55	19.13	1.11
0.229	343.55	28.3	1
0.37	343.55	38.29	0.96
0.452	343.55	43.63	0.88
0.522	343.55	47.44	0.89
0.574	343.55	50.68	0.86
0.65	343.55	54.73	0.86
0.789	343.55	61.91	0.91
0.924	343.55	70.5	0.96
0.948	343.55	71.91	0.96
0.98	343.55	73.89	1.08
0.99	343.55	74.4	0.8
0.995	343.55	74.65	0.94
1	343.55	74.79	0.77
0	348.55	7.67	0.63
0.005	348.55	8.42	0.92
0.008	348.55	8.9	1.21
0.017	348.55	10.04	1.46
0.034	348.55	12.25	1.37
0.059	348.55	15.15	1.4
0.125	348.55	23.59	1.28
0.228	348.55	33.95	1.13
0.357	348.55	44.93	1.05
0.439	348.55	50.61	0.9
0.513	348.55	54.1	0.9
0.55	348.55	57.21	1.07
0.614	348.55	62.21	0.99
0.739	348.55	70.25	1.04
0.934	348.55	84.7	0.9
0.954	348.55	85.52	0.98
0.973	348.55	86.89	1.03
0.986	348.55	87.6	0.96
0.992	348.55	87.95	0.92
0.996	348.55	88.12	0.83
0.999	348.55	88.25	0.81
1	348.55	88.29	0.81

System: butanone + pentan-1-ol; phases: Gas, Liquid
Property: Mole fraction of butanone (Gas); method: Chromatography
Mole fraction of butanone	Temperature, K	Mole fraction of butanone	uncertainty
0	333.65	0	
0.005	333.65	0.115	0.074
0.009	333.65	0.185	0.101
0.017	333.65	0.29	0.12
0.032	333.65	0.441	0.067
0.065	333.65	0.618	0.034
0.129	333.65	0.768	0.019
0.219	333.65	0.867	0.012
0.34	333.65	0.911	0.011
0.419	333.65	0.931	0.01
0.521	333.65	0.943	0.01
0.631	333.65	0.961	0.01
0.692	333.65	0.968	0.01
0.75	333.65	0.971	0.01
0.839	333.65	0.981	0.01
0.9	333.65	0.985	0.01
0.94	333.65	0.99	0.01
0.959	333.65	0.993	0.007
0.98	333.65	0.997	0.003
0.99	333.65	0.998	0.002
0.998	333.65	0.999	0.001
1	333.65	1	
0	343.55	0	
0.004	343.55	0.081	0.06
0.008	343.55	0.145	0.085
0.017	343.55	0.255	0.108
0.035	343.55	0.419	0.066
0.062	343.55	0.559	0.034
0.124	343.55	0.73	0.019
0.229	343.55	0.837	0.012
0.37	343.55	0.899	0.011
0.452	343.55	0.921	0.01
0.522	343.55	0.934	0.01
0.574	343.55	0.942	0.01
0.65	343.55	0.953	0.01
0.789	343.55	0.971	0.01
0.924	343.55	0.989	0.01
0.948	343.55	0.99	0.01
0.98	343.55	0.995	0.005
0.99	343.55	0.997	0.003
0.995	343.55	0.998	0.002
1	343.55	1	
0	348.55	0	
0.005	348.55	0.088	0.062
0.008	348.55	0.132	0.078
0.017	348.55	0.235	0.102
0.034	348.55	0.384	0.069
0.059	348.55	0.526	0.036
0.125	348.55	0.71	0.02
0.228	348.55	0.822	0.013
0.357	348.55	0.887	0.011
0.439	348.55	0.912	0.01
0.513	348.55	0.926	0.01
0.55	348.55	0.933	0.01
0.614	348.55	0.952	0.01
0.739	348.55	0.963	0.01
0.934	348.55	0.986	0.01
0.954	348.55	0.99	0.01
0.973	348.55	0.994	0.006
0.986	348.55	0.997	0.003
0.992	348.55	0.997	0.003
0.996	348.55	0.998	0.002
0.999	348.55	1	
1	348.55	1	
