Measured thermophysical data. Isobaric Vapor-liquid Equilibrium for Three Binary Systems of Ethyl Acetate + Propyl Acetate, Ethyl Acetate + Propylene Carbonate, and Propyl Acetate + Propylene Carbonate at 101.3 kPa
Source: J. Chem. Eng. Data, 2018, 10.1021/acs.jced.7b01107
Compound 1: ethyl acetate, C4H8O2, InChI=1S/C4H8O2/c1-3-6-4(2)5/h3H2,1-2H3, purity 99.5%
Compound 2: propyl ethanoate, C5H10O2, InChI=1S/C5H10O2/c1-3-4-7-5(2)6/h3-4H2,1-2H3, purity 99.5%
Compound 3: 4-methyl-1,3-dioxolan-2-one, C4H6O3, InChI=1S/C4H6O3/c1-3-2-6-4(5)7-3/h3H,2H2,1H3, purity 99%

System: ethyl acetate; phases: Liquid
Property: Mass density, kg/m3 (Liquid); method: Vibrating tube method
Temperature, K	Pressure, kPa	Mass density, kg/m3	uncertainty
298.15	101.325	899.5	10

System: ethyl acetate; phases: Liquid, Gas
Property: Boiling temperature at pressure P, K (Liquid); method: Ebulliometric method (Recirculating still)
Pressure, kPa	Boiling temperature at pressure P, K	uncertainty
101.3	350.2	0.2

System: propyl ethanoate; phases: Liquid
Property: Mass density, kg/m3 (Liquid); method: Vibrating tube method
Temperature, K	Pressure, kPa	Mass density, kg/m3	uncertainty
298.15	101.325	886	10

System: propyl ethanoate; phases: Liquid, Gas
Property: Boiling temperature at pressure P, K (Liquid); method: Ebulliometric method (Recirculating still)
Pressure, kPa	Boiling temperature at pressure P, K	uncertainty
101.3	374.4	0.2

System: 4-methyl-1,3-dioxolan-2-one; phases: Liquid
Property: Mass density, kg/m3 (Liquid); method: Vibrating tube method
Temperature, K	Pressure, kPa	Mass density, kg/m3	uncertainty
298.15	101.325	1204	10

System: 4-methyl-1,3-dioxolan-2-one; phases: Liquid, Gas
Property: Boiling temperature at pressure P, K (Liquid); method: Ebulliometric method (Recirculating still)
Pressure, kPa	Boiling temperature at pressure P, K	uncertainty
101.3	514.6	0.2

System: ethyl acetate + propyl ethanoate; phases: Liquid, Gas
Fixed: Pressure, kPa = 101.3
Property: Boiling temperature at pressure P, K (Liquid); method: Ebulliometric method (Recirculating still)
Mole fraction of ethyl acetate	Boiling temperature at pressure P, K	uncertainty
0.043	373.1	0.2
0.124	370.6	0.2
0.154	369.7	0.2
0.234	367.3	0.2
0.345	364.3	0.2
0.412	362.6	0.2
0.518	360	0.2
0.545	359.4	0.2
0.646	357.1	0.2
0.708	355.8	0.2
0.752	354.9	0.2
0.803	353.9	0.2
0.928	351.6	0.2

System: ethyl acetate + propyl ethanoate; phases: Gas, Liquid
Fixed: Pressure, kPa = 101.3
Property: Mole fraction of ethyl acetate (Gas); method: Chromatography
Mole fraction of ethyl acetate	Mole fraction of ethyl acetate	uncertainty
0.043	0.08	0.004
0.124	0.222	0.004
0.154	0.271	0.004
0.234	0.385	0.005
0.345	0.515	0.005
0.412	0.589	0.005
0.518	0.698	0.004
0.545	0.723	0.004
0.646	0.8	0.003
0.708	0.846	0.003
0.752	0.877	0.003
0.803	0.91	0.003
0.928	0.972	0.002

System: ethyl acetate + 4-methyl-1,3-dioxolan-2-one; phases: Liquid, Gas
Fixed: Pressure, kPa = 101.3
Property: Boiling temperature at pressure P, K (Liquid); method: Ebulliometric method (Recirculating still)
Mole fraction of ethyl acetate	Boiling temperature at pressure P, K	uncertainty
0.953	351.9	0.2
0.908	353.3	0.2
0.849	355.2	0.2
0.791	357.2	0.2
0.745	359	0.2
0.683	361.3	0.2
0.628	363.5	0.2
0.592	365.1	0.2
0.473	370.8	0.2
0.436	372.8	0.3
0.372	376.6	0.3
0.306	381.4	0.3
0.255	386	0.3
0.219	390.2	0.3
0.179	395.7	0.4
0.14	403.6	0.5
0.097	415.4	0.7
0.07	427.9	1.2
0.044	447.7	1.6
0.037	454.7	2.4
0.033	461.1	3.9
0.03	468.6	5

System: ethyl acetate + 4-methyl-1,3-dioxolan-2-one; phases: Gas, Liquid
Fixed: Pressure, kPa = 101.3
Property: Mole fraction of ethyl acetate (Gas); method: Chromatography
Mole fraction of ethyl acetate	Mole fraction of ethyl acetate	uncertainty
0.953	1	
0.908	0.999	0.001
0.849	0.999	0.001
0.791	0.999	0.001
0.745	0.998	0.002
0.683	0.998	0.002
0.628	0.997	0.002
0.592	0.997	0.002
0.473	0.994	0.002
0.436	0.994	0.002
0.372	0.991	0.002
0.306	0.989	0.002
0.255	0.985	0.002
0.219	0.982	0.002
0.179	0.976	0.002
0.14	0.964	0.002
0.097	0.947	0.003
0.07	0.917	0.004
0.044	0.847	0.007
0.037	0.801	0.016
0.033	0.757	0.031
0.03	0.692	0.044

System: propyl ethanoate + 4-methyl-1,3-dioxolan-2-one; phases: Liquid, Gas
Fixed: Pressure, kPa = 101.3
Property: Boiling temperature at pressure P, K (Liquid); method: Ebulliometric method (Recirculating still)
Mole fraction of propyl ethanoate	Boiling temperature at pressure P, K	uncertainty
0.95	376.2	0.2
0.882	378.5	0.2
0.827	380.4	0.2
0.761	382.9	0.2
0.648	387.3	0.2
0.562	391.2	0.2
0.448	397	0.3
0.334	404.2	0.3
0.286	407.9	0.3
0.236	412.6	0.3
0.19	417.7	0.3
0.151	423.7	0.4
0.123	429.2	0.6
0.089	439.7	0.9
0.05	459.1	1.2
0.031	474	1.8
0.018	487.5	2.1

System: propyl ethanoate + 4-methyl-1,3-dioxolan-2-one; phases: Gas, Liquid
Fixed: Pressure, kPa = 101.3
Property: Mole fraction of propyl ethanoate (Gas); method: Chromatography
Mole fraction of propyl ethanoate	Mole fraction of propyl ethanoate	uncertainty
0.95	0.999	0.001
0.882	0.997	0.002
0.827	0.996	0.002
0.761	0.994	0.002
0.648	0.99	0.002
0.562	0.986	0.002
0.448	0.979	0.002
0.334	0.969	0.002
0.286	0.963	0.002
0.236	0.955	0.002
0.19	0.944	0.002
0.151	0.931	0.002
0.123	0.915	0.003
0.089	0.879	0.005
0.05	0.772	0.008
0.031	0.644	0.018
0.018	0.493	0.024
