Measured thermophysical data. Parametric Analysis of Mandelic Acid Separation from Aqueous Solutions by Using Secondary Amine Mixture (Amberlite LA-2) in Various Diluents
Source: J. Chem. Eng. Data, 2019, 10.1021/acs.jced.9b00169
Compound 1: mandelic acid, C8H8O3, InChI=1S/C8H8O3/c9-7(8(10)11)6-4-2-1-3-5-6/h1-5,7,9H,(H,10,11), purity 99%
Compound 2: dimethyl 1,2-benzenedicarboxylate, C10H10O4, InChI=1S/C10H10O4/c1-13-9(11)7-5-3-4-6-8(7)10(12)14-2/h3-6H,1-2H3, purity 99%
Compound 3: 4-methylpentan-2-one, C6H12O, InChI=1S/C6H12O/c1-5(2)4-6(3)7/h5H,4H2,1-3H3, purity 99%
Compound 4: 2-octanone, C8H16O, InChI=1S/C8H16O/c1-3-4-5-6-7-8(2)9/h3-7H2,1-2H3, purity 98%
Compound 5: octan-1-ol, C8H18O, InChI=1S/C8H18O/c1-2-3-4-5-6-7-8-9/h9H,2-8H2,1H3, purity 99%
Compound 6: pentane, C5H12, InChI=1S/C5H12/c1-3-5-4-2/h3-5H2,1-2H3, purity 98%
Compound 7: octyl ethanoate, C10H20O2, InChI=1S/C10H20O2/c1-3-4-5-6-7-8-9-12-10(2)11/h3-9H2,1-2H3, purity 98%
Compound 8: toluene, C7H8, InChI=1S/C7H8/c1-7-5-3-2-4-6-7/h2-6H,1H3, purity 99%
Compound 9: water, H2O, InChI=1S/H2O/h1H2, purity 99.9%

System: mandelic acid + dimethyl 1,2-benzenedicarboxylate + water; phases: Liquid mixture 1, Liquid mixture 2
Property: Molality, mol/kg of mandelic acid (Liquid mixture 1); method: titration
Molality, mol/kg of mandelic acid	Temperature, K	Pressure, kPa	Molality, mol/kg of mandelic acid	uncertainty
0.15	298.15	101.3	0.46	0.01

System: mandelic acid + 4-methylpentan-2-one + water; phases: Liquid mixture 1, Liquid mixture 2
Property: Molality, mol/kg of mandelic acid (Liquid mixture 1); method: titration
Molality, mol/kg of mandelic acid	Temperature, K	Pressure, kPa	Molality, mol/kg of mandelic acid	uncertainty
0.13	298.15	101.3	0.71	0.02

System: mandelic acid + 2-octanone + water; phases: Liquid mixture 1, Liquid mixture 2
Property: Molality, mol/kg of mandelic acid (Liquid mixture 1); method: titration
Molality, mol/kg of mandelic acid	Temperature, K	Pressure, kPa	Molality, mol/kg of mandelic acid	uncertainty
0.2	298.15	101.3	0.6	0.01

System: mandelic acid + octan-1-ol + water; phases: Liquid mixture 1, Liquid mixture 2
Property: Molality, mol/kg of mandelic acid (Liquid mixture 1); method: titration
Molality, mol/kg of mandelic acid	Temperature, K	Pressure, kPa	Molality, mol/kg of mandelic acid	uncertainty
0.16	298.15	101.3	0.65	0.02

System: mandelic acid + pentane + water; phases: Liquid mixture 1, Liquid mixture 2
Property: Molality, mol/kg of mandelic acid (Liquid mixture 1); method: titration
Molality, mol/kg of mandelic acid	Temperature, K	Pressure, kPa	Molality, mol/kg of mandelic acid	uncertainty
0.67	298.15	101.3	0.01	0.01

System: mandelic acid + octyl ethanoate + water; phases: Liquid mixture 1, Liquid mixture 2
Property: Molality, mol/kg of mandelic acid (Liquid mixture 1); method: titration
Molality, mol/kg of mandelic acid	Temperature, K	Pressure, kPa	Molality, mol/kg of mandelic acid	uncertainty
0.4	298.15	101.3	0.33	0.01

System: mandelic acid + toluene + water; phases: Liquid mixture 1, Liquid mixture 2
Property: Molality, mol/kg of mandelic acid (Liquid mixture 1); method: titration
Molality, mol/kg of mandelic acid	Temperature, K	Pressure, kPa	Molality, mol/kg of mandelic acid	uncertainty
0.66	298.15	101.3	0.01	0.01
