Measured thermophysical data. Comprehensive Thermochemical Study of Cyclic Five- and Six-Membered N,N'-Thioureas
Source: J. Chem. Eng. Data, 2017, 10.1021/acs.jced.7b00083
Compound 1: sulfuric acid, H2O4S, InChI=1S/H2O4S/c1-5(2,3)4/h(H2,1,2,3,4)
Compound 2: carbon dioxide, CO2, InChI=1S/CO2/c2-1-3
Compound 3: nitrogen, N2, InChI=1S/N2/c1-2
Compound 4: water, H2O, InChI=1S/H2O/h1H2
Compound 5: oxygen, O2, InChI=1S/O2/c1-2
Compound 6: imidazolidine-2-thione, C3H6N2S, InChI=1S/C3H6N2S/c6-3-4-1-2-5-3/h1-2H2,(H2,4,5,6)

System: imidazolidine-2-thione; phases: Crystal, Gas
Property: Molar enthalpy of vaporization or sublimation, kJ/mol (Crystal); method: Static calorimetry
Temperature, K	Molar enthalpy of vaporization or sublimation, kJ/mol	uncertainty
298.15	107.4	1.5

Reaction: -1 imidazolidine-2-thione + 1 sulfuric acid + 3 carbon dioxide + 1 nitrogen + 2 water + -6 oxygen
Property: Specific internal energy of reaction at constant volume, J/g
-25436.98
