Measured thermophysical data. Experimental Measurement of the Solid-Liquid Equilibrium of the Systems MF2 + H2O (M = Mg, Ca, Zn) from 298.15 to 353.15 K
Source: J. Chem. Eng. Data, 2018, 10.1021/acs.jced.8b00047
Compound 1: magnesium difluoride, F2Mg, InChI=1S/2FH.Mg/h2*1H;/q;;+2/p-2, purity 98%
Compound 2: calcium fluoride, CaF2, InChI=1S/Ca.2FH/h;2*1H/q+2;;/p-2, purity 98.5%
Compound 3: zinc fluoride, F2Zn, InChI=1S/2FH.Zn/h2*1H;/q;;+2/p-2, purity 99%
Compound 4: water, H2O, InChI=1S/H2O/h1H2, purity 99.8%

System: magnesium difluoride + water; phases: Liquid, Crystal
Fixed: Pressure, kPa = 101
Property: Molality, mol/kg of magnesium difluoride (Liquid); method: ion-selective electrode
Temperature, K	Molality, mol/kg of magnesium difluoride	uncertainty
298.15	0.0015	0.0002
313.15	0.00128	0.00018
323.15	0.00118	0.00017
333.15	0.0011	0.00015
343.15	0.00101	0.00014
353.15	0.00094	0.00013

System: magnesium difluoride + water; phases: Liquid, Crystal
Fixed: Pressure, kPa = 101
Property: Molality, mol/kg of magnesium difluoride (Liquid); method: EDTA titration
Temperature, K	Molality, mol/kg of magnesium difluoride	uncertainty
298.15	0.00136	0.00019
313.15	0.00126	0.00018
323.15	0.0012	0.00017
333.15	0.00106	0.00015
343.15	0.00097	0.00014
353.15	0.00095	0.00013

System: calcium fluoride + water; phases: Liquid, Crystal
Fixed: Pressure, kPa = 101
Property: Molality, mol/kg of calcium fluoride (Liquid); method: ion-selective electrode
Temperature, K	Molality, mol/kg of calcium fluoride	uncertainty
298.15	0.00022	3e-05
313.15	0.00027	4e-05
323.15	0.0003	4e-05
333.15	0.00035	5e-05
343.15	0.00038	5e-05
353.15	0.00041	6e-05

System: calcium fluoride + water; phases: Liquid, Crystal
Fixed: Pressure, kPa = 101
Property: Molality, mol/kg of calcium fluoride (Liquid); method: EDTA titration
Temperature, K	Molality, mol/kg of calcium fluoride	uncertainty
298.15	0.00023	3e-05
313.15	0.00035	5e-05
323.15	0.00037	5e-05
333.15	0.0004	6e-05
343.15	0.00044	6e-05
353.15	0.00049	7e-05

System: zinc fluoride + water; phases: Liquid, Crystal of intercomponent compound 1
Fixed: Pressure, kPa = 101
Property: Molality, mol/kg of zinc fluoride (Liquid); method: EDTA titration
Temperature, K	Molality, mol/kg of zinc fluoride	uncertainty
298.15	0.1565	0.0219
313.15	0.1735	0.0243
323.15	0.1957	0.0274
333.15	0.2332	0.0327

System: zinc fluoride + water; phases: Liquid, Crystal of intercomponent compound 2
Fixed: Pressure, kPa = 101
Property: Molality, mol/kg of zinc fluoride (Liquid); method: EDTA titration
Temperature, K	Molality, mol/kg of zinc fluoride	uncertainty
343.15	0.2418	0.0339
353.15	0.2423	0.0339
