Measured thermophysical data. Solubility Phase Diagram of the Ca(NO3)2 LiNO3 H2O System
Source: J. Chem. Eng. Data, 2016, 10.1021/acs.jced.5b00767
Compound 1: water, H2O, InChI=1S/H2O/h1H2, purity 99.8%
Compound 2: lithium nitrate, LiNO3, InChI=1S/Li.NO3/c;2-1(3)4/q+1;-1
Compound 3: calcium nitrate, CaN2O6, InChI=1S/Ca.2NO3/c;2*2-1(3)4/q+2;2*-1

System: water + lithium nitrate + calcium nitrate; phases: Liquid, Crystal of intercomponent compound 1
Fixed: Pressure, kPa = 100
Property: Mass fraction of lithium nitrate (Liquid); method: gravimetric
Temperature, K	Mass fraction of calcium nitrate	Mass fraction of lithium nitrate	uncertainty
273.15	0.4941	0	
273.15	0.4034	0.0925	0.0261
273.15	0.3456	0.1569	0.0261
298.15	0.5746	0	
298.15	0.5295	0.0502	0.0285
298.15	0.4847	0.1102	0.0324
298.15	0.4581	0.1585	0.0373
298.15	0.4529	0.173	0.0398
298.15	0.4558	0.2017	0.0598

System: water + lithium nitrate + calcium nitrate; phases: Liquid, Crystal of intercomponent compound 2
Fixed: Pressure, kPa = 100
Property: Mass fraction of lithium nitrate (Liquid); method: gravimetric
Temperature, K	Mass fraction of calcium nitrate	Mass fraction of lithium nitrate	uncertainty
273.15	0.3456	0.1569	0.0195
273.15	0.2117	0.2125	0.0201
273.15	0.0531	0.3022	0.0206
273.15	0	0.33	0.018
298.15	0.1424	0.4981	0.019
298.15	0.2141	0.3813	0.0344
298.15	0.1358	0.3982	0.0192
298.15	0.049	0.4425	0.0204
298.15	0	0.47	0.018

System: water + lithium nitrate + calcium nitrate; phases: Liquid, Crystal
Fixed: Pressure, kPa = 100
Property: Mass fraction of lithium nitrate (Liquid); method: gravimetric
Temperature, K	Mass fraction of calcium nitrate	Mass fraction of lithium nitrate	uncertainty
298.15	0.4842	0.2403	0.0222
298.15	0.3392	0.3448	0.0224
298.15	0.2364	0.4233	0.0228
298.15	0.1424	0.4981	0.023
323.15	0.3748	0.342	0.0228
323.15	0.4414	0.2906	0.0227
323.15	0.2681	0.4256	0.023
323.15	0.1471	0.5221	0.0227
323.15	0	0.6323	0.0181

System: water + lithium nitrate + calcium nitrate; phases: Liquid, Crystal of intercomponent compound 3
Fixed: Pressure, kPa = 100
Property: Mass fraction of lithium nitrate (Liquid); method: gravimetric
Temperature, K	Mass fraction of calcium nitrate	Mass fraction of lithium nitrate	uncertainty
298.15	0.5164	0.1938	0.018
323.15	0.7299	0	

System: water + lithium nitrate + calcium nitrate; phases: Liquid, Crystal of intercomponent compound 3
Property: Mass fraction of lithium nitrate (Liquid); method: gravimetric
Temperature, K	Mass fraction of calcium nitrate	Pressure, kPa	Mass fraction of lithium nitrate	uncertainty
323.15	0.7699	100	0	

System: water + lithium nitrate + calcium nitrate; phases: Crystal of intercomponent compound 1, Crystal of intercomponent compound 2, Liquid, Gas
Property: Eutectic temperature, K (Crystal of intercomponent compound 1); method: DTA
Mass fraction of calcium nitrate	Eutectic temperature, K	uncertainty
0.4	290.5	0.7

System: water + calcium nitrate; phases: Liquid, Crystal of intercomponent compound 1
Fixed: Pressure, kPa = 100
Property: Solid-liquid equilibrium temperature, K (Liquid); method: gravimetric
Mass fraction of calcium nitrate	Solid-liquid equilibrium temperature, K	uncertainty
0.4941	273.15	0.39
0.5746	298.15	0.39

System: water + calcium nitrate; phases: Liquid, Crystal of intercomponent compound 3
Fixed: Pressure, kPa = 100
Property: Solid-liquid equilibrium temperature, K (Liquid); method: gravimetric
Mass fraction of calcium nitrate	Solid-liquid equilibrium temperature, K	uncertainty
0.7299	323.15	0.39
0.7699	323.15	0.39

System: water + lithium nitrate; phases: Liquid, Crystal of intercomponent compound 1
Fixed: Pressure, kPa = 100
Property: Mass fraction of lithium nitrate (Liquid); method: gravimetric
Temperature, K	Mass fraction of lithium nitrate	uncertainty
273.15	0.33	0.018
298.15	0.47	0.018

System: water + lithium nitrate; phases: Liquid, Crystal
Property: Mass fraction of lithium nitrate (Liquid); method: gravimetric
Temperature, K	Pressure, kPa	Mass fraction of lithium nitrate	uncertainty
323.15	100	0.6323	0.018
