Measured thermophysical data. Liquid-Liquid Equilibrium for Ternary Systems, Water + 5-Hydroxymethylfurfural + (1-Butanol, Isobutanol, Methyl Isobutyl Ketone), at 313.15, 323.15, and 333.15 K
Source: J. Chem. Eng. Data, 2018, 10.1021/acs.jced.8b00120
Compound 1: 5-(hydroxymethyl)furan-2-carbaldehyde, C6H6O3, InChI=1S/C6H6O3/c7-3-5-1-2-6(4-8)9-5/h1-3,8H,4H2, purity 99%
Compound 2: water, H2O, InChI=1S/H2O/h1H2, purity 99.9%
Compound 3: butan-1-ol, C4H10O, InChI=1S/C4H10O/c1-2-3-4-5/h5H,2-4H2,1H3, purity 99%
Compound 4: 2-methyl-1-propanol, C4H10O, InChI=1S/C4H10O/c1-4(2)3-5/h4-5H,3H2,1-2H3, purity 99%
Compound 5: 4-methylpentan-2-one, C6H12O, InChI=1S/C6H12O/c1-5(2)4-6(3)7/h5H,4H2,1-3H3, purity 99%
Compound 6: acetonitrile, C2H3N, InChI=1S/C2H3N/c1-2-3/h1H3, purity 99.9%
Compound 7: isopropylbenzene, C9H12, InChI=1S/C9H12/c1-8(2)9-6-4-3-5-7-9/h3-8H,1-2H3, purity 99%
Compound 8: methanol, CH4O, InChI=1S/CH4O/c1-2/h2H,1H3, purity 99%
Compound 9: dimethylformamide, C3H7NO, InChI=1S/C3H7NO/c1-4(2)3-5/h3H,1-2H3, purity 99%

System: water; phases: Liquid
Property: Mass density, kg/m3 (Liquid); method: Buoyancy - hydrostatic balance
Temperature, K	Pressure, kPa	Mass density, kg/m3	uncertainty
298.15	101.325	996.989	10.003

System: water; phases: Liquid
Property: Refractive index (Na D-line) (Liquid); method: Standard Abbe refractometry
Temperature, K	Pressure, kPa	Refractive index (Na D-line)	uncertainty
298.15	101.325	1.3324	0.001

System: butan-1-ol; phases: Liquid
Property: Mass density, kg/m3 (Liquid); method: Buoyancy - hydrostatic balance
Temperature, K	Pressure, kPa	Mass density, kg/m3	uncertainty
298.15	101.325	805.881	10.003

System: butan-1-ol; phases: Liquid
Property: Refractive index (Na D-line) (Liquid); method: Standard Abbe refractometry
Temperature, K	Pressure, kPa	Refractive index (Na D-line)	uncertainty
298.15	101.325	1.3975	0.0011

System: 2-methyl-1-propanol; phases: Liquid
Property: Mass density, kg/m3 (Liquid); method: Buoyancy - hydrostatic balance
Temperature, K	Pressure, kPa	Mass density, kg/m3	uncertainty
298.15	101.325	801.652	10.003

System: 2-methyl-1-propanol; phases: Liquid
Property: Refractive index (Na D-line) (Liquid); method: Standard Abbe refractometry
Temperature, K	Pressure, kPa	Refractive index (Na D-line)	uncertainty
298.15	101.325	1.394	0.0011

System: 4-methylpentan-2-one; phases: Liquid
Property: Mass density, kg/m3 (Liquid); method: Buoyancy - hydrostatic balance
Temperature, K	Pressure, kPa	Mass density, kg/m3	uncertainty
298.15	101.325	800.589	10.003

System: 4-methylpentan-2-one; phases: Liquid
Property: Refractive index (Na D-line) (Liquid); method: Standard Abbe refractometry
Temperature, K	Pressure, kPa	Refractive index (Na D-line)	uncertainty
298.15	101.325	1.3964	0.0011

System: acetonitrile; phases: Liquid
Property: Mass density, kg/m3 (Liquid); method: Buoyancy - hydrostatic balance
Temperature, K	Pressure, kPa	Mass density, kg/m3	uncertainty
298.15	101.325	785.712	10.002

System: acetonitrile; phases: Liquid
Property: Refractive index (Na D-line) (Liquid); method: Standard Abbe refractometry
Temperature, K	Pressure, kPa	Refractive index (Na D-line)	uncertainty
298.15	101.325	1.3452	0.001

System: isopropylbenzene; phases: Liquid
Property: Mass density, kg/m3 (Liquid); method: Buoyancy - hydrostatic balance
Temperature, K	Pressure, kPa	Mass density, kg/m3	uncertainty
298.15	101.325	864.115	10.003

System: isopropylbenzene; phases: Liquid
Property: Refractive index (Na D-line) (Liquid); method: Standard Abbe refractometry
Temperature, K	Pressure, kPa	Refractive index (Na D-line)	uncertainty
298.15	101.325	1.4907	0.0011

System: methanol; phases: Liquid
Property: Mass density, kg/m3 (Liquid); method: Buoyancy - hydrostatic balance
Temperature, K	Pressure, kPa	Mass density, kg/m3	uncertainty
298.15	101.325	791.814	10.002

System: methanol; phases: Liquid
Property: Refractive index (Na D-line) (Liquid); method: Standard Abbe refractometry
Temperature, K	Pressure, kPa	Refractive index (Na D-line)	uncertainty
298.15	101.325	1.3279	0.0011

System: dimethylformamide; phases: Liquid
Property: Mass density, kg/m3 (Liquid); method: Buoyancy - hydrostatic balance
Temperature, K	Pressure, kPa	Mass density, kg/m3	uncertainty
298.15	101.325	944.689	10.004

System: dimethylformamide; phases: Liquid
Property: Refractive index (Na D-line) (Liquid); method: Standard Abbe refractometry
Temperature, K	Pressure, kPa	Refractive index (Na D-line)	uncertainty
298.15	101.325	1.4279	0.0011

System: water + 5-(hydroxymethyl)furan-2-carbaldehyde + butan-1-ol; phases: Liquid mixture 2, Liquid mixture 1
Fixed: Pressure, kPa = 100
Property: Mass fraction of 5-(hydroxymethyl)furan-2-carbaldehyde (Liquid mixture 2); method: Chromatography
Property: Mass fraction of butan-1-ol (Liquid mixture 1); method: Chromatography
Property: Mass fraction of 5-(hydroxymethyl)furan-2-carbaldehyde (Liquid mixture 1); method: Chromatography
Temperature, K	Mass fraction of butan-1-ol	Mass fraction of 5-(hydroxymethyl)furan-2-carbaldehyde	uncertainty	Mass fraction of butan-1-ol	uncertainty	Mass fraction of 5-(hydroxymethyl)furan-2-carbaldehyde	uncertainty
313.15	0.758	0.019	0.003	0.069	0.002	0.007	
323.15	0.547	0.15	0.006	0.096	0.002	0.083	
323.15	0.493	0.179	0.007	0.115	0.003	0.108	
333.15	0.74	0.014	0.002	0.069	0.002	0.005	
333.15	0.664	0.047	0.005	0.09	0.002	0.02	
333.15	0.542	0.147	0.007	0.098	0.002	0.082	
333.15	0.477	0.177	0.006	0.117	0.003	0.104	
313.15	0.719	0.041	0.004	0.068	0.002	0.016	
313.15	0.677	0.078	0.005	0.081	0.002	0.039	
313.15	0.614	0.122	0.006	0.08	0.002	0.059	
313.15	0.571	0.154	0.006	0.088	0.002	0.081	
313.15	0.52	0.183	0.007	0.103	0.003	0.109	
323.15	0.748	0.021	0.004	0.066	0.002	0.007	
323.15	0.671	0.08	0.005	0.083	0.002	0.035	
323.15	0.602	0.116	0.005	0.089	0.002	0.058	

System: water + 5-(hydroxymethyl)furan-2-carbaldehyde + 4-methylpentan-2-one; phases: Liquid mixture 2, Liquid mixture 1
Fixed: Pressure, kPa = 100
Property: Mass fraction of 4-methylpentan-2-one (Liquid mixture 2); method: Chromatography
Property: Mass fraction of 4-methylpentan-2-one (Liquid mixture 1); method: Chromatography
Property: Mass fraction of 5-(hydroxymethyl)furan-2-carbaldehyde (Liquid mixture 1); method: Chromatography
Temperature, K	Mass fraction of 5-(hydroxymethyl)furan-2-carbaldehyde	Mass fraction of 4-methylpentan-2-one	uncertainty	Mass fraction of 4-methylpentan-2-one	uncertainty	Mass fraction of 5-(hydroxymethyl)furan-2-carbaldehyde	uncertainty
313.15	0.149	0.839	0.004	0.032	0.001	0.131	
323.15	0.037	0.925	0.002	0.016	0.001	0.029	
333.15	0.145	0.829	0.004	0.022	0.001	0.131	
333.15	0.124	0.845	0.004	0.019	0.001	0.103	
333.15	0.092	0.871	0.003	0.018	0.001	0.074	
333.15	0.06	0.898	0.002	0.017	0.001	0.051	
333.15	0.034	0.91	0.002	0.015	0.001	0.028	
313.15	0.116	0.862	0.004	0.02	0.001	0.1	
313.15	0.09	0.887	0.003	0.019	0.001	0.073	
313.15	0.059	0.913	0.002	0.018	0.001	0.049	
313.15	0.036	0.935	0.002	0.016	0.001	0.027	
323.15	0.149	0.83	0.004	0.026	0.001	0.129	
323.15	0.116	0.856	0.004	0.02	0.001	0.092	
323.15	0.095	0.873	0.003	0.016	0.001	0.076	
323.15	0.06	0.903	0.002	0.017	0.001	0.051	

System: water + 5-(hydroxymethyl)furan-2-carbaldehyde + 2-methyl-1-propanol; phases: Liquid mixture 1, Liquid mixture 2
Fixed: Pressure, kPa = 100
Property: Mass fraction of 5-(hydroxymethyl)furan-2-carbaldehyde (Liquid mixture 1); method: Chromatography
Property: Mass fraction of 2-methyl-1-propanol (Liquid mixture 2); method: Chromatography
Property: Mass fraction of 5-(hydroxymethyl)furan-2-carbaldehyde (Liquid mixture 2); method: Chromatography
Temperature, K	Mass fraction of 2-methyl-1-propanol	Mass fraction of 5-(hydroxymethyl)furan-2-carbaldehyde	uncertainty	Mass fraction of 2-methyl-1-propanol	uncertainty	Mass fraction of 5-(hydroxymethyl)furan-2-carbaldehyde	uncertainty
313.15	0.562	0.18	0.006	0.129	0.004	0.103	
323.15	0.782	0.038	0.003	0.08	0.002	0.013	
333.15	0.538	0.181	0.006	0.113	0.003	0.107	
333.15	0.603	0.149	0.005	0.099	0.002	0.084	
333.15	0.631	0.129	0.007	0.088	0.002	0.062	
333.15	0.683	0.083	0.006	0.083	0.002	0.036	
333.15	0.733	0.037	0.005	0.068	0.002	0.014	
313.15	0.615	0.154	0.005	0.101	0.003	0.086	
313.15	0.696	0.114	0.004	0.087	0.002	0.06	
313.15	0.746	0.081	0.004	0.083	0.002	0.039	
313.15	0.801	0.038	0.003	0.083	0.002	0.015	
323.15	0.559	0.172	0.005	0.121	0.003	0.106	
323.15	0.623	0.146	0.005	0.107	0.002	0.082	
323.15	0.677	0.113	0.005	0.096	0.002	0.058	
323.15	0.725	0.074	0.004	0.087	0.002	0.035	
