Measured thermophysical data. Solubility and Diffusivity of Oxygen in Ionic Liquids
Source: J. Chem. Eng. Data, 2019, 10.1021/acs.jced.9b00750
Compound 1: 1-methyl-1-propylpiperidinium bis(trifluoromethylsulfonyl)imide, C11H20F6N2O4S2, InChI=1S/C9H20N.C2F6NO4S2/c1-3-7-10(2)8-5-4-6-9-10;3-1(4,5)14(10,11)9-15(12,13)2(6,7)8/h3-9H2,1-2H3;/q+1;-1
Compound 2: 1-butyl-1-methylpiperidinium bis(trifluoromethanesulfonyl)imide, C12H22F6N2O4S2, InChI=1S/C10H22N.C2F6NO4S2/c1-3-4-8-11(2)9-6-5-7-10-11;3-1(4,5)14(10,11)9-15(12,13)2(6,7)8/h3-10H2,1-2H3;/q+1;-1
Compound 3: 1-(2-methoxyethyl)-1-methylpiperidinium bis(trifluoromethylsulfonyl)imide, C11H20F6N2O5S2, InChI=1S/C9H20NO.C2F6NO4S2/c1-10(8-9-11-2)6-4-3-5-7-10;3-1(4,5)14(10,11)9-15(12,13)2(6,7)8/h3-9H2,1-2H3;/q+1;-1
Compound 4: 1-butyl-1-methylpyrrolidinium bis[(trifluoromethyl)sulfonyl]imide, C11H20F6N2O4S2, InChI=1S/C9H20N.C2F6NO4S2/c1-3-4-7-10(2)8-5-6-9-10;3-1(4,5)14(10,11)9-15(12,13)2(6,7)8/h3-9H2,1-2H3;/q+1;-1
Compound 5: 1-(2-methoxyethyl)-1-methylpyrrolidinium bis((trifluoromethyl)sulfonyl)amide, C10H18F6N2O5S2, InChI=1S/C8H18NO.C2F6NO4S2/c1-9(7-8-10-2)5-3-4-6-9;3-1(4,5)14(10,11)9-15(12,13)2(6,7)8/h3-8H2,1-2H3;/q+1;-1
Compound 6: N,N-diethyl-2-methoxy-N-methylethan-1-aminium bis((trifluoromethyl)sulfonyl)amide, C10H20F6N2O5S2, InChI=1S/C8H20NO.C2F6NO4S2/c1-5-9(3,6-2)7-8-10-4;3-1(4,5)14(10,11)9-15(12,13)2(6,7)8/h5-8H2,1-4H3;/q+1;-1
Compound 7: N,N-diethyl-N-methylbutan-1-aminium bis((trifluoromethyl)sulfonyl)amide, C11H22F6N2O4S2, InChI=1S/C9H22N.C2F6NO4S2/c1-5-8-9-10(4,6-2)7-3;3-1(4,5)14(10,11)9-15(12,13)2(6,7)8/h5-9H2,1-4H3;/q+1;-1
Compound 8: 1-butyl-3-methylimidazolium pentafluoropropanoyl(trifluoromethylsulfonyl)amide, C12H15F8N3O3S, InChI=1S/C8H15N2.C4HF8NO3S/c1-3-4-5-10-7-6-9(2)8-10;5-2(6,3(7,8)9)1(14)13-17(15,16)4(10,11)12/h6-8H,3-5H2,1-2H3;(H,13,14)/q+1;/p-1
Compound 9: 1-hexyl-3-methylimidazolium bis[(trifluoromethyl)sulfonyl]imide, C12H19F6N3O4S2, InChI=1S/C10H19N2.C2F6NO4S2/c1-3-4-5-6-7-12-9-8-11(2)10-12;3-1(4,5)14(10,11)9-15(12,13)2(6,7)8/h8-10H,3-7H2,1-2H3;/q+1;-1
Compound 10: 1-hexyl-3-methylpyridinium 1,1,1-trifluoro-N-[(trifluoromethyl)sulfonyl]methanesulfonamide, C14H20F6N2O4S2, InChI=1S/C12H20N.C2F6NO4S2/c1-3-4-5-6-9-13-10-7-8-12(2)11-13;3-1(4,5)14(10,11)9-15(12,13)2(6,7)8/h7-8,10-11H,3-6,9H2,1-2H3;/q+1;-1
Compound 11: 1-butyltetrahydrothiophenium bis(trifluoromethylsulfonyl)imide, C10H17F6NO4S3, InChI=1S/C8H17S.C2F6NO4S2/c1-2-3-6-9-7-4-5-8-9;3-1(4,5)14(10,11)9-15(12,13)2(6,7)8/h2-8H2,1H3;/q+1;-1
Compound 12: triethyloctylphosphonium bis(trifluoromethylsulfonyl)imide, C16H32F6NO4PS2, InChI=1S/C14H32P.C2F6NO4S2/c1-5-9-10-11-12-13-14-15(6-2,7-3)8-4;3-1(4,5)14(10,11)9-15(12,13)2(6,7)8/h5-14H2,1-4H3;/q+1;-1
Compound 13: 1-methyl-1,2,3,4,6,7,8,9-octahydropyrimido[1,2-a]pyrimidinium bis(trifluoromethanesulfonyl)imide, C10H16F6N4O4S2, InChI=1S/C8H15N3.C2F6NO4S2/c1-10-5-3-7-11-6-2-4-9-8(10)11;3-1(4,5)14(10,11)9-15(12,13)2(6,7)8/h2-7H2,1H3;/q;-1/p+1
Compound 14: 1-methyl-1,2,3,4,6,7,8,9-octahydropyrimido[1,2-a]pyrimidinium perfluoropropanoyl(trifluoromethanesulfonyl)imide, C12H16F8N4O3S, InChI=1S/C8H15N3.C4HF8NO3S/c1-10-5-3-7-11-6-2-4-9-8(10)11;5-2(6,3(7,8)9)1(14)13-17(15,16)4(10,11)12/h2-7H2,1H3;(H,13,14)
Compound 15: 1,3,4,6,7,8-hexahydro-1-methyl-2H-pyrimido[1,2-a]pyrimidonium bis(pentafluoroethyl)sulfonamide, C12H16F10N4O4S2, InChI=1S/C8H15N3.C4F10NO4S2/c1-10-5-3-7-11-6-2-4-9-8(10)11;5-1(6,7)3(11,12)20(16,17)15-21(18,19)4(13,14)2(8,9)10/h2-7H2,1H3;/q;-1/p+1
Compound 16: 1,1,3,3-tetramethylguanidinium bis(perfluoroethanesulfonyl)imide, C9H14F10N4O4S2, InChI=1S/C5H13N3.C4F10NO4S2/c1-7(2)5(6)8(3)4;5-1(6,7)3(11,12)20(16,17)15-21(18,19)4(13,14)2(8,9)10/h6H,1-4H3;/q;-1/p+1
Compound 17: oxygen, O2, InChI=1S/O2/c1-2, purity 99.994%

System: 1-butyl-1-methylpiperidinium bis(trifluoromethanesulfonyl)imide; phases: Liquid
Fixed: Pressure, kPa = 100
Property: Mass density, kg/m3 (Liquid); method: Vibrating tube method
Temperature, K	Mass density, kg/m3	uncertainty
293	1384	2.6
295	1382.3	2.6
298	1379.7	2.5
303	1375.4	2.5
313	1366.7	2.5
323	1358.2	2.5
333	1349.7	2.5
343	1341.3	2.5
353	1333	2.5

System: 1-butyl-1-methylpiperidinium bis(trifluoromethanesulfonyl)imide; phases: Liquid
Fixed: Pressure, kPa = 100
Property: Viscosity, Pa*s (Liquid); method: Cone and plate viscometry
Temperature, K	Viscosity, Pa*s	uncertainty
283	0.512	0.056
293	0.24	0.026
298	0.173	0.018
303	0.131	0.013
313	0.078	0.008
323	0.051	0.005
333	0.037	0.004
343	0.027	0.003
353	0.022	0.002

System: 1-butyl-1-methylpyrrolidinium bis[(trifluoromethyl)sulfonyl]imide; phases: Liquid
Fixed: Pressure, kPa = 100
Property: Mass density, kg/m3 (Liquid); method: Vibrating tube method
Temperature, K	Mass density, kg/m3	uncertainty
293	1398.1	2.6
295	1396.3	2.6
298	1393.7	2.6
303	1389.2	2.6
313	1380.4	2.5
323	1371.7	2.5
333	1363.1	2.5
343	1354.5	2.5
353	1345.9	2.5

System: 1-butyl-1-methylpyrrolidinium bis[(trifluoromethyl)sulfonyl]imide; phases: Liquid
Fixed: Pressure, kPa = 100
Property: Viscosity, Pa*s (Liquid); method: Cone and plate viscometry
Temperature, K	Viscosity, Pa*s	uncertainty
283	0.159	0.016
293	0.09	0.009
298	0.07	0.007
303	0.057	0.006
313	0.039	0.004
323	0.028	0.003
333	0.022	0.002
343	0.017	0.002
353	0.014	0.002

System: N,N-diethyl-N-methylbutan-1-aminium bis((trifluoromethyl)sulfonyl)amide; phases: Liquid
Fixed: Pressure, kPa = 100
Property: Mass density, kg/m3 (Liquid); method: Vibrating tube method
Temperature, K	Mass density, kg/m3	uncertainty
293	1360.5	2.5
295	1362.3	2.5
298	1357.9	2.5
303	1353.6	2.5
313	1344.9	2.5
323	1336.3	2.5
333	1327.8	2.5
343	1319.4	2.5
353	1311	2.5

System: N,N-diethyl-N-methylbutan-1-aminium bis((trifluoromethyl)sulfonyl)amide; phases: Liquid
Fixed: Pressure, kPa = 100
Property: Viscosity, Pa*s (Liquid); method: Cone and plate viscometry
Temperature, K	Viscosity, Pa*s	uncertainty
283	0.306	0.033
293	0.156	0.016
298	0.114	0.012
303	0.089	0.009
313	0.057	0.006
323	0.039	0.004
333	0.029	0.003
343	0.023	0.002
353	0.018	0.002

System: 1-butyl-3-methylimidazolium pentafluoropropanoyl(trifluoromethylsulfonyl)amide; phases: Liquid
Fixed: Pressure, kPa = 100
Property: Mass density, kg/m3 (Liquid); method: Vibrating tube method
Temperature, K	Mass density, kg/m3	uncertainty
283	1430.1	2.6
293	1419.7	2.6
295	1417.7	2.6
298	1414.6	2.6
303	1409.5	2.6
313	1399.4	2.6
323	1389.3	2.6
333	1379.4	2.5
343	1369.5	2.5
353	1359.7	2.5

System: 1-butyl-3-methylimidazolium pentafluoropropanoyl(trifluoromethylsulfonyl)amide; phases: Liquid
Fixed: Pressure, kPa = 100
Property: Viscosity, Pa*s (Liquid); method: Cone and plate viscometry
Temperature, K	Viscosity, Pa*s	uncertainty
283	0.112	0.011
293	0.066	0.007
295	0.06	0.006
298	0.052	0.005
313	0.03	0.003
323	0.023	0.002
333	0.019	0.002
343	0.016	0.002
353	0.015	0.002

System: 1-methyl-1,2,3,4,6,7,8,9-octahydropyrimido[1,2-a]pyrimidinium bis(trifluoromethanesulfonyl)imide; phases: Liquid
Fixed: Pressure, kPa = 100
Property: Mass density, kg/m3 (Liquid); method: Vibrating tube method
Temperature, K	Mass density, kg/m3	uncertainty
283	1527.4	2.8
293	1517.6	2.8
295	1515.7	2.8
298	1512.8	2.8
303	1507.9	2.8
313	1498.3	2.7
323	1488.7	2.7
333	1479.3	2.7
343	1469.9	2.7
353	1460.5	2.7

System: 1-methyl-1,2,3,4,6,7,8,9-octahydropyrimido[1,2-a]pyrimidinium bis(trifluoromethanesulfonyl)imide; phases: Liquid
Fixed: Pressure, kPa = 100
Property: Viscosity, Pa*s (Liquid); method: Cone and plate viscometry
Temperature, K	Viscosity, Pa*s	uncertainty
283	0.297	0.032
293	0.151	0.016
295	0.133	0.014
298	0.112	0.011
303	0.089	0.009
313	0.057	0.006
323	0.039	0.004
333	0.03	0.003
343	0.024	0.002
353	0.019	0.002

System: 1-methyl-1,2,3,4,6,7,8,9-octahydropyrimido[1,2-a]pyrimidinium perfluoropropanoyl(trifluoromethanesulfonyl)imide; phases: Liquid
Fixed: Pressure, kPa = 100
Property: Mass density, kg/m3 (Liquid); method: Vibrating tube method
Temperature, K	Mass density, kg/m3	uncertainty
283	1503.2	2.7
293	1492.8	2.7
295	1490.8	2.7
298	1487.7	2.7
303	1482.6	2.7
313	1472.4	2.7
323	1462.4	2.7
333	1452.4	2.7
343	1442.5	2.6
353	1432.8	2.6

System: 1-methyl-1,2,3,4,6,7,8,9-octahydropyrimido[1,2-a]pyrimidinium perfluoropropanoyl(trifluoromethanesulfonyl)imide; phases: Liquid
Fixed: Pressure, kPa = 100
Property: Viscosity, Pa*s (Liquid); method: Cone and plate viscometry
Temperature, K	Viscosity, Pa*s	uncertainty
283	0.348	0.037
293	0.169	0.018
295	0.149	0.015
298	0.125	0.013
303	0.097	0.01
313	0.061	0.006
323	0.042	0.004
333	0.031	0.003
343	0.025	0.003
353	0.02	0.002

System: 1,3,4,6,7,8-hexahydro-1-methyl-2H-pyrimido[1,2-a]pyrimidonium bis(pentafluoroethyl)sulfonamide; phases: Liquid
Fixed: Pressure, kPa = 100
Property: Mass density, kg/m3 (Liquid); method: Vibrating tube method
Temperature, K	Mass density, kg/m3	uncertainty
293	1587.4	2.9
295	1584.2	2.9
298	1582.1	2.9
303	1576.8	2.9
313	1566.2	2.9
323	1555.6	2.8
333	1545.2	2.8
343	1534.8	2.8
353	1524.5	2.8

System: 1,3,4,6,7,8-hexahydro-1-methyl-2H-pyrimido[1,2-a]pyrimidonium bis(pentafluoroethyl)sulfonamide; phases: Liquid
Fixed: Pressure, kPa = 100
Property: Viscosity, Pa*s (Liquid); method: Cone and plate viscometry
Temperature, K	Viscosity, Pa*s	uncertainty
283	1.342	0.158
293	0.538	0.059
295	0.463	0.051
298	0.363	0.039
303	0.264	0.028
313	0.144	0.015
323	0.087	0.009
333	0.058	0.006
343	0.041	0.004
353	0.03	0.003

System: 1,1,3,3-tetramethylguanidinium bis(perfluoroethanesulfonyl)imide; phases: Liquid
Fixed: Pressure, kPa = 100
Property: Mass density, kg/m3 (Liquid); method: Vibrating tube method
Temperature, K	Mass density, kg/m3	uncertainty
283	1588	2.9
293	1576.8	2.9
295	1574.6	2.9
298	1571.3	2.9
303	1565.8	2.9
313	1554.7	2.8
323	1543.8	2.8
333	1533	2.8
343	1522.2	2.8
353	1511.5	2.8

System: 1,1,3,3-tetramethylguanidinium bis(perfluoroethanesulfonyl)imide; phases: Liquid
Fixed: Pressure, kPa = 100
Property: Viscosity, Pa*s (Liquid); method: Cone and plate viscometry
Temperature, K	Viscosity, Pa*s	uncertainty
293	0.341	0.037
295	0.295	0.031
298	0.24	0.025
303	0.174	0.018
313	0.096	0.01
323	0.059	0.006
333	0.043	0.004
343	0.03	0.003
353	0.02	0.002

System: 1-hexyl-3-methylimidazolium bis[(trifluoromethyl)sulfonyl]imide + oxygen; phases: Liquid, Gas
Fixed: Temperature, K = 293
Property: Mole fraction of oxygen (Liquid); method: Phase equilibration
Pressure, kPa	Mole fraction of oxygen	uncertainty
1010	0.036	0.002
1990	0.069	0.002
3010	0.103	0.002
3990	0.13	0.002
4980	0.158	0.002
5990	0.184	0.002
6970	0.205	0.002

System: 1-hexyl-3-methylpyridinium 1,1,1-trifluoro-N-[(trifluoromethyl)sulfonyl]methanesulfonamide + oxygen; phases: Liquid, Gas
Fixed: Temperature, K = 293
Property: Mole fraction of oxygen (Liquid); method: Phase equilibration
Pressure, kPa	Mole fraction of oxygen	uncertainty
1000	0.031	0.002
2990	0.091	0.002
4980	0.142	0.002
6970	0.189	0.002
6060	0.167	0.002
4030	0.118	0.002

System: triethyloctylphosphonium bis(trifluoromethylsulfonyl)imide + oxygen; phases: Liquid, Gas
Fixed: Temperature, K = 293
Property: Mole fraction of oxygen (Liquid); method: Phase equilibration
Pressure, kPa	Mole fraction of oxygen	uncertainty
1000	0.034	0.002
1490	0.048	0.002
2030	0.069	0.002
3000	0.096	0.002
4000	0.124	0.002
4490	0.132	0.002

System: 1-methyl-1-propylpiperidinium bis(trifluoromethylsulfonyl)imide + oxygen; phases: Liquid, Gas
Fixed: Temperature, K = 293
Property: Mole fraction of oxygen (Liquid); method: Phase equilibration
Pressure, kPa	Mole fraction of oxygen	uncertainty
1010	0.022	0.002
2020	0.045	0.002
3010	0.066	0.002
4000	0.09	0.002
5010	0.11	0.002
6010	0.127	0.002
7000	0.145	0.002

System: 1-butyl-1-methylpiperidinium bis(trifluoromethanesulfonyl)imide + oxygen; phases: Liquid, Gas
Fixed: Temperature, K = 293
Property: Mole fraction of oxygen (Liquid); method: Phase equilibration
Pressure, kPa	Mole fraction of oxygen	uncertainty
1030	0.032	0.002
2000	0.055	0.002
3000	0.08	0.002
3990	0.101	0.002
5000	0.124	0.002
5990	0.142	0.002
7040	0.162	0.002
8110	0.18	0.002

System: 1-butyltetrahydrothiophenium bis(trifluoromethylsulfonyl)imide + oxygen; phases: Liquid, Gas
Fixed: Temperature, K = 293
Property: Mole fraction of oxygen (Liquid); method: Phase equilibration
Pressure, kPa	Mole fraction of oxygen	uncertainty
500	0.012	0.002
1500	0.037	0.002
2490	0.057	0.002
5490	0.115	0.002
6510	0.134	0.002
6030	0.127	0.002

System: 1-butyl-3-methylimidazolium pentafluoropropanoyl(trifluoromethylsulfonyl)amide + oxygen; phases: Liquid, Gas
Fixed: Temperature, K = 293
Property: Mole fraction of oxygen (Liquid); method: Phase equilibration
Pressure, kPa	Mole fraction of oxygen	uncertainty
1000	0.03	0.002
2010	0.062	0.002
3000	0.09	0.002
3980	0.113	0.002
4990	0.137	0.002
5990	0.159	0.002
7960	0.196	0.002
7060	0.179	0.002

System: 1-methyl-1,2,3,4,6,7,8,9-octahydropyrimido[1,2-a]pyrimidinium perfluoropropanoyl(trifluoromethanesulfonyl)imide + oxygen; phases: Liquid, Gas
Fixed: Temperature, K = 293
Property: Mole fraction of oxygen (Liquid); method: Phase equilibration
Pressure, kPa	Mole fraction of oxygen	uncertainty
1010	0.031	0.004
2000	0.056	0.004
3000	0.084	0.004
3990	0.105	0.004
4990	0.13	0.004
7970	0.187	0.004
7040	0.172	0.004
6030	0.154	0.004

System: 1,3,4,6,7,8-hexahydro-1-methyl-2H-pyrimido[1,2-a]pyrimidonium bis(pentafluoroethyl)sulfonamide + oxygen; phases: Liquid, Gas
Property: Mole fraction of oxygen (Liquid); method: Phase equilibration
Temperature, K	Pressure, kPa	Mole fraction of oxygen	uncertainty
293	2520	0.083	0.004
293	5510	0.164	0.004
293	8000	0.215	0.004
293	7020	0.195	0.004
293	6020	0.171	0.004
293	4510	0.135	0.004
293	3520	0.106	0.004
313	1050	0.025	0.004
313	3000	0.075	0.004
313	4990	0.113	0.004
333	1070	0.025	0.004
333	3000	0.057	0.004
333	4990	0.1	0.004

System: 1,3,4,6,7,8-hexahydro-1-methyl-2H-pyrimido[1,2-a]pyrimidonium bis(pentafluoroethyl)sulfonamide + oxygen; phases: Liquid
Fixed: Temperature, K = 313
Property: Binary diffusion coefficient, m2/s (Liquid); method: Open capillary
Pressure, kPa	Mole fraction of oxygen	Binary diffusion coefficient, m2/s	uncertainty
3000	0.038	2e-10	0.2
5000	0.057	2e-10	0.1

System: 1-methyl-1,2,3,4,6,7,8,9-octahydropyrimido[1,2-a]pyrimidinium bis(trifluoromethanesulfonyl)imide + oxygen; phases: Liquid, Gas
Property: Mole fraction of oxygen (Liquid); method: Phase equilibration
Temperature, K	Pressure, kPa	Mole fraction of oxygen	uncertainty
293	1020	0.029	0.004
293	3010	0.074	0.004
293	4980	0.116	0.004
313	1020	0.019	0.004
313	3000	0.054	0.004
333	1010	0.013	0.004
333	3020	0.046	0.004

System: 1-methyl-1,2,3,4,6,7,8,9-octahydropyrimido[1,2-a]pyrimidinium bis(trifluoromethanesulfonyl)imide + oxygen; phases: Liquid
Fixed: Pressure, kPa = 3000
Property: Binary diffusion coefficient, m2/s (Liquid); method: Open capillary
Temperature, K	Mole fraction of oxygen	Binary diffusion coefficient, m2/s	uncertainty
313	0.027	4.1e-10	0.06
333	0.023	3e-10	0.4

System: 1,1,3,3-tetramethylguanidinium bis(perfluoroethanesulfonyl)imide + oxygen; phases: Liquid, Gas
Property: Mole fraction of oxygen (Liquid); method: Phase equilibration
Temperature, K	Pressure, kPa	Mole fraction of oxygen	uncertainty
293	110	0.011	0.004
293	1080	0.048	0.004
293	3020	0.113	0.004
293	4990	0.171	0.004
293	7980	0.243	0.004
293	6540	0.214	0.004
293	4010	0.144	0.004
313	1040	0.028	0.004
313	3010	0.077	0.004
313	4980	0.129	0.004
313	5980	0.154	0.004
333	3030	0.073	0.004
333	5010	0.119	0.004
333	5970	0.14	0.004
333	4090	0.101	0.004
333	2010	0.047	0.004
333	990	0.024	0.004

System: 1,1,3,3-tetramethylguanidinium bis(perfluoroethanesulfonyl)imide + oxygen; phases: Liquid
Property: Binary diffusion coefficient, m2/s (Liquid); method: Open capillary
Temperature, K	Pressure, kPa	Mole fraction of oxygen	Binary diffusion coefficient, m2/s	uncertainty
313	3000	0.039	3e-10	0.04
313	5000	0.065	3.2e-10	0.04
333	3000	0.036	5.3e-10	0.04

System: N,N-diethyl-N-methylbutan-1-aminium bis((trifluoromethyl)sulfonyl)amide + oxygen; phases: Liquid, Gas
Property: Mole fraction of oxygen (Liquid); method: Phase equilibration
Temperature, K	Pressure, kPa	Mole fraction of oxygen	uncertainty
293	1010	0.034	0.004
293	2000	0.062	0.004
293	3000	0.088	0.004
293	4010	0.117	0.004
293	4990	0.138	0.004
293	5990	0.159	0.004
293	7980	0.203	0.004
293	7020	0.183	0.004
313	1000	0.022	0.004
313	2000	0.045	0.004
313	3000	0.068	0.004
313	6010	0.138	0.004
313	7020	0.159	0.004
313	5010	0.116	0.004
313	4020	0.094	0.004
333	1260	0.021	0.004
333	2000	0.034	0.004
333	3010	0.057	0.004
333	7000	0.141	0.004
333	6010	0.124	0.004
333	4990	0.102	0.004
333	3990	0.08	0.004
333	3010	0.058	0.004

System: N,N-diethyl-N-methylbutan-1-aminium bis((trifluoromethyl)sulfonyl)amide + oxygen; phases: Liquid
Property: Binary diffusion coefficient, m2/s (Liquid); method: Open capillary
Temperature, K	Pressure, kPa	Mole fraction of oxygen	Binary diffusion coefficient, m2/s	uncertainty
313	3000	0.034	4.4e-10	0.04
313	5000	0.058	4.6e-10	0.04
333	3000	0.029	6.5e-10	0.08
333	5000	0.051	6.5e-10	0.12

System: N,N-diethyl-2-methoxy-N-methylethan-1-aminium bis((trifluoromethyl)sulfonyl)amide + oxygen; phases: Liquid, Gas
Property: Mole fraction of oxygen (Liquid); method: Phase equilibration
Temperature, K	Pressure, kPa	Mole fraction of oxygen	uncertainty
293	1020	0.026	0.004
293	2010	0.05	0.004
293	3010	0.074	0.004
293	4010	0.097	0.004
293	5010	0.117	0.004
293	6010	0.137	0.004
293	7000	0.157	0.004
293	8000	0.175	0.004
313	1000	0.023	0.004
313	2000	0.045	0.004
313	3010	0.064	0.004
313	3990	0.085	0.004
313	4990	0.103	0.004
313	7020	0.144	0.004
333	1020	0.014	0.004
333	2010	0.031	0.004
333	4010	0.07	0.004
333	2960	0.051	0.004
333	9320	0.155	0.004
333	6010	0.103	0.004

System: N,N-diethyl-2-methoxy-N-methylethan-1-aminium bis((trifluoromethyl)sulfonyl)amide + oxygen; phases: Liquid
Fixed: Pressure, kPa = 3000
Property: Binary diffusion coefficient, m2/s (Liquid); method: Open capillary
Temperature, K	Mole fraction of oxygen	Binary diffusion coefficient, m2/s	uncertainty
313	0.032	6e-10	0.2
333	0.026	7e-10	0.2

System: 1-(2-methoxyethyl)-1-methylpiperidinium bis(trifluoromethylsulfonyl)imide + oxygen; phases: Liquid, Gas
Property: Mole fraction of oxygen (Liquid); method: Phase equilibration
Temperature, K	Pressure, kPa	Mole fraction of oxygen	uncertainty
293	2320	0.048	0.004
293	3010	0.061	0.004
293	4030	0.079	0.004
293	5010	0.097	0.004
293	6000	0.11	0.004
313	1020	0.018	0.004
313	3010	0.058	0.004
313	5000	0.099	0.004
333	1000	0.026	0.004
333	3110	0.057	0.004
333	4990	0.087	0.004

System: 1-(2-methoxyethyl)-1-methylpiperidinium bis(trifluoromethylsulfonyl)imide + oxygen; phases: Liquid
Property: Binary diffusion coefficient, m2/s (Liquid); method: Open capillary
Temperature, K	Pressure, kPa	Mole fraction of oxygen	Binary diffusion coefficient, m2/s	uncertainty
313	3000	0.029	3.5e-10	0.12
313	5000	0.05	2.5e-10	0.2
333	3000	0.027	4.3e-10	0.14
333	5000	0.044	5.4e-10	0.2

System: 1-(2-methoxyethyl)-1-methylpyrrolidinium bis((trifluoromethyl)sulfonyl)amide + oxygen; phases: Liquid, Gas
Property: Mole fraction of oxygen (Liquid); method: Phase equilibration
Temperature, K	Pressure, kPa	Mole fraction of oxygen	uncertainty
293	1020	0.027	0.004
293	2060	0.049	0.004
293	3010	0.07	0.004
293	4020	0.094	0.004
293	5000	0.111	0.004
293	5990	0.127	0.004
293	7000	0.146	0.004
293	8010	0.164	0.004
313	1000	0.021	0.004
313	2980	0.063	0.004
333	1040	0.016	0.004
333	3330	0.06	0.004

System: 1-(2-methoxyethyl)-1-methylpyrrolidinium bis((trifluoromethyl)sulfonyl)amide + oxygen; phases: Liquid
Property: Binary diffusion coefficient, m2/s (Liquid); method: Open capillary
Temperature, K	Pressure, kPa	Mole fraction of oxygen	Binary diffusion coefficient, m2/s	uncertainty
313	3000	0.032	4.9e-10	0.06
313	5000	0.05	6e-10	0.1
333	3000	0.027	6e-10	0.4
333	5000	0.05	8e-10	0.4

System: 1-butyl-1-methylpyrrolidinium bis[(trifluoromethyl)sulfonyl]imide + oxygen; phases: Liquid, Gas
Property: Mole fraction of oxygen (Liquid); method: Phase equilibration
Temperature, K	Pressure, kPa	Mole fraction of oxygen	uncertainty
293	1000	0.037	0.004
293	1990	0.068	0.004
293	2990	0.099	0.004
293	3990	0.127	0.004
293	4990	0.154	0.004
293	5980	0.176	0.004
293	7980	0.221	0.004
293	7030	0.2	0.004
313	1020	0.026	0.004
313	3000	0.072	0.004
313	5000	0.102	0.004
313	5980	0.116	0.004
313	3990	0.086	0.004
313	1980	0.049	0.004
333	1030	0.025	0.004
333	3020	0.06	0.004
333	4980	0.089	0.004
333	3990	0.072	0.004
333	1980	0.047	0.004

System: 1-butyl-1-methylpyrrolidinium bis[(trifluoromethyl)sulfonyl]imide + oxygen; phases: Liquid
Property: Binary diffusion coefficient, m2/s (Liquid); method: Open capillary
Temperature, K	Pressure, kPa	Mole fraction of oxygen	Binary diffusion coefficient, m2/s	uncertainty
313	3000	0.036	4.4e-10	0.06
313	5000	0.051	4.6e-10	0.04
333	3000	0.03	6.4e-10	0.04
333	5000	0.045	6.7e-10	0.14
