Measured thermophysical data. Thermodynamic Aspects of Solubility and Solvation of Bioactive Bicyclic Derivatives in Organic Solvents
Source: J. Chem. Eng. Data, 2017, 10.1021/acs.jced.7b00641
Compound 1: (4-methylphenyl)-[3-thia-1-aza-bicyclo[3.3.1]non-2-ylidene]amine, C14H18N2S, InChI=1S/C14H18N2S/c1-11-4-6-13(7-5-11)15-14-16-8-2-3-12(9-16)10-17-14/h4-7,12H,2-3,8-10H2,1H3
Compound 2: N-(4-ethylphenyl)-3-thia-1-azabicyclo[3.3.1]nonan-2-imine, C15H20N2S, InChI=1S/C15H20N2S/c1-2-12-5-7-14(8-6-12)16-15-17-9-3-4-13(10-17)11-18-15/h5-8,13H,2-4,9-11H2,1H3
Compound 3: (4-isopropylphenyl)-[3-thia-1-aza-bicyclo[3.3.1]non-2-ylidene]amine, C16H22N2S, InChI=1S/C16H22N2S/c1-12(2)14-5-7-15(8-6-14)17-16-18-9-3-4-13(10-18)11-19-16/h5-8,12-13H,3-4,9-11H2,1-2H3
Compound 4: (4-fluorophenyl)-[3-thia-1-aza-bicyclo[3.3.1]non-2-ylidene]amine, C13H15FN2S, InChI=1S/C13H15FN2S/c14-11-3-5-12(6-4-11)15-13-16-7-1-2-10(8-16)9-17-13/h3-6,10H,1-2,7-9H2
Compound 5: (4-(trifluoromethyl)phenyl)-[3-thia-1-aza-bicyclo[3.3.1]non-2-ylidene]amine, C14H15F3N2S, InChI=1S/C14H15F3N2S/c15-14(16,17)11-3-5-12(6-4-11)18-13-19-7-1-2-10(8-19)9-20-13/h3-6,10H,1-2,7-9H2
Compound 6: (4-cyanophenyl)-[3-thia-1-aza-bicyclo[3.3.1]non-2-ylidene]amine, C14H15N3S, InChI=1S/C14H15N3S/c15-8-11-3-5-13(6-4-11)16-14-17-7-1-2-12(9-17)10-18-14/h3-6,12H,1-2,7,9-10H2
Compound 7: (4-acetylphenyl)-[3-thia-1-aza-bicyclo[3.3.1]non-2-ylidene]amine, C15H18N2OS, InChI=1S/C15H18N2OS/c1-11(18)13-4-6-14(7-5-13)16-15-17-8-2-3-12(9-17)10-19-15/h4-7,12H,2-3,8-10H2,1H3
Compound 8: N-(3-chloro-4-methylphenyl)-3-thia-1-azabicyclo[3.3.1]nonan-2-imine, C14H17ClN2S, InChI=1S/C14H17ClN2S/c1-10-4-5-12(7-13(10)15)16-14-17-6-2-3-11(8-17)9-18-14/h4-5,7,11H,2-3,6,8-9H2,1H3
Compound 9: octan-1-ol, C8H18O, InChI=1S/C8H18O/c1-2-3-4-5-6-7-8-9/h9H,2-8H2,1H3, purity 99%
Compound 10: hexane, C6H14, InChI=1S/C6H14/c1-3-5-6-4-2/h3-6H2,1-2H3, purity 97%

System: octan-1-ol + (4-methylphenyl)-[3-thia-1-aza-bicyclo[3.3.1]non-2-ylidene]amine; phases: Liquid, Crystal
Fixed: Pressure, kPa = 100
Property: Mole fraction of (4-methylphenyl)-[3-thia-1-aza-bicyclo[3.3.1]non-2-ylidene]amine (Liquid); method: UV Spectroscopy
Temperature, K	Mole fraction of (4-methylphenyl)-[3-thia-1-aza-bicyclo[3.3.1]non-2-ylidene]amine	uncertainty
293.15	0.145	0.012
298.15	0.157	0.013
303.15	0.171	0.014
310.15	0.193	0.015
315.15	0.209	0.017

System: octan-1-ol + N-(4-ethylphenyl)-3-thia-1-azabicyclo[3.3.1]nonan-2-imine; phases: Liquid, Crystal
Fixed: Pressure, kPa = 100
Property: Mole fraction of N-(4-ethylphenyl)-3-thia-1-azabicyclo[3.3.1]nonan-2-imine (Liquid); method: UV Spectroscopy
Temperature, K	Mole fraction of N-(4-ethylphenyl)-3-thia-1-azabicyclo[3.3.1]nonan-2-imine	uncertainty
293.15	0.0124	0.001
298.15	0.0139	0.0011
303.15	0.0163	0.0013
310.15	0.0194	0.0016
315.15	0.0224	0.0018

System: octan-1-ol + (4-isopropylphenyl)-[3-thia-1-aza-bicyclo[3.3.1]non-2-ylidene]amine; phases: Liquid, Crystal
Fixed: Pressure, kPa = 100
Property: Mole fraction of (4-isopropylphenyl)-[3-thia-1-aza-bicyclo[3.3.1]non-2-ylidene]amine (Liquid); method: UV Spectroscopy
Temperature, K	Mole fraction of (4-isopropylphenyl)-[3-thia-1-aza-bicyclo[3.3.1]non-2-ylidene]amine	uncertainty
293.15	0.143	0.011
298.15	0.154	0.012
303.15	0.164	0.013
310.15	0.182	0.015
315.15	0.194	0.016

System: octan-1-ol + (4-fluorophenyl)-[3-thia-1-aza-bicyclo[3.3.1]non-2-ylidene]amine; phases: Liquid, Crystal
Fixed: Pressure, kPa = 100
Property: Mole fraction of (4-fluorophenyl)-[3-thia-1-aza-bicyclo[3.3.1]non-2-ylidene]amine (Liquid); method: UV Spectroscopy
Temperature, K	Mole fraction of (4-fluorophenyl)-[3-thia-1-aza-bicyclo[3.3.1]non-2-ylidene]amine	uncertainty
293.15	0.0245	0.002
298.15	0.0296	0.0024
303.15	0.0354	0.0029
310.15	0.0469	0.0038
315.15	0.0567	0.0046

System: octan-1-ol + (4-(trifluoromethyl)phenyl)-[3-thia-1-aza-bicyclo[3.3.1]non-2-ylidene]amine; phases: Liquid, Crystal
Fixed: Pressure, kPa = 100
Property: Mole fraction of (4-(trifluoromethyl)phenyl)-[3-thia-1-aza-bicyclo[3.3.1]non-2-ylidene]amine (Liquid); method: UV Spectroscopy
Temperature, K	Mole fraction of (4-(trifluoromethyl)phenyl)-[3-thia-1-aza-bicyclo[3.3.1]non-2-ylidene]amine	uncertainty
293.15	0.0118	0.0009
298.15	0.0132	0.0011
303.15	0.0146	0.0012
310.15	0.0171	0.0014
315.15	0.0189	0.0015

System: octan-1-ol + (4-cyanophenyl)-[3-thia-1-aza-bicyclo[3.3.1]non-2-ylidene]amine; phases: Liquid, Crystal
Fixed: Pressure, kPa = 100
Property: Mole fraction of (4-cyanophenyl)-[3-thia-1-aza-bicyclo[3.3.1]non-2-ylidene]amine (Liquid); method: UV Spectroscopy
Temperature, K	Mole fraction of (4-cyanophenyl)-[3-thia-1-aza-bicyclo[3.3.1]non-2-ylidene]amine	uncertainty
293.15	0.0087	0.0007
298.15	0.0107	0.0009
303.15	0.0131	0.0011
310.15	0.0166	0.0013
315.15	0.0202	0.0016

System: octan-1-ol + (4-acetylphenyl)-[3-thia-1-aza-bicyclo[3.3.1]non-2-ylidene]amine; phases: Liquid, Crystal
Fixed: Pressure, kPa = 100
Property: Mole fraction of (4-acetylphenyl)-[3-thia-1-aza-bicyclo[3.3.1]non-2-ylidene]amine (Liquid); method: UV Spectroscopy
Temperature, K	Mole fraction of (4-acetylphenyl)-[3-thia-1-aza-bicyclo[3.3.1]non-2-ylidene]amine	uncertainty
293.15	0.0075	0.0006
298.15	0.0093	0.0008
303.15	0.0118	0.001
310.15	0.0156	0.0013
315.15	0.0202	0.0016

System: octan-1-ol + N-(3-chloro-4-methylphenyl)-3-thia-1-azabicyclo[3.3.1]nonan-2-imine; phases: Liquid, Crystal
Fixed: Pressure, kPa = 100
Property: Mole fraction of N-(3-chloro-4-methylphenyl)-3-thia-1-azabicyclo[3.3.1]nonan-2-imine (Liquid); method: UV Spectroscopy
Temperature, K	Mole fraction of N-(3-chloro-4-methylphenyl)-3-thia-1-azabicyclo[3.3.1]nonan-2-imine	uncertainty
293.15	0.00305	0.00025
298.15	0.00377	0.00031
303.15	0.00454	0.00037
310.15	0.00605	0.00049
315.15	0.00736	0.00059

System: hexane + (4-methylphenyl)-[3-thia-1-aza-bicyclo[3.3.1]non-2-ylidene]amine; phases: Liquid, Crystal
Fixed: Pressure, kPa = 100
Property: Mole fraction of (4-methylphenyl)-[3-thia-1-aza-bicyclo[3.3.1]non-2-ylidene]amine (Liquid); method: UV Spectroscopy
Temperature, K	Mole fraction of (4-methylphenyl)-[3-thia-1-aza-bicyclo[3.3.1]non-2-ylidene]amine	uncertainty
293.15	0.0033	0.00028
298.15	0.00465	0.00038
303.15	0.00654	0.00054
310.15	0.0104	0.00085
315.15	0.01345	0.00109

System: hexane + N-(4-ethylphenyl)-3-thia-1-azabicyclo[3.3.1]nonan-2-imine; phases: Liquid, Crystal
Fixed: Pressure, kPa = 100
Property: Mole fraction of N-(4-ethylphenyl)-3-thia-1-azabicyclo[3.3.1]nonan-2-imine (Liquid); method: UV Spectroscopy
Temperature, K	Mole fraction of N-(4-ethylphenyl)-3-thia-1-azabicyclo[3.3.1]nonan-2-imine	uncertainty
293.15	0.000225	1.8e-05
298.15	0.000289	2.4e-05
303.15	0.000382	3.1e-05
310.15	0.000537	4.4e-05
315.15	0.000673	5.4e-05

System: hexane + (4-isopropylphenyl)-[3-thia-1-aza-bicyclo[3.3.1]non-2-ylidene]amine; phases: Liquid, Crystal
Fixed: Pressure, kPa = 100
Property: Mole fraction of (4-isopropylphenyl)-[3-thia-1-aza-bicyclo[3.3.1]non-2-ylidene]amine (Liquid); method: UV Spectroscopy
Temperature, K	Mole fraction of (4-isopropylphenyl)-[3-thia-1-aza-bicyclo[3.3.1]non-2-ylidene]amine	uncertainty
293.15	0.00135	0.00011
298.15	0.00158	0.00013
303.15	0.00195	0.00016
310.15	0.00246	0.0002
315.15	0.00288	0.00023

System: hexane + (4-fluorophenyl)-[3-thia-1-aza-bicyclo[3.3.1]non-2-ylidene]amine; phases: Liquid, Crystal
Fixed: Pressure, kPa = 100
Property: Mole fraction of (4-fluorophenyl)-[3-thia-1-aza-bicyclo[3.3.1]non-2-ylidene]amine (Liquid); method: UV Spectroscopy
Temperature, K	Mole fraction of (4-fluorophenyl)-[3-thia-1-aza-bicyclo[3.3.1]non-2-ylidene]amine	uncertainty
293.15	0.0015	0.00012
298.15	0.00187	0.00015
303.15	0.00224	0.00018
310.15	0.00294	0.00024
315.15	0.00359	0.00029

System: hexane + (4-(trifluoromethyl)phenyl)-[3-thia-1-aza-bicyclo[3.3.1]non-2-ylidene]amine; phases: Liquid, Crystal
Fixed: Pressure, kPa = 100
Property: Mole fraction of (4-(trifluoromethyl)phenyl)-[3-thia-1-aza-bicyclo[3.3.1]non-2-ylidene]amine (Liquid); method: UV Spectroscopy
Temperature, K	Mole fraction of (4-(trifluoromethyl)phenyl)-[3-thia-1-aza-bicyclo[3.3.1]non-2-ylidene]amine	uncertainty
293.15	0.000248	2e-05
298.15	0.000286	2.3e-05
303.15	0.000339	2.7e-05
310.15	0.000402	3.2e-05
315.15	0.00046	3.7e-05

System: hexane + (4-cyanophenyl)-[3-thia-1-aza-bicyclo[3.3.1]non-2-ylidene]amine; phases: Liquid, Crystal
Fixed: Pressure, kPa = 100
Property: Mole fraction of (4-cyanophenyl)-[3-thia-1-aza-bicyclo[3.3.1]non-2-ylidene]amine (Liquid); method: UV Spectroscopy
Temperature, K	Mole fraction of (4-cyanophenyl)-[3-thia-1-aza-bicyclo[3.3.1]non-2-ylidene]amine	uncertainty
293.15	0.000223	1.8e-05
298.15	0.000271	2.2e-05
303.15	0.000337	2.7e-05
310.15	0.000422	3.4e-05
315.15	0.000523	4.2e-05

System: hexane + (4-acetylphenyl)-[3-thia-1-aza-bicyclo[3.3.1]non-2-ylidene]amine; phases: Liquid, Crystal
Fixed: Pressure, kPa = 100
Property: Mole fraction of (4-acetylphenyl)-[3-thia-1-aza-bicyclo[3.3.1]non-2-ylidene]amine (Liquid); method: UV Spectroscopy
Temperature, K	Mole fraction of (4-acetylphenyl)-[3-thia-1-aza-bicyclo[3.3.1]non-2-ylidene]amine	uncertainty
293.15	0.000144	1.2e-05
298.15	0.000176	1.4e-05
303.15	0.000215	1.7e-05
310.15	0.00028	2.3e-05
315.15	0.000344	2.8e-05

System: hexane + N-(3-chloro-4-methylphenyl)-3-thia-1-azabicyclo[3.3.1]nonan-2-imine; phases: Liquid, Crystal
Fixed: Pressure, kPa = 100
Property: Mole fraction of N-(3-chloro-4-methylphenyl)-3-thia-1-azabicyclo[3.3.1]nonan-2-imine (Liquid); method: UV Spectroscopy
Temperature, K	Mole fraction of N-(3-chloro-4-methylphenyl)-3-thia-1-azabicyclo[3.3.1]nonan-2-imine	uncertainty
293.15	7.1e-05	5.8e-06
298.15	8.71e-05	7e-06
303.15	0.0001058	8.5e-06
310.15	0.0001337	1.08e-05
315.15	0.0001612	1.3e-05
