Measured thermophysical data. Phase Equilibria for the KHSO4 H2SO4 H2O and KHSO4 CrO3 H2SO4 H2O Systems at 313.15 K
Source: J. Chem. Eng. Data, 2016, 10.1021/acs.jced.5b00594
Compound 1: hydrogen potassium sulfate, HKO4S, InChI=1S/K.H2O4S/c;1-5(2,3)4/h;(H2,1,2,3,4)/q+1;/p-1, purity 99.9%
Compound 2: sulfuric acid, H2O4S, InChI=1S/H2O4S/c1-5(2,3)4/h(H2,1,2,3,4), purity 98.5%
Compound 3: water, H2O, InChI=1S/H2O/h1H2, purity 99.9%

System: hydrogen potassium sulfate + sulfuric acid + water; phases: Liquid
Fixed: Pressure, kPa = 100
Fixed: Temperature, K = 313.15
Property: Mass density, kg/m3 (Liquid); method: Pycnometric method
Mass fraction of sulfuric acid	Mass fraction of hydrogen potassium sulfate	Mass density, kg/m3	uncertainty
0	0.4722	1391	42
0.0032	0.456	1359	41
0.049	0.4368	1376	16
0.0968	0.3772	1368	14
0.1566	0.2791	1324	13
0.231	0.1848	1319	12
0.3088	0.1273	1308	21
0.3723	0.084	1336	32
0.4445	0.0548	1377	26
0.4656	0.055	1408	53
0.5233	0.0611	1593	70
0.5582	0.1157	1645	36
0.5561	0.2282	1688	25
0.5499	0.3074	1711	29
0.5408	0.3541	1759	23
0.5708	0.3162	1817	110
0.6094	0.3016	1801	38
0.6151	0.3849	1832	22

System: hydrogen potassium sulfate + sulfuric acid + water; phases: Liquid, Crystal
Fixed: Pressure, kPa = 100
Fixed: Temperature, K = 313.15
Property: Mass fraction of hydrogen potassium sulfate (Liquid); method: spectrometry and titration
Mass fraction of sulfuric acid	Mass fraction of hydrogen potassium sulfate	uncertainty
0	0.4722	0.0189
0.0032	0.456	0.0183
0.049	0.4368	0.0176
0.0968	0.3772	0.0161
0.1566	0.2791	0.0143
0.231	0.1848	0.0118
0.3088	0.1273	0.0102
0.3723	0.084	0.0086
0.4445	0.0548	0.0063
0.4656	0.055	0.0027
0.5233	0.0611	0.0611
0.5582	0.1157	0.1157
0.5561	0.2282	0.2282
0.5499	0.3074	0.1764
0.5408	0.3541	0.2225

System: hydrogen potassium sulfate + sulfuric acid + water; phases: Liquid, Crystal of intercomponent compound 1
Fixed: Pressure, kPa = 100
Fixed: Temperature, K = 313.15
Property: Mass fraction of hydrogen potassium sulfate (Liquid); method: spectrometry and titration
Mass fraction of sulfuric acid	Mass fraction of hydrogen potassium sulfate	uncertainty
0.5708	0.3162	0.0153
0.6094	0.3016	0.3016
0.6151	0.3849	0.3599

System: hydrogen potassium sulfate + water; phases: Liquid
Property: Mass density, kg/m3 (Liquid); method: Pycnometric method
Mass fraction of hydrogen potassium sulfate	Pressure, kPa	Temperature, K	Mass density, kg/m3	uncertainty
0.4722	100	313.15	1391	4

System: hydrogen potassium sulfate + water; phases: Liquid, Crystal
Property: Mass fraction of hydrogen potassium sulfate (Liquid); method: spectrometry and titration
Pressure, kPa	Temperature, K	Mass fraction of hydrogen potassium sulfate	uncertainty
100	313.15	0.4722	0.0189

System: hydrogen potassium sulfate + sulfuric acid; phases: Liquid
Property: Mass density, kg/m3 (Liquid); method: Pycnometric method
Mass fraction of sulfuric acid	Pressure, kPa	Temperature, K	Mass density, kg/m3	uncertainty
0.6151	100	313.15	1832	6

System: hydrogen potassium sulfate + sulfuric acid; phases: Liquid, Crystal of intercomponent compound 1
Property: Mass fraction of hydrogen potassium sulfate (Liquid); method: spectrometry and titration
Pressure, kPa	Temperature, K	Mass fraction of hydrogen potassium sulfate	uncertainty
100	313.15	0.3849	0.0154
