Measured thermophysical data. Solubility of the Proteinogenic a-Amino Acids in Water, Ethanol, and Ethanol-Water Mixtures
Source: J. Chem. Eng. Data, 2018, 10.1021/acs.jced.7b00486
Compound 1: water, H2O, InChI=1S/H2O/h1H2, purity 99.8%
Compound 2: ethanol, C2H6O, InChI=1S/C2H6O/c1-2-3/h3H,2H2,1H3, purity 99%
Compound 3: 2-aminoacetic acid, C2H5NO2, InChI=1S/C2H5NO2/c3-1-2(4)5/h1,3H2,(H,4,5), purity 99.5%
Compound 4: (S)-2-aminopropanoic acid, C3H7NO2, InChI=1S/C3H7NO2/c1-2(4)3(5)6/h2H,4H2,1H3,(H,5,6)/t2-/m0/s1, purity 98%
Compound 5: L-arginine, C6H14N4O2, InChI=1S/C6H14N4O2/c7-4(5(11)12)2-1-3-10-6(8)9/h4H,1-3,7H2,(H,11,12)(H4,8,9,10)/t4-/m0/s1, purity 98%
Compound 6: L-aminosuccinic acid, C4H7NO4, InChI=1S/C4H7NO4/c5-2(4(8)9)1-3(6)7/h2H,1,5H2,(H,6,7)(H,8,9)/t2-/m0/s1, purity 99%
Compound 7: (R)-2-amino-3-mercaptopropanoic acid, C3H7NO2S, InChI=1S/C3H7NO2S/c4-2(1-7)3(5)6/h2,7H,1,4H2,(H,5,6)/t2-/m0/s1, purity 97%
Compound 8: L-glutamic acid, C5H9NO4, InChI=1S/C5H9NO4/c6-3(5(9)10)1-2-4(7)8/h3H,1-2,6H2,(H,7,8)(H,9,10)/t3-/m0/s1, purity 99%
Compound 9: L-glutamine, C5H10N2O3, InChI=1S/C5H10N2O3/c6-3(5(9)10)1-2-4(7)8/h3H,1-2,6H2,(H2,7,8)(H,9,10)/t3-/m0/s1, purity 99%
Compound 10: L-histidine, C6H9N3O2, InChI=1S/C6H9N3O2/c7-5(6(10)11)1-4-2-8-3-9-4/h2-3,5H,1,7H2,(H,8,9)(H,10,11)/t5-/m0/s1, purity 99%
Compound 11: L-leucine, C6H13NO2, InChI=1S/C6H13NO2/c1-4(2)3-5(7)6(8)9/h4-5H,3,7H2,1-2H3,(H,8,9)/t5-/m0/s1, purity 99.5%
Compound 12: L-lysine, C6H14N2O2, InChI=1S/C6H14N2O2/c7-4-2-1-3-5(8)6(9)10/h5H,1-4,7-8H2,(H,9,10)/t5-/m0/s1, purity 97%
Compound 13: L-methionine, C5H11NO2S, InChI=1S/C5H11NO2S/c1-9-3-2-4(6)5(7)8/h4H,2-3,6H2,1H3,(H,7,8)/t4-/m0/s1, purity 98%
Compound 14: L-phenylalanine, C9H11NO2, InChI=1S/C9H11NO2/c10-8(9(11)12)6-7-4-2-1-3-5-7/h1-5,8H,6,10H2,(H,11,12)/t8-/m0/s1, purity 98%
Compound 15: L-proline, C5H9NO2, InChI=1S/C5H9NO2/c7-5(8)4-2-1-3-6-4/h4,6H,1-3H2,(H,7,8)/t4-/m0/s1, purity 99%
Compound 16: L-tryptophan, C11H12N2O2, InChI=1S/C11H12N2O2/c12-9(11(14)15)5-7-6-13-10-4-2-1-3-8(7)10/h1-4,6,9,13H,5,12H2,(H,14,15)/t9-/m0/s1, purity 98%
Compound 17: 3-(p-hydroxyphenyl)-L-alanine, C9H11NO3, InChI=1S/C9H11NO3/c10-8(9(12)13)5-6-1-3-7(11)4-2-6/h1-4,8,11H,5,10H2,(H,12,13)/t8-/m0/s1, purity 98%
Compound 18: L-asparagine, C4H8N2O3, InChI=1S/C4H8N2O3/c5-2(4(8)9)1-3(6)7/h2H,1,5H2,(H2,6,7)(H,8,9)/t2-/m0/s1

System: water + ethanol + 2-aminoacetic acid; phases: Liquid, Crystal
Property: Mole fraction of 2-aminoacetic acid (Liquid); method: Chromatography
Solvent: Mole fraction of ethanol	Temperature, K	Pressure, kPa	Mole fraction of 2-aminoacetic acid	uncertainty
1	298.15	100	4.6e-05	1.4e-05

System: water + ethanol + (S)-2-aminopropanoic acid; phases: Liquid, Crystal
Fixed: Temperature, K = 298.15
Fixed: Pressure, kPa = 100
Property: Mole fraction of (S)-2-aminopropanoic acid (Liquid); method: Chromatography
Solvent: Mole fraction of ethanol	Mole fraction of (S)-2-aminopropanoic acid	uncertainty
0.0891	0.013635	0.004091
0.2068	0.007857	0.002357
0.3697	0.004204	0.001261
0.61	0.001013	0.000304
1	0.000282	8.5e-05

System: water + ethanol + L-arginine; phases: Liquid, Crystal
Fixed: Temperature, K = 298.15
Fixed: Pressure, kPa = 100
Property: Mole fraction of L-arginine (Liquid); method: gravimetric
Solvent: Mole fraction of ethanol	Mole fraction of L-arginine	uncertainty
0	0.018614	0.005584
0.1153	0.013238	0.003971
0.2811	0.006303	0.001891
0.5398	0.001292	0.000388
1	0.000143	4.3e-05

System: water + ethanol + L-aminosuccinic acid; phases: Liquid, Crystal
Property: Mole fraction of L-aminosuccinic acid (Liquid); method: Chromatography
Solvent: Mole fraction of ethanol	Temperature, K	Pressure, kPa	Mole fraction of L-aminosuccinic acid	uncertainty
1	298.15	100	2e-06	1e-06

System: water + ethanol + (R)-2-amino-3-mercaptopropanoic acid; phases: Liquid, Crystal
Fixed: Temperature, K = 298.15
Fixed: Pressure, kPa = 100
Property: Mole fraction of (R)-2-amino-3-mercaptopropanoic acid (Liquid); method: gravimetric
Solvent: Mole fraction of ethanol	Mole fraction of (R)-2-amino-3-mercaptopropanoic acid	uncertainty
0	0.012992	0.003898
0.1153	0.004652	0.001396
0.2811	0.002546	0.000764
0.5398	0.001318	0.000395
1	0.000113	3.4e-05

System: water + ethanol + L-glutamic acid; phases: Liquid, Crystal
Fixed: Temperature, K = 298.15
Fixed: Pressure, kPa = 100
Property: Mole fraction of L-glutamic acid (Liquid); method: Chromatography
Solvent: Mole fraction of ethanol	Mole fraction of L-glutamic acid	uncertainty
0	0.001	0.0003
0.0891	0.000434	0.00013
0.2068	0.000273	8.2e-05
0.3697	0.000225	6.8e-05
0.61	0.000183	5.5e-05
1	9e-06	3e-06

System: water + ethanol + L-glutamine; phases: Liquid, Crystal
Property: Mole fraction of L-glutamine (Liquid); method: Chromatography
Solvent: Mole fraction of ethanol	Temperature, K	Pressure, kPa	Mole fraction of L-glutamine	uncertainty
1	298.15	100	1e-06	1e-06

System: water + ethanol + L-histidine; phases: Liquid, Crystal
Property: Mole fraction of L-histidine (Liquid); method: Chromatography
Solvent: Mole fraction of ethanol	Temperature, K	Pressure, kPa	Mole fraction of L-histidine	uncertainty
1	298.15	100	4e-06	1e-06

System: water + ethanol + L-leucine; phases: Liquid, Crystal
Property: Mole fraction of L-leucine (Liquid); method: Chromatography
Solvent: Mole fraction of ethanol	Temperature, K	Pressure, kPa	Mole fraction of L-leucine	uncertainty
1	298.15	100	9.5e-05	2.9e-05

System: water + ethanol + L-lysine; phases: Liquid, Crystal
Fixed: Temperature, K = 298.15
Fixed: Pressure, kPa = 100
Property: Mole fraction of L-lysine (Liquid); method: gravimetric
Solvent: Mole fraction of ethanol	Mole fraction of L-lysine	uncertainty
0.1153	0.146733	0.044021
0.2811	0.050789	0.015237
0.5398	0.024035	0.007211
1	0.00618	0.001854

System: water + ethanol + L-methionine; phases: Liquid, Crystal
Fixed: Temperature, K = 298.15
Fixed: Pressure, kPa = 100
Property: Mole fraction of L-methionine (Liquid); method: gravimetric
Solvent: Mole fraction of ethanol	Mole fraction of L-methionine	uncertainty
0	0.006768	0.00203
0.1153	0.003135	0.000941
0.2811	0.002014	0.000604
0.5398	0.000859	0.000258
1	5.7e-05	1.7e-05

System: water + ethanol + L-phenylalanine; phases: Liquid, Crystal
Fixed: Temperature, K = 298.15
Fixed: Pressure, kPa = 100
Property: Mole fraction of L-phenylalanine (Liquid); method: gravimetric
Solvent: Mole fraction of ethanol	Mole fraction of L-phenylalanine	uncertainty
0.1153	0.001994	0.000598
0.2811	0.001994	0.000598
0.5398	0.001478	0.000443
1	0.000118	3.5e-05

System: water + ethanol + L-proline; phases: Liquid, Crystal
Fixed: Temperature, K = 298.15
Fixed: Pressure, kPa = 100
Property: Mole fraction of L-proline (Liquid); method: gravimetric
Solvent: Mole fraction of ethanol	Mole fraction of L-proline	uncertainty
0.1153	0.216583	0.064977
0.2811	0.155698	0.046711
0.5398	0.139836	0.041952
1	0.005176	0.001553

System: water + ethanol + L-tryptophan; phases: Liquid, Crystal
Fixed: Temperature, K = 298.15
Fixed: Pressure, kPa = 100
Property: Mole fraction of L-tryptophan (Liquid); method: gravimetric
Solvent: Mole fraction of ethanol	Mole fraction of L-tryptophan	uncertainty
0	0.001034	0.00031
0.1153	0.001047	0.000314
0.2811	0.001691	0.000507
0.5398	0.00125	0.000375
1	0.000243	7.3e-05

System: water + ethanol + 3-(p-hydroxyphenyl)-L-alanine; phases: Liquid, Crystal
Fixed: Temperature, K = 298.15
Fixed: Pressure, kPa = 100
Property: Mole fraction of 3-(p-hydroxyphenyl)-L-alanine (Liquid); method: gravimetric
Solvent: Mole fraction of ethanol	Mole fraction of 3-(p-hydroxyphenyl)-L-alanine	uncertainty
0	3.5e-05	1.1e-05
0.1153	3.1e-05	9e-06
0.2811	1.5e-05	5e-06
0.5398	2e-05	6e-06
1	3.1e-05	9e-06

System: water + ethanol + L-asparagine; phases: Liquid, Crystal
Property: Mole fraction of L-asparagine (Liquid); method: Chromatography
Solvent: Mole fraction of ethanol	Temperature, K	Pressure, kPa	Mole fraction of L-asparagine	uncertainty
1	298.15	100	2e-06	1e-06

System: ethanol + 2-aminoacetic acid; phases: Liquid, Crystal
Property: Mole fraction of 2-aminoacetic acid (Liquid); method: Chromatography
Temperature, K	Pressure, kPa	Mole fraction of 2-aminoacetic acid	uncertainty
298.15	100	4.6e-05	1.4e-05

System: ethanol + (S)-2-aminopropanoic acid; phases: Liquid, Crystal
Property: Mole fraction of (S)-2-aminopropanoic acid (Liquid); method: Chromatography
Temperature, K	Pressure, kPa	Mole fraction of (S)-2-aminopropanoic acid	uncertainty
298.15	100	0.000282	8.5e-05

System: water + L-arginine; phases: Liquid, Crystal
Property: Mole fraction of L-arginine (Liquid); method: gravimetric
Temperature, K	Pressure, kPa	Mole fraction of L-arginine	uncertainty
298.15	100	0.018614	0.005584

System: ethanol + L-arginine; phases: Liquid, Crystal
Property: Mole fraction of L-arginine (Liquid); method: gravimetric
Temperature, K	Pressure, kPa	Mole fraction of L-arginine	uncertainty
298.15	100	0.000143	4.3e-05

System: ethanol + L-aminosuccinic acid; phases: Liquid, Crystal
Property: Mole fraction of L-aminosuccinic acid (Liquid); method: Chromatography
Temperature, K	Pressure, kPa	Mole fraction of L-aminosuccinic acid	uncertainty
298.15	100	2e-06	1e-06

System: water + (R)-2-amino-3-mercaptopropanoic acid; phases: Liquid, Crystal
Property: Mole fraction of (R)-2-amino-3-mercaptopropanoic acid (Liquid); method: gravimetric
Temperature, K	Pressure, kPa	Mole fraction of (R)-2-amino-3-mercaptopropanoic acid	uncertainty
298.15	100	0.012992	0.003898

System: ethanol + (R)-2-amino-3-mercaptopropanoic acid; phases: Liquid, Crystal
Property: Mole fraction of (R)-2-amino-3-mercaptopropanoic acid (Liquid); method: gravimetric
Temperature, K	Pressure, kPa	Mole fraction of (R)-2-amino-3-mercaptopropanoic acid	uncertainty
298.15	100	0.000113	3.4e-05

System: water + L-glutamic acid; phases: Liquid, Crystal
Property: Mole fraction of L-glutamic acid (Liquid); method: Chromatography
Temperature, K	Pressure, kPa	Mole fraction of L-glutamic acid	uncertainty
298.15	100	0.001	0.0003

System: ethanol + L-glutamic acid; phases: Liquid, Crystal
Property: Mole fraction of L-glutamic acid (Liquid); method: Chromatography
Temperature, K	Pressure, kPa	Mole fraction of L-glutamic acid	uncertainty
298.15	100	9e-06	3e-06

System: ethanol + L-glutamine; phases: Liquid, Crystal
Property: Mole fraction of L-glutamine (Liquid); method: Chromatography
Temperature, K	Pressure, kPa	Mole fraction of L-glutamine	uncertainty
298.15	100	1e-06	1e-06

System: ethanol + L-histidine; phases: Liquid, Crystal
Property: Mole fraction of L-histidine (Liquid); method: Chromatography
Temperature, K	Pressure, kPa	Mole fraction of L-histidine	uncertainty
298.15	100	4e-06	1e-06

System: ethanol + L-leucine; phases: Liquid, Crystal
Property: Mole fraction of L-leucine (Liquid); method: Chromatography
Temperature, K	Pressure, kPa	Mole fraction of L-leucine	uncertainty
298.15	100	9.5e-05	2.9e-05

System: ethanol + L-lysine; phases: Liquid, Crystal
Property: Mole fraction of L-lysine (Liquid); method: gravimetric
Temperature, K	Pressure, kPa	Mole fraction of L-lysine	uncertainty
298.15	100	0.00618	0.001854

System: water + L-methionine; phases: Liquid, Crystal
Property: Mole fraction of L-methionine (Liquid); method: gravimetric
Temperature, K	Pressure, kPa	Mole fraction of L-methionine	uncertainty
298.15	100	0.006768	0.00203

System: ethanol + L-methionine; phases: Liquid, Crystal
Property: Mole fraction of L-methionine (Liquid); method: gravimetric
Temperature, K	Pressure, kPa	Mole fraction of L-methionine	uncertainty
298.15	100	5.7e-05	1.7e-05

System: ethanol + L-phenylalanine; phases: Liquid, Crystal
Property: Mole fraction of L-phenylalanine (Liquid); method: gravimetric
Temperature, K	Pressure, kPa	Mole fraction of L-phenylalanine	uncertainty
298.15	100	0.000118	3.5e-05

System: ethanol + L-proline; phases: Liquid, Crystal
Property: Mole fraction of L-proline (Liquid); method: gravimetric
Temperature, K	Pressure, kPa	Mole fraction of L-proline	uncertainty
298.15	100	0.005176	0.001553

System: water + L-tryptophan; phases: Liquid, Crystal
Property: Mole fraction of L-tryptophan (Liquid); method: gravimetric
Temperature, K	Pressure, kPa	Mole fraction of L-tryptophan	uncertainty
298.15	100	0.001034	0.00031

System: ethanol + L-tryptophan; phases: Liquid, Crystal
Property: Mole fraction of L-tryptophan (Liquid); method: gravimetric
Temperature, K	Pressure, kPa	Mole fraction of L-tryptophan	uncertainty
298.15	100	0.000243	7.3e-05

System: water + 3-(p-hydroxyphenyl)-L-alanine; phases: Liquid, Crystal
Property: Mole fraction of 3-(p-hydroxyphenyl)-L-alanine (Liquid); method: gravimetric
Temperature, K	Pressure, kPa	Mole fraction of 3-(p-hydroxyphenyl)-L-alanine	uncertainty
298.15	100	3.5e-05	1.1e-05

System: ethanol + 3-(p-hydroxyphenyl)-L-alanine; phases: Liquid, Crystal
Property: Mole fraction of 3-(p-hydroxyphenyl)-L-alanine (Liquid); method: gravimetric
Temperature, K	Pressure, kPa	Mole fraction of 3-(p-hydroxyphenyl)-L-alanine	uncertainty
298.15	100	3.1e-05	9e-06

System: ethanol + L-asparagine; phases: Liquid, Crystal
Fixed: Temperature, K = 298.15
Fixed: Pressure, kPa = 100
Property: Mole fraction of L-asparagine (Liquid); method: Chromatography
Mole fraction of L-asparagine	uncertainty
1.706e-06	1.67e-07
2e-06	1e-06
