Measured thermophysical data. Densities and Viscosities for Binary Liquid Mixtures of Butan-1-ol + Propane-1,2-diol, + Butane-1,2-diol and 2-Methylpropan-1-ol + Propane-1,2-diol, + Butane-1,2-diol from 298.15 to 333.15 K at 0.1 MPa
Source: J. Chem. Eng. Data, 2017, 10.1021/acs.jced.7b00621
Compound 1: butan-1-ol, C4H10O, InChI=1S/C4H10O/c1-2-3-4-5/h5H,2-4H2,1H3, purity 99.5%
Compound 2: 2-methyl-1-propanol, C4H10O, InChI=1S/C4H10O/c1-4(2)3-5/h4-5H,3H2,1-2H3, purity 99%
Compound 3: 1,2-propanediol, C3H8O2, InChI=1S/C3H8O2/c1-3(5)2-4/h3-5H,2H2,1H3, purity 99.5%
Compound 4: 1,2-butanediol, C4H10O2, InChI=1S/C4H10O2/c1-2-4(6)3-5/h4-6H,2-3H2,1H3, purity 99.6%

System: butan-1-ol; phases: Liquid
Fixed: Pressure, kPa = 100
Property: Mass density, kg/m3 (Liquid); method: Vibrating tube method
Temperature, K	Mass density, kg/m3	uncertainty
298.15	805.98	1.62
303.15	802.16	1.61
308.15	798.28	1.6
313.15	794.37	1.59
318.15	790.42	1.59
323.15	786.41	1.58
328.15	782.25	1.57
333.15	778.09	1.56

System: butan-1-ol; phases: Liquid
Fixed: Pressure, kPa = 100
Property: Viscosity, Pa*s (Liquid); method: Capillary tube (Ostwald; Ubbelohde) method
Temperature, K	Viscosity, Pa*s	uncertainty
298.15	0.002545	5.3e-05
303.15	0.002246	4.7e-05
308.15	0.001986	4.1e-05
313.15	0.00176	3.7e-05
318.15	0.001569	3.3e-05
323.15	0.001405	2.9e-05
328.15	0.001258	2.6e-05
333.15	0.001128	2.4e-05

System: 2-methyl-1-propanol; phases: Liquid
Fixed: Pressure, kPa = 100
Property: Mass density, kg/m3 (Liquid); method: Vibrating tube method
Temperature, K	Mass density, kg/m3	uncertainty
298.15	798.32	1.61
303.15	794.43	1.6
308.15	790.49	1.6
313.15	786.48	1.59
318.15	782.42	1.58
323.15	778.3	1.57
328.15	774.09	1.56
333.15	769.81	1.55

System: 2-methyl-1-propanol; phases: Liquid
Fixed: Pressure, kPa = 100
Property: Viscosity, Pa*s (Liquid); method: Capillary tube (Ostwald; Ubbelohde) method
Temperature, K	Viscosity, Pa*s	uncertainty
298.15	0.003453	7.4e-05
303.15	0.002938	6.3e-05
308.15	0.002487	5.3e-05
313.15	0.002174	4.6e-05
318.15	0.001874	4e-05
323.15	0.001618	3.5e-05
328.15	0.001418	3e-05
333.15	0.001247	2.7e-05

System: 1,2-propanediol; phases: Liquid
Fixed: Pressure, kPa = 100
Property: Mass density, kg/m3 (Liquid); method: Vibrating tube method
Temperature, K	Mass density, kg/m3	uncertainty
298.15	1032.58	2.07
303.15	1028.88	2.06
308.15	1025.13	2.05
313.15	1021.35	2.04
318.15	1017.52	2.04
323.15	1013.66	2.03
328.15	1009.75	2.02
333.15	1005.8	2.01

System: 1,2-propanediol; phases: Liquid
Fixed: Pressure, kPa = 100
Property: Viscosity, Pa*s (Liquid); method: Capillary tube (Ostwald; Ubbelohde) method
Temperature, K	Viscosity, Pa*s	uncertainty
298.15	0.043661	0.000904
303.15	0.033064	0.000687
308.15	0.025306	0.000525
313.15	0.019746	0.00041
318.15	0.015594	0.000323
323.15	0.012529	0.00026
328.15	0.010186	0.000211
333.15	0.008402	0.000175

System: 1,2-butanediol; phases: Liquid
Fixed: Pressure, kPa = 100
Property: Mass density, kg/m3 (Liquid); method: Vibrating tube method
Temperature, K	Mass density, kg/m3	uncertainty
298.15	998.8	2
303.15	995.05	1.99
308.15	991.27	1.98
313.15	987.45	1.98
318.15	983.59	1.97
323.15	979.7	1.96
328.15	975.77	1.95
333.15	971.8	1.94

System: 1,2-butanediol; phases: Liquid
Fixed: Pressure, kPa = 100
Property: Viscosity, Pa*s (Liquid); method: Capillary tube (Ostwald; Ubbelohde) method
Temperature, K	Viscosity, Pa*s	uncertainty
298.15	0.051627	0.001052
303.15	0.03766	0.000782
308.15	0.028445	0.00059
313.15	0.021586	0.000447
318.15	0.016745	0.000347
323.15	0.013222	0.000274
328.15	0.010632	0.00022
333.15	0.00865	0.000179

System: butan-1-ol + 1,2-propanediol; phases: Liquid
Fixed: Pressure, kPa = 100
Property: Mass density, kg/m3 (Liquid); method: Vibrating tube method
Temperature, K	Mole fraction of butan-1-ol	Mass density, kg/m3	uncertainty
298.15	0	1032.58	2.07
298.15	0.1	1005.37	2.28
298.15	0.2	979.32	2.21
298.15	0.302	954.25	2.14
298.15	0.4	930.73	2.09
298.15	0.5	907.9	2.03
298.15	0.6	885.78	1.97
298.15	0.701	864.61	1.92
298.15	0.801	844.35	1.87
298.15	0.9	824.74	1.82
298.15	1	805.98	1.62
303.15	0	1028.88	2.06
303.15	0.1	1001.62	2.27
303.15	0.2	975.52	2.2
303.15	0.302	950.41	2.14
303.15	0.4	926.87	2.08
303.15	0.5	903.99	2.02
303.15	0.6	881.91	1.97
303.15	0.701	860.73	1.91
303.15	0.801	840.51	1.87
303.15	0.9	820.93	1.82
303.15	1	802.16	1.61
308.15	0	1025.13	2.05
308.15	0.1	997.78	2.27
308.15	0.2	971.66	2.19
308.15	0.302	946.5	2.13
308.15	0.4	922.93	2.07
308.15	0.5	899.99	2.01
308.15	0.6	877.97	1.96
308.15	0.701	856.75	1.9
308.15	0.801	836.56	1.86
308.15	0.9	816.99	1.81
308.15	1	798.28	1.6
313.15	0	1021.35	2.04
313.15	0.1	993.93	2.26
313.15	0.2	967.77	2.19
313.15	0.302	942.56	2.12
313.15	0.4	918.96	2.07
313.15	0.5	896.01	2.01
313.15	0.6	874.01	1.95
313.15	0.701	852.79	1.9
313.15	0.801	832.56	1.85
313.15	0.9	813.05	1.8
313.15	1	794.37	1.59
318.15	0	1017.52	2.04
318.15	0.1	990.03	2.25
318.15	0.2	963.84	2.18
318.15	0.302	938.59	2.12
318.15	0.4	914.98	2.06
318.15	0.501	892.01	2
318.15	0.601	870	1.95
318.15	0.701	848.79	1.89
318.15	0.801	828.56	1.84
318.15	0.901	809.07	1.8
318.15	1	790.42	1.59
323.15	0	1013.66	2.03
323.15	0.1	986.08	2.25
323.15	0.2	959.86	2.18
323.15	0.302	934.57	2.11
323.15	0.4	910.92	2.05
323.15	0.501	887.97	2
323.15	0.601	865.46	1.94
323.15	0.701	844.71	1.88
323.15	0.801	824.51	1.83
323.15	0.901	805.01	1.79
323.15	1	786.41	1.58
328.15	0	1009.75	2.02
328.15	0.1	982.02	2.24
328.15	0.2	955.77	2.17
328.15	0.302	930.41	2.11
328.15	0.4	906.71	2.04
328.15	0.501	883.73	1.99
328.15	0.601	861.6	1.93
328.15	0.701	840.44	1.88
328.15	0.801	820.21	1.83
328.15	0.901	800.82	1.78
328.15	1	782.25	1.57
333.15	0	1005.8	2.01
333.15	0.1	977.97	2.24
333.15	0.2	951.65	2.16
333.15	0.302	926.23	2.1
333.15	0.4	902.52	2.04
333.15	0.501	879.52	1.98
333.15	0.601	857.37	1.92
333.15	0.701	836.2	1.87
333.15	0.801	815.97	1.82
333.15	0.901	796.62	1.77
333.15	1	778.09	1.56

System: butan-1-ol + 1,2-propanediol; phases: Liquid
Fixed: Pressure, kPa = 100
Property: Viscosity, Pa*s (Liquid); method: Capillary tube (Ostwald; Ubbelohde) method
Temperature, K	Mole fraction of butan-1-ol	Viscosity, Pa*s	uncertainty
298.15	0	0.043661	0.000904
298.15	0.1	0.027933	0.000755
298.15	0.2	0.019655	0.000491
298.15	0.302	0.014178	0.000343
298.15	0.4	0.01082	0.000257
298.15	0.5	0.008015	0.000192
298.15	0.6	0.006068	0.000141
298.15	0.701	0.004884	0.000111
298.15	0.801	0.003858	8.8e-05
298.15	0.9	0.003102	7e-05
298.15	1	0.002545	5.3e-05
303.15	0	0.033064	0.000687
303.15	0.1	0.021566	0.000569
303.15	0.2	0.015464	0.000379
303.15	0.302	0.011358	0.000271
303.15	0.4	0.008829	0.000207
303.15	0.5	0.006634	0.000157
303.15	0.6	0.005094	0.000117
303.15	0.701	0.004156	9.4e-05
303.15	0.801	0.003307	7.5e-05
303.15	0.9	0.002716	6.1e-05
303.15	1	0.002246	4.7e-05
308.15	0	0.025306	0.000525
308.15	0.1	0.016859	0.000436
308.15	0.2	0.012283	0.000297
308.15	0.302	0.009188	0.000215
308.15	0.4	0.007309	0.000169
308.15	0.5	0.005555	0.00013
308.15	0.6	0.004337	9.9e-05
308.15	0.701	0.003556	8e-05
308.15	0.801	0.002885	6.5e-05
308.15	0.9	0.002374	5.3e-05
308.15	1	0.001986	4.1e-05
313.15	0	0.019746	0.00041
313.15	0.1	0.013379	0.00034
313.15	0.2	0.009943	0.000236
313.15	0.302	0.007539	0.000175
313.15	0.4	0.006057	0.000139
313.15	0.5	0.004699	0.000109
313.15	0.6	0.003686	8.4e-05
313.15	0.701	0.003057	6.8e-05
313.15	0.801	0.002514	5.6e-05
313.15	0.9	0.002078	4.6e-05
313.15	1	0.00176	3.7e-05
318.15	0	0.015594	0.000323
318.15	0.1	0.010787	0.000269
318.15	0.2	0.00814	0.000191
318.15	0.302	0.00625	0.000144
318.15	0.4	0.005107	0.000116
318.15	0.501	0.003987	9.2e-05
318.15	0.601	0.003178	7.1e-05
318.15	0.701	0.002659	5.9e-05
318.15	0.801	0.002199	4.9e-05
318.15	0.901	0.001833	4e-05
318.15	1	0.001569	3.3e-05
323.15	0	0.012529	0.00026
323.15	0.1	0.008811	0.000217
323.15	0.2	0.006729	0.000157
323.15	0.302	0.005239	0.000119
323.15	0.4	0.004328	9.7e-05
323.15	0.501	0.003422	7.8e-05
323.15	0.601	0.002743	6.1e-05
323.15	0.701	0.002317	5.1e-05
323.15	0.801	0.001937	4.3e-05
323.15	0.901	0.001634	3.6e-05
323.15	1	0.001405	2.9e-05
328.15	0	0.010186	0.000211
328.15	0.1	0.007276	0.000177
328.15	0.2	0.005625	0.00013
328.15	0.302	0.004444	0.0001
328.15	0.4	0.003713	8.3e-05
328.15	0.501	0.002959	6.7e-05
328.15	0.601	0.002392	5.3e-05
328.15	0.701	0.002039	4.5e-05
328.15	0.801	0.001707	3.7e-05
328.15	0.901	0.001462	3.2e-05
328.15	1	0.001258	2.6e-05
333.15	0	0.008402	0.000175
333.15	0.1	0.006043	0.000145
333.15	0.2	0.004749	0.000109
333.15	0.302	0.003783	8.5e-05
333.15	0.4	0.003186	7.1e-05
333.15	0.501	0.002565	5.8e-05
333.15	0.601	0.002098	4.6e-05
333.15	0.701	0.001802	3.9e-05
333.15	0.801	0.001521	3.3e-05
333.15	0.901	0.001307	2.8e-05
333.15	1	0.001128	2.4e-05

System: butan-1-ol + 1,2-butanediol; phases: Liquid
Fixed: Pressure, kPa = 100
Property: Mass density, kg/m3 (Liquid); method: Vibrating tube method
Temperature, K	Mole fraction of butan-1-ol	Mass density, kg/m3	uncertainty
298.15	0	998.8	2
298.15	0.101	979.44	2.11
298.15	0.2	960.19	2.07
298.15	0.302	940.68	2.04
298.15	0.4	921.59	2
298.15	0.5	902.22	1.97
298.15	0.601	882.69	1.93
298.15	0.701	863.5	1.89
298.15	0.801	844.25	1.86
298.15	0.901	825.01	1.82
298.15	1	805.98	1.62
303.15	0	995.05	1.99
303.15	0.101	975.65	2.1
303.15	0.2	956.38	2.06
303.15	0.302	936.79	2.03
303.15	0.4	917.69	2
303.15	0.5	898.32	1.96
303.15	0.601	878.77	1.92
303.15	0.701	859.58	1.89
303.15	0.801	840.34	1.85
303.15	0.901	821.13	1.82
303.15	1	802.16	1.61
308.15	0	991.27	1.98
308.15	0.101	971.84	2.09
308.15	0.2	952.53	2.06
308.15	0.302	932.92	2.02
308.15	0.4	913.81	1.99
308.15	0.5	894.41	1.95
308.15	0.601	874.86	1.91
308.15	0.701	855.68	1.88
308.15	0.801	836.43	1.84
308.15	0.901	817.23	1.81
308.15	1	798.28	1.6
313.15	0	987.45	1.98
313.15	0.101	967.99	2.09
313.15	0.2	948.64	2.05
313.15	0.302	929.01	2.01
313.15	0.4	909.88	1.98
313.15	0.5	890.47	1.94
313.15	0.601	870.92	1.91
313.15	0.701	851.74	1.87
313.15	0.801	832.49	1.84
313.15	0.901	813.3	1.8
313.15	1	794.37	1.59
318.15	0	983.59	1.97
318.15	0.101	964.09	2.08
318.15	0.2	944.71	2.04
318.15	0.302	925.06	2.01
318.15	0.4	905.91	1.97
318.15	0.501	886.49	1.94
318.15	0.601	866.94	1.9
318.15	0.701	847.75	1.87
318.15	0.801	828.5	1.83
318.15	0.901	809.32	1.79
318.15	1	790.42	1.59
323.15	0	979.7	1.96
323.15	0.101	960.16	2.07
323.15	0.2	940.75	2.04
323.15	0.302	921.05	2
323.15	0.4	901.9	1.97
323.15	0.501	882.46	1.93
323.15	0.601	862.9	1.89
323.15	0.701	843.71	1.86
323.15	0.801	824.47	1.82
323.15	0.901	805.29	1.79
323.15	1	786.41	1.58
328.15	0	975.77	1.95
328.15	0.101	956.16	2.07
328.15	0.2	936.69	2.03
328.15	0.302	917	1.99
328.15	0.4	897.8	1.96
328.15	0.501	878.33	1.92
328.15	0.601	858.75	1.89
328.15	0.701	839.54	1.85
328.15	0.801	820.3	1.82
328.15	0.901	801.12	1.78
328.15	1	782.25	1.57
333.15	0	971.8	1.94
333.15	0.101	952.13	2.06
333.15	0.2	932.62	2.02
333.15	0.302	912.94	1.99
333.15	0.4	893.67	1.95
333.15	0.501	874.18	1.92
333.15	0.601	854.58	1.88
333.15	0.701	835.36	1.84
333.15	0.801	816.11	1.81
333.15	0.901	796.94	1.77
333.15	1	778.09	1.56

System: butan-1-ol + 1,2-butanediol; phases: Liquid
Fixed: Pressure, kPa = 100
Property: Viscosity, Pa*s (Liquid); method: Capillary tube (Ostwald; Ubbelohde) method
Temperature, K	Mole fraction of butan-1-ol	Viscosity, Pa*s	uncertainty
298.15	0	0.051627	0.001052
298.15	0.101	0.034457	0.000913
298.15	0.2	0.02334	0.000597
298.15	0.302	0.017026	0.000417
298.15	0.4	0.012193	0.000302
298.15	0.5	0.008818	0.000214
298.15	0.601	0.006546	0.000156
298.15	0.701	0.005014	0.000116
298.15	0.801	0.003978	9.1e-05
298.15	0.901	0.003113	7.1e-05
298.15	1	0.002545	5.3e-05
303.15	0	0.03766	0.000782
303.15	0.101	0.025852	0.00067
303.15	0.2	0.017606	0.000444
303.15	0.302	0.01314	0.000311
303.15	0.4	0.010079	0.000238
303.15	0.5	0.007482	0.000179
303.15	0.601	0.005629	0.000132
303.15	0.701	0.004383	0.000101
303.15	0.801	0.003441	7.9e-05
303.15	0.901	0.002757	6.2e-05
303.15	1	0.002246	4.7e-05
308.15	0	0.028445	0.00059
308.15	0.101	0.019828	0.000504
308.15	0.2	0.013863	0.000343
308.15	0.302	0.010416	0.000244
308.15	0.4	0.008155	0.000189
308.15	0.5	0.0062	0.000146
308.15	0.601	0.004703	0.00011
308.15	0.701	0.003738	8.5e-05
308.15	0.801	0.002982	6.8e-05
308.15	0.901	0.00241	5.4e-05
308.15	1	0.001986	4.1e-05
313.15	0	0.021586	0.000447
313.15	0.101	0.015545	0.000386
313.15	0.2	0.01092	0.000267
313.15	0.302	0.008434	0.000194
313.15	0.4	0.006703	0.000154
313.15	0.5	0.005179	0.000121
313.15	0.601	0.003992	9.2e-05
313.15	0.701	0.003217	7.3e-05
313.15	0.801	0.002596	5.8e-05
313.15	0.901	0.002122	4.7e-05
313.15	1	0.00176	3.7e-05
318.15	0	0.016745	0.000347
318.15	0.101	0.012351	0.0003
318.15	0.2	0.008882	0.000213
318.15	0.302	0.006942	0.000159
318.15	0.4	0.00558	0.000127
318.15	0.501	0.004373	0.000101
318.15	0.601	0.003419	7.8e-05
318.15	0.701	0.002793	6.3e-05
318.15	0.801	0.002271	5.1e-05
318.15	0.901	0.001874	4.2e-05
318.15	1	0.001569	3.3e-05
323.15	0	0.013222	0.000274
323.15	0.101	0.009916	0.000237
323.15	0.2	0.007286	0.000172
323.15	0.302	0.005744	0.00013
323.15	0.4	0.004694	0.000106
323.15	0.501	0.003724	8.5e-05
323.15	0.601	0.002942	6.7e-05
323.15	0.701	0.002417	5.4e-05
323.15	0.801	0.001989	4.4e-05
323.15	0.901	0.00166	3.7e-05
323.15	1	0.001405	2.9e-05
328.15	0	0.010632	0.00022
328.15	0.101	0.008095	0.000192
328.15	0.2	0.006008	0.000141
328.15	0.302	0.004801	0.000108
328.15	0.4	0.003974	8.9e-05
328.15	0.501	0.003215	7.3e-05
328.15	0.601	0.00256	5.8e-05
328.15	0.701	0.002117	4.7e-05
328.15	0.801	0.00176	3.9e-05
328.15	0.901	0.001478	3.3e-05
328.15	1	0.001258	2.6e-05
333.15	0	0.00865	0.000179
333.15	0.101	0.006678	0.000156
333.15	0.2	0.005035	0.000117
333.15	0.302	0.00407	9.1e-05
333.15	0.4	0.003408	7.6e-05
333.15	0.501	0.002775	6.2e-05
333.15	0.601	0.002235	5e-05
333.15	0.701	0.001861	4.1e-05
333.15	0.801	0.00156	3.4e-05
333.15	0.901	0.001324	2.9e-05
333.15	1	0.001128	2.4e-05

System: 2-methyl-1-propanol + 1,2-propanediol; phases: Liquid
Fixed: Pressure, kPa = 100
Property: Mass density, kg/m3 (Liquid); method: Vibrating tube method
Temperature, K	Mole fraction of 2-methyl-1-propanol	Mass density, kg/m3	uncertainty
298.15	0	1032.58	2.07
298.15	0.101	1003.97	2.29
298.15	0.2	977.59	2.22
298.15	0.3	952.35	2.15
298.15	0.4	928.2	2.09
298.15	0.5	904.41	2.04
298.15	0.6	881.36	1.99
298.15	0.7	859.17	1.93
298.15	0.8	837.79	1.88
298.15	0.9	817.52	1.83
298.15	1	798.32	1.61
303.15	0	1028.88	2.06
303.15	0.101	1000.22	2.29
303.15	0.2	973.79	2.21
303.15	0.3	948.5	2.14
303.15	0.4	924.44	2.09
303.15	0.5	900.69	2.04
303.15	0.6	877.57	1.98
303.15	0.7	855.29	1.93
303.15	0.8	833.89	1.87
303.15	0.9	813.62	1.82
303.15	1	794.43	1.6
308.15	0	1025.13	2.05
308.15	0.101	996.42	2.28
308.15	0.2	969.95	2.2
308.15	0.3	944.74	2.14
308.15	0.4	920.51	2.08
308.15	0.5	896.8	2.03
308.15	0.6	873.59	1.98
308.15	0.7	851.4	1.92
308.15	0.8	830	1.87
308.15	0.9	809.68	1.81
308.15	1	790.49	1.6
313.15	0	1021.35	2.04
313.15	0.101	992.58	2.27
313.15	0.2	966.18	2.2
313.15	0.3	940.91	2.13
313.15	0.4	916.61	2.07
313.15	0.5	892.89	2.02
313.15	0.6	869.66	1.97
313.15	0.7	847.43	1.91
313.15	0.8	826.02	1.86
313.15	0.9	805.67	1.81
313.15	1	786.48	1.59
318.15	0	1017.52	2.04
318.15	0.101	988.7	2.27
318.15	0.2	962.41	2.19
318.15	0.3	936.98	2.13
318.15	0.4	912.65	2.07
318.15	0.5	888.89	2.02
318.15	0.6	865.69	1.96
318.15	0.7	843.43	1.91
318.15	0.8	821.95	1.85
318.15	0.9	801.61	1.8
318.15	1	782.42	1.58
323.15	0	1013.66	2.03
323.15	0.101	984.78	2.26
323.15	0.2	958.5	2.18
323.15	0.3	932.96	2.12
323.15	0.4	908.71	2.06
323.15	0.5	884.89	2.01
323.15	0.6	861.57	1.96
323.15	0.7	839.34	1.9
323.15	0.8	817.83	1.85
323.15	0.9	797.49	1.79
323.15	1	778.3	1.57
328.15	0	1009.75	2.02
328.15	0.101	980.81	2.25
328.15	0.2	954.58	2.18
328.15	0.3	928.99	2.11
328.15	0.4	904.55	2.06
328.15	0.5	880.7	2
328.15	0.6	857.29	1.95
328.15	0.7	835.19	1.89
328.15	0.8	813.63	1.84
328.15	0.9	793.29	1.78
328.15	1	774.09	1.56
333.15	0	1005.8	2.01
333.15	0.101	976.79	2.25
333.15	0.2	950.56	2.17
333.15	0.3	924.87	2.11
333.15	0.4	900.55	2.05
333.15	0.5	876.62	2
333.15	0.6	853.2	1.94
333.15	0.7	830.94	1.89
333.15	0.8	809.4	1.83
333.15	0.9	789.01	1.78
333.15	1	769.81	1.55

System: 2-methyl-1-propanol + 1,2-propanediol; phases: Liquid
Fixed: Pressure, kPa = 100
Property: Viscosity, Pa*s (Liquid); method: Capillary tube (Ostwald; Ubbelohde) method
Temperature, K	Mole fraction of 2-methyl-1-propanol	Viscosity, Pa*s	uncertainty
298.15	0	0.043661	0.000904
298.15	0.101	0.029945	0.000755
298.15	0.2	0.022504	0.000538
298.15	0.3	0.016763	0.0004
298.15	0.4	0.012726	0.000301
298.15	0.5	0.00974	0.000227
298.15	0.6	0.007778	0.000179
298.15	0.7	0.006056	0.000141
298.15	0.8	0.004843	0.000111
298.15	0.9	0.003968	8.9e-05
298.15	1	0.003453	7.4e-05
303.15	0	0.033064	0.000687
303.15	0.101	0.022854	0.00057
303.15	0.2	0.017382	0.00041
303.15	0.3	0.013281	0.000312
303.15	0.4	0.010207	0.000239
303.15	0.5	0.007878	0.000182
303.15	0.6	0.006366	0.000146
303.15	0.7	0.005037	0.000116
303.15	0.8	0.00408	9.3e-05
303.15	0.9	0.003366	7.5e-05
303.15	1	0.002938	6.3e-05
308.15	0	0.025306	0.000525
308.15	0.101	0.0178	0.000436
308.15	0.2	0.013786	0.000322
308.15	0.3	0.010501	0.000245
308.15	0.4	0.008284	0.000191
308.15	0.5	0.006476	0.000149
308.15	0.6	0.005284	0.00012
308.15	0.7	0.004197	9.6e-05
308.15	0.8	0.00345	7.8e-05
308.15	0.9	0.002869	6.4e-05
308.15	1	0.002487	5.3e-05
313.15	0	0.019746	0.00041
313.15	0.101	0.014117	0.000341
313.15	0.2	0.011029	0.000256
313.15	0.3	0.008532	0.000197
313.15	0.4	0.006802	0.000156
313.15	0.5	0.005362	0.000122
313.15	0.6	0.00442	0.0001
313.15	0.7	0.00354	8.1e-05
313.15	0.8	0.002939	6.6e-05
313.15	0.9	0.002471	5.5e-05
313.15	1	0.002174	4.6e-05
318.15	0	0.015594	0.000323
318.15	0.101	0.011322	0.000271
318.15	0.2	0.008884	0.000205
318.15	0.3	0.006942	0.000159
318.15	0.4	0.005599	0.000127
318.15	0.5	0.004486	0.000101
318.15	0.6	0.003744	8.4e-05
318.15	0.7	0.003013	6.8e-05
318.15	0.8	0.002533	5.7e-05
318.15	0.9	0.002129	4.7e-05
318.15	1	0.001874	4e-05
323.15	0	0.012529	0.00026
323.15	0.101	0.009291	0.00022
323.15	0.2	0.007286	0.000168
323.15	0.3	0.005767	0.000131
323.15	0.4	0.004693	0.000106
323.15	0.5	0.003766	8.5e-05
323.15	0.6	0.003185	7.1e-05
323.15	0.7	0.00259	5.8e-05
323.15	0.8	0.002192	4.9e-05
323.15	0.9	0.001846	4.1e-05
323.15	1	0.001618	3.5e-05
328.15	0	0.010186	0.000211
328.15	0.101	0.007635	0.000179
328.15	0.2	0.00608	0.000139
328.15	0.3	0.004851	0.00011
328.15	0.4	0.003979	9e-05
328.15	0.5	0.003226	7.2e-05
328.15	0.6	0.002734	6.1e-05
328.15	0.7	0.002247	5e-05
328.15	0.8	0.0019	4.2e-05
328.15	0.9	0.001644	3.6e-05
328.15	1	0.001418	3e-05
333.15	0	0.008402	0.000175
333.15	0.101	0.006345	0.000148
333.15	0.2	0.005108	0.000116
333.15	0.3	0.004118	9.3e-05
333.15	0.4	0.003391	7.6e-05
333.15	0.5	0.002789	6.2e-05
333.15	0.6	0.00237	5.3e-05
333.15	0.7	0.001958	4.4e-05
333.15	0.8	0.001667	3.7e-05
333.15	0.9	0.001429	3.2e-05
333.15	1	0.001247	2.7e-05

System: 2-methyl-1-propanol + 1,2-butanediol; phases: Liquid
Fixed: Pressure, kPa = 100
Property: Mass density, kg/m3 (Liquid); method: Vibrating tube method
Temperature, K	Mole fraction of 2-methyl-1-propanol	Mass density, kg/m3	uncertainty
298.15	0	998.8	2
298.15	0.1	982.32	2.09
298.15	0.201	962.83	2.08
298.15	0.3	942.94	2.06
298.15	0.4	922.28	2.03
298.15	0.5	901.46	1.99
298.15	0.6	881.01	1.95
298.15	0.698	860.54	1.92
298.15	0.8	839.69	1.88
298.15	0.899	819.25	1.85
298.15	1	798.32	1.61
303.15	0	995.05	1.99
303.15	0.1	978.61	2.09
303.15	0.201	959.13	2.08
303.15	0.3	939.12	2.05
303.15	0.4	918.47	2.02
303.15	0.5	897.66	1.98
303.15	0.6	877.06	1.94
303.15	0.698	856.8	1.91
303.15	0.8	835.87	1.87
303.15	0.899	815.42	1.84
303.15	1	794.43	1.6
308.15	0	991.27	1.98
308.15	0.1	974.87	2.08
308.15	0.201	955.33	2.07
308.15	0.3	935.31	2.04
308.15	0.4	914.63	2.01
308.15	0.5	893.8	1.98
308.15	0.6	873.19	1.94
308.15	0.698	853.02	1.9
308.15	0.8	831.99	1.87
308.15	0.899	811.55	1.83
308.15	1	790.49	1.6
313.15	0	987.45	1.98
313.15	0.1	971.06	2.07
313.15	0.201	951.5	2.06
313.15	0.3	931.43	2.04
313.15	0.4	910.73	2.01
313.15	0.5	889.87	1.97
313.15	0.6	869.25	1.93
313.15	0.698	848.98	1.89
313.15	0.8	828.05	1.86
313.15	0.899	807.61	1.83
313.15	1	786.48	1.59
318.15	0	983.59	1.97
318.15	0.1	967.19	2.06
318.15	0.201	947.65	2.06
318.15	0.3	927.51	2.03
318.15	0.4	906.77	2
318.15	0.5	885.9	1.96
318.15	0.6	865.26	1.92
318.15	0.698	844.98	1.89
318.15	0.8	824.05	1.85
318.15	0.899	803.62	1.82
318.15	1	782.42	1.58
323.15	0	979.7	1.96
323.15	0.1	963.35	2.06
323.15	0.201	943.69	2.05
323.15	0.3	923.54	2.02
323.15	0.4	902.79	1.99
323.15	0.5	881.88	1.95
323.15	0.6	861.31	1.92
323.15	0.698	841.03	1.88
323.15	0.8	819.99	1.85
323.15	0.899	799.57	1.81
323.15	1	778.3	1.57
328.15	0	975.77	1.95
328.15	0.1	959.34	2.05
328.15	0.201	939.71	2.04
328.15	0.3	919.52	2.02
328.15	0.4	898.72	1.99
328.15	0.5	877.79	1.95
328.15	0.6	856.99	1.91
328.15	0.698	836.75	1.87
328.15	0.8	815.86	1.84
328.15	0.899	795.45	1.81
328.15	1	774.09	1.56
333.15	0	971.8	1.94
333.15	0.1	955.34	2.04
333.15	0.201	935.65	2.04
333.15	0.3	915.44	2.01
333.15	0.4	894.59	1.98
333.15	0.5	873.64	1.94
333.15	0.6	852.81	1.9
333.15	0.698	832.56	1.87
333.15	0.8	811.64	1.83
333.15	0.899	791.2	1.8
333.15	1	769.81	1.55

System: 2-methyl-1-propanol + 1,2-butanediol; phases: Liquid
Fixed: Pressure, kPa = 100
Property: Viscosity, Pa*s (Liquid); method: Capillary tube (Ostwald; Ubbelohde) method
Temperature, K	Mole fraction of 2-methyl-1-propanol	Viscosity, Pa*s	uncertainty
298.15	0	0.051627	0.001052
298.15	0.1	0.037849	0.000911
298.15	0.201	0.028468	0.000679
298.15	0.3	0.021103	0.000511
298.15	0.4	0.015454	0.000382
298.15	0.5	0.010885	0.000275
298.15	0.6	0.007762	0.000188
298.15	0.698	0.006307	0.000143
298.15	0.8	0.005182	0.000119
298.15	0.899	0.003998	9.2e-05
298.15	1	0.003453	7.4e-05
303.15	0	0.03766	0.000782
303.15	0.1	0.028288	0.000669
303.15	0.201	0.021562	0.00051
303.15	0.3	0.016114	0.000386
303.15	0.4	0.01208	0.000293
303.15	0.5	0.008609	0.000214
303.15	0.6	0.006351	0.00015
303.15	0.698	0.005187	0.000117
303.15	0.8	0.004312	9.8e-05
303.15	0.899	0.003375	7.7e-05
303.15	1	0.002938	6.3e-05
308.15	0	0.028445	0.00059
308.15	0.1	0.021442	0.000503
308.15	0.201	0.016649	0.000388
308.15	0.3	0.012672	0.000299
308.15	0.4	0.009596	0.00023
308.15	0.5	0.007019	0.00017
308.15	0.6	0.005289	0.000124
308.15	0.698	0.004334	9.7e-05
308.15	0.8	0.00362	8.2e-05
308.15	0.899	0.002873	6.5e-05
308.15	1	0.002487	5.3e-05
313.15	0	0.021586	0.000447
313.15	0.1	0.016624	0.000385
313.15	0.201	0.013027	0.000299
313.15	0.3	0.010309	0.000239
313.15	0.4	0.007809	0.000187
313.15	0.5	0.005758	0.000138
313.15	0.6	0.004449	0.000103
313.15	0.698	0.003635	8.2e-05
313.15	0.8	0.003062	6.9e-05
313.15	0.899	0.002473	5.5e-05
313.15	1	0.002174	4.6e-05
318.15	0	0.016745	0.000347
318.15	0.1	0.013081	0.000299
318.15	0.201	0.01042	0.000238
318.15	0.3	0.008093	0.000188
318.15	0.4	0.006339	0.000148
318.15	0.5	0.004851	0.000115
318.15	0.6	0.003692	8.6e-05
318.15	0.698	0.00308	6.9e-05
318.15	0.8	0.002621	5.9e-05
318.15	0.899	0.002141	4.8e-05
318.15	1	0.001874	4e-05
323.15	0	0.013222	0.000274
323.15	0.1	0.010473	0.000237
323.15	0.201	0.008442	0.000191
323.15	0.3	0.006689	0.000154
323.15	0.4	0.005231	0.000122
323.15	0.5	0.003969	9.3e-05
323.15	0.6	0.003154	7.2e-05
323.15	0.698	0.002639	5.9e-05
323.15	0.8	0.002253	5e-05
323.15	0.899	0.001855	4.1e-05
323.15	1	0.001618	3.5e-05
328.15	0	0.010632	0.00022
328.15	0.1	0.008488	0.000191
328.15	0.201	0.006902	0.000155
328.15	0.3	0.005563	0.000127
328.15	0.4	0.004376	0.000101
328.15	0.5	0.003419	8e-05
328.15	0.6	0.002674	6.1e-05
328.15	0.698	0.002274	5e-05
328.15	0.8	0.001957	4.3e-05
328.15	0.899	0.001622	3.6e-05
328.15	1	0.001418	3e-05
333.15	0	0.00865	0.000179
333.15	0.1	0.006971	0.000156
333.15	0.201	0.00572	0.000128
333.15	0.3	0.004684	0.000106
333.15	0.4	0.003713	8.6e-05
333.15	0.5	0.00287	6.7e-05
333.15	0.6	0.002302	5.2e-05
333.15	0.698	0.001964	4.3e-05
333.15	0.8	0.001701	3.8e-05
333.15	0.899	0.001429	3.2e-05
333.15	1	0.001247	2.7e-05
