Measured thermophysical data. Measurement of VLE Data by Using an Experimental Installation with Automatic Control: Modeling of Binary Systems of Methyl Acetate or Ethyl Acetate with n-Heptane or 2,2,4-Trimethylpentane at Both 0.1 and 1.5 MPa
Source: J. Chem. Eng. Data, 2019, 10.1021/acs.jced.9b00668
Compound 1: methyl ethanoate, C3H6O2, InChI=1S/C3H6O2/c1-3(4)5-2/h1-2H3, purity 99.8%
Compound 2: ethyl acetate, C4H8O2, InChI=1S/C4H8O2/c1-3-6-4(2)5/h3H2,1-2H3, purity 99.9%
Compound 3: heptane, C7H16, InChI=1S/C7H16/c1-3-5-7-6-4-2/h3-7H2,1-2H3, purity 99%
Compound 4: 2,2,4-trimethylpentane, C8H18, InChI=1S/C8H18/c1-7(2)6-8(3,4)5/h7H,6H2,1-5H3, purity 99.5%

System: methyl ethanoate; phases: Liquid
Property: Refractive index (Na D-line) (Liquid); method: Standard Abbe refractometry
Temperature, K	Pressure, kPa	Refractive index (Na D-line)	uncertainty
298.15	101.3	1.35875	0.00035

System: methyl ethanoate; phases: Liquid
Property: Mass density, kg/m3 (Liquid); method: Vibrating tube method
Pressure, kPa	Temperature, K	Mass density, kg/m3	uncertainty
101.3	298.15	927.1	0.2

System: methyl ethanoate; phases: Liquid, Gas
Property: Vapor or sublimation pressure, kPa (Liquid); method: Ebulliometric method (Recirculating still)
Temperature, K	Vapor or sublimation pressure, kPa	uncertainty
436.08	1500	3
329.99	100	3

System: ethyl acetate; phases: Liquid
Property: Refractive index (Na D-line) (Liquid); method: Standard Abbe refractometry
Temperature, K	Pressure, kPa	Refractive index (Na D-line)	uncertainty
298.15	101.3	1.36981	0.00035

System: ethyl acetate; phases: Liquid
Property: Mass density, kg/m3 (Liquid); method: Vibrating tube method
Pressure, kPa	Temperature, K	Mass density, kg/m3	uncertainty
101.3	298.15	894.4	0.2

System: ethyl acetate; phases: Liquid, Gas
Property: Vapor or sublimation pressure, kPa (Liquid); method: Ebulliometric method (Recirculating still)
Temperature, K	Vapor or sublimation pressure, kPa	uncertainty
462.75	1500	3
350.19	100	3

System: heptane; phases: Liquid
Property: Refractive index (Na D-line) (Liquid); method: Standard Abbe refractometry
Temperature, K	Pressure, kPa	Refractive index (Na D-line)	uncertainty
298.15	101.3	1.38527	0.0004

System: heptane; phases: Liquid
Property: Mass density, kg/m3 (Liquid); method: Vibrating tube method
Pressure, kPa	Temperature, K	Mass density, kg/m3	uncertainty
101.3	298.15	679.7	0.3

System: heptane; phases: Liquid, Gas
Property: Vapor or sublimation pressure, kPa (Liquid); method: Ebulliometric method (Recirculating still)
Temperature, K	Vapor or sublimation pressure, kPa	uncertainty
498.65	1500	15

System: 2,2,4-trimethylpentane; phases: Liquid
Property: Refractive index (Na D-line) (Liquid); method: Standard Abbe refractometry
Temperature, K	Pressure, kPa	Refractive index (Na D-line)	uncertainty
298.15	101.3	1.38905	0.00036

System: 2,2,4-trimethylpentane; phases: Liquid
Property: Mass density, kg/m3 (Liquid); method: Vibrating tube method
Pressure, kPa	Temperature, K	Mass density, kg/m3	uncertainty
101.3	298.15	687.8	0.3

System: 2,2,4-trimethylpentane; phases: Liquid, Gas
Property: Vapor or sublimation pressure, kPa (Liquid); method: Ebulliometric method (Recirculating still)
Temperature, K	Vapor or sublimation pressure, kPa	uncertainty
371.91	100	3
504.65	1500	3

System: methyl ethanoate + heptane; phases: Liquid
Fixed: Pressure, kPa = 101.3
Fixed: Temperature, K = 298.15
Property: Mass density, kg/m3 (Liquid); method: Vibrating tube method
Mole fraction of methyl ethanoate	Mass density, kg/m3	uncertainty
0	679.7	0.3
0.0579	685.5	0.3
0.0789	687.8	0.3
0.0926	689.7	0.3
0.1276	694.1	0.3
0.1562	697.4	0.3
0.1662	698.8	0.3
0.1998	703.2	0.3
0.1998	703.2	0.3
0.2413	709.3	0.3
0.2652	712.7	0.3
0.2914	716.8	0.3
0.3583	728.4	0.3
0.4171	739	0.3
0.43	741.6	0.3
0.4682	749.3	0.3
0.506	757.3	0.3
0.5357	764	0.3
0.584	775.6	0.3
0.6338	788.4	0.3
0.715	811.7	0.2
0.7194	813	0.2
0.7256	814.9	0.2
0.7698	829	0.2
0.7698	829	0.2
0.7996	839.2	0.2
0.8104	843.3	0.2
0.8285	850.2	0.2
0.8537	859.8	0.2
0.8558	860.5	0.2
0.8898	874.1	0.2
0.901	879.1	0.2
0.9172	885.8	0.2
0.9284	890.8	0.2
0.9598	905.6	0.2
0.9631	907.4	0.2
0.9735	912.8	0.2
1	927.1	0.2

System: methyl ethanoate + heptane; phases: Gas, Liquid
Fixed: Pressure, kPa = 1500
Property: Mole fraction of methyl ethanoate (Gas); method: Density calibration data
Mole fraction of methyl ethanoate	Mole fraction of methyl ethanoate	uncertainty
0	0	
0.019	0.036	0.01
0.035	0.083	0.013
0.05	0.13	0.011
0.076	0.183	0.01
0.093	0.225	0.01
0.119	0.278	0.01
0.148	0.333	0.01
0.175	0.378	0.009
0.217	0.434	0.009
0.288	0.528	0.01
0.316	0.561	0.009
0.372	0.617	0.008
0.401	0.644	0.007
0.428	0.665	0.007
0.491	0.709	0.006
0.521	0.727	0.006
0.558	0.743	0.006
0.596	0.763	0.006
0.624	0.778	0.006
0.646	0.792	0.005
0.68	0.807	0.005
0.738	0.838	0.005
0.769	0.852	0.005
0.796	0.868	0.005
0.827	0.883	0.005
0.855	0.898	0.005
0.885	0.913	0.005
0.91	0.93	0.005
0.936	0.949	0.005
0.959	0.966	0.005
0.977	0.981	0.005
0.992	0.994	0.005
1	1	

System: methyl ethanoate + heptane; phases: Liquid, Gas
Fixed: Pressure, kPa = 1500
Property: Boiling temperature at pressure P, K (Liquid); method: Ebulliometric method (Recirculating still)
Mole fraction of methyl ethanoate	Boiling temperature at pressure P, K	uncertainty
0	498.65	0.22
0.019	495.85	0.67
0.035	493.05	0.71
0.05	490.65	0.59
0.076	487.35	0.6
0.093	484.55	0.6
0.119	481.25	0.57
0.148	477.25	0.55
0.175	474.25	0.49
0.217	469.7	0.46
0.288	462.69	0.44
0.316	460.28	0.39
0.372	455.89	0.36
0.401	454.18	0.32
0.428	452.6	0.3
0.491	449.35	0.29
0.521	448.01	0.26
0.558	446.83	0.25
0.596	445.54	0.26
0.624	444.56	0.26
0.646	443.62	0.26
0.68	442.61	0.25
0.738	440.9	0.24
0.769	440.31	0.23
0.796	439.62	0.24
0.827	438.81	0.23
0.855	438.34	0.22
0.885	437.83	0.23
0.91	437.29	0.22
0.936	436.97	0.22
0.959	436.56	0.23
0.977	436.25	0.22
0.992	436.17	0.22
1	436.08	0.21

System: ethyl acetate + heptane; phases: Liquid
Fixed: Pressure, kPa = 101.3
Fixed: Temperature, K = 298.15
Property: Mass density, kg/m3 (Liquid); method: Vibrating tube method
Mole fraction of ethyl acetate	Mass density, kg/m3	uncertainty
0	679.7	0.3
0.0642	687.5	0.3
0.071	688.3	0.3
0.125	695.2	0.3
0.1274	695.8	0.3
0.1932	705.1	0.3
0.2136	708.2	0.3
0.3294	726.7	0.3
0.3874	736.7	0.3
0.4593	750.2	0.3
0.5966	778.8	0.2
0.6582	793.2	0.2
0.6841	799.3	0.2
0.7001	803.7	0.2
0.7346	812.6	0.2
0.8029	830.8	0.2
0.8272	837.6	0.2
0.8471	843.6	0.2
0.9069	862.1	0.2
0.9631	880.7	0.2
1	894.4	0.2

System: ethyl acetate + heptane; phases: Gas, Liquid
Fixed: Pressure, kPa = 1500
Property: Mole fraction of ethyl acetate (Gas); method: Density calibration data
Mole fraction of ethyl acetate	Mole fraction of ethyl acetate	uncertainty
0	0	
0.007	0.013	0.009
0.011	0.025	0.009
0.025	0.05	0.009
0.045	0.092	0.009
0.071	0.137	0.009
0.127	0.25	0.008
0.185	0.319	0.008
0.226	0.364	0.008
0.292	0.434	0.009
0.322	0.463	0.009
0.352	0.492	0.009
0.419	0.551	0.008
0.484	0.602	0.008
0.528	0.636	0.007
0.576	0.672	0.007
0.599	0.69	0.007
0.628	0.708	0.006
0.649	0.724	0.006
0.704	0.764	0.006
0.729	0.782	0.006
0.755	0.801	0.006
0.78	0.817	0.006
0.804	0.836	0.006
0.884	0.895	0.005
0.937	0.943	0.005
0.958	0.962	0.005
0.991	0.992	0.005
1	1	

System: ethyl acetate + heptane; phases: Liquid, Gas
Fixed: Pressure, kPa = 1500
Property: Boiling temperature at pressure P, K (Liquid); method: Ebulliometric method (Recirculating still)
Mole fraction of ethyl acetate	Boiling temperature at pressure P, K	uncertainty
0	498.65	0.22
0.007	497.95	0.42
0.011	497.65	0.43
0.025	496.35	0.41
0.045	494.65	0.4
0.071	492.45	0.38
0.127	488.25	0.35
0.185	484.65	0.33
0.226	482.25	0.31
0.292	478.75	0.3
0.322	477.45	0.29
0.352	475.95	0.28
0.419	473	0.27
0.484	470.71	0.26
0.528	469.07	0.25
0.576	467.62	0.25
0.599	466.85	0.24
0.628	466.24	0.23
0.649	465.92	0.23
0.704	464.73	0.23
0.729	464.37	0.22
0.755	463.98	0.22
0.78	463.77	0.22
0.804	463.56	0.22
0.884	463.06	0.22
0.937	462.88	0.21
0.958	462.82	0.21
0.991	462.77	0.21
1	462.75	0.21

System: methyl ethanoate + 2,2,4-trimethylpentane; phases: Liquid
Fixed: Pressure, kPa = 101.3
Fixed: Temperature, K = 298.15
Property: Mass density, kg/m3 (Liquid); method: Vibrating tube method
Mole fraction of methyl ethanoate	Mass density, kg/m3	uncertainty
0	687.8	0.3
0.0646	693.5	0.3
0.0822	695.3	0.3
0.0859	695.7	0.3
0.0992	697	0.3
0.1566	703.6	0.3
0.1941	707.9	0.3
0.208	709.7	0.3
0.224	711.7	0.3
0.2636	717.1	0.3
0.2688	717.7	0.3
0.2957	721.6	0.3
0.3211	725.4	0.3
0.3319	727	0.3
0.3956	737.4	0.3
0.5015	757.3	0.2
0.578	774	0.2
0.5792	774.3	0.2
0.6528	792.8	0.2
0.6958	804.5	0.2
0.7268	813.9	0.2
0.7611	824.8	0.2
0.7834	832.2	0.2
0.8161	843.6	0.2
0.8466	855.3	0.2
0.848	855.8	0.2
0.8628	861.6	0.2
0.8632	861.9	0.2
0.8889	872.5	0.2
0.9179	885.5	0.2
0.9388	895.1	0.2
0.9406	895.7	0.2
0.9456	898.3	0.2
0.9574	904.3	0.2
1	927.1	0.2

System: methyl ethanoate + 2,2,4-trimethylpentane; phases: Gas, Liquid
Property: Mole fraction of methyl ethanoate (Gas); method: Density calibration data
Pressure, kPa	Mole fraction of methyl ethanoate	Mole fraction of methyl ethanoate	uncertainty
100	0	0	
100	0.039	0.274	0.024
100	0.064	0.372	0.015
100	0.089	0.448	0.014
100	0.113	0.519	0.012
100	0.141	0.568	0.01
100	0.176	0.615	0.009
100	0.199	0.647	0.008
100	0.231	0.678	0.007
100	0.256	0.698	0.007
100	0.287	0.719	0.006
100	0.321	0.739	0.006
100	0.362	0.756	0.006
100	0.387	0.767	0.005
100	0.417	0.778	0.005
100	0.436	0.786	0.005
100	0.457	0.794	0.005
100	0.501	0.801	0.005
100	0.519	0.81	0.005
100	0.571	0.822	0.005
100	0.618	0.834	0.005
100	0.66	0.845	0.005
100	0.694	0.853	0.005
100	0.734	0.862	0.005
100	0.767	0.87	0.005
100	0.794	0.879	0.005
100	0.827	0.889	0.005
100	0.853	0.899	0.005
100	0.883	0.911	0.005
100	0.906	0.924	0.005
100	0.93	0.937	0.005
100	0.946	0.948	0.005
100	0.957	0.958	0.005
100	0.968	0.967	0.006
100	0.983	0.982	0.006
100	0.995	0.994	0.006
100	1	1	
1500	0	0	
1500	0.026	0.084	0.012
1500	0.077	0.219	0.011
1500	0.112	0.296	0.01
1500	0.139	0.344	0.009
1500	0.173	0.402	0.009
1500	0.201	0.44	0.009
1500	0.228	0.478	0.01
1500	0.253	0.515	0.009
1500	0.305	0.575	0.008
1500	0.359	0.624	0.008
1500	0.385	0.647	0.007
1500	0.412	0.67	0.007
1500	0.462	0.707	0.006
1500	0.485	0.721	0.006
1500	0.51	0.735	0.006
1500	0.529	0.745	0.006
1500	0.555	0.756	0.006
1500	0.578	0.77	0.006
1500	0.614	0.784	0.005
1500	0.638	0.798	0.005
1500	0.663	0.811	0.005
1500	0.692	0.826	0.005
1500	0.724	0.839	0.005
1500	0.752	0.854	0.005
1500	0.785	0.869	0.005
1500	0.825	0.892	0.005
1500	0.864	0.907	0.005
1500	0.896	0.927	0.005
1500	0.918	0.942	0.005
1500	0.948	0.959	0.005
1500	0.984	0.988	0.005
1500	0.995	0.996	0.004
1500	1	1	

System: methyl ethanoate + 2,2,4-trimethylpentane; phases: Liquid, Gas
Property: Boiling temperature at pressure P, K (Liquid); method: Ebulliometric method (Recirculating still)
Mole fraction of methyl ethanoate	Pressure, kPa	Boiling temperature at pressure P, K	uncertainty
0	100	371.91	0.34
0.039	100	362.72	0.92
0.064	100	358.41	0.71
0.089	100	354.98	0.65
0.113	100	351.68	0.57
0.141	100	349.05	0.48
0.176	100	346.17	0.46
0.199	100	344.54	0.43
0.231	100	342.49	0.41
0.256	100	341.16	0.38
0.287	100	339.82	0.36
0.321	100	338.45	0.35
0.362	100	337.32	0.34
0.387	100	336.53	0.34
0.417	100	335.8	0.33
0.436	100	335.33	0.33
0.457	100	334.85	0.32
0.501	100	334.28	0.32
0.519	100	333.77	0.32
0.571	100	333.06	0.31
0.618	100	332.41	0.31
0.66	100	331.85	0.31
0.694	100	331.5	0.31
0.734	100	331.1	0.31
0.767	100	330.79	0.31
0.794	100	330.47	0.3
0.827	100	330.2	0.3
0.853	100	330.06	0.3
0.883	100	329.84	0.3
0.906	100	329.73	0.3
0.93	100	329.61	0.3
0.946	100	329.54	0.3
0.957	100	329.52	0.3
0.968	100	329.57	0.3
0.983	100	329.71	0.3
0.995	100	329.89	0.3
1	100	329.99	0.29
0	1500	504.65	0.62
0.026	1500	499.45	0.95
0.077	1500	490.75	0.9
0.112	1500	485.75	0.84
0.139	1500	482.05	0.8
0.173	1500	477.95	0.77
0.201	1500	474.85	0.76
0.228	1500	471.76	0.76
0.253	1500	468.88	0.71
0.305	1500	464.2	0.68
0.359	1500	459.75	0.66
0.385	1500	457.78	0.63
0.412	1500	456.09	0.62
0.462	1500	452.91	0.61
0.485	1500	451.6	0.59
0.51	1500	450.36	0.58
0.529	1500	449.62	0.57
0.555	1500	448.73	0.56
0.578	1500	447.79	0.56
0.614	1500	446.38	0.56
0.638	1500	445.63	0.56
0.663	1500	444.45	0.55
0.692	1500	443.54	0.54
0.724	1500	442.73	0.54
0.752	1500	441.92	0.53
0.785	1500	441.01	0.53
0.825	1500	439.94	0.53
0.864	1500	438.8	0.53
0.896	1500	437.97	0.52
0.918	1500	437.59	0.52
0.948	1500	436.85	0.51
0.984	1500	436.34	0.51
0.995	1500	436.17	0.51
1	1500	436.08	0.5

System: ethyl acetate + 2,2,4-trimethylpentane; phases: Liquid
Fixed: Pressure, kPa = 101.3
Fixed: Temperature, K = 298.15
Property: Mass density, kg/m3 (Liquid); method: Vibrating tube method
Mole fraction of ethyl acetate	Mass density, kg/m3	uncertainty
0	687.8	0.3
0.0627	694.4	0.3
0.1027	699	0.3
0.1524	704.9	0.3
0.2008	711.1	0.3
0.272	721	0.3
0.3528	733.3	0.3
0.386	738.7	0.2
0.4349	747.1	0.2
0.4568	751	0.2
0.5071	760.4	0.2
0.5362	766.1	0.2
0.6042	780.2	0.2
0.7014	802.6	0.2
0.7603	817.7	0.2
0.8488	842.7	0.2
0.8968	857.9	0.2
0.9273	868.1	0.2
0.9465	874.7	0.2
1	894.4	0.2

System: ethyl acetate + 2,2,4-trimethylpentane; phases: Gas, Liquid
Property: Mole fraction of ethyl acetate (Gas); method: Density calibration data
Pressure, kPa	Mole fraction of ethyl acetate	Mole fraction of ethyl acetate	uncertainty
100	0	0	
100	0.005	0.024	0.015
100	0.024	0.093	0.015
100	0.047	0.17	0.012
100	0.075	0.237	0.011
100	0.101	0.298	0.01
100	0.141	0.363	0.009
100	0.198	0.436	0.009
100	0.284	0.525	0.009
100	0.315	0.553	0.008
100	0.348	0.575	0.008
100	0.385	0.603	0.007
100	0.422	0.625	0.007
100	0.444	0.637	0.007
100	0.469	0.65	0.007
100	0.509	0.669	0.007
100	0.547	0.688	0.006
100	0.619	0.726	0.006
100	0.661	0.742	0.006
100	0.686	0.759	0.006
100	0.728	0.779	0.006
100	0.762	0.8	0.005
100	0.792	0.816	0.005
100	0.816	0.831	0.005
100	0.839	0.843	0.005
100	0.867	0.863	0.005
100	0.895	0.885	0.006
100	0.944	0.931	0.006
100	0.971	0.962	0.006
100	0.994	0.992	0.007
100	1	1	
1500	0	0	
1500	0.016	0.031	0.009
1500	0.038	0.073	0.009
1500	0.057	0.116	0.009
1500	0.083	0.162	0.008
1500	0.115	0.209	0.009
1500	0.134	0.252	0.008
1500	0.19	0.325	0.008
1500	0.226	0.368	0.008
1500	0.249	0.399	0.009
1500	0.276	0.43	0.009
1500	0.311	0.467	0.009
1500	0.366	0.52	0.009
1500	0.397	0.545	0.008
1500	0.425	0.569	0.008
1500	0.474	0.609	0.008
1500	0.5	0.63	0.007
1500	0.555	0.673	0.007
1500	0.583	0.691	0.007
1500	0.599	0.704	0.007
1500	0.615	0.717	0.006
1500	0.63	0.726	0.006
1500	0.652	0.741	0.006
1500	0.667	0.751	0.006
1500	0.681	0.762	0.006
1500	0.708	0.78	0.006
1500	0.733	0.797	0.006
1500	0.756	0.809	0.005
1500	0.77	0.817	0.006
1500	0.804	0.842	0.006
1500	0.818	0.853	0.005
1500	0.839	0.867	0.005
1500	0.86	0.882	0.005
1500	0.904	0.918	0.005
1500	0.909	0.922	0.005
1500	0.917	0.928	0.005
1500	0.933	0.942	0.005
1500	0.947	0.955	0.005
1500	0.981	0.984	0.005
1500	0.993	0.994	0.005
1500	1	1	

System: ethyl acetate + 2,2,4-trimethylpentane; phases: Liquid, Gas
Property: Boiling temperature at pressure P, K (Liquid); method: Ebulliometric method (Recirculating still)
Mole fraction of ethyl acetate	Pressure, kPa	Boiling temperature at pressure P, K	uncertainty
0	100	371.91	0.34
0.005	100	371.27	0.55
0.024	100	369.2	0.52
0.047	100	367.05	0.46
0.075	100	365.19	0.43
0.101	100	363.43	0.4
0.141	100	361.37	0.38
0.198	100	359.01	0.36
0.284	100	356.18	0.35
0.315	100	355.26	0.34
0.348	100	354.48	0.33
0.385	100	353.7	0.33
0.422	100	353.02	0.33
0.444	100	352.67	0.33
0.469	100	352.29	0.32
0.509	100	351.72	0.32
0.547	100	351.3	0.32
0.619	100	350.45	0.32
0.661	100	350.13	0.31
0.686	100	349.95	0.31
0.728	100	349.68	0.31
0.762	100	349.51	0.31
0.792	100	349.39	0.31
0.816	100	349.33	0.31
0.839	100	349.3	0.31
0.867	100	349.32	0.31
0.895	100	349.44	0.31
0.944	100	349.66	0.31
0.971	100	349.9	0.31
0.994	100	350.14	0.31
1	100	350.19	0.3
0	1500	504.65	0.62
0.016	1500	502.65	0.78
0.038	1500	500.15	0.77
0.057	1500	498.05	0.74
0.083	1500	495.65	0.7
0.115	1500	493.25	0.72
0.134	1500	490.75	0.66
0.19	1500	487.85	0.64
0.226	1500	485.55	0.65
0.249	1500	484.25	0.63
0.276	1500	482.75	0.63
0.311	1500	480.95	0.62
0.366	1500	478.25	0.61
0.397	1500	476.85	0.6
0.425	1500	475.65	0.6
0.474	1500	473.75	0.59
0.5	1500	472.8	0.58
0.555	1500	470.93	0.57
0.583	1500	470.12	0.57
0.599	1500	469.64	0.57
0.615	1500	469.15	0.56
0.63	1500	468.81	0.56
0.652	1500	468.22	0.56
0.667	1500	467.9	0.56
0.681	1500	467.48	0.56
0.708	1500	466.87	0.55
0.733	1500	466.34	0.55
0.756	1500	465.97	0.55
0.77	1500	465.71	0.55
0.804	1500	465.09	0.55
0.818	1500	464.86	0.54
0.839	1500	464.55	0.54
0.86	1500	464.3	0.54
0.904	1500	463.73	0.54
0.909	1500	463.66	0.54
0.917	1500	463.57	0.54
0.933	1500	463.42	0.53
0.947	1500	463.24	0.53
0.981	1500	462.87	0.53
0.993	1500	462.79	0.53
1	1500	462.75	0.53
