Measured thermophysical data. Study on the Solubilities of Mononitro-Substituted Products of Nitration of m-Toluic Acid in Several Solvents at Temperatures between 297.65 and 351.75 K
Source: J. Chem. Eng. Data, 2017, 10.1021/acs.jced.7b00431
Compound 1: 3-methyl-4-nitrobenzoic acid, C8H7NO4, InChI=1S/C8H7NO4/c1-5-4-6(8(10)11)2-3-7(5)9(12)13/h2-4H,1H3,(H,10,11), purity 99%
Compound 2: 2-nitro-m-toluic acid, C8H7NO4, InChI=1S/C8H7NO4/c1-5-3-2-4-6(8(10)11)7(5)9(12)13/h2-4H,1H3,(H,10,11), purity 98%
Compound 3: 5-methyl-2-nitrobenzoic acid, C8H7NO4, InChI=1S/C8H7NO4/c1-5-2-3-7(9(12)13)6(4-5)8(10)11/h2-4H,1H3,(H,10,11), purity 98%
Compound 4: methanol, CH4O, InChI=1S/CH4O/c1-2/h2H,1H3, purity 99.5%
Compound 5: ethanol, C2H6O, InChI=1S/C2H6O/c1-2-3/h3H,2H2,1H3, purity 99.7%
Compound 6: propan-1-ol, C3H8O, InChI=1S/C3H8O/c1-2-3-4/h4H,2-3H2,1H3, purity 99.8%
Compound 7: formic acid, CH2O2, InChI=1S/CH2O2/c2-1-3/h1H,(H,2,3), purity 98%
Compound 8: acetic acid, C2H4O2, InChI=1S/C2H4O2/c1-2(3)4/h1H3,(H,3,4), purity 99.5%
Compound 9: propanoic acid, C3H6O2, InChI=1S/C3H6O2/c1-2-3(4)5/h2H2,1H3,(H,4,5), purity 99.8%
Compound 10: water, H2O, InChI=1S/H2O/h1H2, purity 99.9%

System: 5-methyl-2-nitrobenzoic acid + water; phases: Liquid, Crystal
Fixed: Pressure, kPa = 101.3
Property: Mass ratio of solute to solvent of 5-methyl-2-nitrobenzoic acid (Liquid); method: visual method
Temperature, K	Mass ratio of solute to solvent of 5-methyl-2-nitrobenzoic acid	uncertainty
315.55	0.009005	0.000902
319.95	0.01083	0.00108
322.95	0.01258	0.00126
326.15	0.01435	0.00144
327.95	0.01608	0.00161
331.15	0.01852	0.00185
334.55	0.02142	0.00214
336.85	0.02437	0.00244
339.35	0.02795	0.0028
341.35	0.03151	0.00316
343.55	0.03572	0.00358

System: 5-methyl-2-nitrobenzoic acid + methanol; phases: Liquid, Crystal
Fixed: Pressure, kPa = 101.3
Property: Mass ratio of solute to solvent of 5-methyl-2-nitrobenzoic acid (Liquid); method: visual method
Temperature, K	Mass ratio of solute to solvent of 5-methyl-2-nitrobenzoic acid	uncertainty
304.35	2.194	0.219
307.75	2.313	0.231
311.25	2.433	0.243
314.65	2.556	0.256
317.75	2.674	0.267
320.35	2.792	0.279
322.95	2.913	0.291
325.45	3.033	0.303

System: 5-methyl-2-nitrobenzoic acid + ethanol; phases: Liquid, Crystal
Fixed: Pressure, kPa = 101.3
Property: Mass ratio of solute to solvent of 5-methyl-2-nitrobenzoic acid (Liquid); method: visual method
Temperature, K	Mass ratio of solute to solvent of 5-methyl-2-nitrobenzoic acid	uncertainty
301.95	1.494	0.149
304.75	1.565	0.157
307.45	1.632	0.163
310.25	1.694	0.169
313.45	1.784	0.178
316.75	1.882	0.188
320.15	1.984	0.198
323.95	2.097	0.21
326.95	2.192	0.219
329.75	2.297	0.23

System: 5-methyl-2-nitrobenzoic acid + propan-1-ol; phases: Liquid, Crystal
Fixed: Pressure, kPa = 101.3
Property: Mass ratio of solute to solvent of 5-methyl-2-nitrobenzoic acid (Liquid); method: visual method
Temperature, K	Mass ratio of solute to solvent of 5-methyl-2-nitrobenzoic acid	uncertainty
305.15	1.11	0.111
309.45	1.193	0.119
312.75	1.26	0.126
315.65	1.328	0.133
319.35	1.421	0.142
322.65	1.515	0.152
326.45	1.608	0.161
330.35	1.723	0.172
333.95	1.841	0.184
337.35	1.956	0.196
340.45	2.072	0.207

System: 5-methyl-2-nitrobenzoic acid + formic acid; phases: Liquid, Crystal
Fixed: Pressure, kPa = 101.3
Property: Mass ratio of solute to solvent of 5-methyl-2-nitrobenzoic acid (Liquid); method: visual method
Temperature, K	Mass ratio of solute to solvent of 5-methyl-2-nitrobenzoic acid	uncertainty
308.55	0.1726	0.0173
311.15	0.1941	0.0194
314.75	0.2221	0.0222
317.25	0.2505	0.0251
319.65	0.2789	0.0279
321.65	0.3068	0.0307
323.45	0.3357	0.0336
326.15	0.3761	0.0377
329.45	0.4308	0.0431
331.65	0.4846	0.0485
334.45	0.5503	0.0551

System: 5-methyl-2-nitrobenzoic acid + acetic acid; phases: Liquid, Crystal
Fixed: Pressure, kPa = 101.3
Property: Mass ratio of solute to solvent of 5-methyl-2-nitrobenzoic acid (Liquid); method: visual method
Temperature, K	Mass ratio of solute to solvent of 5-methyl-2-nitrobenzoic acid	uncertainty
307.15	0.3988	0.0399
309.95	0.4368	0.0437
313.65	0.4875	0.0488
317.15	0.5419	0.0542
320.75	0.5965	0.0597
324.05	0.6542	0.0655
326.35	0.7083	0.0709
329.35	0.7805	0.0781
332.35	0.854	0.0855
334.65	0.9276	0.0928

System: 5-methyl-2-nitrobenzoic acid + propanoic acid; phases: Liquid, Crystal
Fixed: Pressure, kPa = 101.3
Property: Mass ratio of solute to solvent of 5-methyl-2-nitrobenzoic acid (Liquid); method: visual method
Temperature, K	Mass ratio of solute to solvent of 5-methyl-2-nitrobenzoic acid	uncertainty
302.95	0.2422	0.0242
305.35	0.2599	0.026
308.65	0.287	0.0287
311.75	0.3213	0.0322
315.15	0.3568	0.0357
318.15	0.3956	0.0396
321.75	0.4483	0.0449
324.95	0.4986	0.0499
327.85	0.5511	0.0552
330.65	0.604	0.0604
333.75	0.6719	0.0672

System: 2-nitro-m-toluic acid + water; phases: Liquid, Crystal
Fixed: Pressure, kPa = 101.3
Property: Mass ratio of solute to solvent of 2-nitro-m-toluic acid (Liquid); method: visual method
Temperature, K	Mass ratio of solute to solvent of 2-nitro-m-toluic acid	uncertainty
300.55	0.000357	3.6e-05
308.95	0.00053	5.3e-05
317.15	0.000739	7.4e-05
321.85	0.000882	8.8e-05
324.35	0.000961	9.6e-05
327.65	0.00118	0.000118
332.95	0.001458	0.000146
337.85	0.001771	0.000177
341.95	0.002138	0.000214
347.15	0.002631	0.000263

System: 2-nitro-m-toluic acid + methanol; phases: Liquid, Crystal
Fixed: Pressure, kPa = 101.3
Property: Mass ratio of solute to solvent of 2-nitro-m-toluic acid (Liquid); method: visual method
Temperature, K	Mass ratio of solute to solvent of 2-nitro-m-toluic acid	uncertainty
301.15	0.1563	0.0156
307.25	0.1878	0.0188
309.75	0.2016	0.0202
312.45	0.2189	0.0219
315.35	0.2362	0.0236
317.35	0.2511	0.0251
319.35	0.2658	0.0266
322.45	0.289	0.0289
325.35	0.3127	0.0313
327.95	0.3399	0.034
330.55	0.3642	0.0364

System: 2-nitro-m-toluic acid + ethanol; phases: Liquid, Crystal
Fixed: Pressure, kPa = 101.3
Property: Mass ratio of solute to solvent of 2-nitro-m-toluic acid (Liquid); method: visual method
Temperature, K	Mass ratio of solute to solvent of 2-nitro-m-toluic acid	uncertainty
302.35	0.1098	0.011
306.65	0.1234	0.0123
310.95	0.1399	0.014
313.45	0.1552	0.0155
317.75	0.1782	0.0178
323.15	0.2064	0.0207
326.25	0.2316	0.0232
329.75	0.2571	0.0257
333.45	0.291	0.0291
337.05	0.3175	0.0318
340.15	0.3495	0.035
343.35	0.386	0.0386

System: 2-nitro-m-toluic acid + propan-1-ol; phases: Liquid, Crystal
Fixed: Pressure, kPa = 101.3
Property: Mass ratio of solute to solvent of 2-nitro-m-toluic acid (Liquid); method: visual method
Temperature, K	Mass ratio of solute to solvent of 2-nitro-m-toluic acid	uncertainty
302.25	0.06135	0.00614
310.15	0.07975	0.00798
315.05	0.09199	0.00921
318.05	0.1043	0.0104
320.95	0.1167	0.0117
324.25	0.1301	0.013
328.25	0.1497	0.015
332.45	0.1695	0.017
335.15	0.1889	0.0189
337.55	0.2084	0.0209
341.65	0.2339	0.0234
344.35	0.2585	0.0259

System: 2-nitro-m-toluic acid + formic acid; phases: Liquid, Crystal
Fixed: Pressure, kPa = 101.3
Property: Mass ratio of solute to solvent of 2-nitro-m-toluic acid (Liquid); method: visual method
Temperature, K	Mass ratio of solute to solvent of 2-nitro-m-toluic acid	uncertainty
306.35	0.007763	0.000777
312.05	0.009146	0.000915
316.05	0.01056	0.00106
318.65	0.01196	0.0012
322.95	0.01419	0.00142
327.35	0.01646	0.00165
329.95	0.01864	0.00187
334.05	0.02184	0.00219
337.65	0.02503	0.00251
341.55	0.02842	0.00284
344.85	0.03195	0.0032

System: 2-nitro-m-toluic acid + acetic acid; phases: Liquid, Crystal
Fixed: Pressure, kPa = 101.3
Property: Mass ratio of solute to solvent of 2-nitro-m-toluic acid (Liquid); method: visual method
Temperature, K	Mass ratio of solute to solvent of 2-nitro-m-toluic acid	uncertainty
302.65	0.02268	0.00227
308.85	0.02702	0.0027
314.45	0.03147	0.00315
319.15	0.03602	0.0036
322.65	0.0409	0.00409
327.25	0.04695	0.0047
332.05	0.05313	0.00532
335.15	0.0594	0.00594
339.95	0.06743	0.00675
343.75	0.07511	0.00752
347.15	0.08366	0.00837

System: 2-nitro-m-toluic acid + propanoic acid; phases: Liquid, Crystal
Fixed: Pressure, kPa = 101.3
Property: Mass ratio of solute to solvent of 2-nitro-m-toluic acid (Liquid); method: visual method
Temperature, K	Mass ratio of solute to solvent of 2-nitro-m-toluic acid	uncertainty
314.15	0.02378	0.00238
317.95	0.027	0.0027
321.95	0.03024	0.00303
326.95	0.03537	0.00354
331.65	0.0406	0.00406
335.95	0.0456	0.00456
339.35	0.0511	0.00511
342.35	0.05669	0.00567
345.65	0.06242	0.00625
348.55	0.06807	0.00681
351.75	0.07448	0.00745

System: 3-methyl-4-nitrobenzoic acid + water; phases: Liquid, Crystal
Fixed: Pressure, kPa = 101.3
Property: Mass ratio of solute to solvent of 3-methyl-4-nitrobenzoic acid (Liquid); method: visual method
Temperature, K	Mass ratio of solute to solvent of 3-methyl-4-nitrobenzoic acid	uncertainty
311.25	0.000223	2.2e-05
317.05	0.000276	2.8e-05
320.65	0.000317	3.2e-05
322.15	0.00034	3.4e-05
325.15	0.00038	3.8e-05
328.05	0.000436	4.4e-05
334.05	0.000542	5.4e-05
337.65	0.000641	6.4e-05
343.15	0.000753	7.5e-05
347.05	0.000873	8.7e-05

System: 3-methyl-4-nitrobenzoic acid + methanol; phases: Liquid, Crystal
Fixed: Pressure, kPa = 101.3
Property: Mass ratio of solute to solvent of 3-methyl-4-nitrobenzoic acid (Liquid); method: visual method
Temperature, K	Mass ratio of solute to solvent of 3-methyl-4-nitrobenzoic acid	uncertainty
297.65	0.05135	0.00514
302.45	0.06029	0.00603
306.65	0.07026	0.00703
310.35	0.07991	0.008
314.15	0.09017	0.00902
317.45	0.1012	0.0101
320.05	0.1113	0.0111
322.65	0.1207	0.0121
325.25	0.1292	0.0129
327.45	0.1411	0.0141
329.85	0.1506	0.0151

System: 3-methyl-4-nitrobenzoic acid + ethanol; phases: Liquid, Crystal
Fixed: Pressure, kPa = 101.3
Property: Mass ratio of solute to solvent of 3-methyl-4-nitrobenzoic acid (Liquid); method: visual method
Temperature, K	Mass ratio of solute to solvent of 3-methyl-4-nitrobenzoic acid	uncertainty
299.95	0.04754	0.00476
304.75	0.05412	0.00542
306.75	0.05907	0.00591
310.15	0.06453	0.00646
314.65	0.07531	0.00754
318.65	0.08521	0.00853
321.95	0.09514	0.00952
325.95	0.1084	0.0108
329.15	0.1212	0.0121
331.95	0.1339	0.0134
335.15	0.1492	0.0149

System: 3-methyl-4-nitrobenzoic acid + propan-1-ol; phases: Liquid, Crystal
Fixed: Pressure, kPa = 101.3
Property: Mass ratio of solute to solvent of 3-methyl-4-nitrobenzoic acid (Liquid); method: visual method
Temperature, K	Mass ratio of solute to solvent of 3-methyl-4-nitrobenzoic acid	uncertainty
308.35	0.04194	0.0042
312.75	0.05024	0.00503
316.95	0.05877	0.00588
320.85	0.0673	0.00674
323.95	0.07612	0.00762
327.35	0.08514	0.00852
330.65	0.09427	0.00943
333.65	0.1039	0.0104
336.65	0.1154	0.0116
339.15	0.1268	0.0127
341.75	0.1393	0.0139

System: 3-methyl-4-nitrobenzoic acid + formic acid; phases: Liquid, Crystal
Fixed: Pressure, kPa = 101.3
Property: Mass ratio of solute to solvent of 3-methyl-4-nitrobenzoic acid (Liquid); method: visual method
Temperature, K	Mass ratio of solute to solvent of 3-methyl-4-nitrobenzoic acid	uncertainty
310.85	0.008004	0.000802
314.95	0.009664	0.000968
318.85	0.01135	0.00114
321.95	0.01309	0.00131
325.15	0.01481	0.00148
329.55	0.01704	0.00171
332.65	0.01914	0.00192
335.15	0.0214	0.00214
338.85	0.02456	0.00246
341.95	0.02759	0.00276
344.95	0.03082	0.00308

System: 3-methyl-4-nitrobenzoic acid + acetic acid; phases: Liquid, Crystal
Fixed: Pressure, kPa = 101.3
Property: Mass ratio of solute to solvent of 3-methyl-4-nitrobenzoic acid (Liquid); method: visual method
Temperature, K	Mass ratio of solute to solvent of 3-methyl-4-nitrobenzoic acid	uncertainty
299.65	0.02404	0.00241
308.15	0.03067	0.00307
314.45	0.03785	0.00379
319.25	0.04437	0.00444
323.95	0.05207	0.00521
328.55	0.05959	0.00596
333.45	0.06752	0.00676
337.95	0.07622	0.00763
341.85	0.08446	0.00845
344.45	0.09214	0.00922
348.55	0.1025	0.0103

System: 3-methyl-4-nitrobenzoic acid + propanoic acid; phases: Liquid, Crystal
Fixed: Pressure, kPa = 101.3
Property: Mass ratio of solute to solvent of 3-methyl-4-nitrobenzoic acid (Liquid); method: visual method
Temperature, K	Mass ratio of solute to solvent of 3-methyl-4-nitrobenzoic acid	uncertainty
305.45	0.02535	0.00254
314.15	0.03239	0.00324
316.75	0.0358	0.00358
320.85	0.04049	0.00405
324.15	0.04579	0.00458
328.85	0.05175	0.00518
332.45	0.05761	0.00576
336.15	0.06429	0.00643
340.65	0.07279	0.00728
344.95	0.08136	0.00814
348.35	0.08948	0.00895
