Measured thermophysical data. Density, Viscosity and Refractive Index of Aqueous Solutions of Sodium Lactobionate
Source: J. Chem. Eng. Data, 2016, 10.1021/acs.jced.5b00407
Compound 1: sodium lactobionate, C12H21NaO12, InChI=1S/C12H22O12.Na/c13-1-3(15)10(7(18)8(19)11(21)22)24-12-9(20)6(17)5(16)4(2-14)23-12;/h3-10,12-20H,1-2H2,(H,21,22);/q;+1/p-1/t3-,4-,5+,6+,7-,8-,9-,10-,12+;/m1./s1, purity 98.4%
Compound 2: water, H2O, InChI=1S/H2O/h1H2, purity 99.8%

System: water + sodium lactobionate; phases: Liquid
Fixed: Pressure, kPa = 101.3
Property: Mass density, kg/m3 (Liquid); method: Vibrating tube method
Molality, mol/kg of sodium lactobionate	Temperature, K	Mass density, kg/m3	uncertainty
0.0502	288.15	1010.5	0.9
0.0502	293.15	1009.1	0.9
0.0502	298.15	1007.6	0.9
0.0502	303.15	1006.2	0.9
0.0502	308.15	1004.5	0.9
0.0502	313.15	1003.1	0.9
0.0502	318.15	1001.6	0.9
0.0502	323.15	999.8	0.9
0.0753	288.15	1015.2	0.9
0.0753	293.15	1013.9	0.9
0.0753	298.15	1012.6	0.9
0.0753	303.15	1011.2	0.9
0.0753	308.15	1009.7	0.9
0.0753	313.15	1008.1	0.9
0.0753	318.15	1006.5	0.9
0.0753	323.15	1004.7	0.9
0.1	288.15	1020.1	0.9
0.1	293.15	1018.9	0.9
0.1	298.15	1017.7	0.9
0.1	303.15	1016.4	0.9
0.1	308.15	1014.9	0.9
0.1	313.15	1013.3	0.9
0.1	318.15	1011.5	0.9
0.1	323.15	1009.5	0.9
0.126	288.15	1024.5	0.9
0.126	293.15	1023.3	0.9
0.126	298.15	1022.1	0.9
0.126	303.15	1020.8	0.9
0.126	308.15	1019.4	0.9
0.126	313.15	1017.8	0.9
0.126	318.15	1015.9	0.9
0.126	323.15	1013.9	0.9
0.151	288.15	1029.1	0.9
0.151	293.15	1028.1	0.9
0.151	298.15	1026.9	0.9
0.151	303.15	1025.5	0.9
0.151	308.15	1023.9	0.9
0.151	313.15	1022.1	0.9
0.151	318.15	1020.5	0.9
0.151	323.15	1018.4	0.9
0.176	288.15	1034.1	0.9
0.176	293.15	1033	0.9
0.176	298.15	1031.8	0.9
0.176	303.15	1030.3	0.9
0.176	308.15	1028.8	0.9
0.176	313.15	1027.2	0.9
0.176	318.15	1025.3	0.9
0.176	323.15	1023.2	0.9
0.201	288.15	1039	0.9
0.201	293.15	1037.7	0.9
0.201	298.15	1036.4	0.9
0.201	303.15	1035.1	0.9
0.201	308.15	1033.5	0.9
0.201	313.15	1031.8	0.9
0.201	318.15	1030	10
0.201	323.15	1028	1

System: water + sodium lactobionate; phases: Liquid
Fixed: Pressure, kPa = 101.3
Property: Viscosity, Pa*s (Liquid); method: Capillary tube (Ostwald; Ubbelohde) method
Molality, mol/kg of sodium lactobionate	Temperature, K	Viscosity, Pa*s	uncertainty
0.0251	288.15	0.001157	1.5e-05
0.0251	293.15	0.001018	1.32e-05
0.0251	298.15	0.0009041	1.18e-05
0.0251	303.15	0.0008091	1.06e-05
0.0251	308.15	0.0007289	9.6e-06
0.0251	313.15	0.0006612	8.7e-06
0.0251	318.15	0.0006029	8e-06
0.0251	323.15	0.0005523	7.3e-06
0.0502	288.15	0.001177	1.61e-05
0.0502	293.15	0.001036	1.36e-05
0.0502	298.15	0.0009201	1.21e-05
0.0502	303.15	0.0008233	1.08e-05
0.0502	308.15	0.0007415	9.8e-06
0.0502	313.15	0.0006729	8.9e-06
0.0502	318.15	0.0006136	8.2e-06
0.0502	323.15	0.0005625	7.4e-06
0.0753	288.15	0.001211	1.6e-05
0.0753	293.15	0.001066	1.41e-05
0.0753	298.15	0.0009457	1.25e-05
0.0753	303.15	0.0008464	1.13e-05
0.0753	308.15	0.0007623	1.02e-05
0.0753	313.15	0.000692	9.2e-06
0.0753	318.15	0.0006313	8.5e-06
0.0753	323.15	0.0005789	7.8e-06
0.1	288.15	0.001257	1.65e-05
0.1	293.15	0.001106	1.45e-05
0.1	298.15	0.0009824	1.3e-05
0.1	303.15	0.0008796	1.16e-05
0.1	308.15	0.0007921	1.05e-05
0.1	313.15	0.0007187	9.6e-06
0.1	318.15	0.0006556	8.7e-06
0.1	323.15	0.0006009	8e-06
0.126	288.15	0.001286	1.68e-05
0.126	293.15	0.0011321	1.49e-05
0.126	298.15	0.001006	1.32e-05
0.126	303.15	0.0009001	1.19e-05
0.126	308.15	0.0008111	1.07e-05
0.126	313.15	0.0007357	9.8e-06
0.126	318.15	0.0006711	8.9e-06
0.126	323.15	0.0006151	8.2e-06
0.151	288.15	0.001332	1.75e-05
0.151	293.15	0.001171	1.54e-05
0.151	298.15	0.001041	1.38e-05
0.151	303.15	0.0009321	1.24e-05
0.151	308.15	0.0008399	1.12e-05
0.151	313.15	0.0007622	1.01e-05
0.151	318.15	0.0006951	9.3e-06
0.151	323.15	0.0006372	8.5e-06
0.176	288.15	0.001374	1.78e-05
0.176	293.15	0.001208	1.6e-05
0.176	298.15	0.001074	1.42e-05
0.176	303.15	0.0009614	1.28e-05
0.176	308.15	0.0008655	1.15e-05
0.176	313.15	0.0007851	1.05e-05
0.176	318.15	0.0007157	9.6e-06
0.176	323.15	0.0006565	9e-06
0.201	288.15	0.001432	1.9e-05
0.201	293.15	0.00126	1.7e-05
0.201	298.15	0.001119	1.51e-05
0.201	303.15	0.001002	1.35e-05
0.201	308.15	0.0009029	1.22e-05
0.201	313.15	0.0008191	1.11e-05
0.201	318.15	0.0007469	1.01e-05
0.201	323.15	0.0006849	9.3e-06

System: water + sodium lactobionate; phases: Liquid
Fixed: Pressure, kPa = 101.3
Property: Refractive index (Na D-line) (Liquid); method: Standard Abbe refractometry
Molality, mol/kg of sodium lactobionate	Temperature, K	Refractive index (Na D-line)	uncertainty
0.0251	293.15	1.3331	0.0004
0.0251	298.15	1.3326	0.0004
0.0251	303.15	1.3321	0.0004
0.0251	308.15	1.3316	0.0004
0.0251	313.15	1.331	0.0004
0.0251	318.15	1.3304	0.0004
0.0251	323.15	1.3297	0.0004
0.0502	293.15	1.3344	0.0004
0.0502	298.15	1.3339	0.0004
0.0502	303.15	1.3334	0.0004
0.0502	308.15	1.3328	0.0004
0.0502	313.15	1.3322	0.0004
0.0502	318.15	1.3316	0.0004
0.0502	323.15	1.3309	0.0004
0.0753	293.15	1.336	0.0004
0.0753	298.15	1.3354	0.0004
0.0753	303.15	1.3348	0.0004
0.0753	308.15	1.3342	0.0004
0.0753	313.15	1.3335	0.0004
0.0753	318.15	1.3329	0.0004
0.0753	323.15	1.3322	0.0004
0.1	293.15	1.3376	0.0004
0.1	298.15	1.337	0.0004
0.1	303.15	1.3364	0.0004
0.1	308.15	1.3357	0.0004
0.1	313.15	1.335	0.0004
0.1	318.15	1.3343	0.0004
0.1	323.15	1.3336	0.0004
0.126	293.15	1.3392	0.0004
0.126	298.15	1.3385	0.0004
0.126	303.15	1.3378	0.0004
0.126	308.15	1.3371	0.0004
0.126	313.15	1.3364	0.0004
0.126	318.15	1.3357	0.0004
0.126	323.15	1.3349	0.0004
0.151	293.15	1.3406	0.0004
0.151	298.15	1.34	0.0004
0.151	303.15	1.3393	0.0004
0.151	308.15	1.3387	0.0004
0.151	313.15	1.338	0.0004
0.151	318.15	1.3373	0.0004
0.151	323.15	1.3365	0.0004
0.176	293.15	1.3421	0.0004
0.176	298.15	1.3415	0.0004
0.176	303.15	1.3409	0.0004
0.176	308.15	1.3403	0.0004
0.176	313.15	1.3397	0.0004
0.176	318.15	1.3391	0.0004
0.176	323.15	1.3384	0.0004
0.201	293.15	1.3435	0.0004
0.201	298.15	1.343	0.0004
0.201	303.15	1.3425	0.0004
0.201	308.15	1.342	0.0004
0.201	313.15	1.3415	0.0004
0.201	318.15	1.3409	0.0004
0.201	323.15	1.3404	0.0004
