Measured thermophysical data. Liquid Liquid Equilibria for the Ternary System n-Butyl Acetate + Pyrocatechol + Water at Different Temperatures at 101.3 kPa
Source: J. Chem. Eng. Data, 2016, 10.1021/acs.jced.6b00280
Compound 1: methanol, CH4O, InChI=1S/CH4O/c1-2/h2H,1H3, purity 99%
Compound 2: 1,2-benzenediol, C6H6O2, InChI=1S/C6H6O2/c7-5-3-1-2-4-6(5)8/h1-4,7-8H, purity 99%
Compound 3: butyl ethanoate, C6H12O2, InChI=1S/C6H12O2/c1-3-4-5-8-6(2)7/h3-5H2,1-2H3, purity 99%
Compound 4: water, H2O, InChI=1S/H2O/h1H2, purity 99%

System: methanol; phases: Liquid
Property: Mass density, kg/m3 (Liquid); method: Pycnometric method
Temperature, K	Pressure, kPa	Mass density, kg/m3	uncertainty
298.15	101.325	786.1	2

System: methanol; phases: Liquid
Property: Refractive index (Na D-line) (Liquid); method: Standard Abbe refractometry
Temperature, K	Pressure, kPa	Refractive index (Na D-line)	uncertainty
298.15	101.325	1.3264	0.0004

System: 1,2-benzenediol; phases: Crystal
Property: Mass density, kg/m3 (Crystal); method: Pycnometric method
Temperature, K	Pressure, kPa	Mass density, kg/m3	uncertainty
298.15	101.325	1346	2

System: 1,2-benzenediol; phases: Crystal, Liquid, Air at 1 atmosphere
Property: Normal melting temperature, K (Crystal); method: VISOBS
Normal melting temperature, K	uncertainty
379.25	1.64

System: butyl ethanoate; phases: Liquid
Property: Mass density, kg/m3 (Liquid); method: Pycnometric method
Temperature, K	Pressure, kPa	Mass density, kg/m3	uncertainty
298.15	101.325	873.1	2

System: butyl ethanoate; phases: Liquid
Property: Refractive index (Na D-line) (Liquid); method: Standard Abbe refractometry
Temperature, K	Pressure, kPa	Refractive index (Na D-line)	uncertainty
298.15	101.325	1.393	0.0004

System: 1,2-benzenediol + butyl ethanoate + water; phases: Liquid mixture 1, Liquid mixture 2
Fixed: Pressure, kPa = 101.3
Property: Mass fraction of 1,2-benzenediol (Liquid mixture 1); method: Chromatography
Property: Mass fraction of butyl ethanoate (Liquid mixture 2); method: Chromatography
Property: Mass fraction of 1,2-benzenediol (Liquid mixture 2); method: Chromatography
Temperature, K	Mass fraction of butyl ethanoate	Mass fraction of 1,2-benzenediol	uncertainty	Mass fraction of butyl ethanoate	uncertainty	Mass fraction of 1,2-benzenediol	uncertainty
298.15	0.9016	0.084	0.0077	0.0092	0.0062	0.0033	
318.15	0.9133	0.062	0.0085	0.0063	0.0062	0.004	
318.15	0.8179	0.1511	0.0083	0.0086	0.0062	0.016	
298.15	0.4436	0.4021	0.0073	0.0119	0.0062	0.1276	
298.15	0.2824	0.4613	0.0071	0.0249	0.0067	0.204	
318.15	0.5318	0.3747	0.0079	0.01	0.0062	0.1126	
318.15	0.4735	0.3972	0.0071	0.0126	0.0063	0.1419	
318.15	0.2811	0.4184	0.0069	0.036	0.0064	0.2336	
318.15	0.4151	0.4121	0.007	0.0191	0.0065	0.1724	
298.15	0.7492	0.2011	0.0083	0.0083	0.0062	0.0214	
318.15	0.3597	0.4218	0.0069	0.0304	0.0065	0.1971	
308.15	0.6523	0.2853	0.0082	0.0071	0.0062	0.0442	
308.15	0.5897	0.331	0.0076	0.0078	0.0062	0.0781	
298.15	0.682	0.2597	0.0083	0.0072	0.0062	0.035	
298.15	0.6602	0.2744	0.0082	0.0074	0.0062	0.0385	
298.15	0.3621	0.445	0.0073	0.0135	0.0063	0.1881	
298.15	0.6197	0.3096	0.0081	0.0081	0.0062	0.0557	
298.15	0.2412	0.458	0.0071	0.0317	0.0064	0.2303	
298.15	0.5359	0.3688	0.0075	0.0086	0.0062	0.0836	
318.15	0.6874	0.2589	0.0076	0.0079	0.0062	0.0423	
308.15	0.8954	0.0753	0.0083	0.0063	0.0062	0.0033	
308.15	0.8147	0.1524	0.0084	0.0072	0.0062	0.0132	
308.15	0.6024	0.3235	0.008	0.0084	0.0062	0.0684	
308.15	0.7544	0.2031	0.0081	0.0081	0.0062	0.0229	
308.15	0.5153	0.3845	0.0077	0.0093	0.0062	0.1095	
308.15	0.7011	0.2439	0.0082	0.007	0.0062	0.0381	
318.15	0.3193	0.4219	0.0069	0.0316	0.0063	0.2138	
298.15	0.7996	0.1573	0.0079	0.0076	0.0062	0.0116	
308.15	0.4638	0.4068	0.0071	0.0112	0.0062	0.132	
308.15	0.3933	0.4255	0.007	0.0148	0.0064	0.1597	
318.15	0.6631	0.2747	0.0076	0.008	0.0062	0.0516	
308.15	0.3532	0.4284	0.007	0.0236	0.0064	0.1842	
