Measured thermophysical data. Determination of Density and Viscosity of Binary Mixtures of Water and Dimethyl Sulfoxide with 1-Ethyl-3-methylimidazolium Diethylphosphate [EtMeIm]+[Et2PO4]- at Atmospheric Pressure
Source: J. Chem. Eng. Data, 2018, 10.1021/acs.jced.7b00788
Compound 1: 1-ethyl-3-methylimidazolium diethyl phosphate, C10H21N2O4P, InChI=1S/C6H11N2.C4H11O4P/c1-3-8-5-4-7(2)6-8;1-3-7-9(5,6)8-4-2/h4-6H,3H2,1-2H3;3-4H2,1-2H3,(H,5,6)/q+1;/p-1, purity 98%
Compound 2: dimethyl sulfoxide, C2H6OS, InChI=1S/C2H6OS/c1-4(2)3/h1-2H3, purity 99.9%
Compound 3: water, H2O, InChI=1S/H2O/h1H2, purity 99.9%

System: 1-ethyl-3-methylimidazolium diethyl phosphate; phases: Liquid
Fixed: Pressure, kPa = 100
Property: Mass density, kg/m3 (Liquid); method: Vibrating tube method
Temperature, K	Mass density, kg/m3	uncertainty
293.15	1151.2	1.2
303.15	1144.2	1.2
313.15	1137.4	1.2
323.15	1130.7	1.2
333.15	1124.1	1.2
343.15	1117.5	1.2
353.15	1111	1.1
363.15	1104.5	1.1
373.15	1098.2	1.1

System: 1-ethyl-3-methylimidazolium diethyl phosphate; phases: Liquid
Fixed: Pressure, kPa = 100
Property: Viscosity, Pa*s (Liquid); method: Concentric cylinders viscometry
Temperature, K	Viscosity, Pa*s	uncertainty
293.15	0.54	0.03
303.15	0.274	0.015
313.15	0.154	0.008
323.15	0.094	0.0044
333.15	0.0612	0.0028
343.15	0.0421	0.0019
353.15	0.0302	0.0013
363.15	0.0225	0.001
373.15	0.0173	0.0007

System: dimethyl sulfoxide; phases: Liquid
Fixed: Pressure, kPa = 100
Property: Mass density, kg/m3 (Liquid); method: Vibrating tube method
Temperature, K	Mass density, kg/m3	uncertainty
293.15	1101.2	0.7
303.15	1091.2	0.7
313.15	1081.1	0.7
323.15	1071.1	0.7
333.15	1061.2	0.7
343.15	1051.3	0.7
353.15	1041.1	0.7
363.15	1031.3	0.7
373.15	1021.4	0.7

System: dimethyl sulfoxide; phases: Liquid
Fixed: Pressure, kPa = 100
Property: Viscosity, Pa*s (Liquid); method: Concentric cylinders viscometry
Temperature, K	Viscosity, Pa*s	uncertainty
293.15	0.00231	9e-05
303.15	0.00189	8e-05
313.15	0.00157	6e-05
323.15	0.00133	5e-05
333.15	0.00115	5e-05
343.15	0.00101	4e-05
353.15	0.000893	3.7e-05
363.15	0.000799	3.3e-05
373.15	0.000721	3e-05

System: water; phases: Liquid
Fixed: Pressure, kPa = 100
Property: Mass density, kg/m3 (Liquid); method: Vibrating tube method
Temperature, K	Mass density, kg/m3	uncertainty
293.15	1000.1	0.5
303.15	998	0.5
313.15	994.3	0.5
323.15	990.2	0.6
333.15	985.2	0.6
343.15	979.6	0.6
353.15	973.3	0.6

System: water; phases: Liquid
Fixed: Pressure, kPa = 100
Property: Viscosity, Pa*s (Liquid); method: Concentric cylinders viscometry
Temperature, K	Viscosity, Pa*s	uncertainty
293.15	0.001	4e-05
303.15	0.000805	3.4e-05
313.15	0.000651	2.7e-05
323.15	0.000544	2.3e-05
333.15	0.000472	2e-05
343.15	0.000417	1.8e-05
353.15	0.000342	1.5e-05

System: water + 1-ethyl-3-methylimidazolium diethyl phosphate; phases: Liquid
Fixed: Pressure, kPa = 100
Property: Mass density, kg/m3 (Liquid); method: Vibrating tube method
Temperature, K	Mole fraction of water	Mass density, kg/m3	uncertainty
293.15	0.012	1151.2	1.2
303.15	0.012	1144.2	1.2
313.15	0.012	1137.4	1.2
323.15	0.012	1130.7	1.2
333.15	0.012	1124.1	1.1
343.15	0.012	1117.5	1.1
353.15	0.012	1111	1.1
363.15	0.012	1104.5	1.1
373.15	0.012	1098.2	1.1
293.15	0.061	1151.7	1.1
303.15	0.061	1144.7	1.1
313.15	0.061	1137.9	1.1
323.15	0.061	1131.2	1.1
333.15	0.061	1124.6	1.1
343.15	0.061	1118	1.1
353.15	0.061	1111.5	1.1
363.15	0.061	1104.9	1
373.15	0.061	1098.5	1
293.15	0.123	1152.1	1
303.15	0.123	1145.2	1
313.15	0.123	1138.4	1
323.15	0.123	1131.7	1
333.15	0.123	1125	1
343.15	0.123	1118.4	1
353.15	0.123	1111.9	1
363.15	0.123	1105.2	1
373.15	0.123	1098.9	1
293.15	0.183	1152.4	1
303.15	0.183	1145.5	0.9
313.15	0.183	1138.7	0.9
323.15	0.183	1132	0.9
333.15	0.183	1125.4	0.9
343.15	0.183	1118.8	0.9
353.15	0.183	1112.1	0.9
363.15	0.183	1105.6	0.9
373.15	0.183	1099.1	0.9
293.15	0.259	1153	0.9
303.15	0.259	1146.1	0.9
313.15	0.259	1139.3	0.9
323.15	0.259	1132.6	0.8
333.15	0.259	1126	0.8
343.15	0.259	1119.3	0.8
353.15	0.259	1112.7	0.8
363.15	0.259	1106.1	0.8
373.15	0.259	1099.6	0.8
293.15	0.502	1154.6	0.7
303.15	0.502	1147.8	0.7
313.15	0.502	1141.1	0.7
323.15	0.502	1134.3	0.7
333.15	0.502	1127.4	0.7
343.15	0.502	1120.5	0.7
353.15	0.502	1113.7	0.7
363.15	0.502	1106.8	0.7
373.15	0.502	1099.9	0.7
293.15	0.765	1150.2	0.6
303.15	0.765	1143.1	0.6
313.15	0.765	1135.9	0.6
323.15	0.765	1128.6	0.6
333.15	0.765	1121.2	0.6
343.15	0.765	1113.8	0.6
353.15	0.765	1106.3	0.6
363.15	0.765	1098.7	0.6
373.15	0.765	1091.2	1
293.15	0.88	1124	1.7
303.15	0.88	1116.7	1.4
313.15	0.88	1109.2	1.4
323.15	0.88	1101.7	1.3
333.15	0.88	1094	1.3
343.15	0.88	1086.1	1.3
353.15	0.88	1078.1	1.3
363.15	0.88	1070	0.8
373.15	0.88	1061.9	0.8
293.15	1	1000.1	0.5
303.15	1	998	0.5
313.15	1	994.3	0.5
323.15	1	990.2	0.6
333.15	1	985.2	0.6
343.15	1	979.6	0.6
353.15	1	973.3	0.6

System: water + 1-ethyl-3-methylimidazolium diethyl phosphate; phases: Liquid
Fixed: Pressure, kPa = 100
Property: Viscosity, Pa*s (Liquid); method: Concentric cylinders viscometry
Temperature, K	Mole fraction of water	Viscosity, Pa*s	uncertainty
293.15	0.012	0.54	0.03
303.15	0.012	0.274	0.015
313.15	0.012	0.154	0.008
323.15	0.012	0.094	0.0044
333.15	0.012	0.0612	0.0028
343.15	0.012	0.0421	0.0019
353.15	0.012	0.0302	0.0013
363.15	0.012	0.0225	0.001
373.15	0.012	0.0173	0.0008
293.15	0.061	0.513	0.028
303.15	0.061	0.262	0.014
313.15	0.061	0.148	0.007
323.15	0.061	0.0902	0.0042
333.15	0.061	0.0588	0.0026
343.15	0.061	0.0404	0.0018
353.15	0.061	0.029	0.0013
363.15	0.061	0.0216	0.0009
373.15	0.061	0.0165	0.0007
293.15	0.123	0.487	0.026
303.15	0.123	0.25	0.014
313.15	0.123	0.141	0.007
323.15	0.123	0.0864	0.004
333.15	0.123	0.0562	0.0025
343.15	0.123	0.0386	0.0017
353.15	0.123	0.0277	0.0012
363.15	0.123	0.0206	0.0009
373.15	0.123	0.0158	0.0007
293.15	0.183	0.462	0.025
303.15	0.183	0.238	0.013
313.15	0.183	0.135	0.007
323.15	0.183	0.0831	0.0038
333.15	0.183	0.0543	0.0024
343.15	0.183	0.0374	0.0016
353.15	0.183	0.0269	0.0012
363.15	0.183	0.02	0.0009
373.15	0.183	0.0153	0.0007
293.15	0.259	0.422	0.022
303.15	0.259	0.219	0.012
313.15	0.259	0.125	0.006
323.15	0.259	0.0765	0.0035
333.15	0.259	0.0493	0.0022
343.15	0.259	0.0341	0.0015
353.15	0.259	0.0245	0.0011
363.15	0.259	0.0183	0.0008
373.15	0.259	0.0141	0.0006
293.15	0.502	0.202	0.01
303.15	0.502	0.111	0.006
313.15	0.502	0.0658	0.0031
323.15	0.502	0.0407	0.0018
333.15	0.502	0.0276	0.0012
343.15	0.502	0.0196	0.0008
353.15	0.502	0.0144	0.0006
363.15	0.502	0.0112	0.0005
373.15	0.502	0.0089	0.0004
293.15	0.765	0.0511	0.0027
303.15	0.765	0.0312	0.0015
313.15	0.765	0.0203	0.001
323.15	0.765	0.014	0.0006
333.15	0.765	0.0101	0.0005
343.15	0.765	0.00758	0.00033
353.15	0.765	0.00588	0.00025
363.15	0.765	0.00469	0.0002
373.15	0.765	0.00383	0.00016
293.15	0.88	0.0125	0.0009
303.15	0.88	0.00835	0.00044
313.15	0.88	0.00591	0.0003
323.15	0.88	0.00438	0.00022
333.15	0.88	0.00336	0.00016
343.15	0.88	0.00267	0.00013
353.15	0.88	0.00218	0.0001
363.15	0.88	0.00183	9e-05
373.15	0.88	0.00155	8e-05
293.15	1	0.001	4e-05
303.15	1	0.000805	3.4e-05
313.15	1	0.000651	2.7e-05
323.15	1	0.000544	2.3e-05
333.15	1	0.000472	2e-05
343.15	1	0.000417	1.8e-05
353.15	1	0.000342	1.5e-05

System: water + dimethyl sulfoxide + 1-ethyl-3-methylimidazolium diethyl phosphate; phases: Liquid
Fixed: Pressure, kPa = 100
Property: Mass density, kg/m3 (Liquid); method: Vibrating tube method
Temperature, K	Mole fraction of water	Mole fraction of dimethyl sulfoxide	Mass density, kg/m3	uncertainty
293.15	0.019	0.048	1150.9	1.1
303.15	0.019	0.048	1143.8	1.1
313.15	0.019	0.048	1137	1.1
323.15	0.019	0.048	1130.3	1.1
333.15	0.019	0.048	1123.7	1.1
343.15	0.019	0.048	1117.1	1.1
353.15	0.019	0.048	1110.4	1.1
363.15	0.019	0.048	1103.8	1.1
373.15	0.019	0.048	1097.3	1.1
293.15	0.003	0.1	1150.2	1.1
303.15	0.003	0.1	1143.1	1
313.15	0.003	0.1	1136.3	1
323.15	0.003	0.1	1129.4	1
333.15	0.003	0.1	1122.8	1
343.15	0.003	0.1	1116.1	1
353.15	0.003	0.1	1109.4	1
363.15	0.003	0.1	1102.8	1
373.15	0.003	0.1	1096.2	1
293.15	0.004	0.15	1149.6	1
303.15	0.004	0.15	1142.6	1
313.15	0.004	0.15	1135.7	1
323.15	0.004	0.15	1128.8	1
333.15	0.004	0.15	1121.9	1
343.15	0.004	0.15	1115.2	0.9
353.15	0.004	0.15	1108.5	0.9
363.15	0.004	0.15	1101.8	0.9
373.15	0.004	0.15	1095.2	0.9
293.15	0.004	0.249	1148.2	0.9
303.15	0.004	0.249	1141.2	0.9
313.15	0.004	0.249	1134.2	0.9
323.15	0.004	0.249	1127.3	0.9
333.15	0.004	0.249	1120.3	0.9
343.15	0.004	0.249	1113.4	0.9
353.15	0.004	0.249	1106.6	0.9
363.15	0.004	0.249	1099.9	0.9
373.15	0.004	0.249	1093.2	0.9
293.15	0.004	0.497	1143.7	0.9
303.15	0.004	0.497	1136.4	1
313.15	0.004	0.497	1129	1.1
323.15	0.004	0.497	1121.2	1.1
333.15	0.004	0.497	1113.4	1.1
343.15	0.004	0.497	1106	1.1
353.15	0.004	0.497	1098.8	1.2
363.15	0.004	0.497	1091.5	1.2
373.15	0.004	0.497	1084.3	1.2
293.15	0.005	0.768	1132.3	5.2
303.15	0.005	0.768	1124.6	5.9
313.15	0.005	0.768	1116.3	6.4
323.15	0.005	0.768	1108.1	7
333.15	0.005	0.768	1099.9	7.3
343.15	0.005	0.768	1091.7	7.8
353.15	0.005	0.768	1083.6	8
363.15	0.005	0.768	1075.6	8.5
373.15	0.005	0.768	1067.5	8.7
293.15	0.008	0.886	1120.7	2.9
303.15	0.008	0.886	1111.6	3
313.15	0.008	0.886	1102.6	3.1
323.15	0.008	0.886	1093.5	3.2
333.15	0.008	0.886	1084.7	3.3
343.15	0.008	0.886	1075.6	3.5
353.15	0.008	0.886	1066.8	3.6
363.15	0.008	0.886	1057.8	3.7
373.15	0.008	0.886	1049	3.8
293.15	0	1	1101.2	0.7
303.15	0	1	1091.2	0.7
313.15	0	1	1081.1	0.7
323.15	0	1	1071.1	0.7
333.15	0	1	1061.2	0.7
343.15	0	1	1051.3	0.7
353.15	0	1	1041.1	0.7
363.15	0	1	1031.3	0.7
373.15	0	1	1021.4	0.7

System: water + dimethyl sulfoxide + 1-ethyl-3-methylimidazolium diethyl phosphate; phases: Liquid
Fixed: Pressure, kPa = 100
Property: Viscosity, Pa*s (Liquid); method: Concentric cylinders viscometry
Temperature, K	Mole fraction of water	Mole fraction of dimethyl sulfoxide	Viscosity, Pa*s	uncertainty
293.15	0.019	0.048	0.481	0.033
303.15	0.019	0.048	0.245	0.02
313.15	0.019	0.048	0.137	0.012
323.15	0.019	0.048	0.0811	0.0078
333.15	0.019	0.048	0.0506	0.0055
343.15	0.019	0.048	0.0348	0.0042
353.15	0.019	0.048	0.0239	0.0035
363.15	0.019	0.048	0.0178	0.0029
373.15	0.019	0.048	0.0134	0.0043
293.15	0.003	0.1	0.421	0.023
303.15	0.003	0.1	0.217	0.016
313.15	0.003	0.1	0.123	0.008
323.15	0.003	0.1	0.0737	0.0041
333.15	0.003	0.1	0.0488	0.0025
343.15	0.003	0.1	0.0339	0.0016
353.15	0.003	0.1	0.0225	0.0011
363.15	0.003	0.1	0.0168	0.0007
373.15	0.003	0.1	0.0129	0.0006
293.15	0.004	0.15	0.329	0.017
303.15	0.004	0.15	0.175	0.009
313.15	0.004	0.15	0.102	0.005
323.15	0.004	0.15	0.0646	0.003
333.15	0.004	0.15	0.0431	0.002
343.15	0.004	0.15	0.0302	0.0014
353.15	0.004	0.15	0.0217	0.0009
363.15	0.004	0.15	0.0165	0.0007
373.15	0.004	0.15	0.0128	0.0006
293.15	0.004	0.249	0.243	0.017
303.15	0.004	0.249	0.134	0.007
313.15	0.004	0.249	0.0806	0.004
323.15	0.004	0.249	0.0518	0.0023
333.15	0.004	0.249	0.0353	0.0016
343.15	0.004	0.249	0.0252	0.0011
353.15	0.004	0.249	0.0187	0.0009
363.15	0.004	0.249	0.0143	0.0007
373.15	0.004	0.249	0.0112	0.0005
293.15	0.004	0.497	0.087	0.0225
303.15	0.004	0.497	0.0529	0.0102
313.15	0.004	0.497	0.0346	0.0048
323.15	0.004	0.497	0.0239	0.0023
333.15	0.004	0.497	0.0157	0.0011
343.15	0.004	0.497	0.0118	0.0007
353.15	0.004	0.497	0.00922	0.00041
363.15	0.004	0.497	0.00736	0.00031
373.15	0.004	0.497	0.00601	0.00026
293.15	0.005	0.768	0.019	0.0129
303.15	0.005	0.768	0.0132	0.0059
313.15	0.005	0.768	0.00959	0.00337
323.15	0.005	0.768	0.00714	0.002
333.15	0.005	0.768	0.00572	0.00072
343.15	0.005	0.768	0.0046	0.00037
353.15	0.005	0.768	0.0038	0.00023
363.15	0.005	0.768	0.00318	0.00015
373.15	0.005	0.768	0.00271	0.00012
293.15	0.008	0.886	0.00591	0.00442
303.15	0.008	0.886	0.0045	0.0025
313.15	0.008	0.886	0.00354	0.00154
323.15	0.008	0.886	0.00287	0.001
333.15	0.008	0.886	0.00238	0.00058
343.15	0.008	0.886	0.00202	0.00041
353.15	0.008	0.886	0.00173	0.0003
363.15	0.008	0.886	0.00151	0.00023
373.15	0.008	0.886	0.00132	0.00018
293.15	0	1	0.00231	9e-05
303.15	0	1	0.00189	8e-05
313.15	0	1	0.00157	6e-05
323.15	0	1	0.00133	5e-05
333.15	0	1	0.00115	5e-05
343.15	0	1	0.00101	4e-05
353.15	0	1	0.000893	3.7e-05
363.15	0	1	0.000799	3.3e-05
373.15	0	1	0.000721	3e-05
