Measured thermophysical data. Experimental Measurement of JP-10 Viscosity at 242.7-753.3 K under Pressures up to 6.00 MPa
Source: J. Chem. Eng. Data, 2017, 10.1021/acs.jced.7b00396
Compound 1: exo-tetrahydrodicyclopentadiene, C10H16, InChI=1S/C10H16/c1-2-9-7-4-5-8(6-7)10(9)3-1/h7-10H,1-6H2/t7-,8+,9+,10-, purity 99.5%
Compound 2: octane, C8H18, InChI=1S/C8H18/c1-3-5-7-8-6-4-2/h3-8H2,1-2H3, purity 99.5%

System: exo-tetrahydrodicyclopentadiene; phases: Liquid
Property: Viscosity, Pa*s (Liquid); method: Capillary tube (Ostwald; Ubbelohde) method
Temperature, K	Pressure, kPa	Viscosity, Pa*s	uncertainty
242.7	690	0.0106881	0.0010785
262.4	690	0.0057802	0.0005833
303.2	690	0.0024788	0.0002497
313.1	690	0.0019963	0.0002004
333.2	690	0.0016801	0.0001687
353.1	690	0.0011417	0.0001149
373.1	690	0.0008868	8.9e-05
393.2	690	0.0007065	7.1e-05
413.2	690	0.0005267	5.29e-05
433.2	690	0.0004172	4.19e-05
453.1	690	0.0003605	3.62e-05
473.2	690	0.0003123	3.14e-05
493.2	690	0.0002255	2.27e-05
513.2	690	0.0002054	2.06e-05
533.2	690	0.0001602	1.61e-05
552.9	690	0.0001309	1.32e-05
242.7	1700	0.0107283	0.0010825
262.4	1700	0.0058201	0.0005866
303.2	1700	0.0024829	0.0002499
313.2	1700	0.0020261	0.0002034
333.2	1700	0.0017008	0.0001708
353.2	1700	0.0011647	0.0001172
373.1	1700	0.0009068	9.1e-05
393.1	1700	0.0007265	7.3e-05
413.1	1700	0.0005518	5.54e-05
433.1	1700	0.0004372	4.39e-05
453.1	1700	0.0004005	4.02e-05
473.2	1700	0.0003003	3.02e-05
493.2	1700	0.0002552	2.56e-05
513.2	1700	0.0002204	2.21e-05
533.2	1700	0.0001809	1.82e-05
552.9	1700	0.0001509	1.52e-05
573.4	1700	0.0001254	1.26e-05
242.7	3000	0.0107958	0.0010892
262.5	3000	0.0058276	0.0005874
303.1	3000	0.00249	0.0002501
313.2	3000	0.0021463	0.0002154
333.1	3000	0.0017088	0.0001716
353.1	3000	0.0012337	0.000124
373.2	3000	0.0009467	9.51e-05
393	3000	0.0007365	7.4e-05
412.9	3000	0.0005811	5.83e-05
433.1	3000	0.0004776	4.79e-05
453.2	3000	0.0003903	3.92e-05
473.2	3000	0.0003204	3.22e-05
493.2	3000	0.0002752	2.76e-05
513.2	3000	0.0002264	2.28e-05
533.4	3000	0.0001837	1.85e-05
553.5	3000	0.0001502	1.51e-05
573.4	3000	0.0001354	1.36e-05
242.7	6000	0.010825	0.0010921
262.5	6000	0.0058876	0.0005938
303.1	6000	0.0024977	0.0002507
313.2	6000	0.0021862	0.0002194
333.1	6000	0.0017578	0.0001765
353.1	6000	0.0012677	0.0001274
373.2	6000	0.0009789	9.83e-05
393.4	6000	0.0007661	7.69e-05
413.1	6000	0.0006028	6.05e-05
433.2	6000	0.0004992	5.01e-05
453.1	6000	0.0004321	4.34e-05
473.1	6000	0.0003675	3.69e-05
493.1	6000	0.0003055	3.07e-05
513.1	6000	0.0002964	2.98e-05
533.4	6000	0.0002139	2.15e-05
553.3	6000	0.0001899	1.91e-05
573.3	6000	0.0001554	1.56e-05
593.2	6000	0.0001453	1.46e-05
613.4	6000	0.0001316	1.32e-05
633.3	6000	0.0001177	1.19e-05
653.5	6000	9.91e-05	1e-05
673.2	6000	9.56e-05	9.6e-06
692.5	6000	9.27e-05	9.3e-06

System: exo-tetrahydrodicyclopentadiene; phases: Gas
Property: Viscosity, Pa*s (Gas); method: Capillary tube (Ostwald; Ubbelohde) method
Temperature, K	Pressure, kPa	Viscosity, Pa*s	uncertainty
573.4	690	3.04e-05	2.6e-06
593.2	690	3.24e-05	2.6e-06
613.6	690	2.88e-05	2.6e-06
633.4	690	3.38e-05	2.6e-06
653.3	690	2.77e-05	2.6e-06
673.3	690	2.65e-05	2.6e-06
692.5	690	3.11e-05	2.6e-06
713.8	690	2.76e-05	2.6e-06
734	690	3.03e-05	2.6e-06
753.3	690	3.24e-05	2.6e-06
593.2	1700	3.94e-05	2.7e-06
613.6	1700	3.89e-05	2.7e-06
633.4	1700	3.71e-05	2.6e-06
653.3	1700	3.28e-05	2.6e-06
673.3	1700	3.02e-05	2.6e-06
692.5	1700	3.21e-05	2.6e-06
713.8	1700	2.94e-05	2.6e-06
734	1700	3.24e-05	2.6e-06
753.3	1700	3.52e-05	2.6e-06
713.8	3000	6.89e-05	2.7e-06
734	3000	6.45e-05	2.7e-06
753.3	3000	6.28e-05	2.7e-06
713.8	6000	8.89e-05	2.9e-06
734	6000	8.44e-05	2.8e-06
753.3	6000	8.28e-05	2.8e-06
593.3	3000	0.0001154	3.2e-06
613	3000	0.0001016	3.1e-06
633.3	3000	9.77e-05	3e-06
653.4	3000	8.98e-05	3e-06
672.3	3000	8.04e-05	2.9e-06
692.5	3000	7.68e-05	2.8e-06

System: exo-tetrahydrodicyclopentadiene; phases: Liquid
Fixed: Pressure, kPa = 700
Property: Mass density, kg/m3 (Liquid); method: Gamma attenuation method
Temperature, K	Mass density, kg/m3	uncertainty
239.8	965.9	15.1
266.2	955.9	15.1
290.9	945.8	15.1
307	936.3	15.2
337.1	917.3	15.2
368.4	890	15.2
391.9	877.6	15.1
428.7	857.3	15.2
468.5	818.7	15.7
483.8	779.5	15.7
510	759.3	15.3
532.4	737.7	16.9
562.1	646.3	18.5

System: exo-tetrahydrodicyclopentadiene; phases: Gas
Fixed: Pressure, kPa = 700
Property: Mass density, kg/m3 (Gas); method: Gamma attenuation method
Temperature, K	Mass density, kg/m3	uncertainty
603.4	25.5	2.7
651.6	22.9	2.7
682.7	29.4	2.7
730.2	19.5	2.8
744.7	19.7	2.8
771.9	26.4	2.7
803.3	24.4	2.7
833	25.4	2.7
873.3	24.4	2.7

System: octane; phases: Liquid
Fixed: Pressure, kPa = 5100
Property: Viscosity, Pa*s (Liquid); method: Capillary tube (Ostwald; Ubbelohde) method
Temperature, K	Viscosity, Pa*s	uncertainty
303.2	0.0005014	4.6e-06
353.1	0.0003078	3.7e-06
403.2	0.000207	3.1e-06
453.1	0.0001465	2.8e-06
503	0.0001049	2.7e-06
553.4	6.92e-05	2.6e-06
