Measured thermophysical data. Determination and Correlation of Ethyl Vanillin Solubility in Different Binary Solvents at Temperatures from 273.15 to 313.15 K
Source: J. Chem. Eng. Data, 2017, 10.1021/acs.jced.6b00972
Compound 1: 3-ethoxy-4-hydroxybenzaldehyde, C9H10O3, InChI=1S/C9H10O3/c1-2-12-9-5-7(6-10)3-4-8(9)11/h3-6,11H,2H2,1H3, purity 99%
Compound 2: methanol, CH4O, InChI=1S/CH4O/c1-2/h2H,1H3, purity 99.5%
Compound 3: ethanol, C2H6O, InChI=1S/C2H6O/c1-2-3/h3H,2H2,1H3, purity 99.5%
Compound 4: propan-2-ol, C3H8O, InChI=1S/C3H8O/c1-3(2)4/h3-4H,1-2H3, purity 99.5%
Compound 5: acetone, C3H6O, InChI=1S/C3H6O/c1-3(2)4/h1-2H3, purity 99.5%
Compound 6: water, H2O, InChI=1S/H2O/h1H2, purity 99.9%
Compound 7: 3,4-dihydroxybenzoic acid, C7H6O4, InChI=1S/C7H6O4/c8-5-2-1-4(7(10)11)3-6(5)9/h1-3,8-9H,(H,10,11), purity 97%

System: 3-ethoxy-4-hydroxybenzaldehyde; phases: Crystal, Liquid, Air at 1 atmosphere
Property: Normal melting temperature, K (Crystal); method: DTA
Normal melting temperature, K	uncertainty
351	1.1

System: 3-ethoxy-4-hydroxybenzaldehyde; phases: Crystal, Liquid, Air at 1 atmosphere
Property: Molar enthalpy of transition or fusion, kJ/mol (Crystal); method: DSC
Molar enthalpy of transition or fusion, kJ/mol	uncertainty
23.6	5.2

System: acetone + 3-ethoxy-4-hydroxybenzaldehyde + water; phases: Liquid, Crystal
Fixed: Pressure, kPa = 100
Property: Mole fraction of 3-ethoxy-4-hydroxybenzaldehyde (Liquid); method: UV Spectroscopy
Solvent: Mole fraction of acetone	Temperature, K	Mole fraction of 3-ethoxy-4-hydroxybenzaldehyde	uncertainty
0.4	273.15	0.106	0.065
0.5	273.15	0.134	0.082
0.6	273.15	0.168	0.101
0.7	273.15	0.185	0.111
0.8	273.15	0.195	0.117
0.9	273.15	0.198	0.119
1	273.15	0.199	0.119
0.4	278.15	0.128	0.078
0.5	278.15	0.162	0.099
0.6	278.15	0.192	0.116
0.7	278.15	0.21	0.126
0.8	278.15	0.214	0.128
0.9	278.15	0.215	0.129
1	278.15	0.216	0.13
0.4	283.15	0.137	0.084
0.5	283.15	0.188	0.114
0.6	283.15	0.209	0.126
0.7	283.15	0.231	0.139
0.8	283.15	0.234	0.14
0.9	283.15	0.235	0.141
1	283.15	0.237	0.142
0.4	288.15	0.173	0.105
0.5	288.15	0.207	0.125
0.6	288.15	0.238	0.143
0.7	288.15	0.264	0.158
0.8	288.15	0.267	0.16
0.9	288.15	0.269	0.161
1	288.15	0.271	0.163
0.4	293.15	0.205	0.124
0.5	293.15	0.252	0.152
0.6	293.15	0.269	0.162
0.7	293.15	0.291	0.175
0.8	293.15	0.296	0.178
0.9	293.15	0.298	0.179
1	293.15	0.3	0.18
0.4	298.15	0.237	0.143
0.5	298.15	0.272	0.164
0.6	298.15	0.298	0.179
0.7	298.15	0.312	0.187
0.8	298.15	0.321	0.193
0.9	298.15	0.324	0.194
1	298.15	0.33	0.198
0.4	303.15	0.274	0.165
0.5	303.15	0.316	0.19
0.6	303.15	0.334	0.201
0.7	303.15	0.35	0.21
0.8	303.15	0.362	0.217
0.9	303.15	0.362	0.217
1	303.15	0.369	0.221
0.4	308.15	0.343	0.206
0.5	308.15	0.369	0.222
0.6	308.15	0.387	0.232
0.7	308.15	0.407	0.244
0.8	308.15	0.41	0.246
0.9	308.15	0.413	0.248
1	308.15	0.416	0.25
0.4	313.15	0.385	0.231
0.5	313.15	0.421	0.253
0.6	313.15	0.434	0.26
0.7	313.15	0.453	0.272
0.8	313.15	0.455	0.273
0.9	313.15	0.457	0.274
1	313.15	0.459	0.275

System: methanol + 3-ethoxy-4-hydroxybenzaldehyde + water; phases: Liquid, Crystal
Fixed: Pressure, kPa = 100
Property: Mole fraction of 3-ethoxy-4-hydroxybenzaldehyde (Liquid); method: UV Spectroscopy
Solvent: Mole fraction of methanol	Temperature, K	Mole fraction of 3-ethoxy-4-hydroxybenzaldehyde	uncertainty
0.4	273.15	0.00428	0.00326
0.5	273.15	0.0093	0.00714
0.6	273.15	0.0221	0.0141
0.7	273.15	0.0326	0.0199
0.8	273.15	0.0494	0.0299
0.9	273.15	0.0623	0.0374
1	273.15	0.0867	0.052
0.4	278.15	0.0061	0.00431
0.5	278.15	0.0128	0.0099
0.6	278.15	0.0312	0.0198
0.7	278.15	0.0451	0.0276
0.8	278.15	0.0664	0.04
0.9	278.15	0.0821	0.0493
1	278.15	0.114	0.068
0.4	283.15	0.0109	0.0084
0.5	283.15	0.0246	0.0168
0.6	283.15	0.0429	0.0269
0.7	283.15	0.0641	0.0391
0.8	283.15	0.0903	0.0543
0.9	283.15	0.103	0.062
1	283.15	0.147	0.088
0.4	288.15	0.0173	0.0124
0.5	288.15	0.0354	0.0242
0.6	288.15	0.0635	0.0399
0.7	288.15	0.0939	0.057
0.8	288.15	0.119	0.072
0.9	288.15	0.135	0.081
1	288.15	0.181	0.109
0.4	293.15	0.0273	0.0196
0.5	293.15	0.0565	0.0378
0.6	293.15	0.0944	0.0583
0.7	293.15	0.125	0.076
0.8	293.15	0.153	0.092
0.9	293.15	0.176	0.106
1	293.15	0.214	0.128
0.4	298.15	0.0436	0.0312
0.5	298.15	0.0895	0.0579
0.6	298.15	0.13	0.079
0.7	298.15	0.161	0.097
0.8	298.15	0.198	0.119
0.9	298.15	0.217	0.13
1	298.15	0.257	0.154
0.4	303.15	0.07	0.0495
0.5	303.15	0.139	0.088
0.6	303.15	0.18	0.109
0.7	303.15	0.224	0.135
0.8	303.15	0.237	0.142
0.9	303.15	0.264	0.158
1	303.15	0.307	0.184
0.4	308.15	0.107	0.072
0.5	308.15	0.2	0.125
0.6	308.15	0.25	0.151
0.7	308.15	0.283	0.17
0.8	308.15	0.299	0.179
0.9	308.15	0.325	0.195
1	308.15	0.358	0.215
0.4	313.15	0.171	0.114
0.5	313.15	0.298	0.183
0.6	313.15	0.325	0.195
0.7	313.15	0.346	0.208
0.8	313.15	0.374	0.224
0.9	313.15	0.386	0.232
1	313.15	0.418	0.251

System: ethanol + 3-ethoxy-4-hydroxybenzaldehyde + water; phases: Liquid, Crystal
Fixed: Pressure, kPa = 100
Property: Mole fraction of 3-ethoxy-4-hydroxybenzaldehyde (Liquid); method: UV Spectroscopy
Solvent: Mole fraction of ethanol	Temperature, K	Mole fraction of 3-ethoxy-4-hydroxybenzaldehyde	uncertainty
0.4	273.15	0.0238	0.0147
0.5	273.15	0.0327	0.0203
0.6	273.15	0.0444	0.0269
0.7	273.15	0.0524	0.0315
0.8	273.15	0.0525	0.0315
0.9	273.15	0.0561	0.0337
1	273.15	0.0564	0.0338
0.4	278.15	0.0311	0.0195
0.5	278.15	0.0458	0.0282
0.6	278.15	0.0571	0.0345
0.7	278.15	0.0644	0.0387
0.8	278.15	0.0679	0.0407
0.9	278.15	0.0714	0.0428
1	278.15	0.0721	0.0433
0.4	283.15	0.0391	0.0248
0.5	283.15	0.0607	0.0374
0.6	283.15	0.0724	0.0436
0.7	283.15	0.0799	0.048
0.8	283.15	0.0836	0.0502
0.9	283.15	0.0876	0.0526
1	283.15	0.0911	0.0547
0.4	288.15	0.0526	0.0328
0.5	288.15	0.078	0.0478
0.6	288.15	0.0924	0.0557
0.7	288.15	0.103	0.062
0.8	288.15	0.105	0.063
0.9	288.15	0.107	0.064
1	288.15	0.109	0.065
0.4	293.15	0.0763	0.047
0.5	293.15	0.106	0.065
0.6	293.15	0.125	0.075
0.7	293.15	0.134	0.08
0.8	293.15	0.136	0.082
0.9	293.15	0.139	0.083
1	293.15	0.141	0.085
0.4	298.15	0.11	0.067
0.5	298.15	0.139	0.084
0.6	298.15	0.161	0.097
0.7	298.15	0.168	0.101
0.8	298.15	0.178	0.107
0.9	298.15	0.181	0.109
1	298.15	0.183	0.11
0.4	303.15	0.147	0.089
0.5	303.15	0.189	0.114
0.6	303.15	0.201	0.121
0.7	303.15	0.215	0.129
0.8	303.15	0.216	0.13
0.9	303.15	0.22	0.132
1	303.15	0.224	0.134
0.4	308.15	0.216	0.13
0.5	308.15	0.254	0.153
0.6	308.15	0.256	0.154
0.7	308.15	0.259	0.155
0.8	308.15	0.272	0.163
0.9	308.15	0.279	0.167
1	308.15	0.283	0.17
0.4	313.15	0.286	0.172
0.5	313.15	0.323	0.194
0.6	313.15	0.327	0.196
0.7	313.15	0.332	0.199
0.8	313.15	0.333	0.2
0.9	313.15	0.337	0.202
1	313.15	0.34	0.204

System: propan-2-ol + 3-ethoxy-4-hydroxybenzaldehyde + water; phases: Liquid, Crystal
Fixed: Pressure, kPa = 100
Property: Mole fraction of 3-ethoxy-4-hydroxybenzaldehyde (Liquid); method: UV Spectroscopy
Solvent: Mole fraction of propan-2-ol	Temperature, K	Mole fraction of 3-ethoxy-4-hydroxybenzaldehyde	uncertainty
0.4	273.15	0.032	0.0195
0.5	273.15	0.0399	0.0242
0.6	273.15	0.0469	0.0282
0.7	273.15	0.0478	0.0287
0.8	273.15	0.0477	0.0286
0.9	273.15	0.0418	0.0251
1	273.15	0.0336	0.0202
0.4	278.15	0.0417	0.0254
0.5	278.15	0.0533	0.0323
0.6	278.15	0.0601	0.0361
0.7	278.15	0.0621	0.0373
0.8	278.15	0.0607	0.0364
0.9	278.15	0.0539	0.0324
1	278.15	0.0433	0.026
0.4	283.15	0.0551	0.0336
0.5	283.15	0.071	0.043
0.6	283.15	0.0771	0.0463
0.7	283.15	0.0799	0.0479
0.8	283.15	0.0761	0.0457
0.9	283.15	0.0692	0.0415
1	283.15	0.0552	0.0331
0.4	288.15	0.0705	0.0426
0.5	288.15	0.088	0.0532
0.6	288.15	0.0978	0.0587
0.7	288.15	0.101	0.061
0.8	288.15	0.0955	0.0573
0.9	288.15	0.0862	0.0517
1	288.15	0.072	0.0432
0.4	293.15	0.102	0.062
0.5	293.15	0.122	0.073
0.6	293.15	0.128	0.077
0.7	293.15	0.136	0.082
0.8	293.15	0.128	0.077
0.9	293.15	0.115	0.069
1	293.15	0.0957	0.0574
0.4	298.15	0.127	0.077
0.5	298.15	0.151	0.091
0.6	298.15	0.162	0.097
0.7	298.15	0.165	0.099
0.8	298.15	0.158	0.095
0.9	298.15	0.144	0.086
1	298.15	0.124	0.074
0.4	303.15	0.173	0.104
0.5	303.15	0.196	0.118
0.6	303.15	0.208	0.125
0.7	303.15	0.21	0.126
0.8	303.15	0.202	0.121
0.9	303.15	0.188	0.113
1	303.15	0.166	0.1
0.4	308.15	0.229	0.138
0.5	308.15	0.255	0.153
0.6	308.15	0.262	0.157
0.7	308.15	0.264	0.158
0.8	308.15	0.253	0.152
0.9	308.15	0.242	0.145
1	308.15	0.221	0.133
0.4	313.15	0.29	0.174
0.5	313.15	0.311	0.187
0.6	313.15	0.32	0.192
0.7	313.15	0.324	0.194
0.8	313.15	0.311	0.187
0.9	313.15	0.304	0.182
1	313.15	0.294	0.176

System: acetone + 3-ethoxy-4-hydroxybenzaldehyde; phases: Liquid, Crystal
Fixed: Pressure, kPa = 100
Property: Mole fraction of 3-ethoxy-4-hydroxybenzaldehyde (Liquid); method: UV Spectroscopy
Temperature, K	Mole fraction of 3-ethoxy-4-hydroxybenzaldehyde	uncertainty
273.15	0.199	0.119
278.15	0.216	0.13
283.15	0.237	0.142
288.15	0.271	0.163
293.15	0.3	0.18
298.15	0.33	0.198
303.15	0.369	0.221
308.15	0.416	0.25
313.15	0.459	0.275

System: methanol + 3-ethoxy-4-hydroxybenzaldehyde; phases: Liquid, Crystal
Fixed: Pressure, kPa = 100
Property: Mole fraction of 3-ethoxy-4-hydroxybenzaldehyde (Liquid); method: UV Spectroscopy
Temperature, K	Mole fraction of 3-ethoxy-4-hydroxybenzaldehyde	uncertainty
273.15	0.0867	0.052
278.15	0.114	0.068
283.15	0.147	0.088
288.15	0.181	0.109
293.15	0.214	0.128
298.15	0.257	0.154
303.15	0.307	0.184
308.15	0.358	0.215
313.15	0.418	0.251

System: ethanol + 3-ethoxy-4-hydroxybenzaldehyde; phases: Liquid, Crystal
Fixed: Pressure, kPa = 100
Property: Mole fraction of 3-ethoxy-4-hydroxybenzaldehyde (Liquid); method: UV Spectroscopy
Temperature, K	Mole fraction of 3-ethoxy-4-hydroxybenzaldehyde	uncertainty
273.15	0.0564	0.0338
278.15	0.0721	0.0433
283.15	0.0911	0.0547
288.15	0.109	0.065
293.15	0.141	0.085
298.15	0.183	0.11
303.15	0.224	0.134
308.15	0.283	0.17
313.15	0.34	0.204

System: propan-2-ol + 3-ethoxy-4-hydroxybenzaldehyde; phases: Liquid, Crystal
Fixed: Pressure, kPa = 100
Property: Mole fraction of 3-ethoxy-4-hydroxybenzaldehyde (Liquid); method: UV Spectroscopy
Temperature, K	Mole fraction of 3-ethoxy-4-hydroxybenzaldehyde	uncertainty
273.15	0.0336	0.0202
278.15	0.0433	0.026
283.15	0.0552	0.0331
288.15	0.072	0.0432
293.15	0.0957	0.0574
298.15	0.124	0.074
303.15	0.166	0.1
308.15	0.221	0.133
313.15	0.294	0.176

System: 3,4-dihydroxybenzoic acid + methanol; phases: Liquid, Crystal
Fixed: Pressure, kPa = 100
Property: Mole fraction of 3,4-dihydroxybenzoic acid (Liquid); method: UV spectroscopy
Temperature, K	Mole fraction of 3,4-dihydroxybenzoic acid	uncertainty
293.15	0.03538	0.00286
298.15	0.04529	0.00368
303.15	0.06611	0.00537
308.15	0.09054	0.00734
313.15	0.12513	0.01014
318.15	0.1713	0.01383
