Measured thermophysical data. Ternary Vapor-Liquid Equilibrium Measurements and Modeling of Ethylene Glycol (1) + Water (2) + Methane (3) Systems at 6 and 12.5 MPa
Source: J. Chem. Eng. Data, 2018, 10.1021/acs.jced.8b00115
Compound 1: 1,2-ethanediol, C2H6O2, InChI=1S/C2H6O2/c3-1-2-4/h3-4H,1-2H2, purity 99.8%
Compound 2: water, H2O, InChI=1S/H2O/h1H2, purity 99.9%
Compound 3: methane, CH4, InChI=1S/CH4/h1H4

System: 1,2-ethanediol + water + methane; phases: Liquid, Gas
Property: Vapor or sublimation pressure, kPa (Liquid); method: Closed cell (Static) method
Temperature, K	Mass fraction of water	Mole fraction of methane	Vapor or sublimation pressure, kPa	uncertainty
288.2	0.1036	0.00478	5930	550
293.13	0.1037	0.00472	6000	500
298.29	0.1034	0.00484	5990	490
303.14	0.1019	0.00464	6000	480
313.15	0.1027	0.00487	6010	510
323.16	0.1024	0.00481	5990	430
288.16	0.106	0.00818	12530	560
293.14	0.1037	0.00832	12470	570
298.29	0.1012	0.00847	12470	580
303.14	0.1017	0.00851	12500	510
313.15	0.1029	0.0088	12490	440
323.19	0.1026	0.00856	12500	590
298.23	0.0501	0.00631	5990	430
298.23	0.0498	0.01075	12470	430
298.18	0.0113	0.00708	5980	380
298.17	0.0109	0.01247	12470	370

System: 1,2-ethanediol + water + methane; phases: Gas, Liquid
Property: Mole fraction of water (Gas); method: Titration method
Temperature, K	Mass fraction of water	Mole fraction of methane	Mole fraction of water	uncertainty
288.2	0.1036	0.00478	9.11e-05	1.18e-05
293.13	0.1037	0.00472	0.000113	4e-06
298.29	0.1034	0.00484	0.000148	1.1e-05
303.14	0.1019	0.00464	0.000211	2.2e-05
313.15	0.1027	0.00487	0.000315	3e-05
323.16	0.1024	0.00481	0.000553	6.5e-05
288.16	0.106	0.00818	5.71e-05	6.3e-06
293.14	0.1037	0.00832	7.15e-05	5.7e-06
298.29	0.1012	0.00847	9.48e-05	8.1e-06
303.14	0.1017	0.00851	0.000123	1.4e-05
313.15	0.1029	0.0088	0.000188	2e-05
323.19	0.1026	0.00856	0.000342	4.1e-05
298.23	0.0501	0.00631	9.42e-05	6.2e-06
298.23	0.0498	0.01075	5.87e-05	7e-06
298.18	0.0113	0.00708	3.08e-05	1.2e-06
298.17	0.0109	0.01247	1.95e-05	3.7e-06

System: 1,2-ethanediol + water + methane; phases: Gas, Liquid
Property: Mole fraction of 1,2-ethanediol (Gas); method: Chromatography
Temperature, K	Mass fraction of water	Mole fraction of methane	Mole fraction of 1,2-ethanediol	uncertainty
288.2	0.1036	0.00478	1.2e-06	6e-07
293.13	0.1037	0.00472	1.9e-06	9e-07
298.29	0.1034	0.00484	3.1e-06	2e-07
288.16	0.106	0.00818	1.9e-06	4e-07
293.14	0.1037	0.00832	2.8e-06	2e-07
298.29	0.1012	0.00847	4e-06	4e-07
298.23	0.0501	0.00631	3.7e-06	3e-07
298.23	0.0498	0.01075	4.3e-06	4e-07
298.18	0.0113	0.00708	4.5e-06	2e-07
298.17	0.0109	0.01247	5.9e-06	1e-06
