Measured thermophysical data. Vapor Liquid Equilibrium Data for Binary Systems of N,N-Dimethylacetamide with Cyclohexene, Cyclohexane, and Benzene Separately at Atmospheric Pressure
Source: J. Chem. Eng. Data, 2015, 10.1021/acs.jced.5b00011
Compound 1: cyclohexene, C6H10, InChI=1S/C6H10/c1-2-4-6-5-3-1/h1-2H,3-6H2, purity 99%
Compound 2: cyclohexane, C6H12, InChI=1S/C6H12/c1-2-4-6-5-3-1/h1-6H2, purity 99%
Compound 3: benzene, C6H6, InChI=1S/C6H6/c1-2-4-6-5-3-1/h1-6H, purity 99.5%
Compound 4: N,N-dimethylethanamide, C4H9NO, InChI=1S/C4H9NO/c1-4(6)5(2)3/h1-3H3, purity 98%

System: cyclohexene; phases: Liquid, Gas
Property: Vapor or sublimation pressure, kPa (Liquid); method: Ebulliometric method (Recirculating still)
Temperature, K	Vapor or sublimation pressure, kPa	uncertainty
356.15	101.325	0.554

System: cyclohexane; phases: Liquid, Gas
Property: Vapor or sublimation pressure, kPa (Liquid); method: Ebulliometric method (Recirculating still)
Temperature, K	Vapor or sublimation pressure, kPa	uncertainty
353.85	101.325	0.554

System: benzene; phases: Liquid, Gas
Property: Vapor or sublimation pressure, kPa (Liquid); method: Ebulliometric method (Recirculating still)
Temperature, K	Vapor or sublimation pressure, kPa	uncertainty
353.25	101.325	0.547

System: N,N-dimethylethanamide; phases: Liquid, Gas
Property: Vapor or sublimation pressure, kPa (Liquid); method: Ebulliometric method (Recirculating still)
Temperature, K	Vapor or sublimation pressure, kPa	uncertainty
439.25	101.325	0.581

System: cyclohexene + N,N-dimethylethanamide; phases: Gas, Liquid
Property: Mole fraction of cyclohexene (Gas); method: Chromatography
Temperature, K	Mole fraction of cyclohexene	Mole fraction of cyclohexene	uncertainty
439.25	0	0	
416.95	0.0795	0.5385	0.0197
409.95	0.1443	0.6612	0.0281
397.25	0.2116	0.7794	0.0128
387.25	0.2854	0.8511	0.0123
376.95	0.4982	0.9309	0.0139
373.25	0.54	0.9399	0.0126
369.45	0.6152	0.9587	0.0121
367.25	0.6602	0.9632	0.0121
365.15	0.6714	0.9704	0.012
363.25	0.7238	0.974	0.012
361.85	0.8447	0.9803	0.012
360.15	0.8744	0.9865	0.0121
358.95	0.913	0.9893	0.0107
357.65	0.9502	0.9939	0.0061
356.15	1	1	

System: cyclohexene + N,N-dimethylethanamide; phases: Gas, Liquid
Property: Vapor or sublimation pressure, kPa (Gas); method: Ebulliometric method (Recirculating still)
Temperature, K	Mole fraction of cyclohexene	Vapor or sublimation pressure, kPa	uncertainty
439.25	0	101.325	0.738
416.95	0.0795	101.325	0.738
409.95	0.1443	101.325	0.738
397.25	0.2116	101.325	0.738
387.25	0.2854	101.325	0.738
376.95	0.4982	101.325	0.738
373.25	0.54	101.325	0.738
369.45	0.6152	101.325	0.738
367.25	0.6602	101.325	0.738
365.15	0.6714	101.325	0.738
363.25	0.7238	101.325	0.738
361.85	0.8447	101.325	0.738
360.15	0.8744	101.325	0.738
358.95	0.913	101.325	0.738
357.65	0.9502	101.325	0.738
356.15	1	101.325	0.738

System: cyclohexane + N,N-dimethylethanamide; phases: Gas, Liquid
Property: Mole fraction of cyclohexane (Gas); method: Chromatography
Temperature, K	Mole fraction of cyclohexane	Mole fraction of cyclohexane	uncertainty
439.25	0	0	
415.15	0.1049	0.5863	0.3485
405.35	0.1522	0.6901	0.0157
389.45	0.2376	0.823	0.0127
376.25	0.3716	0.9059	0.0126
369.45	0.4769	0.9383	0.0122
367.35	0.4927	0.9427	0.0122
365.55	0.5565	0.9544	0.0121
361.25	0.6784	0.9651	0.012
360.35	0.7106	0.9696	0.012
359.45	0.7741	0.9768	0.012
358.45	0.8346	0.9768	0.012
357.55	0.8569	0.9813	0.0123
356.45	0.8982	0.984	0.012
355.35	0.9404	0.9867	0.0133
353.85	1	1	

System: cyclohexane + N,N-dimethylethanamide; phases: Gas, Liquid
Property: Vapor or sublimation pressure, kPa (Gas); method: Ebulliometric method (Recirculating still)
Temperature, K	Mole fraction of cyclohexane	Vapor or sublimation pressure, kPa	uncertainty
439.25	0	101.325	0.738
415.15	0.1049	101.325	0.738
405.35	0.1522	101.325	0.738
389.45	0.2376	101.325	0.738
376.25	0.3716	101.325	0.738
369.45	0.4769	101.325	0.738
367.35	0.4927	101.325	0.738
365.55	0.5565	101.325	0.738
361.25	0.6784	101.325	0.738
360.35	0.7106	101.325	0.738
359.45	0.7741	101.325	0.738
358.45	0.8346	101.325	0.738
357.55	0.8569	101.325	0.738
356.45	0.8982	101.325	0.738
355.35	0.9404	101.325	0.738
353.85	1	101.325	0.738

System: benzene + N,N-dimethylethanamide; phases: Gas, Liquid
Property: Mole fraction of benzene (Gas); method: Chromatography
Temperature, K	Mole fraction of benzene	Mole fraction of benzene	uncertainty
439.25	0	0	
422.65	0.0537	0.4051	0.0187
417.45	0.078	0.5237	0.0191
407.85	0.1229	0.6504	0.014
402.95	0.1463	0.7016	0.0136
391.15	0.2182	0.8059	0.0143
389.25	0.2461	0.8328	0.0171
382.35	0.2991	0.8822	0.0123
378.95	0.3341	0.8993	0.0121
375.95	0.3701	0.9154	0.0121
369.75	0.5237	0.9486	0.0123
365.65	0.5687	0.9585	0.012
363.25	0.6244	0.9656	0.012
361.55	0.7286	0.9746	0.012
357.65	0.7978	0.9823	0.012
355.15	0.9254	0.9938	0.0062
353.25	1	1	

System: benzene + N,N-dimethylethanamide; phases: Gas, Liquid
Property: Vapor or sublimation pressure, kPa (Gas); method: Ebulliometric method (Recirculating still)
Temperature, K	Mole fraction of benzene	Vapor or sublimation pressure, kPa	uncertainty
439.25	0	101.325	0.718
422.65	0.0537	101.325	0.718
417.45	0.078	101.325	0.718
407.85	0.1229	101.325	0.718
402.95	0.1463	101.325	0.718
391.15	0.2182	101.325	0.718
389.25	0.2461	101.325	0.718
382.35	0.2991	101.325	0.718
378.95	0.3341	101.325	0.718
375.95	0.3701	101.325	0.718
369.75	0.5237	101.325	0.718
365.65	0.5687	101.325	0.718
363.25	0.6244	101.325	0.718
361.55	0.7286	101.325	0.718
357.65	0.7978	101.325	0.718
355.15	0.9254	101.325	0.718
353.25	1	101.325	0.718
