Measured thermophysical data. Isobaric Vapor-Liquid Equilibrium for Binary and Ternary Systems of tert-Butanol + tert-Butyl Acetate + Chlorobenzene at 101.33 kPa
Source: J. Chem. Eng. Data, 2018, 10.1021/acs.jced.7b01021
Compound 1: 2-methylpropan-2-ol, C4H10O, InChI=1S/C4H10O/c1-4(2,3)5/h5H,1-3H3, purity 99.79%
Compound 2: 1,1-dimethylethyl ethanoate, C6H12O2, InChI=1S/C6H12O2/c1-5(7)8-6(2,3)4/h1-4H3, purity 99.9%
Compound 3: chlorobenzene, C6H5Cl, InChI=1S/C6H5Cl/c7-6-4-2-1-3-5-6/h1-5H, purity 99.91%

System: 2-methylpropan-2-ol; phases: Liquid, Gas
Property: Vapor or sublimation pressure, kPa (Liquid); method: Ebulliometric method (Recirculating still)
Temperature, K	Vapor or sublimation pressure, kPa	uncertainty
355.59	101.33	0.71

System: 1,1-dimethylethyl ethanoate; phases: Liquid, Gas
Property: Vapor or sublimation pressure, kPa (Liquid); method: Ebulliometric method (Recirculating still)
Temperature, K	Vapor or sublimation pressure, kPa	uncertainty
371.05	101.33	0.71

System: chlorobenzene; phases: Liquid, Gas
Property: Vapor or sublimation pressure, kPa (Liquid); method: Ebulliometric method (Recirculating still)
Temperature, K	Vapor or sublimation pressure, kPa	uncertainty
404.8	101.33	0.71

System: 2-methylpropan-2-ol + chlorobenzene; phases: Liquid, Gas
Fixed: Pressure, kPa = 101.33
Property: Boiling temperature at pressure P, K (Liquid); method: Ebulliometric method (Recirculating still)
Mole fraction of 2-methylpropan-2-ol	Boiling temperature at pressure P, K	uncertainty
1	355.59	0.16
0.8859	356.5	0.18
0.8536	356.95	0.18
0.8156	357.15	0.19
0.7455	358.05	0.2
0.7101	358.45	0.21
0.6223	359.75	0.23
0.5364	361.25	0.24
0.462	362.65	0.26
0.4263	363.5	0.31
0.3671	365.15	0.36
0.2707	368.55	0.49
0.1781	373.85	0.73
0.1128	379.95	1.09
0.0715	385.45	1.56
0.046	390.45	2.35
0.0309	395.15	2.94
0.0207	397.85	2.94
0.0073	402.05	2.29
0	404.8	0.16

System: 2-methylpropan-2-ol + chlorobenzene; phases: Gas, Liquid
Fixed: Pressure, kPa = 101.33
Property: Mole fraction of 2-methylpropan-2-ol (Gas); method: Chromatography
Mole fraction of 2-methylpropan-2-ol	Mole fraction of 2-methylpropan-2-ol	uncertainty
1	1	
0.8859	0.9502	0.0109
0.8536	0.9382	0.0107
0.8156	0.924	0.0106
0.7455	0.901	0.0106
0.7101	0.8893	0.0105
0.6223	0.8647	0.0105
0.5364	0.8391	0.0106
0.462	0.8155	0.0106
0.4263	0.8046	0.0108
0.3671	0.78	0.0112
0.2707	0.7313	0.0122
0.1781	0.6547	0.0151
0.1128	0.557	0.0215
0.0715	0.4515	0.0322
0.046	0.351	0.0459
0.0309	0.2677	0.0603
0.0207	0.1999	0.0793
0.0073	0.0831	0.0644
0	0	

System: 1,1-dimethylethyl ethanoate + chlorobenzene; phases: Liquid, Gas
Fixed: Pressure, kPa = 101.33
Property: Boiling temperature at pressure P, K (Liquid); method: Ebulliometric method (Recirculating still)
Mole fraction of 1,1-dimethylethyl ethanoate	Boiling temperature at pressure P, K	uncertainty
1	371.05	0.16
0.9514	371.29	0.2
0.9123	372.13	0.3
0.8244	374.51	0.34
0.7381	377.43	0.37
0.6495	380.32	0.43
0.5562	384.7	0.53
0.5093	387.45	0.49
0.4499	389.61	0.45
0.4048	391.86	0.46
0.3685	393.12	0.4
0.3255	394.8	0.4
0.2899	396.03	0.4
0.2385	397.96	0.43
0.1981	399.75	0.41
0.1677	400.62	0.32
0.1135	402.06	0.32
0.0597	403.67	0.32
0.0313	404.31	0.25
0	404.8	0.16

System: 1,1-dimethylethyl ethanoate + chlorobenzene; phases: Gas, Liquid
Fixed: Pressure, kPa = 101.33
Property: Mole fraction of 1,1-dimethylethyl ethanoate (Gas); method: Chromatography
Mole fraction of 1,1-dimethylethyl ethanoate	Mole fraction of 1,1-dimethylethyl ethanoate	uncertainty
1	1	
0.9514	0.9891	0.0103
0.9123	0.9789	0.0105
0.8244	0.9497	0.0107
0.7381	0.9111	0.0113
0.6495	0.8575	0.0123
0.5562	0.7831	0.0133
0.5093	0.7371	0.0147
0.4499	0.6709	0.0156
0.4048	0.6151	0.0162
0.3685	0.5706	0.0175
0.3255	0.5054	0.0185
0.2899	0.4527	0.0184
0.2385	0.375	0.0189
0.1981	0.308	0.0191
0.1677	0.2614	0.0189
0.1135	0.174	0.0189
0.0597	0.0895	0.0185
0.0313	0.046	0.018
0	0	

System: 2-methylpropan-2-ol + 1,1-dimethylethyl ethanoate + chlorobenzene; phases: Liquid, Gas
Fixed: Pressure, kPa = 101.33
Property: Mole fraction of 1,1-dimethylethyl ethanoate (Liquid); method: Chromatography
Property: Mole fraction of 1,1-dimethylethyl ethanoate (Gas); method: Chromatography
Property: Mole fraction of 2-methylpropan-2-ol (Gas); method: Chromatography
Temperature, K	Mole fraction of 2-methylpropan-2-ol	Mole fraction of 1,1-dimethylethyl ethanoate	uncertainty	Mole fraction of 1,1-dimethylethyl ethanoate	uncertainty	Mole fraction of 2-methylpropan-2-ol	uncertainty
363.85	0.5222	0.0152	0.01	0.0066	0.0066	0.8044	
379.2	0.0709	0.4294	0.0105	0.42	0.0106	0.3565	
381.82	0.0453	0.4609	0.0105	0.5243	0.0108	0.2314	
385.55	0.0205	0.484	0.0106	0.6142	0.0105	0.1266	
364.25	0.483	0.04	0.01	0.0177	0.01	0.7884	
364.55	0.4802	0.0366	0.01	0.0162	0.01	0.7877	
364.8	0.4181	0.1079	0.01	0.0491	0.01	0.7619	
366.65	0.3151	0.1712	0.0101	0.0761	0.01	0.7316	
367.55	0.2699	0.219	0.0101	0.1101	0.01	0.698	
369.55	0.2257	0.2694	0.0102	0.1587	0.0101	0.651	
371.65	0.167	0.323	0.0103	0.213	0.0102	0.585	
375.32	0.1123	0.3903	0.0104	0.307	0.0103	0.47	
