Measured thermophysical data. Isothermal Vapor Liquid Equilibrium Data for the Methanol + Benzene + Tetraphenylphosphonium Chloride System
Source: J. Chem. Eng. Data, 2016, 10.1021/acs.jced.5b00770
Compound 1: methanol, CH4O, InChI=1S/CH4O/c1-2/h2H,1H3, purity 99.7%
Compound 2: benzene, C6H6, InChI=1S/C6H6/c1-2-4-6-5-3-1/h1-6H, purity 99.7%
Compound 3: tetraphenylphosphonium chloride, C24H20ClP, InChI=1S/C24H20P.ClH/c1-5-13-21(14-6-1)25(22-15-7-2-8-16-22,23-17-9-3-10-18-23)24-19-11-4-12-20-24;/h1-20H;1H/q+1;/p-1, purity 99%

System: tetraphenylphosphonium chloride; phases: Crystal, Liquid, Air at 1 atmosphere
Property: Normal melting temperature, K (Crystal); method: VISOBS
Normal melting temperature, K	uncertainty
549.65	0.9

System: methanol + benzene + tetraphenylphosphonium chloride; phases: Gas, Liquid
Property: Mole fraction of methanol (Gas); method: Chromatography
Molality, mol/kg of tetraphenylphosphonium chloride	Mole fraction of methanol	Temperature, K	Mole fraction of methanol	uncertainty
0	0.04	308.15	0.352	0.016
0	0.081	308.15	0.422	0.012
0	0.17	308.15	0.498	0.011
0	0.21	308.15	0.509	0.009
0	0.26	308.15	0.523	0.009
0	0.36	308.15	0.539	0.009
0	0.41	308.15	0.544	0.009
0	0.45	308.15	0.551	0.009
0	0.56	308.15	0.561	0.009
0	0.602	308.15	0.572	0.009
0	0.681	308.15	0.596	0.009
0	0.731	308.15	0.617	0.01
0	0.84	308.15	0.678	0.01
0	0.881	308.15	0.718	0.014
0	0.95	308.15	0.821	0.014
0.1	0.04	308.15	0.356	0.017
0.1	0.081	308.15	0.432	0.013
0.1	0.17	308.15	0.519	0.011
0.1	0.21	308.15	0.535	0.01
0.1	0.26	308.15	0.553	0.009
0.1	0.36	308.15	0.58	0.009
0.1	0.41	308.15	0.59	0.009
0.1	0.45	308.15	0.601	0.009
0.1	0.56	308.15	0.622	0.009
0.1	0.602	308.15	0.634	0.009
0.1	0.681	308.15	0.665	0.009
0.1	0.731	308.15	0.686	0.01
0.1	0.84	308.15	0.746	0.01
0.1	0.881	308.15	0.78	0.012
0.1	0.95	308.15	0.863	0.012
0.2	0.04	308.15	0.36	0.018
0.2	0.081	308.15	0.439	0.013
0.2	0.17	308.15	0.532	0.012
0.2	0.21	308.15	0.55	0.01
0.2	0.26	308.15	0.572	0.009
0.2	0.36	308.15	0.605	0.009
0.2	0.41	308.15	0.618	0.009
0.2	0.45	308.15	0.631	0.009
0.2	0.56	308.15	0.659	0.009
0.2	0.602	308.15	0.673	0.009
0.2	0.681	308.15	0.706	0.009
0.2	0.731	308.15	0.728	0.009
0.2	0.84	308.15	0.786	0.009
0.2	0.881	308.15	0.817	0.011
0.2	0.95	308.15	0.888	0.012
0.3	0.04	308.15	0.364	0.018
0.3	0.081	308.15	0.446	0.014
0.3	0.17	308.15	0.545	0.012
0.3	0.21	308.15	0.566	0.01
0.3	0.26	308.15	0.59	0.009
0.3	0.36	308.15	0.63	0.009
0.3	0.41	308.15	0.646	0.009
0.3	0.45	308.15	0.661	0.009
0.3	0.56	308.15	0.696	0.009
0.3	0.602	308.15	0.712	0.009
0.3	0.681	308.15	0.747	0.009
0.3	0.731	308.15	0.77	0.009
0.3	0.84	308.15	0.827	0.009
0.3	0.881	308.15	0.854	0.01
0.3	0.95	308.15	0.914	0.011
0.5	0.04	308.15	0.372	0.019
0.5	0.081	308.15	0.459	0.015
0.5	0.17	308.15	0.571	0.012
0.5	0.21	308.15	0.597	0.01
0.5	0.26	308.15	0.628	0.01
0.5	0.36	308.15	0.68	0.009
0.5	0.41	308.15	0.702	0.009
0.5	0.45	308.15	0.722	0.009
0.5	0.56	308.15	0.77	0.009
0.5	0.602	308.15	0.789	0.009
0.5	0.681	308.15	0.83	0.009
0.5	0.731	308.15	0.854	0.009
0.5	0.84	308.15	0.908	0.009
0.5	0.881	308.15	0.929	0.009
0.5	0.95	308.15	0.965	0.009
0	0.062	328.15	0.442	0.009
0	0.081	328.15	0.468	0.01
0	0.148	328.15	0.501	0.01
0	0.222	328.15	0.527	0.009
0	0.268	328.15	0.541	0.009
0	0.36	328.15	0.564	0.009
0	0.41	328.15	0.573	0.009
0	0.45	328.15	0.579	0.009
0	0.543	328.15	0.591	0.009
0	0.582	328.15	0.603	0.009
0	0.661	328.15	0.613	0.009
0	0.723	328.15	0.631	0.01
0	0.832	328.15	0.697	0.01
0	0.87	328.15	0.742	0.014
0	0.95	328.15	0.853	0.014
0.1	0.062	328.15	0.45	0.009
0.1	0.081	328.15	0.479	0.011
0.1	0.148	328.15	0.52	0.01
0.1	0.222	328.15	0.553	0.01
0.1	0.268	328.15	0.572	0.009
0.1	0.36	328.15	0.603	0.009
0.1	0.41	328.15	0.617	0.009
0.1	0.45	328.15	0.626	0.009
0.1	0.543	328.15	0.646	0.009
0.1	0.582	328.15	0.661	0.009
0.1	0.661	328.15	0.676	0.009
0.1	0.723	328.15	0.698	0.009
0.1	0.832	328.15	0.76	0.01
0.1	0.87	328.15	0.798	0.012
0.1	0.95	328.15	0.888	0.012
0.2	0.062	328.15	0.455	0.015
0.2	0.081	328.15	0.485	0.011
0.2	0.148	328.15	0.531	0.01
0.2	0.222	328.15	0.569	0.01
0.2	0.268	328.15	0.59	0.009
0.2	0.36	328.15	0.627	0.009
0.2	0.41	328.15	0.643	0.009
0.2	0.45	328.15	0.655	0.009
0.2	0.543	328.15	0.68	0.009
0.2	0.582	328.15	0.695	0.009
0.2	0.661	328.15	0.715	0.009
0.2	0.723	328.15	0.737	0.009
0.2	0.832	328.15	0.797	0.01
0.2	0.87	328.15	0.832	0.011
0.2	0.95	328.15	0.909	0.011
0.3	0.062	328.15	0.46	0.009
0.3	0.081	328.15	0.491	0.011
0.3	0.148	328.15	0.542	0.01
0.3	0.222	328.15	0.585	0.01
0.3	0.268	328.15	0.609	0.009
0.3	0.36	328.15	0.65	0.009
0.3	0.41	328.15	0.67	0.009
0.3	0.45	328.15	0.683	0.009
0.3	0.543	328.15	0.713	0.009
0.3	0.582	328.15	0.73	0.009
0.3	0.661	328.15	0.753	0.009
0.3	0.723	328.15	0.777	0.009
0.3	0.832	328.15	0.835	0.009
0.3	0.87	328.15	0.866	0.01
0.3	0.95	328.15	0.93	0.01
0.5	0.062	328.15	0.47	0.009
0.5	0.081	328.15	0.504	0.012
0.5	0.148	328.15	0.565	0.011
0.5	0.222	328.15	0.616	0.01
0.5	0.268	328.15	0.646	0.01
0.5	0.36	328.15	0.698	0.01
0.5	0.41	328.15	0.722	0.009
0.5	0.45	328.15	0.74	0.009
0.5	0.543	328.15	0.779	0.009
0.5	0.582	328.15	0.799	0.009
0.5	0.661	328.15	0.83	0.009
0.5	0.723	328.15	0.857	0.009
0.5	0.832	328.15	0.911	0.009
0.5	0.87	328.15	0.933	0.009
0.5	0.95	328.15	0.972	0.009

System: methanol + benzene + tetraphenylphosphonium chloride; phases: Gas, Liquid
Property: Mole fraction of benzene (Gas); method: Chromatography
Molality, mol/kg of tetraphenylphosphonium chloride	Mole fraction of methanol	Temperature, K	Mole fraction of benzene	uncertainty
0	0.04	308.15	0.648	0.016
0	0.081	308.15	0.578	0.012
0	0.17	308.15	0.502	0.011
0	0.21	308.15	0.491	0.009
0	0.26	308.15	0.477	0.009
0	0.36	308.15	0.461	0.009
0	0.41	308.15	0.456	0.009
0	0.45	308.15	0.449	0.009
0	0.56	308.15	0.439	0.009
0	0.602	308.15	0.428	0.009
0	0.681	308.15	0.404	0.009
0	0.731	308.15	0.383	0.01
0	0.84	308.15	0.322	0.01
0	0.881	308.15	0.282	0.013
0	0.95	308.15	0.179	0.014
0.1	0.04	308.15	0.644	0.017
0.1	0.081	308.15	0.568	0.013
0.1	0.17	308.15	0.481	0.011
0.1	0.21	308.15	0.465	0.009
0.1	0.26	308.15	0.447	0.009
0.1	0.36	308.15	0.42	0.009
0.1	0.41	308.15	0.41	0.009
0.1	0.45	308.15	0.399	0.009
0.1	0.56	308.15	0.378	0.009
0.1	0.602	308.15	0.366	0.009
0.1	0.681	308.15	0.335	0.009
0.1	0.731	308.15	0.314	0.01
0.1	0.84	308.15	0.254	0.009
0.1	0.881	308.15	0.22	0.012
0.1	0.95	308.15	0.137	0.012
0.2	0.04	308.15	0.64	0.018
0.2	0.081	308.15	0.561	0.013
0.2	0.17	308.15	0.468	0.012
0.2	0.21	308.15	0.45	0.01
0.2	0.26	308.15	0.428	0.009
0.2	0.36	308.15	0.395	0.009
0.2	0.41	308.15	0.382	0.009
0.2	0.45	308.15	0.369	0.009
0.2	0.56	308.15	0.341	0.009
0.2	0.602	308.15	0.327	0.009
0.2	0.681	308.15	0.294	0.009
0.2	0.731	308.15	0.272	0.009
0.2	0.84	308.15	0.214	0.009
0.2	0.881	308.15	0.183	0.011
0.2	0.95	308.15	0.112	0.012
0.3	0.04	308.15	0.636	0.018
0.3	0.081	308.15	0.554	0.014
0.3	0.17	308.15	0.455	0.012
0.3	0.21	308.15	0.434	0.01
0.3	0.26	308.15	0.41	0.009
0.3	0.36	308.15	0.37	0.009
0.3	0.41	308.15	0.354	0.009
0.3	0.45	308.15	0.339	0.009
0.3	0.56	308.15	0.304	0.009
0.3	0.602	308.15	0.288	0.009
0.3	0.681	308.15	0.253	0.009
0.3	0.731	308.15	0.23	0.009
0.3	0.84	308.15	0.173	0.009
0.3	0.881	308.15	0.146	0.01
0.3	0.95	308.15	0.086	0.011
0.5	0.04	308.15	0.628	0.019
0.5	0.081	308.15	0.541	0.015
0.5	0.17	308.15	0.429	0.012
0.5	0.21	308.15	0.403	0.01
0.5	0.26	308.15	0.372	0.01
0.5	0.36	308.15	0.32	0.009
0.5	0.41	308.15	0.298	0.009
0.5	0.45	308.15	0.278	0.009
0.5	0.56	308.15	0.23	0.009
0.5	0.602	308.15	0.211	0.009
0.5	0.681	308.15	0.17	0.009
0.5	0.731	308.15	0.146	0.009
0.5	0.84	308.15	0.092	0.009
0.5	0.881	308.15	0.071	0.009
0.5	0.95	308.15	0.035	0.009
0	0.062	328.15	0.558	0.009
0	0.081	328.15	0.532	0.01
0	0.148	328.15	0.499	0.01
0	0.222	328.15	0.473	0.009
0	0.268	328.15	0.459	0.009
0	0.36	328.15	0.436	0.009
0	0.41	328.15	0.427	0.009
0	0.45	328.15	0.421	0.009
0	0.543	328.15	0.409	0.009
0	0.582	328.15	0.397	0.009
0	0.661	328.15	0.387	0.009
0	0.723	328.15	0.369	0.01
0	0.832	328.15	0.303	0.01
0	0.87	328.15	0.258	0.014
0	0.95	328.15	0.147	0.014
0.1	0.062	328.15	0.55	0.009
0.1	0.081	328.15	0.521	0.011
0.1	0.148	328.15	0.48	0.01
0.1	0.222	328.15	0.447	0.01
0.1	0.268	328.15	0.428	0.009
0.1	0.36	328.15	0.397	0.009
0.1	0.41	328.15	0.383	0.009
0.1	0.45	328.15	0.374	0.009
0.1	0.543	328.15	0.354	0.009
0.1	0.582	328.15	0.339	0.009
0.1	0.661	328.15	0.324	0.009
0.1	0.723	328.15	0.302	0.009
0.1	0.832	328.15	0.24	0.01
0.1	0.87	328.15	0.202	0.012
0.1	0.95	328.15	0.112	0.012
0.2	0.062	328.15	0.545	0.015
0.2	0.081	328.15	0.515	0.011
0.2	0.148	328.15	0.469	0.01
0.2	0.222	328.15	0.431	0.01
0.2	0.268	328.15	0.41	0.009
0.2	0.36	328.15	0.373	0.009
0.2	0.41	328.15	0.357	0.009
0.2	0.45	328.15	0.345	0.009
0.2	0.543	328.15	0.32	0.009
0.2	0.582	328.15	0.305	0.009
0.2	0.661	328.15	0.285	0.009
0.2	0.723	328.15	0.263	0.009
0.2	0.832	328.15	0.203	0.01
0.2	0.87	328.15	0.168	0.011
0.2	0.95	328.15	0.091	0.011
0.3	0.062	328.15	0.54	0.009
0.3	0.081	328.15	0.509	0.011
0.3	0.148	328.15	0.458	0.01
0.3	0.222	328.15	0.415	0.01
0.3	0.268	328.15	0.391	0.009
0.3	0.36	328.15	0.35	0.009
0.3	0.41	328.15	0.33	0.009
0.3	0.45	328.15	0.317	0.009
0.3	0.543	328.15	0.287	0.009
0.3	0.582	328.15	0.27	0.009
0.3	0.661	328.15	0.247	0.009
0.3	0.723	328.15	0.223	0.009
0.3	0.832	328.15	0.165	0.009
0.3	0.87	328.15	0.134	0.01
0.3	0.95	328.15	0.07	0.01
0.5	0.062	328.15	0.53	0.009
0.5	0.081	328.15	0.496	0.012
0.5	0.148	328.15	0.435	0.011
0.5	0.222	328.15	0.384	0.01
0.5	0.268	328.15	0.354	0.01
0.5	0.36	328.15	0.302	0.009
0.5	0.41	328.15	0.278	0.009
0.5	0.45	328.15	0.26	0.009
0.5	0.543	328.15	0.221	0.009
0.5	0.582	328.15	0.201	0.009
0.5	0.661	328.15	0.17	0.009
0.5	0.723	328.15	0.143	0.009
0.5	0.832	328.15	0.089	0.009
0.5	0.87	328.15	0.067	0.009
0.5	0.95	328.15	0.028	0.009

System: methanol + benzene + tetraphenylphosphonium chloride; phases: Gas, Liquid
Property: Mole fraction of tetraphenylphosphonium chloride (Gas); method: Chromatography
Molality, mol/kg of tetraphenylphosphonium chloride	Mole fraction of methanol	Temperature, K	Mole fraction of tetraphenylphosphonium chloride	uncertainty
0	0.04	308.15	0	
0	0.081	308.15	0	
0	0.17	308.15	0	
0	0.21	308.15	0	
0	0.26	308.15	0	
0	0.36	308.15	0	
0	0.41	308.15	0	
0	0.45	308.15	0	
0	0.56	308.15	0	
0	0.602	308.15	0	
0	0.681	308.15	0	
0	0.731	308.15	0	
0	0.84	308.15	0	
0	0.881	308.15	0	
0	0.95	308.15	0	
0.1	0.04	308.15	0	
0.1	0.081	308.15	0	
0.1	0.17	308.15	0	
0.1	0.21	308.15	0	
0.1	0.26	308.15	0	
0.1	0.36	308.15	0	
0.1	0.41	308.15	0	
0.1	0.45	308.15	0	
0.1	0.56	308.15	0	
0.1	0.602	308.15	0	
0.1	0.681	308.15	0	
0.1	0.731	308.15	0	
0.1	0.84	308.15	0	
0.1	0.881	308.15	0	
0.1	0.95	308.15	0	
0.2	0.04	308.15	0	
0.2	0.081	308.15	0	
0.2	0.17	308.15	0	
0.2	0.21	308.15	0	
0.2	0.26	308.15	0	
0.2	0.36	308.15	0	
0.2	0.41	308.15	0	
0.2	0.45	308.15	0	
0.2	0.56	308.15	0	
0.2	0.602	308.15	0	
0.2	0.681	308.15	0	
0.2	0.731	308.15	0	
0.2	0.84	308.15	0	
0.2	0.881	308.15	0	
0.2	0.95	308.15	0	
0.3	0.04	308.15	0	
0.3	0.081	308.15	0	
0.3	0.17	308.15	0	
0.3	0.21	308.15	0	
0.3	0.26	308.15	0	
0.3	0.36	308.15	0	
0.3	0.41	308.15	0	
0.3	0.45	308.15	0	
0.3	0.56	308.15	0	
0.3	0.602	308.15	0	
0.3	0.681	308.15	0	
0.3	0.731	308.15	0	
0.3	0.84	308.15	0	
0.3	0.881	308.15	0	
0.3	0.95	308.15	0	
0.5	0.04	308.15	0	
0.5	0.081	308.15	0	
0.5	0.17	308.15	0	
0.5	0.21	308.15	0	
0.5	0.26	308.15	0	
0.5	0.36	308.15	0	
0.5	0.41	308.15	0	
0.5	0.45	308.15	0	
0.5	0.56	308.15	0	
0.5	0.602	308.15	0	
0.5	0.681	308.15	0	
0.5	0.731	308.15	0	
0.5	0.84	308.15	0	
0.5	0.881	308.15	0	
0.5	0.95	308.15	0	
0	0.062	328.15	0	
0	0.081	328.15	0	
0	0.148	328.15	0	
0	0.222	328.15	0	
0	0.268	328.15	0	
0	0.36	328.15	0	
0	0.41	328.15	0	
0	0.45	328.15	0	
0	0.543	328.15	0	
0	0.582	328.15	0	
0	0.661	328.15	0	
0	0.723	328.15	0	
0	0.832	328.15	0	
0	0.87	328.15	0	
0	0.95	328.15	0	
0.1	0.062	328.15	0	
0.1	0.081	328.15	0	
0.1	0.148	328.15	0	
0.1	0.222	328.15	0	
0.1	0.268	328.15	0	
0.1	0.36	328.15	0	
0.1	0.41	328.15	0	
0.1	0.45	328.15	0	
0.1	0.543	328.15	0	
0.1	0.582	328.15	0	
0.1	0.661	328.15	0	
0.1	0.723	328.15	0	
0.1	0.832	328.15	0	
0.1	0.87	328.15	0	
0.1	0.95	328.15	0	
0.2	0.062	328.15	0	
0.2	0.081	328.15	0	
0.2	0.148	328.15	0	
0.2	0.222	328.15	0	
0.2	0.268	328.15	0	
0.2	0.36	328.15	0	
0.2	0.41	328.15	0	
0.2	0.45	328.15	0	
0.2	0.543	328.15	0	
0.2	0.582	328.15	0	
0.2	0.661	328.15	0	
0.2	0.723	328.15	0	
0.2	0.832	328.15	0	
0.2	0.87	328.15	0	
0.2	0.95	328.15	0	
0.3	0.062	328.15	0	
0.3	0.081	328.15	0	
0.3	0.148	328.15	0	
0.3	0.222	328.15	0	
0.3	0.268	328.15	0	
0.3	0.36	328.15	0	
0.3	0.41	328.15	0	
0.3	0.45	328.15	0	
0.3	0.543	328.15	0	
0.3	0.582	328.15	0	
0.3	0.661	328.15	0	
0.3	0.723	328.15	0	
0.3	0.832	328.15	0	
0.3	0.87	328.15	0	
0.3	0.95	328.15	0	
0.5	0.062	328.15	0	
0.5	0.081	328.15	0	
0.5	0.148	328.15	0	
0.5	0.222	328.15	0	
0.5	0.268	328.15	0	
0.5	0.36	328.15	0	
0.5	0.41	328.15	0	
0.5	0.45	328.15	0	
0.5	0.543	328.15	0	
0.5	0.582	328.15	0	
0.5	0.661	328.15	0	
0.5	0.723	328.15	0	
0.5	0.832	328.15	0	
0.5	0.87	328.15	0	
0.5	0.95	328.15	0	

System: methanol + benzene; phases: Gas, Liquid
Property: Boiling temperature at pressure P, K (Gas); method: Closed cell (Static) method
Mole fraction of methanol	Mole fraction of methanol	Boiling temperature at pressure P, K	uncertainty
0.04	0.352	308.15	2.13
0.081	0.422	308.15	3.71
0.17	0.498	308.15	9.66
0.21	0.509	308.15	12.3
0.26	0.523	308.15	10.75
0.36	0.539	308.15	5.88
0.41	0.544	308.15	5.55
0.45	0.551	308.15	5.42
0.56	0.561	308.15	5.43
0.602	0.572	308.15	4.57
0.681	0.596	308.15	8.26
0.731	0.617	308.15	10.21
0.84	0.678	308.15	7.85
0.881	0.718	308.15	6.7
0.95	0.821	308.15	5.63
0.062	0.442	328.15	2
0.081	0.468	328.15	4.58
0.148	0.501	328.15	9.66
0.222	0.527	328.15	11.35
0.268	0.541	328.15	9.69
0.36	0.564	328.15	6.5
0.41	0.573	328.15	5.58
0.45	0.579	328.15	5.78
0.543	0.591	328.15	5.01
0.582	0.603	328.15	4.81
0.661	0.613	328.15	6.83
0.723	0.631	328.15	10.21
0.832	0.697	328.15	8.34
0.87	0.742	328.15	6.08
0.95	0.853	328.15	6.05
