Measured thermophysical data. Solubility and Solvent Effect of 1-(2-Bromo-phenyl)-pyrrole-2,5-dione in 14 Pure Solvents from 278.15 to 323.15 K
Source: J. Chem. Eng. Data, 2019, 10.1021/acs.jced.9b00560
Compound 1: 1-(2-bromophenyl)-pyrrole-2,5-dione, C10H6BrNO2, InChI=1S/C10H6BrNO2/c11-7-3-1-2-4-8(7)12-9(13)5-6-10(12)14/h1-6H, purity 98.1%
Compound 2: methanol, CH4O, InChI=1S/CH4O/c1-2/h2H,1H3, purity 99.5%
Compound 3: ethanol, C2H6O, InChI=1S/C2H6O/c1-2-3/h3H,2H2,1H3, purity 99.7%
Compound 4: propan-1-ol, C3H8O, InChI=1S/C3H8O/c1-2-3-4/h4H,2-3H2,1H3, purity 99.4%
Compound 5: propan-2-ol, C3H8O, InChI=1S/C3H8O/c1-3(2)4/h3-4H,1-2H3, purity 99.7%
Compound 6: 1,2-ethanediol, C2H6O2, InChI=1S/C2H6O2/c3-1-2-4/h3-4H,1-2H2, purity 99.5%
Compound 7: acetone, C3H6O, InChI=1S/C3H6O/c1-3(2)4/h1-2H3, purity 99.7%
Compound 8: dimethylformamide, C3H7NO, InChI=1S/C3H7NO/c1-4(2)3-5/h3H,1-2H3, purity 99.4%
Compound 9: N-methylpyrrolidone, C5H9NO, InChI=1S/C5H9NO/c1-6-4-2-3-5(6)7/h2-4H2,1H3, purity 99.5%
Compound 10: butan-1-ol, C4H10O, InChI=1S/C4H10O/c1-2-3-4-5/h5H,2-4H2,1H3, purity 99.6%
Compound 11: acetonitrile, C2H3N, InChI=1S/C2H3N/c1-2-3/h1H3, purity 99.5%
Compound 12: 2-methyl-1-propanol, C4H10O, InChI=1S/C4H10O/c1-4(2)3-5/h4-5H,3H2,1-2H3, purity 99.5%
Compound 13: water, H2O, InChI=1S/H2O/h1H2, purity 99.9%
Compound 14: cyclohexane, C6H12, InChI=1S/C6H12/c1-2-4-6-5-3-1/h1-6H2, purity 99.7%
Compound 15: dimethyl sulfoxide, C2H6OS, InChI=1S/C2H6OS/c1-4(2)3/h1-2H3, purity 99.7%

System: 1-(2-bromophenyl)-pyrrole-2,5-dione; phases: Crystal, Liquid, Air at 1 atmosphere
Property: Triple point temperature, K (Crystal); method: DSC
Triple point temperature, K	uncertainty
357.24	1.22

System: 1-(2-bromophenyl)-pyrrole-2,5-dione; phases: Crystal, Liquid, Air at 1 atmosphere
Property: Molar enthalpy of transition or fusion, kJ/mol (Crystal); method: DSC
Molar enthalpy of transition or fusion, kJ/mol	uncertainty
19.1	0.9

System: 1-(2-bromophenyl)-pyrrole-2,5-dione + methanol; phases: Liquid, Crystal
Fixed: Pressure, kPa = 101.2
Property: Mole fraction of 1-(2-bromophenyl)-pyrrole-2,5-dione (Liquid); method: Chromatography
Temperature, K	Mole fraction of 1-(2-bromophenyl)-pyrrole-2,5-dione	uncertainty
278.15	0.01336	0.0007
283.15	0.01623	0.00085
288.15	0.01986	0.00103
293.15	0.0249	0.0013
298.15	0.03004	0.00156
303.15	0.03561	0.00185
308.15	0.04207	0.00219
313.15	0.05136	0.00267
318.15	0.06044	0.00315
323.15	0.07019	0.00365

System: 1-(2-bromophenyl)-pyrrole-2,5-dione + ethanol; phases: Liquid, Crystal
Fixed: Pressure, kPa = 101.2
Property: Mole fraction of 1-(2-bromophenyl)-pyrrole-2,5-dione (Liquid); method: Chromatography
Temperature, K	Mole fraction of 1-(2-bromophenyl)-pyrrole-2,5-dione	uncertainty
278.15	0.01132	0.00059
283.15	0.01336	0.0007
288.15	0.01634	0.00085
293.15	0.0204	0.00106
298.15	0.02447	0.00127
303.15	0.02872	0.0015
308.15	0.03408	0.00177
313.15	0.04111	0.00214
318.15	0.04814	0.00251
323.15	0.05559	0.00289

System: 1-(2-bromophenyl)-pyrrole-2,5-dione + propan-1-ol; phases: Liquid, Crystal
Fixed: Pressure, kPa = 101.2
Property: Mole fraction of 1-(2-bromophenyl)-pyrrole-2,5-dione (Liquid); method: Chromatography
Temperature, K	Mole fraction of 1-(2-bromophenyl)-pyrrole-2,5-dione	uncertainty
278.15	0.007173	0.000373
283.15	0.008664	0.000451
288.15	0.01061	0.00055
293.15	0.01317	0.00069
298.15	0.01599	0.00083
303.15	0.01875	0.00098
308.15	0.02246	0.00117
313.15	0.02711	0.00141
318.15	0.03234	0.00168
323.15	0.03724	0.00194

System: 1-(2-bromophenyl)-pyrrole-2,5-dione + propan-2-ol; phases: Liquid, Crystal
Fixed: Pressure, kPa = 101.2
Property: Mole fraction of 1-(2-bromophenyl)-pyrrole-2,5-dione (Liquid); method: Chromatography
Temperature, K	Mole fraction of 1-(2-bromophenyl)-pyrrole-2,5-dione	uncertainty
278.15	0.008611	0.000448
283.15	0.01038	0.00054
288.15	0.01255	0.00065
293.15	0.01571	0.00082
298.15	0.01901	0.00099
303.15	0.0221	0.00115
308.15	0.02609	0.00136
313.15	0.03174	0.00165
318.15	0.03752	0.00195
323.15	0.04292	0.00223

System: 1-(2-bromophenyl)-pyrrole-2,5-dione + butan-1-ol; phases: Liquid, Crystal
Fixed: Pressure, kPa = 101.2
Property: Mole fraction of 1-(2-bromophenyl)-pyrrole-2,5-dione (Liquid); method: Chromatography
Temperature, K	Mole fraction of 1-(2-bromophenyl)-pyrrole-2,5-dione	uncertainty
278.15	0.005856	0.000305
283.15	0.007174	0.000374
288.15	0.008478	0.000441
293.15	0.01055	0.00055
298.15	0.01266	0.00066
303.15	0.01469	0.00076
308.15	0.01724	0.0009
313.15	0.02102	0.00109
318.15	0.02474	0.00129
323.15	0.02837	0.00148

System: 1-(2-bromophenyl)-pyrrole-2,5-dione + 2-methyl-1-propanol; phases: Liquid, Crystal
Fixed: Pressure, kPa = 101.2
Property: Mole fraction of 1-(2-bromophenyl)-pyrrole-2,5-dione (Liquid); method: Chromatography
Temperature, K	Mole fraction of 1-(2-bromophenyl)-pyrrole-2,5-dione	uncertainty
278.15	0.006492	0.000338
283.15	0.008186	0.000426
288.15	0.009894	0.000515
293.15	0.01167	0.00061
298.15	0.01409	0.00073
303.15	0.01727	0.0009
308.15	0.02041	0.00106
313.15	0.02344	0.00122
318.15	0.02764	0.00144
323.15	0.03281	0.00171

System: 1-(2-bromophenyl)-pyrrole-2,5-dione + acetone; phases: Liquid, Crystal
Fixed: Pressure, kPa = 101.2
Property: Mole fraction of 1-(2-bromophenyl)-pyrrole-2,5-dione (Liquid); method: Chromatography
Temperature, K	Mole fraction of 1-(2-bromophenyl)-pyrrole-2,5-dione	uncertainty
278.15	0.09471	0.00493
283.15	0.1085	0.0056
288.15	0.1248	0.0065
293.15	0.1437	0.0075
298.15	0.1637	0.0085
303.15	0.1899	0.0099
308.15	0.2225	0.0116
313.15	0.2626	0.0137
318.15	0.3063	0.0159
323.15	0.3561	0.0185

System: 1-(2-bromophenyl)-pyrrole-2,5-dione + acetonitrile; phases: Liquid, Crystal
Fixed: Pressure, kPa = 101.2
Property: Mole fraction of 1-(2-bromophenyl)-pyrrole-2,5-dione (Liquid); method: Chromatography
Temperature, K	Mole fraction of 1-(2-bromophenyl)-pyrrole-2,5-dione	uncertainty
278.15	0.0291	0.00152
283.15	0.03471	0.00181
288.15	0.04218	0.0022
293.15	0.0521	0.00271
298.15	0.0621	0.00323
303.15	0.07226	0.00376
308.15	0.08566	0.00446
313.15	0.1029	0.0054
318.15	0.121	0.0063
323.15	0.1393	0.0073

System: 1-(2-bromophenyl)-pyrrole-2,5-dione + 1,2-ethanediol; phases: Liquid, Crystal
Fixed: Pressure, kPa = 101.2
Property: Mole fraction of 1-(2-bromophenyl)-pyrrole-2,5-dione (Liquid); method: Chromatography
Temperature, K	Mole fraction of 1-(2-bromophenyl)-pyrrole-2,5-dione	uncertainty
278.15	0.003768	0.000196
283.15	0.004506	0.000235
288.15	0.005503	0.000287
293.15	0.006614	0.000344
298.15	0.008187	0.000426
303.15	0.009832	0.000512
308.15	0.0115	0.0006
313.15	0.0134	0.0007
318.15	0.01604	0.00084
323.15	0.01835	0.00096

System: 1-(2-bromophenyl)-pyrrole-2,5-dione + dimethylformamide; phases: Liquid, Crystal
Fixed: Pressure, kPa = 101.2
Property: Mole fraction of 1-(2-bromophenyl)-pyrrole-2,5-dione (Liquid); method: Chromatography
Temperature, K	Mole fraction of 1-(2-bromophenyl)-pyrrole-2,5-dione	uncertainty
278.15	0.1406	0.0073
283.15	0.1627	0.0085
288.15	0.1892	0.0098
293.15	0.2194	0.0114
298.15	0.2525	0.0131
303.15	0.2841	0.0148
308.15	0.3177	0.0165
313.15	0.3627	0.0189
318.15	0.4115	0.0214
323.15	0.4732	0.0246

System: 1-(2-bromophenyl)-pyrrole-2,5-dione + dimethyl sulfoxide; phases: Liquid, Crystal
Fixed: Pressure, kPa = 101.2
Property: Mole fraction of 1-(2-bromophenyl)-pyrrole-2,5-dione (Liquid); method: Chromatography
Temperature, K	Mole fraction of 1-(2-bromophenyl)-pyrrole-2,5-dione	uncertainty
293.15	0.1559	0.0081
298.15	0.177	0.0092
303.15	0.2099	0.0109
308.15	0.2384	0.0124
313.15	0.2884	0.015
318.15	0.3269	0.017
323.15	0.387	0.0201

System: 1-(2-bromophenyl)-pyrrole-2,5-dione + N-methylpyrrolidone; phases: Liquid, Crystal
Fixed: Pressure, kPa = 101.2
Property: Mole fraction of 1-(2-bromophenyl)-pyrrole-2,5-dione (Liquid); method: Chromatography
Temperature, K	Mole fraction of 1-(2-bromophenyl)-pyrrole-2,5-dione	uncertainty
278.15	0.1172	0.0061
283.15	0.1314	0.0068
288.15	0.1545	0.008
293.15	0.1786	0.0093
298.15	0.2124	0.0111
303.15	0.2448	0.0127
308.15	0.2845	0.0148
313.15	0.3241	0.0169
318.15	0.3723	0.0194
323.15	0.4237	0.0221

System: 1-(2-bromophenyl)-pyrrole-2,5-dione + water; phases: Liquid, Crystal
Fixed: Pressure, kPa = 101.2
Property: Mole fraction of 1-(2-bromophenyl)-pyrrole-2,5-dione (Liquid); method: Chromatography
Temperature, K	Mole fraction of 1-(2-bromophenyl)-pyrrole-2,5-dione	uncertainty
278.15	0.0001746	9.1e-06
283.15	0.0002169	1.13e-05
288.15	0.0002767	1.44e-05
293.15	0.0003481	1.81e-05
298.15	0.0004425	2.3e-05
303.15	0.0005433	2.83e-05
308.15	0.0006839	3.56e-05
313.15	0.0008123	4.23e-05
318.15	0.000979	5.1e-05
323.15	0.00119	6.2e-05

System: 1-(2-bromophenyl)-pyrrole-2,5-dione + cyclohexane; phases: Liquid, Crystal
Fixed: Pressure, kPa = 101.2
Property: Mole fraction of 1-(2-bromophenyl)-pyrrole-2,5-dione (Liquid); method: Chromatography
Temperature, K	Mole fraction of 1-(2-bromophenyl)-pyrrole-2,5-dione	uncertainty
278.15	0.001882	9.8e-05
283.15	0.002243	0.000117
288.15	0.002749	0.000143
293.15	0.003436	0.000179
298.15	0.004034	0.00021
303.15	0.004865	0.000253
308.15	0.005974	0.000311
313.15	0.007441	0.000387
318.15	0.009271	0.000483
323.15	0.01165	0.00061
