Measured thermophysical data. Solubility of Perfluoropentanoic Acid in Supercritical Carbon Dioxide: Measurements and Modeling
Source: J. Chem. Eng. Data, 2016, 10.1021/acs.jced.6b00649
Compound 1: perfluoropentanoic acid, C5HF9O2, InChI=1S/C5HF9O2/c6-2(7,1(15)16)3(8,9)4(10,11)5(12,13)14/h(H,15,16), purity 97%
Compound 2: octanoic acid, C8H16O2, InChI=1S/C8H16O2/c1-2-3-4-5-6-7-8(9)10/h2-7H2,1H3,(H,9,10), purity 99%
Compound 3: carbon dioxide, CO2, InChI=1S/CO2/c2-1-3, purity 99.99%

System: octanoic acid + carbon dioxide; phases: Fluid (supercritical or subcritical phases), Liquid
Property: Mole fraction of octanoic acid (Fluid (supercritical or subcritical phases)); method: Gravimetric
Temperature, K	Pressure, kPa	Mole fraction of octanoic acid	uncertainty
313	20200	0.012	0.0004
323	19800	0.0308	0.001
333	20000	0.032	0.0012

System: carbon dioxide + perfluoropentanoic acid; phases: Fluid (supercritical or subcritical phases), Liquid
Property: Mole fraction of perfluoropentanoic acid (Fluid (supercritical or subcritical phases)); method: gravimetric
Temperature, K	Pressure, kPa	Mole fraction of perfluoropentanoic acid	uncertainty
314	10000	0.026	0.0021
314	12900	0.023	0.0024
314	16000	0.0214	0.0038
314	20100	0.0203	0.003
314	21000	0.0197	0.0022
314	24800	0.0187	0.001
324	10100	0.0298	0.0026
324	15000	0.0236	0.0019
324	18600	0.022	0.0022
324	22200	0.0203	0.0022
324	26200	0.0191	0.0018
334	10200	0.0134	0.0045
334	12300	0.0265	0.0041
334	14500	0.0264	0.0022
334	17100	0.0233	0.0022
334	21200	0.0218	0.0016
334	23100	0.0207	0.002
