Measured thermophysical data. Measurements of Saturation Pressures for Trifluoroethene (R1123) and 3,3,3-Trifluoropropene (R1243zf)
Source: J. Chem. Eng. Data, 2018, 10.1021/acs.jced.7b00818
Compound 1: trifluoroethene, C2HF3, InChI=1S/C2HF3/c3-1-2(4)5/h1H, purity 99.99%
Compound 2: 1,1,1-trifluoro-2-propene, C3H3F3, InChI=1S/C3H3F3/c1-2-3(4,5)6/h2H,1H2

System: trifluoroethene; phases: Liquid, Gas
Property: Vapor or sublimation pressure, kPa (Liquid); method: Closed cell (Static) method
Temperature, K	Vapor or sublimation pressure, kPa	uncertainty
277.666	1230.3	2
277.671	1231	2
279.967	1312.5	2.1
279.981	1313.7	2.1
284.116	1476.6	2.3
284.124	1476.8	2.3
284.146	1477.7	2.3
285.096	1516.1	2.4
285.123	1517	2.4
289.99	1727.2	2.7
289.994	1727.4	2.7
294.974	1963.1	3.1
294.973	1963	3.1
300	2222.1	3.5
303	2388.2	3.7
305	2504.7	3.9
308	2687.8	4.2
310	2815.3	4.4
313	3015.4	4.7
315	3155	4.9
318	3373.3	5.2
320	3525.7	5.5
323	3764.5	5.9
325	3931.3	6.1
328	4194.2	6.5
330	4377.7	6.8
331.73	4543.4	7.1

System: 1,1,1-trifluoro-2-propene; phases: Liquid, Gas
Property: Vapor or sublimation pressure, kPa (Liquid); method: Closed cell (Static) method
Temperature, K	Vapor or sublimation pressure, kPa	uncertainty
310	815.4	1.6
310	815.1	1.6
315	927.2	1.7
320	1050.1	1.9
325	1185.6	2.1
330	1333.1	2.2
335	1494.3	2.5
340	1669.5	2.7
345	1860	3
345	1860	3
350	2066.6	3.4
355	2290.3	3.7
360	2532.6	4.1
360	2532.4	4.1
365	2794.9	4.6
370	3080	5
373	3262.7	5.3
375	3390	5.5
375	3390	5.5
376.93	3518.3	5.7
