Measured thermophysical data. Micelle Formation of Protic Ionic Liquids in Aqueous Solution
Source: J. Chem. Eng. Data, 2018, 10.1021/acs.jced.7b01053
Compound 1: 2-hydroxyethylammonium acetate, C4H11NO3, InChI=1S/C2H7NO.C2H4O2/c3-1-2-4;1-2(3)4/h4H,1-3H2;1H3,(H,3,4), purity 95%
Compound 2: 2-hydroxyethan-1-aminium propionate, C5H13NO3, InChI=1S/C3H6O2.C2H7NO/c1-2-3(4)5;3-1-2-4/h2H2,1H3,(H,4,5);4H,1-3H2, purity 95%
Compound 3: 2-hydroxy ethylammonium butanoate, C6H15NO3, InChI=1S/C4H8O2.C2H7NO/c1-2-3-4(5)6;3-1-2-4/h2-3H2,1H3,(H,5,6);4H,1-3H2, purity 95%
Compound 4: 2-hydroxy ethylammonium pentanoate, C7H17NO3, InChI=1S/C5H10O2.C2H7NO/c1-2-3-4-5(6)7;3-1-2-4/h2-4H2,1H3,(H,6,7);4H,1-3H2, purity 95%
Compound 5: 2,2'-azanediylbis(ethanol) acetate, C6H15NO4, InChI=1S/C4H11NO2.C2H4O2/c6-3-1-5-2-4-7;1-2(3)4/h5-7H,1-4H2;1H3,(H,3,4), purity 95%
Compound 6: bis(2-hydroxyethyl)ammonium propanoate, C7H17NO4, InChI=1S/C4H11NO2.C3H6O2/c6-3-1-5-2-4-7;1-2-3(4)5/h5-7H,1-4H2;2H2,1H3,(H,4,5), purity 95%
Compound 7: diethanolamine butyrate, C8H19NO4, InChI=1S/C4H11NO2.C4H8O2/c6-3-1-5-2-4-7;1-2-3-4(5)6/h5-7H,1-4H2;2-3H2,1H3,(H,5,6), purity 95%
Compound 8: diethanolamine pentanoate, C9H21NO4, InChI=1S/C5H10O2.C4H11NO2/c1-2-3-4-5(6)7;6-3-1-5-2-4-7/h2-4H2,1H3,(H,6,7);5-7H,1-4H2, purity 95%
Compound 9: N-methyl-2-hydroxyethylammonium acetate, C5H13NO3, InChI=1S/C3H9NO.C2H4O2/c1-4-2-3-5;1-2(3)4/h4-5H,2-3H2,1H3;1H3,(H,3,4), purity 95%
Compound 10: 2-hydroxy-N-methylethanaminium propionate, C6H15NO3, InChI=1S/C3H9NO.C3H6O2/c1-4-2-3-5;1-2-3(4)5/h4-5H,2-3H2,1H3;2H2,1H3,(H,4,5), purity 95%
Compound 11: N-methyl-2-hydroxyethylammonium butanoate, C7H17NO3, InChI=1S/C4H8O2.C3H9NO/c1-2-3-4(5)6;1-4-2-3-5/h2-3H2,1H3,(H,5,6);4-5H,2-3H2,1H3, purity 95%
Compound 12: 2-hydroxy-N-methylethanaminium pentanoate, C8H19NO3, InChI=1S/C5H10O2.C3H9NO/c1-2-3-4-5(6)7;1-4-2-3-5/h2-4H2,1H3,(H,6,7);4-5H,2-3H2,1H3, purity 95%
Compound 13: water, H2O, InChI=1S/H2O/h1H2, purity 99.8%

System: 2-hydroxyethylammonium acetate + water; phases: Liquid
Fixed: Pressure, kPa = 100
Fixed: Temperature, K = 293
Property: Electrical conductivity, S/m (Liquid); method: Alternating current cell with electrodes
Molality, mol/kg of 2-hydroxyethylammonium acetate	Electrical conductivity, S/m	uncertainty
0.0241	0.138	0.016
0.04796	0.274	0.02
0.07452	0.4	0.029
0.09982	0.512	0.038
0.12674	0.628	0.051
0.15185	0.737	0.063
0.17781	0.847	0.076
0.20254	0.95	0.146
0.22846	1.062	0.104
0.25212	1.158	0.119
0.27546	1.232	0.13
0.29771	1.331	0.146
0.31993	1.418	0.162
0.34041	1.487	0.174
0.36146	1.567	0.189
0.38108	1.639	0.209
0.4003	1.715	0.218
0.41842	1.772	0.23
0.4359	1.83	0.242
0.45265	1.866	0.25
0.4642	1.899	0.258
0.47967	1.94	0.293
0.49426	1.992	0.278
0.50855	2.041	0.29
0.5221	2.086	0.3
0.53512	2.128	0.31
0.54731	2.169	0.32
0.55942	2.228	0.335
0.57052	2.267	0.345
0.02015	0.13	0.008
0.03983	0.262	0.02
0.05774	0.359	0.027
0.07416	0.45	0.034
0.09015	0.539	0.041
0.10573	0.618	0.051
0.12135	0.702	0.057
0.13556	0.775	0.068
0.14847	0.835	0.073
0.16208	0.9	0.084
0.17428	0.958	0.089
0.18674	1.019	0.1
0.20036	1.077	0.158
0.21574	1.142	0.116
0.23255	1.213	0.147
0.25023	1.289	0.139
0.26905	1.368	0.153
0.28675	1.437	0.165
0.30321	1.435	0.165
0.3189	1.48	0.173
0.33366	1.564	0.188
0.34758	1.607	0.197
0.36085	1.613	0.198
0.38554	1.75	0.225
0.40749	1.865	0.25
0.42785	1.929	0.264
0.44631	1.984	0.276
0.46269	2.033	0.288
0.47743	2.077	0.322

System: 2-hydroxyethan-1-aminium propionate + water; phases: Liquid
Fixed: Pressure, kPa = 100
Fixed: Temperature, K = 293
Property: Electrical conductivity, S/m (Liquid); method: Alternating current cell with electrodes
Molality, mol/kg of 2-hydroxyethan-1-aminium propionate	Electrical conductivity, S/m	uncertainty
0.01786	0.107	0.007
0.03491	0.198	0.015
0.05416	0.312	0.022
0.0728	0.4	0.039
0.0929	0.485	0.036
0.11215	0.574	0.044
0.13224	0.658	0.053
0.1504	0.74	0.062
0.1692	0.821	0.072
0.18805	0.897	0.081
0.20669	0.982	0.133
0.2328	1.084	0.107
0.25317	1.164	0.119
0.27287	1.239	0.131
0.29049	1.303	0.193
0.3074	1.368	0.153
0.32371	1.426	0.163
0.33879	1.481	0.173
0.35343	1.532	0.183
0.36685	1.579	0.191
0.37983	1.626	0.2
0.39171	1.668	0.209
0.4032	1.706	0.294
0.41377	1.743	0.224
0.42398	1.779	0.231
0.53512	1.816	0.239
0.54731	1.855	0.248
0.55942	1.89	0.255
0.57052	1.925	0.263
0.022	0.116	0.013
0.04447	0.218	0.018
0.06841	0.338	0.023
0.09126	0.43	0.031
0.1137	0.521	0.039
0.13734	0.612	0.049
0.15937	0.695	0.057
0.18223	0.78	0.067
0.20382	0.845	0.121
0.22627	0.921	0.084
0.24719	0.991	0.094
0.26804	1.058	0.103
0.28772	1.122	0.173
0.30735	1.184	0.123
0.32508	1.238	0.131
0.34268	1.292	0.141
0.35937	1.341	0.148
0.37554	1.392	0.157
0.39049	1.434	0.164
0.4055	1.477	0.173
0.41947	1.514	0.179
0.4334	1.553	0.187
0.4465	1.587	0.193
0.45906	1.617	0.199
0.47089	1.645	0.204
0.48248	1.672	0.209

System: 2-hydroxy ethylammonium butanoate + water; phases: Liquid
Fixed: Pressure, kPa = 100
Fixed: Temperature, K = 293
Property: Electrical conductivity, S/m (Liquid); method: Alternating current cell with electrodes
Molality, mol/kg of 2-hydroxy ethylammonium butanoate	Electrical conductivity, S/m	uncertainty
0.0207	0.107	0.015
0.0415	0.196	0.015
0.06247	0.295	0.02
0.08283	0.372	0.026
0.10487	0.449	0.032
0.12581	0.511	0.038
0.14757	0.585	0.045
0.16807	0.649	0.052
0.18884	0.711	0.059
0.20872	0.764	0.065
0.22841	0.81	0.072
0.24685	0.857	0.084
0.26538	0.9	0.088
0.28246	0.94	0.087
0.30012	0.982	0.108
0.31647	1.02	0.098
0.33265	1.056	0.103
0.34754	1.088	0.108
0.36224	1.121	0.113
0.37581	1.149	0.117
0.38941	1.178	0.121
0.40208	1.204	0.125
0.41442	1.228	0.129
0.42594	1.251	0.133
0.43735	1.275	0.137
0.44796	1.295	0.141
0.45839	1.316	0.144
0.4681	1.334	0.147
0.47753	1.355	0.151
0.48643	1.376	0.154
0.49498	1.395	0.158
0.50324	1.411	0.16
0.01855	0.092	0.015
0.03507	0.163	0.013
0.05678	0.264	0.019
0.07651	0.338	0.023
0.09713	0.41	0.029
0.11901	0.485	0.035
0.14074	0.563	0.043
0.16284	0.637	0.051
0.18402	0.709	0.058
0.20548	0.77	0.065
0.22513	0.834	0.074
0.24484	0.894	0.089
0.26264	0.946	0.094
0.28094	0.994	0.095
0.29797	1.041	0.115
0.3153	1.086	0.108
0.331	1.122	0.113
0.34675	1.166	0.12
0.36132	1.204	0.126
0.37594	1.232	0.13
0.3892	1.269	0.136
0.40229	1.297	0.141
0.41448	1.324	0.145
0.42311	1.341	0.148
0.4344	1.365	0.152
0.44492	1.387	0.156
0.45537	1.409	0.16
0.46508	1.427	0.163
0.47459	1.446	0.167
0.48351	1.463	0.17
0.49222	1.484	0.174
0.50051	1.503	0.177
0.50855	1.521	0.181
0.516	1.536	0.183
0.52307	1.552	0.186

System: 2-hydroxy ethylammonium pentanoate + water; phases: Liquid
Fixed: Pressure, kPa = 100
Fixed: Temperature, K = 293
Property: Electrical conductivity, S/m (Liquid); method: Alternating current cell with electrodes
Molality, mol/kg of 2-hydroxy ethylammonium pentanoate	Electrical conductivity, S/m	uncertainty
0.01913	0.108	0.011
0.03718	0.19	0.015
0.05621	0.26	0.019
0.07457	0.309	0.047
0.09498	0.365	0.04
0.11349	0.412	0.029
0.13364	0.48	0.035
0.15197	0.526	0.039
0.17177	0.578	0.044
0.18991	0.625	0.049
0.20668	0.661	0.055
0.22396	0.701	0.058
0.24004	0.739	0.062
0.25645	0.776	0.066
0.27204	0.809	0.139
0.28753	0.844	0.074
0.30198	0.875	0.078
0.31649	0.904	0.083
0.32994	0.93	0.13
0.34345	0.957	0.09
0.35608	0.983	0.093
0.36853	1.01	0.097
0.37998	1.032	0.1
0.39141	1.053	0.103
0.40197	1.073	0.106
0.41257	1.093	0.109
0.42209	1.11	0.111
0.43163	1.13	0.114
0.44043	1.144	0.116
0.01918	0.068	0.014
0.03781	0.126	0.013
0.05801	0.176	0.014
0.07759	0.244	0.046
0.09926	0.296	0.02
0.11875	0.344	0.024
0.14016	0.393	0.028
0.1594	0.439	0.031
0.17961	0.483	0.035
0.19814	0.523	0.039
0.21736	0.664	0.053
0.23478	0.597	0.046
0.25287	0.637	0.05
0.26972	0.669	0.132
0.28667	0.704	0.058
0.30236	0.734	0.061
0.31808	0.759	0.065
0.33287	0.786	0.068
0.3474	0.812	0.071
0.36082	0.832	0.073
0.37438	0.855	0.076
0.38658	0.876	0.078
0.39876	0.895	0.081
0.41012	0.917	0.084
0.42146	0.925	0.085
0.43179	0.94	0.087
0.44211	0.957	0.089
0.45173	0.971	0.091

System: 2,2'-azanediylbis(ethanol) acetate + water; phases: Liquid
Fixed: Pressure, kPa = 100
Fixed: Temperature, K = 293
Property: Electrical conductivity, S/m (Liquid); method: Alternating current cell with electrodes
Molality, mol/kg of 2,2'-azanediylbis(ethanol) acetate	Electrical conductivity, S/m	uncertainty
0.02102	0.103	0.01
0.0413	0.189	0.011
0.06489	0.299	0.021
0.08642	0.38	0.027
0.10998	0.471	0.034
0.133	0.551	0.042
0.1566	0.637	0.051
0.1784	0.715	0.059
0.20151	0.79	0.068
0.22331	0.87	0.078
0.2459	0.947	0.088
0.26706	1.014	0.1
0.28852	1.08	0.111
0.30834	1.141	0.116
0.32853	1.204	0.126
0.3471	1.26	0.139
0.36582	1.317	0.146
0.38319	1.371	0.153
0.40041	1.421	0.162
0.41633	1.464	0.17
0.43224	1.508	0.178
0.44716	1.551	0.186
0.46175	1.594	0.194
0.47512	1.637	0.203
0.48807	1.681	0.211
0.50053	1.725	0.227
0.51286	1.761	0.228
0.52435	1.797	0.235
0.53554	1.826	0.241
0.02229	0.092	0.011
0.04556	0.185	0.011
0.06982	0.299	0.021
0.0929	0.387	0.027
0.11818	0.481	0.035
0.1442	0.574	0.044
0.16999	0.664	0.053
0.19316	0.749	0.063
0.21756	0.822	0.072
0.24035	0.892	0.081
0.26333	0.966	0.094
0.28533	1.032	0.104
0.30758	1.109	0.111
0.32854	1.161	0.119
0.3495	1.22	0.132
0.3689	1.275	0.14
0.3886	1.331	0.146
0.40683	1.383	0.155
0.42479	1.432	0.164
0.44166	1.473	0.171
0.45834	1.515	0.179
0.47378	1.56	0.188
0.48898	1.607	0.197
0.50321	1.649	0.205
0.51722	1.68	0.211
0.53021	1.703	0.216
0.54361	1.734	0.222
0.55607	1.758	0.227

System: bis(2-hydroxyethyl)ammonium propanoate + water; phases: Liquid
Fixed: Pressure, kPa = 100
Fixed: Temperature, K = 293
Property: Electrical conductivity, S/m (Liquid); method: Alternating current cell with electrodes
Molality, mol/kg of bis(2-hydroxyethyl)ammonium propanoate	Electrical conductivity, S/m	uncertainty
0.01926	0.109	0.011
0.03749	0.196	0.015
0.05727	0.296	0.021
0.07596	0.375	0.026
0.0957	0.456	0.033
0.11417	0.528	0.04
0.13349	0.601	0.047
0.1519	0.67	0.054
0.17071	0.737	0.062
0.18451	0.785	0.067
0.20293	0.849	0.075
0.22004	0.901	0.082
0.23748	0.955	0.093
0.25347	1.002	0.095
0.26963	1.049	0.105
0.28496	1.091	0.111
0.30022	1.129	0.114
0.31417	1.168	0.12
0.32823	1.205	0.126
0.3413	1.24	0.131
0.35385	1.273	0.137
0.3658	1.304	0.142
0.37747	1.325	0.145
0.38841	1.362	0.152
0.39918	1.389	0.157
0.40922	1.413	0.161
0.41902	1.436	0.165
0.42827	1.458	0.169
0.43719	1.487	0.174
0.44566	1.51	0.179
0.45391	1.535	0.183
0.46166	1.556	0.187
0.4692	1.578	0.191
0.47588	1.594	0.194
0.01974	0.104	0.012
0.0377	0.192	0.015
0.05722	0.296	0.021
0.0761	0.365	0.026
0.09617	0.447	0.032
0.1152	0.519	0.039
0.135	0.596	0.047
0.15425	0.668	0.054
0.1718	0.725	0.06
0.18985	0.798	0.069
0.20712	0.875	0.078
0.22435	0.942	0.087
0.24064	0.997	0.098
0.25711	1.029	0.099
0.2722	1.08	0.109
0.28753	1.125	0.116
0.30187	1.17	0.12
0.31621	1.161	0.119
0.32934	1.226	0.129
0.3424	1.268	0.136
0.35447	1.313	0.143
0.36597	1.35	0.15
0.37744	1.386	0.156
0.38811	1.409	0.16
0.39862	1.437	0.165
0.4083	1.469	0.171
0.41801	1.498	0.176
0.42711	1.527	0.182
0.4361	1.549	0.186
0.4445	1.575	0.191
0.45271	1.602	0.196

System: diethanolamine butyrate + water; phases: Liquid
Fixed: Pressure, kPa = 100
Fixed: Temperature, K = 293
Property: Electrical conductivity, S/m (Liquid); method: Alternating current cell with electrodes
Molality, mol/kg of diethanolamine butyrate	Electrical conductivity, S/m	uncertainty
0.01805	0.09	0.01
0.03516	0.166	0.013
0.05397	0.257	0.019
0.0709	0.318	0.028
0.09424	0.389	0.028
0.10851	0.453	0.032
0.12748	0.519	0.039
0.14553	0.581	0.045
0.16381	0.641	0.051
0.1807	0.696	0.057
0.19819	0.75	0.064
0.2144	0.801	0.069
0.23097	0.87	0.078
0.24638	0.912	0.083
0.26159	0.954	0.089
0.27577	0.994	0.094
0.28991	1.03	0.099
0.30318	1.065	0.104
0.31624	1.1	0.11
0.32835	1.131	0.114
0.34024	1.163	0.12
0.3514	1.191	0.124
0.36225	1.219	0.128
0.37256	1.244	0.132
0.38263	1.267	0.136
0.39174	1.286	0.139
0.40217	1.321	0.145
0.41146	1.35	0.15
0.42014	1.377	0.154
0.42843	1.402	0.159
0.43679	1.427	0.168
0.44455	1.45	0.167
0.01798	0.077	0.011
0.03577	0.142	0.012
0.05531	0.207	0.016
0.07433	0.284	0.027
0.09407	0.346	0.025
0.1122	0.403	0.039
0.13156	0.486	0.036
0.14961	0.538	0.041
0.1683	0.577	0.045
0.18595	0.597	0.047
0.20348	0.651	0.052
0.22028	0.694	0.058
0.23703	0.725	0.06
0.25245	0.764	0.065
0.26789	0.782	0.067
0.28241	0.821	0.072
0.29705	0.862	0.077
0.3106	0.908	0.083
0.32399	0.95	0.088
0.33214	0.98	0.093
0.34383	1.002	0.096
0.35547	1.022	0.099
0.3665	1.047	0.102
0.37736	1.046	0.102
0.38747	1.07	0.105
0.39746	1.097	0.109
0.40684	1.117	0.112
0.41598	1.141	0.116
0.4245	1.161	0.119
0.43296	1.182	0.122

System: diethanolamine pentanoate + water; phases: Liquid
Fixed: Pressure, kPa = 100
Fixed: Temperature, K = 293
Property: Electrical conductivity, S/m (Liquid); method: Alternating current cell with electrodes
Molality, mol/kg of diethanolamine pentanoate	Electrical conductivity, S/m	uncertainty
0.01462	0.055	0.008
0.03093	0.108	0.009
0.04874	0.161	0.011
0.06476	0.204	0.014
0.08267	0.268	0.018
0.09939	0.312	0.021
0.11698	0.365	0.025
0.13304	0.408	0.028
0.14878	0.449	0.032
0.16295	0.486	0.035
0.17791	0.524	0.039
0.19156	0.526	0.039
0.20578	0.558	0.042
0.21967	0.593	0.046
0.23365	0.624	0.049
0.24674	0.655	0.072
0.25998	0.685	0.056
0.27231	0.711	0.058
0.28482	0.739	0.062
0.29649	0.755	0.063
0.30792	0.789	0.067
0.31879	0.811	0.07
0.33959	0.835	0.073
0.34942	0.854	0.076
0.35848	0.876	0.078
0.36753	0.893	0.081
0.37602	0.914	0.083
0.38436	0.925	0.085
0.39207	0.925	0.085
0.39974	0.925	0.085
0.40692	0.973	0.092
0.44455	0.991	0.094
0.01705	0.064	0.008
0.03218	0.116	0.009
0.0491	0.168	0.011
0.06559	0.215	0.015
0.08109	0.279	0.019
0.09793	0.328	0.022
0.11587	0.375	0.026
0.1326	0.42	0.029
0.15073	0.47	0.034
0.16682	0.512	0.038
0.18376	0.557	0.042
0.19944	0.595	0.046
0.21525	0.634	0.05
0.22972	0.669	0.054
0.24466	0.706	0.076
0.2584	0.739	0.062
0.27212	0.767	0.065
0.28508	0.795	0.068
0.29763	0.822	0.072
0.3096	0.848	0.075
0.32139	0.874	0.092
0.33213	0.896	0.081
0.34281	0.918	0.084
0.35267	0.94	0.087
0.36252	0.96	0.09
0.37163	0.979	0.092
0.38063	0.999	0.095
0.38904	1.015	0.097
0.39726	1.031	0.1

System: N-methyl-2-hydroxyethylammonium acetate + water; phases: Liquid
Fixed: Pressure, kPa = 100
Fixed: Temperature, K = 293
Property: Electrical conductivity, S/m (Liquid); method: Alternating current cell with electrodes
Molality, mol/kg of N-methyl-2-hydroxyethylammonium acetate	Electrical conductivity, S/m	uncertainty
0.01797	0.09	0.013
0.03539	0.162	0.019
0.05369	0.236	0.029
0.07132	0.318	0.022
0.09023	0.385	0.039
0.10843	0.453	0.061
0.1264	0.551	0.042
0.14584	0.612	0.048
0.16408	0.665	0.053
0.18086	0.713	0.059
0.19835	0.762	0.064
0.21331	0.804	0.069
0.23075	0.838	0.074
0.24603	0.877	0.079
0.26158	0.861	0.076
0.276	0.893	0.081
0.29042	0.926	0.085
0.3042	0.957	0.089
0.31748	1.015	0.097
0.32984	1.042	0.101
0.3422	1.071	0.105
0.35423	1.097	0.109
0.36543	1.121	0.113
0.37647	1.145	0.116
0.38677	1.167	0.12
0.39673	1.188	0.123
0.40647	1.21	0.127
0.41554	1.24	0.131
0.42448	1.269	0.136
0.01579	0.077	0.013
0.03269	0.14	0.018
0.05165	0.21	0.028
0.06943	0.29	0.02
0.08822	0.356	0.037
0.10633	0.507	0.063
0.12547	0.561	0.043
0.14333	0.607	0.047
0.16199	0.66	0.053
0.17933	0.705	0.058
0.19719	0.75	0.063
0.21344	0.787	0.067
0.23026	0.833	0.073
0.24578	0.87	0.078
0.26146	0.899	0.081
0.27619	0.942	0.087
0.29092	0.968	0.091
0.30442	0.998	0.095
0.31782	1.029	0.099
0.33025	1.04	0.101
0.3425	1.08	0.107
0.35401	1.107	0.111
0.36545	1.134	0.115
0.376	1.156	0.118

System: 2-hydroxy-N-methylethanaminium propionate + water; phases: Liquid
Fixed: Pressure, kPa = 100
Fixed: Temperature, K = 293
Property: Electrical conductivity, S/m (Liquid); method: Alternating current cell with electrodes
Molality, mol/kg of 2-hydroxy-N-methylethanaminium propionate	Electrical conductivity, S/m	uncertainty
0.0155	0.073	0.008
0.03183	0.139	0.011
0.0489	0.202	0.014
0.06527	0.277	0.019
0.08046	0.329	0.022
0.09748	0.384	0.027
0.11358	0.436	0.031
0.13051	0.487	0.036
0.14635	0.536	0.041
0.16224	0.604	0.053
0.17756	0.648	0.052
0.19346	0.69	0.056
0.20808	0.727	0.061
0.22301	0.764	0.065
0.23701	0.798	0.069
0.24995	0.829	0.072
0.26322	0.872	0.079
0.27563	0.908	0.083
0.28791	0.933	0.086
0.29935	0.957	0.089
0.3106	0.98	0.093
0.32105	1.001	0.095
0.33172	1.022	0.098
0.34147	1.041	0.101
0.35111	1.06	0.104
0.36017	1.077	0.106
0.36911	1.094	0.109
0.37742	1.109	0.111
0.38563	1.134	0.115
0.39335	1.153	0.118
0.40086	1.174	0.121
0.4079	1.191	0.125
0.41484	1.207	0.126
0.01487	0.066	0.009
0.03159	0.133	0.01
0.04881	0.195	0.014
0.06492	0.266	0.018
0.08214	0.323	0.022
0.09889	0.378	0.026
0.11588	0.427	0.031
0.13244	0.476	0.035
0.14954	0.523	0.04
0.16512	0.568	0.05
0.18135	0.613	0.048
0.19658	0.654	0.052
0.21207	0.694	0.057
0.22636	0.702	0.058
0.24077	0.721	0.06
0.25417	0.723	0.061
0.26773	0.786	0.068
0.28003	0.814	0.071
0.29224	0.834	0.073
0.30362	0.86	0.077
0.31486	0.906	0.082
0.32546	0.923	0.085
0.33569	0.946	0.088
0.34543	0.967	0.091
0.35499	0.987	0.093
0.36399	1.008	0.096
0.3726	1.03	0.099
0.38078	1.049	0.102
0.38854	1.051	0.103
0.39599	1.07	0.106
0.40318	1.086	0.108
0.40985	1.094	0.11
0.41649	1.111	0.111
0.42272	1.124	0.113

System: N-methyl-2-hydroxyethylammonium butanoate + water; phases: Liquid
Fixed: Pressure, kPa = 100
Fixed: Temperature, K = 293
Property: Electrical conductivity, S/m (Liquid); method: Alternating current cell with electrodes
Molality, mol/kg of N-methyl-2-hydroxyethylammonium butanoate	Electrical conductivity, S/m	uncertainty
0.01443	0.041	0.005
0.03059	0.077	0.006
0.04718	0.115	0.008
0.06311	0.149	0.009
0.08077	0.185	0.012
0.09698	0.232	0.015
0.1146	0.267	0.017
0.13069	0.297	0.019
0.14795	0.328	0.022
0.16376	0.355	0.024
0.18021	0.383	0.026
0.19523	0.408	0.028
0.2106	0.434	0.03
0.22459	0.456	0.032
0.23843	0.478	0.034
0.25138	0.496	0.036
0.26441	0.516	0.038
0.27663	0.528	0.039
0.28865	0.542	0.04
0.29976	0.558	0.042
0.31101	0.572	0.043
0.32144	0.586	0.045
0.33171	0.6	0.046
0.34119	0.611	0.047
0.3505	0.624	0.049
0.35926	0.634	0.05
0.36785	0.646	0.051
0.37581	0.656	0.052
0.01609	0.047	0.005
0.03161	0.084	0.006
0.04851	0.122	0.008
0.06401	0.155	0.01
0.08176	0.189	0.012
0.09705	0.235	0.015
0.11392	0.268	0.017
0.12983	0.298	0.019
0.1464	0.324	0.021
0.16139	0.35	0.023
0.17705	0.372	0.026
0.19179	0.395	0.027
0.20642	0.42	0.029
0.22008	0.44	0.031
0.23362	0.46	0.033
0.24659	0.48	0.034
0.25956	0.498	0.036
0.27116	0.513	0.038
0.28302	0.525	0.039
0.29405	0.54	0.04
0.30481	0.556	0.042
0.31484	0.571	0.043
0.32472	0.583	0.045
0.33397	0.596	0.046
0.34301	0.607	0.047
0.35151	0.619	0.048
0.35987	0.629	0.049
0.36768	0.639	0.05

System: 2-hydroxy-N-methylethanaminium pentanoate + water; phases: Liquid
Fixed: Pressure, kPa = 100
Fixed: Temperature, K = 293
Property: Electrical conductivity, S/m (Liquid); method: Alternating current cell with electrodes
Molality, mol/kg of 2-hydroxy-N-methylethanaminium pentanoate	Electrical conductivity, S/m	uncertainty
0.01396	0.062	0.011
0.02742	0.113	0.009
0.0421	0.165	0.011
0.05579	0.209	0.023
0.0607	0.269	0.017
0.08328	0.31	0.024
0.09605	0.33	0.022
0.10953	0.408	0.029
0.12238	0.445	0.032
0.13585	0.479	0.035
0.14838	0.513	0.046
0.16078	0.544	0.055
0.17266	0.572	0.044
0.1844	0.597	0.046
0.19473	0.612	0.048
0.20591	0.635	0.05
0.21636	0.656	0.052
0.22601	0.677	0.055
0.23585	0.697	0.057
0.24509	0.709	0.058
0.25406	0.727	0.06
0.26247	0.744	0.062
0.27031	0.76	0.064
0.27833	0.776	0.067
0.28533	0.79	0.068
0.2929	0.804	0.069
0.2998	0.818	0.071
0.30652	0.83	0.073
0.31288	0.842	0.074
0.31914	0.853	0.076
0.32494	0.868	0.077
0.33068	0.88	0.08
0.33602	0.893	0.091
0.34131	1.037	0.101
0.01138	0.049	0.01
0.02431	0.098	0.009
0.03923	0.149	0.014
0.05224	0.191	0.013
0.06705	0.238	0.015
0.08075	0.293	0.023
0.09553	0.335	0.022
0.10918	0.375	0.027
0.12399	0.416	0.029
0.13724	0.449	0.032
0.15055	0.485	0.043
0.16321	0.498	0.037
0.17586	0.527	0.039
0.18786	0.551	0.042
0.19994	0.578	0.044
0.21126	0.602	0.047
0.22256	0.62	0.048
0.23289	0.642	0.051
0.24265	0.663	0.053
0.2523	0.682	0.055
0.26196	0.701	0.057
0.27093	0.717	0.059
0.27969	0.735	0.062
0.2882	0.75	0.063
0.29637	0.766	0.065
0.30397	0.781	0.067
0.3114	0.794	0.068
0.31843	0.808	0.07
0.32548	0.819	0.071
0.3317	0.834	0.074
0.33785	0.847	0.084
0.34366	0.858	0.083
0.34934	0.87	0.078
0.3546	0.882	0.079
