Measured thermophysical data. Isobaric Vapor Liquid Equilibria for Ethyl Acetate + Acetonitrile + 1-Butyl-3-methylimidazolium Bis(trifluoromethylsulfonyl)imide at 101.3 kPa
Source: J. Chem. Eng. Data, 2016, 10.1021/acs.jced.5b00995
Compound 1: ethyl acetate, C4H8O2, InChI=1S/C4H8O2/c1-3-6-4(2)5/h3H2,1-2H3, purity 99.5%
Compound 2: acetonitrile, C2H3N, InChI=1S/C2H3N/c1-2-3/h1H3, purity 99.8%
Compound 3: 1-butyl-3-methylimidazolium bis(trifluoromethylsulfonyl)imide, C10H15F6N3O4S2, InChI=1S/C8H15N2.C2F6NO4S2/c1-3-4-5-10-7-6-9(2)8-10;3-1(4,5)14(10,11)9-15(12,13)2(6,7)8/h6-8H,3-5H2,1-2H3;/q+1;-1, purity 98%

System: acetonitrile + ethyl acetate; phases: Liquid, Gas
Fixed: Pressure, kPa = 101.3
Property: Boiling temperature at pressure P, K (Liquid); method: Ebulliometric method (Recirculating still)
Mole fraction of ethyl acetate	Boiling temperature at pressure P, K	uncertainty
0.079	352.45	0.23
0.186	350.65	0.22
0.289	349.95	0.22
0.388	349.15	0.22
0.49	348.75	0.22
0.547	348.55	0.22
0.596	348.45	0.22
0.697	348.45	0.22
0.862	348.85	0.22
0.902	349.15	0.22

System: acetonitrile + ethyl acetate; phases: Gas, Liquid
Property: Mole fraction of ethyl acetate (Gas); method: Chromatography
Temperature, K	Mole fraction of ethyl acetate	Mole fraction of ethyl acetate	uncertainty
352.45	0.079	0.125	0.016
350.65	0.186	0.263	0.008
349.95	0.289	0.36	0.006
349.15	0.388	0.446	0.007
348.75	0.49	0.53	0.007
348.55	0.547	0.577	0.008
348.45	0.596	0.614	0.006
348.45	0.697	0.696	0.006
348.85	0.862	0.843	0.009
349.15	0.902	0.886	0.008

System: acetonitrile + ethyl acetate + 1-butyl-3-methylimidazolium bis(trifluoromethylsulfonyl)imide; phases: Liquid, Gas
Fixed: Pressure, kPa = 101.3
Property: Boiling temperature at pressure P, K (Liquid); method: Ebulliometric method (Recirculating still)
Solvent: Mole fraction of ethyl acetate	Mole fraction of 1-butyl-3-methylimidazolium bis(trifluoromethylsulfonyl)imide	Boiling temperature at pressure P, K	uncertainty
0.106	0.04841	355.35	0.27
0.18	0.04997	353.65	0.26
0.276	0.04991	352.15	0.26
0.373	0.05003	351.25	0.25
0.475	0.04976	350.65	0.24
0.583	0.04999	350.15	0.23
0.686	0.05001	349.95	0.23
0.794	0.04999	349.85	0.23
0.893	0.05004	349.95	0.23
0.082	0.0999	359.05	0.29
0.153	0.09988	357.25	0.28
0.257	0.09989	355.55	0.26
0.367	0.09986	354.05	0.26
0.475	0.0998	352.95	0.25
0.591	0.09996	351.95	0.24
0.694	0.09967	351.65	0.24
0.778	0.09771	351.35	0.23
0.868	0.09721	351.15	0.23
0.064	0.14981	363.95	0.31
0.153	0.14964	361.35	0.3
0.245	0.14999	359.15	0.28
0.349	0.15002	357.45	0.26
0.475	0.14999	355.65	0.25
0.578	0.14989	354.75	0.25
0.68	0.14992	353.95	0.24
0.884	0.14774	352.95	0.23

System: acetonitrile + ethyl acetate + 1-butyl-3-methylimidazolium bis(trifluoromethylsulfonyl)imide; phases: Gas, Liquid
Property: Mole fraction of ethyl acetate (Gas); method: Chromatography
Mole fraction of 1-butyl-3-methylimidazolium bis(trifluoromethylsulfonyl)imide	Temperature, K	Solvent: Mole fraction of ethyl acetate	Mole fraction of ethyl acetate	uncertainty
0.04841	355.35	0.106	0.174	0.008
0.04997	353.65	0.18	0.271	0.008
0.04991	352.15	0.276	0.375	0.008
0.05003	351.25	0.373	0.47	0.009
0.04976	350.65	0.475	0.558	0.009
0.04999	350.15	0.583	0.65	0.092
0.05001	349.95	0.686	0.736	0.009
0.04999	349.85	0.794	0.823	0.007
0.05004	349.95	0.893	0.907	0.007
0.0999	359.05	0.082	0.149	0.009
0.09988	357.25	0.153	0.253	0.009
0.09989	355.55	0.257	0.379	0.017
0.09986	354.05	0.367	0.492	0.012
0.0998	352.95	0.475	0.588	0.013
0.09996	351.95	0.591	0.681	0.012
0.09967	351.65	0.694	0.758	0.017
0.09771	351.35	0.778	0.824	0.013
0.09721	351.15	0.868	0.893	0.036
0.14981	363.95	0.064	0.131	0.014
0.14964	361.35	0.153	0.274	0.02
0.14999	359.15	0.245	0.391	0.01
0.15002	357.45	0.349	0.5	0.02
0.14999	355.65	0.475	0.612	0.008
0.14989	354.75	0.578	0.695	0.009
0.14992	353.95	0.68	0.774	0.108
0.14774	352.95	0.884	0.919	0.081
