Measured thermophysical data. Partial Molar Volumes and Partial Molar Isentropic Compressions of Four 2-Alkoxyethanols at Infinite Dilution in Water at Temperatures T = 278 343 K and Atmospheric Pressure
Source: J. Chem. Eng. Data, 2017, 10.1021/acs.jced.7b00095
Compound 1: 2-methoxyethan-1-ol, C3H8O2, InChI=1S/C3H8O2/c1-5-3-2-4/h4H,2-3H2,1H3, purity 99.9%
Compound 2: 2-ethoxyethan-1-ol, C4H10O2, InChI=1S/C4H10O2/c1-2-6-4-3-5/h5H,2-4H2,1H3, purity 99%
Compound 3: 2-propoxyethanol, C5H12O2, InChI=1S/C5H12O2/c1-2-4-7-5-3-6/h6H,2-5H2,1H3, purity 99.4%
Compound 4: 2-butoxyethan-1-ol, C6H14O2, InChI=1S/C6H14O2/c1-2-3-5-8-6-4-7/h7H,2-6H2,1H3, purity 99%
Compound 5: water, H2O, InChI=1S/H2O/h1H2, purity 99.8%

System: 2-methoxyethan-1-ol + water; phases: Liquid
Fixed: Pressure, kPa = 100
Property: Mass density, kg/m3 (Liquid); method: Vibrating tube method
Temperature, K	Molality, mol/kg of 2-methoxyethan-1-ol	Mass density, kg/m3	uncertainty
278.15	0.055865	0.109	0.031
278.15	0.101589	0.198	0.031
278.15	0.206781	0.423	0.031
278.15	0.295917	0.621	0.031
278.15	0.412952	0.903	0.032
283.15	0.055865	0.096	0.031
283.15	0.101589	0.174	0.031
283.15	0.206781	0.373	0.031
283.15	0.295917	0.548	0.031
283.15	0.412952	0.796	0.032
288.15	0.055865	0.084	0.031
288.15	0.101589	0.155	0.031
288.15	0.206781	0.332	0.031
288.15	0.295917	0.485	0.031
288.15	0.412952	0.701	0.032
293.15	0.055865	0.075	0.031
293.15	0.101589	0.134	0.031
293.15	0.206781	0.29	0.031
293.15	0.295917	0.426	0.031
293.15	0.412952	0.616	0.031
298.15	0.055865	0.064	0.031
298.15	0.101589	0.116	0.031
298.15	0.206781	0.255	0.031
298.15	0.295917	0.372	0.031
298.15	0.412952	0.538	0.031
303.15	0.055865	0.055	0.031
303.15	0.101589	0.101	0.031
303.15	0.206781	0.219	0.031
303.15	0.295917	0.321	0.031
303.15	0.412952	0.463	0.031
308.15	0.055865	0.049	0.031
308.15	0.101589	0.085	0.031
308.15	0.206781	0.185	0.031
308.15	0.295917	0.272	0.031
308.15	0.412952	0.393	0.031
313.15	0.055865	0.038	0.031
313.15	0.101589	0.069	0.031
313.15	0.206781	0.153	0.031
313.15	0.295917	0.227	0.031
313.15	0.412952	0.326	0.031
318.15	0.055865	0.031	0.031
318.15	0.101589	0.055	0.031
318.15	0.206781	0.122	0.031
318.15	0.295917	0.182	0.031
318.15	0.412952	0.262	0.031
323.15	0.055865	0.024	0.031
323.15	0.101589	0.041	0.031
323.15	0.206781	0.092	0.031
323.15	0.295917	0.138	0.031
323.15	0.412952	0.197	0.031
328.15	0.055865	0.014	0.031
328.15	0.101589	0.026	0.031
328.15	0.206781	0.06	0.031
328.15	0.295917	0.095	0.031
328.15	0.412952	0.135	0.031
333.15	0.055865	0.006	0.031
333.15	0.101589	0.011	0.031
333.15	0.206781	0.03	0.031
333.15	0.295917	0.053	0.031
333.15	0.412952	0.073	0.031
338.15	0.055865	-0.002	0.031
338.15	0.101589	-0.004	0.031
338.15	0.206781	-0.001	0.031
338.15	0.295917	0.009	0.031
338.15	0.412952	0.009	0.031
343.15	0.055865	-0.01	0.031
343.15	0.101589	-0.017	0.031
343.15	0.206781	-0.035	0.031
343.15	0.295917	-0.045	0.031
343.15	0.412952	-0.058	0.031

System: 2-methoxyethan-1-ol + water; phases: Liquid
Fixed: Pressure, kPa = 100
Property: Speed of sound, m/s (Liquid); method: Sing-around technique in a fixed-path interferometer
Temperature, K	Molality, mol/kg of 2-methoxyethan-1-ol	Speed of sound, m/s	uncertainty
278.15	0.055865	3.8	0.56
278.15	0.101589	6.62	0.56
278.15	0.206781	14.09	0.56
278.15	0.295917	19.24	0.56
278.15	0.412952	26.65	0.56
283.15	0.055865	3.43	0.56
283.15	0.101589	5.97	0.56
283.15	0.206781	12.81	0.56
283.15	0.295917	17.4	0.56
283.15	0.412952	24.13	0.56
288.15	0.055865	3.11	0.56
288.15	0.101589	5.41	0.56
288.15	0.206781	11.69	0.56
288.15	0.295917	15.81	0.56
288.15	0.412952	21.87	0.56
293.15	0.055865	2.8	0.56
293.15	0.101589	4.91	0.56
293.15	0.206781	10.6	0.56
293.15	0.295917	14.35	0.56
293.15	0.412952	19.83	0.56
298.15	0.055865	2.52	0.56
298.15	0.101589	4.45	0.56
298.15	0.206781	9.45	0.56
298.15	0.295917	12.99	0.56
298.15	0.412952	17.95	0.56
303.15	0.055865	2.27	0.56
303.15	0.101589	4.04	0.56
303.15	0.206781	8.47	0.56
303.15	0.295917	11.74	0.56
303.15	0.412952	16.21	0.56
308.15	0.055865	2	0.56
308.15	0.101589	3.63	0.56
308.15	0.206781	7.54	0.56
308.15	0.295917	10.57	0.56
308.15	0.412952	14.6	0.56
313.15	0.055865	1.77	0.56
313.15	0.101589	3.26	0.56
313.15	0.206781	6.75	0.56
313.15	0.295917	9.52	0.56
313.15	0.412952	13.15	0.56
318.15	0.055865	1.54	0.56
318.15	0.101589	2.93	0.56
318.15	0.206781	6.04	0.56
318.15	0.295917	8.55	0.56
318.15	0.412952	11.75	0.56
323.15	0.055865	1.33	0.56
323.15	0.101589	2.6	0.56
323.15	0.206781	5.34	0.56
323.15	0.295917	7.58	0.56
323.15	0.412952	10.41	0.56
328.15	0.055865	1.13	0.56
328.15	0.101589	2.28	0.56
328.15	0.206781	4.67	0.56
328.15	0.295917	6.69	0.56
328.15	0.412952	9.14	0.56
333.15	0.055865	0.94	0.56
333.15	0.101589	1.99	0.56
333.15	0.206781	4.01	0.56
333.15	0.295917	5.82	0.56
333.15	0.412952	7.95	0.56
338.15	0.055865	0.79	0.56
338.15	0.101589	1.73	0.56
338.15	0.206781	3.42	0.56
338.15	0.295917	5.04	0.56
338.15	0.412952	6.8	0.56
343.15	0.055865	0.66	0.56
343.15	0.101589	1.5	0.56
343.15	0.206781	2.85	0.56
343.15	0.295917	4.34	0.56
343.15	0.412952	5.74	0.56

System: 2-ethoxyethan-1-ol + water; phases: Liquid
Fixed: Pressure, kPa = 100
Property: Mass density, kg/m3 (Liquid); method: Vibrating tube method
Temperature, K	Molality, mol/kg of 2-ethoxyethan-1-ol	Mass density, kg/m3	uncertainty
278.15	0.056171	0.001	0.031
278.15	0.115494	0.017	0.031
278.15	0.209787	0.073	0.031
278.15	0.318859	0.161	0.031
278.15	0.420331	0.272	0.031
283.15	0.056171	-0.012	0.031
283.15	0.115494	-0.01	0.031
283.15	0.209787	0.016	0.031
283.15	0.318859	0.083	0.031
283.15	0.420331	0.142	0.031
288.15	0.056171	-0.024	0.031
288.15	0.115494	-0.038	0.031
288.15	0.209787	-0.032	0.031
288.15	0.318859	-0.014	0.031
288.15	0.420331	0.027	0.031
293.15	0.056171	-0.034	0.031
293.15	0.115494	-0.063	0.031
293.15	0.209787	-0.082	0.031
293.15	0.318859	-0.092	0.031
293.15	0.420331	-0.082	0.031
298.15	0.056171	-0.045	0.031
298.15	0.115494	-0.087	0.031
298.15	0.209787	-0.128	0.031
298.15	0.318859	-0.164	0.031
298.15	0.420331	-0.185	0.031
303.15	0.056171	-0.056	0.031
303.15	0.115494	-0.111	0.031
303.15	0.209787	-0.172	0.031
303.15	0.318859	-0.236	0.031
303.15	0.420331	-0.283	0.031
308.15	0.056171	-0.068	0.031
308.15	0.115494	-0.135	0.031
308.15	0.209787	-0.216	0.031
308.15	0.318859	-0.306	0.031
308.15	0.420331	-0.377	0.031
313.15	0.056171	-0.078	0.031
313.15	0.115494	-0.154	0.031
313.15	0.209787	-0.258	0.031
313.15	0.318859	-0.374	0.031
313.15	0.420331	-0.471	0.031
318.15	0.056171	-0.088	0.031
318.15	0.115494	-0.178	0.031
318.15	0.209787	-0.302	0.031
318.15	0.318859	-0.443	0.031
318.15	0.420331	-0.564	0.031
323.15	0.056171	-0.099	0.031
323.15	0.115494	-0.201	0.031
323.15	0.209787	-0.344	0.031
323.15	0.318859	-0.51	0.031
323.15	0.420331	-0.655	0.032
328.15	0.056171	-0.11	0.031
328.15	0.115494	-0.223	0.031
328.15	0.209787	-0.388	0.031
328.15	0.318859	-0.579	0.031
328.15	0.420331	-0.747	0.032
333.15	0.056171	-0.122	0.031
333.15	0.115494	-0.248	0.031
333.15	0.209787	-0.433	0.031
333.15	0.318859	-0.646	0.032
333.15	0.420331	-0.839	0.032
338.15	0.056171	-0.133	0.031
338.15	0.115494	-0.269	0.031
338.15	0.209787	-0.476	0.031
338.15	0.318859	-0.715	0.032
338.15	0.420331	-0.932	0.032
343.15	0.056171	-0.144	0.031
343.15	0.115494	-0.292	0.031
343.15	0.209787	-0.52	0.031
343.15	0.318859	-0.784	0.032
343.15	0.420331	-1.024	0.032

System: 2-ethoxyethan-1-ol + water; phases: Liquid
Fixed: Pressure, kPa = 100
Property: Speed of sound, m/s (Liquid); method: Sing-around technique in a fixed-path interferometer
Temperature, K	Molality, mol/kg of 2-ethoxyethan-1-ol	Speed of sound, m/s	uncertainty
278.15	0.056171	5.07	0.56
278.15	0.115494	10.35	0.56
278.15	0.209787	18.55	0.57
278.15	0.318859	28.29	0.57
278.15	0.420331	36.34	0.57
283.15	0.056171	4.6	0.56
283.15	0.115494	9.41	0.56
283.15	0.209787	16.8	0.57
283.15	0.318859	25.51	0.57
283.15	0.420331	33.1	0.57
288.15	0.056171	4.28	0.56
288.15	0.115494	8.62	0.56
288.15	0.209787	15.25	0.57
288.15	0.318859	23.22	0.57
288.15	0.420331	30.23	0.57
293.15	0.056171	3.84	0.56
293.15	0.115494	7.84	0.56
293.15	0.209787	13.83	0.56
293.15	0.318859	21.17	0.57
293.15	0.420331	27.56	0.57
298.15	0.056171	3.47	0.56
298.15	0.115494	7.15	0.56
298.15	0.209787	12.58	0.56
298.15	0.318859	19.24	0.57
298.15	0.420331	25.11	0.57
303.15	0.056171	3.21	0.56
303.15	0.115494	6.57	0.56
303.15	0.209787	11.43	0.56
303.15	0.318859	17.47	0.57
303.15	0.420331	22.8	0.57
308.15	0.056171	2.91	0.56
308.15	0.115494	5.99	0.56
308.15	0.209787	10.37	0.56
308.15	0.318859	15.82	0.57
308.15	0.420331	20.66	0.57
313.15	0.056171	2.63	0.56
313.15	0.115494	5.36	0.56
313.15	0.209787	9.4	0.56
313.15	0.318859	14.29	0.57
313.15	0.420331	18.66	0.57
318.15	0.056171	2.37	0.56
318.15	0.115494	4.79	0.56
318.15	0.209787	8.48	0.56
318.15	0.318859	12.81	0.57
318.15	0.420331	16.74	0.57
323.15	0.056171	2.15	0.56
323.15	0.115494	4.3	0.56
323.15	0.209787	7.63	0.56
323.15	0.318859	11.42	0.57
323.15	0.420331	14.91	0.57
328.15	0.056171	1.91	0.56
328.15	0.115494	3.82	0.56
328.15	0.209787	6.82	0.56
328.15	0.318859	10.09	0.57
328.15	0.420331	13.16	0.57
333.15	0.056171	1.65	0.56
333.15	0.115494	3.33	0.56
333.15	0.209787	6.02	0.56
333.15	0.318859	8.78	0.57
333.15	0.420331	11.51	0.57
338.15	0.056171	1.42	0.56
338.15	0.115494	2.8	0.56
338.15	0.209787	5.24	0.56
338.15	0.318859	7.54	0.57
338.15	0.420331	9.92	0.57
343.15	0.056171	1.18	0.56
343.15	0.115494	2.3	0.56
343.15	0.209787	4.48	0.56
343.15	0.318859	6.36	0.57
343.15	0.420331	8.42	0.57

System: 2-propoxyethanol + water; phases: Liquid
Fixed: Pressure, kPa = 100
Property: Mass density, kg/m3 (Liquid); method: Vibrating tube method
Temperature, K	Molality, mol/kg of 2-propoxyethanol	Mass density, kg/m3	uncertainty
278.15	0.055942	-0.078	0.031
278.15	0.111411	-0.134	0.031
278.15	0.202801	-0.196	0.031
278.15	0.305848	-0.221	0.031
278.15	0.405558	-0.209	0.031
283.15	0.055942	-0.096	0.031
283.15	0.111411	-0.172	0.031
283.15	0.202801	-0.273	0.031
283.15	0.305848	-0.345	0.031
283.15	0.405558	-0.382	0.031
288.15	0.055942	-0.114	0.031
288.15	0.111411	-0.21	0.031
288.15	0.202801	-0.343	0.031
288.15	0.305848	-0.458	0.031
288.15	0.405558	-0.543	0.031
293.15	0.055942	-0.132	0.031
293.15	0.111411	-0.246	0.031
293.15	0.202801	-0.413	0.031
293.15	0.305848	-0.566	0.031
293.15	0.405558	-0.691	0.032
298.15	0.055942	-0.149	0.031
298.15	0.111411	-0.279	0.031
298.15	0.202801	-0.477	0.031
298.15	0.305848	-0.668	0.032
298.15	0.405558	-0.832	0.032
303.15	0.055942	-0.167	0.031
303.15	0.111411	-0.312	0.031
303.15	0.202801	-0.538	0.031
303.15	0.305848	-0.768	0.032
303.15	0.405558	-0.968	0.032
308.15	0.055942	-0.184	0.031
308.15	0.111411	-0.341	0.031
308.15	0.202801	-0.598	0.031
308.15	0.305848	-0.864	0.032
308.15	0.405558	-1.1	0.032
313.15	0.055942	-0.203	0.031
313.15	0.111411	-0.374	0.031
313.15	0.202801	-0.658	0.032
313.15	0.305848	-0.959	0.032
313.15	0.405558	-1.233	0.032
318.15	0.055942	-0.214	0.031
318.15	0.111411	-0.406	0.031
318.15	0.202801	-0.718	0.032
318.15	0.305848	-1.053	0.032
318.15	0.405558	-1.361	0.032
323.15	0.055942	-0.223	0.031
323.15	0.111411	-0.436	0.031
323.15	0.202801	-0.777	0.032
323.15	0.305848	-1.145	0.032
323.15	0.405558	-1.488	0.032
328.15	0.055942	-0.239	0.031
328.15	0.111411	-0.47	0.031
328.15	0.202801	-0.837	0.032
328.15	0.305848	-1.239	0.032
328.15	0.405558	-1.617	0.032
333.15	0.055942	-0.254	0.031
333.15	0.111411	-0.502	0.031
333.15	0.202801	-0.897	0.032
333.15	0.305848	-1.332	0.032
333.15	0.405558	-1.743	0.032
338.15	0.055942	-0.269	0.031
338.15	0.111411	-0.533	0.031
338.15	0.202801	-0.957	0.032
338.15	0.305848	-1.425	0.032
338.15	0.405558	-1.868	0.033
343.15	0.055942	-0.285	0.031
343.15	0.111411	-0.565	0.032
343.15	0.202801	-1.017	0.032
343.15	0.305848	-1.516	0.032
343.15	0.405558	-1.994	0.033

System: 2-propoxyethanol + water; phases: Liquid
Fixed: Pressure, kPa = 100
Property: Speed of sound, m/s (Liquid); method: Sing-around technique in a fixed-path interferometer
Temperature, K	Molality, mol/kg of 2-propoxyethanol	Speed of sound, m/s	uncertainty
278.15	0.055942	6.22	0.56
278.15	0.111411	12.31	0.56
278.15	0.202801	22.26	0.57
278.15	0.305848	33.12	0.57
278.15	0.405558	43.58	0.57
283.15	0.055942	5.53	0.56
283.15	0.111411	11.23	0.56
283.15	0.202801	20.31	0.56
283.15	0.305848	30.24	0.57
283.15	0.405558	39.71	0.57
288.15	0.055942	5.13	0.56
288.15	0.111411	10.32	0.56
288.15	0.202801	18.59	0.56
288.15	0.305848	27.64	0.57
288.15	0.405558	36.32	0.57
293.15	0.055942	4.77	0.56
293.15	0.111411	9.48	0.56
293.15	0.202801	16.99	0.56
293.15	0.305848	25.12	0.57
293.15	0.405558	32.97	0.57
298.15	0.055942	4.4	0.56
298.15	0.111411	8.64	0.56
298.15	0.202801	15.49	0.56
298.15	0.305848	22.88	0.57
298.15	0.405558	29.93	0.57
303.15	0.055942	4.07	0.56
303.15	0.111411	7.86	0.56
303.15	0.202801	14.08	0.56
303.15	0.305848	20.77	0.56
303.15	0.405558	27.13	0.57
308.15	0.055942	3.73	0.56
308.15	0.111411	7.12	0.56
308.15	0.202801	12.74	0.56
308.15	0.305848	18.78	0.56
308.15	0.405558	24.49	0.57
313.15	0.055942	3.4	0.56
313.15	0.111411	6.43	0.56
313.15	0.202801	11.52	0.56
313.15	0.305848	16.92	0.56
313.15	0.405558	22.05	0.57
318.15	0.055942	3.05	0.56
318.15	0.111411	5.8	0.56
318.15	0.202801	10.34	0.56
318.15	0.305848	15.13	0.56
318.15	0.405558	19.69	0.57
323.15	0.055942	2.67	0.56
323.15	0.111411	5.17	0.56
323.15	0.202801	9.2	0.56
323.15	0.305848	13.4	0.56
323.15	0.405558	17.42	0.57
328.15	0.055942	2.33	0.56
328.15	0.111411	4.56	0.56
328.15	0.202801	8.09	0.56
328.15	0.305848	11.73	0.56
328.15	0.405558	15.24	0.56
333.15	0.055942	2.01	0.56
333.15	0.111411	3.98	0.56
333.15	0.202801	7.04	0.56
333.15	0.305848	10.17	0.56
333.15	0.405558	13.15	0.56
338.15	0.055942	1.74	0.56
338.15	0.111411	3.43	0.56
338.15	0.202801	6.04	0.56
338.15	0.305848	8.65	0.56
338.15	0.405558	11.18	0.56
343.15	0.055942	1.5	0.56
343.15	0.111411	2.88	0.56
343.15	0.202801	5.06	0.56
343.15	0.305848	7.18	0.56
343.15	0.405558	9.25	0.56

System: 2-butoxyethan-1-ol + water; phases: Liquid
Fixed: Pressure, kPa = 100
Property: Mass density, kg/m3 (Liquid); method: Vibrating tube method
Temperature, K	Molality, mol/kg of 2-butoxyethan-1-ol	Mass density, kg/m3	uncertainty
278.15	0.053585	-0.145	0.031
278.15	0.105052	-0.262	0.031
278.15	0.204516	-0.438	0.031
278.15	0.296274	-0.552	0.031
278.15	0.408189	-0.643	0.032
278.15	0.622189	-0.701	0.032
278.15	0.83541	-0.677	0.032
278.15	1.091036	-0.67	0.032
278.15	1.293825	-0.883	0.032
283.15	0.053585	-0.168	0.031
283.15	0.105052	-0.313	0.031
283.15	0.204516	-0.546	0.031
283.15	0.296274	-0.716	0.032
283.15	0.408189	-0.88	0.032
283.15	0.622189	-1.1	0.032
283.15	0.83541	-1.259	0.032
283.15	1.091036	-1.548	0.032
283.15	1.293825	-2.117	0.033
288.15	0.053585	-0.192	0.031
288.15	0.105052	-0.361	0.031
288.15	0.204516	-0.645	0.032
288.15	0.296274	-0.867	0.032
288.15	0.408189	-1.099	0.032
288.15	0.622189	-1.468	0.032
288.15	0.83541	-1.807	0.032
288.15	1.091036	-2.413	0.033
288.15	1.293825	-3.308	0.034
293.15	0.053585	-0.216	0.031
293.15	0.105052	-0.406	0.031
293.15	0.204516	-0.735	0.032
293.15	0.296274	-1.007	0.032
293.15	0.408189	-1.305	0.032
293.15	0.622189	-1.816	0.032
293.15	0.83541	-2.329	0.033
293.15	1.091036	-3.272	0.034
293.15	1.293825	-4.42	0.035
298.15	0.053585	-0.236	0.031
298.15	0.105052	-0.447	0.031
298.15	0.204516	-0.823	0.032
298.15	0.296274	-1.142	0.032
298.15	0.408189	-1.502	0.032
298.15	0.622189	-2.147	0.033
298.15	0.83541	-2.838	0.033
298.15	1.091036	-4.107	0.034
298.15	1.293825	-5.438	0.036
303.15	0.053585	-0.256	0.031
303.15	0.105052	-0.487	0.031
303.15	0.204516	-0.907	0.032
303.15	0.296274	-1.272	0.032
303.15	0.408189	-1.692	0.032
303.15	0.622189	-2.469	0.033
303.15	0.83541	-3.344	0.034
303.15	1.091036	-4.898	0.035
303.15	1.293825	-6.373	0.036
308.15	0.053585	-0.274	0.031
308.15	0.105052	-0.528	0.031
308.15	0.204516	-0.992	0.032
308.15	0.296274	-1.4	0.032
308.15	0.408189	-1.876	0.032
308.15	0.622189	-2.783	0.033
308.15	0.83541	-3.843	0.034
308.15	1.091036	-5.634	0.036
308.15	1.293825	-7.224	0.037
313.15	0.053585	-0.295	0.031
313.15	0.105052	-0.565	0.031
313.15	0.204516	-1.071	0.032
313.15	0.296274	-1.526	0.032
313.15	0.408189	-2.058	0.033
313.15	0.622189	-3.09	0.033
313.15	0.83541	-4.331	0.034
313.15	1.091036	-6.315	0.036
313.15	1.293825	-8.003	0.037
318.15	0.053585	-0.314	0.031
318.15	0.105052	-0.606	0.031
318.15	0.204516	-1.154	0.032
318.15	0.296274	-1.645	0.032
318.15	0.408189	-2.236	0.033
318.15	0.622189	-3.392	0.034
318.15	0.83541	-4.804	0.035
318.15	1.091036	-6.946	0.037
318.15	1.293825	-8.719	0.038
323.15	0.053585	-0.334	0.031
323.15	0.105052	-0.642	0.032
323.15	0.204516	-1.232	0.032
323.15	0.296274	-1.768	0.032
323.15	0.408189	-2.412	0.033
323.15	0.622189	-3.687	0.034
323.15	0.83541	-5.254	0.035
323.15	1.091036	-7.529	0.037
323.15	1.293825	-9.38	0.039
328.15	0.053585	-0.353	0.031
328.15	0.105052	-0.686	0.032
328.15	0.204516	-1.317	0.032
328.15	0.296274	-1.886	0.033
328.15	0.408189	-2.583	0.033
328.15	0.622189	-3.976	0.034
328.15	0.83541	-5.676	0.036
328.15	1.091036	-8.066	0.037
333.15	0.053585	-0.373	0.031
333.15	0.105052	-0.726	0.032
333.15	0.204516	-1.396	0.032
333.15	0.296274	-2.006	0.033
333.15	0.408189	-2.755	0.033
333.15	0.622189	-4.257	0.034
333.15	0.83541	-6.076	0.036
338.15	0.053585	-0.391	0.031
338.15	0.105052	-0.766	0.032
338.15	0.204516	-1.477	0.032
338.15	0.296274	-2.126	0.033
338.15	0.408189	-2.923	0.033
338.15	0.622189	-4.53	0.035
338.15	0.83541	-6.451	0.036
343.15	0.053585	-0.411	0.031
343.15	0.105052	-0.805	0.032
343.15	0.204516	-1.555	0.032
343.15	0.296274	-2.243	0.033
343.15	0.408189	-3.09	0.034
343.15	0.622189	-4.796	0.035
343.15	0.83541	-6.803	0.036

System: 2-butoxyethan-1-ol + water; phases: Liquid
Fixed: Pressure, kPa = 100
Property: Speed of sound, m/s (Liquid); method: Sing-around technique in a fixed-path interferometer
Temperature, K	Molality, mol/kg of 2-butoxyethan-1-ol	Speed of sound, m/s	uncertainty
278.15	0.053585	7.2	0.56
278.15	0.105052	13.88	0.57
278.15	0.204516	26.66	0.57
278.15	0.296274	38.11	0.58
278.15	0.408189	51.49	0.58
278.15	0.622189	75.34	0.59
278.15	0.83541	96.47	0.6
278.15	1.091036	116.06	0.61
278.15	1.293825	121.64	0.62
283.15	0.053585	6.56	0.56
283.15	0.105052	12.64	0.57
283.15	0.204516	24.28	0.57
283.15	0.296274	34.75	0.57
283.15	0.408189	46.87	0.58
283.15	0.622189	68.23	0.59
283.15	0.83541	86.63	0.6
283.15	1.091036	100.93	0.61
283.15	1.293825	99.93	0.62
288.15	0.053585	6.06	0.56
288.15	0.105052	11.61	0.57
288.15	0.204516	22.14	0.57
288.15	0.296274	31.66	0.57
288.15	0.408189	42.61	0.58
288.15	0.622189	61.66	0.59
288.15	0.83541	77.31	0.6
288.15	1.091036	85.34	0.61
288.15	1.293825	80.12	0.61
293.15	0.053585	5.53	0.56
293.15	0.105052	10.54	0.56
293.15	0.204516	20.12	0.57
293.15	0.296274	28.81	0.57
293.15	0.408189	38.64	0.58
293.15	0.622189	55.53	0.59
293.15	0.83541	68.24	0.59
293.15	1.091036	70	0.61
293.15	1.293825	63.01	0.61
298.15	0.053585	5.06	0.56
298.15	0.105052	9.57	0.56
298.15	0.204516	18.28	0.57
298.15	0.296274	26.13	0.57
298.15	0.408189	34.92	0.58
298.15	0.622189	49.7	0.58
298.15	0.83541	59.25	0.59
298.15	1.091036	55.76	0.6
298.15	1.293825	48.23	0.61
303.15	0.053585	4.63	0.56
303.15	0.105052	8.7	0.56
303.15	0.204516	16.56	0.57
303.15	0.296274	23.62	0.57
303.15	0.408189	31.46	0.58
303.15	0.622189	44.17	0.58
303.15	0.83541	50.31	0.59
303.15	1.091036	43.12	0.6
303.15	1.293825	35.3	0.61
308.15	0.053585	4.15	0.56
308.15	0.105052	7.85	0.56
308.15	0.204516	14.94	0.57
308.15	0.296274	21.28	0.57
308.15	0.408189	28.16	0.57
308.15	0.622189	38.87	0.58
308.15	0.83541	41.55	0.59
308.15	1.091036	31.96	0.6
308.15	1.293825	23.82	0.61
313.15	0.053585	3.81	0.56
313.15	0.105052	7.08	0.56
313.15	0.204516	13.44	0.57
313.15	0.296274	19.06	0.57
313.15	0.408189	25.05	0.57
313.15	0.622189	33.78	0.58
313.15	0.83541	33.19	0.59
313.15	1.091036	22.09	0.6
313.15	1.293825	13.47	0.61
318.15	0.053585	3.46	0.56
318.15	0.105052	6.39	0.56
318.15	0.204516	12.01	0.57
318.15	0.296274	16.85	0.57
318.15	0.408189	22.08	0.57
318.15	0.622189	28.86	0.58
318.15	0.83541	25.41	0.59
318.15	1.091036	13.22	0.6
318.15	1.293825	4.07	0.61
323.15	0.053585	3.11	0.56
323.15	0.105052	5.7	0.56
323.15	0.204516	10.63	0.57
323.15	0.296274	14.76	0.57
323.15	0.408189	19.21	0.57
323.15	0.622189	24.11	0.58
323.15	0.83541	18.29	0.59
323.15	1.091036	5.16	0.6
323.15	1.293825	-4.61	0.6
328.15	0.053585	2.78	0.56
328.15	0.105052	5.05	0.56
328.15	0.204516	9.3	0.57
328.15	0.296274	12.79	0.57
328.15	0.408189	16.46	0.57
328.15	0.622189	19.56	0.58
328.15	0.83541	11.85	0.59
328.15	1.091036	-2.19	0.6
333.15	0.053585	2.45	0.56
333.15	0.105052	4.41	0.56
333.15	0.204516	8.03	0.56
333.15	0.296274	10.9	0.57
333.15	0.408189	13.8	0.57
333.15	0.622189	15.25	0.58
333.15	0.83541	6.03	0.59
338.15	0.053585	2.15	0.56
338.15	0.105052	3.8	0.56
338.15	0.204516	6.8	0.56
338.15	0.296274	9.07	0.57
338.15	0.408189	11.28	0.57
338.15	0.622189	11.18	0.58
338.15	0.83541	0.77	0.59
343.15	0.053585	1.83	0.56
343.15	0.105052	3.23	0.56
343.15	0.204516	5.61	0.56
343.15	0.296274	7.29	0.57
343.15	0.408189	8.83	0.57
343.15	0.622189	7.35	0.58
343.15	0.83541	-4.03	0.59
