Measured thermophysical data. Density of Working Liquids for Diffusion Vacuum Pumps
Source: J. Chem. Eng. Data, 2018, 10.1021/acs.jced.8b00028
Compound 1: heptane, C7H16, InChI=1S/C7H16/c1-3-5-7-6-4-2/h3-7H2,1-2H3, purity 99.99%
Compound 2: 1,2-ethanediol, C2H6O2, InChI=1S/C2H6O2/c3-1-2-4/h3-4H,1-2H2, purity 99.7%
Compound 3: 1,2-propanediol, C3H8O2, InChI=1S/C3H8O2/c1-3(5)2-4/h3-5H,2H2,1H3, purity 99.8%

System: heptane; phases: Liquid
Fixed: Pressure, kPa = 101
Property: Mass density, kg/m3 (Liquid); method: Pycnometric method
Temperature, K	Mass density, kg/m3	uncertainty
293.15	683.67	1.01
301.62	675.75	1.01
310.71	667.37	1.01
319.85	659.85	1.02
329.04	651.92	1.02
338.26	644.32	1.02
347.53	635.91	1.03
356.84	627.85	1.03

System: heptane; phases: Liquid
Fixed: Pressure, kPa = 101
Property: Mass density, kg/m3 (Liquid); method: Buoyancy - hydrostatic balance
Temperature, K	Mass density, kg/m3	uncertainty
293.15	683.65	0.14
301.62	675.96	0.14
310.71	668.05	0.13
319.85	660.16	0.13
329.04	652.58	0.13
338.26	644.01	0.13
347.53	635.57	0.13
356.84	627.05	0.13

System: 1,2-ethanediol; phases: Liquid
Fixed: Pressure, kPa = 101
Property: Mass density, kg/m3 (Liquid); method: Pycnometric method
Temperature, K	Mass density, kg/m3	uncertainty
273.15	1127.05	0.38
283.15	1120.5	0.36
293.15	1113.84	0.35
303.15	1107.07	0.36
313.15	1100.19	0.37
323.15	1093.2	0.39
333.15	1086.11	0.4
343.15	1078.91	0.42
353.15	1071.6	0.44
363.15	1064.18	0.45

System: 1,2-ethanediol; phases: Liquid
Fixed: Pressure, kPa = 101
Property: Mass density, kg/m3 (Liquid); method: Buoyancy - hydrostatic balance
Temperature, K	Mass density, kg/m3	uncertainty
273.15	1127.2	0.23
283.15	1120.58	0.23
293.15	1113.84	0.22
303.15	1106.98	0.22
313.15	1099.99	0.22
323.15	1092.88	0.22
333.15	1085.65	0.22
343.15	1078.29	0.22
353.15	1070.8	0.22
363.15	1063.2	0.21
373.15	1055.47	0.21
383.15	1047.62	0.21
393.15	1039.64	0.21
403.15	1031.53	0.21
413.15	1023.31	0.21
423.15	1014.96	0.2
433.15	1006.48	0.2
443.15	997.88	0.201
453.15	989.16	0.199
463.15	980.31	0.197
473.15	971.34	0.196

System: 1,2-propanediol; phases: Liquid
Fixed: Pressure, kPa = 101
Property: Mass density, kg/m3 (Liquid); method: Pycnometric method
Temperature, K	Mass density, kg/m3	uncertainty
273.15	1052.17	0.35
283.15	1044.74	0.33
293.15	1037.22	0.31
303.15	1029.64	0.32
313.15	1021.98	0.34
323.15	1014.25	0.35
333.15	1006.45	0.37
343.15	998.57	0.38
353.15	990.62	0.4
363.15	982.6	0.41

System: 1,2-propanediol; phases: Liquid
Fixed: Pressure, kPa = 101
Property: Mass density, kg/m3 (Liquid); method: Buoyancy - hydrostatic balance
Temperature, K	Mass density, kg/m3	uncertainty
273.15	1051.77	0.21
283.15	1044.65	0.21
293.15	1037.13	0.21
303.15	1029.87	0.21
313.15	1022.37	0.21
323.15	1014.64	0.2
333.15	1006.75	0.2
343.15	998.71	0.201
353.15	990.77	0.199
363.15	982.38	0.197
373.15	973.81	0.196
383.15	965.04	0.194
393.15	956.09	0.192
403.15	946.95	0.19
413.15	937.62	0.189
423.15	928.1	0.187
433.15	918.39	0.185
443.15	908.5	0.183
453.15	898.41	0.181
463.15	888.14	0.179
