Measured thermophysical data. Isobaric Vapor-Liquid Phase Equilibrium Measurements for Allyl Alcohol with Chloroform, Ethyl Acetate, and Methyl Propionate at 101.3 kPa
Source: J. Chem. Eng. Data, 2019, 10.1021/acs.jced.8b00908
Compound 1: 2-propenol, C3H6O, InChI=1S/C3H6O/c1-2-3-4/h2,4H,1,3H2, purity 99%
Compound 2: trichloromethane, CHCl3, InChI=1S/CHCl3/c2-1(3)4/h1H, purity 99%
Compound 3: ethyl acetate, C4H8O2, InChI=1S/C4H8O2/c1-3-6-4(2)5/h3H2,1-2H3, purity 99.5%
Compound 4: methyl propanoate, C4H8O2, InChI=1S/C4H8O2/c1-3-4(5)6-2/h3H2,1-2H3, purity 99%

System: 2-propenol; phases: Liquid, Gas
Property: Vapor or sublimation pressure, kPa (Liquid); method: Ebulliometric method (Recirculating still)
Temperature, K	Vapor or sublimation pressure, kPa	uncertainty
369.94	101.3	3.5

System: trichloromethane; phases: Liquid, Gas
Property: Vapor or sublimation pressure, kPa (Liquid); method: Ebulliometric method (Recirculating still)
Temperature, K	Vapor or sublimation pressure, kPa	uncertainty
334.12	101.3	3.5

System: ethyl acetate; phases: Liquid, Gas
Property: Vapor or sublimation pressure, kPa (Liquid); method: Ebulliometric method (Recirculating still)
Temperature, K	Vapor or sublimation pressure, kPa	uncertainty
350.28	101.3	3.5

System: methyl propanoate; phases: Liquid, Gas
Property: Vapor or sublimation pressure, kPa (Liquid); method: Ebulliometric method (Recirculating still)
Temperature, K	Vapor or sublimation pressure, kPa	uncertainty
352.47	101.3	3.5

System: 2-propenol + trichloromethane; phases: Liquid, Gas
Fixed: Pressure, kPa = 101.3
Property: Boiling temperature at pressure P, K (Liquid); method: Ebulliometric method (Recirculating still)
Mole fraction of 2-propenol	Boiling temperature at pressure P, K	uncertainty
0	334.12	0.71
0.2243	336.53	0.74
0.4311	339.31	0.74
0.5535	341.04	0.77
0.6401	343.25	0.85
0.6931	344.95	0.94
0.7557	347.46	1.01
0.7742	348.45	1.2
0.8073	350.36	1.31
0.8172	351.1	1.3
0.8508	353.33	1.44
0.8918	356.53	1.73
0.9399	361.5	2.26
1	369.94	0.71

System: 2-propenol + trichloromethane; phases: Gas, Liquid
Fixed: Pressure, kPa = 101.3
Property: Mole fraction of 2-propenol (Gas); method: Chromatography
Mole fraction of 2-propenol	Mole fraction of 2-propenol	uncertainty
0	0	
0.2243	0.0824	0.0182
0.4311	0.1441	0.018
0.5535	0.1822	0.0186
0.6401	0.2277	0.0199
0.6931	0.2629	0.0219
0.7557	0.3174	0.0236
0.7742	0.3391	0.0277
0.8073	0.3815	0.031
0.8172	0.3981	0.0309
0.8508	0.4522	0.0371
0.8918	0.5383	0.049
0.9399	0.6874	0.0761
1	1	

System: 2-propenol + ethyl acetate; phases: Liquid, Gas
Fixed: Pressure, kPa = 101.3
Property: Boiling temperature at pressure P, K (Liquid); method: Ebulliometric method (Recirculating still)
Mole fraction of 2-propenol	Boiling temperature at pressure P, K	uncertainty
0	350.28	0.71
0.1145	351.65	0.74
0.1746	352.43	0.74
0.2386	353.28	0.75
0.3887	355.43	0.75
0.4439	356.23	0.75
0.4984	357.07	0.77
0.5469	358.05	0.79
0.6259	359.69	0.79
0.681	360.9	0.82
0.7506	362.65	0.82
0.7969	363.64	0.82
0.837	364.73	0.85
0.8785	365.85	0.86
0.9108	366.87	0.91
0.9512	368.25	0.92
1	369.94	0.71

System: 2-propenol + ethyl acetate; phases: Gas, Liquid
Fixed: Pressure, kPa = 101.3
Property: Mole fraction of 2-propenol (Gas); method: Chromatography
Mole fraction of 2-propenol	Mole fraction of 2-propenol	uncertainty
0	0	
0.1145	0.0701	0.0203
0.1746	0.1089	0.0202
0.2386	0.1462	0.0206
0.3887	0.2486	0.0211
0.4439	0.2895	0.0218
0.4984	0.3321	0.0226
0.5469	0.3754	0.0235
0.6259	0.4483	0.0244
0.681	0.5064	0.0254
0.7506	0.5793	0.0262
0.7969	0.6364	0.0287
0.837	0.6931	0.0308
0.8785	0.7561	0.033
0.9108	0.8138	0.0369
0.9512	0.8933	0.0399
1	1	

System: 2-propenol + methyl propanoate; phases: Liquid, Gas
Fixed: Pressure, kPa = 101.3
Property: Boiling temperature at pressure P, K (Liquid); method: Ebulliometric method (Recirculating still)
Mole fraction of 2-propenol	Boiling temperature at pressure P, K	uncertainty
0	352.47	0.71
0.0997	353.35	0.72
0.1863	354.05	0.72
0.2311	354.55	0.74
0.2902	355.36	0.74
0.3601	356.2	0.74
0.4274	357.15	0.75
0.4906	358.15	0.76
0.5464	359.08	0.77
0.5989	360.06	0.77
0.6497	360.95	0.78
0.7198	362.46	0.8
0.8059	364.33	0.81
0.8541	365.5	0.83
0.8876	366.37	0.84
0.9182	367.2	0.86
0.9497	368.15	0.91
1	369.94	0.71

System: 2-propenol + methyl propanoate; phases: Gas, Liquid
Fixed: Pressure, kPa = 101.3
Property: Mole fraction of 2-propenol (Gas); method: Chromatography
Mole fraction of 2-propenol	Mole fraction of 2-propenol	uncertainty
0	0	
0.0997	0.0744	0.0205
0.1863	0.1192	0.0197
0.2311	0.1473	0.0204
0.2902	0.1848	0.0205
0.3601	0.2295	0.0207
0.4274	0.2759	0.0214
0.4906	0.3242	0.0223
0.5464	0.3715	0.0233
0.5989	0.4206	0.0241
0.6497	0.4697	0.0256
0.7198	0.5487	0.0275
0.8059	0.6584	0.0288
0.8541	0.7272	0.0308
0.8876	0.779	0.033
0.9182	0.8308	0.0352
0.9497	0.8895	0.0397
1	1	
