Measured thermophysical data. Solubility of p-Aminobenzoic Acid Potassium in Organic Solvents and Binary (Water + Isopropyl Alcohol) Mixture at Temperatures from (283.15 to 318.15) K
Source: J. Chem. Eng. Data, 2018, 10.1021/acs.jced.7b00978
Compound 1: potassium 4-aminobenzoate, C7H6KNO2, InChI=1S/C7H7NO2.K/c8-6-3-1-5(2-4-6)7(9)10;/h1-4H,8H2,(H,9,10);/q;+1/p-1, purity 99%
Compound 2: 1,2-ethanediol, C2H6O2, InChI=1S/C2H6O2/c3-1-2-4/h3-4H,1-2H2, purity 99.5%
Compound 3: formamide, CH3NO, InChI=1S/CH3NO/c2-1-3/h1H,(H2,2,3), purity 99.5%
Compound 4: ethanol, C2H6O, InChI=1S/C2H6O/c1-2-3/h3H,2H2,1H3, purity 99.7%
Compound 5: dimethylformamide, C3H7NO, InChI=1S/C3H7NO/c1-4(2)3-5/h3H,1-2H3, purity 99.5%
Compound 6: propan-1-ol, C3H8O, InChI=1S/C3H8O/c1-2-3-4/h4H,2-3H2,1H3, purity 99.8%
Compound 7: propan-2-ol, C3H8O, InChI=1S/C3H8O/c1-3(2)4/h3-4H,1-2H3, purity 99.7%
Compound 8: ethyl acetate, C4H8O2, InChI=1S/C4H8O2/c1-3-6-4(2)5/h3H2,1-2H3, purity 99.5%
Compound 9: water, H2O, InChI=1S/H2O/h1H2, purity 99.8%
Compound 10: potassium chloride, ClK, InChI=1S/ClH.K/h1H;/q;+1/p-1, purity 99.5%

System: potassium 4-aminobenzoate; phases: Crystal, Liquid, Air at 1 atmosphere
Property: Normal melting temperature, K (Crystal); method: DTA
Normal melting temperature, K	uncertainty
661.7	1.06

System: water + potassium chloride; phases: Liquid, Crystal
Fixed: Pressure, kPa = 100
Property: Mole fraction of potassium chloride (Liquid); method: Titration method
Temperature, K	Mole fraction of potassium chloride	uncertainty
283.15	0.0702	0.002
293.15	0.0767	0.002
298.15	0.0794	0.002
303.15	0.0827	0.002
313.15	0.0883	0.002
333.15	0.0987	0.002

System: potassium 4-aminobenzoate + water; phases: Liquid, Crystal
Fixed: Pressure, kPa = 100
Property: Mole fraction of potassium 4-aminobenzoate (Liquid); method: Titration method
Temperature, K	Mole fraction of potassium 4-aminobenzoate	uncertainty
278.15	0.092013	0.006006
288.15	0.1095	0.006007
298.15	0.1251	0.006008
308.15	0.144067	0.006011
318.15	0.1614	0.006012
328.15	0.1767	0.006014
338.15	0.1938	0.006016

System: potassium 4-aminobenzoate + 1,2-ethanediol; phases: Liquid, Crystal
Fixed: Pressure, kPa = 100
Property: Mole fraction of potassium 4-aminobenzoate (Liquid); method: Titration method
Temperature, K	Mole fraction of potassium 4-aminobenzoate	uncertainty
283.15	0.097312	0.006006
293.15	0.115432	0.006007
303.15	0.127412	0.006008
313.15	0.14546	0.00601
323.15	0.15566	0.006011
333.15	0.172406	0.006013

System: potassium 4-aminobenzoate + formamide; phases: Liquid, Crystal
Fixed: Pressure, kPa = 100
Property: Mole fraction of potassium 4-aminobenzoate (Liquid); method: Titration method
Temperature, K	Mole fraction of potassium 4-aminobenzoate	uncertainty
283.15	0.0794	0.006004
293.15	0.0929	0.006004
303.15	0.104	0.006005
313.15	0.112	0.006005
323.15	0.1186	0.006006
333.15	0.1252	0.006006

System: potassium 4-aminobenzoate + ethanol; phases: Liquid, Crystal
Fixed: Pressure, kPa = 100
Property: Mole fraction of potassium 4-aminobenzoate (Liquid); method: Titration method
Temperature, K	Mole fraction of potassium 4-aminobenzoate	uncertainty
283.15	0.00224	0.00224
293.15	0.00232	0.00232
303.15	0.00238	0.00238
313.15	0.00244	0.00244
323.15	0.002503	0.002503
333.15	0.00252	0.00252

System: potassium 4-aminobenzoate + propan-1-ol; phases: Liquid, Crystal
Fixed: Pressure, kPa = 100
Property: Mole fraction of potassium 4-aminobenzoate (Liquid); method: Titration method
Temperature, K	Mole fraction of potassium 4-aminobenzoate	uncertainty
283.15	0.000852	0.000852
293.15	0.000874	0.000874
303.15	0.000884	0.000884
313.15	0.000929	0.000929
323.15	0.000952	0.000952
333.15	0.000981	0.000981

System: potassium 4-aminobenzoate + propan-2-ol; phases: Liquid, Crystal
Fixed: Pressure, kPa = 100
Property: Mole fraction of potassium 4-aminobenzoate (Liquid); method: Titration method
Temperature, K	Mole fraction of potassium 4-aminobenzoate	uncertainty
283.15	0.000366	0.000366
293.15	0.000416	0.000416
303.15	0.000486	0.000486
313.15	0.000496	0.000496
323.15	0.00052	0.00052
333.15	0.000556	0.000556

System: potassium 4-aminobenzoate + ethyl acetate; phases: Liquid, Crystal
Fixed: Pressure, kPa = 100
Property: Mole fraction of potassium 4-aminobenzoate (Liquid); method: Titration method
Temperature, K	Mole fraction of potassium 4-aminobenzoate	uncertainty
283.15	0.000198	0.000198
293.15	0.000205	0.000205
303.15	0.000211	0.000211
313.15	0.000216	0.000216
323.15	0.000219	0.000219

System: potassium 4-aminobenzoate + dimethylformamide; phases: Liquid, Crystal
Fixed: Pressure, kPa = 100
Property: Mole fraction of potassium 4-aminobenzoate (Liquid); method: Titration method
Temperature, K	Mole fraction of potassium 4-aminobenzoate	uncertainty
283.15	0.001427	0.001427
293.15	0.00146	0.00146
303.15	0.001526	0.001526
313.15	0.001536	0.001536
323.15	0.001585	0.001585
333.15	0.001613	0.001613

System: potassium 4-aminobenzoate + propan-2-ol + water; phases: Liquid, Crystal
Fixed: Pressure, kPa = 100
Property: Mole fraction of potassium 4-aminobenzoate (Liquid); method: Titration method
Temperature, K	Solvent: Mole fraction of propan-2-ol	Mole fraction of potassium 4-aminobenzoate	uncertainty
278.15	0	0.092	0.02
278.15	0.0255	0.0868	0.0202
278.15	0.0557	0.0849	0.0201
278.15	0.0918	0.0818	0.0202
278.15	0.1359	0.0741	0.0202
278.15	0.1909	0.0678	0.0202
278.15	0.2614	0.0555	0.0203
278.15	0.3551	0.0384	0.0202
278.15	0.4855	0.0233	0.0201
278.15	0.6798	0.012	0.012
288.15	0	0.1095	0.02
288.15	0.0255	0.102	0.0203
288.15	0.0557	0.0993	0.0202
288.15	0.0918	0.0936	0.0202
288.15	0.1359	0.0891	0.0204
288.15	0.1909	0.0752	0.0206
288.15	0.2614	0.0594	0.0204
288.15	0.3551	0.0404	0.0202
288.15	0.4855	0.0256	0.0201
288.15	0.6798	0.0134	0.0134
298.15	0	0.1251	0.02
298.15	0.0255	0.12	0.0204
298.15	0.0557	0.1143	0.0204
298.15	0.0918	0.1074	0.0202
298.15	0.1359	0.1029	0.0205
298.15	0.1909	0.0847	0.0209
298.15	0.2614	0.0643	0.0206
298.15	0.3551	0.0441	0.0203
298.15	0.4855	0.0276	0.0201
298.15	0.6798	0.0152	0.0152
308.15	0	0.1441	0.02
308.15	0.0255	0.1364	0.0208
308.15	0.0557	0.1281	0.0206
308.15	0.0918	0.1203	0.0203
308.15	0.1359	0.1151	0.0207
308.15	0.1909	0.0953	0.0212
308.15	0.2614	0.0712	0.0208
308.15	0.3551	0.0481	0.0203
308.15	0.4855	0.0303	0.0201
308.15	0.6798	0.0167	0.0167
318.15	0	0.1614	0.02
318.15	0.0255	0.153	0.0212
318.15	0.0557	0.1421	0.0209
318.15	0.0918	0.1326	0.0203
318.15	0.1359	0.1278	0.0208
318.15	0.1909	0.1045	0.0215
318.15	0.2614	0.0778	0.021
318.15	0.3551	0.0509	0.0204
318.15	0.4855	0.032	0.0201
318.15	0.6798	0.0191	0.0191
328.15	0	0.1767	0.02
328.15	0.0255	0.1695	0.0214
328.15	0.0557	0.156	0.0212
328.15	0.0918	0.1458	0.0204
328.15	0.1359	0.1393	0.021
328.15	0.1909	0.1154	0.0218
328.15	0.2614	0.0854	0.0213
328.15	0.3551	0.0549	0.0205
328.15	0.4855	0.0341	0.0201
328.15	0.6798	0.0204	0.0201
338.15	0	0.1938	0.02
338.15	0.0255	0.1841	0.022
338.15	0.0557	0.1686	0.0211
338.15	0.0918	0.1617	0.0204
338.15	0.1359	0.153	0.0213
338.15	0.1909	0.126	0.0221
338.15	0.2614	0.0936	0.0215
338.15	0.3551	0.0603	0.0206
338.15	0.4855	0.0368	0.0201
338.15	0.6798	0.0215	0.0201
