Measured thermophysical data. Density, Viscosity, Speed of Sound, Bulk Modulus, Surface Tension, and Flash Point of Binary Mixtures of Butylcyclohexane with Toluene or n-Hexadecane
Source: J. Chem. Eng. Data, 2016, 10.1021/acs.jced.6b00516
Compound 1: toluene, C7H8, InChI=1S/C7H8/c1-7-5-3-2-4-6-7/h2-6H,1H3, purity 99.97%
Compound 2: butylcyclohexane, C10H20, InChI=1S/C10H20/c1-2-3-7-10-8-5-4-6-9-10/h10H,2-9H2,1H3, purity 99.9%
Compound 3: hexadecane, C16H34, InChI=1S/C16H34/c1-3-5-7-9-11-13-15-16-14-12-10-8-6-4-2/h3-16H2,1-2H3, purity 99.8%

System: toluene; phases: Liquid
Fixed: Pressure, kPa = 102
Property: Mass density, kg/m3 (Liquid); method: Vibrating tube method
Temperature, K	Mass density, kg/m3	uncertainty
293.15	866.84	0.13
303.15	857.52	0.13
313.15	848.14	0.14
323.15	838.68	0.14
333.15	829.15	0.14
343.15	819.6	0.2
353.15	809.8	0.5

System: toluene; phases: Liquid
Fixed: Pressure, kPa = 102
Fixed: Frequency, MHz = 3
Property: Speed of sound, m/s (Liquid); method: Sing-around technique in a fixed-path interferometer
Temperature, K	Speed of sound, m/s	uncertainty
293.15	1326.6	0.8
303.15	1283.6	0.8
313.15	1241.1	0.8
323.15	1199.2	0.8
333.15	1157.7	0.8

System: toluene; phases: Liquid
Fixed: Pressure, kPa = 102
Property: Viscosity, Pa*s (Liquid); method: Concentric cylinders viscometry
Temperature, K	Viscosity, Pa*s	uncertainty
293.15	0.000607	1.1e-05
303.15	0.00054	1.1e-05
313.15	0.000483	1.1e-05
323.15	0.000434	1.1e-05
333.15	0.000391	1.1e-05
343.15	0.000349	2.7e-05
353.15	0.000307	1.1e-05

System: toluene; phases: Liquid, Gas
Property: Surface tension liquid-gas, N/m (Liquid); method: Sessile Drop
Temperature, K	Surface tension liquid-gas, N/m	uncertainty
294.2	0.0286	0.0002

System: butylcyclohexane; phases: Liquid
Fixed: Pressure, kPa = 102
Property: Mass density, kg/m3 (Liquid); method: Vibrating tube method
Temperature, K	Mass density, kg/m3	uncertainty
293.15	799.33	0.14
303.15	791.82	0.14
313.15	784.28	0.14
323.15	776.7	0.14
333.15	769.09	0.14
343.15	761.4	0.2
353.15	753.7	0.3

System: butylcyclohexane; phases: Liquid
Fixed: Pressure, kPa = 102
Fixed: Frequency, MHz = 3
Property: Speed of sound, m/s (Liquid); method: Sing-around technique in a fixed-path interferometer
Temperature, K	Speed of sound, m/s	uncertainty
293.15	1328.4	0.8
303.15	1288.7	0.8
313.15	1249.5	0.8
323.15	1210.8	0.8
333.15	1172.8	0.8

System: butylcyclohexane; phases: Liquid
Fixed: Pressure, kPa = 102
Property: Viscosity, Pa*s (Liquid); method: Concentric cylinders viscometry
Temperature, K	Viscosity, Pa*s	uncertainty
293.15	0.00131	1e-05
303.15	0.00112	1e-05
313.15	0.000961	1.2e-05
323.15	0.000837	1.2e-05
333.15	0.000735	1.1e-05
343.15	0.000648	1.1e-05
353.15	0.000576	2.1e-05

System: butylcyclohexane; phases: Liquid, Gas
Property: Surface tension liquid-gas, N/m (Liquid); method: Sessile Drop
Temperature, K	Surface tension liquid-gas, N/m	uncertainty
294	0.0267	0.0002

System: hexadecane; phases: Liquid
Fixed: Pressure, kPa = 102
Property: Mass density, kg/m3 (Liquid); method: Vibrating tube method
Temperature, K	Mass density, kg/m3	uncertainty
293.15	773.41	0.14
303.15	766.47	0.14
313.15	759.55	0.15
323.15	752.63	0.15
333.15	745.71	0.15
343.15	738.8	0.2
353.15	731.9	0.3

System: hexadecane; phases: Liquid
Fixed: Pressure, kPa = 102
Fixed: Frequency, MHz = 3
Property: Speed of sound, m/s (Liquid); method: Sing-around technique in a fixed-path interferometer
Temperature, K	Speed of sound, m/s	uncertainty
293.15	1357.2	0.8
303.15	1319.5	0.8
313.15	1283.3	0.8
323.15	1247.3	0.8
333.15	1212	0.8

System: hexadecane; phases: Liquid
Fixed: Pressure, kPa = 102
Property: Viscosity, Pa*s (Liquid); method: Concentric cylinders viscometry
Temperature, K	Viscosity, Pa*s	uncertainty
293.15	0.00344	2e-05
303.15	0.00272	2e-05
313.15	0.00221	2e-05
323.15	0.00183	1e-05
333.15	0.00154	1e-05
343.15	0.00131	1e-05
353.15	0.00114	1e-05
363.15	0.000994	1.2e-05
373.15	0.000878	1.2e-05

System: hexadecane; phases: Liquid, Gas
Property: Surface tension liquid-gas, N/m (Liquid); method: Sessile Drop
Temperature, K	Surface tension liquid-gas, N/m	uncertainty
294	0.0271	0.0003

System: toluene + butylcyclohexane; phases: Liquid
Fixed: Pressure, kPa = 102
Property: Mass density, kg/m3 (Liquid); method: Vibrating tube method
Temperature, K	Mass fraction of butylcyclohexane	Mass density, kg/m3	uncertainty
293.15	0.1002	858.58	0.1
293.15	0.2175	849.42	0.1
293.15	0.3001	843.23	0.1
293.15	0.3999	835.97	0.1
293.15	0.5	829.25	0.1
293.15	0.6001	822.67	0.11
293.15	0.6995	816.44	0.11
293.15	0.8001	810.43	0.11
293.15	0.8996	804.75	0.11
303.15	0.1002	849.47	0.1
303.15	0.2175	840.53	0.1
303.15	0.3001	834.5	0.1
303.15	0.3999	827.42	0.11
303.15	0.5	820.88	0.11
303.15	0.6001	814.48	0.11
303.15	0.6995	808.43	0.11
303.15	0.8001	802.58	0.11
303.15	0.8996	797.08	0.11
313.15	0.1002	840.29	0.1
313.15	0.2175	831.58	0.1
313.15	0.3001	825.72	0.11
313.15	0.3999	818.82	0.11
313.15	0.5	812.46	0.11
313.15	0.6001	806.25	0.11
313.15	0.6995	800.37	0.11
313.15	0.8001	794.7	0.12
313.15	0.8996	789.37	0.12
323.15	0.1002	831.04	0.1
323.15	0.2175	822.57	0.11
323.15	0.3001	816.86	0.11
323.15	0.3999	810.17	0.11
323.15	0.5	803.99	0.11
323.15	0.6001	797.96	0.11
323.15	0.6995	792.27	0.12
323.15	0.8001	786.78	0.12
323.15	0.8996	781.62	0.12
333.15	0.1002	821.72	0.11
333.15	0.2175	813.48	0.11
333.15	0.3001	807.94	0.11
333.15	0.3999	801.44	0.11
333.15	0.5	795.45	0.12
333.15	0.6001	789.62	0.12
333.15	0.6995	784.11	0.12
333.15	0.8001	778.81	0.12
333.15	0.8996	773.83	0.12
343.15	0.1002	812.2	0.2
343.15	0.2175	804.3	0.2
343.15	0.3001	798.8	0.2
343.15	0.3999	792.6	0.2
343.15	0.5	786.8	0.2
343.15	0.6001	781.3	0.2
343.15	0.6995	775.9	0.2
343.15	0.8001	770.7	0.2
343.15	0.8996	765.9	0.2
353.15	0.1002	802.7	0.2
353.15	0.2175	795.1	0.2
353.15	0.3001	789.7	0.2
353.15	0.3999	783.7	0.2
353.15	0.5	778.1	0.2
353.15	0.6001	772.8	0.2
353.15	0.6995	767.5	0.2
353.15	0.8001	762.6	0.2
353.15	0.8996	758	0.2

System: toluene + butylcyclohexane; phases: Liquid
Fixed: Pressure, kPa = 102
Fixed: Frequency, MHz = 3
Property: Speed of sound, m/s (Liquid); method: Sing-around technique in a fixed-path interferometer
Temperature, K	Mole fraction of butylcyclohexane	Speed of sound, m/s	uncertainty
293.15	0.0681	1321.1	0.8
293.15	0.1544	1316.7	1.2
293.15	0.2197	1314.5	0.8
293.15	0.3045	1313	0.8
293.15	0.3964	1312.8	0.8
293.15	0.4964	1313.5	0.8
293.15	0.6046	1315.6	0.8
293.15	0.7244	1318.9	0.8
293.15	0.8548	1323.3	0.8
303.15	0.0681	1278.6	0.8
303.15	0.1544	1274.6	1.1
303.15	0.2197	1272.7	0.8
303.15	0.3045	1271.6	0.8
303.15	0.3964	1271.6	0.8
303.15	0.4964	1272.7	0.8
303.15	0.6046	1275	0.8
303.15	0.7244	1278.6	0.8
303.15	0.8548	1283.3	0.8
313.15	0.0681	1236.5	0.8
313.15	0.1544	1232.9	0.8
313.15	0.2197	1231.4	0.8
313.15	0.3045	1230.6	0.8
313.15	0.3964	1230.9	0.8
313.15	0.4964	1232.3	0.8
313.15	0.6046	1234.9	0.8
313.15	0.7244	1238.8	0.8
313.15	0.8548	1243.7	0.8
323.15	0.0681	1194.9	0.8
323.15	0.1544	1191.8	0.8
323.15	0.2197	1190.6	0.8
323.15	0.3045	1190.1	0.8
323.15	0.3964	1190.7	0.8
323.15	0.4964	1192.5	0.8
323.15	0.6046	1195.4	0.8
323.15	0.7244	1199.6	0.8
323.15	0.8548	1204.8	0.8
333.15	0.0681	1153.9	0.8
333.15	0.1544	1151.2	0.7
333.15	0.2197	1150.3	0.7
333.15	0.3045	1150.2	0.7
333.15	0.3964	1151.1	0.8
333.15	0.4964	1153.2	0.8
333.15	0.6046	1156.5	0.8
333.15	0.7244	1161	0.8
333.15	0.8548	1166.5	0.8

System: toluene + butylcyclohexane; phases: Liquid
Fixed: Pressure, kPa = 102
Property: Viscosity, Pa*s (Liquid); method: Concentric cylinders viscometry
Temperature, K	Mole fraction of butylcyclohexane	Viscosity, Pa*s	uncertainty
293.15	0	0.000607	1.1e-05
303.15	0	0.00054	1.1e-05
313.15	0	0.000483	1.1e-05
323.15	0	0.000434	1.1e-05
333.15	0	0.000391	1.1e-05
343.15	0	0.000349	1.1e-05
353.15	0	0.000307	1.1e-05
293.15	0.0681	0.000622	1.1e-05
303.15	0.0681	0.000552	1.1e-05
313.15	0.0681	0.000495	1.1e-05
323.15	0.0681	0.000446	1.1e-05
333.15	0.0681	0.000405	1.1e-05
343.15	0.0681	0.00037	1.1e-05
353.15	0.0681	0.000325	1.1e-05
293.15	0.1544	0.000649	1.1e-05
313.15	0.1544	0.000518	1.1e-05
323.15	0.1544	0.000466	1.1e-05
333.15	0.1544	0.000422	1.1e-05
343.15	0.1544	0.000379	1.1e-05
303.15	0.1544	0.000578	1.1e-05
353.15	0.1544	0.000345	1.1e-05
303.15	0.2197	0.000603	1.1e-05
313.15	0.2197	0.000538	1.1e-05
293.15	0.2197	0.000678	1.1e-05
323.15	0.2197	0.000484	1.1e-05
333.15	0.2197	0.000437	1.1e-05
343.15	0.2197	0.000397	1.1e-05
353.15	0.2197	0.000356	1.1e-05
303.15	0.3045	0.000638	1.1e-05
323.15	0.3045	0.00051	1.1e-05
293.15	0.3045	0.000721	1.1e-05
333.15	0.3045	0.00046	1.1e-05
313.15	0.3045	0.000568	1.1e-05
343.15	0.3045	0.000418	1.1e-05
353.15	0.3045	0.000373	1.1e-05
303.15	0.3964	0.000683	1.1e-05
323.15	0.3964	0.000541	1.1e-05
333.15	0.3964	0.000486	1.1e-05
293.15	0.3964	0.000774	1.2e-05
343.15	0.3964	0.000438	1.1e-05
313.15	0.3964	0.000607	1.1e-05
353.15	0.3964	0.000395	1.1e-05
303.15	0.4964	0.000735	1.1e-05
333.15	0.4964	0.000519	1.1e-05
313.15	0.4964	0.000651	1.1e-05
323.15	0.4964	0.00058	1.1e-05
343.15	0.4964	0.000469	1.1e-05
293.15	0.4964	0.000838	1.2e-05
353.15	0.4964	0.000426	1.1e-05
313.15	0.6046	0.000704	1.1e-05
333.15	0.6046	0.000558	1.1e-05
303.15	0.6046	0.0008	1.2e-05
293.15	0.6046	0.000916	1.2e-05
343.15	0.6046	0.000502	1.1e-05
323.15	0.6046	0.000625	1.1e-05
353.15	0.6046	0.000451	1.1e-05
293.15	0.7244	0.00102	1e-05
333.15	0.7244	0.000604	1.1e-05
343.15	0.7244	0.000535	1.1e-05
303.15	0.7244	0.000885	1.2e-05
323.15	0.7244	0.000683	1.1e-05
313.15	0.7244	0.000775	1.2e-05
353.15	0.7244	0.00049	1.1e-05
343.15	0.8548	0.000586	2.1e-05
293.15	0.8548	0.00116	2e-05
303.15	0.8548	0.000991	2.1e-05
313.15	0.8548	0.000862	2.1e-05
323.15	0.8548	0.000754	2.1e-05
333.15	0.8548	0.000663	2.1e-05
353.15	0.8548	0.000532	2.1e-05
293.15	1	0.00131	1e-05
323.15	1	0.000837	1.2e-05
303.15	1	0.00112	1e-05
313.15	1	0.000961	1.2e-05
343.15	1	0.000648	1.1e-05
333.15	1	0.000735	1.1e-05
353.15	1	0.000576	1.1e-05

System: toluene + butylcyclohexane; phases: Liquid, Gas
Fixed: Temperature, K = 294.4
Property: Surface tension liquid-gas, N/m (Liquid); method: Sessile Drop
Mole fraction of butylcyclohexane	Surface tension liquid-gas, N/m	uncertainty
0.0681	0.0281	0.0002
0.1544	0.0277	0.0002
0.2197	0.0275	0.0002
0.3045	0.0273	0.0002
0.3964	0.0272	0.0002
0.4964	0.027	0.0002
0.6046	0.0269	0.0002
0.7244	0.0267	0.0002

System: hexadecane + butylcyclohexane; phases: Liquid
Fixed: Pressure, kPa = 102
Property: Mass density, kg/m3 (Liquid); method: Vibrating tube method
Temperature, K	Mass fraction of butylcyclohexane	Mass density, kg/m3	uncertainty
293.15	0.1002	775.85	0.16
293.15	0.2	778.23	0.16
293.15	0.3001	780.67	0.16
293.15	0.3998	783.16	0.15
293.15	0.4998	785.72	0.15
293.15	0.6001	788.34	0.15
293.15	0.7	791.01	0.15
293.15	0.7999	793.72	0.15
293.15	0.8998	796.48	0.15
303.15	0.1002	768.9	0.16
303.15	0.2	771.24	0.16
303.15	0.3001	773.65	0.16
303.15	0.3998	776.08	0.16
303.15	0.4998	778.59	0.16
303.15	0.6001	781.15	0.15
303.15	0.7	783.74	0.15
303.15	0.7999	786.38	0.15
303.15	0.8998	789.06	0.15
313.15	0.1002	761.94	0.17
313.15	0.2	764.25	0.16
313.15	0.3001	766.6	0.16
313.15	0.3998	768.99	0.16
313.15	0.4998	771.43	0.16
313.15	0.6001	773.92	0.16
313.15	0.7	776.44	0.16
313.15	0.7999	779	0.15
313.15	0.8998	781.6	0.15
323.15	0.1002	754.99	0.17
323.15	0.2	757.24	0.17
323.15	0.3001	759.55	0.17
323.15	0.3998	761.87	0.16
323.15	0.4998	764.25	0.16
323.15	0.6001	766.67	0.16
323.15	0.7	769.12	0.16
323.15	0.7999	771.6	0.16
323.15	0.8998	774.12	0.16
333.15	0.1002	748.02	0.17
333.15	0.2	750.22	0.17
333.15	0.3001	752.47	0.17
333.15	0.3998	754.73	0.17
333.15	0.4998	757.04	0.17
333.15	0.6001	759.39	0.17
333.15	0.7	761.76	0.16
333.15	0.7999	764.16	0.16
333.15	0.8998	766.6	0.16
343.15	0.1002	741.1	0.18
343.15	0.2	743.2	0.17
343.15	0.3001	745.35	0.17
343.15	0.3998	747.5	0.17
343.15	0.4998	749.8	0.17
343.15	0.6001	752.1	0.17
343.15	0.7	754.35	0.17
343.15	0.7999	756.6	0.2
343.15	0.8998	759	0.16
353.15	0.1002	734.1	0.2
353.15	0.2	736.1	0.2
353.15	0.3001	738.3	0.2
353.15	0.3998	740.3	0.2
353.15	0.4998	742.5	0.2
353.15	0.6001	744.7	0.2
353.15	0.7	746.9	0.2
353.15	0.7999	749.1	0.2
353.15	0.8998	751.4	0.2

System: hexadecane + butylcyclohexane; phases: Liquid
Fixed: Pressure, kPa = 102
Fixed: Frequency, MHz = 3
Property: Speed of sound, m/s (Liquid); method: Sing-around technique in a fixed-path interferometer
Temperature, K	Mole fraction of butylcyclohexane	Speed of sound, m/s	uncertainty
293.15	0.1524	1353.6	0.8
293.15	0.2876	1349.9	0.8
293.15	0.4091	1346.4	0.8
293.15	0.5182	1343.3	0.8
293.15	0.6173	1340.4	0.8
293.15	0.7078	1337.4	0.8
293.15	0.7902	1334.9	0.8
293.15	0.8658	1332.7	0.8
293.15	0.9355	1330.4	0.8
303.15	0.1524	1316.4	0.8
303.15	0.2876	1312.6	0.8
303.15	0.4091	1309	0.8
303.15	0.5182	1305.6	0.8
303.15	0.6173	1302.5	0.8
303.15	0.7078	1299.2	0.8
303.15	0.7902	1296.4	0.8
303.15	0.8658	1293.8	0.8
303.15	0.9355	1291.2	0.8
313.15	0.1524	1279.7	0.8
313.15	0.2876	1275.8	0.8
313.15	0.4091	1272	0.8
313.15	0.5182	1268.5	0.8
313.15	0.6173	1265.1	0.8
313.15	0.7078	1261.5	0.8
313.15	0.7902	1258.3	0.8
313.15	0.8658	1255.3	0.8
313.15	0.9355	1252.3	0.8
323.15	0.1524	1243.6	0.8
323.15	0.2876	1239.6	0.8
323.15	0.4091	1235.5	0.8
323.15	0.5182	1231.8	0.8
323.15	0.6173	1228.2	0.8
323.15	0.7078	1224.3	0.8
323.15	0.7902	1220.8	0.8
323.15	0.8658	1217.6	0.8
323.15	0.9355	1214.1	0.8
333.15	0.1524	1208.1	0.8
333.15	0.2876	1203.9	0.8
333.15	0.4091	1199.7	0.8
333.15	0.5182	1195.7	0.8
333.15	0.6173	1191.8	0.8
333.15	0.7078	1187.6	0.8
333.15	0.7902	1183.9	0.8
333.15	0.8658	1180.3	0.8
333.15	0.9355	1176.4	0.8

System: hexadecane + butylcyclohexane; phases: Liquid
Fixed: Pressure, kPa = 102
Property: Viscosity, Pa*s (Liquid); method: Concentric cylinders viscometry
Temperature, K	Mole fraction of butylcyclohexane	Viscosity, Pa*s	uncertainty
293.15	0	0.00344	2e-05
303.15	0	0.00272	2e-05
313.15	0	0.00221	2e-05
323.15	0	0.00183	1e-05
333.15	0	0.00154	1e-05
343.15	0	0.00131	1e-05
353.15	0	0.00114	1e-05
293.15	0.1524	0.00307	2e-05
303.15	0.1524	0.00246	2e-05
313.15	0.1524	0.00201	1e-05
323.15	0.1524	0.00168	1e-05
333.15	0.1524	0.00142	1e-05
343.15	0.1524	0.00122	1e-05
353.15	0.1524	0.00106	1e-05
293.15	0.2876	0.00276	3e-05
313.15	0.2876	0.00184	2e-05
323.15	0.2876	0.00154	2e-05
333.15	0.2876	0.00131	2e-05
343.15	0.2876	0.00113	1e-05
303.15	0.2876	0.00223	2e-05
353.15	0.2876	0.000987	1.3e-05
303.15	0.4091	0.00203	2e-05
313.15	0.4091	0.00168	2e-05
293.15	0.4091	0.00248	3e-05
323.15	0.4091	0.00142	2e-05
333.15	0.4091	0.00121	2e-05
343.15	0.4091	0.00105	1e-05
353.15	0.4091	0.000921	1.3e-05
303.15	0.5182	0.00185	2e-05
323.15	0.5182	0.00131	2e-05
293.15	0.5182	0.00225	3e-05
333.15	0.5182	0.00113	2e-05
313.15	0.5182	0.00154	2e-05
343.15	0.5182	0.000977	1.4e-05
353.15	0.5182	0.00086	1.3e-05
303.15	0.6173	0.00169	2e-05
323.15	0.6173	0.00121	2e-05
333.15	0.6173	0.00105	2e-05
293.15	0.6173	0.00204	3e-05
343.15	0.6173	0.000912	1.3e-05
313.15	0.6173	0.00142	2e-05
353.15	0.6173	0.000805	1.3e-05
303.15	0.7078	0.00155	2e-05
333.15	0.7078	0.000972	1.4e-05
313.15	0.7078	0.00131	2e-05
323.15	0.7078	0.00112	2e-05
343.15	0.7078	0.000851	1.3e-05
293.15	0.7078	0.00186	2e-05
353.15	0.7078	0.000753	1.3e-05
313.15	0.7902	0.00121	2e-05
333.15	0.7902	0.000906	1.4e-05
303.15	0.7902	0.00142	2e-05
293.15	0.7902	0.0017	2e-05
343.15	0.7902	0.000797	1.3e-05
323.15	0.7902	0.00104	2e-05
353.15	0.7902	0.000706	1.3e-05
293.15	0.8658	0.00155	2e-05
333.15	0.8658	0.000844	1.4e-05
343.15	0.8658	0.000745	1.4e-05
303.15	0.8658	0.00131	2e-05
323.15	0.8658	0.000966	1.5e-05
313.15	0.8658	0.00112	2e-05
353.15	0.8658	0.000662	1.3e-05
343.15	0.9355	0.000694	1.4e-05
293.15	0.9355	0.00142	2e-05
303.15	0.9355	0.00121	2e-05
313.15	0.9355	0.00103	2e-05
323.15	0.9355	0.000897	1.5e-05
333.15	0.9355	0.000783	1.4e-05
353.15	0.9355	0.000619	1.3e-05
293.15	1	0.00131	1e-05
323.15	1	0.000837	1.2e-05
303.15	1	0.00112	1e-05
313.15	1	0.000961	1.2e-05
343.15	1	0.000648	1.1e-05
333.15	1	0.000735	1.1e-05
353.15	1	0.000576	1.1e-05

System: hexadecane + butylcyclohexane; phases: Liquid, Gas
Fixed: Temperature, K = 294.4
Property: Surface tension liquid-gas, N/m (Liquid); method: Sessile Drop
Mole fraction of butylcyclohexane	Surface tension liquid-gas, N/m	uncertainty
0.1524	0.0269	0.0002
0.2876	0.0269	0.0002
0.4091	0.0269	0.0002
0.5182	0.0268	0.0002
0.6173	0.0268	0.0002
0.7078	0.0268	0.0002
0.7902	0.0267	0.0002
0.8658	0.0267	0.0002
0.9355	0.0267	0.0002
