Measured thermophysical data. Influence of Phosphate-Based Salts on Enthalpy of Dilution and Isentropic Compressibility Properties of Saccharides and Their Derivatives in Aqueous Solutions
Source: J. Chem. Eng. Data, 2019, 10.1021/acs.jced.8b00681
Compound 1: water, H2O, InChI=1S/H2O/h1H2, purity 99.9%
Compound 2: D-ribose, C5H10O5, InChI=1S/C5H10O5/c6-1-3(8)5(10)4(9)2-7/h1,3-5,7-10H,2H2/t3-,4+,5-/m0/s1, purity 99%
Compound 3: 2-deoxy-D-glucose, C6H12O5, InChI=1S/C6H12O5/c7-2-4-6(10)3(8)1-5(9)11-4/h3-10H,1-2H2/t3-,4-,5?,6+/m1/s1, purity 99%
Compound 4: methyl-.alpha.-D-glucopyranoside, C7H14O6, InChI=1S/C7H14O6/c1-12-7-6(11)5(10)4(9)3(2-8)13-7/h3-11H,2H2,1H3/t3-,4-,5+,6-,7+/m1/s1, purity 99%
Compound 5: D-glucose, C6H12O6, InChI=1S/C6H12O6/c7-1-3(9)5(11)6(12)4(10)2-8/h1,3-6,8-12H,2H2/t3-,4+,5+,6+/m0/s1, purity 99%
Compound 6: sodium dihydrogen phosphate, H2NaO4P, InChI=1S/Na.H3O4P/c;1-5(2,3)4/h;(H3,1,2,3,4)/q+1;/p-1, purity 99%
Compound 7: ammonium dihydrogen phosphate, H6NO4P, InChI=1S/H3N.H3O4P/c;1-5(2,3)4/h1H3;(H3,1,2,3,4), purity 98%
Compound 8: tripotassium phosphate, K3O4P, InChI=1S/3K.H3O4P/c;;;1-5(2,3)4/h;;;(H3,1,2,3,4)/q3*+1;/p-3, purity 98%
Compound 9: D-maltose, C12H22O11, InChI=1S/C12H22O11/c13-1-3-5(15)6(16)9(19)12(22-3)23-10-4(2-14)21-11(20)8(18)7(10)17/h3-20H,1-2H2/t3-,4-,5-,6+,7-,8-,9-,10-,11?,12-/m1/s1, purity 99%
Compound 10: D-raffinose, C18H32O16, InChI=1S/C18H32O16/c19-1-5-8(22)11(25)13(27)16(31-5)30-3-7-9(23)12(26)14(28)17(32-7)34-18(4-21)15(29)10(24)6(2-20)33-18/h5-17,19-29H,1-4H2/t5-,6-,7-,8+,9-,10-,11+,12+,13-,14-,15+,16+,17-,18+/m1/s1, purity 99%

System: water; phases: Liquid
Fixed: Pressure, kPa = 100
Fixed: Frequency, MHz = 2
Property: Speed of sound, m/s (Liquid); method: Linear variable-path acoustic interferometer
Temperature, K	Speed of sound, m/s	uncertainty
288.15	1465.88	20.05
298.15	1496.78	20.05
308.15	1519.88	20.05
318.15	1536.38	20.05

System: sodium dihydrogen phosphate + D-ribose + water; phases: Liquid
Fixed: Initial molality of solute, mol/kg = 0.5
Fixed: Pressure, kPa = 100
Fixed: Final molality of solute, mol/kg = 0
Property: Molar enthalpy of dilution, kJ/mol (Liquid); method: titration calorimetry
Temperature, K	Solvent: Molality, mol/kg of sodium dihydrogen phosphate	Molar enthalpy of dilution, kJ/mol	uncertainty
288.15	0	-0.151	0.044
288.15	0.05	-0.23	0.06
288.15	0.15	-0.436	0.096
288.15	0.25	-0.639	0.135
288.15	0.35	-0.882	0.183
298.15	0	-0.136	0.04
298.15	0.05	-0.191	0.049
298.15	0.15	-0.351	0.076
298.15	0.25	-0.468	0.097
298.15	0.35	-0.588	0.122
308.15	0	-0.066	0.018
308.15	0.05	-0.109	0.033
308.15	0.15	-0.253	0.057
308.15	0.25	-0.38	0.078
308.15	0.35	-0.428	0.087
318.15	0	-0.038	0.014
318.15	0.05	-0.068	0.018
318.15	0.15	-0.126	0.03
318.15	0.25	-0.228	0.05
318.15	0.35	-0.318	0.066

System: sodium dihydrogen phosphate + D-ribose + water; phases: Liquid
Fixed: Pressure, kPa = 100
Fixed: Frequency, MHz = 2
Property: Speed of sound, m/s (Liquid); method: Linear variable-path acoustic interferometer
Solvent: Molality, mol/kg of sodium dihydrogen phosphate	Temperature, K	Molality, mol/kg of D-ribose	Speed of sound, m/s	uncertainty
0	288.15	0.04514	1468.68	20.06
0	288.15	0.06075	1469.65	20.06
0	288.15	0.08352	1471.08	20.06
0	288.15	0.11201	1472.87	20.06
0	288.15	0.13475	1474.31	20.06
0	288.15	0.15234	1475.43	20.06
0	298.15	0.04514	1499.07	20.06
0	298.15	0.06075	1499.86	20.06
0	298.15	0.08352	1501.01	20.06
0	298.15	0.11201	1502.47	20.06
0	298.15	0.13475	1503.64	20.06
0	298.15	0.15234	1504.54	20.06
0	308.15	0.04514	1521.96	20.06
0	308.15	0.06075	1522.68	20.06
0	308.15	0.08352	1523.74	20.06
0	308.15	0.11201	1525.06	20.06
0	308.15	0.13475	1526.12	20.06
0	308.15	0.15234	1526.94	20.06
0	318.15	0.04514	1538.26	20.06
0	318.15	0.06075	1538.91	20.06
0	318.15	0.08352	1539.86	20.06
0	318.15	0.11201	1541.05	20.06
0	318.15	0.13475	1542.01	20.06
0	318.15	0.15234	1542.75	20.06
0.5	288.15	0.04276	1519.6	20.06
0.5	288.15	0.05772	1520.62	20.06
0.5	288.15	0.07618	1521.89	20.06
0.5	288.15	0.09924	1523.48	20.06
0.5	288.15	0.12938	1525.59	20.06
0.5	288.15	0.1626	1527.93	20.06
0.5	298.15	0.04276	1549.68	20.07
0.5	298.15	0.05772	1550.51	20.06
0.5	298.15	0.07618	1551.53	20.06
0.5	298.15	0.09924	1552.81	20.06
0.5	298.15	0.12938	1554.5	20.07
0.5	298.15	0.1626	1556.38	20.07
0.5	308.15	0.04276	1569.63	20.07
0.5	308.15	0.05772	1570.37	20.07
0.5	308.15	0.07618	1571.3	20.07
0.5	308.15	0.09924	1572.45	20.07
0.5	308.15	0.12938	1573.95	20.07
0.5	308.15	0.1626	1575.61	20.07
0.5	318.15	0.04276	1584.6	20.07
0.5	318.15	0.05772	1585.3	20.07
0.5	318.15	0.07618	1586.17	20.07
0.5	318.15	0.09924	1587.25	20.07
0.5	318.15	0.12938	1588.69	20.07
0.5	318.15	0.1626	1590.28	20.07
1	288.15	0.04867	1566.74	20.07
1	288.15	0.06571	1567.99	20.07
1	288.15	0.08354	1569.29	20.07
1	288.15	0.10516	1570.88	20.07
1	288.15	0.13533	1573.09	20.07
1	288.15	0.15853	1574.79	20.07
1	298.15	0.04867	1600.91	20.07
1	298.15	0.06571	1601.92	20.07
1	298.15	0.08354	1602.97	20.07
1	298.15	0.10516	1604.24	20.07
1	298.15	0.13533	1606.01	20.07
1	298.15	0.15853	1607.37	20.07
1	308.15	0.04867	1621.62	20.07
1	308.15	0.06571	1622.56	20.07
1	308.15	0.08354	1623.55	20.07
1	308.15	0.10516	1624.74	20.07
1	308.15	0.13533	1626.41	20.07
1	308.15	0.15853	1627.7	20.07
1	318.15	0.04867	1641.26	20.07
1	318.15	0.06571	1642.13	20.07
1	318.15	0.08354	1643.03	20.07
1	318.15	0.10516	1644.12	20.07
1	318.15	0.13533	1645.64	20.07
1	318.15	0.15853	1646.8	20.07
1.5	288.15	0.04601	1610.99	20.07
1.5	288.15	0.06942	1612.85	20.07
1.5	288.15	0.08749	1614.28	20.07
1.5	288.15	0.11707	1616.64	20.07
1.5	288.15	0.13413	1618	20.07
1.5	288.15	0.15991	1620.05	20.07
1.5	298.15	0.04601	1651.95	20.07
1.5	298.15	0.06942	1653.46	20.07
1.5	298.15	0.08749	1654.63	20.07
1.5	298.15	0.11707	1656.54	20.07
1.5	298.15	0.13413	1657.64	20.07
1.5	298.15	0.15991	1659.31	20.07
1.5	308.15	0.04601	1677.74	20.07
1.5	308.15	0.06942	1679.15	20.07
1.5	308.15	0.08749	1680.23	20.07
1.5	308.15	0.11707	1682.02	20.07
1.5	308.15	0.13413	1683.04	20.07
1.5	308.15	0.15991	1684.61	20.07
1.5	318.15	0.04601	1707.34	20.07
1.5	318.15	0.06942	1708.62	20.07
1.5	318.15	0.08749	1709.61	20.07
1.5	318.15	0.11707	1711.22	20.07
1.5	318.15	0.13413	1712.14	20.07
1.5	318.15	0.15991	1713.55	20.07
2	288.15	0.04642	1653.13	20.07
2	288.15	0.06963	1655.08	20.07
2	288.15	0.08678	1656.53	20.07
2	288.15	0.11534	1658.93	20.07
2	288.15	0.13003	1660.16	20.07
2	288.15	0.16106	1662.77	20.07
2	298.15	0.04642	1703.46	20.07
2	298.15	0.06963	1705.03	20.07
2	298.15	0.08678	1706.18	20.07
2	298.15	0.11534	1708.11	20.07
2	298.15	0.13003	1709.09	20.07
2	298.15	0.16106	1711.18	20.07
2	308.15	0.04642	1738.77	20.08
2	308.15	0.06963	1740.31	20.08
2	308.15	0.08678	1741.44	20.08
2	308.15	0.11534	1743.33	20.08
2	308.15	0.13003	1744.3	20.08
2	308.15	0.16106	1746.35	20.08
2	318.15	0.04642	1785.38	20.08
2	318.15	0.06963	1786.67	20.08
2	318.15	0.08678	1787.62	20.08
2	318.15	0.11534	1789.19	20.08
2	318.15	0.13003	1789.98	20.08
2	318.15	0.16106	1791.67	20.08

System: sodium dihydrogen phosphate + 2-deoxy-D-glucose + water; phases: Liquid
Fixed: Initial molality of solute, mol/kg = 0.5
Fixed: Pressure, kPa = 100
Fixed: Final molality of solute, mol/kg = 0
Property: Molar enthalpy of dilution, kJ/mol (Liquid); method: titration calorimetry
Temperature, K	Solvent: Molality, mol/kg of sodium dihydrogen phosphate	Molar enthalpy of dilution, kJ/mol	uncertainty
288.15	0	-0.285	0.058
288.15	0.05	-0.312	0.065
288.15	0.15	-0.409	0.082
288.15	0.25	-0.4	0.081
288.15	0.35	-0.518	0.106
298.15	0	-0.278	0.057
298.15	0.05	-0.293	0.059
298.15	0.15	-0.332	0.066
298.15	0.25	-0.304	0.061
298.15	0.35	-0.32	0.064
308.15	0	-0.229	0.046
308.15	0.05	-0.242	0.049
308.15	0.15	-0.268	0.054
308.15	0.25	-0.221	0.045
308.15	0.35	-0.163	0.033
318.15	0	-0.217	0.044
318.15	0.05	-0.227	0.046
318.15	0.15	-0.237	0.048
318.15	0.25	-0.134	0.03
318.15	0.35	-0.113	0.023

System: sodium dihydrogen phosphate + 2-deoxy-D-glucose + water; phases: Liquid
Fixed: Pressure, kPa = 100
Fixed: Frequency, MHz = 2
Property: Speed of sound, m/s (Liquid); method: Linear variable-path acoustic interferometer
Solvent: Molality, mol/kg of sodium dihydrogen phosphate	Temperature, K	Molality, mol/kg of 2-deoxy-D-glucose	Speed of sound, m/s	uncertainty
0	288.15	0.04452	1468.52	20.06
0	288.15	0.06258	1469.57	20.06
0	288.15	0.08916	1471.09	20.06
0	288.15	0.09804	1471.6	20.06
0	288.15	0.10308	1471.87	20.06
0	288.15	0.12755	1473.24	20.06
0	298.15	0.04452	1499.15	20.06
0	298.15	0.06258	1500.08	20.06
0	298.15	0.08916	1501.44	20.06
0	298.15	0.09804	1501.89	20.06
0	298.15	0.10308	1502.13	20.06
0	298.15	0.12755	1503.34	20.06
0	308.15	0.04452	1522.09	20.06
0	308.15	0.06258	1522.97	20.06
0	308.15	0.08916	1524.26	20.06
0	308.15	0.09804	1524.69	20.06
0	308.15	0.10308	1524.93	20.06
0	308.15	0.12755	1526.1	20.06
0	318.15	0.04452	1538.24	20.06
0	318.15	0.06258	1538.99	20.06
0	318.15	0.08916	1540.08	20.06
0	318.15	0.09804	1540.45	20.06
0	318.15	0.10308	1540.65	20.06
0	318.15	0.12755	1541.64	20.06
0.5	288.15	0.04053	1519.17	20.06
0.5	288.15	0.05414	1520.01	20.06
0.5	288.15	0.07808	1521.47	20.06
0.5	288.15	0.10366	1523.04	20.06
0.5	288.15	0.12871	1524.58	20.06
0.5	288.15	0.16176	1526.61	20.06
0.5	298.15	0.04053	1549.63	20.07
0.5	298.15	0.05414	1550.4	20.06
0.5	298.15	0.07808	1551.77	20.06
0.5	298.15	0.10366	1553.25	20.06
0.5	298.15	0.12871	1554.7	20.07
0.5	298.15	0.16176	1556.64	20.07
0.5	308.15	0.04053	1569.62	20.07
0.5	308.15	0.05414	1570.34	20.07
0.5	308.15	0.07808	1571.59	20.07
0.5	308.15	0.10366	1572.94	20.07
0.5	308.15	0.12871	1574.27	20.07
0.5	308.15	0.16176	1576.02	20.07
0.5	318.15	0.04053	1584.45	20.07
0.5	318.15	0.05414	1585.06	20.07
0.5	318.15	0.07808	1586.14	20.07
0.5	318.15	0.10366	1587.29	20.07
0.5	318.15	0.12871	1588.42	20.07
0.5	318.15	0.16176	1589.9	20.07
1	288.15	0.0467	1566.2	20.07
1	288.15	0.06392	1567.33	20.07
1	288.15	0.08112	1568.46	20.07
1	288.15	0.10967	1570.34	20.07
1	288.15	0.13852	1572.26	20.07
1	288.15	0.1574	1573.52	20.07
1	298.15	0.0467	1600.79	20.07
1	298.15	0.06392	1601.81	20.07
1	298.15	0.08112	1602.83	20.07
1	298.15	0.10967	1604.52	20.07
1	298.15	0.13852	1606.22	20.07
1	298.15	0.1574	1607.34	20.07
1	308.15	0.0467	1621.47	20.07
1	308.15	0.06392	1622.4	20.07
1	308.15	0.08112	1623.33	20.07
1	308.15	0.10967	1624.88	20.07
1	308.15	0.13852	1626.44	20.07
1	308.15	0.1574	1627.46	20.07
1	318.15	0.0467	1641.04	20.07
1	318.15	0.06392	1641.88	20.07
1	318.15	0.08112	1642.71	20.07
1	318.15	0.10967	1644.09	20.07
1	318.15	0.13852	1645.48	20.07
1	318.15	0.1574	1646.39	20.07
1.5	288.15	0.04688	1610.56	20.07
1.5	288.15	0.07693	1612.62	20.07
1.5	288.15	0.10141	1614.28	20.07
1.5	288.15	0.12537	1615.9	20.07
1.5	288.15	0.14483	1617.22	20.07
1.5	288.15	0.15743	1618.07	20.07
1.5	298.15	0.04688	1651.96	20.07
1.5	298.15	0.07693	1653.86	20.07
1.5	298.15	0.10141	1655.39	20.07
1.5	298.15	0.12537	1656.89	20.07
1.5	298.15	0.14483	1658.1	20.07
1.5	298.15	0.15743	1658.88	20.07
1.5	308.15	0.04688	1677.68	20.07
1.5	308.15	0.07693	1679.39	20.07
1.5	308.15	0.10141	1680.78	20.07
1.5	308.15	0.12537	1682.14	20.07
1.5	308.15	0.14483	1683.23	20.07
1.5	308.15	0.15743	1683.93	20.07
1.5	318.15	0.04688	1707.19	20.07
1.5	318.15	0.07693	1708.7	20.07
1.5	318.15	0.10141	1709.93	20.07
1.5	318.15	0.12537	1711.12	20.07
1.5	318.15	0.14483	1712.09	20.07
1.5	318.15	0.15743	1712.72	20.07
2	288.15	0.05153	1652.91	20.07
2	288.15	0.07483	1654.58	20.07
2	288.15	0.09237	1655.82	20.07
2	288.15	0.11106	1657.15	20.07
2	288.15	0.12552	1658.17	20.07
2	288.15	0.14767	1659.73	20.07
2	298.15	0.05153	1703.63	20.07
2	298.15	0.07483	1705.12	20.07
2	298.15	0.09237	1706.23	20.07
2	298.15	0.11106	1707.41	20.07
2	298.15	0.12552	1708.31	20.07
2	298.15	0.14767	1709.7	20.07
2	308.15	0.05153	1738.72	20.08
2	308.15	0.07483	1740.07	20.08
2	308.15	0.09237	1741.09	20.08
2	308.15	0.11106	1742.16	20.08
2	308.15	0.12552	1742.98	20.08
2	308.15	0.14767	1744.23	20.08
2	318.15	0.05153	1785.25	20.08
2	318.15	0.07483	1786.34	20.08
2	318.15	0.09237	1787.15	20.08
2	318.15	0.11106	1788.02	20.08
2	318.15	0.12552	1788.67	20.08
2	318.15	0.14767	1789.66	20.08

System: sodium dihydrogen phosphate + methyl-.alpha.-D-glucopyranoside + water; phases: Liquid
Fixed: Initial molality of solute, mol/kg = 0.5
Fixed: Pressure, kPa = 100
Fixed: Final molality of solute, mol/kg = 0
Property: Molar enthalpy of dilution, kJ/mol (Liquid); method: titration calorimetry
Temperature, K	Solvent: Molality, mol/kg of sodium dihydrogen phosphate	Molar enthalpy of dilution, kJ/mol	uncertainty
288.15	0	-0.501	0.101
288.15	0.05	-0.521	0.105
288.15	0.15	-0.571	0.114
288.15	0.25	-0.552	0.111
288.15	0.35	-0.66	0.134
298.15	0	-0.474	0.096
298.15	0.05	-0.438	0.088
298.15	0.15	-0.429	0.086
298.15	0.25	-0.428	0.086
298.15	0.35	-0.415	0.084
308.15	0	-0.446	0.091
308.15	0.05	-0.4	0.081
308.15	0.15	-0.366	0.073
308.15	0.25	-0.361	0.072
308.15	0.35	-0.348	0.07
318.15	0	-0.43	0.09
318.15	0.05	-0.366	0.075
318.15	0.15	-0.32	0.064
318.15	0.25	-0.297	0.06
318.15	0.35	-0.221	0.047

System: sodium dihydrogen phosphate + methyl-.alpha.-D-glucopyranoside + water; phases: Liquid
Fixed: Pressure, kPa = 100
Fixed: Frequency, MHz = 2
Property: Speed of sound, m/s (Liquid); method: Linear variable-path acoustic interferometer
Solvent: Molality, mol/kg of sodium dihydrogen phosphate	Temperature, K	Molality, mol/kg of methyl-.alpha.-D-glucopyranoside	Speed of sound, m/s	uncertainty
0	288.15	0.05678	1470.73	20.06
0	288.15	0.06847	1471.7	20.06
0	288.15	0.08732	1473.24	20.06
0	288.15	0.11925	1475.81	20.06
0	288.15	0.12933	1476.61	20.06
0	288.15	0.1466	1477.97	20.06
0	298.15	0.05678	1501.16	20.06
0	298.15	0.06847	1502.05	20.06
0	298.15	0.08732	1503.5	20.06
0	298.15	0.11925	1505.95	20.06
0	298.15	0.12933	1506.72	20.06
0	298.15	0.1466	1508.05	20.06
0	308.15	0.05678	1524.05	20.06
0	308.15	0.06847	1524.91	20.06
0	308.15	0.08732	1526.29	20.06
0	308.15	0.11925	1528.62	20.06
0	308.15	0.12933	1529.36	20.06
0	308.15	0.1466	1530.61	20.06
0	318.15	0.05678	1540.48	20.06
0	318.15	0.06847	1541.32	20.06
0	318.15	0.08732	1542.68	20.06
0	318.15	0.11925	1544.97	20.06
0	318.15	0.12933	1545.69	20.06
0	318.15	0.1466	1546.93	20.06
0.5	288.15	0.04222	1520.61	20.06
0.5	288.15	0.05507	1521.8	20.06
0.5	288.15	0.07499	1523.65	20.06
0.5	288.15	0.09411	1525.42	20.06
0.5	288.15	0.12183	1527.99	20.06
0.5	288.15	0.14473	1530.11	20.06
0.5	298.15	0.04222	1550.81	20.07
0.5	298.15	0.05507	1551.86	20.06
0.5	298.15	0.07499	1553.48	20.06
0.5	298.15	0.09411	1555.05	20.07
0.5	298.15	0.12183	1557.31	20.07
0.5	298.15	0.14473	1559.19	20.07
0.5	308.15	0.04222	1570.75	20.07
0.5	308.15	0.05507	1571.73	20.07
0.5	308.15	0.07499	1573.26	20.07
0.5	308.15	0.09411	1574.72	20.07
0.5	308.15	0.12183	1576.84	20.07
0.5	308.15	0.14473	1578.58	20.07
0.5	318.15	0.04222	1585.81	20.07
0.5	318.15	0.05507	1586.78	20.07
0.5	318.15	0.07499	1588.28	20.07
0.5	318.15	0.09411	1589.72	20.07
0.5	318.15	0.12183	1591.8	20.07
0.5	318.15	0.14473	1593.51	20.07
1	288.15	0.04629	1567.99	20.07
1	288.15	0.06084	1569.51	20.07
1	288.15	0.08754	1572.3	20.07
1	288.15	0.11387	1575.05	20.07
1	288.15	0.12792	1576.52	20.07
1	288.15	0.15812	1579.68	20.07
1	298.15	0.04629	1602.27	20.07
1	298.15	0.06084	1603.61	20.07
1	298.15	0.08754	1606.05	20.07
1	298.15	0.11387	1608.46	20.07
1	298.15	0.12792	1609.75	20.07
1	298.15	0.15812	1612.52	20.07
1	308.15	0.04629	1622.92	20.07
1	308.15	0.06084	1624.17	20.07
1	308.15	0.08754	1626.46	20.07
1	308.15	0.11387	1628.73	20.07
1	308.15	0.12792	1629.93	20.07
1	308.15	0.15812	1632.52	20.07
1	318.15	0.04629	1642.68	20.07
1	318.15	0.06084	1643.9	20.07
1	318.15	0.08754	1646.14	20.07
1	318.15	0.11387	1648.35	20.07
1	318.15	0.12792	1649.52	20.07
1	318.15	0.15812	1652.06	20.07
1.5	288.15	0.04483	1612.52	20.07
1.5	288.15	0.06364	1614.7	20.07
1.5	288.15	0.08457	1617.12	20.07
1.5	288.15	0.11062	1620.13	20.07
1.5	288.15	0.13071	1622.45	20.07
1.5	288.15	0.15101	1624.8	20.07
1.5	298.15	0.04483	1653.56	20.07
1.5	298.15	0.06364	1655.47	20.07
1.5	298.15	0.08457	1657.59	20.07
1.5	298.15	0.11062	1660.22	20.07
1.5	298.15	0.13071	1662.25	20.07
1.5	298.15	0.15101	1664.3	20.07
1.5	308.15	0.04483	1679.25	20.07
1.5	308.15	0.06364	1681.04	20.07
1.5	308.15	0.08457	1683.03	20.07
1.5	308.15	0.11062	1685.5	20.07
1.5	308.15	0.13071	1687.4	20.07
1.5	308.15	0.15101	1689.31	20.07
1.5	318.15	0.04483	1709.01	20.07
1.5	318.15	0.06364	1710.76	20.07
1.5	318.15	0.08457	1712.72	20.07
1.5	318.15	0.11062	1715.16	20.07
1.5	318.15	0.13071	1717.05	20.07
1.5	318.15	0.15101	1718.96	20.07
2	288.15	0.04467	1654.65	20.07
2	288.15	0.06005	1656.51	20.07
2	288.15	0.08223	1659.21	20.07
2	288.15	0.10486	1661.95	20.07
2	288.15	0.12081	1663.88	20.07
2	288.15	0.15185	1667.63	20.07
2	298.15	0.04467	1705.06	20.07
2	298.15	0.06005	1706.69	20.07
2	298.15	0.08223	1709.04	20.07
2	298.15	0.10486	1711.44	20.07
2	298.15	0.12081	1713.11	20.07
2	298.15	0.15185	1716.39	20.07
2	308.15	0.04467	1740.18	20.08
2	308.15	0.06005	1741.71	20.08
2	308.15	0.08223	1743.92	20.08
2	308.15	0.10486	1746.18	20.08
2	308.15	0.12081	1747.74	20.08
2	308.15	0.15185	1750.79	20.08
2	318.15	0.04467	1787.17	20.08
2	318.15	0.06005	1788.67	20.08
2	318.15	0.08223	1790.84	20.08
2	318.15	0.10486	1793.05	20.08
2	318.15	0.12081	1794.59	20.08
2	318.15	0.15185	1797.58	20.08

System: sodium dihydrogen phosphate + D-glucose + water; phases: Liquid
Fixed: Initial molality of solute, mol/kg = 0.5
Fixed: Pressure, kPa = 100
Fixed: Final molality of solute, mol/kg = 0
Property: Molar enthalpy of dilution, kJ/mol (Liquid); method: titration calorimetry
Temperature, K	Solvent: Molality, mol/kg of sodium dihydrogen phosphate	Molar enthalpy of dilution, kJ/mol	uncertainty
288.15	0	-0.152	0.038
288.15	0.05	-0.208	0.048
288.15	0.15	-0.329	0.071
288.15	0.25	-0.481	0.105
288.15	0.35	-0.757	0.161
298.15	0	-0.175	0.036
298.15	0.05	-0.191	0.042
298.15	0.15	-0.294	0.062
298.15	0.25	-0.384	0.079
298.15	0.35	-0.489	0.103
308.15	0	-0.18	0.036
308.15	0.05	-0.183	0.038
308.15	0.15	-0.247	0.052
308.15	0.25	-0.33	0.067
308.15	0.35	-0.379	0.077
318.15	0	-0.185	0.038
318.15	0.05	-0.165	0.033
318.15	0.15	-0.192	0.039
318.15	0.25	-0.246	0.05
318.15	0.35	-0.299	0.061

System: sodium dihydrogen phosphate + D-glucose + water; phases: Liquid
Fixed: Pressure, kPa = 100
Fixed: Frequency, MHz = 2
Property: Speed of sound, m/s (Liquid); method: Linear variable-path acoustic interferometer
Solvent: Molality, mol/kg of sodium dihydrogen phosphate	Temperature, K	Molality, mol/kg of D-glucose	Speed of sound, m/s	uncertainty
0	288.15	0.054	1469.6	20.06
0	288.15	0.07085	1470.77	20.06
0	288.15	0.09905	1472.73	20.06
0	288.15	0.11958	1474.16	20.06
0	288.15	0.12207	1474.34	20.06
0	288.15	0.13877	1475.5	20.06
0	298.15	0.054	1500.1	20.06
0	298.15	0.07085	1501.14	20.06
0	298.15	0.09905	1502.89	20.06
0	298.15	0.11958	1504.16	20.06
0	298.15	0.12207	1504.31	20.06
0	298.15	0.13877	1505.35	20.06
0	308.15	0.054	1523.08	20.06
0	308.15	0.07085	1524.7	20.06
0	308.15	0.09905	1527.39	20.06
0	308.15	0.11958	1529.31	20.07
0	308.15	0.12207	1529.54	20.07
0	308.15	0.13877	1531.08	20.06
0	318.15	0.054	1539.19	20.06
0	318.15	0.07085	1540.7	20.06
0	318.15	0.09905	1543.18	20.06
0	318.15	0.11958	1544.96	20.06
0	318.15	0.12207	1545.17	20.06
0	318.15	0.13877	1546.59	20.06
0.5	288.15	0.05372	1520.49	20.06
0.5	288.15	0.06928	1521.59	20.06
0.5	288.15	0.08326	1522.57	20.06
0.5	288.15	0.10564	1524.16	20.06
0.5	288.15	0.13215	1526.04	20.06
0.5	288.15	0.15862	1527.92	20.06
0.5	298.15	0.05372	1550.69	20.06
0.5	298.15	0.06928	1551.67	20.06
0.5	298.15	0.08326	1552.55	20.06
0.5	298.15	0.10564	1553.96	20.07
0.5	298.15	0.13215	1555.65	20.07
0.5	298.15	0.15862	1557.34	20.07
0.5	308.15	0.05372	1570.76	20.07
0.5	308.15	0.06928	1571.71	20.07
0.5	308.15	0.08326	1572.57	20.07
0.5	308.15	0.10564	1573.95	20.07
0.5	308.15	0.13215	1575.59	20.07
0.5	308.15	0.15862	1577.23	20.07
0.5	318.15	0.05372	1585.57	20.07
0.5	318.15	0.06928	1586.43	20.07
0.5	318.15	0.08326	1587.19	20.07
0.5	318.15	0.10564	1588.42	20.07
0.5	318.15	0.13215	1589.86	20.07
0.5	318.15	0.15862	1591.31	20.07
1	288.15	0.04767	1566.9	20.07
1	288.15	0.06015	1567.87	20.07
1	288.15	0.08001	1569.42	20.07
1	288.15	0.10417	1571.3	20.07
1	288.15	0.12846	1573.19	20.07
1	288.15	0.14889	1574.78	20.07
1	298.15	0.04767	1601.4	20.07
1	298.15	0.06015	1602.28	20.07
1	298.15	0.08001	1603.69	20.07
1	298.15	0.10417	1605.41	20.07
1	298.15	0.12846	1607.13	20.07
1	298.15	0.14889	1608.58	20.07
1	308.15	0.04767	1622.22	20.07
1	308.15	0.06015	1623.07	20.07
1	308.15	0.08001	1624.44	20.07
1	308.15	0.10417	1626.1	20.07
1	308.15	0.12846	1627.77	20.07
1	308.15	0.14889	1629.17	20.07
1	318.15	0.04767	1641.78	20.07
1	318.15	0.06015	1642.56	20.07
1	318.15	0.08001	1643.8	20.07
1	318.15	0.10417	1645.31	20.07
1	318.15	0.12846	1646.83	20.07
1	318.15	0.14889	1648.1	20.07
1.5	288.15	0.05109	1611.74	20.07
1.5	288.15	0.06497	1612.93	20.07
1.5	288.15	0.08668	1614.79	20.07
1.5	288.15	0.10774	1616.59	20.07
1.5	288.15	0.12898	1618.4	20.07
1.5	288.15	0.14805	1620.02	20.07
1.5	298.15	0.05109	1652.98	20.07
1.5	298.15	0.06497	1654.06	20.07
1.5	298.15	0.08668	1655.74	20.07
1.5	298.15	0.10774	1657.37	20.07
1.5	298.15	0.12898	1659	20.07
1.5	298.15	0.14805	1660.47	20.07
1.5	308.15	0.05109	1678.87	20.07
1.5	308.15	0.06497	1679.91	20.07
1.5	308.15	0.08668	1681.54	20.07
1.5	308.15	0.10774	1683.11	20.07
1.5	308.15	0.12898	1684.68	20.07
1.5	308.15	0.14805	1686.1	20.07
1.5	318.15	0.05109	1708.4	20.07
1.5	318.15	0.06497	1709.36	20.07
1.5	318.15	0.08668	1710.86	20.07
1.5	318.15	0.10774	1712.31	20.07
1.5	318.15	0.12898	1713.77	20.07
1.5	318.15	0.14805	1715.07	20.07
2	288.15	0.04218	1653.18	20.07
2	288.15	0.05598	1654.48	20.07
2	288.15	0.07331	1656.1	20.07
2	288.15	0.0857	1657.26	20.07
2	288.15	0.11098	1659.62	20.07
2	288.15	0.14354	1662.64	20.07
2	298.15	0.04218	1703.84	20.07
2	298.15	0.05598	1704.99	20.07
2	298.15	0.07331	1706.43	20.07
2	298.15	0.0857	1707.46	20.07
2	298.15	0.11098	1709.54	20.07
2	298.15	0.14354	1712.21	20.07
2	308.15	0.04218	1739.12	20.08
2	308.15	0.05598	1740.24	20.08
2	308.15	0.07331	1741.64	20.08
2	308.15	0.0857	1742.64	20.08
2	308.15	0.11098	1744.68	20.08
2	308.15	0.14354	1747.28	20.08
2	318.15	0.04218	1786.02	20.08
2	318.15	0.05598	1787.08	20.08
2	318.15	0.07331	1788.42	20.08
2	318.15	0.0857	1789.37	20.08
2	318.15	0.11098	1791.3	20.08
2	318.15	0.14354	1793.8	20.08

System: sodium dihydrogen phosphate + D-maltose + water; phases: Liquid
Fixed: Initial molality of solute, mol/kg = 0.5
Fixed: Pressure, kPa = 100
Fixed: Final molality of solute, mol/kg = 0
Property: Molar enthalpy of dilution, kJ/mol (Liquid); method: titration calorimetry
Temperature, K	Solvent: Molality, mol/kg of sodium dihydrogen phosphate	Molar enthalpy of dilution, kJ/mol	uncertainty
288.15	0	-0.066	0.017
288.15	0.05	-0.092	0.03
288.15	0.15	-0.234	0.063
288.15	0.25	-0.52	0.13
288.15	0.35	-1.015	0.226
298.15	0	-0.075	0.016
298.15	0.05	-0.062	0.021
298.15	0.15	-0.19	0.049
298.15	0.25	-0.378	0.089
298.15	0.35	-0.666	0.153
308.15	0	-0.095	0.032
308.15	0.05	-0.055	0.016
308.15	0.15	-0.17	0.044
308.15	0.25	-0.33	0.077
308.15	0.35	-0.565	0.125
318.15	0	-0.187	0.046
318.15	0.05	-0.119	0.025
318.15	0.15	-0.23	0.053
318.15	0.25	-0.372	0.081
318.15	0.35	-0.547	0.115

System: sodium dihydrogen phosphate + D-maltose + water; phases: Liquid
Fixed: Pressure, kPa = 100
Fixed: Frequency, MHz = 2
Property: Speed of sound, m/s (Liquid); method: Linear variable-path acoustic interferometer
Solvent: Molality, mol/kg of sodium dihydrogen phosphate	Temperature, K	Molality, mol/kg of D-maltose	Speed of sound, m/s	uncertainty
0	288.15	0.04892	1471.43	20.06
0	288.15	0.06098	1472.81	20.06
0	288.15	0.07229	1474.11	20.06
0	288.15	0.08179	1475.21	20.06
0	288.15	0.10884	1478.35	20.06
0	288.15	0.12176	1479.86	20.06
0.4995	288.15	0.04824	1522.27	20.06
0.4994	288.15	0.06369	1524.06	20.06
0.4993	288.15	0.07802	1525.72	20.06
0.4991	288.15	0.09274	1527.43	20.06
0.4989	288.15	0.12027	1530.64	20.06
0.4986	288.15	0.14738	1533.81	20.06
0.999	288.15	0.04939	1569.64	20.07
0.9987	288.15	0.0624	1571.36	20.07
0.9983	288.15	0.08237	1574	20.07
0.998	288.15	0.09681	1575.91	20.07
0.9977	288.15	0.11322	1578.08	20.07
0.9971	288.15	0.14599	1582.43	20.07
1.4985	288.15	0.04632	1614.06	20.07
1.498	288.15	0.06344	1616.56	20.07
1.4975	288.15	0.07794	1618.67	20.07
1.4971	288.15	0.09209	1620.73	20.07
1.4963	288.15	0.11755	1624.44	20.07
1.4954	288.15	0.14311	1628.17	20.07
1.9978	288.15	0.05013	1657.13	20.07
1.9972	288.15	0.06357	1659.25	20.07
1.9965	288.15	0.07861	1661.61	20.07
1.9959	288.15	0.0915	1663.64	20.07
1.9948	288.15	0.11691	1667.62	20.07
1.9935	288.15	0.14609	1672.17	20.07
0	298.15	0.04892	1502.33	20.06
0	298.15	0.06098	1503.72	20.06
0	298.15	0.07229	1505.02	20.06
0	298.15	0.08179	1506.12	20.06
0	298.15	0.10884	1509.25	20.06
0	298.15	0.12176	1510.76	20.06
0.4995	298.15	0.04824	1553.04	20.07
0.4994	298.15	0.06369	1554.88	20.07
0.4993	298.15	0.07802	1556.6	20.07
0.4991	298.15	0.09274	1558.36	20.07
0.4989	298.15	0.12027	1561.67	20.07
0.4986	298.15	0.14738	1564.94	20.07
0.999	298.15	0.04939	1604.6	20.07
0.9987	298.15	0.0624	1606.34	20.07
0.9983	298.15	0.08237	1609.02	20.07
0.998	298.15	0.09681	1610.97	20.07
0.9977	298.15	0.11322	1613.18	20.07
0.9971	298.15	0.14599	1617.61	20.07
1.4985	298.15	0.04632	1655.76	20.07
1.498	298.15	0.06344	1658.26	20.07
1.4975	298.15	0.07794	1660.38	20.07
1.4971	298.15	0.09209	1662.45	20.07
1.4963	298.15	0.11755	1666.17	20.07
1.4954	298.15	0.14311	1669.92	20.07
1.9978	298.15	0.05013	1708.27	20.07
1.9972	298.15	0.06357	1710.4	20.07
1.9965	298.15	0.07861	1712.78	20.07
1.9959	298.15	0.0915	1714.82	20.07
1.9948	298.15	0.11691	1718.84	20.07
1.9935	298.15	0.14609	1723.46	20.07
0	308.15	0.04892	1525.08	20.06
0	308.15	0.06098	1526.38	20.06
0	308.15	0.07229	1527.6	20.06
0	308.15	0.08179	1528.63	20.06
0	308.15	0.10884	1531.53	20.06
0	308.15	0.12176	1532.92	20.06
0.4995	308.15	0.04824	1572.86	20.07
0.4994	308.15	0.06369	1574.58	20.07
0.4993	308.15	0.07802	1576.19	20.07
0.4991	308.15	0.09274	1577.84	20.07
0.4989	308.15	0.12027	1580.94	20.07
0.4986	308.15	0.14738	1584.01	20.07
0.999	308.15	0.04939	1625.15	20.07
0.9987	308.15	0.0624	1626.79	20.07
0.9983	308.15	0.08237	1629.31	20.07
0.998	308.15	0.09681	1631.13	20.07
0.9977	308.15	0.11322	1633.2	20.07
0.9971	308.15	0.14599	1637.34	20.07
1.4985	308.15	0.04632	1681.42	20.07
1.498	308.15	0.06344	1683.79	20.07
1.4975	308.15	0.07794	1685.8	20.07
1.4971	308.15	0.09209	1687.77	20.07
1.4963	308.15	0.11755	1691.3	20.07
1.4954	308.15	0.14311	1694.84	20.07
1.9978	308.15	0.05013	1743.13	20.08
1.9972	308.15	0.06357	1745.11	20.08
1.9965	308.15	0.07861	1747.33	20.08
1.9959	308.15	0.0915	1749.23	20.08
1.9948	308.15	0.11691	1752.97	20.08
1.9935	308.15	0.14609	1757.26	20.08
0	318.15	0.04892	1541.46	20.06
0	318.15	0.06098	1542.73	20.06
0	318.15	0.07229	1543.91	20.06
0	318.15	0.08179	1544.91	20.06
0	318.15	0.10884	1547.76	20.06
0	318.15	0.12176	1549.12	20.06
0.4995	318.15	0.04824	1587.85	20.07
0.4994	318.15	0.06369	1589.52	20.07
0.4993	318.15	0.07802	1591.09	20.07
0.4991	318.15	0.09274	1592.69	20.07
0.4989	318.15	0.12027	1595.7	20.07
0.4986	318.15	0.14738	1598.67	20.07
0.999	318.15	0.04939	1644.94	20.07
0.9987	318.15	0.0624	1646.56	20.07
0.9983	318.15	0.08237	1649.05	20.07
0.998	318.15	0.09681	1650.86	20.07
0.9977	318.15	0.11322	1652.91	20.07
0.9971	318.15	0.14599	1657.01	20.07
1.4985	318.15	0.04632	1711.23	20.07
1.498	318.15	0.06344	1713.59	20.07
1.4975	318.15	0.07794	1715.59	20.07
1.4971	318.15	0.09209	1717.53	20.07
1.4963	318.15	0.11755	1721.03	20.07
1.4954	318.15	0.14311	1724.54	20.07
1.9978	318.15	0.05013	1790.14	20.08
1.9972	318.15	0.06357	1792.11	20.08
1.9965	318.15	0.07861	1794.3	20.08
1.9959	318.15	0.0915	1796.18	20.08
1.9948	318.15	0.11691	1799.89	20.08
1.9935	318.15	0.14609	1804.13	20.08

System: sodium dihydrogen phosphate + D-raffinose + water; phases: Liquid
Fixed: Initial molality of solute, mol/kg = 0.2
Fixed: Pressure, kPa = 100
Fixed: Final molality of solute, mol/kg = 0
Property: Molar enthalpy of dilution, kJ/mol (Liquid); method: titration calorimetry
Temperature, K	Solvent: Molality, mol/kg of sodium dihydrogen phosphate	Molar enthalpy of dilution, kJ/mol	uncertainty
288.15	0	-0.063	0.063
288.15	0.05	-0.217	0.094
288.15	0.15	-0.681	0.157
288.15	0.25	-0.997	0.217
288.15	0.35	-1.532	0.325
298.15	0	-0.175	0.064
298.15	0.05	-0.278	0.089
298.15	0.15	-0.662	0.145
298.15	0.25	-0.869	0.178
298.15	0.35	-1.016	0.208
308.15	0	-0.194	0.052
308.15	0.05	-0.276	0.07
308.15	0.15	-0.506	0.108
308.15	0.25	-0.65	0.132
308.15	0.35	-0.724	0.147
318.15	0	-0.201	0.044
318.15	0.05	-0.248	0.058
318.15	0.15	-0.425	0.089
318.15	0.25	-0.514	0.104
318.15	0.35	-0.576	0.116

System: sodium dihydrogen phosphate + D-raffinose + water; phases: Liquid
Fixed: Pressure, kPa = 100
Fixed: Frequency, MHz = 2
Property: Speed of sound, m/s (Liquid); method: Linear variable-path acoustic interferometer
Solvent: Molality, mol/kg of sodium dihydrogen phosphate	Temperature, K	Molality, mol/kg of D-raffinose	Speed of sound, m/s	uncertainty
0	288.15	0.05849	1478.06	20.06
0	288.15	0.0723	1480.96	20.06
0	288.15	0.087	1484.06	20.06
0	288.15	0.10828	1488.57	20.06
0	288.15	0.12246	1491.59	20.06
0	288.15	0.14299	1495.98	20.06
0.4976	288.15	0.05091	1527.41	20.06
0.4968	288.15	0.06717	1530.85	20.06
0.4962	288.15	0.07894	1533.35	20.06
0.4956	288.15	0.0927	1536.27	20.06
0.4948	288.15	0.10948	1539.85	20.06
0.4933	288.15	0.14133	1546.66	20.06
0.9947	288.15	0.05294	1575.52	20.07
0.993	288.15	0.06895	1579.28	20.07
0.9918	288.15	0.08092	1582.09	20.07
0.9905	288.15	0.09466	1585.32	20.07
0.9886	288.15	0.11271	1589.57	20.07
0.987	288.15	0.1288	1593.35	20.07
1.4915	288.15	0.05333	1620.96	20.07
1.4885	288.15	0.07212	1625.77	20.07
1.4867	288.15	0.08329	1628.62	20.07
1.4847	288.15	0.09628	1631.94	20.07
1.4818	288.15	0.11448	1636.59	20.07
1.4791	288.15	0.13117	1640.85	20.07
1.987	288.15	0.05825	1665.19	20.07
1.983	288.15	0.07608	1670.05	20.07
1.9802	288.15	0.08886	1673.52	20.07
1.9772	288.15	0.10213	1677.13	20.07
1.9734	288.15	0.11931	1681.79	20.07
1.9675	288.15	0.1459	1688.97	20.07
0	298.15	0.05849	1509.04	20.06
0	298.15	0.0723	1511.97	20.06
0	298.15	0.087	1515.1	20.06
0	298.15	0.10828	1519.65	20.06
0	298.15	0.12246	1522.7	20.06
0	298.15	0.14299	1527.13	20.06
0.4976	298.15	0.05091	1558.17	20.07
0.4968	298.15	0.06717	1561.65	20.07
0.4962	298.15	0.07894	1564.18	20.07
0.4956	298.15	0.0927	1567.14	20.07
0.4948	298.15	0.10948	1570.76	20.07
0.4933	298.15	0.14133	1577.64	20.07
0.9947	298.15	0.05294	1610.58	20.07
0.993	298.15	0.06895	1614.4	20.07
0.9918	298.15	0.08092	1617.25	20.07
0.9905	298.15	0.09466	1620.53	20.07
0.9886	298.15	0.11271	1624.84	20.07
0.987	298.15	0.1288	1628.68	20.07
1.4915	298.15	0.05333	1662.85	20.07
1.4885	298.15	0.07212	1667.74	20.07
1.4867	298.15	0.08329	1670.64	20.07
1.4847	298.15	0.09628	1674.01	20.07
1.4818	298.15	0.11448	1678.74	20.07
1.4791	298.15	0.13117	1683.07	20.07
1.987	298.15	0.05825	1716.72	20.08
1.983	298.15	0.07608	1721.74	20.07
1.9802	298.15	0.08886	1725.33	20.07
1.9772	298.15	0.10213	1729.06	20.07
1.9734	298.15	0.11931	1733.88	20.08
1.9675	298.15	0.1459	1741.33	20.08
0	308.15	0.05849	1531.93	20.06
0	308.15	0.0723	1534.8	20.06
0	308.15	0.087	1537.87	20.06
0	308.15	0.10828	1542.35	20.06
0	308.15	0.12246	1545.34	20.06
0	308.15	0.14299	1549.69	20.06
0.4976	308.15	0.05091	1578.24	20.07
0.4968	308.15	0.06717	1581.7	20.07
0.4962	308.15	0.07894	1584.2	20.07
0.4956	308.15	0.0927	1587.13	20.07
0.4948	308.15	0.10948	1590.72	20.07
0.4933	308.15	0.14133	1597.54	20.07
0.9947	308.15	0.05294	1631.46	20.07
0.993	308.15	0.06895	1635.26	20.07
0.9918	308.15	0.08092	1638.1	20.07
0.9905	308.15	0.09466	1641.36	20.07
0.9886	308.15	0.11271	1645.64	20.07
0.987	308.15	0.1288	1649.45	20.07
1.4915	308.15	0.05333	1688.77	20.07
1.4885	308.15	0.07212	1693.64	20.07
1.4867	308.15	0.08329	1696.54	20.07
1.4847	308.15	0.09628	1699.9	20.07
1.4818	308.15	0.11448	1704.61	20.07
1.4791	308.15	0.13117	1708.93	20.07
1.987	308.15	0.05825	1752.14	20.08
1.983	308.15	0.07608	1757.14	20.08
1.9802	308.15	0.08886	1760.71	20.08
1.9772	308.15	0.10213	1764.41	20.08
1.9734	308.15	0.11931	1769.19	20.08
1.9675	308.15	0.1459	1776.56	20.08
0	318.15	0.05849	1548.26	20.06
0	318.15	0.0723	1551.09	20.06
0	318.15	0.087	1554.12	20.07
0	318.15	0.10828	1558.53	20.07
0	318.15	0.12246	1561.48	20.07
0	318.15	0.14299	1565.78	20.07
0.4976	318.15	0.05091	1593.23	20.07
0.4968	318.15	0.06717	1596.65	20.07
0.4962	318.15	0.07894	1599.12	20.07
0.4956	318.15	0.0927	1602.02	20.07
0.4948	318.15	0.10948	1605.57	20.07
0.4933	318.15	0.14133	1612.31	20.07
0.9947	318.15	0.05294	1651.23	20.07
0.993	318.15	0.06895	1655	20.07
0.9918	318.15	0.08092	1657.82	20.07
0.9905	318.15	0.09466	1661.05	20.07
0.9886	318.15	0.11271	1665.31	20.07
0.987	318.15	0.1288	1669.09	20.07
1.4915	318.15	0.05333	1718.54	20.07
1.4885	318.15	0.07212	1723.36	20.07
1.4867	318.15	0.08329	1726.22	20.07
1.4847	318.15	0.09628	1729.54	20.07
1.4818	318.15	0.11448	1734.19	20.07
1.4791	318.15	0.13117	1738.45	20.08
1.987	318.15	0.05825	1799.45	20.08
1.983	318.15	0.07608	1804.53	20.08
1.9802	318.15	0.08886	1808.15	20.08
1.9772	318.15	0.10213	1811.91	20.08
1.9734	318.15	0.11931	1816.77	20.08
1.9675	318.15	0.1459	1824.26	20.08

System: ammonium dihydrogen phosphate + D-ribose + water; phases: Liquid
Fixed: Initial molality of solute, mol/kg = 0.5
Fixed: Pressure, kPa = 100
Fixed: Final molality of solute, mol/kg = 0
Property: Molar enthalpy of dilution, kJ/mol (Liquid); method: titration calorimetry
Temperature, K	Solvent: Molality, mol/kg of ammonium dihydrogen phosphate	Molar enthalpy of dilution, kJ/mol	uncertainty
288.15	0.05	-0.178	0.042
288.15	0.15	-0.293	0.063
288.15	0.25	-0.398	0.082
288.15	0.35	-0.487	0.099
298.15	0.05	-0.158	0.035
298.15	0.15	-0.207	0.043
298.15	0.25	-0.275	0.057
298.15	0.35	-0.337	0.07
308.15	0.05	-0.079	0.017
308.15	0.15	-0.122	0.027
308.15	0.25	-0.184	0.039
308.15	0.35	-0.26	0.054
318.15	0.05	-0.04	0.011
318.15	0.15	-0.079	0.018
318.15	0.25	-0.134	0.029
318.15	0.35	-0.183	0.038

System: ammonium dihydrogen phosphate + D-ribose + water; phases: Liquid
Fixed: Pressure, kPa = 100
Fixed: Frequency, MHz = 2
Property: Speed of sound, m/s (Liquid); method: Linear variable-path acoustic interferometer
Solvent: Molality, mol/kg of ammonium dihydrogen phosphate	Temperature, K	Molality, mol/kg of D-ribose	Speed of sound, m/s	uncertainty
0.5	288.15	0.04873	1509.46	20.08
0.5	288.15	0.06907	1510.74	20.08
0.5	288.15	0.08849	1511.96	20.08
0.5	288.15	0.10249	1512.84	20.08
0.5	288.15	0.12622	1514.35	20.08
0.5	288.15	0.15182	1515.98	20.08
0.5	298.15	0.04873	1536.69	20.08
0.5	298.15	0.06907	1537.71	20.08
0.5	298.15	0.08849	1538.7	20.08
0.5	298.15	0.10249	1539.41	20.08
0.5	298.15	0.12622	1540.62	20.08
0.5	298.15	0.15182	1541.94	20.08
0.5	308.15	0.04873	1557.3	20.08
0.5	308.15	0.06907	1558.24	20.08
0.5	308.15	0.08849	1559.14	20.08
0.5	308.15	0.10249	1559.8	20.08
0.5	308.15	0.12622	1560.92	20.08
0.5	308.15	0.15182	1562.14	20.08
0.5	318.15	0.04873	1572.84	20.08
0.5	318.15	0.06907	1573.7	20.08
0.5	318.15	0.08849	1574.52	20.08
0.5	318.15	0.10249	1575.12	20.08
0.5	318.15	0.12622	1576.13	20.08
0.5	318.15	0.15182	1577.24	20.08
1	288.15	0.04567	1557.47	20.08
1	288.15	0.06431	1558.69	20.08
1	288.15	0.08266	1559.9	20.08
1	288.15	0.09716	1560.86	20.08
1	288.15	0.13043	1563.07	20.08
1	288.15	0.15855	1564.95	20.08
1	298.15	0.04567	1581.93	20.08
1	298.15	0.06431	1582.87	20.08
1	298.15	0.08266	1583.81	20.08
1	298.15	0.09716	1584.55	20.08
1	298.15	0.13043	1586.24	20.08
1	298.15	0.15855	1587.68	20.08
1	308.15	0.04567	1600.22	20.08
1	308.15	0.06431	1601.09	20.08
1	308.15	0.08266	1601.95	20.08
1	308.15	0.09716	1602.63	20.08
1	308.15	0.13043	1604.21	20.08
1	308.15	0.15855	1605.55	20.08
1	318.15	0.04567	1612.17	20.08
1	318.15	0.06431	1612.95	20.08
1	318.15	0.08266	1613.72	20.08
1	318.15	0.09716	1614.32	20.08
1	318.15	0.13043	1615.7	20.08
1	318.15	0.15855	1616.86	20.08
1.5	288.15	0.04449	1612.28	20.08
1.5	288.15	0.05651	1613.11	20.08
1.5	288.15	0.07511	1614.41	20.08
1.5	288.15	0.10245	1616.31	20.08
1.5	288.15	0.12501	1617.88	20.08
1.5	288.15	0.14594	1619.34	20.08
1.5	298.15	0.04449	1632.27	20.08
1.5	298.15	0.05651	1632.9	20.08
1.5	298.15	0.07511	1633.88	20.08
1.5	298.15	0.10245	1635.31	20.08
1.5	298.15	0.12501	1636.5	20.08
1.5	298.15	0.14594	1637.6	20.08
1.5	308.15	0.04449	1647.24	20.08
1.5	308.15	0.05651	1647.81	20.08
1.5	308.15	0.07511	1648.69	20.08
1.5	308.15	0.10245	1650	20.08
1.5	308.15	0.12501	1651.07	20.08
1.5	308.15	0.14594	1652.08	20.08
1.5	318.15	0.04449	1656.24	20.08
1.5	318.15	0.05651	1656.75	20.08
1.5	318.15	0.07511	1657.52	20.08
1.5	318.15	0.10245	1658.66	20.08
1.5	318.15	0.12501	1659.58	20.08
1.5	318.15	0.14594	1660.44	20.08
2	288.15	0.04914	1676.18	20.09
2	288.15	0.06808	1677.57	20.09
2	288.15	0.08496	1678.8	20.09
2	288.15	0.12254	1681.53	20.09
2	288.15	0.13668	1682.56	20.09
2	288.15	0.15766	1684.08	20.09
2	298.15	0.04914	1688.87	20.09
2	298.15	0.06808	1689.88	20.09
2	298.15	0.08496	1690.77	20.09
2	298.15	0.12254	1692.74	20.09
2	298.15	0.13668	1693.48	20.09
2	298.15	0.15766	1694.58	20.09
2	308.15	0.04914	1699.59	20.09
2	308.15	0.06808	1700.51	20.09
2	308.15	0.08496	1701.33	20.09
2	308.15	0.12254	1703.14	20.09
2	308.15	0.13668	1703.81	20.09
2	308.15	0.15766	1704.82	20.09
2	318.15	0.04914	1705.24	20.09
2	318.15	0.06808	1706.05	20.09
2	318.15	0.08496	1706.77	20.09
2	318.15	0.12254	1708.37	20.09
2	318.15	0.13668	1708.96	20.09
2	318.15	0.15766	1709.84	20.09

System: ammonium dihydrogen phosphate + 2-deoxy-D-glucose + water; phases: Liquid
Fixed: Initial molality of solute, mol/kg = 0.5
Fixed: Pressure, kPa = 100
Fixed: Final molality of solute, mol/kg = 0
Property: Molar enthalpy of dilution, kJ/mol (Liquid); method: titration calorimetry
Temperature, K	Solvent: Molality, mol/kg of ammonium dihydrogen phosphate	Molar enthalpy of dilution, kJ/mol	uncertainty
288.15	0.05	-0.407	0.082
288.15	0.15	-0.432	0.087
288.15	0.25	-0.467	0.094
288.15	0.35	-0.502	0.101
298.15	0.05	-0.324	0.065
298.15	0.15	-0.35	0.07
298.15	0.25	-0.363	0.073
298.15	0.35	-0.369	0.074
308.15	0.05	-0.268	0.054
308.15	0.15	-0.294	0.059
308.15	0.25	-0.27	0.054
308.15	0.35	-0.235	0.047
318.15	0.05	-0.232	0.047
318.15	0.15	-0.243	0.049
318.15	0.25	-0.201	0.041
318.15	0.35	-0.156	0.033

System: ammonium dihydrogen phosphate + 2-deoxy-D-glucose + water; phases: Liquid
Fixed: Pressure, kPa = 100
Fixed: Frequency, MHz = 2
Property: Speed of sound, m/s (Liquid); method: Linear variable-path acoustic interferometer
Solvent: Molality, mol/kg of ammonium dihydrogen phosphate	Temperature, K	Molality, mol/kg of 2-deoxy-D-glucose	Speed of sound, m/s	uncertainty
0.5	288.15	0.0487	1509.1	20.08
0.5	288.15	0.06862	1510.2	20.08
0.5	288.15	0.08763	1511.26	20.08
0.5	288.15	0.10376	1512.16	20.08
0.5	288.15	0.1345	1513.87	20.08
0.5	288.15	0.15765	1515.16	20.08
0.5	298.15	0.0487	1536.66	20.08
0.5	298.15	0.06862	1537.65	20.08
0.5	298.15	0.08763	1538.59	20.08
0.5	298.15	0.10376	1539.38	20.08
0.5	298.15	0.1345	1540.9	20.08
0.5	298.15	0.15765	1542.04	20.08
0.5	308.15	0.0487	1557.35	20.08
0.5	308.15	0.06862	1558.28	20.08
0.5	308.15	0.08763	1559.17	20.08
0.5	308.15	0.10376	1559.93	20.08
0.5	308.15	0.1345	1561.39	20.08
0.5	308.15	0.15765	1562.49	20.08
0.5	318.15	0.0487	1572.72	20.08
0.5	318.15	0.06862	1573.51	20.08
0.5	318.15	0.08763	1574.26	20.08
0.5	318.15	0.10376	1574.9	20.08
0.5	318.15	0.1345	1576.13	20.08
0.5	318.15	0.15765	1577.06	20.08
1	288.15	0.04566	1557	20.08
1	288.15	0.06381	1558	20.08
1	288.15	0.09638	1559.78	20.08
1	288.15	0.12565	1561.38	20.08
1	288.15	0.14188	1562.26	20.08
1	288.15	0.15471	1562.95	20.08
1	298.15	0.04566	1581.83	20.08
1	298.15	0.06381	1582.71	20.08
1	298.15	0.09638	1584.27	20.08
1	298.15	0.12565	1585.65	20.08
1	298.15	0.14188	1586.4	20.08
1	298.15	0.15471	1586.99	20.08
1	308.15	0.04566	1600.17	20.08
1	308.15	0.06381	1600.99	20.08
1	308.15	0.09638	1602.47	20.08
1	308.15	0.12565	1603.79	20.08
1	308.15	0.14188	1604.52	20.08
1	308.15	0.15471	1605.09	20.08
1	318.15	0.04566	1612.01	20.08
1	318.15	0.06381	1612.7	20.08
1	318.15	0.09638	1613.93	20.08
1	318.15	0.12565	1615.03	20.08
1	318.15	0.14188	1615.64	20.08
1	318.15	0.15471	1616.12	20.08
1.5	288.15	0.04792	1611.87	20.08
1.5	288.15	0.0716	1613.19	20.08
1.5	288.15	0.08999	1614.2	20.08
1.5	288.15	0.11581	1615.62	20.08
1.5	288.15	0.1398	1616.92	20.08
1.5	288.15	0.15786	1617.9	20.08
1.5	298.15	0.04792	1632.3	20.08
1.5	298.15	0.0716	1633.45	20.08
1.5	298.15	0.08999	1634.35	20.08
1.5	298.15	0.11581	1635.6	20.08
1.5	298.15	0.1398	1636.76	20.08
1.5	298.15	0.15786	1637.62	20.08
1.5	308.15	0.04792	1647.34	20.08
1.5	308.15	0.0716	1648.42	20.08
1.5	308.15	0.08999	1649.26	20.08
1.5	308.15	0.11581	1650.44	20.08
1.5	308.15	0.1398	1651.53	20.08
1.5	308.15	0.15786	1652.35	20.08
1.5	318.15	0.04792	1656.16	20.08
1.5	318.15	0.0716	1657.04	20.08
1.5	318.15	0.08999	1657.72	20.08
1.5	318.15	0.11581	1658.67	20.08
1.5	318.15	0.1398	1659.55	20.08
1.5	318.15	0.15786	1660.2	20.08
2	288.15	0.04589	1675.03	20.09
2	288.15	0.0684	1676.21	20.09
2	288.15	0.08962	1677.32	20.09
2	288.15	0.10986	1678.37	20.09
2	288.15	0.13456	1679.64	20.09
2	288.15	0.16234	1681.07	20.09
2	298.15	0.04589	1688.34	20.09
2	298.15	0.0684	1689.37	20.09
2	298.15	0.08962	1690.34	20.09
2	298.15	0.10986	1691.26	20.09
2	298.15	0.13456	1692.38	20.09
2	298.15	0.16234	1693.64	20.09
2	308.15	0.04589	1699.06	20.09
2	308.15	0.0684	1699.97	20.09
2	308.15	0.08962	1700.82	20.09
2	308.15	0.10986	1701.63	20.09
2	308.15	0.13456	1702.6	20.09
2	308.15	0.16234	1703.7	20.09
2	318.15	0.04589	1704.62	20.09
2	318.15	0.0684	1705.35	20.09
2	318.15	0.08962	1706.03	20.09
2	318.15	0.10986	1706.68	20.09
2	318.15	0.13456	1707.47	20.09
2	318.15	0.16234	1708.36	20.09

System: ammonium dihydrogen phosphate + methyl-.alpha.-D-glucopyranoside + water; phases: Liquid
Fixed: Initial molality of solute, mol/kg = 0.5
Fixed: Pressure, kPa = 100
Fixed: Final molality of solute, mol/kg = 0
Property: Molar enthalpy of dilution, kJ/mol (Liquid); method: titration calorimetry
Temperature, K	Solvent: Molality, mol/kg of ammonium dihydrogen phosphate	Molar enthalpy of dilution, kJ/mol	uncertainty
288.15	0.05	-0.569	0.114
288.15	0.15	-0.584	0.117
288.15	0.25	-0.577	0.116
288.15	0.35	-0.597	0.12
298.15	0.05	-0.521	0.104
298.15	0.15	-0.525	0.105
298.15	0.25	-0.536	0.107
298.15	0.35	-0.544	0.109
308.15	0.05	-0.471	0.094
308.15	0.15	-0.48	0.096
308.15	0.25	-0.489	0.098
308.15	0.35	-0.504	0.101
318.15	0.05	-0.445	0.089
318.15	0.15	-0.453	0.091
318.15	0.25	-0.464	0.093
318.15	0.35	-0.477	0.096

System: ammonium dihydrogen phosphate + methyl-.alpha.-D-glucopyranoside + water; phases: Liquid
Fixed: Pressure, kPa = 100
Fixed: Frequency, MHz = 2
Property: Speed of sound, m/s (Liquid); method: Linear variable-path acoustic interferometer
Solvent: Molality, mol/kg of ammonium dihydrogen phosphate	Temperature, K	Molality, mol/kg of methyl-.alpha.-D-glucopyranoside	Speed of sound, m/s	uncertainty
0.5	288.15	0.05302	1511.13	20.08
0.5	288.15	0.07187	1512.82	20.08
0.5	288.15	0.08461	1513.95	20.08
0.5	288.15	0.11076	1516.29	20.08
0.5	288.15	0.13248	1518.24	20.08
0.5	288.15	0.15339	1520.11	20.08
0.5	288.15	0.16233	1520.9	20.08
0.5	298.15	0.05302	1538.38	20.08
0.5	298.15	0.07187	1539.85	20.08
0.5	298.15	0.08461	1540.85	20.08
0.5	298.15	0.11076	1542.89	20.08
0.5	298.15	0.13248	1544.6	20.08
0.5	298.15	0.15339	1546.23	20.08
0.5	298.15	0.16233	1546.93	20.08
0.5	308.15	0.05302	1559.06	20.08
0.5	308.15	0.07187	1560.47	20.08
0.5	308.15	0.08461	1561.42	20.08
0.5	308.15	0.11076	1563.39	20.08
0.5	308.15	0.13248	1565.01	20.08
0.5	308.15	0.15339	1566.58	20.08
0.5	308.15	0.16233	1567.25	20.08
0.5	318.15	0.05302	1574.76	20.08
0.5	318.15	0.07187	1576.17	20.08
0.5	318.15	0.08461	1577.13	20.08
0.5	318.15	0.11076	1579.08	20.08
0.5	318.15	0.13248	1580.7	20.08
0.5	318.15	0.15339	1582.27	20.08
0.5	318.15	0.16233	1582.93	20.08
1	288.15	0.05132	1559.29	20.08
1	288.15	0.0621	1560.3	20.08
1	288.15	0.08185	1562.15	20.08
1	288.15	0.09409	1563.3	20.08
1	288.15	0.11908	1565.64	20.08
1	288.15	0.13209	1566.85	20.08
1	288.15	0.15452	1568.94	20.08
1	298.15	0.05132	1583.75	20.08
1	298.15	0.0621	1584.61	20.08
1	298.15	0.08185	1586.2	20.08
1	298.15	0.09409	1587.18	20.08
1	298.15	0.11908	1589.18	20.08
1	298.15	0.13209	1590.22	20.08
1	298.15	0.15452	1592.02	20.08
1	308.15	0.05132	1602.05	20.08
1	308.15	0.0621	1602.88	20.08
1	308.15	0.08185	1604.4	20.08
1	308.15	0.09409	1605.35	20.08
1	308.15	0.11908	1607.27	20.08
1	308.15	0.13209	1608.28	20.08
1	308.15	0.15452	1610.01	20.08
1	318.15	0.05132	1614.27	20.08
1	318.15	0.0621	1615.11	20.08
1	318.15	0.08185	1616.66	20.08
1	318.15	0.09409	1617.61	20.08
1	318.15	0.11908	1619.57	20.08
1	318.15	0.13209	1620.58	20.08
1	318.15	0.15452	1622.33	20.08
1.5	288.15	0.04371	1613.48	20.08
1.5	288.15	0.06142	1615.22	20.08
1.5	288.15	0.08299	1617.33	20.08
1.5	288.15	0.09768	1618.77	20.08
1.5	288.15	0.1181	1620.77	20.08
1.5	288.15	0.13419	1622.34	20.08
1.5	288.15	0.15664	1624.53	20.08
1.5	298.15	0.04371	1633.59	20.08
1.5	298.15	0.06142	1635.06	20.08
1.5	298.15	0.08299	1636.86	20.08
1.5	298.15	0.09768	1638.08	20.08
1.5	298.15	0.1181	1639.77	20.08
1.5	298.15	0.13419	1641.1	20.08
1.5	298.15	0.15664	1642.96	20.08
1.5	308.15	0.04371	1648.64	20.08
1.5	308.15	0.06142	1650.06	20.08
1.5	308.15	0.08299	1651.78	20.08
1.5	308.15	0.09768	1652.95	20.08
1.5	308.15	0.1181	1654.57	20.08
1.5	308.15	0.13419	1655.85	20.08
1.5	308.15	0.15664	1657.63	20.08
1.5	318.15	0.04371	1657.91	20.08
1.5	318.15	0.06142	1659.35	20.08
1.5	318.15	0.08299	1661.09	20.08
1.5	318.15	0.09768	1662.28	20.09
1.5	318.15	0.1181	1663.94	20.09
1.5	318.15	0.13419	1665.24	20.09
1.5	318.15	0.15664	1667.05	20.09
2	288.15	0.05314	1678.16	20.09
2	288.15	0.06845	1679.77	20.09
2	288.15	0.07836	1680.81	20.09
2	288.15	0.09535	1682.6	20.09
2	288.15	0.11603	1684.78	20.09
2	288.15	0.13179	1686.45	20.09
2	288.15	0.16101	1689.54	20.09
2	298.15	0.05314	1690.76	20.09
2	298.15	0.06845	1692.07	20.09
2	298.15	0.07836	1692.9	20.09
2	298.15	0.09535	1694.33	20.09
2	298.15	0.11603	1696.08	20.09
2	298.15	0.13179	1697.39	20.09
2	298.15	0.16101	1699.85	20.09
2	308.15	0.05314	1701.49	20.09
2	308.15	0.06845	1702.73	20.09
2	308.15	0.07836	1703.53	20.09
2	308.15	0.09535	1704.9	20.09
2	308.15	0.11603	1706.57	20.09
2	308.15	0.13179	1707.84	20.09
2	308.15	0.16101	1710.21	20.09
2	318.15	0.05314	1707.47	20.09
2	318.15	0.06845	1708.71	20.09
2	318.15	0.07836	1709.51	20.09
2	318.15	0.09535	1710.87	20.09
2	318.15	0.11603	1712.52	20.09
2	318.15	0.13179	1713.75	20.09
2	318.15	0.16101	1716.08	20.09

System: ammonium dihydrogen phosphate + D-glucose + water; phases: Liquid
Fixed: Initial molality of solute, mol/kg = 0.5
Fixed: Pressure, kPa = 100
Fixed: Final molality of solute, mol/kg = 0
Property: Molar enthalpy of dilution, kJ/mol (Liquid); method: titration calorimetry
Temperature, K	Solvent: Molality, mol/kg of ammonium dihydrogen phosphate	Molar enthalpy of dilution, kJ/mol	uncertainty
288.15	0.05	-0.225	0.049
288.15	0.15	-0.322	0.069
288.15	0.25	-0.469	0.095
288.15	0.35	-0.469	0.094
298.15	0.05	-0.224	0.046
298.15	0.15	-0.269	0.055
298.15	0.25	-0.323	0.065
298.15	0.35	-0.355	0.071
308.15	0.05	-0.21	0.043
308.15	0.15	-0.249	0.05
308.15	0.25	-0.235	0.047
308.15	0.35	-0.255	0.051
318.15	0.05	-0.196	0.039
318.15	0.15	-0.193	0.039
318.15	0.25	-0.195	0.039
318.15	0.35	-0.16	0.033

System: ammonium dihydrogen phosphate + D-glucose + water; phases: Liquid
Fixed: Pressure, kPa = 100
Fixed: Frequency, MHz = 2
Property: Speed of sound, m/s (Liquid); method: Linear variable-path acoustic interferometer
Solvent: Molality, mol/kg of ammonium dihydrogen phosphate	Temperature, K	Molality, mol/kg of D-glucose	Speed of sound, m/s	uncertainty
0.5	288.15	0.04989	1509.68	20.08
0.5	288.15	0.0698	1510.98	20.08
0.5	288.15	0.08421	1511.93	20.08
0.5	288.15	0.10885	1513.55	20.08
0.5	288.15	0.13943	1515.56	20.08
0.5	288.15	0.15389	1516.51	20.08
0.5	298.15	0.04989	1537.12	20.08
0.5	298.15	0.0698	1538.26	20.08
0.5	298.15	0.08421	1539.09	20.08
0.5	298.15	0.10885	1540.51	20.08
0.5	298.15	0.13943	1542.28	20.08
0.5	298.15	0.15389	1543.11	20.08
0.5	308.15	0.04989	1557.95	20.08
0.5	308.15	0.0698	1559.09	20.08
0.5	308.15	0.08421	1559.92	20.08
0.5	308.15	0.10885	1561.35	20.08
0.5	308.15	0.13943	1563.13	20.08
0.5	308.15	0.15389	1563.97	20.08
0.5	318.15	0.04989	1573.34	20.08
0.5	318.15	0.0698	1574.35	20.08
0.5	318.15	0.08421	1575.09	20.08
0.5	318.15	0.10885	1576.35	20.08
0.5	318.15	0.13943	1577.91	20.08
0.5	318.15	0.15389	1578.65	20.08
1	288.15	0.04586	1557.65	20.08
1	288.15	0.06956	1559.3	20.08
1	288.15	0.08525	1560.4	20.08
1	288.15	0.11091	1562.19	20.08
1	288.15	0.13295	1563.73	20.08
1	288.15	0.16728	1566.14	20.08
1	298.15	0.04586	1582.38	20.08
1	298.15	0.06956	1583.82	20.08
1	298.15	0.08525	1584.78	20.08
1	298.15	0.11091	1586.34	20.08
1	298.15	0.13295	1587.69	20.08
1	298.15	0.16728	1589.8	20.08
1	308.15	0.04586	1600.89	20.08
1	308.15	0.06956	1602.35	20.08
1	308.15	0.08525	1603.32	20.08
1	308.15	0.11091	1604.9	20.08
1	308.15	0.13295	1606.26	20.08
1	308.15	0.16728	1608.39	20.08
1	318.15	0.04586	1612.78	20.08
1	318.15	0.06956	1614.09	20.08
1	318.15	0.08525	1614.96	20.08
1	318.15	0.11091	1616.38	20.08
1	318.15	0.13295	1617.61	20.08
1	318.15	0.16728	1619.53	20.08
1.5	288.15	0.05518	1613.35	20.08
1.5	288.15	0.07362	1614.75	20.08
1.5	288.15	0.08753	1615.8	20.08
1.5	288.15	0.10201	1616.9	20.08
1.5	288.15	0.13345	1619.29	20.08
1.5	288.15	0.15423	1620.87	20.08
1.5	298.15	0.05518	1633.49	20.08
1.5	298.15	0.07362	1634.68	20.08
1.5	298.15	0.08753	1635.58	20.08
1.5	298.15	0.10201	1636.52	20.08
1.5	298.15	0.13345	1638.57	20.08
1.5	298.15	0.15423	1639.93	20.08
1.5	308.15	0.05518	1648.68	20.08
1.5	308.15	0.07362	1649.87	20.08
1.5	308.15	0.08753	1650.77	20.08
1.5	308.15	0.10201	1651.71	20.08
1.5	308.15	0.13345	1653.74	20.08
1.5	308.15	0.15423	1655.09	20.08
1.5	318.15	0.05518	1657.54	20.08
1.5	318.15	0.07362	1658.6	20.08
1.5	318.15	0.08753	1659.41	20.08
1.5	318.15	0.10201	1660.25	20.08
1.5	318.15	0.13345	1662.08	20.08
1.5	318.15	0.15423	1663.29	20.09
2	288.15	0.05122	1676.62	20.09
2	288.15	0.06502	1677.71	20.09
2	288.15	0.08932	1679.64	20.09
2	288.15	0.10757	1681.09	20.09
2	288.15	0.11989	1682.08	20.09
2	288.15	0.14996	1684.49	20.09
2	298.15	0.05122	1689.6	20.09
2	298.15	0.06502	1690.52	20.09
2	298.15	0.08932	1692.13	20.09
2	298.15	0.10757	1693.35	20.09
2	298.15	0.11989	1694.17	20.09
2	298.15	0.14996	1696.17	20.09
2	308.15	0.05122	1700.58	20.09
2	308.15	0.06502	1701.5	20.09
2	308.15	0.08932	1703.12	20.09
2	308.15	0.10757	1704.34	20.09
2	308.15	0.11989	1705.17	20.09
2	308.15	0.14996	1707.19	20.09
2	318.15	0.05122	1706.07	20.09
2	318.15	0.06502	1706.87	20.09
2	318.15	0.08932	1708.27	20.09
2	318.15	0.10757	1709.32	20.09
2	318.15	0.11989	1710.04	20.09
2	318.15	0.14996	1711.77	20.09

System: ammonium dihydrogen phosphate + D-maltose + water; phases: Liquid
Fixed: Initial molality of solute, mol/kg = 0.5
Fixed: Pressure, kPa = 100
Fixed: Final molality of solute, mol/kg = 0
Property: Molar enthalpy of dilution, kJ/mol (Liquid); method: titration calorimetry
Temperature, K	Solvent: Molality, mol/kg of ammonium dihydrogen phosphate	Molar enthalpy of dilution, kJ/mol	uncertainty
288.15	0.05	-0.09	0.02
288.15	0.15	-0.136	0.034
288.15	0.25	-0.297	0.067
288.15	0.35	-0.437	0.092
298.15	0.05	-0.081	0.017
298.15	0.15	-0.102	0.024
298.15	0.25	-0.212	0.046
298.15	0.35	-0.291	0.061
308.15	0.05	-0.056	0.012
308.15	0.15	-0.074	0.016
308.15	0.25	-0.108	0.024
308.15	0.35	-0.17	0.041
318.15	0.05	-0.124	0.025
318.15	0.15	-0.139	0.028
318.15	0.25	-0.173	0.035
318.15	0.35	-0.209	0.042

System: ammonium dihydrogen phosphate + D-maltose + water; phases: Liquid
Fixed: Pressure, kPa = 100
Fixed: Frequency, MHz = 2
Property: Speed of sound, m/s (Liquid); method: Linear variable-path acoustic interferometer
Solvent: Molality, mol/kg of ammonium dihydrogen phosphate	Temperature, K	Molality, mol/kg of D-maltose	Speed of sound, m/s	uncertainty
0.4996	288.15	0.04503	1511.31	20.08
0.4995	288.15	0.0563	1512.53	20.08
0.4994	288.15	0.06543	1513.53	20.08
0.4993	288.15	0.07732	1514.83	20.08
0.4992	288.15	0.08795	1515.99	20.08
0.499	288.15	0.10057	1517.38	20.08
0.4988	288.15	0.12756	1520.36	20.08
0.4987	288.15	0.139	1521.62	20.08
0.4986	288.15	0.15157	1523.02	20.08
0.999	288.15	0.04918	1560.19	20.08
0.9988	288.15	0.06145	1561.61	20.08
0.9985	288.15	0.07426	1563.1	20.08
0.9983	288.15	0.08646	1564.52	20.08
0.9981	288.15	0.09578	1565.61	20.08
0.9976	288.15	0.11816	1568.22	20.08
0.9973	288.15	0.13503	1570.2	20.08
0.9968	288.15	0.15817	1572.92	20.08
1.4983	288.15	0.05213	1615.58	20.08
1.4978	288.15	0.06851	1617.6	20.08
1.4974	288.15	0.08174	1619.22	20.08
1.4966	288.15	0.10629	1622.24	20.08
1.4962	288.15	0.12131	1624.09	20.08
1.4958	288.15	0.13171	1625.36	20.08
1.4955	288.15	0.14342	1626.8	20.08
1.4952	288.15	0.15022	1627.63	20.08
1.9979	288.15	0.04733	1678.82	20.09
1.9973	288.15	0.05982	1680.46	20.09
1.9967	288.15	0.07498	1682.46	20.09
1.996	288.15	0.09121	1684.59	20.09
1.9949	288.15	0.11521	1687.74	20.09
1.9944	288.15	0.12595	1689.15	20.09
1.9938	288.15	0.13998	1690.98	20.09
1.993	288.15	0.1579	1693.33	20.09
0.4996	298.15	0.04503	1539.16	20.08
0.4995	298.15	0.0563	1540.39	20.08
0.4994	298.15	0.06543	1541.39	20.08
0.4993	298.15	0.07732	1542.69	20.08
0.4992	298.15	0.08795	1543.86	20.08
0.499	298.15	0.10057	1545.25	20.08
0.4988	298.15	0.12756	1548.22	20.08
0.4987	298.15	0.139	1549.49	20.08
0.4986	298.15	0.15157	1550.88	20.08
0.999	298.15	0.04918	1585.39	20.08
0.9988	298.15	0.06145	1586.83	20.08
0.9985	298.15	0.07426	1588.34	20.08
0.9983	298.15	0.08646	1589.77	20.08
0.9981	298.15	0.09578	1590.87	20.08
0.9976	298.15	0.11816	1593.51	20.08
0.9973	298.15	0.13503	1595.5	20.08
0.9968	298.15	0.15817	1598.24	20.08
1.4983	298.15	0.05213	1636.36	20.08
1.4978	298.15	0.06851	1638.37	20.08
1.4974	298.15	0.08174	1640.01	20.08
1.4966	298.15	0.10629	1643.04	20.08
1.4962	298.15	0.12131	1644.89	20.08
1.4958	298.15	0.13171	1646.18	20.08
1.4955	298.15	0.14342	1647.63	20.08
1.4952	298.15	0.15022	1648.47	20.08
1.9979	298.15	0.04733	1692.38	20.09
1.9973	298.15	0.05982	1694	20.09
1.9967	298.15	0.07498	1695.97	20.09
1.996	298.15	0.09121	1698.07	20.09
1.9949	298.15	0.11521	1701.16	20.09
1.9944	298.15	0.12595	1702.54	20.09
1.9938	298.15	0.13998	1704.34	20.09
1.993	298.15	0.1579	1706.64	20.09
0.4996	308.15	0.04503	1559.72	20.08
0.4995	308.15	0.0563	1560.88	20.08
0.4994	308.15	0.06543	1561.82	20.08
0.4993	308.15	0.07732	1563.05	20.08
0.4992	308.15	0.08795	1564.15	20.08
0.499	308.15	0.10057	1565.45	20.08
0.4988	308.15	0.12756	1568.25	20.08
0.4987	308.15	0.139	1569.44	20.08
0.4986	308.15	0.15157	1570.75	20.08
0.999	308.15	0.04918	1603.52	20.08
0.9988	308.15	0.06145	1604.88	20.08
0.9985	308.15	0.07426	1606.3	20.08
0.9983	308.15	0.08646	1607.65	20.08
0.9981	308.15	0.09578	1608.69	20.08
0.9976	308.15	0.11816	1611.17	20.08
0.9973	308.15	0.13503	1613.04	20.08
0.9968	308.15	0.15817	1615.61	20.08
1.4983	308.15	0.05213	1651.12	20.08
1.4978	308.15	0.06851	1653.01	20.08
1.4974	308.15	0.08174	1654.53	20.08
1.4966	308.15	0.10629	1657.36	20.08
1.4962	308.15	0.12131	1659.08	20.08
1.4958	308.15	0.13171	1660.27	20.08
1.4955	308.15	0.14342	1661.62	20.09
1.4952	308.15	0.15022	1662.39	20.09
1.9979	308.15	0.04733	1702.87	20.09
1.9973	308.15	0.05982	1704.37	20.09
1.9967	308.15	0.07498	1706.18	20.09
1.996	308.15	0.09121	1708.11	20.09
1.9949	308.15	0.11521	1710.97	20.09
1.9944	308.15	0.12595	1712.24	20.09
1.9938	308.15	0.13998	1713.91	20.09
1.993	308.15	0.1579	1716.03	20.09
0.4996	318.15	0.04503	1575.34	20.08
0.4995	318.15	0.0563	1576.48	20.08
0.4994	318.15	0.06543	1577.41	20.08
0.4993	318.15	0.07732	1578.62	20.08
0.4992	318.15	0.08795	1579.7	20.08
0.499	318.15	0.10057	1580.98	20.08
0.4988	318.15	0.12756	1583.74	20.08
0.4987	318.15	0.139	1584.9	20.08
0.4986	318.15	0.15157	1586.19	20.08
0.999	318.15	0.04918	1615.63	20.08
0.9988	318.15	0.06145	1616.97	20.08
0.9985	318.15	0.07426	1618.37	20.08
0.9983	318.15	0.08646	1619.71	20.08
0.9981	318.15	0.09578	1620.73	20.08
0.9976	318.15	0.11816	1623.19	20.08
0.9973	318.15	0.13503	1625.05	20.08
0.9968	318.15	0.15817	1627.61	20.08
1.4983	318.15	0.05213	1660.29	20.08
1.4978	318.15	0.06851	1662.16	20.09
1.4974	318.15	0.08174	1663.66	20.09
1.4966	318.15	0.10629	1666.44	20.09
1.4962	318.15	0.12131	1668.15	20.09
1.4958	318.15	0.13171	1669.32	20.09
1.4955	318.15	0.14342	1670.64	20.09
1.4952	318.15	0.15022	1671.41	20.09
1.9979	318.15	0.04733	1708.66	20.09
1.9973	318.15	0.05982	1710.11	20.09
1.9967	318.15	0.07498	1711.87	20.09
1.996	318.15	0.09121	1713.75	20.09
1.9949	318.15	0.11521	1716.53	20.09
1.9944	318.15	0.12595	1717.77	20.09
1.9938	318.15	0.13998	1719.39	20.09
1.993	318.15	0.1579	1721.46	20.09

System: ammonium dihydrogen phosphate + D-raffinose + water; phases: Liquid
Fixed: Initial molality of solute, mol/kg = 0.2
Fixed: Pressure, kPa = 100
Fixed: Final molality of solute, mol/kg = 0
Property: Molar enthalpy of dilution, kJ/mol (Liquid); method: titration calorimetry
Temperature, K	Solvent: Molality, mol/kg of ammonium dihydrogen phosphate	Molar enthalpy of dilution, kJ/mol	uncertainty
288.15	0.05	-0.147	0.067
288.15	0.15	-0.447	0.108
288.15	0.25	-0.747	0.158
288.15	0.35	-0.958	0.196
298.15	0.05	-0.141	0.056
298.15	0.15	-0.385	0.086
298.15	0.25	-0.528	0.109
298.15	0.35	-0.652	0.136
308.15	0.05	-0.136	0.05
308.15	0.15	-0.342	0.075
308.15	0.25	-0.45	0.093
308.15	0.35	-0.552	0.112
318.15	0.05	-0.124	0.036
318.15	0.15	-0.256	0.055
318.15	0.25	-0.334	0.069
318.15	0.35	-0.42	0.086

System: ammonium dihydrogen phosphate + D-raffinose + water; phases: Liquid
Fixed: Pressure, kPa = 100
Fixed: Frequency, MHz = 2
Property: Speed of sound, m/s (Liquid); method: Linear variable-path acoustic interferometer
Solvent: Molality, mol/kg of ammonium dihydrogen phosphate	Temperature, K	Molality, mol/kg of D-raffinose	Speed of sound, m/s	uncertainty
0.4977	288.15	0.04909	1516.36	20.08
0.4971	288.15	0.06004	1518.58	20.08
0.4962	288.15	0.07999	1522.65	20.08
0.4953	288.15	0.0984	1526.41	20.08
0.4947	288.15	0.11207	1529.21	20.08
0.4938	288.15	0.13006	1532.9	20.08
0.4931	288.15	0.14587	1536.15	20.08
0.9952	288.15	0.04748	1564.61	20.08
0.9937	288.15	0.06303	1567.94	20.08
0.9923	288.15	0.07698	1570.93	20.08
0.991	288.15	0.09002	1573.73	20.08
0.9888	288.15	0.11155	1578.34	20.08
0.9881	288.15	0.11907	1579.96	20.08
0.9863	288.15	0.13619	1583.63	20.08
0.9852	288.15	0.14748	1586.05	20.08
1.4931	288.15	0.04336	1619.25	20.08
1.491	288.15	0.05691	1622.39	20.08
1.4887	288.15	0.07131	1625.73	20.08
1.4866	288.15	0.08479	1628.86	20.08
1.4845	288.15	0.09785	1631.89	20.08
1.4819	288.15	0.11449	1635.74	20.08
1.4809	288.15	0.12104	1637.26	20.08
1.4767	288.15	0.14757	1643.41	20.08
1.9891	288.15	0.04927	1684.59	20.09
1.9853	288.15	0.06632	1688.72	20.09
1.9815	288.15	0.0836	1692.91	20.09
1.9776	288.15	0.10124	1697.18	20.09
1.9747	288.15	0.11461	1700.41	20.09
1.9712	288.15	0.13009	1704.15	20.09
1.967	288.15	0.14931	1708.78	20.09
0.4977	298.15	0.04909	1544.33	20.08
0.4971	298.15	0.06004	1546.58	20.08
0.4962	298.15	0.07999	1550.69	20.08
0.4953	298.15	0.0984	1554.49	20.08
0.4947	298.15	0.11207	1557.32	20.08
0.4938	298.15	0.13006	1561.05	20.08
0.4931	298.15	0.14587	1564.33	20.08
0.9952	298.15	0.04748	1589.92	20.08
0.9937	298.15	0.06303	1593.31	20.08
0.9923	298.15	0.07698	1596.34	20.08
0.991	298.15	0.09002	1599.18	20.08
0.9888	298.15	0.11155	1603.86	20.08
0.9881	298.15	0.11907	1605.5	20.08
0.9863	298.15	0.13619	1609.23	20.08
0.9852	298.15	0.14748	1611.69	20.08
1.4931	298.15	0.04336	1640	20.08
1.491	298.15	0.05691	1643.15	20.08
1.4887	298.15	0.07131	1646.49	20.08
1.4866	298.15	0.08479	1649.62	20.08
1.4845	298.15	0.09785	1652.64	20.08
1.4819	298.15	0.11449	1656.49	20.08
1.4809	298.15	0.12104	1658	20.08
1.4767	298.15	0.14757	1664.13	20.09
1.9891	298.15	0.04927	1698.22	20.09
1.9853	298.15	0.06632	1702.36	20.09
1.9815	298.15	0.0836	1706.54	20.09
1.9776	298.15	0.10124	1710.81	20.09
1.9747	298.15	0.11461	1714.04	20.09
1.9712	298.15	0.13009	1717.76	20.09
1.967	298.15	0.14931	1722.39	20.09
0.4977	308.15	0.04909	1565.14	20.08
0.4971	308.15	0.06004	1567.39	20.08
0.4962	308.15	0.07999	1571.5	20.08
0.4953	308.15	0.0984	1575.3	20.08
0.4947	308.15	0.11207	1578.13	20.08
0.4938	308.15	0.13006	1581.86	20.08
0.4931	308.15	0.14587	1585.15	20.08
0.9952	308.15	0.04748	1608.32	20.08
0.9937	308.15	0.06303	1611.68	20.08
0.9923	308.15	0.07698	1614.69	20.08
0.991	308.15	0.09002	1617.51	20.08
0.9888	308.15	0.11155	1622.17	20.08
0.9881	308.15	0.11907	1623.79	20.08
0.9863	308.15	0.13619	1627.49	20.08
0.9852	308.15	0.14748	1629.94	20.08
1.4931	308.15	0.04336	1655.03	20.09
1.491	308.15	0.05691	1658.13	20.09
1.4887	308.15	0.07131	1661.42	20.09
1.4866	308.15	0.08479	1664.5	20.09
1.4845	308.15	0.09785	1667.48	20.09
1.4819	308.15	0.11449	1671.28	20.09
1.4809	308.15	0.12104	1672.77	20.09
1.4767	308.15	0.14757	1678.82	20.09
1.9891	308.15	0.04927	1708.97	20.09
1.9853	308.15	0.06632	1713.03	20.09
1.9815	308.15	0.0836	1717.14	20.09
1.9776	308.15	0.10124	1721.33	20.09
1.9747	308.15	0.11461	1724.5	20.09
1.9712	308.15	0.13009	1728.16	20.09
1.967	308.15	0.14931	1732.7	20.09
0.4977	318.15	0.04909	1580.81	20.08
0.4971	318.15	0.06004	1583.07	20.08
0.4962	318.15	0.07999	1587.19	20.08
0.4953	318.15	0.0984	1591.01	20.08
0.4947	318.15	0.11207	1593.85	20.08
0.4938	318.15	0.13006	1597.62	20.08
0.4931	318.15	0.14587	1600.94	20.08
0.9952	318.15	0.04748	1620.41	20.08
0.9937	318.15	0.06303	1623.74	20.08
0.9923	318.15	0.07698	1626.73	20.08
0.991	318.15	0.09002	1629.53	20.08
0.9888	318.15	0.11155	1634.15	20.08
0.9881	318.15	0.11907	1635.76	20.08
0.9863	318.15	0.13619	1639.44	20.08
0.9852	318.15	0.14748	1641.87	20.08
1.4931	318.15	0.04336	1664.07	20.09
1.491	318.15	0.05691	1667.1	20.09
1.4887	318.15	0.07131	1670.32	20.09
1.4866	318.15	0.08479	1673.33	20.09
1.4845	318.15	0.09785	1676.25	20.09
1.4819	318.15	0.11449	1679.95	20.09
1.4809	318.15	0.12104	1681.41	20.09
1.4767	318.15	0.14757	1687.31	20.09
1.9891	318.15	0.04927	1714.66	20.09
1.9853	318.15	0.06632	1718.64	20.09
1.9815	318.15	0.0836	1722.66	20.09
1.9776	318.15	0.10124	1726.75	20.09
1.9747	318.15	0.11461	1729.85	20.09
1.9712	318.15	0.13009	1733.43	20.09
1.967	318.15	0.14931	1737.87	20.09

System: tripotassium phosphate + D-ribose + water; phases: Liquid
Fixed: Initial molality of solute, mol/kg = 0.5
Fixed: Pressure, kPa = 100
Fixed: Final molality of solute, mol/kg = 0
Property: Molar enthalpy of dilution, kJ/mol (Liquid); method: titration calorimetry
Temperature, K	Solvent: Molality, mol/kg of tripotassium phosphate	Molar enthalpy of dilution, kJ/mol	uncertainty
288.15	0.05	-0.68	0.243
288.15	0.15	-1.689	0.381
288.15	0.25	-2.446	0.502
288.15	0.35	-2.806	0.566
298.15	0.05	-1.084	0.24
298.15	0.15	-1.662	0.354
298.15	0.25	-2.288	0.463
298.15	0.35	-2.367	0.475
308.15	0.05	-1.683	0.347
308.15	0.15	-1.978	0.399
308.15	0.25	-2.213	0.444
308.15	0.35	-2.265	0.454
318.15	0.05	-1.903	0.418
318.15	0.15	-2.766	0.557
318.15	0.25	-2.481	0.499
318.15	0.35	-2.293	0.46

System: tripotassium phosphate + D-ribose + water; phases: Liquid
Fixed: Pressure, kPa = 100
Fixed: Frequency, MHz = 2
Property: Speed of sound, m/s (Liquid); method: Linear variable-path acoustic interferometer
Solvent: Molality, mol/kg of tripotassium phosphate	Temperature, K	Molality, mol/kg of D-ribose	Speed of sound, m/s	uncertainty
0.5	288.15	0.04923	1590.65	20.08
0.5	288.15	0.06019	1591.63	20.08
0.5	288.15	0.0803	1593.44	20.08
0.5	288.15	0.10336	1595.53	20.08
0.5	288.15	0.13304	1598.22	20.08
0.5	288.15	0.14807	1599.59	20.08
0.5	288.15	0.16915	1601.51	20.08
0.5	298.15	0.04923	1601.53	20.08
0.5	298.15	0.06019	1602.31	20.08
0.5	298.15	0.0803	1603.73	20.08
0.5	298.15	0.10336	1605.36	20.08
0.5	298.15	0.13304	1607.46	20.08
0.5	298.15	0.14807	1608.53	20.08
0.5	298.15	0.16915	1610.02	20.08
0.5	308.15	0.04923	1613.06	20.08
0.5	308.15	0.06019	1613.76	20.08
0.5	308.15	0.0803	1615.04	20.08
0.5	308.15	0.10336	1616.51	20.08
0.5	308.15	0.13304	1618.4	20.08
0.5	308.15	0.14807	1619.35	20.08
0.5	308.15	0.16915	1620.69	20.08
0.5	318.15	0.04923	1625.52	20.08
0.5	318.15	0.06019	1626.17	20.08
0.5	318.15	0.0803	1627.39	20.08
0.5	318.15	0.10336	1628.81	20.08
0.5	318.15	0.13304	1630.67	20.08
0.5	318.15	0.14807	1631.61	20.08
0.5	318.15	0.16915	1632.95	20.08
1	288.15	0.05038	1699.45	20.09
1	288.15	0.0626	1700.9	20.09
1	288.15	0.07663	1702.56	20.09
1	288.15	0.09282	1704.47	20.09
1	288.15	0.11504	1707.1	20.09
1	288.15	0.13372	1709.32	20.09
1	288.15	0.15645	1712.02	20.09
1	298.15	0.05038	1703.19	20.09
1	298.15	0.0626	1704.29	20.09
1	298.15	0.07663	1705.55	20.09
1	298.15	0.09282	1707	20.09
1	298.15	0.11504	1708.98	20.09
1	298.15	0.13372	1710.63	20.09
1	298.15	0.15645	1712.65	20.09
1	308.15	0.05038	1708.26	20.09
1	308.15	0.0626	1709.25	20.09
1	308.15	0.07663	1710.39	20.09
1	308.15	0.09282	1711.7	20.09
1	308.15	0.11504	1713.5	20.09
1	308.15	0.13372	1715.01	20.09
1	308.15	0.15645	1716.85	20.09
1	318.15	0.05038	1711.75	20.09
1	318.15	0.0626	1712.64	20.09
1	318.15	0.07663	1713.68	20.09
1	318.15	0.09282	1714.86	20.09
1	318.15	0.11504	1716.49	20.09
1	318.15	0.13372	1717.86	20.09
1	318.15	0.15645	1719.53	20.09
1.5	288.15	0.05148	1796.64	20.09
1.5	288.15	0.06638	1798.79	20.09
1.5	288.15	0.08322	1801.22	20.09
1.5	288.15	0.10671	1804.6	20.09
1.5	288.15	0.13459	1808.61	20.09
1.5	288.15	0.16413	1812.86	20.09
1.5	298.15	0.05148	1797.34	20.09
1.5	298.15	0.06638	1798.95	20.09
1.5	298.15	0.08322	1800.76	20.09
1.5	298.15	0.10671	1803.27	20.09
1.5	298.15	0.13459	1806.24	20.09
1.5	298.15	0.16413	1809.38	20.09
1.5	308.15	0.05148	1798.64	20.09
1.5	308.15	0.06638	1800.05	20.09
1.5	308.15	0.08322	1801.65	20.09
1.5	308.15	0.10671	1803.87	20.09
1.5	308.15	0.13459	1806.51	20.09
1.5	308.15	0.16413	1809.3	20.09
1.5	318.15	0.05148	1800.36	20.09
1.5	318.15	0.06638	1801.63	20.09
1.5	318.15	0.08322	1803.06	20.09
1.5	318.15	0.10671	1805.05	20.09
1.5	318.15	0.13459	1807.41	20.09
1.5	318.15	0.16413	1809.9	20.09
2	288.15	0.06266	1888.6	20.1
2	288.15	0.07927	1891.31	20.1
2	288.15	0.09869	1894.47	20.1
2	288.15	0.11822	1897.65	20.1
2	288.15	0.14697	1902.3	20.1
2	288.15	0.16779	1905.65	20.1
2	298.15	0.06266	1890.18	20.1
2	298.15	0.07927	1892.21	20.1
2	298.15	0.09869	1894.58	20.1
2	298.15	0.11822	1896.95	20.1
2	298.15	0.14697	1900.45	20.1
2	298.15	0.16779	1902.97	20.1
2	308.15	0.06266	1892.22	20.1
2	308.15	0.07927	1893.9	20.1
2	308.15	0.09869	1895.84	20.1
2	308.15	0.11822	1897.77	20.1
2	308.15	0.14697	1900.63	20.1
2	308.15	0.16779	1902.62	20.1
2	318.15	0.06266	1895.04	20.1
2	318.15	0.07927	1896.52	20.1
2	318.15	0.09869	1898.23	20.1
2	318.15	0.11822	1899.92	20.1
2	318.15	0.14697	1902.41	20.1
2	318.15	0.16779	1904.18	20.1

System: tripotassium phosphate + 2-deoxy-D-glucose + water; phases: Liquid
Fixed: Initial molality of solute, mol/kg = 0.5
Fixed: Pressure, kPa = 100
Fixed: Final molality of solute, mol/kg = 0
Property: Molar enthalpy of dilution, kJ/mol (Liquid); method: titration calorimetry
Temperature, K	Solvent: Molality, mol/kg of tripotassium phosphate	Molar enthalpy of dilution, kJ/mol	uncertainty
288.15	0.05	-1.988	0.451
288.15	0.15	-3.053	0.628
288.15	0.25	-3.453	0.692
288.15	0.35	-3.484	0.697
298.15	0.05	-1.956	0.403
298.15	0.15	-2.723	0.554
298.15	0.25	-2.957	0.592
298.15	0.35	-2.94	0.59
308.15	0.05	-2.759	0.563
308.15	0.15	-3.101	0.622
308.15	0.25	-3.151	0.631
308.15	0.35	-3.079	0.617
318.15	0.05	-2.918	0.584
318.15	0.15	-2.961	0.593
318.15	0.25	-3.044	0.609
318.15	0.35	-3.077	0.616

System: tripotassium phosphate + 2-deoxy-D-glucose + water; phases: Liquid
Fixed: Pressure, kPa = 100
Fixed: Frequency, MHz = 2
Property: Speed of sound, m/s (Liquid); method: Linear variable-path acoustic interferometer
Solvent: Molality, mol/kg of tripotassium phosphate	Temperature, K	Molality, mol/kg of 2-deoxy-D-glucose	Speed of sound, m/s	uncertainty
0.5	288.15	0.04782	1589.93	20.08
0.5	288.15	0.06303	1591.1	20.08
0.5	288.15	0.08366	1592.69	20.08
0.5	288.15	0.10384	1594.23	20.08
0.5	288.15	0.12467	1595.82	20.08
0.5	288.15	0.14206	1597.15	20.08
0.5	298.15	0.04782	1601.29	20.08
0.5	298.15	0.06303	1602.32	20.08
0.5	298.15	0.08366	1603.71	20.08
0.5	298.15	0.10384	1605.07	20.08
0.5	298.15	0.12467	1606.47	20.08
0.5	298.15	0.14206	1607.64	20.08
0.5	308.15	0.04782	1612.86	20.08
0.5	308.15	0.06303	1613.78	20.08
0.5	308.15	0.08366	1615.04	20.08
0.5	308.15	0.10384	1616.26	20.08
0.5	308.15	0.12467	1617.51	20.08
0.5	308.15	0.14206	1618.55	20.08
0.5	318.15	0.04782	1625.03	20.08
0.5	318.15	0.06303	1625.79	20.08
0.5	318.15	0.08366	1626.82	20.08
0.5	318.15	0.10384	1627.82	20.08
0.5	318.15	0.12467	1628.84	20.08
0.5	318.15	0.14206	1629.7	20.08
1	288.15	0.05176	1698.51	20.09
1	288.15	0.07155	1700.41	20.09
1	288.15	0.08866	1702.05	20.09
1	288.15	0.11615	1704.68	20.09
1	288.15	0.13912	1706.87	20.09
1	288.15	0.15867	1708.73	20.09
1	298.15	0.05176	1702.87	20.09
1	298.15	0.07155	1704.48	20.09
1	298.15	0.08866	1705.86	20.09
1	298.15	0.11615	1708.08	20.09
1	298.15	0.13912	1709.91	20.09
1	298.15	0.15867	1711.46	20.09
1	308.15	0.05176	1708.02	20.09
1	308.15	0.07155	1709.5	20.09
1	308.15	0.08866	1710.76	20.09
1	308.15	0.11615	1712.8	20.09
1	308.15	0.13912	1714.47	20.09
1	308.15	0.15867	1715.9	20.09
1	318.15	0.05176	1711.15	20.09
1	318.15	0.07155	1712.34	20.09
1	318.15	0.08866	1713.36	20.09
1	318.15	0.11615	1714.97	20.09
1	318.15	0.13912	1716.31	20.09
1	318.15	0.15867	1717.44	20.09
1.5	288.15	0.04659	1795.32	20.09
1.5	288.15	0.06008	1795.03	20.09
1.5	288.15	0.08378	1796.94	20.09
1.5	288.15	0.10512	1798.62	20.09
1.5	288.15	0.13045	1800.63	20.09
1.5	288.15	0.14203	1800.14	20.09
1.5	298.15	0.04659	1795.95	20.09
1.5	298.15	0.06008	1796.79	20.09
1.5	298.15	0.08378	1798.27	20.09
1.5	298.15	0.10512	1799.6	20.09
1.5	298.15	0.13045	1801.14	20.09
1.5	298.15	0.14203	1800.44	20.09
1.5	308.15	0.04659	1797.7	20.09
1.5	308.15	0.06008	1797	20.09
1.5	308.15	0.08378	1798.27	20.09
1.5	308.15	0.10512	1799.4	20.09
1.5	308.15	0.13045	1799.73	20.09
1.5	308.15	0.14203	1799.9	20.09
1.5	318.15	0.04659	1799.55	20.09
1.5	318.15	0.06008	1798.59	20.09
1.5	318.15	0.08378	1799.47	20.09
1.5	318.15	0.10512	1799.52	20.09
1.5	318.15	0.13045	1799.97	20.09
1.5	318.15	0.14203	1800.1	20.09
2	288.15	0.05604	1883.95	20.1
2	288.15	0.07019	1883.61	20.1
2	288.15	0.09082	1885.11	20.1
2	288.15	0.11865	1887.11	20.1
2	288.15	0.13851	1888.5	20.1
2	288.15	0.15772	1889.27	20.1
2	298.15	0.05604	1886.78	20.1
2	298.15	0.07019	1887.35	20.1
2	298.15	0.09082	1888.08	20.1
2	298.15	0.11865	1889.41	20.1
2	298.15	0.13851	1890.36	20.1
2	298.15	0.15772	1890.65	20.1
2	308.15	0.05604	1888.08	20.1
2	308.15	0.07019	1888.35	20.1
2	308.15	0.09082	1889.18	20.1
2	308.15	0.11865	1890.29	20.1
2	308.15	0.13851	1890.83	20.1
2	308.15	0.15772	1891.3	20.1
2	318.15	0.05604	1888.08	20.1
2	318.15	0.07019	1888.35	20.1
2	318.15	0.09082	1889.18	20.1
2	318.15	0.11865	1890.29	20.1
2	318.15	0.13851	1890.83	20.1
2	318.15	0.15772	1891.3	20.1

System: tripotassium phosphate + methyl-.alpha.-D-glucopyranoside + water; phases: Liquid
Fixed: Initial molality of solute, mol/kg = 0.5
Fixed: Pressure, kPa = 100
Fixed: Final molality of solute, mol/kg = 0
Property: Molar enthalpy of dilution, kJ/mol (Liquid); method: titration calorimetry
Temperature, K	Solvent: Molality, mol/kg of tripotassium phosphate	Molar enthalpy of dilution, kJ/mol	uncertainty
288.15	0.05	-2.044	0.61
288.15	0.15	-4.306	0.932
288.15	0.25	-5.596	1.137
288.15	0.35	-6.284	1.265
298.15	0.05	-1.699	0.489
298.15	0.15	-3.528	0.763
298.15	0.25	-4.601	0.946
298.15	0.35	-5.688	1.154
308.15	0.05	-1.562	0.431
308.15	0.15	-2.956	0.632
308.15	0.25	-3.772	0.774
308.15	0.35	-4.676	0.954
318.15	0.05	-1.153	0.301
318.15	0.15	-2.119	0.47
318.15	0.25	-3.182	0.657
318.15	0.35	-3.73	0.754

System: tripotassium phosphate + methyl-.alpha.-D-glucopyranoside + water; phases: Liquid
Fixed: Pressure, kPa = 100
Fixed: Frequency, MHz = 2
Property: Speed of sound, m/s (Liquid); method: Linear variable-path acoustic interferometer
Solvent: Molality, mol/kg of tripotassium phosphate	Temperature, K	Molality, mol/kg of methyl-.alpha.-D-glucopyranoside	Speed of sound, m/s	uncertainty
0.5	288.15	0.04368	1591.63	20.08
0.5	288.15	0.06122	1593.79	20.08
0.5	288.15	0.0816	1596.3	20.08
0.5	288.15	0.10407	1599.07	20.08
0.5	288.15	0.13131	1602.43	20.08
0.5	288.15	0.14952	1604.66	20.08
0.5	298.15	0.04368	1602.65	20.08
0.5	298.15	0.06122	1604.48	20.08
0.5	298.15	0.0816	1606.61	20.08
0.5	298.15	0.10407	1608.96	20.08
0.5	298.15	0.13131	1611.79	20.08
0.5	298.15	0.14952	1613.68	20.08
0.5	308.15	0.04368	1614.33	20.08
0.5	308.15	0.06122	1616.1	20.08
0.5	308.15	0.0816	1618.15	20.08
0.5	308.15	0.10407	1620.42	20.08
0.5	308.15	0.13131	1623.16	20.08
0.5	308.15	0.14952	1624.99	20.08
0.5	318.15	0.04368	1626.92	20.08
0.5	318.15	0.06122	1628.65	20.08
0.5	318.15	0.0816	1630.66	20.08
0.5	318.15	0.10407	1632.87	20.08
0.5	318.15	0.13131	1635.54	20.08
0.5	318.15	0.14952	1637.33	20.08
1	288.15	0.05238	1702.15	20.09
1	288.15	0.06661	1704.5	20.09
1	288.15	0.08409	1707.38	20.09
1	288.15	0.09977	1709.97	20.09
1	288.15	0.11767	1712.92	20.09
1	288.15	0.14161	1716.87	20.09
1	298.15	0.05238	1705.76	20.09
1	298.15	0.06661	1707.69	20.09
1	298.15	0.08409	1710.06	20.09
1	298.15	0.09977	1712.17	20.09
1	298.15	0.11767	1714.59	20.09
1	298.15	0.14161	1717.82	20.09
1	308.15	0.05238	1710.77	20.09
1	308.15	0.06661	1712.56	20.09
1	308.15	0.08409	1714.76	20.09
1	308.15	0.09977	1716.72	20.09
1	308.15	0.11767	1718.95	20.09
1	308.15	0.14161	1721.93	20.09
1	318.15	0.05238	1714.55	20.09
1	318.15	0.06661	1716.32	20.09
1	318.15	0.08409	1718.49	20.09
1	318.15	0.09977	1720.44	20.09
1	318.15	0.11767	1722.66	20.09
1	318.15	0.14161	1725.63	20.09
1.5	288.15	0.0519	1799.77	20.09
1.5	288.15	0.06499	1802.44	20.09
1.5	288.15	0.08038	1805.56	20.09
1.5	288.15	0.09956	1809.46	20.09
1.5	288.15	0.12127	1813.86	20.09
1.5	288.15	0.13998	1817.65	20.09
1.5	288.15	0.15915	1821.52	20.09
1.5	298.15	0.0519	1800.43	20.09
1.5	298.15	0.06499	1802.6	20.09
1.5	298.15	0.08038	1805.15	20.09
1.5	298.15	0.09956	1808.33	20.09
1.5	298.15	0.12127	1811.92	20.09
1.5	298.15	0.13998	1815	20.09
1.5	298.15	0.15915	1818.16	20.09
1.5	308.15	0.0519	1801.79	20.09
1.5	308.15	0.06499	1803.81	20.09
1.5	308.15	0.08038	1806.16	20.09
1.5	308.15	0.09956	1809.09	20.09
1.5	308.15	0.12127	1812.4	20.09
1.5	308.15	0.13998	1815.23	20.09
1.5	308.15	0.15915	1818.15	20.09
1.5	318.15	0.0519	1803.69	20.09
1.5	318.15	0.06499	1805.64	20.09
1.5	318.15	0.08038	1807.95	20.09
1.5	318.15	0.09956	1810.82	20.09
1.5	318.15	0.12127	1814.08	20.09
1.5	318.15	0.13998	1816.89	20.09
1.5	318.15	0.15915	1819.77	20.09
2	288.15	0.05636	1891.48	20.1
2	288.15	0.0757	1895.98	20.1
2	288.15	0.08603	1898.38	20.1
2	288.15	0.10506	1902.79	20.1
2	288.15	0.12386	1907.15	20.1
2	288.15	0.14039	1910.97	20.1
2	288.15	0.14873	1912.89	20.1
2	298.15	0.05636	1892.97	20.1
2	298.15	0.0757	1896.53	20.1
2	298.15	0.08603	1898.41	20.1
2	298.15	0.10506	1901.88	20.1
2	298.15	0.12386	1905.28	20.1
2	298.15	0.14039	1908.27	20.1
2	298.15	0.14873	1909.76	20.1
2	308.15	0.05636	1895.22	20.1
2	308.15	0.0757	1898.43	20.1
2	308.15	0.08603	1900.11	20.1
2	308.15	0.10506	1903.23	20.1
2	308.15	0.12386	1906.27	20.1
2	308.15	0.14039	1908.94	20.1
2	308.15	0.14873	1910.23	20.1
2	318.15	0.05636	1898.78	20.1
2	318.15	0.0757	1901.95	20.1
2	318.15	0.08603	1903.62	20.1
2	318.15	0.10506	1906.69	20.1
2	318.15	0.12386	1909.71	20.1
2	318.15	0.14039	1912.37	20.1
2	318.15	0.14873	1913.67	20.1

System: tripotassium phosphate + D-glucose + water; phases: Liquid
Fixed: Initial molality of solute, mol/kg = 0.5
Fixed: Pressure, kPa = 100
Fixed: Final molality of solute, mol/kg = 0
Property: Molar enthalpy of dilution, kJ/mol (Liquid); method: titration calorimetry
Temperature, K	Solvent: Molality, mol/kg of tripotassium phosphate	Molar enthalpy of dilution, kJ/mol	uncertainty
288.15	0.05	-1.016	0.37
288.15	0.15	-2.563	0.643
288.15	0.25	-4.897	1.042
288.15	0.35	-6.096	1.243
298.15	0.05	-1.492	0.363
298.15	0.15	-2.416	0.538
298.15	0.25	-3.846	0.807
298.15	0.35	-4.837	0.991
308.15	0.05	-1.655	0.366
308.15	0.15	-2.297	0.486
308.15	0.25	-3.233	0.664
308.15	0.35	-3.771	0.764
318.15	0.05	-1.408	0.304
318.15	0.15	-1.983	0.42
318.15	0.25	-2.786	0.565
318.15	0.35	-2.889	0.579

System: tripotassium phosphate + D-glucose + water; phases: Liquid
Fixed: Pressure, kPa = 100
Fixed: Frequency, MHz = 2
Property: Speed of sound, m/s (Liquid); method: Linear variable-path acoustic interferometer
Solvent: Molality, mol/kg of tripotassium phosphate	Temperature, K	Molality, mol/kg of D-glucose	Speed of sound, m/s	uncertainty
0.5	288.15	0.04832	1590.95	20.08
0.5	288.15	0.06371	1592.46	20.08
0.5	288.15	0.09208	1595.26	20.08
0.5	288.15	0.11631	1597.66	20.08
0.5	288.15	0.12822	1598.84	20.08
0.5	288.15	0.15328	1601.34	20.08
0.5	298.15	0.04832	1602.17	20.08
0.5	298.15	0.06371	1603.48	20.08
0.5	298.15	0.09208	1605.89	20.08
0.5	298.15	0.11631	1607.94	20.08
0.5	298.15	0.12822	1608.94	20.08
0.5	298.15	0.15328	1611.05	20.08
0.5	308.15	0.04832	1614	20.08
0.5	308.15	0.06371	1615.3	20.08
0.5	308.15	0.09208	1617.68	20.08
0.5	308.15	0.11631	1619.71	20.08
0.5	308.15	0.12822	1620.7	20.08
0.5	308.15	0.15328	1622.8	20.08
0.5	318.15	0.04832	1626.28	20.08
0.5	318.15	0.06371	1627.45	20.08
0.5	318.15	0.09208	1629.6	20.08
0.5	318.15	0.11631	1631.43	20.08
0.5	318.15	0.12822	1632.32	20.08
0.5	318.15	0.15328	1634.21	20.08
1	288.15	0.05045	1699.78	20.09
1	288.15	0.06539	1701.63	20.09
1	288.15	0.09352	1705.12	20.1
1	288.15	0.09856	1705.74	20.1
1	288.15	0.1195	1708.33	20.09
1	288.15	0.1328	1709.97	20.09
1	288.15	0.15017	1712.11	20.09
1	298.15	0.05045	1704.02	20.09
1	298.15	0.06539	1705.6	20.09
1	298.15	0.09352	1708.58	20.09
1	298.15	0.09856	1709.1	20.09
1	298.15	0.1195	1711.3	20.09
1	298.15	0.1328	1712.68	20.09
1	298.15	0.15017	1714.5	20.09
1	308.15	0.05045	1709.41	20.09
1	308.15	0.06539	1710.96	20.09
1	308.15	0.09352	1713.88	20.09
1	308.15	0.09856	1714.4	20.09
1	308.15	0.1195	1716.56	20.09
1	308.15	0.1328	1717.93	20.09
1	308.15	0.15017	1719.72	20.09
1	318.15	0.05045	1712.67	20.09
1	318.15	0.06539	1714.04	20.09
1	318.15	0.09352	1716.61	20.09
1	318.15	0.09856	1717.07	20.09
1	318.15	0.1195	1718.98	20.09
1	318.15	0.1328	1720.18	20.09
1	318.15	0.15017	1721.77	20.09
1.5	288.15	0.05431	1797.62	20.09
1.5	288.15	0.06953	1799.97	20.09
1.5	288.15	0.08336	1802.11	20.09
1.5	288.15	0.10866	1806.03	20.09
1.5	288.15	0.11992	1807.75	20.09
1.5	288.15	0.13555	1810.17	20.09
1.5	288.15	0.14403	1811.47	20.09
1.5	298.15	0.05431	1798.86	20.09
1.5	298.15	0.06953	1800.82	20.09
1.5	298.15	0.08336	1802.6	20.09
1.5	298.15	0.10866	1805.84	20.09
1.5	298.15	0.11992	1807.27	20.09
1.5	298.15	0.13555	1809.25	20.09
1.5	298.15	0.14403	1810.31	20.09
1.5	308.15	0.05431	1800.75	20.09
1.5	308.15	0.06953	1802.69	20.09
1.5	308.15	0.08336	1804.43	20.09
1.5	308.15	0.10866	1807.61	20.09
1.5	308.15	0.11992	1809.01	20.09
1.5	308.15	0.13555	1810.95	20.09
1.5	308.15	0.14403	1811.99	20.09
1.5	318.15	0.05431	1801.96	20.09
1.5	318.15	0.06953	1803.63	20.09
1.5	318.15	0.08336	1805.14	20.09
1.5	318.15	0.10866	1807.87	20.09
1.5	318.15	0.11992	1809.09	20.09
1.5	318.15	0.13555	1810.77	20.09
1.5	318.15	0.14403	1811.66	20.09
2	288.15	0.05357	1888.01	20.1
2	288.15	0.06461	1890.01	20.1
2	288.15	0.083	1893.33	20.1
2	288.15	0.09471	1895.45	20.1
2	288.15	0.12884	1901.61	20.1
2	288.15	0.15332	1906.02	20.1
2	298.15	0.05357	1890.39	20.1
2	298.15	0.06461	1892	20.1
2	298.15	0.083	1894.69	20.1
2	298.15	0.09471	1896.39	20.1
2	298.15	0.12884	1901.33	20.1
2	298.15	0.15332	1904.86	20.1
2	308.15	0.05357	1893.54	20.1
2	308.15	0.06461	1895.14	20.1
2	308.15	0.083	1897.79	20.1
2	308.15	0.09471	1899.47	20.1
2	308.15	0.12884	1904.36	20.1
2	308.15	0.15332	1907.87	20.1
2	318.15	0.05357	1896.09	20.1
2	318.15	0.06461	1897.44	20.1
2	318.15	0.083	1899.66	20.1
2	318.15	0.09471	1901.06	20.1
2	318.15	0.12884	1905.06	20.1
2	318.15	0.15332	1907.9	20.1

System: tripotassium phosphate + D-maltose + water; phases: Liquid
Fixed: Initial molality of solute, mol/kg = 0.5
Fixed: Pressure, kPa = 100
Fixed: Final molality of solute, mol/kg = 0
Property: Molar enthalpy of dilution, kJ/mol (Liquid); method: titration calorimetry
Temperature, K	Solvent: Molality, mol/kg of tripotassium phosphate	Molar enthalpy of dilution, kJ/mol	uncertainty
288.15	0.05	-1.03	0.534
288.15	0.15	-3.494	0.936
288.15	0.25	-7.247	1.523
288.15	0.35	-8.145	1.64
298.15	0.05	-1.186	0.342
298.15	0.15	-2.599	0.774
298.15	0.25	-6.918	1.435
298.15	0.35	-6.362	1.274
308.15	0.05	-1.895	0.402
308.15	0.15	-2.111	0.611
308.15	0.25	-6.314	1.311
308.15	0.35	-5.587	1.126
318.15	0.05	-1.273	0.274
318.15	0.15	-1.778	0.535
318.15	0.25	-5.273	1.105
318.15	0.35	-5.045	1.011

System: tripotassium phosphate + D-maltose + water; phases: Liquid
Fixed: Pressure, kPa = 100
Fixed: Frequency, MHz = 2
Property: Speed of sound, m/s (Liquid); method: Linear variable-path acoustic interferometer
Solvent: Molality, mol/kg of tripotassium phosphate	Temperature, K	Molality, mol/kg of D-maltose	Speed of sound, m/s	uncertainty
0.4995	288.15	0.05094	1594.11	20.08
0.4994	288.15	0.06037	1595.57	20.08
0.4993	288.15	0.07422	1597.71	20.08
0.4991	288.15	0.08932	1600.04	20.08
0.4989	288.15	0.10566	1602.57	20.08
0.4988	288.15	0.12532	1605.61	20.08
0.4986	288.15	0.13916	1607.76	20.08
0.9989	288.15	0.04915	1703.35	20.09
0.9987	288.15	0.06096	1705.72	20.09
0.9983	288.15	0.0768	1708.88	20.09
0.9982	288.15	0.08465	1710.44	20.09
0.9977	288.15	0.10751	1715	20.09
0.9973	288.15	0.12224	1717.93	20.09
0.9969	288.15	0.14374	1722.2	20.09
1.4984	288.15	0.04392	1800.1	20.09
1.4978	288.15	0.06217	1804.62	20.09
1.4971	288.15	0.08111	1809.3	20.09
1.4967	288.15	0.09368	1812.4	20.09
1.4959	288.15	0.11493	1817.63	20.09
1.4956	288.15	0.1249	1820.08	20.09
1.495	288.15	0.14083	1823.98	20.09
1.9976	288.15	0.04647	1891.68	20.1
1.9969	288.15	0.06053	1895.71	20.1
1.9959	288.15	0.07908	1900.99	20.1
1.9953	288.15	0.09108	1904.4	20.1
1.9943	288.15	0.11102	1910.04	20.1
1.9934	288.15	0.12825	1914.89	20.1
1.9925	288.15	0.14533	1919.67	20.1
0.4995	298.15	0.05094	1605.78	20.08
0.4994	298.15	0.06037	1607.21	20.08
0.4993	298.15	0.07422	1609.31	20.08
0.4991	298.15	0.08932	1611.6	20.08
0.4989	298.15	0.10566	1614.08	20.08
0.4988	298.15	0.12532	1617.07	20.08
0.4986	298.15	0.13916	1619.17	20.08
0.9989	298.15	0.04915	1708.3	20.09
0.9987	298.15	0.06096	1710.62	20.09
0.9983	298.15	0.0768	1713.73	20.09
0.9982	298.15	0.08465	1715.27	20.09
0.9977	298.15	0.10751	1719.75	20.09
0.9973	298.15	0.12224	1722.64	20.09
0.9969	298.15	0.14374	1726.84	20.09
1.4984	298.15	0.04392	1802.48	20.09
1.4978	298.15	0.06217	1806.91	20.09
1.4971	298.15	0.08111	1811.49	20.09
1.4967	298.15	0.09368	1814.52	20.09
1.4959	298.15	0.11493	1819.63	20.09
1.4956	298.15	0.1249	1822.01	20.09
1.495	298.15	0.14083	1825.82	20.09
1.9976	298.15	0.04647	1895.42	20.1
1.9969	298.15	0.06053	1899.3	20.1
1.9959	298.15	0.07908	1904.4	20.1
1.9953	298.15	0.09108	1907.69	20.1
1.9943	298.15	0.11102	1913.13	20.1
1.9934	298.15	0.12825	1917.82	20.1
1.9925	298.15	0.14533	1922.44	20.1
0.4995	308.15	0.05094	1617.16	20.08
0.4994	308.15	0.06037	1618.5	20.08
0.4993	308.15	0.07422	1620.46	20.08
0.4991	308.15	0.08932	1622.59	20.08
0.4989	308.15	0.10566	1624.9	20.08
0.4988	308.15	0.12532	1627.67	20.08
0.4986	308.15	0.13916	1629.61	20.08
0.9989	308.15	0.04915	1713.1	20.09
0.9987	308.15	0.06096	1715.26	20.09
0.9983	308.15	0.0768	1718.15	20.09
0.9982	308.15	0.08465	1719.57	20.09
0.9977	308.15	0.10751	1723.74	20.09
0.9973	308.15	0.12224	1726.41	20.09
0.9969	308.15	0.14374	1730.32	20.09
1.4984	308.15	0.04392	1803.63	20.09
1.4978	308.15	0.06217	1807.72	20.09
1.4971	308.15	0.08111	1811.94	20.09
1.4967	308.15	0.09368	1814.73	20.09
1.4959	308.15	0.11493	1819.42	20.09
1.4956	308.15	0.1249	1821.62	20.09
1.495	308.15	0.14083	1825.11	20.09
1.9976	308.15	0.04647	1897.66	20.1
1.9969	308.15	0.06053	1901.22	20.1
1.9959	308.15	0.07908	1905.88	20.1
1.9953	308.15	0.09108	1908.88	20.1
1.9943	308.15	0.11102	1913.84	20.1
1.9934	308.15	0.12825	1918.11	20.1
1.9925	308.15	0.14533	1922.3	20.1
0.4995	318.15	0.05094	1629.67	20.08
0.4994	318.15	0.06037	1630.98	20.08
0.4993	318.15	0.07422	1632.9	20.08
0.4991	318.15	0.08932	1634.99	20.08
0.4989	318.15	0.10566	1637.25	20.08
0.4988	318.15	0.12532	1639.96	20.08
0.4986	318.15	0.13916	1641.87	20.08
0.9989	318.15	0.04915	1716.9	20.09
0.9987	318.15	0.06096	1719.04	20.09
0.9983	318.15	0.0768	1721.9	20.09
0.9982	318.15	0.08465	1723.32	20.09
0.9977	318.15	0.10751	1727.45	20.09
0.9973	318.15	0.12224	1730.11	20.09
0.9969	318.15	0.14374	1733.99	20.09
1.4984	318.15	0.04392	1805.42	20.09
1.4978	318.15	0.06217	1809.32	20.09
1.4971	318.15	0.08111	1813.34	20.09
1.4967	318.15	0.09368	1815.99	20.09
1.4959	318.15	0.11493	1820.44	20.09
1.4956	318.15	0.1249	1822.51	20.09
1.495	318.15	0.14083	1825.8	20.09
1.9976	318.15	0.04647	1900.98	20.1
1.9969	318.15	0.06053	1904.45	20.1
1.9959	318.15	0.07908	1909	20.1
1.9953	318.15	0.09108	1911.94	20.1
1.9943	318.15	0.11102	1916.79	20.1
1.9934	318.15	0.12825	1920.96	20.1
1.9925	318.15	0.14533	1925.08	20.1

System: tripotassium phosphate + D-raffinose + water; phases: Liquid
Fixed: Initial molality of solute, mol/kg = 0.2
Fixed: Pressure, kPa = 100
Fixed: Final molality of solute, mol/kg = 0
Property: Molar enthalpy of dilution, kJ/mol (Liquid); method: titration calorimetry
Temperature, K	Solvent: Molality, mol/kg of tripotassium phosphate	Molar enthalpy of dilution, kJ/mol	uncertainty
288.15	0.05	-2.654	1.083
288.15	0.15	-7.372	1.722
288.15	0.25	-11.528	2.392
288.15	0.35	-13.687	2.773
298.15	0.05	-2.721	0.803
298.15	0.15	-5.593	1.315
298.15	0.25	-9.628	2.006
298.15	0.35	-11.175	2.261
308.15	0.05	-2.558	0.693
308.15	0.15	-4.78	1.043
308.15	0.25	-6.72	1.409
308.15	0.35	-8.98	1.843
318.15	0.05	-2.06	0.566
318.15	0.15	-4.002	0.875
318.15	0.25	-5.578	1.136
318.15	0.35	-6.108	1.227

System: tripotassium phosphate + D-raffinose + water; phases: Liquid
Fixed: Pressure, kPa = 100
Fixed: Frequency, MHz = 2
Property: Speed of sound, m/s (Liquid); method: Linear variable-path acoustic interferometer
Solvent: Molality, mol/kg of tripotassium phosphate	Temperature, K	Molality, mol/kg of D-raffinose	Speed of sound, m/s	uncertainty
0.4974	288.15	0.05138	1599.97	20.08
0.4969	288.15	0.06177	1602.75	20.08
0.496	288.15	0.08014	1607.65	20.08
0.4954	288.15	0.09201	1610.83	20.08
0.4943	288.15	0.11411	1616.73	20.08
0.4931	288.15	0.13822	1623.17	20.08
0.9949	288.15	0.04649	1709.29	20.09
0.9933	288.15	0.06104	1714.22	20.09
0.9914	288.15	0.07842	1720.09	20.09
0.9899	288.15	0.09278	1724.93	20.09
0.9875	288.15	0.11487	1732.35	20.09
0.9863	288.15	0.12583	1736.03	20.09
1.492	288.15	0.04487	1807.99	20.09
1.4897	288.15	0.05779	1813.37	20.09
1.4873	288.15	0.07137	1819.01	20.09
1.4852	288.15	0.08311	1823.86	20.09
1.4819	288.15	0.10194	1831.61	20.1
1.4783	288.15	0.12245	1840.01	20.1
1.9883	288.15	0.04576	1900.08	20.1
1.9846	288.15	0.06024	1906.91	20.1
1.9803	288.15	0.07704	1914.77	20.1
1.976	288.15	0.09377	1922.55	20.1
1.9692	288.15	0.12056	1934.91	20.1
1.9666	288.15	0.13089	1939.63	20.1
0.4974	298.15	0.05138	1611.71	20.08
0.4969	298.15	0.06177	1614.47	20.08
0.496	298.15	0.08014	1619.35	20.08
0.4954	298.15	0.09201	1622.5	20.08
0.4943	298.15	0.11411	1628.38	20.08
0.4931	298.15	0.13822	1634.8	20.08
0.9949	298.15	0.04649	1714	20.09
0.9933	298.15	0.06104	1718.8	20.09
0.9914	298.15	0.07842	1724.52	20.09
0.9899	298.15	0.09278	1729.23	20.09
0.9875	298.15	0.11487	1736.47	20.09
0.9863	298.15	0.12583	1740.05	20.09
1.492	298.15	0.04487	1809.78	20.09
1.4897	298.15	0.05779	1814.92	20.09
1.4873	298.15	0.07137	1820.31	20.09
1.4852	298.15	0.08311	1824.95	20.09
1.4819	298.15	0.10194	1832.36	20.1
1.4783	298.15	0.12245	1840.39	20.1
1.9883	298.15	0.04576	1903.71	20.1
1.9846	298.15	0.06024	1910.35	20.1
1.9803	298.15	0.07704	1918.01	20.1
1.976	298.15	0.09377	1925.59	20.1
1.9692	298.15	0.12056	1937.63	20.1
1.9666	298.15	0.13089	1942.24	20.1
0.4974	308.15	0.05138	1623.32	20.08
0.4969	308.15	0.06177	1626.03	20.08
0.496	308.15	0.08014	1630.82	20.08
0.4954	308.15	0.09201	1633.91	20.08
0.4943	308.15	0.11411	1639.67	20.08
0.4931	308.15	0.13822	1645.95	20.08
0.9949	308.15	0.04649	1719.17	20.09
0.9933	308.15	0.06104	1723.85	20.09
0.9914	308.15	0.07842	1729.43	20.09
0.9899	308.15	0.09278	1734.03	20.09
0.9875	308.15	0.11487	1741.09	20.09
0.9863	308.15	0.12583	1744.58	20.09
1.492	308.15	0.04487	1811.07	20.09
1.4897	308.15	0.05779	1816.01	20.09
1.4873	308.15	0.07137	1821.18	20.09
1.4852	308.15	0.08311	1825.64	20.09
1.4819	308.15	0.10194	1832.75	20.1
1.4783	308.15	0.12245	1840.45	20.1
1.9883	308.15	0.04576	1906.21	20.1
1.9846	308.15	0.06024	1912.62	20.1
1.9803	308.15	0.07704	1920.01	20.1
1.976	308.15	0.09377	1927.31	20.1
1.9692	308.15	0.12056	1938.9	20.1
1.9666	308.15	0.13089	1943.33	20.1
0.4974	318.15	0.05138	1635.86	20.08
0.4969	318.15	0.06177	1638.54	20.08
0.496	318.15	0.08014	1643.27	20.08
0.4954	318.15	0.09201	1646.33	20.08
0.4943	318.15	0.11411	1652.03	20.08
0.4931	318.15	0.13822	1658.25	20.09
0.9949	318.15	0.04649	1722.78	20.09
0.9933	318.15	0.06104	1727.37	20.09
0.9914	318.15	0.07842	1732.85	20.09
0.9899	318.15	0.09278	1737.35	20.09
0.9875	318.15	0.11487	1744.26	20.09
0.9863	318.15	0.12583	1747.67	20.09
1.492	318.15	0.04487	1812.97	20.09
1.4897	318.15	0.05779	1817.83	20.09
1.4873	318.15	0.07137	1822.93	20.09
1.4852	318.15	0.08311	1827.33	20.09
1.4819	318.15	0.10194	1834.34	20.1
1.4783	318.15	0.12245	1841.94	20.1
1.9883	318.15	0.04576	1909.6	20.1
1.9846	318.15	0.06024	1915.92	20.1
1.9803	318.15	0.07704	1923.21	20.1
1.976	318.15	0.09377	1930.42	20.1
1.9692	318.15	0.12056	1941.88	20.1
1.9666	318.15	0.13089	1946.27	20.1

System: sodium dihydrogen phosphate + water; phases: Liquid
Fixed: Pressure, kPa = 100
Fixed: Frequency, MHz = 2
Property: Speed of sound, m/s (Liquid); method: Linear variable-path acoustic interferometer
Temperature, K	Molality, mol/kg of sodium dihydrogen phosphate	Speed of sound, m/s	uncertainty
288.15	0	1465.88	20.05
298.15	0	1496.78	20.05
308.15	0	1519.88	20.05
318.15	0	1536.38	20.05
288.15	0.5	1516.7	20.05
298.15	0.5	1547.35	20.05
308.15	0.5	1567.51	20.05
318.15	0.5	1582.63	20.05
288.15	1	1563.17	20.05
298.15	1	1598.02	20.06
308.15	1	1618.93	20.06
318.15	1	1638.79	20.06
288.15	1.5	1607.34	20.06
298.15	1.5	1649	20.06
308.15	1.5	1674.99	20.06
318.15	1.5	1704.84	20.06
288.15	2	1649.2	20.06
298.15	2	1700.3	20.06
308.15	2	1735.68	20.06
318.15	2	1782.77	20.07

System: ammonium dihydrogen phosphate + water; phases: Liquid
Fixed: Pressure, kPa = 100
Fixed: Frequency, MHz = 2
Property: Speed of sound, m/s (Liquid); method: Linear variable-path acoustic interferometer
Temperature, K	Molality, mol/kg of ammonium dihydrogen phosphate	Speed of sound, m/s	uncertainty
288.15	0.5	1506.42	20.05
298.15	0.5	1534.25	20.05
308.15	0.5	1555.09	20.05
318.15	0.5	1570.8	20.05
288.15	1	1554.47	20.05
298.15	1	1579.61	20.06
308.15	1	1598.09	20.06
318.15	1	1610.25	20.06
288.15	1.5	1609.19	20.06
298.15	1.5	1629.94	20.06
308.15	1.5	1645.13	20.06
318.15	1.5	1654.36	20.06
288.15	2	1672.59	20.06
298.15	2	1686.23	20.06
308.15	2	1697.19	20.07
318.15	2	1703.13	20.07

System: tripotassium phosphate + water; phases: Liquid
Fixed: Pressure, kPa = 100
Fixed: Frequency, MHz = 2
Property: Speed of sound, m/s (Liquid); method: Linear variable-path acoustic interferometer
Temperature, K	Molality, mol/kg of tripotassium phosphate	Speed of sound, m/s	uncertainty
288.15	0.5	1586.24	20.06
298.15	0.5	1598.06	20.06
308.15	0.5	1609.92	20.06
318.15	0.5	1622.62	20.06
288.15	1	1693.5	20.06
298.15	1	1698.62	20.07
308.15	1	1704.14	20.07
318.15	1	1708.02	20.07
288.15	1.5	1789.18	20.07
298.15	1.5	1791.77	20.07
308.15	1.5	1793.76	20.07
318.15	1.5	1795.95	20.07
288.15	2	1878.29	20.08
298.15	2	1882.51	20.08
308.15	2	1885.77	20.08
318.15	2	1889.4	20.08

System: D-ribose + water; phases: Liquid
Fixed: Initial molality of solute, mol/kg = 0.5
Fixed: Pressure, kPa = 100
Fixed: Final molality of solute, mol/kg = 0
Property: Molar enthalpy of dilution, kJ/mol (Liquid); method: titration calorimetry
Temperature, K	Molar enthalpy of dilution, kJ/mol	uncertainty
288.15	-0.151	0.03
298.15	-0.136	0.027
308.15	-0.066	0.013
318.15	-0.038	0.008

System: D-ribose + water; phases: Liquid
Fixed: Pressure, kPa = 100
Fixed: Frequency, MHz = 2
Property: Speed of sound, m/s (Liquid); method: Linear variable-path acoustic interferometer
Temperature, K	Molality, mol/kg of D-ribose	Speed of sound, m/s	uncertainty
288.15	0.04514	1468.68	20.05
288.15	0.06075	1469.65	20.05
288.15	0.08352	1471.08	20.05
288.15	0.11201	1472.87	20.05
288.15	0.13475	1474.31	20.05
288.15	0.15234	1475.43	20.05
298.15	0.04514	1499.07	20.05
298.15	0.06075	1499.86	20.05
298.15	0.08352	1501.01	20.05
298.15	0.11201	1502.47	20.05
298.15	0.13475	1503.64	20.05
298.15	0.15234	1504.54	20.05
308.15	0.04514	1521.96	20.05
308.15	0.06075	1522.68	20.05
308.15	0.08352	1523.74	20.05
308.15	0.11201	1525.06	20.05
308.15	0.13475	1526.12	20.05
308.15	0.15234	1526.94	20.05
318.15	0.04514	1538.26	20.05
318.15	0.06075	1538.91	20.05
318.15	0.08352	1539.86	20.05
318.15	0.11201	1541.05	20.05
318.15	0.13475	1542.01	20.05
318.15	0.15234	1542.75	20.05

System: 2-deoxy-D-glucose + water; phases: Liquid
Fixed: Initial molality of solute, mol/kg = 0.5
Fixed: Pressure, kPa = 100
Fixed: Final molality of solute, mol/kg = 0
Property: Molar enthalpy of dilution, kJ/mol (Liquid); method: titration calorimetry
Temperature, K	Molar enthalpy of dilution, kJ/mol	uncertainty
288.15	-0.285	0.057
298.15	-0.278	0.056
308.15	-0.229	0.046
318.15	-0.217	0.043

System: 2-deoxy-D-glucose + water; phases: Liquid
Fixed: Pressure, kPa = 100
Fixed: Frequency, MHz = 2
Property: Speed of sound, m/s (Liquid); method: Linear variable-path acoustic interferometer
Temperature, K	Molality, mol/kg of 2-deoxy-D-glucose	Speed of sound, m/s	uncertainty
288.15	0.04452	1468.52	20.05
288.15	0.06258	1469.57	20.05
288.15	0.08916	1471.09	20.05
288.15	0.09804	1471.6	20.05
288.15	0.10308	1471.87	20.05
288.15	0.12755	1473.24	20.05
298.15	0.04452	1499.15	20.05
298.15	0.06258	1500.08	20.05
298.15	0.08916	1501.44	20.05
298.15	0.09804	1501.89	20.05
298.15	0.10308	1502.13	20.05
298.15	0.12755	1503.34	20.05
308.15	0.04452	1522.09	20.05
308.15	0.06258	1522.97	20.05
308.15	0.08916	1524.26	20.05
308.15	0.09804	1524.69	20.05
308.15	0.10308	1524.93	20.05
308.15	0.12755	1526.1	20.05
318.15	0.04452	1538.24	20.05
318.15	0.06258	1538.99	20.05
318.15	0.08916	1540.08	20.05
318.15	0.09804	1540.45	20.05
318.15	0.10308	1540.65	20.05
318.15	0.12755	1541.64	20.05

System: methyl-.alpha.-D-glucopyranoside + water; phases: Liquid
Fixed: Initial molality of solute, mol/kg = 0.5
Fixed: Pressure, kPa = 100
Fixed: Final molality of solute, mol/kg = 0
Property: Molar enthalpy of dilution, kJ/mol (Liquid); method: titration calorimetry
Temperature, K	Molar enthalpy of dilution, kJ/mol	uncertainty
288.15	-0.501	0.1
298.15	-0.474	0.095
308.15	-0.446	0.089
318.15	-0.43	0.086

System: methyl-.alpha.-D-glucopyranoside + water; phases: Liquid
Fixed: Pressure, kPa = 100
Fixed: Frequency, MHz = 2
Property: Speed of sound, m/s (Liquid); method: Linear variable-path acoustic interferometer
Temperature, K	Molality, mol/kg of methyl-.alpha.-D-glucopyranoside	Speed of sound, m/s	uncertainty
288.15	0.05678	1470.73	20.05
288.15	0.06847	1471.7	20.05
288.15	0.08732	1473.24	20.05
288.15	0.11925	1475.81	20.05
288.15	0.12933	1476.61	20.05
288.15	0.1466	1477.97	20.05
298.15	0.05678	1501.16	20.05
298.15	0.06847	1502.05	20.05
298.15	0.08732	1503.5	20.05
298.15	0.11925	1505.95	20.05
298.15	0.12933	1506.72	20.05
298.15	0.1466	1508.05	20.05
308.15	0.05678	1524.05	20.05
308.15	0.06847	1524.91	20.05
308.15	0.08732	1526.29	20.05
308.15	0.11925	1528.62	20.05
308.15	0.12933	1529.36	20.05
308.15	0.1466	1530.61	20.05
318.15	0.05678	1540.48	20.05
318.15	0.06847	1541.32	20.05
318.15	0.08732	1542.68	20.05
318.15	0.11925	1544.97	20.05
318.15	0.12933	1545.69	20.05
318.15	0.1466	1546.93	20.05

System: D-glucose + water; phases: Liquid
Fixed: Initial molality of solute, mol/kg = 0.5
Fixed: Pressure, kPa = 100
Fixed: Final molality of solute, mol/kg = 0
Property: Molar enthalpy of dilution, kJ/mol (Liquid); method: titration calorimetry
Temperature, K	Molar enthalpy of dilution, kJ/mol	uncertainty
288.15	-0.152	0.03
298.15	-0.175	0.035
308.15	-0.18	0.036
318.15	-0.185	0.037

System: D-glucose + water; phases: Liquid
Fixed: Pressure, kPa = 100
Fixed: Frequency, MHz = 2
Property: Speed of sound, m/s (Liquid); method: Linear variable-path acoustic interferometer
Temperature, K	Molality, mol/kg of D-glucose	Speed of sound, m/s	uncertainty
288.15	0.054	1469.6	20.05
288.15	0.07085	1470.77	20.05
288.15	0.09905	1472.73	20.05
288.15	0.11958	1474.16	20.05
288.15	0.12207	1474.34	20.05
288.15	0.13877	1475.5	20.05
298.15	0.054	1500.1	20.05
298.15	0.07085	1501.14	20.05
298.15	0.09905	1502.89	20.05
298.15	0.11958	1504.16	20.05
298.15	0.12207	1504.31	20.05
298.15	0.13877	1505.35	20.05
308.15	0.054	1523.08	20.05
308.15	0.07085	1524.7	20.05
308.15	0.09905	1527.39	20.05
308.15	0.11958	1529.31	20.06
308.15	0.12207	1529.54	20.06
308.15	0.13877	1531.08	20.05
318.15	0.054	1539.19	20.05
318.15	0.07085	1540.7	20.05
318.15	0.09905	1543.18	20.05
318.15	0.11958	1544.96	20.05
318.15	0.12207	1545.17	20.05
318.15	0.13877	1546.59	20.05

System: D-maltose + water; phases: Liquid
Fixed: Initial molality of solute, mol/kg = 0.5
Fixed: Pressure, kPa = 100
Fixed: Final molality of solute, mol/kg = 0
Property: Molar enthalpy of dilution, kJ/mol (Liquid); method: titration calorimetry
Temperature, K	Molar enthalpy of dilution, kJ/mol	uncertainty
288.15	-0.066	0.013
298.15	-0.075	0.015
308.15	-0.095	0.019
318.15	-0.187	0.037

System: D-maltose + water; phases: Liquid
Fixed: Pressure, kPa = 100
Fixed: Frequency, MHz = 2
Property: Speed of sound, m/s (Liquid); method: Linear variable-path acoustic interferometer
Temperature, K	Molality, mol/kg of D-maltose	Speed of sound, m/s	uncertainty
288.15	0.04892	1471.43	20.05
288.15	0.06098	1472.81	20.05
288.15	0.07229	1474.11	20.05
288.15	0.08179	1475.21	20.05
288.15	0.10884	1478.35	20.05
288.15	0.12176	1479.86	20.05
298.15	0.04892	1502.33	20.05
298.15	0.06098	1503.72	20.05
298.15	0.07229	1505.02	20.05
298.15	0.08179	1506.12	20.05
298.15	0.10884	1509.25	20.05
298.15	0.12176	1510.76	20.05
308.15	0.04892	1525.08	20.05
308.15	0.06098	1526.38	20.05
308.15	0.07229	1527.6	20.05
308.15	0.08179	1528.63	20.05
308.15	0.10884	1531.53	20.05
308.15	0.12176	1532.92	20.05
318.15	0.04892	1541.46	20.05
318.15	0.06098	1542.73	20.05
318.15	0.07229	1543.91	20.05
318.15	0.08179	1544.91	20.05
318.15	0.10884	1547.76	20.05
318.15	0.12176	1549.12	20.05

System: D-raffinose + water; phases: Liquid
Fixed: Initial molality of solute, mol/kg = 0.2
Fixed: Pressure, kPa = 100
Fixed: Final molality of solute, mol/kg = 0
Property: Molar enthalpy of dilution, kJ/mol (Liquid); method: titration calorimetry
Temperature, K	Molar enthalpy of dilution, kJ/mol	uncertainty
288.15	-0.063	0.013
298.15	-0.175	0.035
308.15	-0.194	0.039
318.15	-0.201	0.04

System: D-raffinose + water; phases: Liquid
Fixed: Pressure, kPa = 100
Fixed: Frequency, MHz = 2
Property: Speed of sound, m/s (Liquid); method: Linear variable-path acoustic interferometer
Temperature, K	Molality, mol/kg of D-raffinose	Speed of sound, m/s	uncertainty
288.15	0.05849	1478.06	20.05
288.15	0.0723	1480.96	20.05
288.15	0.087	1484.06	20.05
288.15	0.10828	1488.57	20.05
288.15	0.12246	1491.59	20.05
288.15	0.14299	1495.98	20.05
298.15	0.05849	1509.04	20.05
298.15	0.0723	1511.97	20.05
298.15	0.087	1515.1	20.05
298.15	0.10828	1519.65	20.05
298.15	0.12246	1522.7	20.05
298.15	0.14299	1527.13	20.05
308.15	0.05849	1531.93	20.05
308.15	0.0723	1534.8	20.05
308.15	0.087	1537.87	20.05
308.15	0.10828	1542.35	20.05
308.15	0.12246	1545.34	20.05
308.15	0.14299	1549.69	20.05
318.15	0.05849	1548.26	20.05
318.15	0.0723	1551.09	20.05
318.15	0.087	1554.12	20.05
318.15	0.10828	1558.53	20.05
318.15	0.12246	1561.48	20.05
318.15	0.14299	1565.78	20.05
