Measured thermophysical data. Experimental Determination and Thermodynamic Model of Solid-Liquid Equilibria in the Ternary System (LiCl + CaCl2 + H2O) at 273.15 K
Source: J. Chem. Eng. Data, 2019, 10.1021/acs.jced.8b00777
Compound 1: lithium chloride, ClLi, InChI=1S/ClH.Li/h1H;/q;+1/p-1, purity 99%
Compound 2: calcium chloride, CaCl2, InChI=1S/Ca.2ClH/h;2*1H/q+2;;/p-2, purity 96%
Compound 3: water, H2O, InChI=1S/H2O/h1H2, purity 99.9%

System: lithium chloride + calcium chloride + water; phases: Liquid, Crystal of intercomponent compound 1
Fixed: Temperature, K = 273.15
Fixed: Pressure, kPa = 100
Property: Mass fraction of calcium chloride (Liquid); method: Titration method
Mass fraction of lithium chloride	Mass fraction of calcium chloride	uncertainty
0.4094	0	
0.3574	0.0752	0.0268
0.3264	0.1217	0.0272
0.3235	0.1218	0.0258
0.3242	0.1233	0.0267

System: lithium chloride + calcium chloride + water; phases: Liquid, Crystal of intercomponent compound 2
Fixed: Temperature, K = 273.15
Fixed: Pressure, kPa = 100
Property: Mass fraction of calcium chloride (Liquid); method: Titration method
Mass fraction of lithium chloride	Mass fraction of calcium chloride	uncertainty
0.3242	0.1233	0.0166
0.3216	0.1249	0.0166
0.2986	0.1486	0.0166
0.2975	0.1521	0.0166

System: lithium chloride + calcium chloride + water; phases: Liquid, Crystal of intercomponent compound 3
Fixed: Temperature, K = 273.15
Fixed: Pressure, kPa = 100
Property: Mass fraction of calcium chloride (Liquid); method: Titration method
Mass fraction of lithium chloride	Mass fraction of calcium chloride	uncertainty
0.2975	0.1521	0.0166
0.2958	0.1534	0.0166
0.293	0.1559	0.0166
0.2883	0.1559	0.0166

System: lithium chloride + calcium chloride + water; phases: Liquid, Crystal of intercomponent compound 3
Fixed: Temperature, K = 273.15
Fixed: Pressure, kPa = 100
Property: Mass fraction of calcium chloride (Liquid); method: Titration method
Mass fraction of lithium chloride	Mass fraction of calcium chloride	uncertainty
0.2883	0.1559	0.0177
0.2762	0.1457	0.0185
0.1625	0.2105	0.0194
0.1609	0.2134	0.0194
0.0992	0.2728	0.0215
0.078	0.292	0.0218
0.0648	0.3042	0.0215
0.0554	0.3155	0.0225
0.0461	0.3232	0.0228
0	0.3744	0.0166

System: lithium chloride + calcium chloride + water; phases: Liquid
Fixed: Temperature, K = 273.15
Fixed: Pressure, kPa = 100
Property: Mass density, kg/m3 (Liquid); method: Vibrating tube method
Mass fraction of lithium chloride	Mass fraction of calcium chloride	Mass density, kg/m3	uncertainty
0.4094	0	1262.8	4.9
0.3574	0.0752	1301.3	16.6
0.3264	0.1217	1328.7	16.6
0.3235	0.1218	1329.3	18.8
0.3242	0.1233	1329.4	16.9
0.3216	0.1249	1329.4	16.7
0.2986	0.1486	1336.3	11.2
0.2975	0.1521	1349	22.8
0.2958	0.1534	1338.5	11.6
0.293	0.1559	1339.1	11.7
0.2883	0.1559	1340.6	15.3
0.2762	0.1457	1326.5	13.1
0.1625	0.2105	1308.7	18.7
0.1609	0.2134	1309.4	19.6
0.0992	0.2728	1328.9	4.3
0.078	0.292	1334.1	12.8
0.0648	0.3042	1345.6	12.8
0.0554	0.3155	1345.5	7.7
0.0461	0.3232	1348.2	3.2
0	0.3744	1373.5	15.2

System: lithium chloride + calcium chloride + water; phases: Liquid
Fixed: Temperature, K = 273.15
Fixed: Pressure, kPa = 100
Property: Refractive index (Na D-line) (Liquid); method: Standard Abbe refractometry
Mass fraction of lithium chloride	Mass fraction of calcium chloride	Refractive index (Na D-line)	uncertainty
0.4094	0	1.42655	0.00136
0.3574	0.0752	1.43358	0.00397
0.3264	0.1217	1.43903	0.00397
0.3235	0.1218	1.43922	0.00464
0.3242	0.1233	1.43924	0.00415
0.3216	0.1249	1.43906	0.00398
0.2986	0.1486	1.43999	0.00265
0.2975	0.1521	1.43918	0.00151
0.2958	0.1534	1.44029	0.00263
0.293	0.1559	1.44034	0.00266
0.2883	0.1559	1.4404	0.00327
0.2762	0.1457	1.43723	0.00299
0.1625	0.2105	1.42755	0.00456
0.1609	0.2134	1.42756	0.00482
0.0992	0.2728	1.42918	0.00163
0.078	0.292	1.43152	0.00071
0.0648	0.3042	1.43207	0.00071
0.0554	0.3155	1.43283	0.00092
0.0461	0.3232	1.43323	0.00097
0	0.3744	1.43725	0.00262

System: lithium chloride + water; phases: Liquid, Crystal of intercomponent compound 1
Property: Mass fraction of lithium chloride (Liquid); method: Titration method
Temperature, K	Pressure, kPa	Mass fraction of lithium chloride	uncertainty
273.15	100	0.4094	

System: lithium chloride + water; phases: Liquid
Property: Mass density, kg/m3 (Liquid); method: Vibrating tube method
Mass fraction of lithium chloride	Temperature, K	Pressure, kPa	Mass density, kg/m3	uncertainty
0.4094	273.15	100	1262.8	4.9

System: lithium chloride + water; phases: Liquid
Property: Refractive index (Na D-line) (Liquid); method: Standard Abbe refractometry
Mass fraction of lithium chloride	Temperature, K	Pressure, kPa	Refractive index (Na D-line)	uncertainty
0.4094	273.15	100	1.42655	0.00136

System: calcium chloride + water; phases: Liquid, Crystal of intercomponent compound 3
Property: Mass fraction of calcium chloride (Liquid); method: Titration method
Temperature, K	Pressure, kPa	Mass fraction of calcium chloride	uncertainty
273.15	100	0.3744	0.0166

System: calcium chloride + water; phases: Liquid
Property: Mass density, kg/m3 (Liquid); method: Vibrating tube method
Mass fraction of calcium chloride	Temperature, K	Pressure, kPa	Mass density, kg/m3	uncertainty
0.3744	273.15	100	1373.5	15.2

System: calcium chloride + water; phases: Liquid
Property: Refractive index (Na D-line) (Liquid); method: Standard Abbe refractometry
Mass fraction of calcium chloride	Temperature, K	Pressure, kPa	Refractive index (Na D-line)	uncertainty
0.3744	273.15	100	1.43725	0.00262
