Measured thermophysical data. Solubility of Water in Aprotic Heterocyclic Anion (AHA) Ionic Liquids
Source: J. Chem. Eng. Data, 2019, 10.1021/acs.jced.9b00403
Compound 1: trihexyl(tetradecyl)phosphonium 1,2,4-triazolide, C34H70N3P, InChI=1S/C32H68P.C2H2N3/c1-5-9-13-17-18-19-20-21-22-23-24-28-32-33(29-25-14-10-6-2,30-26-15-11-7-3)31-27-16-12-8-4;1-3-2-5-4-1/h5-32H2,1-4H3;1-2H/q+1;-1, purity 98%
Compound 2: trihexyl(tetradecyl)phosphonium 1,2,3-triazolide, C34H70N3P, InChI=1S/C32H68P.C2H2N3/c1-5-9-13-17-18-19-20-21-22-23-24-28-32-33(29-25-14-10-6-2,30-26-15-11-7-3)31-27-16-12-8-4;1-2-4-5-3-1/h5-32H2,1-4H3;1-2H/q+1;-1, purity 98%
Compound 3: trihexyl(tetradecyl)phosphonium imidazolide, C35H71N2P, InChI=1S/C32H68P.C3H3N2/c1-5-9-13-17-18-19-20-21-22-23-24-28-32-33(29-25-14-10-6-2,30-26-15-11-7-3)31-27-16-12-8-4;1-2-5-3-4-1/h5-32H2,1-4H3;1-3H/q+1;-1, purity 98%
Compound 4: trihexyl(tetradecyl)phosphonium benzimidazolide, C39H73N2P, InChI=1S/C32H68P.C7H5N2/c1-5-9-13-17-18-19-20-21-22-23-24-28-32-33(29-25-14-10-6-2,30-26-15-11-7-3)31-27-16-12-8-4;1-2-4-7-6(3-1)8-5-9-7/h5-32H2,1-4H3;1-5H/q+1;-1, purity 98%
Compound 5: trihexyl(tetradecyl)phosphonium tetrazolide, C33H69N4P, InChI=1S/C32H68P.CHN4/c1-5-9-13-17-18-19-20-21-22-23-24-28-32-33(29-25-14-10-6-2,30-26-15-11-7-3)31-27-16-12-8-4;1-2-4-5-3-1/h5-32H2,1-4H3;1H/q+1;-1, purity 98%
Compound 6: trihexyl(tetradecyl)phosphonium 3-methyl-5-trifluoromethylpyrazolide, C37H72F3N2P, InChI=1S/C32H68P.C5H4F3N2/c1-5-9-13-17-18-19-20-21-22-23-24-28-32-33(29-25-14-10-6-2,30-26-15-11-7-3)31-27-16-12-8-4;1-3-2-4(10-9-3)5(6,7)8/h5-32H2,1-4H3;2H,1H3/q+1;-1, purity 98%
Compound 7: trihexyl(tetradecyl)phosphonium 5-bromobenzimidazolide, C39H72BrN2P, InChI=1S/C32H68P.C7H4BrN2/c1-5-9-13-17-18-19-20-21-22-23-24-28-32-33(29-25-14-10-6-2,30-26-15-11-7-3)31-27-16-12-8-4;8-5-1-2-6-7(3-5)10-4-9-6/h5-32H2,1-4H3;1-4H/q+1;-1, purity 98%
Compound 8: trihexyl(tetradecyl)phosphonium 4-nitropyrazolide, C35H70N3O2P, InChI=1S/C32H68P.C3H2N3O2/c1-5-9-13-17-18-19-20-21-22-23-24-28-32-33(29-25-14-10-6-2,30-26-15-11-7-3)31-27-16-12-8-4;7-6(8)3-1-4-5-2-3/h5-32H2,1-4H3;1-2H/q+1;-1, purity 98%
Compound 9: trihexyl(tetradecyl)phosphonium 3-trifluoromethylpyrazolide, C36H70F3N2P, InChI=1S/C32H68P.C4H2F3N2/c1-5-9-13-17-18-19-20-21-22-23-24-28-32-33(29-25-14-10-6-2,30-26-15-11-7-3)31-27-16-12-8-4;5-4(6,7)3-1-2-8-9-3/h5-32H2,1-4H3;1-2H/q+1;-1, purity 98%
Compound 10: trihexyl(tetradecyl)phosphonium 2-(methylthio)benzimidazolide, C40H75N2PS, InChI=1S/C32H68P.C8H7N2S/c1-5-9-13-17-18-19-20-21-22-23-24-28-32-33(29-25-14-10-6-2,30-26-15-11-7-3)31-27-16-12-8-4;1-11-8-9-6-4-2-3-5-7(6)10-8/h5-32H2,1-4H3;2-5H,1H3/q+1;-1, purity 98%
Compound 11: tributyl(octadecyl)phosphonium 2-cyanopyrrolide, C35H67N2P, InChI=1S/C30H64P.C5H3N2/c1-5-9-13-14-15-16-17-18-19-20-21-22-23-24-25-26-30-31(27-10-6-2,28-11-7-3)29-12-8-4;6-4-5-2-1-3-7-5/h5-30H2,1-4H3;1-3H/q+1;-1, purity 98%
Compound 12: trihexyl(tetradecyl)phosphonium bis[(trifluoromethyl)sulfonyl]imide, C34H68F6NO4PS2, InChI=1S/C32H68P.C2F6NO4S2/c1-5-9-13-17-18-19-20-21-22-23-24-28-32-33(29-25-14-10-6-2,30-26-15-11-7-3)31-27-16-12-8-4;3-1(4,5)14(10,11)9-15(12,13)2(6,7)8/h5-32H2,1-4H3;/q+1;-1, purity 98%
Compound 13: trihexyl(tetradecyl)phosphonium 2-cyanopyrrolide, C37H71N2P, InChI=1S/C32H68P.C5H3N2/c1-5-9-13-17-18-19-20-21-22-23-24-28-32-33(29-25-14-10-6-2,30-26-15-11-7-3)31-27-16-12-8-4;6-4-5-2-1-3-7-5/h5-32H2,1-4H3;1-3H/q+1;-1, purity 98%
Compound 14: triethyl(octyl)phosphonium 2-cyanopyrrolide, C19H35N2P, InChI=1S/C14H32P.C5H3N2/c1-5-9-10-11-12-13-14-15(6-2,7-3)8-4;6-4-5-2-1-3-7-5/h5-14H2,1-4H3;1-3H/q+1;-1, purity 98%
Compound 15: water, H2O, InChI=1S/H2O/h1H2, purity 99.9%
Compound 16: trihexyl(tetradecyl)phosphonium 5-cyanoindolide, C41H73N2P, InChI=1S/C32H68P.C9H5N2/c1-5-9-13-17-18-19-20-21-22-23-24-28-32-33(29-25-14-10-6-2,30-26-15-11-7-3)31-27-16-12-8-4;10-6-7-1-2-9-8(5-7)3-4-11-9/h5-32H2,1-4H3;1-5H/q+1;-1, purity 98%

System: triethyl(octyl)phosphonium 2-cyanopyrrolide + water; phases: Liquid mixture 1, Liquid mixture 2
Property: Mass fraction of water (Liquid mixture 1); method: Titration method
Temperature, K	Pressure, kPa	Mass fraction of water	uncertainty
295.15	98.8	0.8	0.004

System: tributyl(octadecyl)phosphonium 2-cyanopyrrolide + water; phases: Liquid mixture 1, Liquid mixture 2
Property: Mass fraction of water (Liquid mixture 1); method: Titration method
Temperature, K	Pressure, kPa	Mass fraction of water	uncertainty
295.15	98.8	0.064	0.002

System: trihexyl(tetradecyl)phosphonium 2-cyanopyrrolide + water; phases: Liquid mixture 1, Liquid mixture 2
Property: Mass fraction of water (Liquid mixture 1); method: Titration method
Temperature, K	Pressure, kPa	Mass fraction of water	uncertainty
295.15	98.8	0.054	0.002

System: trihexyl(tetradecyl)phosphonium 1,2,4-triazolide + water; phases: Liquid mixture 1, Liquid mixture 2
Property: Mass fraction of water (Liquid mixture 1); method: Titration method
Temperature, K	Pressure, kPa	Mass fraction of water	uncertainty
295.15	98.8	0.158	0.003

System: trihexyl(tetradecyl)phosphonium 1,2,3-triazolide + water; phases: Liquid mixture 1, Liquid mixture 2
Property: Mass fraction of water (Liquid mixture 1); method: Titration method
Temperature, K	Pressure, kPa	Mass fraction of water	uncertainty
295.15	98.8	0.13	0.003

System: trihexyl(tetradecyl)phosphonium imidazolide + water; phases: Liquid mixture 1, Liquid mixture 2
Property: Mass fraction of water (Liquid mixture 1); method: Titration method
Temperature, K	Pressure, kPa	Mass fraction of water	uncertainty
295.15	98.8	0.125	0.003

System: trihexyl(tetradecyl)phosphonium benzimidazolide + water; phases: Liquid mixture 1, Liquid mixture 2
Property: Mass fraction of water (Liquid mixture 1); method: Titration method
Temperature, K	Pressure, kPa	Mass fraction of water	uncertainty
295.15	98.8	0.102	0.003

System: trihexyl(tetradecyl)phosphonium tetrazolide + water; phases: Liquid mixture 1, Liquid mixture 2
Property: Mass fraction of water (Liquid mixture 1); method: Titration method
Temperature, K	Pressure, kPa	Mass fraction of water	uncertainty
295.15	98.8	0.099	0.003

System: trihexyl(tetradecyl)phosphonium 3-methyl-5-trifluoromethylpyrazolide + water; phases: Liquid mixture 1, Liquid mixture 2
Property: Mass fraction of water (Liquid mixture 1); method: Titration method
Temperature, K	Pressure, kPa	Mass fraction of water	uncertainty
295.15	98.8	0.078	0.002

System: trihexyl(tetradecyl)phosphonium 5-bromobenzimidazolide + water; phases: Liquid mixture 1, Liquid mixture 2
Property: Mass fraction of water (Liquid mixture 1); method: Titration method
Temperature, K	Pressure, kPa	Mass fraction of water	uncertainty
295.15	98.8	0.078	0.002

System: trihexyl(tetradecyl)phosphonium 4-nitropyrazolide + water; phases: Liquid mixture 1, Liquid mixture 2
Property: Mass fraction of water (Liquid mixture 1); method: Titration method
Temperature, K	Pressure, kPa	Mass fraction of water	uncertainty
295.15	98.8	0.074	0.002

System: trihexyl(tetradecyl)phosphonium 3-trifluoromethylpyrazolide + water; phases: Liquid mixture 1, Liquid mixture 2
Property: Mass fraction of water (Liquid mixture 1); method: Titration method
Temperature, K	Pressure, kPa	Mass fraction of water	uncertainty
295.15	98.8	0.073	0.002

System: trihexyl(tetradecyl)phosphonium 2-(methylthio)benzimidazolide + water; phases: Liquid mixture 1, Liquid mixture 2
Property: Mass fraction of water (Liquid mixture 1); method: Titration method
Temperature, K	Pressure, kPa	Mass fraction of water	uncertainty
295.15	98.8	0.065	0.002

System: trihexyl(tetradecyl)phosphonium 5-cyanoindolide + water; phases: Liquid mixture 1, Liquid mixture 2
Property: Mass fraction of water (Liquid mixture 1); method: Titration method
Temperature, K	Pressure, kPa	Mass fraction of water	uncertainty
295.15	98.8	0.055	0.002

System: trihexyl(tetradecyl)phosphonium bis[(trifluoromethyl)sulfonyl]imide + water; phases: Liquid mixture 1, Liquid mixture 2
Property: Mass fraction of water (Liquid mixture 1); method: Titration method
Temperature, K	Pressure, kPa	Mass fraction of water	uncertainty
295.15	98.8	0.002	0.002
