Measured thermophysical data. Viscosity of Ionic Liquid-Ionic Liquid Mixtures
Source: J. Chem. Eng. Data, 2017, 10.1021/acs.jced.7b00221
Compound 1: trihexyl(tetradecyl)phosphonium 1,2,3-triazolide, C34H70N3P, InChI=1S/C32H68P.C2H2N3/c1-5-9-13-17-18-19-20-21-22-23-24-28-32-33(29-25-14-10-6-2,30-26-15-11-7-3)31-27-16-12-8-4;1-2-4-5-3-1/h5-32H2,1-4H3;1-2H/q+1;-1
Compound 2: trihexyl(tetradecyl)phosphonium 4-nitropyrazolide, C35H70N3O2P, InChI=1S/C32H68P.C3H2N3O2/c1-5-9-13-17-18-19-20-21-22-23-24-28-32-33(29-25-14-10-6-2,30-26-15-11-7-3)31-27-16-12-8-4;7-6(8)3-1-4-5-2-3/h5-32H2,1-4H3;1-2H/q+1;-1
Compound 3: trihexyl(tetradecyl)phosphonium tetrazolide, C33H69N4P, InChI=1S/C32H68P.CHN4/c1-5-9-13-17-18-19-20-21-22-23-24-28-32-33(29-25-14-10-6-2,30-26-15-11-7-3)31-27-16-12-8-4;1-2-4-5-3-1/h5-32H2,1-4H3;1H/q+1;-1
Compound 4: trihexyl(tetradecyl)phosphonium bis[(trifluoromethyl)sulfonyl]imide, C34H68F6NO4PS2, InChI=1S/C32H68P.C2F6NO4S2/c1-5-9-13-17-18-19-20-21-22-23-24-28-32-33(29-25-14-10-6-2,30-26-15-11-7-3)31-27-16-12-8-4;3-1(4,5)14(10,11)9-15(12,13)2(6,7)8/h5-32H2,1-4H3;/q+1;-1
Compound 5: triethylheptylphosphonium 4-nitropyrazolide, C16H32N3O2P, InChI=1S/C13H30P.C3H2N3O2/c1-5-9-10-11-12-13-14(6-2,7-3)8-4;7-6(8)3-1-4-5-2-3/h5-13H2,1-4H3;1-2H/q+1;-1
Compound 6: triethyloctylphosphonium 4-nitropyrazolide, C17H34N3O2P, InChI=1S/C14H32P.C3H2N3O2/c1-5-9-10-11-12-13-14-15(6-2,7-3)8-4;7-6(8)3-1-4-5-2-3/h5-14H2,1-4H3;1-2H/q+1;-1
Compound 7: decyltriethylphosphonium 4-nitropyrazolide, C19H38N3O2P, InChI=1S/C16H36P.C3H2N3O2/c1-5-9-10-11-12-13-14-15-16-17(6-2,7-3)8-4;7-6(8)3-1-4-5-2-3/h5-16H2,1-4H3;1-2H/q+1;-1
Compound 8: triethyloctylphosphonium bis(trifluoromethylsulfonyl)imide, C16H32F6NO4PS2, InChI=1S/C14H32P.C2F6NO4S2/c1-5-9-10-11-12-13-14-15(6-2,7-3)8-4;3-1(4,5)14(10,11)9-15(12,13)2(6,7)8/h5-14H2,1-4H3;/q+1;-1
Compound 9: triethyl((2-methoxyethoxy)methyl)phosphonium 1,2,3-triazolide, C12H26N3O2P, InChI=1S/C10H24O2P.C2H2N3/c1-5-13(6-2,7-3)10-12-9-8-11-4;1-2-4-5-3-1/h5-10H2,1-4H3;1-2H/q+1;-1
Compound 10: S-hexyl-1,1,3,3-tetramethylthiouronium bis(trifluoromethylsulfonyl)imide, C13H25F6N3O4S3, InChI=1S/C11H25N2S.C2F6NO4S2/c1-6-7-8-9-10-14-11(12(2)3)13(4)5;3-1(4,5)14(10,11)9-15(12,13)2(6,7)8/h6-10H2,1-5H3;/q+1;-1
Compound 11: 1-butyl-2-methylpyrazolium bis(trifluoromethylsulfonyl)imide, C10H15F6N3O4S2, InChI=1S/C8H15N2.C2F6NO4S2/c1-3-4-7-10-8-5-6-9(10)2;3-1(4,5)14(10,11)9-15(12,13)2(6,7)8/h5-6,8H,3-4,7H2,1-2H3;/q+1;-1
Compound 12: 1-hexyl-3-methylimidazolium bis[(trifluoromethyl)sulfonyl]imide, C12H19F6N3O4S2, InChI=1S/C10H19N2.C2F6NO4S2/c1-3-4-5-6-7-12-9-8-11(2)10-12;3-1(4,5)14(10,11)9-15(12,13)2(6,7)8/h8-10H,3-7H2,1-2H3;/q+1;-1
Compound 13: 1-hexyl-3-methylimidazolium 4-nitropyrazolide, C13H21N5O2, InChI=1S/C10H19N2.C3H2N3O2/c1-3-4-5-6-7-12-9-8-11(2)10-12;7-6(8)3-1-4-5-2-3/h8-10H,3-7H2,1-2H3;1-2H/q+1;-1
Compound 14: 1-hexyl-2,3-dimethylimidazolium 4-nitropyrazolide, C14H23N5O2, InChI=1S/C11H21N2.C3H2N3O2/c1-4-5-6-7-8-13-10-9-12(3)11(13)2;7-6(8)3-1-4-5-2-3/h9-10H,4-8H2,1-3H3;1-2H/q+1;-1
Compound 15: 1-hexyl-3-methylimidazolium tetrazolide, C11H20N6, InChI=1S/C10H19N2.CHN4/c1-3-4-5-6-7-12-9-8-11(2)10-12;1-2-4-5-3-1/h8-10H,3-7H2,1-2H3;1H/q+1;-1
Compound 16: 1-hexyl-3-methylimidazolium 2-cyanopyrrolide, C15H22N4, InChI=1S/C10H19N2.C5H3N2/c1-3-4-5-6-7-12-9-8-11(2)10-12;6-4-5-2-1-3-7-5/h8-10H,3-7H2,1-2H3;1-3H/q+1;-1
Compound 17: trihexyl(tetradecyl)phosphonium acetate, C34H71O2P, InChI=1S/C32H68P.C2H4O2/c1-5-9-13-17-18-19-20-21-22-23-24-28-32-33(29-25-14-10-6-2,30-26-15-11-7-3)31-27-16-12-8-4;1-2(3)4/h5-32H2,1-4H3;1H3,(H,3,4)/q+1;/p-1
Compound 18: triethyl((2-methoxyethoxy)methyl)phosphonium bis(trifluoromethylsulfonyl)imide, C12H24F6NO6PS2, InChI=1S/C10H24O2P.C2F6NO4S2/c1-5-13(6-2,7-3)10-12-9-8-11-4;3-1(4,5)14(10,11)9-15(12,13)2(6,7)8/h5-10H2,1-4H3;/q+1;-1
Compound 19: trihexyl(tetradecyl)phosphonium 1,2,4-triazolide, C34H70N3P, InChI=1S/C32H68P.C2H2N3/c1-5-9-13-17-18-19-20-21-22-23-24-28-32-33(29-25-14-10-6-2,30-26-15-11-7-3)31-27-16-12-8-4;1-3-2-5-4-1/h5-32H2,1-4H3;1-2H/q+1;-1
Compound 20: 1-hexyl-2,3-dimethylimidazolium bis[(trifluoromethyl)sulfonyl]imide, C13H21F6N3O4S2, InChI=1S/C11H21N2.C2F6NO4S2/c1-4-5-6-7-8-13-10-9-12(3)11(13)2;3-1(4,5)14(10,11)9-15(12,13)2(6,7)8/h9-10H,4-8H2,1-3H3;/q+1;-1
Compound 21: 1-butyl-3-methylimidazolium bis(trifluoromethylsulfonyl)imide, C10H15F6N3O4S2, InChI=1S/C8H15N2.C2F6NO4S2/c1-3-4-5-10-7-6-9(2)8-10;3-1(4,5)14(10,11)9-15(12,13)2(6,7)8/h6-8H,3-5H2,1-2H3;/q+1;-1
Compound 22: 1-ethyl-3-methylimidazolium bis((trifluoromethyl)sulfonyl)imide, C8H11F6N3O4S2, InChI=1S/C6H11N2.C2F6NO4S2/c1-3-8-5-4-7(2)6-8;3-1(4,5)14(10,11)9-15(12,13)2(6,7)8/h4-6H,3H2,1-2H3;/q+1;-1
Compound 23: trihexyl(tetradecyl)phosphonium 2-cyanopyrrolide, C37H71N2P, InChI=1S/C32H68P.C5H3N2/c1-5-9-13-17-18-19-20-21-22-23-24-28-32-33(29-25-14-10-6-2,30-26-15-11-7-3)31-27-16-12-8-4;6-4-5-2-1-3-7-5/h5-32H2,1-4H3;1-3H/q+1;-1
Compound 24: carbon dioxide, CO2, InChI=1S/CO2/c2-1-3, purity 99.9%

System: trihexyl(tetradecyl)phosphonium 1,2,3-triazolide; phases: Liquid
Fixed: Pressure, kPa = 100
Property: Mass density, kg/m3 (Liquid); method: Vibrating tube method
Temperature, K	Mass density, kg/m3	uncertainty
283.15	906.6	4
288.15	903.5	4
293.15	900.4	4
295.15	899.2	4
298.15	897.4	4
303.15	894.4	4
308.15	891.4	4
313.15	888.4	4
318.15	885.5	4
323.15	882.6	4
328.15	879.6	4
333.15	876.7	4
338.15	873.7	4
343.15	870.8	4
348.15	867.8	4
353.15	864.9	4

System: triethyloctylphosphonium 4-nitropyrazolide; phases: Liquid
Fixed: Pressure, kPa = 100
Property: Mass density, kg/m3 (Liquid); method: Vibrating tube method
Temperature, K	Mass density, kg/m3	uncertainty
283.15	1040.7	12
288.15	1037.7	12
293.15	1034.6	12
295.15	1033.4	12
298.15	1031.5	12
303.15	1028.5	12
308.15	1025.5	12
313.15	1022.6	12
318.15	1019.6	12
323.15	1016.7	12
328.15	1013.8	12
333.15	1010.8	12
338.15	1007.9	12
343.15	1005	12
348.15	1002.1	12
353.15	999.2	12

System: 1-hexyl-3-methylimidazolium bis[(trifluoromethyl)sulfonyl]imide; phases: Liquid
Fixed: Pressure, kPa = 100
Property: Mass density, kg/m3 (Liquid); method: Vibrating tube method
Temperature, K	Mass density, kg/m3	uncertainty
283.15	1385.6	4
288.15	1381	4
293.15	1376.5	4
295.15	1374.6	4
298.15	1371.9	4
303.15	1367.3	4
308.15	1362.8	4
313.15	1358.3	4
318.15	1353.7	4
323.15	1349.2	4
328.15	1344.7	4
333.15	1340.3	4
338.15	1335.8	4
343.15	1331.4	4
348.15	1326.9	4
353.15	1322.5	4

System: 1-hexyl-3-methylimidazolium 2-cyanopyrrolide; phases: Liquid
Fixed: Pressure, kPa = 100
Property: Viscosity, Pa*s (Liquid); method: Cone and plate viscometry
Temperature, K	Viscosity, Pa*s	uncertainty
278.15	1.54	0.213
283.15	0.902	0.121
288.15	0.553	0.072
293.15	0.355	0.045
298.15	0.239	0.03
303.15	0.167	0.021
308.15	0.122	0.015
313.15	0.091	0.011
318.15	0.07	0.009
323.15	0.055	0.007

System: triethyl((2-methoxyethoxy)methyl)phosphonium bis(trifluoromethylsulfonyl)imide; phases: Liquid
Fixed: Pressure, kPa = 100
Property: Viscosity, Pa*s (Liquid); method: Cone and plate viscometry
Temperature, K	Viscosity, Pa*s	uncertainty
278.15	0.084	0.01
283.15	0.065	0.008
288.15	0.051	0.006

System: 1-hexyl-2,3-dimethylimidazolium bis[(trifluoromethyl)sulfonyl]imide; phases: Liquid
Fixed: Pressure, kPa = 100
Property: Mass density, kg/m3 (Liquid); method: Vibrating tube method
Temperature, K	Mass density, kg/m3	uncertainty
283.15	1373	12
288.15	1368.4	12
293.15	1363.9	12
295.15	1362.1	12
298.15	1359.5	12
303.15	1355.1	12
308.15	1350.8	12
313.15	1346.4	12
318.15	1342	12
323.15	1337.6	12
328.15	1333.2	12
333.15	1328.9	12
338.15	1324.5	12
343.15	1320.2	12
348.15	1315.8	12
353.15	1311.5	12

System: 1-butyl-3-methylimidazolium bis(trifluoromethylsulfonyl)imide; phases: Liquid
Fixed: Pressure, kPa = 100
Property: Viscosity, Pa*s (Liquid); method: Cone and plate viscometry
Temperature, K	Viscosity, Pa*s	uncertainty
278.15	0.138	0.017
283.15	0.104	0.013
288.15	0.08	0.01
293.15	0.063	0.008
298.15	0.051	0.006

System: 1-butyl-3-methylimidazolium bis(trifluoromethylsulfonyl)imide; phases: Liquid
Fixed: Pressure, kPa = 100
Property: Mass density, kg/m3 (Liquid); method: Vibrating tube method
Temperature, K	Mass density, kg/m3	uncertainty
283.15	1451.1	4
288.15	1446.3	4
293.15	1441.5	4
295.15	1439.6	4
298.15	1436.8	4
303.15	1432	4
308.15	1427.3	4
313.15	1422.7	4
318.15	1418	4
323.15	1413.3	4
328.15	1408.7	4
333.15	1404.1	4
338.15	1399.4	4
343.15	1394.8	4
348.15	1390.2	4
353.15	1385.7	4

System: 1-ethyl-3-methylimidazolium bis((trifluoromethyl)sulfonyl)imide; phases: Liquid
Fixed: Pressure, kPa = 100
Property: Viscosity, Pa*s (Liquid); method: Cone and plate viscometry
Temperature, K	Viscosity, Pa*s	uncertainty
278.15	0.08	0.01
283.15	0.063	0.008
288.15	0.05	0.006

System: 1-ethyl-3-methylimidazolium bis((trifluoromethyl)sulfonyl)imide; phases: Liquid
Fixed: Pressure, kPa = 100
Property: Mass density, kg/m3 (Liquid); method: Vibrating tube method
Temperature, K	Mass density, kg/m3	uncertainty
283.15	1534.1	4.1
288.15	1529	4.1
293.15	1523.9	4.1
295.15	1521.9	4.1
298.15	1518.9	4
303.15	1513.9	4
308.15	1508.9	4
313.15	1503.9	4
318.15	1499	4
323.15	1494.1	4
328.15	1489.1	4
333.15	1484.2	4
338.15	1479.3	4
343.15	1474.4	4
348.15	1469.6	4
353.15	1464.7	4

System: trihexyl(tetradecyl)phosphonium 2-cyanopyrrolide; phases: Liquid
Fixed: Pressure, kPa = 100
Property: Viscosity, Pa*s (Liquid); method: Cone and plate viscometry
Temperature, K	Viscosity, Pa*s	uncertainty
278.15	1.764	0.243
283.15	1.179	0.159
288.15	0.804	0.106
293.15	0.563	0.073
298.15	0.404	0.051
303.15	0.297	0.037
308.15	0.223	0.028
313.15	0.17	0.021
318.15	0.133	0.016
323.15	0.106	0.013

System: 1-hexyl-3-methylimidazolium bis[(trifluoromethyl)sulfonyl]imide + trihexyl(tetradecyl)phosphonium acetate; phases: Liquid
Fixed: Pressure, kPa = 100
Property: Viscosity, Pa*s (Liquid); method: Cone and plate viscometry
Mole fraction of trihexyl(tetradecyl)phosphonium acetate	Temperature, K	Viscosity, Pa*s	uncertainty
0.899	278.15	2.415	0.339
0.799	278.15	2.877	0.408
0.699	278.15	2.721	0.385
0.6	278.15	2.588	0.365
0.499	278.15	2.057	0.286
0.4	278.15	1.403	0.191
0.3	278.15	0.946	0.126
0.199	278.15	0.579	0.075
0.101	278.15	0.353	0.045
0.899	283.15	1.575	0.216
0.799	283.15	1.85	0.256
0.699	283.15	1.763	0.243
0.6	283.15	1.669	0.23
0.499	283.15	1.345	0.183
0.4	283.15	0.939	0.125
0.3	283.15	0.644	0.084
0.199	283.15	0.404	0.051
0.101	283.15	0.251	0.031
0.899	288.15	1.047	0.14
0.799	288.15	1.219	0.164
0.699	288.15	1.16	0.156
0.6	288.15	1.1	0.147
0.499	288.15	0.901	0.119
0.4	288.15	0.64	0.083
0.3	288.15	0.447	0.057
0.199	288.15	0.286	0.036
0.101	288.15	0.182	0.022
0.899	293.15	0.717	0.094
0.799	293.15	0.827	0.109
0.699	293.15	0.785	0.103
0.6	293.15	0.746	0.098
0.499	293.15	0.621	0.081
0.4	293.15	0.449	0.057
0.3	293.15	0.319	0.04
0.199	293.15	0.209	0.026
0.101	293.15	0.136	0.017
0.899	298.15	0.505	0.065
0.799	298.15	0.578	0.075
0.699	298.15	0.53	0.068
0.6	298.15	0.523	0.067
0.499	298.15	0.44	0.056
0.4	298.15	0.324	0.041
0.3	298.15	0.235	0.029
0.199	298.15	0.156	0.019
0.101	298.15	0.105	0.013
0.899	303.15	0.366	0.046
0.799	303.15	0.414	0.053
0.699	303.15	0.381	0.048
0.6	303.15	0.376	0.048
0.499	303.15	0.32	0.04
0.4	303.15	0.239	0.03
0.3	303.15	0.177	0.022
0.199	303.15	0.12	0.015
0.101	303.15	0.082	0.01
0.899	308.15	0.271	0.034
0.799	308.15	0.304	0.038
0.699	308.15	0.279	0.035
0.6	308.15	0.277	0.035
0.499	308.15	0.238	0.03
0.4	308.15	0.181	0.022
0.3	308.15	0.136	0.017
0.199	308.15	0.094	0.011
0.101	308.15	0.066	0.008
0.899	313.15	0.204	0.025
0.799	313.15	0.228	0.028
0.699	313.15	0.208	0.026
0.6	313.15	0.207	0.026
0.499	313.15	0.181	0.022
0.4	313.15	0.14	0.017
0.3	313.15	0.107	0.013
0.199	313.15	0.075	0.009
0.101	313.15	0.053	0.006
0.899	318.15	0.158	0.019
0.799	318.15	0.175	0.021
0.699	318.15	0.159	0.019
0.6	318.15	0.159	0.019
0.499	318.15	0.141	0.017
0.4	318.15	0.11	0.013
0.3	318.15	0.085	0.01
0.199	318.15	0.061	0.007
0.899	323.15	0.123	0.015
0.799	323.15	0.137	0.017
0.699	323.15	0.125	0.015
0.6	323.15	0.124	0.015
0.499	323.15	0.112	0.014
0.4	323.15	0.088	0.011
0.3	323.15	0.07	0.008

System: 1-butyl-3-methylimidazolium bis(trifluoromethylsulfonyl)imide + trihexyl(tetradecyl)phosphonium 1,2,3-triazolide; phases: Liquid
Fixed: Pressure, kPa = 100
Property: Viscosity, Pa*s (Liquid); method: Cone and plate viscometry
Mole fraction of trihexyl(tetradecyl)phosphonium 1,2,3-triazolide	Temperature, K	Viscosity, Pa*s	uncertainty
0.9	278.15	2.285	0.32
0.8	278.15	2.422	0.34
0.699	278.15	2.219	0.31
0.612	278.15	1.952	0.27
0.278	278.15	0.706	0.092
0.2	278.15	0.432	0.055
0.1	278.15	0.242	0.03
0	278.15	0.138	0.017
0.9	283.15	1.49	0.203
0.8	283.15	1.582	0.217
0.699	283.15	1.448	0.197
0.612	283.15	1.291	0.175
0.278	283.15	0.481	0.062
0.2	283.15	0.302	0.038
0.1	283.15	0.175	0.022
0	283.15	0.104	0.013
0.9	288.15	0.994	0.132
0.8	288.15	1.055	0.141
0.699	288.15	0.967	0.129
0.612	288.15	0.87	0.115
0.278	288.15	0.336	0.042
0.2	288.15	0.219	0.027
0.1	288.15	0.13	0.016
0	288.15	0.08	0.01
0.9	293.15	0.685	0.089
0.8	293.15	0.723	0.094
0.699	293.15	0.663	0.086
0.612	293.15	0.602	0.078
0.278	293.15	0.242	0.03
0.2	293.15	0.164	0.02
0.1	293.15	0.098	0.012
0	293.15	0.063	0.008
0.9	298.15	0.486	0.062
0.8	298.15	0.507	0.065
0.699	298.15	0.468	0.06
0.612	298.15	0.428	0.054
0.278	298.15	0.178	0.022
0.2	298.15	0.123	0.015
0.1	298.15	0.077	0.009
0	298.15	0.051	0.006
0.9	303.15	0.353	0.044
0.8	303.15	0.368	0.046
0.699	303.15	0.339	0.043
0.612	303.15	0.311	0.039
0.278	303.15	0.135	0.017
0.2	303.15	0.096	0.012
0.1	303.15	0.061	0.007
0.9	308.15	0.263	0.033
0.8	308.15	0.273	0.034
0.699	308.15	0.252	0.031
0.612	308.15	0.231	0.029
0.278	308.15	0.107	0.013
0.2	308.15	0.076	0.009
0.1	308.15	0.049	0.006
0.9	313.15	0.199	0.025
0.8	313.15	0.205	0.025
0.699	313.15	0.19	0.023
0.612	313.15	0.174	0.021
0.278	313.15	0.084	0.01
0.2	313.15	0.062	0.008
0.9	318.15	0.154	0.019
0.8	318.15	0.158	0.019
0.699	318.15	0.147	0.018
0.612	318.15	0.135	0.016
0.278	318.15	0.068	0.008
0.2	318.15	0.05	0.006
0.9	323.15	0.123	0.015
0.8	323.15	0.125	0.015
0.699	323.15	0.115	0.014
0.612	323.15	0.107	0.013
0.278	323.15	0.056	0.007

System: 1-butyl-3-methylimidazolium bis(trifluoromethylsulfonyl)imide + trihexyl(tetradecyl)phosphonium 1,2,3-triazolide; phases: Liquid
Fixed: Pressure, kPa = 100
Property: Mass density, kg/m3 (Liquid); method: Vibrating tube method
Temperature, K	Mole fraction of trihexyl(tetradecyl)phosphonium 1,2,3-triazolide	Mass density, kg/m3	uncertainty
283.15	0.1	1345.8	4.3
288.15	0.1	1341.4	4.3
293.15	0.1	1337	4.3
295.15	0.1	1335.2	4.3
298.15	0.1	1332.6	4.3
303.15	0.1	1328.3	4.3
308.15	0.1	1323.9	4.3
313.15	0.1	1319.5	4.3
318.15	0.1	1315.2	4.3
323.15	0.1	1310.9	4.3
328.15	0.1	1306.5	4.3
333.15	0.1	1302.2	4.3
338.15	0.1	1297.9	4.3
343.15	0.1	1293.6	4.3
348.15	0.1	1289.3	4.3
353.15	0.1	1285.1	4.3
283.15	0.278	1205.4	4.2
288.15	0.278	1201.3	4.2
293.15	0.278	1197.3	4.2
295.15	0.278	1195.7	4.2
298.15	0.278	1193.3	4.2
303.15	0.278	1189.4	4.2
308.15	0.278	1185.6	4.2
313.15	0.278	1181.7	4.2
318.15	0.278	1177.8	4.2
323.15	0.278	1173.9	4.2
328.15	0.278	1170.1	4.2
333.15	0.278	1166.2	4.2
338.15	0.278	1162.4	4.2
343.15	0.278	1158.5	4.2
348.15	0.278	1154.7	4.2
353.15	0.278	1150.9	4.2
283.15	0.612	1031.7	4.1
288.15	0.612	1028.3	4.1
293.15	0.612	1025	4.1
295.15	0.612	1023.6	4.1
298.15	0.612	1021.6	4.1
303.15	0.612	1018.2	4.1
308.15	0.612	1014.9	4.1
313.15	0.612	1011.6	4.1
318.15	0.612	1008.3	4.1
323.15	0.612	1005	4.1
328.15	0.612	1001.8	4.1
333.15	0.612	998.5	4.1
338.15	0.612	995.2	4.1
343.15	0.612	991.9	4.1
348.15	0.612	988.6	4.1
353.15	0.612	985.4	4.1
283.15	0.699	998.4	4.1
288.15	0.699	994.9	4.1
293.15	0.699	991.7	4.1
295.15	0.699	990.4	4.1
298.15	0.699	988.4	4.1
303.15	0.699	985.1	4.1
308.15	0.699	981.9	4.1
313.15	0.699	978.6	4.1
318.15	0.699	975.5	4.1
323.15	0.699	972.3	4.1
328.15	0.699	969.2	4.1
333.15	0.699	966	4.1
338.15	0.699	962.8	4.1
343.15	0.699	959.6	4.1
348.15	0.699	956.4	4.1
353.15	0.699	953.3	4.1
283.15	0.8	964.6	4.1
288.15	0.8	961.2	4.1
293.15	0.8	958.1	4.1
295.15	0.8	956.8	4.1
298.15	0.8	954.9	4.1
303.15	0.8	951.7	4.1
308.15	0.8	948.6	4.1
313.15	0.8	945.4	4.1
318.15	0.8	942.3	4.1
323.15	0.8	939.3	4.1
328.15	0.8	936.2	4.1
333.15	0.8	933.1	4.1
338.15	0.8	930	4.1
343.15	0.8	927	4.1
348.15	0.8	923.9	4.1
353.15	0.8	920.9	4.1
283.15	0.9	934.1	4.1
288.15	0.9	930.8	4.1
293.15	0.9	927.7	4.1
295.15	0.9	926.5	4.1
298.15	0.9	924.6	4.1
303.15	0.9	921.6	4.1
308.15	0.9	918.5	4.1
313.15	0.9	915.4	4.1
318.15	0.9	912.4	4.1
323.15	0.9	909.4	4.1
328.15	0.9	906.4	4
333.15	0.9	903.4	4
338.15	0.9	900.4	4
343.15	0.9	897.4	4
348.15	0.9	894.4	4
353.15	0.9	891.4	4

System: 1-hexyl-3-methylimidazolium bis[(trifluoromethyl)sulfonyl]imide + trihexyl(tetradecyl)phosphonium 1,2,3-triazolide; phases: Liquid
Fixed: Pressure, kPa = 100
Property: Viscosity, Pa*s (Liquid); method: Cone and plate viscometry
Mole fraction of trihexyl(tetradecyl)phosphonium 1,2,3-triazolide	Temperature, K	Viscosity, Pa*s	uncertainty
0.865	278.15	2.499	0.352
0.7	278.15	2.448	0.343
0.652	278.15	2.031	0.283
0.55	278.15	1.597	0.219
0.42	278.15	1.211	0.163
0.302	278.15	0.755	0.099
0.151	278.15	0.417	0.053
0.865	283.15	1.63	0.224
0.7	283.15	1.593	0.218
0.652	283.15	1.329	0.18
0.55	283.15	1.057	0.141
0.42	283.15	0.819	0.108
0.302	283.15	0.522	0.067
0.151	283.15	0.295	0.037
0.865	288.15	1.087	0.145
0.7	288.15	1.061	0.142
0.652	288.15	0.891	0.118
0.55	288.15	0.717	0.094
0.42	288.15	0.567	0.073
0.302	288.15	0.369	0.047
0.151	288.15	0.214	0.027
0.865	293.15	0.744	0.097
0.7	293.15	0.725	0.095
0.652	293.15	0.614	0.08
0.55	293.15	0.498	0.064
0.42	293.15	0.402	0.051
0.302	293.15	0.268	0.033
0.151	293.15	0.159	0.02
0.865	298.15	0.527	0.068
0.7	298.15	0.511	0.066
0.652	298.15	0.437	0.056
0.55	298.15	0.358	0.045
0.42	298.15	0.294	0.037
0.302	298.15	0.2	0.025
0.151	298.15	0.122	0.015
0.865	303.15	0.382	0.048
0.7	303.15	0.369	0.047
0.652	303.15	0.317	0.04
0.55	303.15	0.262	0.033
0.42	303.15	0.219	0.027
0.302	303.15	0.152	0.019
0.151	303.15	0.096	0.012
0.865	308.15	0.284	0.035
0.7	308.15	0.274	0.034
0.652	308.15	0.236	0.029
0.55	308.15	0.197	0.024
0.42	308.15	0.168	0.021
0.302	308.15	0.119	0.014
0.151	308.15	0.077	0.009
0.865	313.15	0.215	0.027
0.7	313.15	0.206	0.025
0.652	313.15	0.18	0.022
0.55	313.15	0.151	0.018
0.42	313.15	0.131	0.016
0.302	313.15	0.094	0.011
0.151	313.15	0.062	0.007
0.865	318.15	0.166	0.02
0.7	318.15	0.159	0.019
0.652	318.15	0.139	0.017
0.55	318.15	0.118	0.014
0.42	318.15	0.104	0.013
0.302	318.15	0.076	0.009
0.151	318.15	0.051	0.006
0.865	323.15	0.131	0.016
0.7	323.15	0.125	0.015
0.652	323.15	0.109	0.013
0.55	323.15	0.094	0.011
0.42	323.15	0.084	0.01
0.302	323.15	0.062	0.008

System: 1-hexyl-3-methylimidazolium bis[(trifluoromethyl)sulfonyl]imide + trihexyl(tetradecyl)phosphonium 1,2,3-triazolide; phases: Liquid
Fixed: Pressure, kPa = 100
Property: Mass density, kg/m3 (Liquid); method: Vibrating tube method
Temperature, K	Mole fraction of trihexyl(tetradecyl)phosphonium 1,2,3-triazolide	Mass density, kg/m3	uncertainty
283.15	0	1386.6	4
288.15	0	1382.1	4
293.15	0	1377.5	4
295.15	0	1375.7	4
298.15	0	1372.9	4
303.15	0	1368.4	4
308.15	0	1363.8	4
313.15	0	1359.3	4
318.15	0	1354.8	4
323.15	0	1350.3	4
328.15	0	1345.8	4
333.15	0	1341.3	4
338.15	0	1336.8	4
343.15	0	1332.4	4
348.15	0	1327.9	4
353.15	0	1323.5	4
283.15	0.15	1264.9	4.3
288.15	0.15	1260.6	4.3
293.15	0.15	1256.4	4.3
295.15	0.15	1254.8	4.3
298.15	0.15	1252.3	4.3
303.15	0.15	1248.2	4.3
308.15	0.15	1244.1	4.3
313.15	0.15	1240	4.3
318.15	0.15	1235.9	4.3
323.15	0.15	1231.9	4.3
328.15	0.15	1227.8	4.3
333.15	0.15	1223.7	4.3
338.15	0.15	1219.7	4.3
343.15	0.15	1215.6	4.2
348.15	0.15	1211.6	4.2
353.15	0.15	1207.6	4.2
283.15	0.3	1170.2	4.2
288.15	0.3	1166.3	4.2
293.15	0.3	1162.5	4.2
295.15	0.3	1160.9	4.2
298.15	0.3	1158.6	4.2
303.15	0.3	1154.8	4.2
308.15	0.3	1151.1	4.2
313.15	0.3	1147.3	4.2
318.15	0.3	1143.6	4.2
323.15	0.3	1139.8	4.2
328.15	0.3	1136.1	4.2
333.15	0.3	1132.4	4.1
338.15	0.3	1128.7	4.1
343.15	0.3	1125	4.1
348.15	0.3	1121.3	4.1
353.15	0.3	1117.6	4.1
283.15	0.496	1073.2	4.1
288.15	0.496	1069.7	4.1
293.15	0.496	1066.2	4.1
295.15	0.496	1064.8	4.1
298.15	0.496	1062.6	4.1
303.15	0.496	1059.1	4.1
308.15	0.496	1055.6	4.1
313.15	0.496	1052.2	4.1
318.15	0.496	1048.8	4.1
323.15	0.496	1045.5	4.1
328.15	0.496	1042.1	4.1
333.15	0.496	1038.7	4.1
338.15	0.496	1035.3	4.1
343.15	0.496	1031.9	4.1
348.15	0.496	1028.5	4.1
353.15	0.496	1025.1	4.1
283.15	0.7	994.8	4.1
288.15	0.7	991.3	4.1
293.15	0.7	988.1	4.1
295.15	0.7	986.8	4.1
298.15	0.7	984.8	4.1
303.15	0.7	981.6	4.1
308.15	0.7	978.4	4.1
313.15	0.7	975.2	4.1
318.15	0.7	972	4.1
323.15	0.7	968.8	4.1
328.15	0.7	965.7	4.1
333.15	0.7	962.5	4.1
283.15	0.847	948.8	4
288.15	0.847	945.3	4
293.15	0.847	942.2	4
295.15	0.847	940.8	4
298.15	0.847	938.9	4
303.15	0.847	935.8	4
308.15	0.847	932.7	4
313.15	0.847	929.6	4
318.15	0.847	926.5	4
323.15	0.847	923.6	4
283.15	1	907.5	4
288.15	1	904.2	4
293.15	1	901.2	4
295.15	1	900	4
298.15	1	898.2	4
303.15	1	895.2	4
308.15	1	892.2	4
313.15	1	889.2	4
318.15	1	886.3	4
323.15	1	883.4	4
328.15	1	880.4	4
333.15	1	877.5	4
338.15	1	874.6	4
343.15	1	871.7	4
348.15	1	868.7	4
353.15	1	865.8	4

System: carbon dioxide + 1-hexyl-3-methylimidazolium bis[(trifluoromethyl)sulfonyl]imide + trihexyl(tetradecyl)phosphonium 1,2,3-triazolide; phases: Liquid, Gas
Fixed: Pressure, kPa = 100
Property: Viscosity, Pa*s (Liquid); method: Cone and plate viscometry
Temperature, K	Solvent: Mole fraction of trihexyl(tetradecyl)phosphonium 1,2,3-triazolide	Viscosity, Pa*s	uncertainty
278.15	1	2.286	0.32
278.15	0.85	2.694	0.38
278.15	0.699	2.214	0.309
278.15	0.6	1.93	0.267
278.15	0.498	1.435	0.195
278.15	0.401	1.039	0.139
278.15	0.301	0.738	0.097
278.15	0.15	0.419	0.053
278.15	0	0.194	0.024
283.15	1	1.496	0.204
283.15	0.85	1.751	0.241
283.15	0.699	1.453	0.198
283.15	0.6	1.264	0.171
283.15	0.498	0.95	0.126
283.15	0.401	0.701	0.092
283.15	0.301	0.51	0.066
283.15	0.15	0.295	0.037
283.15	0	0.143	0.017
288.15	1	1.005	0.134
288.15	0.85	1.161	0.156
288.15	0.699	0.969	0.129
288.15	0.6	0.849	0.112
288.15	0.498	0.644	0.084
288.15	0.401	0.484	0.062
288.15	0.301	0.359	0.045
288.15	0.15	0.212	0.026
288.15	0	0.108	0.013
293.15	1	0.696	0.091
293.15	0.85	0.79	0.104
293.15	0.699	0.663	0.086
293.15	0.6	0.586	0.076
293.15	0.498	0.448	0.057
293.15	0.401	0.342	0.043
293.15	0.301	0.258	0.032
293.15	0.15	0.157	0.019
293.15	0	0.083	0.01
298.15	1	0.496	0.063
298.15	0.85	0.553	0.071
298.15	0.699	0.467	0.06
298.15	0.6	0.416	0.053
298.15	0.498	0.321	0.04
298.15	0.401	0.249	0.031
298.15	0.301	0.191	0.024
298.15	0.15	0.12	0.015
298.15	0	0.065	0.008
303.15	1	0.361	0.046
303.15	0.85	0.4	0.051
303.15	0.699	0.337	0.042
303.15	0.6	0.302	0.038
303.15	0.498	0.235	0.029
303.15	0.401	0.185	0.023
303.15	0.301	0.144	0.018
303.15	0.15	0.093	0.011
303.15	0	0.052	0.006
308.15	1	0.27	0.034
308.15	0.85	0.293	0.037
308.15	0.699	0.248	0.031
308.15	0.6	0.225	0.028
308.15	0.498	0.176	0.022
308.15	0.401	0.141	0.017
308.15	0.301	0.112	0.014
308.15	0.15	0.075	0.009
313.15	1	0.22	0.027
313.15	0.85	0.22	0.027
313.15	0.699	0.186	0.023
313.15	0.6	0.171	0.021
313.15	0.498	0.136	0.017
313.15	0.401	0.109	0.013
313.15	0.301	0.088	0.011
313.15	0.15	0.061	0.007
318.15	1	0.159	0.019
318.15	0.85	0.168	0.021
318.15	0.699	0.144	0.018
318.15	0.6	0.133	0.016
318.15	0.498	0.105	0.013
318.15	0.401	0.087	0.011
318.15	0.301	0.071	0.009
323.15	1	0.126	0.015
323.15	0.85	0.131	0.016
323.15	0.699	0.113	0.014
323.15	0.6	0.105	0.013
323.15	0.498	0.08	0.01
323.15	0.401	0.07	0.008
323.15	0.301	0.058	0.007

System: 1-hexyl-3-methylimidazolium bis[(trifluoromethyl)sulfonyl]imide + trihexyl(tetradecyl)phosphonium 1,2,4-triazolide; phases: Liquid
Fixed: Pressure, kPa = 100
Property: Viscosity, Pa*s (Liquid); method: Cone and plate viscometry
Temperature, K	Mole fraction of trihexyl(tetradecyl)phosphonium 1,2,4-triazolide	Viscosity, Pa*s	uncertainty
278.15	0.9	5.162	0.765
278.15	0.805	4.777	0.703
278.15	0.718	4.094	0.596
278.15	0.622	3.093	0.443
278.15	0.507	2.209	0.309
278.15	0.4	1.397	0.19
278.15	0.307	0.91	0.121
278.15	0.208	0.612	0.079
278.15	0.107	0.325	0.041
283.15	0.9	3.302	0.475
283.15	0.805	3.062	0.439
283.15	0.718	2.612	0.37
283.15	0.622	1.992	0.277
283.15	0.507	1.445	0.197
283.15	0.4	0.936	0.124
283.15	0.307	0.619	0.08
283.15	0.208	0.424	0.054
283.15	0.107	0.235	0.029
288.15	0.9	2.162	0.302
288.15	0.805	2	0.278
288.15	0.718	1.719	0.237
288.15	0.622	1.317	0.178
288.15	0.507	0.975	0.13
288.15	0.4	0.641	0.083
288.15	0.307	0.431	0.055
288.15	0.208	0.301	0.038
288.15	0.107	0.174	0.022
293.15	0.9	1.458	0.199
293.15	0.805	1.349	0.183
293.15	0.718	1.162	0.156
293.15	0.622	0.901	0.119
293.15	0.507	0.677	0.088
293.15	0.4	0.452	0.058
293.15	0.307	0.308	0.039
293.15	0.208	0.22	0.027
293.15	0.107	0.132	0.016
298.15	0.9	1.013	0.135
298.15	0.805	0.932	0.123
298.15	0.718	0.811	0.107
298.15	0.622	0.633	0.082
298.15	0.507	0.485	0.062
298.15	0.4	0.329	0.041
298.15	0.307	0.227	0.028
298.15	0.208	0.165	0.02
298.15	0.107	0.103	0.013
303.15	0.9	0.72	0.094
303.15	0.805	0.664	0.086
303.15	0.718	0.579	0.075
303.15	0.622	0.456	0.058
303.15	0.507	0.355	0.045
303.15	0.4	0.245	0.03
303.15	0.307	0.171	0.021
303.15	0.208	0.127	0.016
303.15	0.107	0.081	0.01
308.15	0.9	0.524	0.067
308.15	0.805	0.484	0.062
308.15	0.718	0.422	0.054
308.15	0.622	0.337	0.042
308.15	0.507	0.267	0.033
308.15	0.4	0.186	0.023
308.15	0.307	0.132	0.016
308.15	0.208	0.099	0.012
308.15	0.107	0.065	0.008
313.15	0.9	0.389	0.049
313.15	0.805	0.359	0.045
313.15	0.718	0.314	0.039
313.15	0.622	0.253	0.031
313.15	0.507	0.204	0.025
313.15	0.4	0.145	0.018
313.15	0.307	0.104	0.013
313.15	0.208	0.079	0.01
313.15	0.107	0.054	0.007
318.15	0.9	0.296	0.037
318.15	0.805	0.273	0.034
318.15	0.718	0.239	0.03
318.15	0.622	0.194	0.024
318.15	0.507	0.159	0.019
318.15	0.4	0.115	0.014
318.15	0.307	0.083	0.01
318.15	0.208	0.064	0.008
323.15	0.9	0.229	0.028
323.15	0.805	0.211	0.026
323.15	0.718	0.185	0.023
323.15	0.622	0.152	0.019
323.15	0.507	0.127	0.015
323.15	0.4	0.093	0.011
323.15	0.307	0.067	0.008
323.15	0.208	0.053	0.006

System: 1-hexyl-3-methylimidazolium bis[(trifluoromethyl)sulfonyl]imide + trihexyl(tetradecyl)phosphonium 2-cyanopyrrolide; phases: Liquid
Fixed: Pressure, kPa = 100
Property: Viscosity, Pa*s (Liquid); method: Cone and plate viscometry
Temperature, K	Mole fraction of trihexyl(tetradecyl)phosphonium 2-cyanopyrrolide	Viscosity, Pa*s	uncertainty
278.15	1	1.764	0.243
278.15	0.898	1.844	0.254
278.15	0.8	1.749	0.241
278.15	0.698	1.684	0.231
278.15	0.6	1.407	0.191
278.15	0.496	1.216	0.163
278.15	0.4	0.9	0.119
278.15	0.3	0.662	0.086
278.15	0.2	0.52	0.067
278.15	0.1	0.337	0.043
283.15	1	1.179	0.159
283.15	0.898	1.223	0.165
283.15	0.8	1.16	0.156
283.15	0.698	1.117	0.15
283.15	0.6	0.938	0.125
283.15	0.496	0.815	0.107
283.15	0.4	0.608	0.079
283.15	0.3	0.455	0.058
283.15	0.2	0.363	0.046
283.15	0.1	0.24	0.03
288.15	1	0.804	0.106
288.15	0.898	0.83	0.109
288.15	0.8	0.785	0.103
288.15	0.698	0.755	0.099
288.15	0.6	0.638	0.083
288.15	0.496	0.558	0.072
288.15	0.4	0.42	0.053
288.15	0.3	0.319	0.04
288.15	0.2	0.259	0.032
288.15	0.1	0.176	0.022
293.15	1	0.563	0.073
293.15	0.898	0.578	0.075
293.15	0.8	0.546	0.07
293.15	0.698	0.525	0.067
293.15	0.6	0.445	0.057
293.15	0.496	0.392	0.05
293.15	0.4	0.298	0.037
293.15	0.3	0.229	0.028
293.15	0.2	0.19	0.023
293.15	0.1	0.132	0.016
298.15	1	0.404	0.051
298.15	0.898	0.414	0.053
298.15	0.8	0.391	0.05
298.15	0.698	0.376	0.048
298.15	0.6	0.319	0.04
298.15	0.496	0.284	0.036
298.15	0.4	0.217	0.027
298.15	0.3	0.17	0.021
298.15	0.2	0.144	0.018
298.15	0.1	0.101	0.012
303.15	1	0.297	0.037
303.15	0.898	0.303	0.038
303.15	0.8	0.286	0.036
303.15	0.698	0.275	0.034
303.15	0.6	0.236	0.029
303.15	0.496	0.21	0.026
303.15	0.4	0.162	0.02
303.15	0.3	0.129	0.016
303.15	0.2	0.111	0.013
303.15	0.1	0.08	0.01
308.15	1	0.223	0.028
308.15	0.898	0.228	0.028
308.15	0.8	0.214	0.026
308.15	0.698	0.207	0.026
308.15	0.6	0.177	0.022
308.15	0.496	0.16	0.02
308.15	0.4	0.125	0.015
308.15	0.3	0.1	0.012
308.15	0.2	0.088	0.011
308.15	0.1	0.064	0.008
313.15	1	0.17	0.021
313.15	0.898	0.173	0.021
313.15	0.8	0.163	0.02
313.15	0.698	0.158	0.019
313.15	0.6	0.136	0.017
313.15	0.496	0.123	0.015
313.15	0.4	0.097	0.012
313.15	0.3	0.079	0.01
313.15	0.2	0.071	0.009
313.15	0.1	0.052	0.006
318.15	1	0.133	0.016
318.15	0.898	0.135	0.016
318.15	0.8	0.128	0.016
318.15	0.698	0.124	0.015
318.15	0.6	0.107	0.013
318.15	0.496	0.098	0.012
318.15	0.4	0.078	0.009
318.15	0.3	0.064	0.008
318.15	0.2	0.058	0.007
323.15	1	0.106	0.013
323.15	0.898	0.108	0.013
323.15	0.8	0.102	0.012
323.15	0.698	0.099	0.012
323.15	0.6	0.085	0.01
323.15	0.496	0.079	0.01
323.15	0.4	0.063	0.008
323.15	0.3	0.052	0.006

System: 1-hexyl-3-methylimidazolium bis[(trifluoromethyl)sulfonyl]imide + trihexyl(tetradecyl)phosphonium 4-nitropyrazolide; phases: Liquid
Fixed: Pressure, kPa = 100
Property: Viscosity, Pa*s (Liquid); method: Cone and plate viscometry
Temperature, K	Mole fraction of trihexyl(tetradecyl)phosphonium 4-nitropyrazolide	Viscosity, Pa*s	uncertainty
278.15	0.898	3.071	0.439
278.15	0.797	2.704	0.383
278.15	0.695	2.474	0.348
278.15	0.501	1.594	0.218
278.15	0.3	0.831	0.11
278.15	0.2	0.528	0.068
278.15	0.099	0.338	0.043
283.15	0.898	1.971	0.274
283.15	0.797	1.75	0.241
283.15	0.695	1.6	0.22
283.15	0.501	1.055	0.141
283.15	0.3	0.565	0.073
283.15	0.2	0.367	0.047
283.15	0.099	0.241	0.03
288.15	0.898	1.297	0.176
288.15	0.797	1.158	0.156
288.15	0.695	1.061	0.142
288.15	0.501	0.715	0.093
288.15	0.3	0.393	0.05
288.15	0.2	0.261	0.033
288.15	0.099	0.175	0.022
293.15	0.898	0.88	0.116
293.15	0.797	0.788	0.103
293.15	0.695	0.726	0.095
293.15	0.501	0.499	0.064
293.15	0.3	0.282	0.035
293.15	0.2	0.191	0.024
293.15	0.099	0.132	0.016
298.15	0.898	0.614	0.08
298.15	0.797	0.554	0.071
298.15	0.695	0.512	0.066
298.15	0.501	0.357	0.045
298.15	0.3	0.208	0.026
298.15	0.2	0.144	0.018
298.15	0.099	0.101	0.012
303.15	0.898	0.441	0.056
303.15	0.797	0.4	0.051
303.15	0.695	0.371	0.047
303.15	0.501	0.264	0.033
303.15	0.3	0.158	0.019
303.15	0.2	0.111	0.014
303.15	0.099	0.08	0.01
308.15	0.898	0.325	0.041
308.15	0.797	0.296	0.037
308.15	0.695	0.276	0.034
308.15	0.501	0.199	0.025
308.15	0.3	0.122	0.015
308.15	0.2	0.088	0.011
308.15	0.099	0.065	0.008
313.15	0.898	0.244	0.03
313.15	0.797	0.222	0.027
313.15	0.695	0.209	0.026
313.15	0.501	0.153	0.019
313.15	0.3	0.097	0.012
313.15	0.2	0.07	0.008
313.15	0.099	0.052	0.006
318.15	0.898	0.187	0.023
318.15	0.797	0.171	0.021
318.15	0.695	0.162	0.02
318.15	0.501	0.12	0.015
318.15	0.3	0.078	0.009
318.15	0.2	0.057	0.007
323.15	0.898	0.146	0.018
323.15	0.797	0.134	0.016
323.15	0.695	0.128	0.016
323.15	0.501	0.096	0.012
323.15	0.3	0.064	0.008

System: 1-hexyl-3-methylimidazolium bis[(trifluoromethyl)sulfonyl]imide + trihexyl(tetradecyl)phosphonium tetrazolide; phases: Liquid
Fixed: Pressure, kPa = 100
Property: Viscosity, Pa*s (Liquid); method: Cone and plate viscometry
Temperature, K	Mole fraction of trihexyl(tetradecyl)phosphonium tetrazolide	Viscosity, Pa*s	uncertainty
278.15	0.898	2.587	0.365
278.15	0.799	2.353	0.33
278.15	0.701	2.047	0.284
278.15	0.651	1.92	0.266
278.15	0.4	0.985	0.131
278.15	0.299	0.704	0.092
278.15	0.2	0.485	0.062
278.15	0.1	0.298	0.037
283.15	0.898	1.711	0.236
283.15	0.799	1.557	0.213
283.15	0.701	1.361	0.185
283.15	0.651	1.285	0.174
283.15	0.4	0.662	0.086
283.15	0.299	0.489	0.063
283.15	0.2	0.342	0.043
283.15	0.1	0.215	0.027
288.15	0.898	1.155	0.155
288.15	0.799	1.055	0.141
288.15	0.701	0.923	0.122
288.15	0.651	0.869	0.115
288.15	0.4	0.461	0.059
288.15	0.299	0.346	0.044
288.15	0.2	0.247	0.031
288.15	0.1	0.158	0.019
293.15	0.898	0.8	0.105
293.15	0.799	0.732	0.096
293.15	0.701	0.643	0.083
293.15	0.651	0.607	0.079
293.15	0.4	0.331	0.042
293.15	0.299	0.253	0.032
293.15	0.2	0.183	0.023
293.15	0.1	0.12	0.015
298.15	0.898	0.567	0.073
298.15	0.799	0.523	0.067
298.15	0.701	0.459	0.059
298.15	0.651	0.434	0.055
298.15	0.4	0.245	0.03
298.15	0.299	0.189	0.023
298.15	0.2	0.139	0.017
298.15	0.1	0.093	0.011
303.15	0.898	0.414	0.053
303.15	0.799	0.382	0.048
303.15	0.701	0.337	0.042
303.15	0.651	0.318	0.04
303.15	0.4	0.185	0.023
303.15	0.299	0.145	0.018
303.15	0.2	0.108	0.013
303.15	0.1	0.073	0.009
308.15	0.898	0.308	0.039
308.15	0.799	0.286	0.036
308.15	0.701	0.253	0.031
308.15	0.651	0.239	0.03
308.15	0.4	0.143	0.017
308.15	0.299	0.114	0.014
308.15	0.2	0.086	0.01
308.15	0.1	0.059	0.007
313.15	0.898	0.232	0.029
313.15	0.799	0.217	0.027
313.15	0.701	0.194	0.024
313.15	0.651	0.181	0.022
313.15	0.4	0.112	0.014
313.15	0.299	0.091	0.011
313.15	0.2	0.07	0.008
318.15	0.898	0.179	0.022
318.15	0.799	0.168	0.021
318.15	0.701	0.151	0.018
318.15	0.651	0.141	0.017
318.15	0.4	0.09	0.011
318.15	0.299	0.074	0.009
318.15	0.2	0.057	0.007
323.15	0.898	0.141	0.017
323.15	0.799	0.133	0.016
323.15	0.701	0.12	0.015
323.15	0.651	0.113	0.014
323.15	0.4	0.074	0.009
323.15	0.299	0.061	0.007

System: 1-hexyl-2,3-dimethylimidazolium bis[(trifluoromethyl)sulfonyl]imide + trihexyl(tetradecyl)phosphonium 2-cyanopyrrolide; phases: Liquid
Fixed: Pressure, kPa = 100
Property: Viscosity, Pa*s (Liquid); method: Cone and plate viscometry
Temperature, K	Mole fraction of trihexyl(tetradecyl)phosphonium 2-cyanopyrrolide	Viscosity, Pa*s	uncertainty
278.15	1	1.764	0.243
278.15	0.902	1.93	0.267
278.15	0.799	1.868	0.258
278.15	0.699	1.745	0.24
278.15	0.601	1.658	0.227
278.15	0.5	1.594	0.218
278.15	0.399	1.356	0.183
278.15	0.3	1.056	0.141
278.15	0.201	0.895	0.118
278.15	0.1	0.701	0.091
283.15	1	1.179	0.159
283.15	0.902	1.279	0.173
283.15	0.799	1.221	0.165
283.15	0.699	1.141	0.153
283.15	0.601	1.093	0.146
283.15	0.5	1.048	0.14
283.15	0.399	0.897	0.119
283.15	0.3	0.699	0.091
283.15	0.201	0.598	0.078
283.15	0.1	0.472	0.06
288.15	1	0.804	0.106
288.15	0.902	0.867	0.114
288.15	0.799	0.82	0.108
288.15	0.699	0.764	0.1
288.15	0.601	0.734	0.096
288.15	0.5	0.705	0.092
288.15	0.399	0.607	0.079
288.15	0.3	0.474	0.061
288.15	0.201	0.411	0.052
288.15	0.1	0.328	0.041
293.15	1	0.563	0.073
293.15	0.902	0.602	0.078
293.15	0.799	0.566	0.073
293.15	0.699	0.527	0.068
293.15	0.601	0.507	0.065
293.15	0.5	0.488	0.063
293.15	0.399	0.422	0.054
293.15	0.3	0.332	0.042
293.15	0.201	0.29	0.036
293.15	0.1	0.234	0.029
298.15	1	0.404	0.051
298.15	0.902	0.43	0.055
298.15	0.799	0.403	0.051
298.15	0.699	0.375	0.047
298.15	0.601	0.361	0.046
298.15	0.5	0.35	0.044
298.15	0.399	0.304	0.038
298.15	0.3	0.24	0.03
298.15	0.201	0.212	0.026
298.15	0.1	0.173	0.021
303.15	1	0.297	0.037
303.15	0.902	0.315	0.04
303.15	0.799	0.294	0.037
303.15	0.699	0.273	0.034
303.15	0.601	0.264	0.033
303.15	0.5	0.257	0.032
303.15	0.399	0.224	0.028
303.15	0.3	0.178	0.022
303.15	0.201	0.159	0.019
303.15	0.1	0.131	0.016
308.15	1	0.223	0.028
308.15	0.902	0.237	0.029
308.15	0.799	0.219	0.027
308.15	0.699	0.204	0.025
308.15	0.601	0.197	0.024
308.15	0.5	0.193	0.024
308.15	0.399	0.169	0.021
308.15	0.3	0.136	0.017
308.15	0.201	0.122	0.015
308.15	0.1	0.102	0.012
313.15	1	0.17	0.021
313.15	0.902	0.18	0.022
313.15	0.799	0.167	0.02
313.15	0.699	0.155	0.019
313.15	0.601	0.151	0.018
313.15	0.5	0.148	0.018
313.15	0.399	0.13	0.016
313.15	0.3	0.105	0.013
313.15	0.201	0.096	0.012
313.15	0.1	0.081	0.01
318.15	1	0.133	0.016
318.15	0.902	0.141	0.017
318.15	0.799	0.13	0.016
318.15	0.699	0.12	0.015
318.15	0.601	0.117	0.014
318.15	0.5	0.116	0.014
318.15	0.399	0.103	0.013
318.15	0.3	0.083	0.01
318.15	0.201	0.077	0.009
323.15	1	0.106	0.013
323.15	0.902	0.112	0.014
323.15	0.799	0.103	0.013
323.15	0.699	0.096	0.012
323.15	0.601	0.094	0.011
323.15	0.5	0.093	0.011
323.15	0.399	0.082	0.01
323.15	0.3	0.067	0.008
323.15	0.201	0.063	0.008

System: 1-hexyl-3-methylimidazolium bis[(trifluoromethyl)sulfonyl]imide + trihexyl(tetradecyl)phosphonium bis[(trifluoromethyl)sulfonyl]imide; phases: Liquid
Fixed: Pressure, kPa = 100
Property: Viscosity, Pa*s (Liquid); method: Cone and plate viscometry
Temperature, K	Mole fraction of trihexyl(tetradecyl)phosphonium bis[(trifluoromethyl)sulfonyl]imide	Viscosity, Pa*s	uncertainty
278.15	0.903	1.114	0.149
278.15	0.748	1.019	0.135
278.15	0.596	0.873	0.115
278.15	0.398	0.652	0.085
278.15	0.2	0.39	0.049
283.15	0.903	0.774	0.101
283.15	0.748	0.706	0.092
283.15	0.596	0.611	0.079
283.15	0.398	0.459	0.059
283.15	0.2	0.28	0.035
288.15	0.903	0.547	0.07
288.15	0.748	0.5	0.064
288.15	0.596	0.434	0.055
288.15	0.398	0.329	0.041
288.15	0.2	0.205	0.025
293.15	0.903	0.396	0.05
293.15	0.748	0.362	0.046
293.15	0.596	0.316	0.04
293.15	0.398	0.242	0.03
293.15	0.2	0.153	0.019
298.15	0.903	0.293	0.037
298.15	0.748	0.27	0.034
298.15	0.596	0.236	0.029
298.15	0.398	0.183	0.023
298.15	0.2	0.118	0.014
303.15	0.903	0.221	0.027
303.15	0.748	0.204	0.025
303.15	0.596	0.18	0.022
303.15	0.398	0.141	0.017
303.15	0.2	0.092	0.011
308.15	0.903	0.171	0.021
308.15	0.748	0.158	0.019
308.15	0.596	0.14	0.017
308.15	0.398	0.111	0.013
308.15	0.2	0.074	0.009
313.15	0.903	0.134	0.016
313.15	0.748	0.124	0.015
313.15	0.596	0.111	0.013
313.15	0.398	0.089	0.011
313.15	0.2	0.06	0.007
318.15	0.903	0.107	0.013
318.15	0.748	0.1	0.012
318.15	0.596	0.09	0.011
318.15	0.398	0.072	0.009
323.15	0.903	0.086	0.01
323.15	0.748	0.081	0.01
323.15	0.596	0.073	0.009
323.15	0.398	0.06	0.007

System: 1-hexyl-2,3-dimethylimidazolium bis[(trifluoromethyl)sulfonyl]imide + triethyloctylphosphonium 4-nitropyrazolide; phases: Liquid
Fixed: Pressure, kPa = 100
Property: Viscosity, Pa*s (Liquid); method: Cone and plate viscometry
Temperature, K	Mole fraction of triethyloctylphosphonium 4-nitropyrazolide	Viscosity, Pa*s	uncertainty
278.15	0.9	1.386	0.188
278.15	0.751	1.382	0.187
278.15	0.6	1.244	0.168
278.15	0.5	1.156	0.155
278.15	0.401	1.011	0.134
278.15	0.25	0.771	0.101
278.15	0.124	0.602	0.078
283.15	0.9	0.89	0.118
283.15	0.751	0.883	0.117
283.15	0.6	0.795	0.105
283.15	0.5	0.742	0.097
283.15	0.401	0.658	0.086
283.15	0.25	0.51	0.066
283.15	0.124	0.409	0.052
288.15	0.9	0.589	0.076
288.15	0.751	0.58	0.075
288.15	0.6	0.524	0.067
288.15	0.5	0.491	0.063
288.15	0.401	0.442	0.056
288.15	0.25	0.348	0.044
288.15	0.124	0.283	0.035
293.15	0.9	0.404	0.051
293.15	0.751	0.396	0.05
293.15	0.6	0.359	0.045
293.15	0.5	0.338	0.043
293.15	0.401	0.307	0.039
293.15	0.25	0.246	0.031
293.15	0.124	0.204	0.025
298.15	0.9	0.285	0.036
298.15	0.751	0.279	0.035
298.15	0.6	0.254	0.032
298.15	0.5	0.241	0.03
298.15	0.401	0.22	0.027
298.15	0.25	0.179	0.022
298.15	0.124	0.151	0.018
303.15	0.9	0.208	0.026
303.15	0.751	0.203	0.025
303.15	0.6	0.185	0.023
303.15	0.5	0.177	0.022
303.15	0.401	0.163	0.02
303.15	0.25	0.135	0.016
303.15	0.124	0.115	0.014
308.15	0.9	0.156	0.019
308.15	0.751	0.152	0.019
308.15	0.6	0.139	0.017
308.15	0.5	0.134	0.016
308.15	0.401	0.124	0.015
308.15	0.25	0.104	0.013
308.15	0.124	0.09	0.011
313.15	0.9	0.119	0.014
313.15	0.751	0.117	0.014
313.15	0.6	0.106	0.013
313.15	0.5	0.103	0.013
313.15	0.401	0.097	0.012
313.15	0.25	0.082	0.01
313.15	0.124	0.072	0.009
318.15	0.9	0.094	0.011
318.15	0.751	0.091	0.011
318.15	0.6	0.083	0.01
318.15	0.5	0.082	0.01
318.15	0.401	0.077	0.009
318.15	0.25	0.065	0.008
318.15	0.124	0.058	0.007
323.15	0.9	0.075	0.009
323.15	0.751	0.073	0.009
323.15	0.6	0.067	0.008
323.15	0.5	0.066	0.008
323.15	0.401	0.063	0.008
323.15	0.25	0.053	0.006

System: 1-hexyl-2,3-dimethylimidazolium bis[(trifluoromethyl)sulfonyl]imide + triethyloctylphosphonium 4-nitropyrazolide; phases: Liquid
Fixed: Pressure, kPa = 100
Property: Mass density, kg/m3 (Liquid); method: Vibrating tube method
Temperature, K	Mole fraction of triethyloctylphosphonium 4-nitropyrazolide	Mass density, kg/m3	uncertainty
283.15	0	1373	12
288.15	0	1368.4	12
293.15	0	1363.9	12
295.15	0	1362.1	12
298.15	0	1359.5	12
303.15	0	1355.1	12
308.15	0	1350.8	12
313.15	0	1346.4	12
318.15	0	1342	12
323.15	0	1337.6	12
328.15	0	1333.2	12
333.15	0	1328.9	12
338.15	0	1324.5	12
343.15	0	1320.2	12
348.15	0	1315.8	12
353.15	0	1311.5	12
283.15	0.124	1331.5	12
288.15	0.124	1327.1	12
293.15	0.124	1322.8	12
295.15	0.124	1321	12
298.15	0.124	1318.5	12
303.15	0.124	1314.3	12
308.15	0.124	1310.1	12
313.15	0.124	1306	12
318.15	0.124	1301.8	12
323.15	0.124	1297.6	12
328.15	0.124	1293.5	12
333.15	0.124	1289.3	12
338.15	0.124	1285.1	12
343.15	0.124	1281	12
348.15	0.124	1276.9	12
353.15	0.124	1272.7	12
283.15	0.25	1290	12
288.15	0.25	1285.9	12
293.15	0.25	1281.8	12
295.15	0.25	1280.1	12
298.15	0.25	1277.6	12
303.15	0.25	1273.7	12
308.15	0.25	1269.7	12
313.15	0.25	1265.7	12
318.15	0.25	1261.7	12
323.15	0.25	1257.7	12
328.15	0.25	1253.8	12
333.15	0.25	1249.8	12
338.15	0.25	1245.8	12
343.15	0.25	1241.9	12
348.15	0.25	1237.9	12
353.15	0.25	1234	12
283.15	0.5	1206.7	12
288.15	0.5	1203	12
293.15	0.5	1199.2	12
295.15	0.5	1197.7	12
298.15	0.5	1195.5	12
303.15	0.5	1191.8	12
308.15	0.5	1188.1	12
313.15	0.5	1184.5	12
318.15	0.5	1180.9	12
323.15	0.5	1177.3	12
328.15	0.5	1173.7	12
333.15	0.5	1170.2	12
338.15	0.5	1166.6	12
343.15	0.5	1163	12
348.15	0.5	1159.5	12
353.15	0.5	1155.9	12
283.15	0.751	1123.8	12
288.15	0.751	1120.4	12
293.15	0.751	1117	12
295.15	0.751	1115.6	12
298.15	0.751	1113.6	12
303.15	0.751	1110.2	12
308.15	0.751	1106.9	12
313.15	0.751	1103.7	12
318.15	0.751	1100.4	12
323.15	0.751	1097.1	12
328.15	0.751	1093.9	12
333.15	0.751	1090.6	12
338.15	0.751	1087.4	12
343.15	0.751	1084.1	12
348.15	0.751	1080.9	12
353.15	0.751	1077.7	12
283.15	0.9	1074.2	12
288.15	0.9	1071	12
293.15	0.9	1067.8	12
295.15	0.9	1066.5	12
298.15	0.9	1064.6	12
303.15	0.9	1061.4	12
308.15	0.9	1058.3	12
313.15	0.9	1055.3	12
318.15	0.9	1052.2	12
323.15	0.9	1049.1	12
328.15	0.9	1046.1	12
333.15	0.9	1043	12
338.15	0.9	1040	12
343.15	0.9	1036.9	12
348.15	0.9	1033.9	12
353.15	0.9	1030.9	12
283.15	1	1040.7	12
288.15	1	1037.7	12
293.15	1	1034.6	12
295.15	1	1033.4	12
298.15	1	1031.5	12
303.15	1	1028.5	12
308.15	1	1025.5	12
313.15	1	1022.6	12
318.15	1	1019.6	12
323.15	1	1016.7	12
328.15	1	1013.8	12
333.15	1	1010.8	12
338.15	1	1007.9	12
343.15	1	1005	12
348.15	1	1002.1	12
353.15	1	999.2	12

System: 1-hexyl-3-methylimidazolium bis[(trifluoromethyl)sulfonyl]imide + triethyloctylphosphonium 4-nitropyrazolide; phases: Liquid
Fixed: Pressure, kPa = 100
Property: Viscosity, Pa*s (Liquid); method: Cone and plate viscometry
Temperature, K	Mole fraction of triethyloctylphosphonium 4-nitropyrazolide	Viscosity, Pa*s	uncertainty
278.15	0.898	1.242	0.167
278.15	0.75	1.046	0.139
278.15	0.499	0.68	0.089
278.15	0.25	0.358	0.045
278.15	0.126	0.267	0.033
283.15	0.898	0.804	0.106
283.15	0.75	0.682	0.089
283.15	0.499	0.456	0.058
283.15	0.25	0.251	0.031
283.15	0.126	0.191	0.024
288.15	0.898	0.535	0.069
288.15	0.75	0.457	0.058
288.15	0.499	0.314	0.039
288.15	0.25	0.18	0.022
288.15	0.126	0.14	0.017
293.15	0.898	0.369	0.047
293.15	0.75	0.317	0.04
293.15	0.499	0.223	0.028
293.15	0.25	0.133	0.016
293.15	0.126	0.106	0.013
298.15	0.898	0.263	0.033
298.15	0.75	0.227	0.028
298.15	0.499	0.164	0.02
298.15	0.25	0.102	0.012
298.15	0.126	0.082	0.01
303.15	0.898	0.192	0.024
303.15	0.75	0.168	0.021
303.15	0.499	0.124	0.015
303.15	0.25	0.079	0.01
303.15	0.126	0.066	0.008
308.15	0.898	0.145	0.018
308.15	0.75	0.127	0.015
308.15	0.499	0.096	0.012
308.15	0.25	0.063	0.008
308.15	0.126	0.053	0.006
313.15	0.898	0.11	0.013
313.15	0.75	0.099	0.012
313.15	0.499	0.073	0.009
313.15	0.25	0.052	0.006
318.15	0.898	0.083	0.01
318.15	0.75	0.077	0.009
318.15	0.499	0.059	0.007
323.15	0.898	0.067	0.008
323.15	0.75	0.062	0.007

System: 1-hexyl-3-methylimidazolium bis[(trifluoromethyl)sulfonyl]imide + triethyloctylphosphonium 4-nitropyrazolide; phases: Liquid
Fixed: Pressure, kPa = 100
Property: Mass density, kg/m3 (Liquid); method: Vibrating tube method
Temperature, K	Mole fraction of triethyloctylphosphonium 4-nitropyrazolide	Mass density, kg/m3	uncertainty
283.15	0	1385.6	12
288.15	0	1381	12
293.15	0	1376.5	12
295.15	0	1374.6	12
298.15	0	1371.9	12
303.15	0	1367.3	12
308.15	0	1362.8	12
313.15	0	1358.3	12
318.15	0	1353.7	12
323.15	0	1349.2	12
328.15	0	1344.7	12
333.15	0	1340.3	12
338.15	0	1335.8	12
343.15	0	1331.4	12
348.15	0	1326.9	12
353.15	0	1322.5	12
283.15	0.126	1340	12
288.15	0.126	1335.5	12
293.15	0.126	1331.1	12
295.15	0.126	1329.4	12
298.15	0.126	1326.7	12
303.15	0.126	1322.4	12
308.15	0.126	1318.1	12
313.15	0.126	1313.8	12
318.15	0.126	1309.6	12
323.15	0.126	1305.4	12
328.15	0.126	1301.2	12
333.15	0.126	1297	12
338.15	0.126	1292.8	12
343.15	0.126	1288.7	12
348.15	0.126	1284.5	12
353.15	0.126	1280.3	12
283.15	0.25	1296.5	12
288.15	0.25	1292.3	12
293.15	0.25	1288.2	12
295.15	0.25	1286.5	12
298.15	0.25	1284.1	12
303.15	0.25	1280	12
308.15	0.25	1275.9	12
313.15	0.25	1271.8	12
318.15	0.25	1267.7	12
323.15	0.25	1263.7	12
328.15	0.25	1259.6	12
333.15	0.25	1255.5	12
338.15	0.25	1251.5	12
343.15	0.25	1247.5	12
348.15	0.25	1243.5	12
353.15	0.25	1239.5	12
283.15	0.499	1209.6	12
288.15	0.499	1205.8	12
293.15	0.499	1201.9	12
295.15	0.499	1200.4	12
298.15	0.499	1198.2	12
303.15	0.499	1194.5	12
308.15	0.499	1190.9	12
313.15	0.499	1187.2	12
318.15	0.499	1183.5	12
323.15	0.499	1179.9	12
328.15	0.499	1176.2	12
333.15	0.499	1172.6	12
338.15	0.499	1169	12
343.15	0.499	1165.3	12
348.15	0.499	1161.7	12
353.15	0.499	1158.1	12
283.15	0.75	1124.3	12
288.15	0.75	1120.9	12
293.15	0.75	1117.5	12
295.15	0.75	1116.1	12
298.15	0.75	1114.1	12
303.15	0.75	1110.7	12
308.15	0.75	1107.5	12
313.15	0.75	1104.2	12
318.15	0.75	1100.9	12
323.15	0.75	1097.6	12
328.15	0.75	1094.3	12
333.15	0.75	1091.1	12
338.15	0.75	1087.8	12
343.15	0.75	1084.6	12
348.15	0.75	1081.3	12
353.15	0.75	1078.1	12
283.15	0.898	1074.4	12
288.15	0.898	1071.2	12
293.15	0.898	1068	12
295.15	0.898	1066.8	12
298.15	0.898	1064.8	12
303.15	0.898	1061.7	12
308.15	0.898	1058.6	12
313.15	0.898	1055.5	12
318.15	0.898	1052.5	12
323.15	0.898	1049.4	12
328.15	0.898	1046.3	12
333.15	0.898	1043.3	12
338.15	0.898	1040.2	12
343.15	0.898	1037.2	12
348.15	0.898	1034.1	12
353.15	0.898	1031.1	12
283.15	1	1040.7	12
288.15	1	1037.7	12
293.15	1	1034.6	12
295.15	1	1033.4	12
298.15	1	1031.5	12
303.15	1	1028.5	12
308.15	1	1025.5	12
313.15	1	1022.6	12
318.15	1	1019.6	12
323.15	1	1016.7	12
328.15	1	1013.8	12
333.15	1	1010.8	12
338.15	1	1007.9	12
343.15	1	1005	12
348.15	1	1002.1	12
353.15	1	999.2	12

System: 1-hexyl-2,3-dimethylimidazolium bis[(trifluoromethyl)sulfonyl]imide + trihexyl(tetradecyl)phosphonium bis[(trifluoromethyl)sulfonyl]imide; phases: Liquid
Fixed: Pressure, kPa = 100
Property: Viscosity, Pa*s (Liquid); method: Cone and plate viscometry
Temperature, K	Mole fraction of trihexyl(tetradecyl)phosphonium bis[(trifluoromethyl)sulfonyl]imide	Viscosity, Pa*s	uncertainty
278.15	0.898	1.13	0.151
278.15	0.749	1.015	0.135
278.15	0.596	1	0.133
278.15	0.4	0.932	0.123
278.15	0.2	0.707	0.092
283.15	0.898	0.786	0.103
283.15	0.749	0.698	0.091
283.15	0.596	0.683	0.089
283.15	0.4	0.634	0.082
283.15	0.2	0.483	0.062
288.15	0.898	0.555	0.072
288.15	0.749	0.49	0.063
288.15	0.596	0.477	0.061
288.15	0.4	0.442	0.056
288.15	0.2	0.336	0.042
293.15	0.898	0.4	0.051
293.15	0.749	0.353	0.045
293.15	0.596	0.342	0.043
293.15	0.4	0.317	0.04
293.15	0.2	0.242	0.03
298.15	0.898	0.297	0.037
298.15	0.749	0.261	0.033
298.15	0.596	0.252	0.031
298.15	0.4	0.234	0.029
298.15	0.2	0.179	0.022
303.15	0.898	0.224	0.028
303.15	0.749	0.196	0.024
303.15	0.596	0.19	0.023
303.15	0.4	0.177	0.022
303.15	0.2	0.136	0.017
308.15	0.898	0.173	0.021
308.15	0.749	0.151	0.018
308.15	0.596	0.146	0.018
308.15	0.4	0.137	0.017
308.15	0.2	0.106	0.013
313.15	0.898	0.135	0.016
313.15	0.749	0.119	0.014
313.15	0.596	0.115	0.014
313.15	0.4	0.107	0.013
313.15	0.2	0.084	0.01
318.15	0.898	0.108	0.013
318.15	0.749	0.095	0.012
318.15	0.596	0.092	0.011
318.15	0.4	0.086	0.01
318.15	0.2	0.068	0.008
323.15	0.898	0.08	0.01
323.15	0.749	0.077	0.009
323.15	0.596	0.075	0.009
323.15	0.4	0.071	0.009
323.15	0.2	0.055	0.007

System: 1-hexyl-3-methylimidazolium bis[(trifluoromethyl)sulfonyl]imide + triethyl((2-methoxyethoxy)methyl)phosphonium 1,2,3-triazolide; phases: Liquid
Fixed: Pressure, kPa = 100
Property: Viscosity, Pa*s (Liquid); method: Cone and plate viscometry
Temperature, K	Mole fraction of triethyl((2-methoxyethoxy)methyl)phosphonium 1,2,3-triazolide	Viscosity, Pa*s	uncertainty
278.15	0.75	0.254	0.032
278.15	0.5	0.238	0.03
278.15	0.25	0.235	0.029
283.15	0.75	0.184	0.023
283.15	0.5	0.171	0.021
283.15	0.25	0.171	0.021
288.15	0.75	0.136	0.017
288.15	0.5	0.127	0.015
288.15	0.25	0.127	0.015
293.15	0.75	0.103	0.013
293.15	0.5	0.096	0.012
293.15	0.25	0.098	0.012
298.15	0.75	0.08	0.01
298.15	0.5	0.075	0.009
298.15	0.25	0.076	0.009
303.15	0.75	0.064	0.008
303.15	0.5	0.06	0.007
303.15	0.25	0.061	0.007

System: trihexyl(tetradecyl)phosphonium bis[(trifluoromethyl)sulfonyl]imide + trihexyl(tetradecyl)phosphonium 1,2,3-triazolide; phases: Liquid
Fixed: Pressure, kPa = 100
Property: Viscosity, Pa*s (Liquid); method: Cone and plate viscometry
Temperature, K	Mole fraction of trihexyl(tetradecyl)phosphonium 1,2,3-triazolide	Viscosity, Pa*s	uncertainty
278.15	0.901	1.767	0.243
278.15	0.797	1.72	0.236
278.15	0.7	1.657	0.227
278.15	0.599	1.661	0.227
278.15	0.5	1.528	0.208
278.15	0.401	1.4	0.19
278.15	0.3	1.454	0.197
278.15	0.201	1.378	0.186
278.15	0.098	1.213	0.163
283.15	0.901	1.17	0.157
283.15	0.797	1.144	0.154
283.15	0.7	1.11	0.149
283.15	0.599	1.114	0.149
283.15	0.5	1.03	0.137
283.15	0.401	0.946	0.126
283.15	0.3	0.995	0.132
283.15	0.201	0.945	0.125
283.15	0.098	0.839	0.111
288.15	0.901	0.793	0.104
288.15	0.797	0.779	0.102
288.15	0.7	0.76	0.1
288.15	0.599	0.764	0.1
288.15	0.5	0.709	0.093
288.15	0.401	0.655	0.085
288.15	0.3	0.693	0.09
288.15	0.201	0.66	0.086
288.15	0.098	0.591	0.076
293.15	0.901	0.553	0.071
293.15	0.797	0.547	0.07
293.15	0.7	0.533	0.069
293.15	0.599	0.539	0.069
293.15	0.5	0.502	0.064
293.15	0.401	0.465	0.059
293.15	0.3	0.495	0.063
293.15	0.201	0.473	0.06
293.15	0.098	0.425	0.054
298.15	0.901	0.397	0.05
298.15	0.797	0.393	0.05
298.15	0.7	0.385	0.049
298.15	0.599	0.39	0.049
298.15	0.5	0.363	0.046
298.15	0.401	0.338	0.043
298.15	0.3	0.362	0.046
298.15	0.201	0.348	0.044
298.15	0.098	0.313	0.039
303.15	0.901	0.291	0.036
303.15	0.797	0.289	0.036
303.15	0.7	0.284	0.035
303.15	0.599	0.288	0.036
303.15	0.5	0.27	0.034
303.15	0.401	0.251	0.031
303.15	0.3	0.27	0.034
303.15	0.201	0.261	0.032
303.15	0.098	0.236	0.029
308.15	0.901	0.22	0.027
308.15	0.797	0.217	0.027
308.15	0.7	0.214	0.026
308.15	0.599	0.218	0.027
308.15	0.5	0.204	0.025
308.15	0.401	0.191	0.024
308.15	0.3	0.207	0.026
308.15	0.201	0.2	0.025
308.15	0.098	0.181	0.022
313.15	0.901	0.168	0.021
313.15	0.797	0.167	0.02
313.15	0.7	0.165	0.02
313.15	0.599	0.168	0.021
313.15	0.5	0.158	0.019
313.15	0.401	0.148	0.018
313.15	0.3	0.16	0.02
313.15	0.201	0.156	0.019
313.15	0.098	0.142	0.017
318.15	0.901	0.132	0.016
318.15	0.797	0.131	0.016
318.15	0.7	0.129	0.016
318.15	0.599	0.132	0.016
318.15	0.5	0.124	0.015
318.15	0.401	0.117	0.014
318.15	0.3	0.127	0.015
318.15	0.201	0.124	0.015
318.15	0.098	0.112	0.014
323.15	0.901	0.106	0.013
323.15	0.797	0.104	0.013
323.15	0.7	0.103	0.012
323.15	0.599	0.106	0.013
323.15	0.5	0.1	0.012
323.15	0.401	0.094	0.011
323.15	0.3	0.102	0.012
323.15	0.201	0.1	0.012
323.15	0.098	0.091	0.011

System: trihexyl(tetradecyl)phosphonium bis[(trifluoromethyl)sulfonyl]imide + 1-hexyl-3-methylimidazolium 2-cyanopyrrolide; phases: Liquid
Fixed: Pressure, kPa = 100
Property: Viscosity, Pa*s (Liquid); method: Cone and plate viscometry
Temperature, K	Mole fraction of 1-hexyl-3-methylimidazolium 2-cyanopyrrolide	Viscosity, Pa*s	uncertainty
278.15	1	1.54	0.213
278.15	0.9	1.461	0.201
278.15	0.8	1.397	0.191
278.15	0.7	1.41	0.192
278.15	0.6	1.379	0.188
278.15	0.499	1.275	0.173
278.15	0.399	1.299	0.176
278.15	0.3	1.258	0.17
278.15	0.2	1.261	0.17
278.15	0.1	1.166	0.156
283.15	1	0.902	0.121
283.15	0.9	0.893	0.12
283.15	0.8	0.877	0.117
283.15	0.7	0.91	0.121
283.15	0.6	0.905	0.121
283.15	0.499	0.846	0.112
283.15	0.399	0.876	0.116
283.15	0.3	0.851	0.112
283.15	0.2	0.867	0.115
283.15	0.1	0.806	0.106
288.15	1	0.553	0.072
288.15	0.9	0.566	0.074
288.15	0.8	0.571	0.074
288.15	0.7	0.603	0.079
288.15	0.6	0.612	0.08
288.15	0.499	0.575	0.075
288.15	0.399	0.602	0.078
288.15	0.3	0.589	0.076
288.15	0.2	0.605	0.078
288.15	0.1	0.568	0.073
293.15	1	0.355	0.045
293.15	0.9	0.374	0.048
293.15	0.8	0.387	0.05
293.15	0.7	0.416	0.053
293.15	0.6	0.423	0.054
293.15	0.499	0.404	0.051
293.15	0.399	0.426	0.054
293.15	0.3	0.419	0.053
293.15	0.2	0.435	0.055
293.15	0.1	0.41	0.052
298.15	1	0.239	0.03
298.15	0.9	0.257	0.032
298.15	0.8	0.271	0.034
298.15	0.7	0.295	0.037
298.15	0.6	0.304	0.038
298.15	0.499	0.292	0.037
298.15	0.399	0.31	0.039
298.15	0.3	0.307	0.039
298.15	0.2	0.32	0.04
298.15	0.1	0.303	0.038
303.15	1	0.167	0.021
303.15	0.9	0.183	0.023
303.15	0.8	0.196	0.024
303.15	0.7	0.216	0.027
303.15	0.6	0.224	0.028
303.15	0.499	0.216	0.027
303.15	0.399	0.231	0.029
303.15	0.3	0.23	0.029
303.15	0.2	0.241	0.03
303.15	0.1	0.229	0.028
308.15	1	0.122	0.015
308.15	0.9	0.135	0.017
308.15	0.8	0.146	0.018
308.15	0.7	0.162	0.02
308.15	0.6	0.169	0.021
308.15	0.499	0.164	0.02
308.15	0.399	0.177	0.022
308.15	0.3	0.176	0.022
308.15	0.2	0.185	0.023
308.15	0.1	0.176	0.022
313.15	1	0.091	0.011
313.15	0.9	0.101	0.012
313.15	0.8	0.112	0.014
313.15	0.7	0.125	0.015
313.15	0.6	0.13	0.016
313.15	0.499	0.127	0.016
313.15	0.399	0.137	0.017
313.15	0.3	0.137	0.017
313.15	0.2	0.145	0.018
313.15	0.1	0.138	0.017
318.15	1	0.07	0.009
318.15	0.9	0.079	0.01
318.15	0.8	0.087	0.011
318.15	0.7	0.097	0.012
318.15	0.6	0.102	0.012
318.15	0.499	0.1	0.012
318.15	0.399	0.109	0.013
318.15	0.3	0.109	0.013
318.15	0.2	0.115	0.014
318.15	0.1	0.11	0.013
323.15	1	0.055	0.007
323.15	0.9	0.062	0.008
323.15	0.8	0.069	0.008
323.15	0.7	0.078	0.01
323.15	0.6	0.082	0.01
323.15	0.499	0.081	0.01
323.15	0.399	0.088	0.011
323.15	0.3	0.087	0.011
323.15	0.2	0.093	0.011
323.15	0.1	0.089	0.011

System: 1-ethyl-3-methylimidazolium bis((trifluoromethyl)sulfonyl)imide + 1-hexyl-3-methylimidazolium bis[(trifluoromethyl)sulfonyl]imide; phases: Liquid
Fixed: Pressure, kPa = 100
Property: Viscosity, Pa*s (Liquid); method: Cone and plate viscometry
Temperature, K	Mole fraction of 1-hexyl-3-methylimidazolium bis[(trifluoromethyl)sulfonyl]imide	Viscosity, Pa*s	uncertainty
278.15	0.85	0.181	0.022
278.15	0.7	0.153	0.019
278.15	0.5	0.12	0.015
278.15	0.3	0.095	0.012
278.15	0.15	0.089	0.011
278.15	0	0.08	0.01
283.15	0.85	0.135	0.016
283.15	0.7	0.116	0.014
283.15	0.5	0.092	0.011
283.15	0.3	0.074	0.009
283.15	0.15	0.07	0.008
283.15	0	0.063	0.008
288.15	0.85	0.102	0.012
288.15	0.7	0.089	0.011
288.15	0.5	0.072	0.009
288.15	0.3	0.058	0.007
288.15	0.15	0.056	0.007
288.15	0	0.05	0.006
293.15	0.85	0.079	0.01
293.15	0.7	0.07	0.008
293.15	0.5	0.058	0.007
298.15	0.85	0.063	0.008
298.15	0.7	0.057	0.007
303.15	0.85	0.051	0.006

System: 1-ethyl-3-methylimidazolium bis((trifluoromethyl)sulfonyl)imide + 1-hexyl-3-methylimidazolium bis[(trifluoromethyl)sulfonyl]imide; phases: Liquid
Fixed: Pressure, kPa = 100
Property: Mass density, kg/m3 (Liquid); method: Vibrating tube method
Temperature, K	Mole fraction of 1-hexyl-3-methylimidazolium bis[(trifluoromethyl)sulfonyl]imide	Mass density, kg/m3	uncertainty
283.15	0	1534.1	4.1
288.15	0	1529	4.1
293.15	0	1523.9	4.1
295.15	0	1521.9	4.1
298.15	0	1518.9	4
303.15	0	1513.9	4
308.15	0	1508.9	4
313.15	0	1503.9	4
318.15	0	1499	4
323.15	0	1494.1	4
328.15	0	1489.1	4
333.15	0	1484.2	4
338.15	0	1479.3	4
343.15	0	1474.4	4
348.15	0	1469.6	4
353.15	0	1464.7	4
283.15	0.15	1507.1	4.1
288.15	0.15	1502.1	4.1
293.15	0.15	1497.1	4.1
295.15	0.15	1495.1	4.1
298.15	0.15	1492.2	4.1
303.15	0.15	1487.2	4.1
308.15	0.15	1482.3	4.1
313.15	0.15	1477.4	4.1
318.15	0.15	1472.5	4.1
323.15	0.15	1467.7	4.1
328.15	0.15	1462.8	4.1
333.15	0.15	1458	4.1
338.15	0.15	1453.2	4.1
343.15	0.15	1448.4	4.1
348.15	0.15	1443.6	4.1
353.15	0.15	1438.8	4.1
283.15	0.3	1481.8	4.1
288.15	0.3	1476.9	4.1
293.15	0.3	1472	4.1
295.15	0.3	1470.1	4.1
298.15	0.3	1467.2	4.1
303.15	0.3	1462.3	4.1
308.15	0.3	1457.5	4.1
313.15	0.3	1452.7	4.1
318.15	0.3	1447.9	4.1
323.15	0.3	1443.1	4.1
328.15	0.3	1438.3	4.1
333.15	0.3	1433.5	4.1
338.15	0.3	1428.8	4
343.15	0.3	1424.1	4
348.15	0.3	1419.4	4
353.15	0.3	1414.7	4
283.15	0.5	1451	4.1
288.15	0.5	1446.3	4.1
293.15	0.5	1441.5	4.1
295.15	0.5	1439.6	4
298.15	0.5	1436.7	4
303.15	0.5	1431.9	4
308.15	0.5	1427.2	4
313.15	0.5	1422.5	4
318.15	0.5	1417.8	4
323.15	0.5	1413.1	4
328.15	0.5	1408.4	4
333.15	0.5	1403.7	4
338.15	0.5	1399	4
343.15	0.5	1394.4	4
348.15	0.5	1389.8	4
353.15	0.5	1385.2	4
283.15	0.7	1422.9	4
288.15	0.7	1418.2	4
293.15	0.7	1413.5	4
295.15	0.7	1411.6	4
298.15	0.7	1408.8	4
303.15	0.7	1404.1	4
308.15	0.7	1399.5	4
313.15	0.7	1394.8	4
318.15	0.7	1390.1	4
323.15	0.7	1385.5	4
328.15	0.7	1380.9	4
333.15	0.7	1376.2	4
338.15	0.7	1371.6	4
343.15	0.7	1367	4
348.15	0.7	1362.3	4
353.15	0.7	1357.7	4
283.15	0.85	1403.6	4
288.15	0.85	1399	4
293.15	0.85	1394.4	4
295.15	0.85	1392.5	4
298.15	0.85	1389.7	4
303.15	0.85	1385.1	4
308.15	0.85	1380.5	4
313.15	0.85	1375.9	4
318.15	0.85	1371.3	4
323.15	0.85	1366.8	4
328.15	0.85	1362.2	4
333.15	0.85	1357.7	4
338.15	0.85	1353.2	4
343.15	0.85	1348.6	4
348.15	0.85	1344.1	4
353.15	0.85	1339.7	4

System: triethyl((2-methoxyethoxy)methyl)phosphonium bis(trifluoromethylsulfonyl)imide + decyltriethylphosphonium 4-nitropyrazolide; phases: Liquid
Fixed: Pressure, kPa = 100
Property: Viscosity, Pa*s (Liquid); method: Cone and plate viscometry
Temperature, K	Mole fraction of decyltriethylphosphonium 4-nitropyrazolide	Viscosity, Pa*s	uncertainty
278.15	0.9	1.198	0.161
278.15	0.75	0.716	0.094
278.15	0.499	0.334	0.042
278.15	0.25	0.16	0.02
278.15	0.1	0.103	0.013
278.15	0	0.084	0.01
283.15	0.9	0.788	0.104
283.15	0.75	0.486	0.062
283.15	0.499	0.239	0.03
283.15	0.25	0.12	0.015
283.15	0.1	0.079	0.01
283.15	0	0.065	0.008
288.15	0.9	0.531	0.068
288.15	0.75	0.337	0.043
288.15	0.499	0.174	0.021
288.15	0.25	0.091	0.011
288.15	0.1	0.062	0.008
288.15	0	0.051	0.006
293.15	0.9	0.37	0.047
293.15	0.75	0.241	0.03
293.15	0.499	0.131	0.016
293.15	0.25	0.072	0.009
293.15	0.1	0.049	0.006
298.15	0.9	0.265	0.033
298.15	0.75	0.178	0.022
298.15	0.499	0.101	0.012
298.15	0.25	0.057	0.007
303.15	0.9	0.195	0.024
303.15	0.75	0.135	0.016
303.15	0.499	0.079	0.01
308.15	0.9	0.149	0.018
308.15	0.75	0.104	0.013
308.15	0.499	0.064	0.008
313.15	0.9	0.115	0.014
313.15	0.75	0.082	0.01
313.15	0.499	0.052	0.006
318.15	0.9	0.091	0.011
318.15	0.75	0.066	0.008
323.15	0.9	0.073	0.009
323.15	0.75	0.055	0.007

System: triethyl((2-methoxyethoxy)methyl)phosphonium bis(trifluoromethylsulfonyl)imide + triethylheptylphosphonium 4-nitropyrazolide; phases: Liquid
Fixed: Pressure, kPa = 100
Property: Viscosity, Pa*s (Liquid); method: Cone and plate viscometry
Temperature, K	Mole fraction of triethylheptylphosphonium 4-nitropyrazolide	Viscosity, Pa*s	uncertainty
278.15	0.901	0.761	0.1
278.15	0.75	0.474	0.061
278.15	0.5	0.234	0.029
278.15	0.248	0.135	0.017
278.15	0.101	0.103	0.013
278.15	0	0.084	0.01
283.15	0.901	0.51	0.066
283.15	0.75	0.328	0.041
283.15	0.5	0.17	0.021
283.15	0.248	0.101	0.012
283.15	0.101	0.08	0.01
283.15	0	0.065	0.008
288.15	0.901	0.35	0.044
288.15	0.75	0.231	0.029
288.15	0.5	0.126	0.015
288.15	0.248	0.078	0.009
288.15	0.101	0.062	0.008
288.15	0	0.051	0.006
293.15	0.901	0.249	0.031
293.15	0.75	0.168	0.021
293.15	0.5	0.096	0.012
293.15	0.248	0.061	0.007
293.15	0.101	0.05	0.006
298.15	0.901	0.182	0.022
298.15	0.75	0.126	0.015
298.15	0.5	0.075	0.009
298.15	0.248	0.05	0.006
303.15	0.901	0.137	0.017
303.15	0.75	0.097	0.012
303.15	0.5	0.059	0.007
308.15	0.901	0.105	0.013
308.15	0.75	0.076	0.009
313.15	0.901	0.084	0.01
313.15	0.75	0.061	0.007
318.15	0.901	0.066	0.008
318.15	0.75	0.05	0.006
323.15	0.901	0.054	0.007

System: trihexyl(tetradecyl)phosphonium bis[(trifluoromethyl)sulfonyl]imide + 1-hexyl-3-methylimidazolium 4-nitropyrazolide; phases: Liquid
Fixed: Pressure, kPa = 100
Property: Viscosity, Pa*s (Liquid); method: Cone and plate viscometry
Temperature, K	Mole fraction of 1-hexyl-3-methylimidazolium 4-nitropyrazolide	Viscosity, Pa*s	uncertainty
278.15	0.9	2.649	0.375
278.15	0.7	2.039	0.284
278.15	0.5	1.582	0.216
278.15	0.299	1.36	0.184
278.15	0.101	1.201	0.161
283.15	0.9	1.54	0.212
283.15	0.7	1.29	0.175
283.15	0.5	1.045	0.14
283.15	0.299	0.914	0.121
283.15	0.101	0.816	0.107
288.15	0.9	0.935	0.125
288.15	0.7	0.84	0.111
288.15	0.5	0.707	0.092
288.15	0.299	0.629	0.082
288.15	0.101	0.57	0.074
293.15	0.9	0.597	0.077
293.15	0.7	0.566	0.073
293.15	0.5	0.492	0.063
293.15	0.299	0.445	0.057
293.15	0.101	0.41	0.052
298.15	0.9	0.4	0.051
298.15	0.7	0.395	0.05
298.15	0.5	0.352	0.044
298.15	0.299	0.323	0.041
298.15	0.101	0.302	0.038
303.15	0.9	0.278	0.035
303.15	0.7	0.285	0.036
303.15	0.5	0.259	0.032
303.15	0.299	0.241	0.03
303.15	0.101	0.228	0.028
308.15	0.9	0.2	0.025
308.15	0.7	0.211	0.026
308.15	0.5	0.195	0.024
308.15	0.299	0.184	0.023
308.15	0.101	0.175	0.021
313.15	0.9	0.149	0.018
313.15	0.7	0.16	0.02
313.15	0.5	0.15	0.018
313.15	0.299	0.142	0.017
313.15	0.101	0.138	0.017
318.15	0.9	0.113	0.014
318.15	0.7	0.124	0.015
318.15	0.5	0.118	0.014
318.15	0.299	0.113	0.014
318.15	0.101	0.11	0.013
323.15	0.9	0.089	0.011
323.15	0.7	0.099	0.012
323.15	0.5	0.094	0.011
323.15	0.299	0.091	0.011
323.15	0.101	0.09	0.011

System: trihexyl(tetradecyl)phosphonium bis[(trifluoromethyl)sulfonyl]imide + 1-hexyl-3-methylimidazolium 4-nitropyrazolide; phases: Liquid
Fixed: Pressure, kPa = 100
Property: Mass density, kg/m3 (Liquid); method: Vibrating tube method
Temperature, K	Mole fraction of 1-hexyl-3-methylimidazolium 4-nitropyrazolide	Mass density, kg/m3	uncertainty
283.15	0.25	1081.8	4
288.15	0.25	1078.2	4
293.15	0.25	1074.6	4
295.15	0.25	1073.1	4
298.15	0.25	1071	4
303.15	0.25	1067.4	4
308.15	0.25	1063.8	4
313.15	0.25	1060.3	4
318.15	0.25	1056.8	4
323.15	0.25	1053.4	4
328.15	0.25	1049.9	4
333.15	0.25	1046.4	4
338.15	0.25	1042.9	4
343.15	0.25	1039.4	4
348.15	0.25	1035.9	4
353.15	0.25	1032.5	4
283.15	0.5	1090.7	4
288.15	0.5	1087.1	4
293.15	0.5	1083.6	4
295.15	0.5	1082.2	4
298.15	0.5	1080.1	4
303.15	0.5	1076.6	4
308.15	0.5	1073.1	4
313.15	0.5	1069.6	4
318.15	0.5	1066.2	4
323.15	0.5	1062.8	4
328.15	0.5	1059.4	4
333.15	0.5	1056	4
338.15	0.5	1052.6	4
343.15	0.5	1049.2	4
348.15	0.5	1045.8	4
353.15	0.5	1042.4	4
283.15	0.749	1105.6	4
288.15	0.749	1102	4
293.15	0.749	1098.5	4
295.15	0.749	1097.2	4
298.15	0.749	1095.2	4
303.15	0.749	1091.7	4
308.15	0.749	1088.3	4
313.15	0.749	1084.9	4
318.15	0.749	1081.6	4
323.15	0.749	1078.3	4
328.15	0.749	1075	4
333.15	0.749	1071.7	4
338.15	0.749	1068.3	4
343.15	0.749	1065	4
348.15	0.749	1061.7	4
353.15	0.749	1058.5	4

System: triethyloctylphosphonium bis(trifluoromethylsulfonyl)imide + 1-hexyl-3-methylimidazolium tetrazolide; phases: Liquid
Fixed: Pressure, kPa = 100
Property: Viscosity, Pa*s (Liquid); method: Cone and plate viscometry
Temperature, K	Mole fraction of 1-hexyl-3-methylimidazolium tetrazolide	Viscosity, Pa*s	uncertainty
278.15	0.9	1.778	0.247
278.15	0.699	0.989	0.133
278.15	0.6	0.903	0.12
278.15	0.5	0.696	0.091
278.15	0.403	0.591	0.077
278.15	0.303	0.499	0.064
278.15	0.101	0.404	0.051
283.15	0.9	1.117	0.152
283.15	0.699	0.664	0.087
283.15	0.6	0.608	0.079
283.15	0.5	0.478	0.062
283.15	0.403	0.409	0.052
283.15	0.303	0.347	0.044
283.15	0.101	0.286	0.036
288.15	0.9	0.725	0.096
288.15	0.699	0.453	0.058
288.15	0.6	0.414	0.053
288.15	0.5	0.334	0.042
288.15	0.403	0.289	0.036
288.15	0.303	0.246	0.031
288.15	0.101	0.206	0.026
293.15	0.9	0.489	0.063
293.15	0.699	0.316	0.04
293.15	0.6	0.29	0.037
293.15	0.5	0.24	0.03
293.15	0.403	0.209	0.026
293.15	0.303	0.179	0.022
293.15	0.101	0.153	0.019
298.15	0.9	0.341	0.043
298.15	0.699	0.227	0.028
298.15	0.6	0.211	0.026
298.15	0.5	0.175	0.022
298.15	0.403	0.156	0.019
298.15	0.303	0.135	0.017
298.15	0.101	0.116	0.014
303.15	0.9	0.247	0.031
303.15	0.699	0.166	0.021
303.15	0.6	0.156	0.019
303.15	0.5	0.129	0.016
303.15	0.403	0.119	0.015
303.15	0.303	0.104	0.013
303.15	0.101	0.09	0.011
308.15	0.9	0.183	0.023
308.15	0.699	0.125	0.015
308.15	0.6	0.119	0.015
308.15	0.5	0.1	0.012
308.15	0.403	0.093	0.011
308.15	0.303	0.082	0.01
308.15	0.101	0.072	0.009
313.15	0.9	0.139	0.017
313.15	0.699	0.097	0.012
313.15	0.6	0.093	0.011
313.15	0.5	0.078	0.01
313.15	0.403	0.074	0.009
313.15	0.303	0.066	0.008
313.15	0.101	0.058	0.007
318.15	0.9	0.108	0.013
318.15	0.699	0.077	0.009
318.15	0.6	0.074	0.009
318.15	0.5	0.063	0.008
318.15	0.403	0.061	0.007
318.15	0.303	0.053	0.006
323.15	0.9	0.086	0.011
323.15	0.699	0.063	0.008
323.15	0.6	0.061	0.007
323.15	0.5	0.052	0.006

System: 1-hexyl-2,3-dimethylimidazolium 4-nitropyrazolide + trihexyl(tetradecyl)phosphonium bis[(trifluoromethyl)sulfonyl]imide; phases: Liquid
Fixed: Pressure, kPa = 100
Property: Viscosity, Pa*s (Liquid); method: Cone and plate viscometry
Temperature, K	Mole fraction of 1-hexyl-2,3-dimethylimidazolium 4-nitropyrazolide	Viscosity, Pa*s	uncertainty
278.15	0.898	7.584	1.159
278.15	0.7	3.692	0.54
278.15	0.5	2.212	0.31
278.15	0.303	1.562	0.214
278.15	0.098	1.28	0.173
283.15	0.898	4.009	0.591
283.15	0.7	2.223	0.313
283.15	0.5	1.418	0.193
283.15	0.303	1.04	0.139
283.15	0.098	0.871	0.115
288.15	0.898	2.241	0.316
288.15	0.7	1.385	0.189
288.15	0.5	0.933	0.124
288.15	0.303	0.707	0.092
288.15	0.098	0.606	0.078
293.15	0.898	1.33	0.181
293.15	0.7	0.897	0.119
293.15	0.5	0.636	0.083
293.15	0.303	0.495	0.063
293.15	0.098	0.434	0.055
298.15	0.898	0.83	0.11
298.15	0.7	0.605	0.078
298.15	0.5	0.447	0.057
298.15	0.303	0.357	0.045
298.15	0.098	0.319	0.04
303.15	0.898	0.545	0.07
303.15	0.7	0.422	0.054
303.15	0.5	0.324	0.041
303.15	0.303	0.264	0.033
303.15	0.098	0.239	0.03
308.15	0.898	0.373	0.047
308.15	0.7	0.304	0.038
308.15	0.5	0.24	0.03
308.15	0.303	0.2	0.025
308.15	0.098	0.184	0.023
313.15	0.898	0.263	0.033
313.15	0.7	0.223	0.028
313.15	0.5	0.182	0.022
313.15	0.303	0.154	0.019
313.15	0.098	0.144	0.018
318.15	0.898	0.192	0.024
318.15	0.7	0.169	0.021
318.15	0.5	0.142	0.017
318.15	0.303	0.121	0.015
318.15	0.098	0.115	0.014
323.15	0.898	0.144	0.018
323.15	0.7	0.131	0.016
323.15	0.5	0.112	0.014
323.15	0.303	0.097	0.012
323.15	0.098	0.093	0.011

System: 1-hexyl-2,3-dimethylimidazolium 4-nitropyrazolide + trihexyl(tetradecyl)phosphonium bis[(trifluoromethyl)sulfonyl]imide; phases: Liquid
Fixed: Pressure, kPa = 100
Property: Mass density, kg/m3 (Liquid); method: Vibrating tube method
Temperature, K	Mole fraction of 1-hexyl-2,3-dimethylimidazolium 4-nitropyrazolide	Mass density, kg/m3	uncertainty
283.15	0.25	1081.8	12
288.15	0.25	1078.2	12
293.15	0.25	1074.6	12
295.15	0.25	1073.2	12
298.15	0.25	1071.1	12
303.15	0.25	1067.5	12
308.15	0.25	1063.9	12
313.15	0.25	1060.4	12
318.15	0.25	1057	12
323.15	0.25	1053.5	12
328.15	0.25	1050	12
333.15	0.25	1046.5	12
338.15	0.25	1043	12
343.15	0.25	1039.5	12
348.15	0.25	1036.1	12
353.15	0.25	1032.6	12
283.15	0.501	1090.2	12
288.15	0.501	1086.7	12
293.15	0.501	1083.2	12
295.15	0.501	1081.7	12
298.15	0.501	1079.7	12
303.15	0.501	1076.2	12
308.15	0.501	1072.7	12
313.15	0.501	1069.3	12
318.15	0.501	1065.9	12
323.15	0.501	1062.6	12
328.15	0.501	1059.2	12
333.15	0.501	1055.8	12
338.15	0.501	1052.4	12
343.15	0.501	1049	12
348.15	0.501	1045.7	12
353.15	0.501	1042.3	12
283.15	0.749	1104.2	12
288.15	0.749	1100.5	12
293.15	0.749	1097	12
295.15	0.749	1095.7	12
298.15	0.749	1093.6	12
303.15	0.749	1090.3	12
308.15	0.749	1086.9	12
313.15	0.749	1083.5	12
318.15	0.749	1080.2	12
323.15	0.749	1077	12
328.15	0.749	1073.7	12
333.15	0.749	1070.5	12
338.15	0.749	1067.2	12
343.15	0.749	1064	12
348.15	0.749	1060.7	12
353.15	0.749	1057.5	12

System: 1-hexyl-2,3-dimethylimidazolium 4-nitropyrazolide + triethyloctylphosphonium bis(trifluoromethylsulfonyl)imide; phases: Liquid
Fixed: Pressure, kPa = 100
Property: Viscosity, Pa*s (Liquid); method: Cone and plate viscometry
Temperature, K	Mole fraction of 1-hexyl-2,3-dimethylimidazolium 4-nitropyrazolide	Viscosity, Pa*s	uncertainty
278.15	0.899	6.554	0.992
278.15	0.701	2.252	0.324
278.15	0.499	0.992	0.134
278.15	0.299	0.62	0.081
278.15	0.101	0.401	0.051
283.15	0.899	3.416	0.499
283.15	0.701	1.345	0.184
283.15	0.499	0.636	0.083
283.15	0.299	0.421	0.054
283.15	0.101	0.284	0.036
288.15	0.899	1.886	0.264
288.15	0.701	0.836	0.111
288.15	0.499	0.423	0.054
288.15	0.299	0.293	0.037
288.15	0.101	0.204	0.025
293.15	0.899	1.108	0.149
293.15	0.701	0.543	0.07
293.15	0.499	0.292	0.037
293.15	0.299	0.211	0.026
293.15	0.101	0.151	0.019
298.15	0.899	0.689	0.09
298.15	0.701	0.369	0.047
298.15	0.499	0.209	0.026
298.15	0.299	0.156	0.019
298.15	0.101	0.115	0.014
303.15	0.899	0.45	0.058
303.15	0.701	0.259	0.032
303.15	0.499	0.154	0.019
303.15	0.299	0.12	0.015
303.15	0.101	0.09	0.011
308.15	0.899	0.307	0.039
308.15	0.701	0.188	0.023
308.15	0.499	0.118	0.014
308.15	0.299	0.093	0.011
308.15	0.101	0.072	0.009
313.15	0.899	0.216	0.027
313.15	0.701	0.14	0.017
313.15	0.499	0.091	0.011
313.15	0.299	0.074	0.009
313.15	0.101	0.057	0.007
318.15	0.899	0.157	0.019
318.15	0.701	0.107	0.013
318.15	0.499	0.072	0.009
318.15	0.299	0.06	0.007
323.15	0.899	0.119	0.015
323.15	0.701	0.084	0.01
323.15	0.499	0.059	0.007

System: triethyloctylphosphonium bis(trifluoromethylsulfonyl)imide + 1-hexyl-3-methylimidazolium 4-nitropyrazolide; phases: Liquid
Fixed: Pressure, kPa = 100
Property: Viscosity, Pa*s (Liquid); method: Cone and plate viscometry
Temperature, K	Mole fraction of 1-hexyl-3-methylimidazolium 4-nitropyrazolide	Viscosity, Pa*s	uncertainty
278.15	0.9	2.181	0.305
278.15	0.701	1.045	0.141
278.15	0.499	0.639	0.083
278.15	0.299	0.47	0.06
278.15	0.1	0.402	0.051
283.15	0.9	1.262	0.172
283.15	0.701	0.66	0.086
283.15	0.499	0.428	0.055
283.15	0.299	0.325	0.041
283.15	0.1	0.284	0.036
288.15	0.9	0.765	0.101
288.15	0.701	0.432	0.055
288.15	0.499	0.294	0.037
288.15	0.299	0.23	0.029
288.15	0.1	0.205	0.025
293.15	0.9	0.488	0.063
293.15	0.701	0.295	0.037
293.15	0.499	0.209	0.026
293.15	0.299	0.168	0.021
293.15	0.1	0.152	0.019
298.15	0.9	0.326	0.041
298.15	0.701	0.209	0.026
298.15	0.499	0.154	0.019
298.15	0.299	0.127	0.016
298.15	0.1	0.116	0.014
303.15	0.9	0.227	0.028
303.15	0.701	0.154	0.019
303.15	0.499	0.116	0.014
303.15	0.299	0.098	0.012
303.15	0.1	0.09	0.011
308.15	0.9	0.164	0.02
308.15	0.701	0.116	0.014
308.15	0.499	0.09	0.011
308.15	0.299	0.077	0.009
308.15	0.1	0.072	0.009
313.15	0.9	0.122	0.015
313.15	0.701	0.09	0.011
313.15	0.499	0.071	0.009
313.15	0.299	0.062	0.008
313.15	0.1	0.058	0.007
318.15	0.9	0.093	0.011
318.15	0.701	0.071	0.009
318.15	0.499	0.057	0.007
318.15	0.299	0.051	0.006
323.15	0.9	0.074	0.009
323.15	0.701	0.057	0.007

System: 1-butyl-2-methylpyrazolium bis(trifluoromethylsulfonyl)imide + S-hexyl-1,1,3,3-tetramethylthiouronium bis(trifluoromethylsulfonyl)imide; phases: Liquid
Fixed: Pressure, kPa = 100
Property: Mass density, kg/m3 (Liquid); method: Vibrating tube method
Temperature, K	Mole fraction of S-hexyl-1,1,3,3-tetramethylthiouronium bis(trifluoromethylsulfonyl)imide	Mass density, kg/m3	uncertainty
283.15	0.251	1431.2	12
288.15	0.251	1426.6	12
293.15	0.251	1421.9	12
295.15	0.251	1420.1	12
298.15	0.251	1417.3	12
303.15	0.251	1412.7	12
308.15	0.251	1408.1	12
313.15	0.251	1403.5	12
318.15	0.251	1398.9	12
323.15	0.251	1394.3	12
328.15	0.251	1389.7	12
333.15	0.251	1385.2	12
338.15	0.251	1380.6	12
343.15	0.251	1376.1	12
348.15	0.251	1371.6	12
353.15	0.251	1367.1	12
283.15	0.502	1400.4	12.1
288.15	0.502	1395.7	12.1
293.15	0.502	1391.4	12.1
295.15	0.502	1389.9	12.1
298.15	0.502	1387.4	12.1
303.15	0.502	1382	12.1
308.15	0.502	1377.6	12.1
313.15	0.502	1373.2	12.1
318.15	0.502	1368.8	12.1
323.15	0.502	1364.7	12.1
328.15	0.502	1360.4	12.1
333.15	0.502	1356	12.1
338.15	0.502	1351.7	12.1
343.15	0.502	1347.3	12.1
348.15	0.502	1342.8	12.1
353.15	0.502	1338.4	12.1
283.15	0.748	1375.8	12.2
288.15	0.748	1371.4	12.2
293.15	0.748	1366.9	12.2
295.15	0.748	1365.1	12.2
298.15	0.748	1362.4	12.2
303.15	0.748	1357.9	12.2
308.15	0.748	1353.5	12.2
313.15	0.748	1349	12.2
318.15	0.748	1344.6	12.2
323.15	0.748	1340.2	12.2
328.15	0.748	1335.8	12.2
333.15	0.748	1331.4	12.2
338.15	0.748	1327	12.2
343.15	0.748	1322.6	12.2
348.15	0.748	1318.3	12.2
353.15	0.748	1313.9	12.2

System: carbon dioxide + trihexyl(tetradecyl)phosphonium 1,2,3-triazolide; phases: Liquid, Gas
Fixed: Pressure, kPa = 100
Property: Viscosity, Pa*s (Liquid); method: Cone and plate viscometry
Temperature, K	Viscosity, Pa*s	uncertainty
278.15	2.286	0.32
283.15	1.496	0.204
288.15	1.005	0.134
293.15	0.696	0.091
298.15	0.496	0.063
303.15	0.361	0.046
308.15	0.27	0.034
313.15	0.22	0.027
318.15	0.159	0.019
323.15	0.126	0.015

System: carbon dioxide + 1-hexyl-3-methylimidazolium bis[(trifluoromethyl)sulfonyl]imide; phases: Liquid, Gas
Fixed: Pressure, kPa = 100
Property: Viscosity, Pa*s (Liquid); method: Cone and plate viscometry
Temperature, K	Viscosity, Pa*s	uncertainty
278.15	0.194	0.024
283.15	0.143	0.017
288.15	0.108	0.013
293.15	0.083	0.01
298.15	0.065	0.008
303.15	0.052	0.006
