Measured thermophysical data. Solubility of l-Phosphinothricin and Its Hydrochloride in Water + (Methanol and Ethanol) Binary Solvent Mixtures from 278.15 to 318.15 K
Source: J. Chem. Eng. Data, 2019, 10.1021/acs.jced.9b00004
Compound 1: (S)-phosphinothricin, C5H12NO4P, InChI=1S/C5H12NO4P/c1-11(9,10)3-2-4(6)5(7)8/h4H,2-3,6H2,1H3,(H,7,8)(H,9,10)/t4-/m0/s1
Compound 2: methanol, CH4O, InChI=1S/CH4O/c1-2/h2H,1H3, purity 99.5%
Compound 3: water, H2O, InChI=1S/H2O/h1H2, purity 99.8%
Compound 4: ethanol, C2H6O, InChI=1S/C2H6O/c1-2-3/h3H,2H2,1H3, purity 99.7%
Compound 5: (S)-phosphinothricin hydrochloride, C5H13ClNO4P, InChI=1S/C5H12NO4P.ClH/c1-11(9,10)3-2-4(6)5(7)8;/h4H,2-3,6H2,1H3,(H,7,8)(H,9,10);1H/t4-;/m0./s1
Compound 6: (.+-.)-phenylalanine, C9H11NO2, InChI=1S/C9H11NO2/c10-8(9(11)12)6-7-4-2-1-3-5-7/h1-5,8H,6,10H2,(H,11,12), purity 99%

System: (S)-phosphinothricin + methanol + water; phases: Liquid, Crystal
Fixed: Pressure, kPa = 100
Property: Mole fraction of (S)-phosphinothricin (Liquid); method: gravimetric
Solvent: Mole fraction of methanol	Temperature, K	Mole fraction of (S)-phosphinothricin	uncertainty
0	278.15	0.0267	0.00801
0	283.15	0.0299	0.00897
0	288.15	0.03255	0.00977
0	293.15	0.03718	0.01115
0	298.15	0.04179	0.01254
0	303.15	0.0487	0.01461
0	308.15	0.05593	0.01678
0	313.15	0.0641	0.01923
0	318.15	0.0733	0.02199
0.2726	278.15	0.00871	0.00262
0.2726	283.15	0.00972	0.00293
0.2726	288.15	0.01055	0.00318
0.2726	293.15	0.01228	0.0037
0.2726	298.15	0.01364	0.00411
0.2726	303.15	0.01595	0.0048
0.2726	308.15	0.01832	0.00552
0.2726	313.15	0.02138	0.00644
0.2726	318.15	0.02461	0.00742
0.6922	278.15	0.00063	0.00019
0.6922	283.15	0.00072	0.00022
0.6922	288.15	0.0008	0.00025
0.6922	293.15	0.00087	0.00027
0.6922	298.15	0.00098	0.0003
0.6922	303.15	0.00107	0.00033
0.6922	308.15	0.00127	0.00039
0.6922	313.15	0.00142	0.00044
0.6922	318.15	0.00163	0.0005
1	278.15	0.00017	5e-05
1	283.15	0.00018	5e-05
1	288.15	0.00019	6e-05
1	293.15	0.00021	6e-05
1	298.15	0.00022	7e-05
1	303.15	0.00024	7e-05
1	308.15	0.00026	8e-05
1	313.15	0.00027	8e-05
1	318.15	0.00029	9e-05
0.1232	278.15	0.01732	0.0052
0.1232	283.15	0.01953	0.00586
0.1232	288.15	0.02101	0.00631
0.1232	293.15	0.02428	0.00729
0.1232	298.15	0.02731	0.0082
0.1232	303.15	0.03187	0.00957
0.1232	308.15	0.03673	0.01102
0.1232	313.15	0.0425	0.01276
0.1232	318.15	0.04893	0.01469
0.4575	278.15	0.00277	0.00085
0.4575	283.15	0.00311	0.00095
0.4575	288.15	0.00335	0.00103
0.4575	293.15	0.00383	0.00117
0.4575	298.15	0.00425	0.0013
0.4575	303.15	0.00502	0.00154
0.4575	308.15	0.00576	0.00176
0.4575	313.15	0.00642	0.00197
0.4575	318.15	0.00723	0.00223
0.835	278.15	0.00034	0.0001
0.835	283.15	0.00038	0.00011
0.835	288.15	0.00041	0.00012
0.835	293.15	0.00045	0.00014
0.835	298.15	0.00049	0.00015
0.835	303.15	0.00052	0.00016
0.835	308.15	0.0006	0.00018
0.835	313.15	0.00063	0.00019
0.835	318.15	0.00069	0.00021

System: (S)-phosphinothricin + ethanol + water; phases: Liquid, Crystal
Fixed: Pressure, kPa = 100
Property: Mole fraction of (S)-phosphinothricin (Liquid); method: gravimetric
Solvent: Mole fraction of ethanol	Temperature, K	Mole fraction of (S)-phosphinothricin	uncertainty
0.1099	278.15	0.01178	0.00354
0.1099	283.15	0.01389	0.00417
0.1099	288.15	0.01577	0.00474
0.1099	293.15	0.01887	0.00567
0.1099	298.15	0.02113	0.00635
0.1099	303.15	0.02301	0.00691
0.1099	308.15	0.02539	0.00763
0.1099	313.15	0.02822	0.00848
0.1099	318.15	0.03173	0.00954
0.2833	278.15	0.00309	0.00094
0.2833	283.15	0.00385	0.00117
0.2833	288.15	0.00457	0.00139
0.2833	293.15	0.00522	0.00159
0.2833	298.15	0.00629	0.00191
0.2833	303.15	0.00711	0.00216
0.2833	308.15	0.00832	0.00252
0.2833	313.15	0.00992	0.003
0.2833	318.15	0.01149	0.00348
0.4296	278.15	0.00112	0.00034
0.4296	283.15	0.00138	0.00042
0.4296	288.15	0.00159	0.00049
0.4296	293.15	0.00177	0.00054
0.4296	298.15	0.00199	0.00061
0.4296	303.15	0.00216	0.00067
0.4296	308.15	0.00246	0.00076
0.4296	313.15	0.00275	0.00085
0.4296	318.15	0.0031	0.00096
0.2	278.15	0.00626	0.00189
0.2	283.15	0.00735	0.00222
0.2	288.15	0.00846	0.00255
0.2	293.15	0.01004	0.00303
0.2	298.15	0.01182	0.00356
0.2	303.15	0.01357	0.00409
0.2	308.15	0.01468	0.00442
0.2	313.15	0.01642	0.00494
0.2	318.15	0.01901	0.00572
0.35	278.15	0.00209	0.00063
0.35	283.15	0.00253	0.00077
0.35	288.15	0.00292	0.00089
0.35	293.15	0.00336	0.00102
0.35	298.15	0.00372	0.00113
0.35	303.15	0.00423	0.00129
0.35	308.15	0.00486	0.00148
0.35	313.15	0.0056	0.00171
0.35	318.15	0.00626	0.00192
0.5366	278.15	0.00038	0.00013
0.5366	283.15	0.00045	0.00016
0.5366	288.15	0.00056	0.00019
0.5366	293.15	0.00066	0.00022
0.5366	298.15	0.00075	0.00025
0.5366	303.15	0.00084	0.00028
0.5366	308.15	0.00097	0.00032
0.5366	313.15	0.00108	0.00036
0.5366	318.15	0.00117	0.00039
0	278.15	0.0267	0.00801
0	283.15	0.0299	0.00897
0	288.15	0.03255	0.00977
0	293.15	0.03718	0.01115
0	298.15	0.04179	0.01254
0	303.15	0.0487	0.01461
0	308.15	0.05593	0.01678
0	313.15	0.0641	0.01923
0	318.15	0.0733	0.02199

System: (S)-phosphinothricin hydrochloride + methanol + water; phases: Liquid, Crystal
Fixed: Pressure, kPa = 100
Property: Mole fraction of (S)-phosphinothricin hydrochloride (Liquid); method: gravimetric
Solvent: Mole fraction of methanol	Temperature, K	Mole fraction of (S)-phosphinothricin hydrochloride	uncertainty
0	278.15	0.05756	0.01727
0	283.15	0.05889	0.01767
0	288.15	0.06163	0.01849
0	293.15	0.06584	0.01975
0	298.15	0.06762	0.02029
0	303.15	0.07109	0.02133
0	308.15	0.07308	0.02192
0	313.15	0.07708	0.02312
0	318.15	0.08174	0.02452
0.2726	278.15	0.0459	0.01377
0.2726	283.15	0.04734	0.0142
0.2726	288.15	0.05028	0.01509
0.2726	293.15	0.0527	0.01581
0.2726	298.15	0.0539	0.01617
0.2726	303.15	0.05639	0.01692
0.2726	308.15	0.05764	0.01729
0.2726	313.15	0.05988	0.01797
0.2726	318.15	0.06362	0.01909
0.6922	278.15	0.02269	0.00682
0.6922	283.15	0.02401	0.00721
0.6922	288.15	0.02669	0.00802
0.6922	293.15	0.02801	0.00841
0.6922	298.15	0.02961	0.00889
0.6922	303.15	0.03298	0.0099
0.6922	308.15	0.03575	0.01073
0.6922	313.15	0.0384	0.01153
0.6922	318.15	0.04043	0.01214
1	278.15	0.00996	0.00299
1	283.15	0.01089	0.00327
1	288.15	0.01135	0.00341
1	293.15	0.01186	0.00356
1	298.15	0.01268	0.0038
1	303.15	0.01337	0.00401
1	308.15	0.01404	0.00421
1	313.15	0.0147	0.00441
1	318.15	0.01598	0.00479
0.1232	278.15	0.05036	0.01511
0.1232	283.15	0.05154	0.01546
0.1232	288.15	0.05401	0.0162
0.1232	293.15	0.0572	0.01716
0.1232	298.15	0.06075	0.01823
0.1232	303.15	0.06316	0.01895
0.1232	308.15	0.06578	0.01974
0.1232	313.15	0.06776	0.02033
0.1232	318.15	0.0705	0.02115
0.4575	278.15	0.03714	0.01115
0.4575	283.15	0.0384	0.01153
0.4575	288.15	0.04098	0.01231
0.4575	293.15	0.04384	0.01316
0.4575	298.15	0.04772	0.01433
0.4575	303.15	0.04939	0.01483
0.4575	308.15	0.05273	0.01583
0.4575	313.15	0.05569	0.01671
0.4575	318.15	0.05778	0.01734
0.835	278.15	0.01693	0.00508
0.835	283.15	0.01773	0.00532
0.835	288.15	0.01912	0.00574
0.835	293.15	0.02065	0.0062
0.835	298.15	0.02143	0.00643
0.835	303.15	0.02361	0.00709
0.835	308.15	0.02584	0.00776
0.835	313.15	0.02768	0.00831
0.835	318.15	0.02992	0.00898

System: (S)-phosphinothricin hydrochloride + ethanol + water; phases: Liquid, Crystal
Fixed: Pressure, kPa = 100
Property: Mole fraction of (S)-phosphinothricin hydrochloride (Liquid); method: gravimetric
Solvent: Mole fraction of ethanol	Temperature, K	Mole fraction of (S)-phosphinothricin hydrochloride	uncertainty
0.0891	278.15	0.04754	0.01426
0.0891	283.15	0.0488	0.01464
0.0891	288.15	0.05062	0.01519
0.0891	293.15	0.05276	0.01583
0.0891	298.15	0.05585	0.01676
0.0891	303.15	0.05777	0.01733
0.0891	308.15	0.06114	0.01834
0.0891	313.15	0.06383	0.01915
0.0891	318.15	0.06692	0.02008
0.3697	278.15	0.03054	0.00918
0.3697	283.15	0.03187	0.00958
0.3697	288.15	0.03427	0.0103
0.3697	293.15	0.03765	0.01131
0.3697	298.15	0.04144	0.01244
0.3697	303.15	0.0437	0.01312
0.3697	308.15	0.04761	0.01429
0.3697	313.15	0.05077	0.01524
0.3697	318.15	0.05379	0.01615
0.7787	278.15	0.00716	0.00215
0.7787	283.15	0.00781	0.00235
0.7787	288.15	0.00871	0.00262
0.7787	293.15	0.00951	0.00286
0.7787	298.15	0.01041	0.00313
0.7787	303.15	0.01125	0.00338
0.7787	308.15	0.01281	0.00385
0.7787	313.15	0.01392	0.00419
0.7787	318.15	0.01552	0.00467
0.2068	278.15	0.04322	0.01297
0.2068	283.15	0.04487	0.01346
0.2068	288.15	0.04577	0.01373
0.2068	293.15	0.04817	0.01445
0.2068	298.15	0.05048	0.01515
0.2068	303.15	0.05291	0.01587
0.2068	308.15	0.05438	0.01632
0.2068	313.15	0.05702	0.01711
0.2068	318.15	0.06177	0.01853
0.61	278.15	0.01455	0.00439
0.61	283.15	0.01567	0.00472
0.61	288.15	0.01696	0.00511
0.61	293.15	0.01899	0.00572
0.61	298.15	0.02123	0.0064
0.61	303.15	0.02371	0.00714
0.61	308.15	0.02657	0.008
0.61	313.15	0.02901	0.00873
0.61	318.15	0.0329	0.0099
1	278.15	0.00133	0.0004
1	283.15	0.00143	0.00043
1	288.15	0.00148	0.00044
1	293.15	0.00154	0.00046
1	298.15	0.00169	0.00051
1	303.15	0.00175	0.00053
1	308.15	0.00187	0.00056
1	313.15	0.00192	0.00058
1	318.15	0.00206	0.00062

System: (S)-phosphinothricin + water; phases: Liquid, Crystal
Fixed: Pressure, kPa = 100
Property: Mole fraction of (S)-phosphinothricin (Liquid); method: gravimetric
Temperature, K	Mole fraction of (S)-phosphinothricin	uncertainty
278.15	0.0267	0.00801
283.15	0.0299	0.00897
288.15	0.03255	0.00977
293.15	0.03718	0.01115
298.15	0.04179	0.01254
303.15	0.0487	0.01461
308.15	0.05593	0.01678
313.15	0.0641	0.01923
318.15	0.0733	0.02199

System: (S)-phosphinothricin + methanol; phases: Liquid, Crystal
Fixed: Pressure, kPa = 100
Property: Mole fraction of (S)-phosphinothricin (Liquid); method: gravimetric
Temperature, K	Mole fraction of (S)-phosphinothricin	uncertainty
278.15	0.00017	5e-05
283.15	0.00018	5e-05
288.15	0.00019	6e-05
293.15	0.00021	6e-05
298.15	0.00022	7e-05
303.15	0.00024	7e-05
308.15	0.00026	8e-05
313.15	0.00027	8e-05
318.15	0.00029	9e-05

System: (S)-phosphinothricin hydrochloride + water; phases: Liquid, Crystal
Fixed: Pressure, kPa = 100
Property: Mole fraction of (S)-phosphinothricin hydrochloride (Liquid); method: gravimetric
Temperature, K	Mole fraction of (S)-phosphinothricin hydrochloride	uncertainty
278.15	0.05756	0.01727
283.15	0.05889	0.01767
288.15	0.06163	0.01849
293.15	0.06584	0.01975
298.15	0.06762	0.02029
303.15	0.07109	0.02133
308.15	0.07308	0.02192
313.15	0.07708	0.02312
318.15	0.08174	0.02452

System: (S)-phosphinothricin hydrochloride + methanol; phases: Liquid, Crystal
Fixed: Pressure, kPa = 100
Property: Mole fraction of (S)-phosphinothricin hydrochloride (Liquid); method: gravimetric
Temperature, K	Mole fraction of (S)-phosphinothricin hydrochloride	uncertainty
278.15	0.00996	0.00299
283.15	0.01089	0.00327
288.15	0.01135	0.00341
293.15	0.01186	0.00356
298.15	0.01268	0.0038
303.15	0.01337	0.00401
308.15	0.01404	0.00421
313.15	0.0147	0.00441
318.15	0.01598	0.00479

System: (S)-phosphinothricin hydrochloride + ethanol; phases: Liquid, Crystal
Fixed: Pressure, kPa = 100
Property: Mole fraction of (S)-phosphinothricin hydrochloride (Liquid); method: gravimetric
Temperature, K	Mole fraction of (S)-phosphinothricin hydrochloride	uncertainty
278.15	0.00133	0.0004
283.15	0.00143	0.00043
288.15	0.00148	0.00044
293.15	0.00154	0.00046
298.15	0.00169	0.00051
303.15	0.00175	0.00053
308.15	0.00187	0.00056
313.15	0.00192	0.00058
318.15	0.00206	0.00062

System: (.+-.)-phenylalanine + water; phases: Liquid, Crystal
Fixed: Pressure, kPa = 100
Property: Molality, mol/kg of (.+-.)-phenylalanine (Liquid); method: gravimetric
Temperature, K	Molality, mol/kg of (.+-.)-phenylalanine	uncertainty
288.15	0.07727	0.02318
293.15	0.08144	0.02443
298.15	0.08698	0.02609
303.15	0.09174	0.02752
308.15	0.09458	0.02837
