Measured thermophysical data. Determination of Physicochemical Parameters of Sodium Dodecyl Sulfate in Aqueous Micellar Solutions Containing Short-Chain Alcohols
Source: J. Chem. Eng. Data, 2018, 10.1021/acs.jced.8b00181
Compound 1: sodium dodecyl sulfate, C12H25NaO4S, InChI=1S/C12H26O4S.Na/c1-2-3-4-5-6-7-8-9-10-11-12-16-17(13,14)15;/h2-12H2,1H3,(H,13,14,15);/q;+1/p-1, purity 99%
Compound 2: ethanol, C2H6O, InChI=1S/C2H6O/c1-2-3/h3H,2H2,1H3, purity 99.9%
Compound 3: propan-1-ol, C3H8O, InChI=1S/C3H8O/c1-2-3-4/h4H,2-3H2,1H3, purity 99.5%
Compound 4: propan-2-ol, C3H8O, InChI=1S/C3H8O/c1-3(2)4/h3-4H,1-2H3, purity 99.9%
Compound 5: water, H2O, InChI=1S/H2O/h1H2, purity 99.8%

System: ethanol; phases: Liquid
Property: Refractive index (Na D-line) (Liquid); method: Standard Abbe refractometry
Temperature, K	Pressure, kPa	Refractive index (Na D-line)	uncertainty
298	101.325	1.36	0.0007

System: propan-1-ol; phases: Liquid
Property: Refractive index (Na D-line) (Liquid); method: Standard Abbe refractometry
Temperature, K	Pressure, kPa	Refractive index (Na D-line)	uncertainty
298	101.325	1.3834	0.0007

System: propan-2-ol; phases: Liquid
Property: Refractive index (Na D-line) (Liquid); method: Standard Abbe refractometry
Temperature, K	Pressure, kPa	Refractive index (Na D-line)	uncertainty
298	101.325	1.3758	0.0007

System: water; phases: Liquid
Property: Refractive index (Na D-line) (Liquid); method: Standard Abbe refractometry
Temperature, K	Pressure, kPa	Refractive index (Na D-line)	uncertainty
298	101.325	1.3327	0.0007

System: water; phases: Liquid
Property: Electrical conductivity, S/m (Liquid); method: Alternating current cell with electrodes
Temperature, K	Pressure, kPa	Frequency, MHz	Electrical conductivity, S/m	uncertainty
298	100	0.001	0.000502	0.0005

System: propan-2-ol + water; phases: Liquid
Fixed: Temperature, K = 298
Fixed: Pressure, kPa = 100
Property: Refractive index (Na D-line) (Liquid); method: Standard Abbe refractometry
Molality, mol/kg of propan-2-ol	Refractive index (Na D-line)	uncertainty
0.85	1.3374	0.0007
1.45	1.3408	0.0007
2.84	1.3467	0.0007
4.36	1.3511	0.0007
8.72	1.361	0.0007
13.08	1.365	0.0007

System: propan-2-ol + water; phases: Liquid
Fixed: Temperature, K = 298
Fixed: Pressure, kPa = 100
Fixed: Frequency, MHz = 0.001
Property: Electrical conductivity, S/m (Liquid); method: Alternating current cell with electrodes
Molality, mol/kg of propan-2-ol	Electrical conductivity, S/m	uncertainty
0.85	0.000134	0.0005
1.45	0.000141	0.0005
2.84	8.2e-05	0.0005
4.36	9.4e-05	0.0005
8.72	5e-05	0.0005
13.08	4.7e-05	0.0005

System: propan-1-ol + water; phases: Liquid
Fixed: Temperature, K = 298
Fixed: Pressure, kPa = 100
Property: Refractive index (Na D-line) (Liquid); method: Standard Abbe refractometry
Molality, mol/kg of propan-1-ol	Refractive index (Na D-line)	uncertainty
0.87	1.3381	0.0007
1.49	1.3414	0.0007
2.76	1.3465	0.0007
4.29	1.3516	0.0007
6.77	1.3572	0.0007

System: propan-1-ol + water; phases: Liquid
Fixed: Temperature, K = 298
Fixed: Pressure, kPa = 100
Fixed: Frequency, MHz = 0.001
Property: Electrical conductivity, S/m (Liquid); method: Alternating current cell with electrodes
Molality, mol/kg of propan-1-ol	Electrical conductivity, S/m	uncertainty
0.87	0.000153	0.0005
1.49	0.000145	0.0005
2.76	0.000111	0.0005
4.29	0.000117	0.0005
6.77	0.000143	0.0005

System: ethanol + water; phases: Liquid
Fixed: Temperature, K = 298
Fixed: Pressure, kPa = 100
Property: Refractive index (Na D-line) (Liquid); method: Standard Abbe refractometry
Molality, mol/kg of ethanol	Refractive index (Na D-line)	uncertainty
0.9	1.3362	0.0007
1.46	1.3375	0.0007
2.69	1.34	0.0007
4.09	1.3431	0.0007
7.59	1.3497	0.0007
9.51	1.3521	0.0007

System: ethanol + water; phases: Liquid
Fixed: Temperature, K = 298
Fixed: Pressure, kPa = 100
Fixed: Frequency, MHz = 0.001
Property: Electrical conductivity, S/m (Liquid); method: Alternating current cell with electrodes
Molality, mol/kg of ethanol	Electrical conductivity, S/m	uncertainty
0.9	0.000248	0.0005
1.46	0.000259	0.0005
2.69	0.000287	0.0005
4.09	0.000311	0.0005
7.59	0.000251	0.0005
9.51	0.000252	0.0005

System: propan-2-ol + water + sodium dodecyl sulfate; phases: Liquid
Fixed: Temperature, K = 298
Fixed: Pressure, kPa = 100
Fixed: Molality, mol/kg of sodium dodecyl sulfate = 0.1
Property: Refractive index (Na D-line) (Liquid); method: Standard Abbe refractometry
Solvent: Molality, mol/kg of propan-2-ol	Refractive index (Na D-line)	uncertainty
0.85	1.3401	0.0007
1.45	1.3434	0.0007
2.84	1.3492	0.0007
4.36	1.3539	0.0007
8.72	1.3632	0.0007
13.08	1.3671	0.0007

System: propan-2-ol + water + sodium dodecyl sulfate; phases: Liquid
Fixed: Temperature, K = 298
Fixed: Pressure, kPa = 100
Fixed: Frequency, MHz = 0.001
Property: Electrical conductivity, S/m (Liquid); method: Alternating current cell with electrodes
Molality, mol/kg of sodium dodecyl sulfate	Solvent: Molality, mol/kg of propan-2-ol	Electrical conductivity, S/m	uncertainty
0	0.85	0.000134	0.000601
0.00093	0.85	0.007885	0.000603
0.00186	0.85	0.01537	0.00061
0.00279	0.85	0.02269	0.00061
0.00372	0.85	0.029653	0.000617
0.00464	0.85	0.036445	0.000626
0.00557	0.85	0.042402	0.000624
0.0065	0.85	0.0476	0.0006
0.00743	0.85	0.05246	0.00061
0.00836	0.85	0.05705	0.00065
0.00929	0.85	0.06145	0.00067
0.01022	0.85	0.06564	0.0007
0.01115	0.85	0.06995	0.00074
0.01208	0.85	0.07395	0.00076
0.013	0.85	0.0779	0.0008
0.01393	0.85	0.081725	0.000835
0.01486	0.85	0.085455	0.000869
0.01579	0.85	0.089055	0.000905
0.01672	0.85	0.092785	0.000944
0.01765	0.85	0.09668	0.00098
0	1.45	0.000141	0.000576
0.00113	1.45	0.008206	0.000577
0.00226	1.45	0.01611	0.00058
0.00339	1.45	0.024073	0.000592
0.00452	1.45	0.03145	0.00059
0.00565	1.45	0.038335	0.000597
0.00677	1.45	0.044924	0.000597
0.0079	1.45	0.0512	0.0006
0.00903	1.45	0.05717	0.00066
0.01016	1.45	0.06293	0.00071
0.01129	1.45	0.06838	0.00076
0.01242	1.45	0.07407	0.00081
0.01355	1.45	0.07939	0.00085
0.01468	1.45	0.08482	0.0009
0.01581	1.45	0.08983	0.00095
0.01694	1.45	0.09472	0.00099
0.01807	1.45	0.09964	0.00104
0.01919	1.45	0.10411	0.0011
0.02032	1.45	0.10883	0.00115
0.02145	1.45	0.11364	0.0012
0.02258	1.45	0.11788	0.00124
0.02371	1.45	0.12211	0.00128
0.02484	1.45	0.12619	0.00132
0.02597	1.45	0.13054	0.00136
0	2.84	8.2e-05	0.000547
0.00112	2.84	0.006304	0.00055
0.00223	2.84	0.012558	0.000554
0.00335	2.84	0.018765	0.000562
0.00446	2.84	0.0249	0.0006
0.00558	2.84	0.030852	0.000576
0.0067	2.84	0.036676	0.000582
0.00781	2.84	0.042205	0.000587
0.00893	2.84	0.047585	0.000586
0.01004	2.84	0.052835	0.000616
0.01116	2.84	0.05799	0.00066
0.01228	2.84	0.063025	0.000716
0.01339	2.84	0.06809	0.00076
0.01451	2.84	0.073	0.0008
0.01562	2.84	0.07803	0.00086
0.01674	2.84	0.08277	0.00091
0.01785	2.84	0.08741	0.00095
0.01897	2.84	0.09191	0.00099
0.02009	2.84	0.09632	0.00104
0.0212	2.84	0.10077	0.00108
0.02232	2.84	0.105135	0.001118
0.02343	2.84	0.108835	0.001153
0.02455	2.84	0.113	0.0012
0.02567	2.84	0.1177	0.0012
0	4.36	9.4e-05	0.000531
0.00119	4.36	0.005442	0.000531
0.00239	4.36	0.010703	0.00053
0.00358	4.36	0.015858	0.000531
0.00477	4.36	0.021107	0.000532
0.00596	4.36	0.02614	0.00053
0.00716	4.36	0.031324	0.000536
0.00835	4.36	0.03635	0.00054
0.00954	4.36	0.041323	0.000553
0.01073	4.36	0.04622	0.00056
0.01193	4.36	0.05093	0.00057
0.01312	4.36	0.05572	0.00061
0.01431	4.36	0.06052	0.00066
0.0155	4.36	0.06514	0.0007
0.0167	4.36	0.06982	0.00075
0.01789	4.36	0.07437	0.00079
0.01908	4.36	0.079	0.0008
0.02027	4.36	0.0835	0.0009
0.02147	4.36	0.08783	0.00093
0.02266	4.36	0.09246	0.00098
0.02385	4.36	0.09698	0.00102
0.02504	4.36	0.10142	0.00107
0.02624	4.36	0.10541	0.00111
0.02743	4.36	0.10978	0.00115
0	8.72	5e-05	0.00052
0.00124	8.72	0.0040307	0.0005158
0.00249	8.72	0.007905	0.000515
0.00373	8.72	0.011712	0.000515
0.00497	8.72	0.015448	0.000515
0.00622	8.72	0.019065	0.000515
0.00746	8.72	0.022618	0.000516
0.0087	8.72	0.026165	0.000518
0.00994	8.72	0.029683	0.000518
0.01119	8.72	0.033075	0.00052
0.01243	8.72	0.036498	0.000521
0.01367	8.72	0.03982	0.00052
0.01492	8.72	0.043083	0.000525
0.01616	8.72	0.046465	0.000527
0.0174	8.72	0.04981	0.00053
0.01865	8.72	0.05303	0.00056
0.01989	8.72	0.05608	0.00059
0.02113	8.72	0.05917	0.00062
0.02237	8.72	0.0623	0.0007
0.02362	8.72	0.06534	0.00069
0.02486	8.72	0.06855	0.00072
0.0261	8.72	0.07152	0.00075
0.02735	8.72	0.07471	0.00079
0.02811	8.72	0.07623	0.00091
0	13.08	4.7e-05	0.000512
0.0013	13.08	0.003582	0.000512
0.00259	13.08	0.007127	0.000511
0.00389	13.08	0.010528	0.000511
0.00519	13.08	0.01392	0.00051
0.00649	13.08	0.017215	0.00051
0.00778	13.08	0.020414	0.00051
0.00908	13.08	0.02347	0.00051
0.01038	13.08	0.026556	0.00051
0.01167	13.08	0.029625	0.000511
0.01297	13.08	0.03265	0.00051
0.01427	13.08	0.03557	0.00051
0.01557	13.08	0.038407	0.000511
0.01686	13.08	0.041215	0.000512
0.01816	13.08	0.044	0.0005
0.01946	13.08	0.046946	0.000514
0.02076	13.08	0.049883	0.000514
0.02205	13.08	0.05259	0.00054
0.02335	13.08	0.05551	0.00057
0.02465	13.08	0.05861	0.0006
0.02594	13.08	0.06121	0.00062
0.02724	13.08	0.0642	0.0007
0.02854	13.08	0.06685	0.00068
0.02933	13.08	0.06835	0.00069

System: propan-1-ol + water + sodium dodecyl sulfate; phases: Liquid
Fixed: Temperature, K = 298
Fixed: Pressure, kPa = 100
Fixed: Molality, mol/kg of sodium dodecyl sulfate = 0.1
Property: Refractive index (Na D-line) (Liquid); method: Standard Abbe refractometry
Solvent: Molality, mol/kg of propan-1-ol	Refractive index (Na D-line)	uncertainty
0.87	1.3407	0.0007
1.49	1.3439	0.0007
2.76	1.349	0.0007
4.29	1.3541	0.0007
6.77	1.3597	0.0007

System: propan-1-ol + water + sodium dodecyl sulfate; phases: Liquid
Fixed: Temperature, K = 298
Fixed: Pressure, kPa = 100
Fixed: Frequency, MHz = 0.001
Property: Electrical conductivity, S/m (Liquid); method: Alternating current cell with electrodes
Molality, mol/kg of sodium dodecyl sulfate	Solvent: Molality, mol/kg of propan-1-ol	Electrical conductivity, S/m	uncertainty
0	0	0.000502	0.00062
0.00099	0	0.009565	0.000619
0.00198	0	0.018294	0.000622
0.00297	0	0.02706	0.00063
0.00396	0	0.03568	0.00065
0.00495	0	0.044326	0.000672
0.00594	0	0.05276	0.00073
0.00693	0	0.06102	0.00089
0.00792	0	0.06837	0.00095
0.00891	0	0.07395	0.00096
0.0099	0	0.07768	0.00095
0.01089	0	0.08131	0.00095
0.01188	0	0.08462	0.00094
0.01287	0	0.08782	0.00094
0.01386	0	0.09108	0.00096
0	0.87	0.000153	0.000592
0.00092	0.87	0.0075345	0.000595
0.00184	0.87	0.014654	0.000597
0.00277	0.87	0.021735	0.000597
0.00369	0.87	0.028693	0.000604
0.00461	0.87	0.035066	0.000618
0.00553	0.87	0.041034	0.000641
0.00645	0.87	0.04673	0.00067
0.00738	0.87	0.05211	0.00067
0.0083	0.87	0.05721	0.00071
0.00922	0.87	0.0622	0.0008
0.01014	0.87	0.066985	0.000771
0.01106	0.87	0.071765	0.000798
0.01199	0.87	0.07662	0.00083
0.01291	0.87	0.08103	0.00084
0.01383	0.87	0.08519	0.00087
0.01475	0.87	0.08863	0.00093
0.01567	0.87	0.09195	0.001
0.0166	0.87	0.095275	0.001082
0.01752	0.87	0.098535	0.00111
0.01844	0.87	0.101425	0.001204
0.01936	0.87	0.104315	0.001298
0.02028	0.87	0.10724	0.00139
0.0212	0.87	0.110055	0.001481
0	1.49	0.000145	0.000577
0.00113	1.49	0.0082725	0.0005861
0.00226	1.49	0.01706	0.00059
0.00339	1.49	0.025198	0.000591
0.00452	1.49	0.032945	0.000597
0.00566	1.49	0.040544	0.000605
0.00679	1.49	0.0481	0.0006
0.00792	1.49	0.05498	0.00064
0.00905	1.49	0.06156	0.0007
0.01018	1.49	0.067955	0.000759
0.01131	1.49	0.07446	0.00082
0.01244	1.49	0.080285	0.000878
0.01357	1.49	0.08672	0.00092
0.0147	1.49	0.0924	0.001
0.01584	1.49	0.0983	0.001
0.01697	1.49	0.104235	0.001093
0.0181	1.49	0.110225	0.001128
0.01923	1.49	0.115725	0.001181
0.02036	1.49	0.121115	0.001236
0.02149	1.49	0.12619	0.00129
0.02262	1.49	0.13133	0.0014
0.02375	1.49	0.136515	0.001446
0.02488	1.49	0.14144	0.00149
0.02558	1.49	0.144055	0.001522
0	2.76	0.000111	0.000547
0.00112	2.76	0.006342	0.000553
0.00223	2.76	0.012985	0.000563
0.00335	2.76	0.019584	0.000573
0.00447	2.76	0.025855	0.000587
0.00558	2.76	0.032215	0.000604
0.0067	2.76	0.03838	0.00062
0.00782	2.76	0.044975	0.000637
0.00893	2.76	0.050855	0.000651
0.01005	2.76	0.056455	0.000702
0.01117	2.76	0.06237	0.00077
0.01228	2.76	0.067925	0.000823
0.0134	2.76	0.07388	0.00089
0.01452	2.76	0.079355	0.000944
0.01563	2.76	0.08459	0.001
0.01675	2.76	0.090085	0.00106
0.01787	2.76	0.095455	0.001118
0.01898	2.76	0.10079	0.00117
0.0201	2.76	0.10596	0.00122
0.02122	2.76	0.11083	0.00127
0.02233	2.76	0.11597	0.00132
0.02345	2.76	0.1211	0.0014
0.02413	2.76	0.123775	0.001402
0	4.29	0.000117	0.00053
0.00119	4.29	0.005393	0.00053
0.00237	4.29	0.010568	0.000527
0.00356	4.29	0.015138	0.000526
0.00474	4.29	0.019673	0.000528
0.00593	4.29	0.02437	0.00053
0.00711	4.29	0.029463	0.000537
0.0083	4.29	0.03424	0.00054
0.00948	4.29	0.03911	0.00054
0.01067	4.29	0.04368	0.00058
0.01185	4.29	0.04842	0.00058
0.01304	4.29	0.05293	0.00062
0.01422	4.29	0.0573	0.0007
0.01541	4.29	0.061555	0.000704
0.01659	4.29	0.066075	0.000752
0.01778	4.29	0.070495	0.000797
0.01896	4.29	0.075045	0.000844
0.02015	4.29	0.07966	0.00089
0.02133	4.29	0.08413	0.00093
0.02252	4.29	0.08851	0.00098
0.0237	4.29	0.093135	0.001027
0.02489	4.29	0.097655	0.001055
0.02607	4.29	0.10254	0.00109
0.02726	4.29	0.10747	0.00116
0.02844	4.29	0.11165	0.00116
0	6.77	0.000143	0.000522
0.00121	6.77	0.004714	0.000522
0.00243	6.77	0.00926	0.00052
0.00364	6.77	0.013653	0.000521
0.00486	6.77	0.018071	0.000521
0.00607	6.77	0.022365	0.000521
0.00729	6.77	0.02658	0.00052
0.0085	6.77	0.030693	0.000522
0.00972	6.77	0.03475	0.00052
0.01093	6.77	0.038793	0.000525
0.01215	6.77	0.04276	0.00053
0.01336	6.77	0.04678	0.00053
0.01458	6.77	0.05061	0.00054
0.01579	6.77	0.05445	0.00057
0.01701	6.77	0.05832	0.00061
0.01822	6.77	0.062185	0.000654
0.01944	6.77	0.06607	0.00069
0.02065	6.77	0.06993	0.00073
0.02186	6.77	0.0736	0.0008
0.02308	6.77	0.07753	0.00081
0.02429	6.77	0.08126	0.00085
0.02551	6.77	0.08497	0.0009
0.02672	6.77	0.08858	0.00094
0.02794	6.77	0.0924	0.001

System: ethanol + water + sodium dodecyl sulfate; phases: Liquid
Fixed: Temperature, K = 298
Fixed: Pressure, kPa = 100
Fixed: Molality, mol/kg of sodium dodecyl sulfate = 0.1
Property: Refractive index (Na D-line) (Liquid); method: Standard Abbe refractometry
Solvent: Molality, mol/kg of ethanol	Refractive index (Na D-line)	uncertainty
0.9	1.3393	0.0007
1.46	1.3405	0.0007
2.69	1.3431	0.0007
4.09	1.346	0.0007
7.59	1.3528	0.0007
9.51	1.3547	0.0007

System: ethanol + water + sodium dodecyl sulfate; phases: Liquid
Fixed: Temperature, K = 298
Fixed: Pressure, kPa = 100
Fixed: Frequency, MHz = 0.001
Property: Electrical conductivity, S/m (Liquid); method: Alternating current cell with electrodes
Molality, mol/kg of sodium dodecyl sulfate	Solvent: Molality, mol/kg of ethanol	Electrical conductivity, S/m	uncertainty
0	0.9	0.000248	0.000587
0.001	0.9	0.007921	0.000586
0.00199	0.9	0.015465	0.000584
0.00299	0.9	0.02276	0.00058
0.00399	0.9	0.02965	0.00058
0.00498	0.9	0.03673	0.00058
0.00598	0.9	0.04348	0.00057
0.00698	0.9	0.049375	0.000557
0.00797	0.9	0.05384	0.00058
0.00897	0.9	0.057525	0.000609
0.00997	0.9	0.061085	0.000638
0.01096	0.9	0.064375	0.000665
0.01196	0.9	0.06746	0.00069
0.01296	0.9	0.070495	0.000716
0.01395	0.9	0.07352	0.00074
0.01495	0.9	0.07642	0.00077
0.01595	0.9	0.07939	0.0008
0.01694	0.9	0.0821	0.0008
0.01794	0.9	0.085005	0.000864
0.01894	0.9	0.087815	0.000893
0.01993	0.9	0.09065	0.00092
0.02093	0.9	0.093305	0.000952
0.02292	0.9	0.098455	0.000991
0	1.46	0.000259	0.00058
0.00096	1.46	0.007318	0.000578
0.00191	1.46	0.01407	0.00058
0.00287	1.46	0.02121	0.00058
0.00383	1.46	0.027905	0.000571
0.00478	1.46	0.03425	0.00057
0.00574	1.46	0.04034	0.00056
0.0067	1.46	0.045652	0.000548
0.00765	1.46	0.050225	0.00054
0.00861	1.46	0.05425	0.00057
0.00956	1.46	0.057875	0.000601
0.01052	1.46	0.061395	0.000633
0.01148	1.46	0.06481	0.00067
0.01243	1.46	0.068225	0.000694
0.01339	1.46	0.07137	0.00072
0.01435	1.46	0.074495	0.000756
0.0153	1.46	0.077785	0.00079
0.01626	1.46	0.080955	0.000821
0.01722	1.46	0.08413	0.00085
0.01817	1.46	0.08713	0.00088
0.01913	1.46	0.08994	0.00091
0.02009	1.46	0.09304	0.00094
0.02104	1.46	0.09575	0.00096
0.02163	1.46	0.09738	0.00098
0	2.69	0.000287	0.000581
0.001	2.69	0.007681	0.000578
0.00199	2.69	0.014665	0.000574
0.00299	2.69	0.021638	0.000574
0.00398	2.69	0.0284	0.0006
0.00498	2.69	0.0351	0.0006
0.00598	2.69	0.04104	0.00056
0.00697	2.69	0.046315	0.000547
0.00797	2.69	0.05096	0.00055
0.00896	2.69	0.055405	0.000583
0.00996	2.69	0.059325	0.000616
0.01095	2.69	0.063255	0.000653
0.01195	2.69	0.066925	0.000686
0.01295	2.69	0.0706	0.0007
0.01394	2.69	0.074035	0.000752
0.01494	2.69	0.0775	0.0008
0.01593	2.69	0.08035	0.00081
0.01693	2.69	0.083635	0.000846
0.01793	2.69	0.0866	0.0009
0.01892	2.69	0.08973	0.00091
0.01992	2.69	0.092475	0.000932
0.02091	2.69	0.095525	0.000963
0.02191	2.69	0.0983	0.001
0.02252	2.69	0.09973	0.00101
0	4.09	0.000311	0.000569
0.00103	4.09	0.007265	0.000558
0.00206	4.09	0.013021	0.000554
0.0031	4.09	0.019394	0.00056
0.00413	4.09	0.025575	0.000554
0.00516	4.09	0.03136	0.00055
0.00619	4.09	0.036812	0.000553
0.00722	4.09	0.04237	0.00056
0.00826	4.09	0.047775	0.000556
0.00929	4.09	0.05293	0.00058
0.01032	4.09	0.0576	0.0006
0.01135	4.09	0.06187	0.00066
0.01239	4.09	0.06649	0.00071
0.01342	4.09	0.07082	0.00075
0.01445	4.09	0.075175	0.000779
0.01548	4.09	0.07905	0.00081
0.01651	4.09	0.082855	0.00085
0.01755	4.09	0.08664	0.00088
0.01858	4.09	0.090025	0.000915
0.01961	4.09	0.0934	0.001
0.02064	4.09	0.0968	0.001
0.02167	4.09	0.10004	0.00102
0.02271	4.09	0.103545	0.001052
0.02334	4.09	0.105285	0.00109
0	7.59	0.000251	0.000534
0.0012	7.59	0.005921	0.000535
0.00239	7.59	0.011477	0.000533
0.00359	7.59	0.01685	0.00053
0.00479	7.59	0.02207	0.00054
0.00598	7.59	0.02704	0.00053
0.00718	7.59	0.031828	0.000529
0.00837	7.59	0.036598	0.000529
0.00957	7.59	0.041023	0.00053
0.01077	7.59	0.045625	0.000531
0.01196	7.59	0.050055	0.000541
0.01316	7.59	0.05443	0.00058
0.01436	7.59	0.058685	0.000624
0.01555	7.59	0.06274	0.00066
0.01675	7.59	0.06677	0.0007
0.01794	7.59	0.0712	0.0007
0.01914	7.59	0.075465	0.000778
0.02034	7.59	0.0797	0.0008
0.02153	7.59	0.083405	0.000852
0.02273	7.59	0.0868	0.0009
0.02393	7.59	0.0913	0.0009
0.02512	7.59	0.09547	0.00096
0.02632	7.59	0.0994	0.001
0.02705	7.59	0.1015	0.001
0	9.51	0.000252	0.000533
0.00134	9.51	0.006427	0.00053
0.00268	9.51	0.01205	0.00053
0.00402	9.51	0.017625	0.000527
0.00535	9.51	0.023133	0.000528
0.00669	9.51	0.02883	0.00053
0.00803	9.51	0.03434	0.00053
0.00937	9.51	0.03952	0.00052
0.01071	9.51	0.04499	0.00052
0.01205	9.51	0.05002	0.00052
0.01338	9.51	0.05482	0.00057
0.01472	9.51	0.059685	0.000615
0.01606	9.51	0.064775	0.000665
0.0174	9.51	0.069665	0.000712
0.01874	9.51	0.07456	0.00076
0.02008	9.51	0.079435	0.000808
0.02142	9.51	0.084445	0.000857
0.02275	9.51	0.089115	0.000904
0.02409	9.51	0.094	0.001
0.02543	9.51	0.09905	0.001
0.02677	9.51	0.10365	0.00105
0.02811	9.51	0.10805	0.00109
0.02945	9.51	0.112225	0.001131
0.03027	9.51	0.114555	0.001154

System: water + sodium dodecyl sulfate; phases: Liquid
Fixed: Temperature, K = 298
Fixed: Pressure, kPa = 100
Fixed: Frequency, MHz = 0.001
Property: Electrical conductivity, S/m (Liquid); method: Alternating current cell with electrodes
Molality, mol/kg of sodium dodecyl sulfate	Electrical conductivity, S/m	uncertainty
0.00099	0.009565	0.0005
0.00198	0.018294	0.000612
0.00297	0.02706	0.00061
0.00396	0.03568	0.00061
0.00495	0.044326	0.000608
0.00594	0.05276	0.00063
0.00693	0.06102	0.00069
0.00792	0.06837	0.00073
0.00891	0.07395	0.00076
0.0099	0.07768	0.00079
0.01089	0.08131	0.00083
0.01188	0.08462	0.00086
0.01287	0.08782	0.00089
0.01386	0.09108	0.00091
