Measured thermophysical data. Effect of Cation Structure in Trifluoromethanesulfonate-Based Ionic Liquids: Density, Viscosity, and Aqueous Biphasic Systems Involving Carbohydrates as Salting-Out  Agents
Source: J. Chem. Eng. Data, 2016, 10.1021/acs.jced.5b00931
Compound 1: 1-butyl-1-methylpyrrolidinium trifluoromethanesulfonate, C10H20F3NO3S, InChI=1S/C9H20N.CHF3O3S/c1-3-4-7-10(2)8-5-6-9-10;2-1(3,4)8(5,6)7/h3-9H2,1-2H3;(H,5,6,7)/q+1;/p-1, purity 99%
Compound 2: 1-butyl-1-methylpiperidinium trifluoromethanesulfonate, C11H22F3NO3S, InChI=1S/C10H22N.CHF3O3S/c1-3-4-8-11(2)9-6-5-7-10-11;2-1(3,4)8(5,6)7/h3-10H2,1-2H3;(H,5,6,7)/q+1;/p-1, purity 99%
Compound 3: 1-butyl-3-methylpyridinium trifluoromethanesulfonate, C11H16F3NO3S, InChI=1S/C10H16N.CHF3O3S/c1-3-4-7-11-8-5-6-10(2)9-11;2-1(3,4)8(5,6)7/h5-6,8-9H,3-4,7H2,1-2H3;(H,5,6,7)/q+1;/p-1, purity 99%
Compound 4: D-glucose, C6H12O6, InChI=1S/C6H12O6/c7-1-3(9)5(11)6(12)4(10)2-8/h1,3-6,8-12H,2H2/t3-,4+,5+,6+/m0/s1, purity 99.5%
Compound 5: D-fructose, C6H12O6, InChI=1S/C6H12O6/c7-1-3(9)5(11)6(12)4(10)2-8/h3,5-9,11-12H,1-2H2/t3-,5-,6-/m1/s1, purity 99%
Compound 6: D-sorbitol, C6H14O6, InChI=1S/C6H14O6/c7-1-3(9)5(11)6(12)4(10)2-8/h3-12H,1-2H2/t3-,4+,5-,6-/m1/s1, purity 99%
Compound 7: xylitol, C5H12O5, InChI=1S/C5H12O5/c6-1-3(8)5(10)4(9)2-7/h3-10H,1-2H2/t3-,4+,5+, purity 99%
Compound 8: water, H2O, InChI=1S/H2O/h1H2, purity 99.9%

System: 1-butyl-1-methylpyrrolidinium trifluoromethanesulfonate; phases: Liquid
Fixed: Pressure, kPa = 101.325
Property: Mass density, kg/m3 (Liquid); method: Vibrating tube method
Temperature, K	Mass density, kg/m3	uncertainty
293.15	1255.7	2
298.15	1252	2
303.15	1248.3	2
308.15	1244.7	2
313.15	1241	2
318.15	1237.4	2
323.15	1233.8	2
328.15	1230.2	2
333.15	1226.7	2
338.15	1223.1	2
343.15	1219.6	2
348.15	1216.1	2
353.15	1212.6	2
358.15	1209	2
363.13	1205.5	2

System: 1-butyl-1-methylpyrrolidinium trifluoromethanesulfonate; phases: Liquid
Fixed: Pressure, kPa = 101.325
Property: Viscosity, Pa*s (Liquid); method: Falling or rolling sphere viscometry
Temperature, K	Viscosity, Pa*s	uncertainty
293.15	0.217	0.024
298.15	0.164	0.018
303.15	0.128	0.013
308.15	0.101	0.01
313.15	0.0807	0.0082
318.15	0.0657	0.0066
323.15	0.0543	0.0054
328.15	0.0424	0.0043
333.15	0.0357	0.0036
338.15	0.0304	0.0031
343.15	0.0261	0.0026
348.15	0.0227	0.0023
353.15	0.0198	0.002
358.15	0.0174	0.0017
363.15	0.0155	0.0016

System: 1-butyl-1-methylpiperidinium trifluoromethanesulfonate; phases: Liquid
Fixed: Pressure, kPa = 101.325
Property: Mass density, kg/m3 (Liquid); method: Vibrating tube method
Temperature, K	Mass density, kg/m3	uncertainty
333.15	1216.8	2
338.15	1213.3	2
343.15	1209.8	2
348.15	1206.4	2
353.15	1202.9	2
358.15	1199.5	2
363.13	1196.1	2

System: 1-butyl-1-methylpiperidinium trifluoromethanesulfonate; phases: Liquid
Fixed: Pressure, kPa = 101.325
Property: Viscosity, Pa*s (Liquid); method: Falling or rolling sphere viscometry
Temperature, K	Viscosity, Pa*s	uncertainty
333.15	0.107	0.011
338.15	0.0846	0.0086
343.15	0.0678	0.0068
348.15	0.0552	0.0055
353.15	0.0456	0.0046
358.15	0.038	0.0038
363.15	0.032	0.0032

System: 1-butyl-3-methylpyridinium trifluoromethanesulfonate; phases: Metastable liquid
Fixed: Pressure, kPa = 101.325
Property: Mass density, kg/m3 (Metastable liquid); method: Vibrating tube method
Temperature, K	Mass density, kg/m3	uncertainty
293.15	1279	2
298.15	1275.2	2
303.15	1271.4	2
308.15	1267.6	2
313.15	1263.8	2
318.15	1260	2
323.15	1256.2	2
328.15	1252.5	2
333.15	1248.7	2
338.15	1245	2
343.15	1241.2	2
348.15	1237.5	2
353.15	1233.8	2
358.15	1230.1	2
363.13	1226.5	2

System: 1-butyl-3-methylpyridinium trifluoromethanesulfonate; phases: Metastable liquid
Fixed: Pressure, kPa = 101.325
Property: Viscosity, Pa*s (Metastable liquid); method: Falling or rolling sphere viscometry
Temperature, K	Viscosity, Pa*s	uncertainty
293.15	0.165	0.018
298.15	0.126	0.013
303.15	0.0957	0.0098
308.15	0.0759	0.0077
313.15	0.0602	0.006
318.15	0.0458	0.0046
323.15	0.0376	0.0038
328.15	0.0314	0.0032
333.15	0.0263	0.0026
338.15	0.0226	0.0023
343.15	0.0194	0.0019
348.15	0.0169	0.0017
353.15	0.0149	0.0015
358.15	0.0131	0.0013
363.15	0.0116	0.0012

System: D-glucose + water + 1-butyl-1-methylpyrrolidinium trifluoromethanesulfonate; phases: Liquid mixture 1, Liquid mixture 2
Fixed: Pressure, kPa = 100
Property: Mass fraction of D-glucose (Liquid mixture 1); method: Titration method
Temperature, K	Mass fraction of 1-butyl-1-methylpyrrolidinium trifluoromethanesulfonate	Mass fraction of D-glucose	uncertainty
298.15	0.794	0.024	0.01
298.15	0.753	0.036	0.01
298.15	0.709	0.049	0.011
298.15	0.661	0.063	0.011
298.15	0.634	0.07	0.011
298.15	0.62	0.074	0.011
298.15	0.606	0.079	0.011
298.15	0.567	0.091	0.011
298.15	0.525	0.102	0.011
298.15	0.491	0.113	0.011
298.15	0.481	0.119	0.011
298.15	0.456	0.129	0.011
298.15	0.441	0.135	0.011
298.15	0.426	0.141	0.012
298.15	0.417	0.145	0.012
298.15	0.401	0.152	0.012
298.15	0.389	0.157	0.012
298.15	0.38	0.161	0.012
298.15	0.37	0.165	0.012
298.15	0.361	0.169	0.012
298.15	0.349	0.174	0.012
298.15	0.338	0.179	0.012
298.15	0.328	0.184	0.012
298.15	0.315	0.189	0.012
298.15	0.302	0.196	0.012
298.15	0.288	0.202	0.012
298.15	0.277	0.208	0.013
298.15	0.268	0.213	0.013
298.15	0.26	0.217	0.013
298.15	0.252	0.221	0.013
298.15	0.244	0.226	0.013
298.15	0.235	0.23	0.013
298.15	0.227	0.236	0.014
298.15	0.219	0.24	0.014
298.15	0.21	0.247	0.014
298.15	0.202	0.253	0.014
298.15	0.19	0.262	0.015
298.15	0.175	0.275	0.016
298.15	0.19	0.262	0.015
298.15	0.175	0.275	0.016
298.15	0.168	0.281	0.016
298.15	0.158	0.294	0.018
298.15	0.151	0.305	0.019
288.15	0.684	0.049	0.01
288.15	0.662	0.055	0.011
288.15	0.641	0.061	0.01
288.15	0.619	0.066	0.011
288.15	0.608	0.07	0.011
288.15	0.594	0.073	0.011
288.15	0.586	0.077	0.011
288.15	0.575	0.08	0.011
288.15	0.565	0.084	0.011
288.15	0.559	0.086	0.011
288.15	0.553	0.088	0.011
288.15	0.544	0.09	0.011
288.15	0.537	0.093	0.011
288.15	0.524	0.097	0.011
288.15	0.517	0.099	0.011
288.15	0.513	0.101	0.011
288.15	0.503	0.105	0.011
288.15	0.495	0.107	0.011
288.15	0.488	0.11	0.011
288.15	0.48	0.113	0.011
288.15	0.469	0.116	0.011
288.15	0.464	0.12	0.011
288.15	0.458	0.122	0.011
288.15	0.449	0.125	0.011
288.15	0.433	0.131	0.011
288.15	0.422	0.134	0.012
288.15	0.411	0.141	0.012
288.15	0.409	0.141	0.012
288.15	0.394	0.149	0.012
288.15	0.388	0.152	0.012
288.15	0.387	0.151	0.012
288.15	0.383	0.154	0.012
288.15	0.376	0.157	0.012
288.15	0.372	0.158	0.012
288.15	0.368	0.16	0.012
288.15	0.359	0.164	0.012
288.15	0.351	0.166	0.012
288.15	0.349	0.168	0.012
288.15	0.342	0.171	0.012
288.15	0.334	0.174	0.012
288.15	0.331	0.175	0.012
288.15	0.323	0.179	0.012
288.15	0.316	0.182	0.012
288.15	0.315	0.183	0.012
288.15	0.305	0.187	0.012
288.15	0.3	0.189	0.012
288.15	0.299	0.19	0.012
288.15	0.292	0.193	0.012
288.15	0.285	0.196	0.013
288.15	0.28	0.198	0.013
288.15	0.266	0.207	0.013
288.15	0.251	0.216	0.013
288.15	0.238	0.222	0.013
288.15	0.229	0.228	0.013
288.15	0.22	0.234	0.014
288.15	0.212	0.238	0.014
288.15	0.201	0.245	0.014

System: D-glucose + water + 1-butyl-1-methylpyrrolidinium trifluoromethanesulfonate; phases: Liquid mixture 2, Liquid mixture 1
Fixed: Temperature, K = 298.15
Fixed: Pressure, kPa = 100
Property: Mass fraction of D-glucose (Liquid mixture 2); method: Phase equilibration
Property: Mass fraction of D-glucose (Liquid mixture 1); method: Phase equilibration
Property: Mass fraction of 1-butyl-1-methylpyrrolidinium trifluoromethanesulfonate (Liquid mixture 1); method: Phase equilibration
Mass fraction of 1-butyl-1-methylpyrrolidinium trifluoromethanesulfonate	Mass fraction of D-glucose	uncertainty	Mass fraction of D-glucose	uncertainty	Mass fraction of 1-butyl-1-methylpyrrolidinium trifluoromethanesulfonate	uncertainty
0.1861	0.262	0.0114	0.0737	0.0105	0.6049	
0.1574	0.2798	0.0116	0.0466	0.0104	0.7062	

System: D-fructose + water + 1-butyl-1-methylpyrrolidinium trifluoromethanesulfonate; phases: Liquid mixture 1, Liquid mixture 2
Fixed: Pressure, kPa = 100
Fixed: Temperature, K = 298.15
Property: Mass fraction of D-fructose (Liquid mixture 1); method: Titration method
Mass fraction of 1-butyl-1-methylpyrrolidinium trifluoromethanesulfonate	Mass fraction of D-fructose	uncertainty
0.805	0.036	0.01
0.792	0.037	0.01
0.764	0.045	0.01
0.746	0.049	0.01
0.707	0.059	0.01
0.674	0.063	0.01
0.659	0.068	0.011
0.653	0.071	0.011
0.643	0.072	0.011
0.639	0.075	0.011
0.62	0.082	0.011
0.617	0.081	0.011
0.601	0.087	0.011
0.59	0.089	0.011
0.585	0.093	0.011
0.569	0.098	0.011
0.554	0.104	0.011
0.534	0.11	0.011
0.518	0.117	0.011
0.5	0.124	0.011
0.484	0.129	0.011
0.46	0.14	0.012
0.447	0.145	0.012
0.425	0.155	0.012
0.403	0.165	0.012
0.387	0.172	0.012
0.375	0.178	0.012
0.361	0.183	0.012
0.339	0.194	0.012
0.326	0.2	0.013
0.315	0.206	0.013
0.296	0.215	0.013
0.286	0.221	0.013
0.276	0.226	0.013
0.268	0.23	0.013
0.26	0.234	0.013
0.249	0.24	0.013
0.243	0.243	0.013
0.234	0.247	0.013
0.228	0.251	0.013
0.217	0.257	0.014
0.211	0.261	0.014
0.201	0.267	0.014
0.193	0.271	0.014
0.185	0.277	0.014
0.168	0.288	0.015
0.155	0.298	0.015
0.142	0.306	0.015
0.131	0.315	0.016
0.114	0.328	0.016

System: D-fructose + water + 1-butyl-1-methylpyrrolidinium trifluoromethanesulfonate; phases: Liquid mixture 1, Liquid mixture 2
Fixed: Temperature, K = 298.15
Fixed: Pressure, kPa = 100
Property: Mass fraction of D-fructose (Liquid mixture 1); method: Phase equilibration
Property: Mass fraction of D-fructose (Liquid mixture 2); method: Phase equilibration
Property: Mass fraction of 1-butyl-1-methylpyrrolidinium trifluoromethanesulfonate (Liquid mixture 2); method: Phase equilibration
Mass fraction of 1-butyl-1-methylpyrrolidinium trifluoromethanesulfonate	Mass fraction of D-fructose	uncertainty	Mass fraction of D-fructose	uncertainty	Mass fraction of 1-butyl-1-methylpyrrolidinium trifluoromethanesulfonate	uncertainty
0.609	0.0841	0.0105	0.2658	0.013	0.2034	
0.6985	0.0587	0.0105	0.2899	0.0135	0.1642	
0.7216	0.0531	0.0104	0.3253	0.0141	0.1146	

System: D-sorbitol + water + 1-butyl-1-methylpyrrolidinium trifluoromethanesulfonate; phases: Liquid mixture 1, Liquid mixture 2
Fixed: Pressure, kPa = 100
Fixed: Temperature, K = 298.15
Property: Mass fraction of D-sorbitol (Liquid mixture 1); method: Titration method
Mass fraction of 1-butyl-1-methylpyrrolidinium trifluoromethanesulfonate	Mass fraction of D-sorbitol	uncertainty
0.859	0.018	0.01
0.791	0.026	0.01
0.735	0.034	0.01
0.712	0.037	0.01
0.69	0.042	0.01
0.686	0.043	0.01
0.658	0.049	0.01
0.641	0.053	0.01
0.609	0.06	0.01
0.578	0.068	0.011
0.562	0.073	0.011
0.537	0.081	0.011
0.524	0.085	0.011
0.52	0.087	0.011
0.497	0.093	0.011
0.493	0.096	0.011
0.477	0.101	0.011
0.47	0.104	0.011
0.455	0.109	0.011
0.44	0.115	0.011
0.437	0.117	0.011
0.418	0.124	0.011
0.408	0.128	0.011
0.395	0.133	0.011
0.387	0.136	0.011
0.37	0.142	0.012
0.354	0.15	0.012
0.338	0.156	0.012
0.324	0.162	0.012
0.309	0.169	0.012
0.294	0.176	0.012
0.278	0.183	0.012
0.261	0.192	0.013
0.245	0.2	0.013
0.226	0.211	0.013
0.208	0.224	0.014
0.184	0.24	0.015
0.163	0.263	0.018
0.152	0.28	0.02

System: D-sorbitol + water + 1-butyl-1-methylpyrrolidinium trifluoromethanesulfonate; phases: Liquid mixture 1, Liquid mixture 2
Fixed: Temperature, K = 298.15
Fixed: Pressure, kPa = 100
Property: Mass fraction of D-sorbitol (Liquid mixture 1); method: Phase equilibration
Property: Mass fraction of D-sorbitol (Liquid mixture 2); method: Phase equilibration
Property: Mass fraction of 1-butyl-1-methylpyrrolidinium trifluoromethanesulfonate (Liquid mixture 2); method: Phase equilibration
Mass fraction of 1-butyl-1-methylpyrrolidinium trifluoromethanesulfonate	Mass fraction of D-sorbitol	uncertainty	Mass fraction of D-sorbitol	uncertainty	Mass fraction of 1-butyl-1-methylpyrrolidinium trifluoromethanesulfonate	uncertainty
0.5844	0.0662	0.0104	0.2046	0.0124	0.2466	
0.675	0.0452	0.0103	0.24	0.0127	0.1858	
0.7464	0.0325	0.0102	0.2608	0.0132	0.1539	

System: xylitol + water + 1-butyl-1-methylpyrrolidinium trifluoromethanesulfonate; phases: Liquid mixture 1, Liquid mixture 2
Fixed: Pressure, kPa = 100
Fixed: Temperature, K = 298.15
Property: Mass fraction of xylitol (Liquid mixture 1); method: Titration method
Mass fraction of 1-butyl-1-methylpyrrolidinium trifluoromethanesulfonate	Mass fraction of xylitol	uncertainty
0.885	0.019	0.01
0.83	0.03	0.01
0.706	0.066	0.011
0.647	0.08	0.011
0.597	0.096	0.011
0.54	0.108	0.011
0.522	0.115	0.011
0.494	0.126	0.011
0.471	0.134	0.011
0.452	0.142	0.012
0.436	0.149	0.012
0.416	0.156	0.012
0.4	0.163	0.012
0.38	0.17	0.012
0.362	0.177	0.012
0.346	0.185	0.012
0.329	0.191	0.012
0.31	0.198	0.012
0.296	0.206	0.013
0.278	0.215	0.013
0.26	0.224	0.013
0.246	0.232	0.013
0.233	0.239	0.013
0.213	0.251	0.014
0.195	0.265	0.014
0.153	0.291	0.015
0.132	0.314	0.018
0.108	0.345	0.019

System: xylitol + water + 1-butyl-1-methylpyrrolidinium trifluoromethanesulfonate; phases: Liquid mixture 1, Liquid mixture 2
Fixed: Temperature, K = 298.15
Fixed: Pressure, kPa = 100
Property: Mass fraction of xylitol (Liquid mixture 1); method: Phase equilibration
Property: Mass fraction of xylitol (Liquid mixture 2); method: Phase equilibration
Property: Mass fraction of 1-butyl-1-methylpyrrolidinium trifluoromethanesulfonate (Liquid mixture 2); method: Phase equilibration
Mass fraction of 1-butyl-1-methylpyrrolidinium trifluoromethanesulfonate	Mass fraction of xylitol	uncertainty	Mass fraction of xylitol	uncertainty	Mass fraction of 1-butyl-1-methylpyrrolidinium trifluoromethanesulfonate	uncertainty
0.7194	0.0528	0.0103	0.2679	0.013	0.1834	
0.7439	0.0471	0.0103	0.3015	0.0135	0.1285	
0.77	0.0415	0.0103	0.3224	0.0141	0.0997	

System: D-glucose + water + 1-butyl-1-methylpiperidinium trifluoromethanesulfonate; phases: Liquid mixture 1, Liquid mixture 2
Fixed: Pressure, kPa = 100
Fixed: Temperature, K = 298.15
Property: Mass fraction of D-glucose (Liquid mixture 1); method: Titration method
Mass fraction of 1-butyl-1-methylpiperidinium trifluoromethanesulfonate	Mass fraction of D-glucose	uncertainty
0.779	0.024	0.01
0.719	0.029	0.01
0.674	0.035	0.01
0.64	0.041	0.01
0.598	0.049	0.01
0.576	0.054	0.01
0.546	0.06	0.01
0.513	0.068	0.011
0.479	0.078	0.011
0.449	0.086	0.011
0.422	0.094	0.011
0.395	0.102	0.011
0.367	0.11	0.011
0.343	0.117	0.011
0.321	0.124	0.011
0.295	0.133	0.011
0.273	0.141	0.012
0.254	0.15	0.012
0.233	0.161	0.012
0.199	0.182	0.014
0.209	0.172	0.013
0.185	0.191	0.014
0.171	0.203	0.014
0.159	0.212	0.014
0.152	0.22	0.015

System: D-glucose + water + 1-butyl-1-methylpiperidinium trifluoromethanesulfonate; phases: Liquid mixture 2, Liquid mixture 1
Fixed: Temperature, K = 298.15
Fixed: Pressure, kPa = 100
Property: Mass fraction of D-glucose (Liquid mixture 2); method: Phase equilibration
Property: Mass fraction of 1-butyl-1-methylpiperidinium trifluoromethanesulfonate (Liquid mixture 1); method: Phase equilibration
Property: Mass fraction of D-glucose (Liquid mixture 1); method: Phase equilibration
Mass fraction of 1-butyl-1-methylpiperidinium trifluoromethanesulfonate	Mass fraction of D-glucose	uncertainty	Mass fraction of 1-butyl-1-methylpiperidinium trifluoromethanesulfonate	uncertainty	Mass fraction of D-glucose	uncertainty
0.612	0.0461	0.0102	0.1549	0.004	0.256	
0.7156	0.0307	0.0101	0.1994	0.0048	0.1696	

System: D-fructose + water + 1-butyl-1-methylpiperidinium trifluoromethanesulfonate; phases: Liquid mixture 1, Liquid mixture 2
Fixed: Pressure, kPa = 100
Fixed: Temperature, K = 298.15
Property: Mass fraction of D-fructose (Liquid mixture 1); method: Titration method
Mass fraction of 1-butyl-1-methylpiperidinium trifluoromethanesulfonate	Mass fraction of D-fructose	uncertainty
0.69	0.041	0.01
0.624	0.052	0.01
0.583	0.06	0.01
0.559	0.067	0.01
0.534	0.072	0.01
0.516	0.077	0.011
0.489	0.084	0.011
0.467	0.09	0.011
0.448	0.096	0.011
0.428	0.101	0.011
0.412	0.107	0.011
0.393	0.113	0.011
0.378	0.117	0.011
0.36	0.122	0.011
0.344	0.128	0.011
0.326	0.134	0.011
0.308	0.139	0.011
0.294	0.146	0.012
0.272	0.155	0.012
0.253	0.164	0.012
0.231	0.175	0.012
0.217	0.183	0.013
0.188	0.204	0.014

System: D-fructose + water + 1-butyl-1-methylpiperidinium trifluoromethanesulfonate; phases: Liquid mixture 1, Liquid mixture 2
Fixed: Temperature, K = 298.15
Fixed: Pressure, kPa = 100
Property: Mass fraction of D-fructose (Liquid mixture 1); method: Phase equilibration
Property: Mass fraction of D-fructose (Liquid mixture 2); method: Phase equilibration
Property: Mass fraction of 1-butyl-1-methylpiperidinium trifluoromethanesulfonate (Liquid mixture 2); method: Phase equilibration
Mass fraction of 1-butyl-1-methylpiperidinium trifluoromethanesulfonate	Mass fraction of D-fructose	uncertainty	Mass fraction of D-fructose	uncertainty	Mass fraction of 1-butyl-1-methylpiperidinium trifluoromethanesulfonate	uncertainty
0.6007	0.0571	0.0102	0.1686	0.0117	0.2466	
0.7032	0.0396	0.0102	0.2021	0.0119	0.1773	

System: D-sorbitol + water + 1-butyl-1-methylpiperidinium trifluoromethanesulfonate; phases: Liquid mixture 1, Liquid mixture 2
Fixed: Pressure, kPa = 100
Fixed: Temperature, K = 298.15
Property: Mass fraction of D-sorbitol (Liquid mixture 1); method: Titration method
Mass fraction of 1-butyl-1-methylpiperidinium trifluoromethanesulfonate	Mass fraction of D-sorbitol	uncertainty
0.657	0.03	0.01
0.635	0.034	0.01
0.606	0.04	0.01
0.581	0.043	0.01
0.557	0.047	0.01
0.535	0.053	0.01
0.504	0.061	0.01
0.485	0.065	0.01
0.463	0.071	0.01
0.443	0.075	0.011
0.426	0.08	0.011
0.408	0.083	0.011
0.392	0.089	0.011
0.366	0.096	0.011
0.347	0.101	0.011
0.33	0.107	0.011
0.303	0.116	0.011
0.277	0.124	0.011
0.258	0.132	0.012
0.237	0.143	0.012
0.218	0.154	0.013
0.203	0.164	0.013
0.187	0.176	0.014
0.17	0.19	0.014
0.16	0.2	0.017
0.144	0.221	0.018

System: D-sorbitol + water + 1-butyl-1-methylpiperidinium trifluoromethanesulfonate; phases: Liquid mixture 2, Liquid mixture 1
Fixed: Temperature, K = 298.15
Fixed: Pressure, kPa = 100
Property: Mass fraction of D-sorbitol (Liquid mixture 2); method: Phase equilibration
Property: Mass fraction of D-sorbitol (Liquid mixture 1); method: Phase equilibration
Property: Mass fraction of 1-butyl-1-methylpiperidinium trifluoromethanesulfonate (Liquid mixture 1); method: Phase equilibration
Mass fraction of 1-butyl-1-methylpiperidinium trifluoromethanesulfonate	Mass fraction of D-sorbitol	uncertainty	Mass fraction of D-sorbitol	uncertainty	Mass fraction of 1-butyl-1-methylpiperidinium trifluoromethanesulfonate	uncertainty
0.267	0.1354	0.0116	0.0497	0.0102	0.5447	
0.2085	0.165	0.0117	0.0328	0.0101	0.6524	

System: xylitol + water + 1-butyl-1-methylpiperidinium trifluoromethanesulfonate; phases: Liquid mixture 1, Liquid mixture 2
Fixed: Pressure, kPa = 100
Fixed: Temperature, K = 298.15
Property: Mass fraction of xylitol (Liquid mixture 1); method: Titration method
Mass fraction of 1-butyl-1-methylpiperidinium trifluoromethanesulfonate	Mass fraction of xylitol	uncertainty
0.694	0.038	0.01
0.648	0.045	0.01
0.6	0.053	0.01
0.58	0.057	0.01
0.551	0.063	0.01
0.513	0.072	0.01
0.493	0.077	0.01
0.468	0.081	0.011
0.445	0.089	0.011
0.424	0.095	0.011
0.403	0.101	0.011
0.382	0.108	0.011
0.355	0.115	0.011
0.333	0.122	0.011
0.309	0.13	0.011
0.285	0.14	0.011
0.268	0.146	0.012
0.25	0.154	0.012
0.24	0.16	0.012
0.226	0.168	0.012
0.202	0.181	0.013
0.188	0.195	0.015

System: xylitol + water + 1-butyl-1-methylpiperidinium trifluoromethanesulfonate; phases: Liquid mixture 1, Liquid mixture 2
Fixed: Temperature, K = 298.15
Fixed: Pressure, kPa = 100
Property: Mass fraction of xylitol (Liquid mixture 1); method: Phase equilibration
Property: Mass fraction of xylitol (Liquid mixture 2); method: Phase equilibration
Property: Mass fraction of 1-butyl-1-methylpiperidinium trifluoromethanesulfonate (Liquid mixture 2); method: Phase equilibration
Mass fraction of 1-butyl-1-methylpiperidinium trifluoromethanesulfonate	Mass fraction of xylitol	uncertainty	Mass fraction of xylitol	uncertainty	Mass fraction of 1-butyl-1-methylpiperidinium trifluoromethanesulfonate	uncertainty
0.5876	0.0554	0.0102	0.1528	0.0115	0.2597	
0.6561	0.044	0.0102	0.1791	0.0117	0.2034	

System: D-glucose + water + 1-butyl-3-methylpyridinium trifluoromethanesulfonate; phases: Liquid mixture 1, Liquid mixture 2
Fixed: Pressure, kPa = 100
Fixed: Temperature, K = 298.15
Property: Mass fraction of D-glucose (Liquid mixture 1); method: Titration method
Mass fraction of 1-butyl-3-methylpyridinium trifluoromethanesulfonate	Mass fraction of D-glucose	uncertainty
0.748	0.028	0.01
0.668	0.036	0.01
0.644	0.038	0.01
0.613	0.041	0.01
0.599	0.043	0.01
0.576	0.047	0.01
0.576	0.047	0.01
0.553	0.05	0.01
0.536	0.054	0.01
0.532	0.054	0.01
0.514	0.058	0.01
0.498	0.061	0.01
0.489	0.063	0.01
0.469	0.067	0.01
0.457	0.07	0.011
0.437	0.075	0.011
0.415	0.08	0.011
0.401	0.083	0.011
0.387	0.088	0.011
0.37	0.092	0.011
0.344	0.098	0.011
0.349	0.097	0.011
0.324	0.104	0.011
0.304	0.11	0.011
0.288	0.115	0.011
0.267	0.121	0.011
0.253	0.126	0.012
0.248	0.129	0.012
0.232	0.138	0.012
0.214	0.147	0.012
0.213	0.147	0.012
0.199	0.157	0.013
0.193	0.161	0.013

System: D-glucose + water + 1-butyl-3-methylpyridinium trifluoromethanesulfonate; phases: Liquid mixture 1, Liquid mixture 2
Fixed: Temperature, K = 298.15
Fixed: Pressure, kPa = 100
Property: Mass fraction of D-glucose (Liquid mixture 1); method: Phase equilibration
Property: Mass fraction of D-glucose (Liquid mixture 2); method: Phase equilibration
Property: Mass fraction of 1-butyl-3-methylpyridinium trifluoromethanesulfonate (Liquid mixture 2); method: Phase equilibration
Mass fraction of 1-butyl-3-methylpyridinium trifluoromethanesulfonate	Mass fraction of D-glucose	uncertainty	Mass fraction of D-glucose	uncertainty	Mass fraction of 1-butyl-3-methylpyridinium trifluoromethanesulfonate	uncertainty
0.6396	0.0388	0.0101	0.14	0.0114	0.2291	
0.7253	0.0294	0.0101	0.1641	0.0116	0.178	

System: D-fructose + water + 1-butyl-3-methylpyridinium trifluoromethanesulfonate; phases: Liquid mixture 1, Liquid mixture 2
Fixed: Pressure, kPa = 100
Fixed: Temperature, K = 298.15
Property: Mass fraction of D-fructose (Liquid mixture 1); method: Titration method
Mass fraction of 1-butyl-3-methylpyridinium trifluoromethanesulfonate	Mass fraction of D-fructose	uncertainty
0.712	0.038	0.01
0.667	0.043	0.01
0.637	0.046	0.01
0.604	0.051	0.01
0.578	0.055	0.01
0.555	0.059	0.01
0.527	0.064	0.01
0.507	0.068	0.01
0.488	0.072	0.01
0.471	0.076	0.011
0.454	0.08	0.011
0.437	0.085	0.011
0.416	0.091	0.011
0.392	0.097	0.011
0.376	0.101	0.011
0.355	0.106	0.011
0.335	0.112	0.011
0.312	0.119	0.011
0.293	0.125	0.011
0.277	0.13	0.011
0.259	0.136	0.012
0.245	0.144	0.012
0.229	0.152	0.012
0.217	0.159	0.013
0.199	0.172	0.014
0.184	0.185	0.014
0.167	0.201	0.016
0.155	0.216	0.017

System: D-fructose + water + 1-butyl-3-methylpyridinium trifluoromethanesulfonate; phases: Liquid mixture 1, Liquid mixture 2
Fixed: Temperature, K = 298.15
Fixed: Pressure, kPa = 100
Property: Mass fraction of D-fructose (Liquid mixture 1); method: Phase equilibration
Property: Mass fraction of D-fructose (Liquid mixture 2); method: Phase equilibration
Property: Mass fraction of 1-butyl-3-methylpyridinium trifluoromethanesulfonate (Liquid mixture 2); method: Phase equilibration
Mass fraction of 1-butyl-3-methylpyridinium trifluoromethanesulfonate	Mass fraction of D-fructose	uncertainty	Mass fraction of D-fructose	uncertainty	Mass fraction of 1-butyl-3-methylpyridinium trifluoromethanesulfonate	uncertainty
0.6774	0.042	0.01	0.1855	0.0107	0.181	
0.6358	0.0471	0.01	0.1623	0.0106	0.2198	

System: D-sorbitol + water + 1-butyl-3-methylpyridinium trifluoromethanesulfonate; phases: Liquid mixture 1, Liquid mixture 2
Fixed: Pressure, kPa = 100
Fixed: Temperature, K = 298.15
Property: Mass fraction of D-sorbitol (Liquid mixture 1); method: Titration method
Mass fraction of 1-butyl-3-methylpyridinium trifluoromethanesulfonate	Mass fraction of D-sorbitol	uncertainty
0.701	0.026	0.01
0.655	0.03	0.01
0.611	0.034	0.01
0.571	0.039	0.01
0.535	0.045	0.01
0.503	0.051	0.01
0.472	0.057	0.01
0.44	0.063	0.01
0.41	0.07	0.01
0.388	0.075	0.01
0.36	0.08	0.01
0.342	0.085	0.011
0.319	0.091	0.011
0.3	0.096	0.011
0.284	0.101	0.011
0.258	0.11	0.011
0.233	0.121	0.012
0.21	0.133	0.012
0.2	0.139	0.013
0.195	0.144	0.013
0.181	0.154	0.014
0.172	0.163	0.014
0.162	0.175	0.016
0.154	0.185	0.017

System: D-sorbitol + water + 1-butyl-3-methylpyridinium trifluoromethanesulfonate; phases: Liquid mixture 1, Liquid mixture 2
Fixed: Temperature, K = 298.15
Fixed: Pressure, kPa = 100
Property: Mass fraction of D-sorbitol (Liquid mixture 1); method: Phase equilibration
Property: Mass fraction of D-sorbitol (Liquid mixture 2); method: Phase equilibration
Property: Mass fraction of 1-butyl-3-methylpyridinium trifluoromethanesulfonate (Liquid mixture 2); method: Phase equilibration
Mass fraction of 1-butyl-3-methylpyridinium trifluoromethanesulfonate	Mass fraction of D-sorbitol	uncertainty	Mass fraction of D-sorbitol	uncertainty	Mass fraction of 1-butyl-3-methylpyridinium trifluoromethanesulfonate	uncertainty
0.5723	0.0396	0.0101	0.1153	0.0103	0.2571	
0.6449	0.0314	0.0101	0.1334	0.0104	0.2189	

System: xylitol + water + 1-butyl-3-methylpyridinium trifluoromethanesulfonate; phases: Liquid mixture 1, Liquid mixture 2
Fixed: Pressure, kPa = 100
Fixed: Temperature, K = 298.15
Property: Mass fraction of xylitol (Liquid mixture 1); method: Titration method
Mass fraction of 1-butyl-3-methylpyridinium trifluoromethanesulfonate	Mass fraction of xylitol	uncertainty
0.691	0.035	0.01
0.654	0.039	0.01
0.61	0.043	0.01
0.587	0.047	0.01
0.567	0.05	0.01
0.537	0.055	0.01
0.515	0.059	0.01
0.493	0.064	0.01
0.472	0.068	0.01
0.459	0.071	0.01
0.442	0.075	0.011
0.421	0.08	0.01
0.4	0.084	0.01
0.376	0.089	0.011
0.36	0.094	0.011
0.34	0.099	0.011
0.322	0.104	0.011
0.305	0.108	0.011
0.289	0.114	0.011
0.275	0.118	0.011
0.263	0.124	0.012
0.245	0.132	0.012
0.227	0.14	0.012
0.209	0.152	0.013
0.193	0.164	0.014
0.176	0.18	0.015

System: xylitol + water + 1-butyl-3-methylpyridinium trifluoromethanesulfonate; phases: Liquid mixture 2, Liquid mixture 1
Fixed: Temperature, K = 298.15
Fixed: Pressure, kPa = 100
Property: Mass fraction of xylitol (Liquid mixture 2); method: Phase equilibration
Property: Mass fraction of xylitol (Liquid mixture 1); method: Phase equilibration
Property: Mass fraction of 1-butyl-3-methylpyridinium trifluoromethanesulfonate (Liquid mixture 1); method: Phase equilibration
Mass fraction of 1-butyl-3-methylpyridinium trifluoromethanesulfonate	Mass fraction of xylitol	uncertainty	Mass fraction of xylitol	uncertainty	Mass fraction of 1-butyl-3-methylpyridinium trifluoromethanesulfonate	uncertainty
0.2437	0.1356	0.0104	0.0447	0.0101	0.6076	
0.2103	0.1516	0.0105	0.0375	0.0101	0.6683	
