Measured thermophysical data. Aqueous Biphasic Systems of Pyrrolidinium Ionic Liquids with Organic Acid-Derived Anions and K3PO4
Source: J. Chem. Eng. Data, 2017, 10.1021/acs.jced.6b00487
Compound 1: tripotassium phosphate, K3O4P, InChI=1S/3K.H3O4P/c;;;1-5(2,3)4/h;;;(H3,1,2,3,4)/q3*+1;/p-3
Compound 2: water, H2O, InChI=1S/H2O/h1H2, purity 99.9%
Compound 3: 1-ethyl-1-methylpyrrolidinium acetate, C9H19NO2, InChI=1S/C7H16N.C2H4O2/c1-3-8(2)6-4-5-7-8;1-2(3)4/h3-7H2,1-2H3;1H3,(H,3,4)/q+1;/p-1, purity 95%
Compound 4: 1-ethyl-1-methylpyrrolidinium trifluoroacetate, C9H16F3NO2, InChI=1S/C7H16N.C2HF3O2/c1-3-8(2)6-4-5-7-8;3-2(4,5)1(6)7/h3-7H2,1-2H3;(H,6,7)/q+1;/p-1, purity 98.4%
Compound 5: 1-ethyl-1-methylpyrrolidinium hexanoate, C13H27NO2, InChI=1S/C7H16N.C6H12O2/c1-3-8(2)6-4-5-7-8;1-2-3-4-5-6(7)8/h3-7H2,1-2H3;2-5H2,1H3,(H,7,8)/q+1;/p-1, purity 97.3%
Compound 6: 1-ethyl-1-methylpyrrolidinium hydrogen adipate, C13H25NO4, InChI=1S/C7H16N.C6H10O4/c1-3-8(2)6-4-5-7-8;7-5(8)3-1-2-4-6(9)10/h3-7H2,1-2H3;1-4H2,(H,7,8)(H,9,10)/q+1;/p-1, purity 97.3%
Compound 7: 1-ethyl-1-methylpyrrolidinium bromide, C7H16BrN, InChI=1S/C7H16N.BrH/c1-3-8(2)6-4-5-7-8;/h3-7H2,1-2H3;1H/q+1;/p-1, purity 99%

System: water + tripotassium phosphate + 1-ethyl-1-methylpyrrolidinium acetate; phases: Liquid mixture 1, Liquid mixture 2
Fixed: Temperature, K = 298.15
Fixed: Pressure, kPa = 100
Property: Mass fraction of tripotassium phosphate (Liquid mixture 1); method: Titration method
Mass fraction of 1-ethyl-1-methylpyrrolidinium acetate	Mass fraction of tripotassium phosphate	uncertainty
0.38332	0.030456	0.000945
0.33187	0.044348	0.001376
0.28684	0.068323	0.00212
0.24904	0.091178	0.002828
0.22329	0.10748	0.00333
0.2063	0.12141	0.00377
0.19063	0.13494	0.00419
0.15482	0.17072	0.00529
0.13802	0.18966	0.00588
0.13115	0.1961	0.00608
0.11746	0.21112	0.00655
0.10406	0.22634	0.00702
0.090923	0.24148	0.00749
0.078101	0.25699	0.00797
0.072644	0.26406	0.00819
0.06625	0.27219	0.00844
0.061842	0.27821	0.00862
0.055091	0.28793	0.00893
0.042799	0.30765	0.00954

System: water + tripotassium phosphate + 1-ethyl-1-methylpyrrolidinium trifluoroacetate; phases: Liquid mixture 1, Liquid mixture 2
Fixed: Temperature, K = 298.15
Fixed: Pressure, kPa = 100
Property: Mass fraction of tripotassium phosphate (Liquid mixture 1); method: Titration method
Mass fraction of 1-ethyl-1-methylpyrrolidinium trifluoroacetate	Mass fraction of tripotassium phosphate	uncertainty
0.40291	0.045621	0.001415
0.373	0.055847	0.001732
0.34567	0.06919	0.002145
0.32315	0.076593	0.002374
0.30711	0.083884	0.002601
0.28101	0.097145	0.003012
0.26441	0.10668	0.00331
0.25095	0.11377	0.00353
0.23802	0.1207	0.00374
0.22522	0.12826	0.00398
0.20876	0.13873	0.0043
0.18963	0.15032	0.00466
0.17069	0.1622	0.00503
0.15752	0.17038	0.00528
0.14784	0.17671	0.00548
0.13689	0.18464	0.00572
0.12441	0.19301	0.00598
0.11051	0.20305	0.00629
0.093586	0.2178	0.00675
0.082512	0.22577	0.007
0.073104	0.23473	0.00728
0.064221	0.24465	0.00758
0.057318	0.25175	0.0078
0.050871	0.25961	0.00805
0.045232	0.26683	0.00827
0.039586	0.27538	0.00854
0.034278	0.28411	0.00881
0.028691	0.29502	0.00915
0.023408	0.30611	0.00949

System: 1-ethyl-1-methylpyrrolidinium hexanoate + water + tripotassium phosphate; phases: Liquid mixture 1, Liquid mixture 2
Fixed: Temperature, K = 298.15
Fixed: Pressure, kPa = 100
Property: Mass fraction of tripotassium phosphate (Liquid mixture 1); method: Titration method
Mass fraction of 1-ethyl-1-methylpyrrolidinium hexanoate	Mass fraction of tripotassium phosphate	uncertainty
0.28649	0.083344	0.002585
0.26282	0.096315	0.002986
0.24291	0.1079	0.00335
0.22558	0.11849	0.00367
0.20897	0.13009	0.00403
0.19597	0.13649	0.00423
0.17768	0.15011	0.00465
0.16263	0.16087	0.00499
0.14975	0.16957	0.00526
0.13778	0.17848	0.00553
0.12585	0.18788	0.00582
0.11492	0.19601	0.00608
0.10683	0.20313	0.0063
0.099859	0.20784	0.00644
0.087156	0.2185	0.00677
0.068198	0.2353	0.00729
0.058006	0.24538	0.00761
0.048197	0.25541	0.00792
0.040234	0.26506	0.00822
0.030915	0.27782	0.00861
0.019686	0.29731	0.00922

System: 1-ethyl-1-methylpyrrolidinium hydrogen adipate + water + tripotassium phosphate; phases: Liquid mixture 1, Liquid mixture 2
Fixed: Temperature, K = 298.15
Fixed: Pressure, kPa = 100
Property: Mass fraction of tripotassium phosphate (Liquid mixture 1); method: Titration method
Mass fraction of 1-ethyl-1-methylpyrrolidinium hydrogen adipate	Mass fraction of tripotassium phosphate	uncertainty
0.11489	0.24009	0.00744
0.081561	0.26489	0.00821
0.053787	0.2919	0.00905
0.049149	0.2969	0.0092
0.04463	0.30253	0.00938
0.034368	0.31535	0.00978
0.019734	0.34181	0.0106

System: water + tripotassium phosphate + 1-ethyl-1-methylpyrrolidinium bromide; phases: Liquid mixture 1, Liquid mixture 2
Fixed: Temperature, K = 298.15
Fixed: Pressure, kPa = 100
Property: Mass fraction of tripotassium phosphate (Liquid mixture 1); method: Titration method
Mass fraction of 1-ethyl-1-methylpyrrolidinium bromide	Mass fraction of tripotassium phosphate	uncertainty
0.49123	0.018282	0.000569
0.45408	0.027722	0.000861
0.42713	0.036519	0.001133
0.39421	0.042278	0.001311
0.37439	0.048571	0.001507
0.35786	0.05504	0.001708
0.32721	0.068963	0.002139
0.30032	0.080657	0.002501
0.27596	0.092994	0.002883
0.25785	0.10271	0.00318
0.23142	0.11928	0.0037
0.19859	0.13066	0.00405
0.18427	0.1409	0.00437
0.17227	0.15885	0.00493
0.16126	0.16535	0.00512
0.14854	0.17438	0.0054
0.13105	0.18755	0.00581
0.11209	0.20321	0.0063
0.093554	0.21915	0.00679
0.076332	0.23642	0.00733
0.058792	0.25762	0.00799
0.041761	0.2832	0.00878
0.022968	0.32339	0.01003
