Measured thermophysical data. Mean Activity Coefficients of NaCl in the Mixture of 2-Hydroxyethylammonium Butyrate + H2O at 298.15 K
Source: J. Chem. Eng. Data, 2017, 10.1021/acs.jced.7b00278
Compound 1: water, H2O, InChI=1S/H2O/h1H2, purity 99.8%
Compound 2: sodium chloride, ClNa, InChI=1S/ClH.Na/h1H;/q;+1/p-1
Compound 3: 2-hydroxy ethylammonium butanoate, C6H15NO3, InChI=1S/C4H8O2.C2H7NO/c1-2-3-4(5)6;3-1-2-4/h2-3H2,1H3,(H,5,6);4H,1-3H2, purity 97%

System: 2-hydroxy ethylammonium butanoate; phases: Liquid
Property: Mass density, kg/m3 (Liquid); method: Vibrating tube method
Temperature, K	Pressure, kPa	Mass density, kg/m3	uncertainty
298.15	101.325	1075.12	6.33

System: 2-hydroxy ethylammonium butanoate; phases: Liquid
Property: Refractive index (Na D-line) (Liquid); method: Standard Abbe refractometry
Temperature, K	Pressure, kPa	Refractive index (Na D-line)	uncertainty
298.15	101.325	1.4659	0.0009

System: water + 2-hydroxy ethylammonium butanoate; phases: Liquid
Fixed: Temperature, K = 298.15
Fixed: Pressure, kPa = 101
Property: Mass density, kg/m3 (Liquid); method: Vibrating tube method
Mass fraction of 2-hydroxy ethylammonium butanoate	Mass density, kg/m3	uncertainty
0.0115	999.43	2.19
0.05	1006.63	8.77
0.101	1016.39	10.65
0.2011	1033.12	8.92
0.3051	1046.73	7.58
0.3993	1058.12	7.27

System: sodium chloride + water + 2-hydroxy ethylammonium butanoate; phases: Liquid
Fixed: Temperature, K = 298.15
Fixed: Pressure, kPa = 101
Property: Mean ionic activity coefficient of sodium chloride (Liquid); method: potentiometry
Solvent: Mass fraction of 2-hydroxy ethylammonium butanoate	Molality, mol/kg of sodium chloride	Mean ionic activity coefficient of sodium chloride	uncertainty
0.0115	0.1387	0.759	0.106
0.0115	0.3534	0.704	0.106
0.0115	0.5671	0.679	0.106
0.0115	0.7793	0.664	0.106
0.0115	0.9928	0.654	0.106
0.0115	1.2189	0.648	0.106
0.0115	1.4339	0.644	0.106
0.0115	1.6458	0.643	0.106
0.0115	1.8629	0.643	0.106
0.0115	2.0781	0.645	0.106
0.0115	2.2923	0.648	0.106
0.0115	2.5082	0.653	0.106
0.0115	2.7317	0.659	0.106
0.0115	2.9551	0.666	0.106
0.0115	3.1692	0.674	0.106
0.0502	0.1205	0.741	0.106
0.0502	0.2918	0.675	0.106
0.0502	0.4651	0.648	0.106
0.0502	0.6365	0.634	0.106
0.0502	0.806	0.628	0.106
0.0502	0.9816	0.627	0.106
0.0502	1.1559	0.628	0.106
0.0502	1.3308	0.631	0.106
0.0502	1.4991	0.636	0.106
0.0502	1.6691	0.641	0.106
0.0502	1.8431	0.647	0.106
0.0502	2.0186	0.654	0.106
0.0502	2.1868	0.66	0.106
0.0502	2.3569	0.667	0.106
0.0502	2.5276	0.673	0.106
0.101	0.1074	0.748	0.106
0.101	0.3236	0.665	0.106
0.101	0.5405	0.634	0.106
0.101	0.755	0.62	0.106
0.101	0.9738	0.614	0.106
0.101	1.1876	0.613	0.106
0.101	1.404	0.616	0.106
0.101	1.6223	0.62	0.106
0.101	1.8382	0.626	0.106
0.101	2.0582	0.632	0.106
0.101	2.268	0.639	0.106
0.101	2.4839	0.646	0.106
0.101	2.7003	0.654	0.106
0.101	2.915	0.661	0.106
0.101	3.1297	0.669	0.106
0.2011	0.1101	0.725	0.106
0.2011	0.3242	0.636	0.106
0.2011	0.5387	0.603	0.106
0.2011	0.7534	0.588	0.106
0.2011	0.9685	0.583	0.106
0.2011	1.1821	0.583	0.106
0.2011	1.3977	0.586	0.106
0.2011	1.612	0.591	0.106
0.2011	1.8256	0.596	0.106
0.2011	2.0424	0.603	0.106
0.2011	2.2584	0.609	0.106
0.2011	2.4742	0.616	0.106
0.2011	2.6875	0.622	0.106
0.2011	2.9018	0.628	0.106
0.2011	3.1478	0.6342	0.1061
0.3051	0.1228	0.708	0.106
0.3051	0.3404	0.628	0.106
0.3051	0.5532	0.605	0.106
0.3051	0.7659	0.599	0.106
0.3051	0.9793	0.603	0.106
0.3051	1.1958	0.61	0.106
0.3051	1.4106	0.62	0.106
0.3051	1.6248	0.631	0.106
0.3051	1.8397	0.641	0.106
0.3051	2.0551	0.65	0.106
0.3051	2.2706	0.658	0.106
0.3051	2.4854	0.664	0.106
0.3051	2.7011	0.667	0.106
0.3051	2.9154	0.669	0.106
0.3993	0.1245	0.635	0.106
0.3993	0.3408	0.527	0.106
0.3993	0.5554	0.493	0.106
0.3993	0.7694	0.483	0.106
0.3993	0.9833	0.483	0.106
0.3993	1.1989	0.487	0.106
0.3993	1.4145	0.494	0.106
0.3993	1.6303	0.5	0.106
0.3993	1.8441	0.504	0.106
0.3993	2.0597	0.506	0.106
0.3993	2.2733	0.504	0.106
0.3993	2.4894	0.498	0.106
0.3993	2.7031	0.488	0.106
0.3993	2.9177	0.474	0.106
0.3993	3.1326	0.457	0.106
