Measured thermophysical data. Refractive Index and Vapor-Liquid Equilibrium Data for the Binary Systems of Anisole with Xylene Isomers at 93.13 kPa
Source: J. Chem. Eng. Data, 2018, 10.1021/acs.jced.8b00348
Compound 1: anisole, C7H8O, InChI=1S/C7H8O/c1-8-7-5-3-2-4-6-7/h2-6H,1H3, purity 99%
Compound 2: 1,4-dimethylbenzene, C8H10, InChI=1S/C8H10/c1-7-3-5-8(2)6-4-7/h3-6H,1-2H3, purity 99%
Compound 3: 1,3-dimethylbenzene, C8H10, InChI=1S/C8H10/c1-7-4-3-5-8(2)6-7/h3-6H,1-2H3, purity 99%
Compound 4: 1,2-dimethylbenzene, C8H10, InChI=1S/C8H10/c1-7-5-3-4-6-8(7)2/h3-6H,1-2H3, purity 99%
Compound 5: ethylbenzene, C8H10, InChI=1S/C8H10/c1-2-8-6-4-3-5-7-8/h3-7H,2H2,1H3, purity 99%

System: anisole; phases: Liquid, Gas
Property: Vapor or sublimation pressure, kPa (Liquid); method: Ebulliometric method (Recirculating still)
Temperature, K	Vapor or sublimation pressure, kPa	uncertainty
423.38	93.13	0.96

System: anisole; phases: Liquid
Property: Refractive index (Na D-line) (Liquid); method: Standard Abbe refractometry
Temperature, K	Pressure, kPa	Refractive index (Na D-line)	uncertainty
293.15	93.13	1.517	0.0004

System: 1,4-dimethylbenzene; phases: Liquid, Gas
Property: Vapor or sublimation pressure, kPa (Liquid); method: Ebulliometric method (Recirculating still)
Temperature, K	Vapor or sublimation pressure, kPa	uncertainty
408.37	93.13	0.96

System: 1,4-dimethylbenzene; phases: Liquid
Property: Refractive index (Na D-line) (Liquid); method: Standard Abbe refractometry
Temperature, K	Pressure, kPa	Refractive index (Na D-line)	uncertainty
293.15	93.13	1.4956	0.0004

System: 1,3-dimethylbenzene; phases: Liquid, Gas
Property: Vapor or sublimation pressure, kPa (Liquid); method: Ebulliometric method (Recirculating still)
Temperature, K	Vapor or sublimation pressure, kPa	uncertainty
409.13	93.13	0.96

System: 1,3-dimethylbenzene; phases: Liquid
Property: Refractive index (Na D-line) (Liquid); method: Standard Abbe refractometry
Temperature, K	Pressure, kPa	Refractive index (Na D-line)	uncertainty
293.15	93.13	1.497	0.0004

System: 1,2-dimethylbenzene; phases: Liquid, Gas
Property: Vapor or sublimation pressure, kPa (Liquid); method: Ebulliometric method (Recirculating still)
Temperature, K	Vapor or sublimation pressure, kPa	uncertainty
414.41	93.13	0.96

System: 1,2-dimethylbenzene; phases: Liquid
Property: Refractive index (Na D-line) (Liquid); method: Standard Abbe refractometry
Temperature, K	Pressure, kPa	Refractive index (Na D-line)	uncertainty
293.15	93.13	1.5048	0.0004

System: ethylbenzene; phases: Liquid, Gas
Property: Vapor or sublimation pressure, kPa (Liquid); method: Ebulliometric method (Recirculating still)
Temperature, K	Vapor or sublimation pressure, kPa	uncertainty
406.23	93.13	0.96

System: ethylbenzene; phases: Liquid
Property: Refractive index (Na D-line) (Liquid); method: Standard Abbe refractometry
Temperature, K	Pressure, kPa	Refractive index (Na D-line)	uncertainty
293.15	93.13	1.4955	0.0004

System: 1,4-dimethylbenzene + anisole; phases: Liquid, Gas
Fixed: Pressure, kPa = 93.13
Property: Boiling temperature at pressure P, K (Liquid); method: Ebulliometric method (Recirculating still)
Mole fraction of 1,4-dimethylbenzene	Boiling temperature at pressure P, K	uncertainty
0	423.38	0.22
0.058	421.91	0.23
0.092	421.11	0.23
0.185	419.14	0.23
0.298	417.06	0.23
0.4	415.41	0.22
0.496	414.02	0.22
0.63	412.29	0.22
0.706	411.39	0.22
0.804	410.32	0.22
0.907	409.26	0.22
0.946	408.89	0.22
1	408.37	0.22

System: 1,4-dimethylbenzene + anisole; phases: Gas, Liquid
Fixed: Pressure, kPa = 93.13
Property: Mole fraction of 1,4-dimethylbenzene (Gas); method: Index of refraction calibration data
Mole fraction of 1,4-dimethylbenzene	Mole fraction of 1,4-dimethylbenzene	uncertainty
0	0	
0.058	0.095	0.004
0.092	0.146	0.004
0.185	0.271	0.005
0.298	0.403	0.007
0.4	0.507	0.009
0.496	0.597	0.008
0.63	0.713	0.006
0.706	0.775	0.005
0.804	0.852	0.004
0.907	0.931	0.003
0.946	0.959	0.003
1	1	

System: 1,4-dimethylbenzene + anisole; phases: Liquid
Fixed: Temperature, K = 293.15
Fixed: Pressure, kPa = 93.13
Property: Refractive index (Na D-line) (Liquid); method: Standard Abbe refractometry
Mole fraction of 1,4-dimethylbenzene	Refractive index (Na D-line)	uncertainty
0	1.517	0.0004
0.0499	1.5157	0.0004
0.1387	1.5138	0.0004
0.1684	1.5131	0.0004
0.2124	1.5122	0.0004
0.2656	1.511	0.0004
0.3055	1.5101	0.0004
0.4128	1.5078	0.0004
0.4494	1.507	0.0004
0.4497	1.507	0.0004
0.5122	1.5057	0.0004
0.5626	1.5046	0.0004
0.6095	1.5036	0.0004
0.8055	1.4995	0.0004
0.8904	1.4978	0.0004
0.9613	1.4964	0.0004
1	1.4956	0.0004

System: 1,3-dimethylbenzene + anisole; phases: Liquid, Gas
Fixed: Pressure, kPa = 93.13
Property: Boiling temperature at pressure P, K (Liquid); method: Ebulliometric method (Recirculating still)
Mole fraction of 1,3-dimethylbenzene	Boiling temperature at pressure P, K	uncertainty
0	423.38	0.22
0.049	422.3	0.23
0.118	420.93	0.23
0.19	419.58	0.23
0.298	417.71	0.23
0.392	416.24	0.22
0.527	414.34	0.22
0.599	413.41	0.22
0.7	412.19	0.22
0.796	411.13	0.22
0.909	409.98	0.22
0.953	409.56	0.22
1	409.13	0.22

System: 1,3-dimethylbenzene + anisole; phases: Gas, Liquid
Fixed: Pressure, kPa = 93.13
Property: Mole fraction of 1,3-dimethylbenzene (Gas); method: Index of refraction calibration data
Mole fraction of 1,3-dimethylbenzene	Mole fraction of 1,3-dimethylbenzene	uncertainty
0	0	
0.049	0.078	0.004
0.118	0.174	0.004
0.19	0.268	0.005
0.298	0.394	0.007
0.392	0.493	0.009
0.527	0.62	0.007
0.599	0.684	0.006
0.7	0.768	0.005
0.796	0.844	0.004
0.909	0.932	0.003
0.953	0.965	0.003
1	1	

System: 1,3-dimethylbenzene + anisole; phases: Liquid
Fixed: Temperature, K = 293.15
Fixed: Pressure, kPa = 93.13
Property: Refractive index (Na D-line) (Liquid); method: Standard Abbe refractometry
Mole fraction of 1,3-dimethylbenzene	Refractive index (Na D-line)	uncertainty
0	1.517	0.0004
0.0756	1.5154	0.0004
0.1836	1.5131	0.0004
0.2143	1.5125	0.0004
0.2716	1.5113	0.0004
0.3152	1.5104	0.0004
0.4196	1.5082	0.0004
0.4711	1.5072	0.0004
0.5086	1.5064	0.0004
0.6083	1.5045	0.0004
0.6746	1.5031	0.0004
0.7383	1.5019	0.0004
0.8189	1.5002	0.0004
0.8552	1.4997	0.0004
0.9339	1.4982	0.0004
1	1.497	0.0004

System: 1,2-dimethylbenzene + anisole; phases: Liquid, Gas
Fixed: Pressure, kPa = 93.13
Property: Boiling temperature at pressure P, K (Liquid); method: Ebulliometric method (Recirculating still)
Mole fraction of 1,2-dimethylbenzene	Boiling temperature at pressure P, K	uncertainty
0	423.38	0.22
0.059	422.33	0.23
0.106	421.58	0.22
0.203	420.2	0.22
0.271	419.36	0.22
0.42	417.82	0.22
0.503	417.11	0.22
0.601	416.38	0.22
0.701	415.74	0.22
0.801	415.21	0.22
0.899	414.77	0.22
0.95	414.57	0.22
1	414.41	0.22

System: 1,2-dimethylbenzene + anisole; phases: Gas, Liquid
Fixed: Pressure, kPa = 93.13
Property: Mole fraction of 1,2-dimethylbenzene (Gas); method: Index of refraction calibration data
Mole fraction of 1,2-dimethylbenzene	Mole fraction of 1,2-dimethylbenzene	uncertainty
0	0	
0.059	0.084	0.004
0.106	0.146	0.004
0.203	0.263	0.005
0.271	0.337	0.006
0.42	0.486	0.009
0.503	0.562	0.008
0.601	0.65	0.007
0.701	0.737	0.005
0.801	0.822	0.004
0.899	0.909	0.003
0.95	0.954	0.003
1	1	

System: 1,2-dimethylbenzene + anisole; phases: Liquid
Fixed: Temperature, K = 293.15
Fixed: Pressure, kPa = 93.13
Property: Refractive index (Na D-line) (Liquid); method: Standard Abbe refractometry
Mole fraction of 1,2-dimethylbenzene	Refractive index (Na D-line)	uncertainty
0	1.517	0.0004
0.0825	1.5159	0.0004
0.1066	1.5156	0.0004
0.1439	1.5151	0.0004
0.1945	1.5144	0.0004
0.2976	1.5131	0.0004
0.3812	1.512	0.0004
0.4796	1.5109	0.0004
0.617	1.5092	0.0004
0.6785	1.5084	0.0004
0.7801	1.5072	0.0004
0.9159	1.5057	0.0004
0.9329	1.5056	0.0004
1	1.5048	0.0004

System: ethylbenzene + anisole; phases: Liquid, Gas
Fixed: Pressure, kPa = 93.13
Property: Boiling temperature at pressure P, K (Liquid); method: Ebulliometric method (Recirculating still)
Mole fraction of ethylbenzene	Boiling temperature at pressure P, K	uncertainty
0	423.38	0.22
0.042	421.93	0.23
0.088	420.58	0.23
0.178	418.1	0.23
0.278	415.85	0.23
0.416	413.33	0.23
0.493	412.07	0.22
0.61	410.43	0.22
0.734	408.9	0.22
0.845	407.69	0.22
0.911	407.04	0.22
0.959	406.57	0.22
1	406.23	0.22

System: ethylbenzene + anisole; phases: Gas, Liquid
Fixed: Pressure, kPa = 93.13
Property: Mole fraction of ethylbenzene (Gas); method: Index of refraction calibration data
Mole fraction of ethylbenzene	Mole fraction of ethylbenzene	uncertainty
0	0	
0.042	0.079	0.004
0.088	0.152	0.004
0.178	0.284	0.005
0.278	0.404	0.007
0.416	0.545	0.008
0.493	0.61	0.007
0.61	0.707	0.006
0.734	0.799	0.004
0.845	0.885	0.003
0.911	0.935	0.003
0.959	0.971	0.003
1	1	

System: ethylbenzene + anisole; phases: Liquid
Fixed: Temperature, K = 293.15
Fixed: Pressure, kPa = 93.13
Property: Refractive index (Na D-line) (Liquid); method: Standard Abbe refractometry
Mole fraction of ethylbenzene	Refractive index (Na D-line)	uncertainty
0	1.517	0.0004
0.0762	1.5152	0.0004
0.1494	1.5136	0.0004
0.1767	1.513	0.0004
0.2118	1.5122	0.0004
0.2442	1.5115	0.0004
0.2691	1.511	0.0004
0.3432	1.5093	0.0004
0.4041	1.508	0.0004
0.412	1.5077	0.0004
0.4651	1.5066	0.0004
0.5183	1.5055	0.0004
0.6208	1.5033	0.0004
0.6885	1.5019	0.0004
0.7927	1.4998	0.0004
0.9056	1.4975	0.0004
0.9514	1.4965	0.0004
1	1.4955	0.0004
