Measured thermophysical data. Experimental Clathrate Hydrate Dissociation Data for Systems Comprising Refrigerant + CaCl2 Aqueous Solutions
Source: J. Chem. Eng. Data, 2016, 10.1021/acs.jced.5b00675
Compound 1: 1,1,1-trifluoroethane, C2H3F3, InChI=1S/C2H3F3/c1-2(3,4)5/h1H3, purity 99.8%
Compound 2: pentafluoroethane, C2HF5, InChI=1S/C2HF5/c3-1(4)2(5,6)7/h1H, purity 99.8%
Compound 3: 1,1,1,2-tetrafluoroethane, C2H2F4, InChI=1S/C2H2F4/c3-1-2(4,5)6/h1H2, purity 99.9%
Compound 4: difluoromethane, CH2F2, InChI=1S/CH2F2/c2-1-3/h1H2, purity 99.8%

System: 1,1,1,2-tetrafluoroethane; phases: Liquid, Gas
Property: Vapor or sublimation pressure, kPa (Liquid); method: Closed cell (Static) method
Temperature, K	Vapor or sublimation pressure, kPa	uncertainty
258.2	162	5
262.2	193	5
272.2	286	5
282.6	411	5
292.9	569	5
302.7	763	6

System: pentafluoroethane + 1,1,1-trifluoroethane; phases: Liquid, Gas
Fixed: Mass fraction of 1,1,1-trifluoroethane = 0.5
Property: Vapor or sublimation pressure, kPa (Liquid); method: Closed cell (Static) method
Temperature, K	Vapor or sublimation pressure, kPa	uncertainty
258.2	381	5
261.9	435	5
269.2	555	6
277.6	725	6
282.6	843	6
287.6	974	6
293.1	1133	7
297.8	1287	7
302.9	1475	8

System: difluoromethane + pentafluoroethane; phases: Liquid, Gas
Fixed: Mass fraction of difluoromethane = 0.5
Property: Vapor or sublimation pressure, kPa (Liquid); method: Closed cell (Static) method
Temperature, K	Vapor or sublimation pressure, kPa	uncertainty
262.5	570	6
271.4	758	6
273.3	807	6
277.6	922	6
282.6	1070	7
287.6	1246	7
292.6	1429	8
297.6	1635	8
302.7	1855	8
