Measured thermophysical data. Measurements of the Speed of Sound in Liquid and Supercritical n-Octane and Isooctane
Source: J. Chem. Eng. Data, 2018, 10.1021/acs.jced.7b00712
Compound 1: octane, C8H18, InChI=1S/C8H18/c1-3-5-7-8-6-4-2/h3-8H2,1-2H3, purity 99.8%
Compound 2: 2,2,4-trimethylpentane, C8H18, InChI=1S/C8H18/c1-7(2)6-8(3,4)5/h7H,6H2,1-5H3, purity 99.8%

System: octane; phases: Liquid
Property: Speed of sound, m/s (Liquid); method: Brillouin light scattering
Temperature, K	Pressure, kPa	Speed of sound, m/s	uncertainty
296.97	100	1173	15.3
303.61	100	1151.7	15
318.37	100	1089.5	14.2
332.5	100	1029.1	13.4
347.68	100	970.1	12.6
362.53	100	912.3	11.9
377.5	100	855.4	11.2
391.61	100	806.4	10.5
297.28	4000	1196.5	15.6
303.53	4000	1172.7	15.3
318.3	4000	1121.2	14.6
332.26	4000	1066.7	13.9
347.4	4000	1007.2	13.1
362.28	4000	955.4	12.4
377.03	4000	909.7	11.9
390.8	4000	860.1	11.2
407.38	4000	802.1	10.5
412.59	4000	786.2	10.3
422.73	4000	747.2	9.8
431.82	4000	720.1	9.4
442.23	4000	682.1	8.9
452.55	4000	646.4	8.5
462.37	4000	614.7	8.1
472.05	4000	579.7	7.7
482.98	4000	543	7.2
493.41	4000	503.5	6.7
502.54	4000	477.8	6.4
513	4000	439.1	6
522.92	4000	407.7	5.7
532.23	4000	373.2	5.3
537.4	4000	354.7	5.1
542.87	4000	337.8	5
546.68	4000	325.7	4.8
550.42	4000	315.2	4.7
557.27	4000	290.5	4.5
561.2	4000	276.7	4.5
567.01	4000	257.3	4.3
570.16	4000	245.6	4.2
297.34	7000	1222	15.9
303.33	7000	1199.7	15.6
318.35	7000	1141.4	14.9
332.33	7000	1089.1	14.2
347.29	7000	1031.9	13.4
362.17	7000	979.6	12.8
377.33	7000	933.5	12.2
391	7000	892.3	11.6
407.46	7000	836.9	10.9
412.65	7000	818.8	10.7
422.88	7000	784.5	10.2
431.88	7000	754.2	9.9
442.49	7000	723.8	9.5
452.64	7000	689.9	9
462.45	7000	660.1	8.7
472.15	7000	631.6	8.3
483.04	7000	599.7	7.9
493.48	7000	565.4	7.5
502.73	7000	537.1	7.1
513.26	7000	506.5	6.8
523.46	7000	478.6	6.5
532.36	7000	450.6	6.2
537.75	7000	436.8	6
543.83	7000	422	5.8
547.82	7000	406.8	5.7
552.01	7000	398.1	5.6
558.19	7000	380.2	5.4
561.87	7000	372.6	5.3
566.82	7000	356.5	5.2
570.2	7000	347.6	5.1
573.03	7000	341	5
575.57	7000	332.6	4.9
578.92	7000	323.1	4.7
297.38	10000	1242.7	16.2
303.38	10000	1213.7	15.8
318.11	10000	1164.8	15.2
332.32	10000	1108.6	14.4
347.37	10000	1053.4	13.7
362.12	10000	1006.2	13.1
377.35	10000	960.5	12.5
391.09	10000	917.4	11.9
407.45	10000	865.2	11.3
412.71	10000	846.7	11
422.61	10000	818.2	10.7
431.92	10000	789.8	10.3
442.65	10000	755.7	9.9
452.77	10000	728.1	9.5
465.54	10000	695.8	9.1
472.28	10000	676.9	8.9
483.12	10000	646.1	8.5
493.62	10000	614.7	8.1
502.95	10000	590.5	7.8
513.46	10000	563.1	7.5
523.6	10000	533.3	7.1
532.59	10000	511.4	6.8
538.1	10000	497.5	6.7
544.52	10000	483.1	6.5
548.6	10000	471.5	6.4
552.52	10000	465.1	6.3
558.64	10000	448	6.1
562.27	10000	441.3	6
566.96	10000	430.4	5.9
570.48	10000	424	5.8
573.37	10000	414	5.7
576.28	10000	408.7	5.7
579.36	10000	400.8	5.6
297.35	12000	1250.8	16.3
303.42	12000	1233	16
318.37	12000	1184.5	15.4
332.56	12000	1128.3	14.7
347.46	12000	1072.7	14
363.67	12000	1027.8	13.4
379.75	12000	973.9	12.7
394.67	12000	920.8	12
403.71	12000	896.1	11.7
414.33	12000	864	11.3
422.69	12000	844.3	11
431.77	12000	815.2	10.6
442.73	12000	779.7	10.2
452.88	12000	750.8	9.8
462.61	12000	724.2	9.4
472.38	12000	693.8	9.1
483.14	12000	672.7	8.8
493.73	12000	645	8.5
503.17	12000	616.5	8.1
513.67	12000	591.5	7.8
523.17	12000	570.6	7.6
532.79	12000	545.1	7.2
538.41	12000	530.4	7
543.27	12000	520.1	6.9
549.27	12000	505.4	6.7
552.88	12000	500.8	6.7
559.37	12000	486.2	6.5
562.71	12000	477.8	6.4
567.1	12000	471	6.3
570.75	12000	461	6.2
573.6	12000	454.4	6.1
576.53	12000	451.3	6.1
579.57	12000	444.1	6

System: octane; phases: Fluid (supercritical or subcritical phases)
Property: Speed of sound, m/s (Fluid (supercritical or subcritical phases)); method: Brillouin light scattering
Temperature, K	Pressure, kPa	Speed of sound, m/s	uncertainty
573.8	3000	135.4	8.6
577.56	3000	110.1	9.4
582.19	3000	86.9	8.4
585.88	3000	88.4	5.5
589.68	3000	93.7	2.3
594.9	3000	102.1	1.4
599.12	3000	108.9	2.6
605.28	3000	116.6	4
610.17	3000	124.3	3.7
614.76	3000	129.2	3.3
619.43	3000	134.1	3
624.89	3000	139.4	2.9
630.15	3000	144.3	2.7
635.95	3000	149.3	2.5
638.9	3000	152.4	2.5
573.69	3500	189	7.6
577.86	3500	168.5	6.8
582.61	3500	144.9	7.1
586.85	3500	124.2	6.6
591.09	3500	108.6	5.7
596.02	3500	100.7	4.5
599.76	3500	95.6	3.6
605.73	3500	94.8	2.3
610.28	3500	103.2	3.7
614.83	3500	111.5	1.5
619.62	3500	119	1.6
624.55	3500	124.9	2.6
629.96	3500	132.1	1.9
635.97	3500	140	2.3
638.73	3500	142.4	2.1
573.05	4000	228.1	6.4
575.02	4000	217.1	5.2
579.05	4000	198.3	6.3
583.76	4000	181	5.8
588.01	4000	166.2	5.9
594.05	4000	140.2	5.5
598.63	4000	125.5	5.4
602.47	4000	114.3	6.6
606.87	4000	111.1	5.5
612.5	4000	108.7	4
617.46	4000	110.4	3.3
622	4000	112.6	2.7
624.66	4000	114.2	1.5
628.69	4000	120.4	1.7
632.06	4000	124.2	1.7
636.07	4000	131.6	1.9
642.66	4000	142.7	1.9
573.9	4500	250.4	5.2
577.56	4500	236.5	6.1
583.28	4500	215.8	5.5
587.72	4500	200.5	5.6
591.69	4500	186.7	4.7
597.28	4500	170.5	5
601.1	4500	159.7	4.9
607.11	4500	144.8	5.2
611.94	4500	133.3	4.3
616.02	4500	128.5	3.6
619.76	4500	125.2	2
625	4500	125.1	2.6
630.45	4500	126.6	2.3
636.31	4500	132	1.7
639.03	4500	134.5	1.8
584.07	5000	239.2	4.8
588.39	5000	226.1	4.9
593.97	5000	206.7	5.3
599.17	5000	192.7	4.8
603.01	5000	180.4	4.5
607.61	5000	169.3	4.4
613.58	5000	153.7	4.5
616.33	5000	148.3	3.9
620.31	5000	144	3.7
623.42	5000	141.6	3.7
625.29	5000	139.2	3
629.77	5000	137.3	2.5
633.13	5000	137.6	2.6
637.58	5000	140.4	2.2
642.09	5000	144.1	2
584.52	6000	280.5	4.8
588.83	6000	270.2	4.7
594.09	6000	255.1	4.8
599.18	6000	241.2	4.6
603.24	6000	226.2	4.2
607.97	6000	215.3	4.5
613.8	6000	204.8	4.5
623.5	6000	184.3	4.1
633.62	6000	169.8	3.5
642.28	6000	160.5	2.9
584.97	7000	314.5	5
589.14	7000	302.3	4.8
594.28	7000	290.8	4.7
599.55	7000	276.6	4.6
603.57	7000	254.3	4.5
608.4	7000	254.8	4.4
614.19	7000	242.3	4.2
623.84	7000	224.1	4.1
633.94	7000	204.8	3.9
642.75	7000	194.7	3.8
585.27	8000	351.8	5.1
589.41	8000	337	5
594.52	8000	322.3	4.8
599.72	8000	309.6	4.7
603.85	8000	299	4.8
608.86	8000	285.3	4.4
614.65	8000	273.2	4.3
624.5	8000	254.1	4.1
634.48	8000	240.7	4.3
643.16	8000	229.4	4.1
585.51	9000	367.9	5.1
589.67	9000	358.4	5.1
594.74	9000	346.5	5
600	9000	334	4.8
604.21	9000	324.3	4.7
609.24	9000	312.3	4.6
615.18	9000	302	4.6
624.87	9000	283.1	4.4
585.79	10000	392.1	5.5
589.93	10000	385.1	5.4
594.94	10000	374.1	5.3
601	10000	358.1	5.2
609.54	10000	340.1	5

System: 2,2,4-trimethylpentane; phases: Liquid
Property: Speed of sound, m/s (Liquid); method: Brillouin light scattering
Temperature, K	Pressure, kPa	Speed of sound, m/s	uncertainty
294.06	100	1099.7	14.3
304.03	100	1058.5	13.8
313.81	100	1017.3	13.2
323.56	100	978.2	12.7
333.42	100	938.5	12.2
342.88	100	898	11.7
352.86	100	858.9	11.2
363.55	100	821.9	10.7
294.37	3000	1127.4	14.7
304.16	3000	1088.2	14.2
313.92	3000	1037.2	13.5
323.61	3000	999.1	13
333.48	3000	968	12.6
343.07	3000	927.9	12.1
352.89	3000	891.7	11.6
363.39	3000	852.2	11.1
373.04	3000	821.1	10.7
383.18	3000	783.2	10.2
393.83	3000	742.3	9.7
402.16	3000	716.5	9.4
412.57	3000	677.6	8.9
423.95	3000	636.8	8.4
434.51	3000	602.6	7.9
443.7	3000	569.7	7.5
452.94	3000	538.4	7.1
462.54	3000	502.1	6.7
472.45	3000	464.2	6.3
483.15	3000	423.5	5.9
493.12	3000	386.4	5.5
502.8	3000	350.1	5.1
512.41	3000	311.4	4.8
523.31	3000	264.5	4.5
294.65	6000	1147.6	14.9
304.23	6000	1109.6	14.4
313.96	6000	1065.2	13.9
323.65	6000	1027.4	13.4
333.5	6000	996	13
343.16	6000	954.8	12.4
352.94	6000	921.1	12
363.49	6000	883.5	11.5
373.27	6000	843.9	11
383.8	6000	813.8	10.6
394	6000	782.2	10.2
402.48	6000	750.9	9.8
412.84	6000	719.3	9.4
424.32	6000	678.1	8.9
434.94	6000	647.4	8.5
444	6000	619.6	8.2
453.22	6000	588.3	7.8
463.04	6000	558.9	7.4
472.86	6000	530.7	7.1
483.63	6000	496.7	6.7
493.56	6000	464.9	6.3
503.17	6000	435.4	6
513.04	6000	404	5.7
523.97	6000	371.4	5.4
294.84	10000	1176.1	15.3
304.27	10000	1136.9	14.8
313.82	10000	1100.1	14.3
323.67	10000	1060.4	13.8
333.46	10000	1028	13.4
343.22	10000	990.3	12.9
353.01	10000	961.7	12.5
363.54	10000	925.7	12.1
373.41	10000	888.2	11.6
384.11	10000	855.6	11.2
394.15	10000	825.8	10.8
402.64	10000	800.2	10.4
413.07	10000	766.7	10
424.49	10000	732.1	9.6
435.26	10000	701	9.2
444.22	10000	677.1	8.9
454.37	10000	648.8	8.5
463.43	10000	622.7	8.2
473.22	10000	596.3	7.9
484.05	10000	569.9	7.5
494.09	10000	542.2	7.2
503.79	10000	516.1	6.9
513.78	10000	491.8	6.6
524.59	10000	463	6.3
294.97	12000	1181.7	15.4
304.27	12000	1147.7	14.9
313.85	12000	1110.8	14.5
323.71	12000	1075.4	14
333.4	12000	1041.9	13.6
343.21	12000	1008.5	13.1
353.04	12000	975.5	12.7
363.58	12000	943.8	12.3
373.49	12000	908.6	11.8
384.26	12000	876.5	11.4
394.19	12000	848.1	11.1
402.78	12000	819.5	10.7
413.22	12000	791.3	10.3
424.59	12000	756.7	9.9
435.36	12000	726.5	9.5
444.36	12000	700.3	9.2
455.24	12000	671.1	8.8
463.72	12000	651.6	8.6
473.48	12000	627.7	8.3
484.3	12000	598.4	7.9
494.42	12000	576.5	7.6
504.09	12000	550.4	7.3
514.01	12000	526.6	7
524.7	12000	501.3	6.7

System: 2,2,4-trimethylpentane; phases: Fluid (supercritical or subcritical phases)
Property: Speed of sound, m/s (Fluid (supercritical or subcritical phases)); method: Brillouin light scattering
Temperature, K	Pressure, kPa	Speed of sound, m/s	uncertainty
543.28	3000	159	6.4
547.77	3000	135.2	7.2
552.48	3000	103.8	6.9
558.01	3000	97.9	5.6
567.24	3000	109.9	2.6
570.76	3000	112.7	1.6
576.9	3000	117.3	1.6
583.34	3000	121.9	1.7
586.96	3000	125	1.8
592.79	3000	130.8	2
597.98	3000	136.1	2.2
602.56	3000	141.1	2.4
607.97	3000	145.8	2.5
613.31	3000	150.4	2.5
618.84	3000	154.9	2.6
623.75	3000	159.5	2.6
629.42	3000	164	2.5
633.71	3000	166.1	2.6
543.47	4000	233.1	5.8
548.38	4000	216.1	6
553.35	4000	194.1	6.5
559.18	4000	172.1	6
563.28	4000	154.4	5.4
568.08	4000	137.3	4.3
573.32	4000	122.1	5.4
578.09	4000	114.9	2.8
582.97	4000	114.7	2.2
587.1	4000	116	1.8
592.49	4000	117.9	1.6
597.57	4000	119.2	1.6
602.34	4000	121.2	1.6
607.09	4000	124.3	1.7
612.44	4000	129.9	1.8
617.81	4000	134.8	1.9
622.75	4000	139	2
628.07	4000	145.5	2.1
632.19	4000	148.1	2.1
543.63	5000	282.2	4.9
548.79	5000	262.4	4.9
553.8	5000	247.6	5
559.16	5000	232.4	5
564.27	5000	214.5	5.1
569.24	5000	201.2	5.2
574.23	5000	187	5.2
579	5000	173.2	5
584.13	5000	161.6	4.5
588.18	5000	151.1	4
593.39	5000	140.6	3.6
598.54	5000	135.1	3.2
603.22	5000	132.5	2.8
607.67	5000	131	2.4
612.74	5000	131.9	2.2
618.08	5000	135	2
622.82	5000	137.2	1.9
627.69	5000	141.2	1.9
631.25	5000	143.4	1.9
543.74	6000	314.4	4.6
548.94	6000	301.9	4.5
553.96	6000	286.4	4.4
559.12	6000	272.8	4.8
564.85	6000	257.3	4.2
570.06	6000	244.3	4.1
574.7	6000	233	4
579.62	6000	222.1	3.9
584.82	6000	208.9	3.9
588.98	6000	199.3	3.8
594.09	6000	191.7	3.7
599.18	6000	184.6	3.6
604.02	6000	175.1	3.5
608.43	6000	167.7	3.4
613.49	6000	164.3	3.3
618.6	6000	159.9	3.2
623.43	6000	156.1	3.1
628.11	6000	153.4	2.9
631.51	6000	156	2.3
544.07	10000	409.3	5.6
549.02	10000	399.6	5.5
554.27	10000	392.6	5.5
558.52	10000	386.7	5.4
564.81	10000	374.5	5.3
570.54	10000	362.4	5.2
575.07	10000	354	5.1
580.32	10000	343.6	5
585.35	10000	337.5	5
589.65	10000	331.2	4.9
595.15	10000	318.7	4.8
600.35	10000	311.6	4.7
605.01	10000	304.3	4.6
609.62	10000	295.9	4.5
614.69	10000	286.8	4.4
619.8	10000	281.3	4.3
624.7	10000	276.4	4.3
629.13	10000	269.4	4.2
544.08	12000	448.4	6
548.93	12000	439.8	5.9
554.24	12000	430.8	5.8
558.54	12000	426	5.7
564.68	12000	415.3	5.6
569.81	12000	404.7	5.5
574.8	12000	398.5	5.5
580.26	12000	388.5	5.4
585.19	12000	379.7	5.2
589.39	12000	374.8	5.2
594.93	12000	363.8	5.1
600.58	12000	356.1	5
604.68	12000	350.2	4.9
609.5	12000	342.6	4.8
614.9	12000	336.6	4.8
619.6	12000	329.3	4.7
624.61	12000	321.5	4.6
629.2	12000	316.9	4.5
