Measured thermophysical data. Heat Capacity, Density, Vapor Pressure, and Enthalpy of Vaporization of Isoamyl dl-Lactate
Source: J. Chem. Eng. Data, 2019, 10.1021/acs.jced.9b00209
Compound 1: isopentyl 2-hydroxypropanoate, C8H16O3, InChI=1S/C8H16O3/c1-6(2)4-5-11-8(10)7(3)9/h6-7,9H,4-5H2,1-3H3

System: isopentyl 2-hydroxypropanoate; phases: Liquid, Gas
Property: Molar heat capacity at saturation pressure, J/K/mol (Liquid); method: Vacuum adiabatic calorimetry
Temperature, K	Molar heat capacity at saturation pressure, J/K/mol	uncertainty
288.15	360.71	3.63
293.65	362.52	3.65
298.15	364.02	3.66
303.55	365.85	3.68
308.95	367.71	3.7
313.65	369.34	3.72
318.45	371.04	3.73
323.65	372.9	3.75
328.25	374.56	3.77
333.85	376.6	3.79
338.75	378.4	3.81
343.05	380	3.82
348.55	382.06	3.84
353.15	383.8	3.86
358.45	385.81	3.88
363.35	387.69	3.9
368.05	389.51	3.92
373.75	391.72	3.94
378.85	393.72	3.96
383.35	395.5	3.98
388.65	397.6	4
393.25	399.44	4.02
398.45	401.54	4.04
403.15	403.44	4.06
408.65	405.69	4.08
413.15	407.54	4.1
418.85	409.91	4.12
423.95	412.04	4.14
428.45	413.94	4.16
433.15	415.95	4.18
438.55	418.27	4.21
443.65	420.49	4.23
448.15	422.47	4.25
453.65	424.92	4.27

System: isopentyl 2-hydroxypropanoate; phases: Liquid
Fixed: Pressure, kPa = 101.325
Property: Mass density, kg/m3 (Liquid); method: Pycnometric method
Temperature, K	Mass density, kg/m3	uncertainty
288.15	976	9
293.65	973.5	9
298.15	969.5	9
303.15	965	9
308.15	960.6	9
315.65	954.9	9
320.15	950	9
326.15	945.3	9
331.65	939.8	9
336.15	937.8	9
341.45	931.1	9
346.15	928	9
350.95	922.7	9
355.65	917	9
361.65	913.2	9
367.15	908	9
373.15	903	9
378.45	898.3	9
383.45	893	9
390.65	887.5	9
397.15	883.1	9
404.35	876.4	9
410.85	869.6	9
417.05	864.7	9
420.45	861	9
424.75	854.7	9
428.15	854.2	9
434.25	848.9	9
441.75	842.2	9
448.55	836	9
453.15	832	9

System: isopentyl 2-hydroxypropanoate; phases: Liquid, Gas
Property: Boiling temperature at pressure P, K (Liquid); method: Ebulliometric method (Recirculating still)
Pressure, kPa	Boiling temperature at pressure P, K	uncertainty
4.5	374.59	1.55
8.6	391.79	1.35
13.8	404.56	1.16
18.4	412.4	1.11
22.8	419.76	1.08
27.9	426.15	1.05
33.2	431.55	1.04
38.6	436.95	1.04
42.9	441.38	1.03
48.2	444.81	1.02
52.3	447.75	1.02
57.6	451.2	1.02
62.3	455.15	1.02
69.2	459.15	1.01
72.7	461.47	1.01
77	463.8	1.01
82	466.13	1.01
87.2	468.46	1.01
91.4	470.79	1.01
95.7	472.35	1.01
100.7	474.15	1.01
110.3	478.56	1.01
