Measured thermophysical data. Vapor Liquid Equilibrium Data for 2,3-Pentanedione + (Acetaldehyde or Acetone) at (100, 150, and 200) kPa
Source: J. Chem. Eng. Data, 2019, 10.1021/acs.jced.8b01196
Compound 1: 2,3-pentanedione, C5H8O2, InChI=1S/C5H8O2/c1-3-5(7)4(2)6/h3H2,1-2H3
Compound 2: ethanal, C2H4O, InChI=1S/C2H4O/c1-2-3/h2H,1H3
Compound 3: acetone, C3H6O, InChI=1S/C3H6O/c1-3(2)4/h1-2H3

System: 2,3-pentanedione; phases: Liquid
Property: Mass density, kg/m3 (Liquid); method: Vibrating tube method
Temperature, K	Pressure, kPa	Mass density, kg/m3	uncertainty
292.15	101.325	982	2

System: 2,3-pentanedione; phases: Liquid
Property: Refractive index (Na D-line) (Liquid); method: Standard Abbe refractometry
Temperature, K	Pressure, kPa	Refractive index (Na D-line)	uncertainty
292.15	101.325	1.412	0.001

System: 2,3-pentanedione; phases: Liquid, Gas
Property: Boiling temperature at pressure P, K (Liquid); method: Ebulliometric method (Recirculating still)
Pressure, kPa	Boiling temperature at pressure P, K	uncertainty
15.33	331.67	1.14
30.35	348.05	1.1
45.32	358.7	1.06
50.34	361.4	1.04
60.35	366.81	1.04
65.35	369.25	1.03
75.35	373.55	1.02
90.29	379.26	1.02
100.75	382.52	1.02
105.45	384.9	1.01
120.51	389.04	1.01
135.32	391.37	1.01
150.5	395.74	1.01
165.5	398.9	1.01
180.57	401.71	1
195.59	403.12	1
200.68	405.62	1.03

System: 2,3-pentanedione; phases: Liquid, Gas
Property: Vapor or sublimation pressure, kPa (Liquid); method: Ebulliometric method (Recirculating still)
Temperature, K	Vapor or sublimation pressure, kPa	uncertainty
382.52	100	4
395.74	150	4
405.62	200	5

System: ethanal; phases: Liquid
Property: Refractive index (Na D-line) (Liquid); method: Standard Abbe refractometry
Temperature, K	Pressure, kPa	Refractive index (Na D-line)	uncertainty
293.15	101.325	1.337	0.001

System: ethanal; phases: Liquid, Gas
Property: Boiling temperature at pressure P, K (Liquid); method: Ebulliometric method (Recirculating still)
Pressure, kPa	Boiling temperature at pressure P, K	uncertainty
100.68	293.52	1.01
105.38	294.73	1.01
115.48	297.08	1.01
135.54	301.34	1.01
150.37	304.31	1.01
165.44	307.04	1
180.92	309.59	1
195.74	312	1
200.79	312.98	1
210.95	314.25	1
225.32	316.38	1
240.4	318.4	1

System: ethanal; phases: Liquid, Gas
Property: Vapor or sublimation pressure, kPa (Liquid); method: Ebulliometric method (Recirculating still)
Temperature, K	Vapor or sublimation pressure, kPa	uncertainty
293.52	100	5
304.31	150	5
312.98	200	6

System: acetone; phases: Liquid
Property: Mass density, kg/m3 (Liquid); method: Vibrating tube method
Temperature, K	Pressure, kPa	Mass density, kg/m3	uncertainty
298.15	101.325	785	2

System: acetone; phases: Liquid
Property: Refractive index (Na D-line) (Liquid); method: Standard Abbe refractometry
Temperature, K	Pressure, kPa	Refractive index (Na D-line)	uncertainty
293.15	101.325	1.359	0.001

System: acetone; phases: Liquid, Gas
Property: Boiling temperature at pressure P, K (Liquid); method: Ebulliometric method (Recirculating still)
Pressure, kPa	Boiling temperature at pressure P, K	uncertainty
40.32	304.62	1.04
50.34	310.1	1.03
60.36	314.79	1.02
70.3	318.89	1.02
80.32	322.55	1.02
90.34	325.85	1.01
100.38	328.89	1.01
120.34	334.35	1.01
140.53	339.06	1.01
150.68	341.5	1.01
160.33	343.27	1
180.53	347.07	1
200.55	350.57	1
220.29	353.82	1

System: acetone; phases: Liquid, Gas
Property: Vapor or sublimation pressure, kPa (Liquid); method: Ebulliometric method (Recirculating still)
Temperature, K	Vapor or sublimation pressure, kPa	uncertainty
328.89	100	4
341.5	150	5
350.57	200	6

System: ethanal + 2,3-pentanedione; phases: Liquid, Gas
Property: Boiling temperature at pressure P, K (Liquid); method: Ebulliometric method (Recirculating still)
Mole fraction of ethanal	Pressure, kPa	Boiling temperature at pressure P, K	uncertainty
0	100	382.52	1.01
0.076	100	363.27	2.14
0.091	100	360.6	2.09
0.102	100	358.94	1.64
0.117	100	356.21	1.62
0.184	100	345.89	1.54
0.218	100	341.82	1.4
0.403	100	320.74	1.19
0.634	100	308.5	1.1
0.852	100	295.98	1.07
1	100	293.52	1.01
0	150	395.74	1.02
0.039	150	385.05	2.35
0.042	150	383.87	2.28
0.058	150	381	2.23
0.07	150	378.65	1.77
0.144	150	365.12	1.6
0.21	150	357.15	1.47
0.273	150	348.01	1.47
0.377	150	335.53	1.29
0.489	150	326.75	1.19
1	150	304.31	1.01
0	200	405.62	1.02
0.025	200	399.76	2.04
0.043	200	396.15	1.92
0.074	200	389.8	1.68
0.096	200	387.45	1.39
0.174	200	378.15	1.49
0.214	200	371.55	1.48
0.355	200	353.87	1.43
0.488	200	338.32	1.15
1	200	312.98	1.01

System: ethanal + 2,3-pentanedione; phases: Gas, Liquid
Property: Mole fraction of ethanal (Gas); method: Chromatography
Mole fraction of ethanal	Pressure, kPa	Mole fraction of ethanal	uncertainty
0	100	0	
0.076	100	0.457	0.046
0.091	100	0.524	0.045
0.102	100	0.571	0.026
0.117	100	0.629	0.024
0.184	100	0.791	0.018
0.218	100	0.83	0.012
0.403	100	0.94	0.008
0.634	100	0.972	0.008
0.852	100	0.99	0.008
1	100	1	
0	150	0	
0.039	150	0.284	0.054
0.042	150	0.295	0.051
0.058	150	0.368	0.046
0.07	150	0.413	0.029
0.144	150	0.659	0.023
0.21	150	0.776	0.014
0.273	150	0.826	0.01
0.377	150	0.905	0.009
0.489	150	0.954	0.009
1	150	1	
0	200	0	
0.025	200	0.153	0.066
0.043	200	0.359	0.044
0.074	200	0.435	0.03
0.096	200	0.549	0.021
0.174	200	0.696	0.017
0.214	200	0.762	0.011
0.355	200	0.867	0.01
0.488	200	0.934	0.008
1	200	1	

System: acetone + 2,3-pentanedione; phases: Liquid, Gas
Property: Boiling temperature at pressure P, K (Liquid); method: Ebulliometric method (Recirculating still)
Mole fraction of acetone	Pressure, kPa	Boiling temperature at pressure P, K	uncertainty
0	100	382.52	1.01
0.011	100	381.4	1.56
0.039	100	377.26	1.38
0.082	100	373.04	1.15
0.136	100	370.61	1.18
0.151	100	368.42	1.18
0.298	100	356.96	1.13
0.532	100	344.93	1.09
0.668	100	339.51	1.05
0.909	100	331.5	1.05
1	100	328.89	1.01
0	150	395.74	1.02
0.029	150	394.1	1.22
0.072	150	388.69	1.53
0.099	150	384.85	1.38
0.228	150	376.09	1.18
0.27	150	373.58	1.09
0.392	150	367.9	1.09
0.742	150	350	1.09
0.88	150	345.2	1.06
0.941	150	343.29	1.04
1	150	341.5	1.01
0	200	405.62	1.02
0.078	200	398.25	1.28
0.159	200	390.24	1.2
0.243	200	385.27	1.12
0.288	200	382.52	1.13
0.427	200	374.08	1.11
0.545	200	367.73	1.09
0.628	200	364.1	1.07
0.825	200	356.46	1.06
0.912	200	353.52	1.05
0.968	200	351.85	1.04
0.988	200	351.16	1.05
1	200	350.57	1.01

System: acetone + 2,3-pentanedione; phases: Gas, Liquid
Property: Mole fraction of acetone (Gas); method: Chromatography
Mole fraction of acetone	Pressure, kPa	Mole fraction of acetone	uncertainty
0	100	0	
0.011	100	0.055	0.031
0.039	100	0.161	0.024
0.082	100	0.261	0.021
0.136	100	0.395	0.019
0.151	100	0.466	0.019
0.298	100	0.714	0.012
0.532	100	0.864	0.009
0.668	100	0.929	0.008
0.909	100	0.986	0.008
1	100	1	
0	150	0	
0.029	150	0.112	0.036
0.072	150	0.316	0.031
0.099	150	0.384	0.027
0.228	150	0.613	0.015
0.27	150	0.67	0.011
0.392	150	0.764	0.009
0.742	150	0.941	0.009
0.88	150	0.979	0.008
0.941	150	0.99	0.008
1	150	1	
0	200	0	
0.078	200	0.313	0.026
0.159	200	0.489	0.016
0.243	200	0.583	0.014
0.288	200	0.661	0.011
0.427	200	0.757	0.01
0.545	200	0.859	0.01
0.628	200	0.886	0.009
0.825	200	0.961	0.009
0.912	200	0.984	0.008
0.968	200	0.994	0.006
0.988	200	0.998	0.002
1	200	1	
