Measured thermophysical data. Study of the Solubility, Supersolubility, and Metastable Zone Width of Ternary System (NaCl + Na2SO4 + H2O) Containing Organic Impurity at 333.15 K
Source: J. Chem. Eng. Data, 2019, 10.1021/acs.jced.9b00345
Compound 1: sodium sulfate, Na2O4S, InChI=1S/2Na.H2O4S/c;;1-5(2,3)4/h;;(H2,1,2,3,4)/q2*+1;/p-2, purity 99.5%
Compound 2: sodium chloride, ClNa, InChI=1S/ClH.Na/h1H;/q;+1/p-1, purity 99%
Compound 3: water, H2O, InChI=1S/H2O/h1H2, purity 99.9%

System: sodium sulfate + water; phases: Liquid, Crystal
Fixed: Pressure, kPa = 88.4
Property: Mass fraction of sodium sulfate (Liquid); method: Titration method
Temperature, K	Mass fraction of sodium sulfate	uncertainty
323.15	0.3165	0.0064
333.15	0.3115	0.0063

System: sodium chloride + water; phases: Liquid, Crystal
Fixed: Pressure, kPa = 88.4
Property: Mass fraction of sodium chloride (Liquid); method: Titration method
Temperature, K	Mass fraction of sodium chloride	uncertainty
323.15	0.2698	0.0054
333.15	0.2729	0.0055

System: sodium sulfate + sodium chloride + water; phases: Liquid, Crystal
Fixed: Temperature, K = 333.15
Fixed: Pressure, kPa = 88.4
Property: Mass fraction of sodium chloride (Liquid); method: Titration method
Mass fraction of sodium sulfate	Mass fraction of sodium chloride	uncertainty
0	0.2729	0.0055
0.0205	0.2612	0.0053
0.0501	0.246	0.005

System: sodium sulfate + sodium chloride + water; phases: Liquid, Crystal
Fixed: Temperature, K = 333.15
Fixed: Pressure, kPa = 88.4
Property: Mass fraction of sodium chloride (Liquid); method: Titration method
Mass fraction of sodium sulfate	Mass fraction of sodium chloride	uncertainty
0.0501	0.246	0.0052
0.0576	0.2341	0.0052
0.0674	0.214	0.0051
0.1111	0.162	0.004
0.1679	0.1099	0.0036
0.2425	0.0508	0.0039
0.3115	0	
