Measured thermophysical data. Density and Speed-of-Sound Measurements for Dilute Binary Mixtures of Diethylammonium-Based Protic Ionic Liquids with Water
Source: J. Chem. Eng. Data, 2018, 10.1021/acs.jced.7b00909
Compound 1: diethylammonium formate, C5H13NO2, InChI=1S/C4H11N.CH2O2/c1-3-5-4-2;2-1-3/h5H,3-4H2,1-2H3;1H,(H,2,3), purity 98%
Compound 2: diethylammonium acetate, C6H15NO2, InChI=1S/C4H11N.C2H4O2/c1-3-5-4-2;1-2(3)4/h5H,3-4H2,1-2H3;1H3,(H,3,4), purity 98%
Compound 3: diethylammonium propanoate, C7H17NO2, InChI=1S/C4H11N.C3H6O2/c1-3-5-4-2;1-2-3(4)5/h5H,3-4H2,1-2H3;2H2,1H3,(H,4,5), purity 97%
Compound 4: diethylammonium butanoate, C8H19NO2, InChI=1S/C4H11N.C4H8O2/c1-3-5-4-2;1-2-3-4(5)6/h5H,3-4H2,1-2H3;2-3H2,1H3,(H,5,6), purity 99%
Compound 5: water, H2O, InChI=1S/H2O/h1H2, purity 99.8%

System: diethylammonium formate; phases: Liquid
Fixed: Pressure, kPa = 94.4
Property: Mass density, kg/m3 (Liquid); method: Vibrating tube method
Temperature, K	Mass density, kg/m3	uncertainty
293.15	1028.05	4.08
298.15	1020.45	4.08
303.15	1015.75	4.08
308.15	1011.37	4.08
313.15	1006.98	4.07

System: diethylammonium acetate; phases: Liquid
Fixed: Pressure, kPa = 94.4
Property: Mass density, kg/m3 (Liquid); method: Vibrating tube method
Temperature, K	Mass density, kg/m3	uncertainty
293.15	1008.95	4.08
298.15	1002.79	4.07
303.15	993.36	4.07
308.15	989.81	4.07
313.15	986.31	4.07

System: diethylammonium propanoate; phases: Liquid
Fixed: Pressure, kPa = 94.4
Property: Mass density, kg/m3 (Liquid); method: Vibrating tube method
Temperature, K	Mass density, kg/m3	uncertainty
293.15	986.04	4.34
298.15	979.72	4.33
303.15	970.3	4.32
308.15	966.6	4.32
313.15	962.95	4.31

System: diethylammonium butanoate; phases: Liquid
Fixed: Pressure, kPa = 94.4
Property: Mass density, kg/m3 (Liquid); method: Vibrating tube method
Temperature, K	Mass density, kg/m3	uncertainty
293.15	965.08	4.01
298.15	958.77	4.01
303.15	949.51	4.01
308.15	945.8	4.01
313.15	942.16	4.01

System: water; phases: Liquid
Fixed: Pressure, kPa = 94.4
Property: Mass density, kg/m3 (Liquid); method: Vibrating tube method
Temperature, K	Mass density, kg/m3	uncertainty
293.15	998.21	4
298.15	997.05	4
303.15	995.65	4
308.15	994.04	4
313.15	992.22	4
298.15	997.057	4

System: water; phases: Liquid
Fixed: Pressure, kPa = 94.4
Fixed: Temperature, K = 298.15
Fixed: Frequency, MHz = 2
Property: Speed of sound, m/s (Liquid); method: Linear variable-path acoustic interferometer
Speed of sound, m/s	uncertainty
1497.7	1.8
1497.6	1.8

System: diethylammonium formate + water; phases: Liquid
Fixed: Pressure, kPa = 94.4
Property: Mass density, kg/m3 (Liquid); method: Vibrating tube method
Temperature, K	Molality, mol/kg of diethylammonium formate	Mass density, kg/m3	uncertainty
293.15	0	998.21	4
293.15	0.0187	998.28	4
293.15	0.039	998.35	4
293.15	0.0589	998.42	4
293.15	0.0782	998.5	4
293.15	0.098	998.57	4
293.15	0.118	998.64	4
293.15	0.131	998.69	4
293.15	0.1409	998.72	4
293.15	0.1626	998.81	4
293.15	0.1903	998.91	4
293.15	0.2254	999.03	4
293.15	0.2686	999.2	4
293.15	0.3188	999.38	4
293.15	0.3733	999.58	4
293.15	0.4103	999.72	4
293.15	0.4917	1000.03	4
298.15	0	997.05	4
298.15	0.0187	997.12	4
298.15	0.039	997.19	4
298.15	0.0589	997.26	4
298.15	0.0782	997.33	4
298.15	0.098	997.4	4
298.15	0.118	997.47	4
298.15	0.131	997.51	4
298.15	0.1409	997.55	4
298.15	0.1626	997.62	4
298.15	0.1903	997.72	4
298.15	0.2254	997.85	4
298.15	0.2686	998	4
298.15	0.3188	998.17	4
298.15	0.3733	998.37	4
298.15	0.4103	998.49	4
298.15	0.4917	998.78	4
303.15	0	995.65	4
303.15	0.0187	995.72	4
303.15	0.039	995.79	4
303.15	0.0589	995.86	4
303.15	0.0782	995.93	4
303.15	0.098	996	4
303.15	0.118	996.06	4
303.15	0.131	996.11	4
303.15	0.1409	996.14	4
303.15	0.1626	996.22	4
303.15	0.1903	996.31	4
303.15	0.2254	996.43	4
303.15	0.2686	996.57	4
303.15	0.3188	996.74	4
303.15	0.3733	996.92	4
303.15	0.4103	997.04	4
303.15	0.4917	997.31	4
308.15	0	994.04	4
308.15	0.0187	994.1	4
308.15	0.039	994.18	4
308.15	0.0589	994.24	4
308.15	0.0782	994.31	4
308.15	0.098	994.38	4
308.15	0.118	994.45	4
308.15	0.131	994.49	4
308.15	0.1409	994.52	4
308.15	0.1626	994.6	4
308.15	0.1903	994.69	4
308.15	0.2254	994.81	4
308.15	0.2686	994.95	4
308.15	0.3188	995.11	4
308.15	0.3733	995.29	4
308.15	0.4103	995.41	4
308.15	0.4917	995.66	4
313.15	0	992.22	4
313.15	0.0187	992.29	4
313.15	0.039	992.36	4
313.15	0.0589	992.43	4
313.15	0.0782	992.49	4
313.15	0.098	992.56	4
313.15	0.118	992.63	4
313.15	0.131	992.67	4
313.15	0.1409	992.7	4
313.15	0.1626	992.77	4
313.15	0.1903	992.86	4
313.15	0.2254	992.98	4
313.15	0.2686	993.1	4
313.15	0.3188	993.26	4
313.15	0.3733	993.42	4
313.15	0.4103	993.55	4
313.15	0.4917	993.78	4

System: diethylammonium formate + water; phases: Liquid
Fixed: Pressure, kPa = 94.4
Fixed: Temperature, K = 298.15
Fixed: Frequency, MHz = 2
Property: Speed of sound, m/s (Liquid); method: Linear variable-path acoustic interferometer
Molality, mol/kg of diethylammonium formate	Speed of sound, m/s	uncertainty
0	1497.7	1.8
0.0524	1503.2	1.8
0.1016	1508	1.8
0.1515	1512.8	1.8
0.2047	1517.6	1.8
0.2547	1522	1.8
0.2993	1526.2	1.8
0.3571	1531.4	1.8
0.4014	1534.8	1.8
0.4526	1539.2	1.8
0.5307	1545.2	1.8

System: diethylammonium acetate + water; phases: Liquid
Fixed: Pressure, kPa = 94.4
Property: Mass density, kg/m3 (Liquid); method: Vibrating tube method
Temperature, K	Molality, mol/kg of diethylammonium acetate	Mass density, kg/m3	uncertainty
293.15	0	998.21	4
293.15	0.0395	998.44	4
293.15	0.0594	998.56	4
293.15	0.0777	998.67	4
293.15	0.0988	998.79	4
293.15	0.1277	998.96	4
293.15	0.151	999.1	4
293.15	0.1675	999.2	4
293.15	0.191	999.34	4
293.15	0.2362	999.62	4
293.15	0.2908	999.95	4
293.15	0.335	1000.22	4
293.15	0.3927	1000.58	4
293.15	0.437	1000.85	4
293.15	0.5305	1001.44	4
298.15	0	997.05	4
298.15	0.0395	997.28	4
298.15	0.0594	997.39	4
298.15	0.0777	997.5	4
298.15	0.0988	997.62	4
298.15	0.1277	997.79	4
298.15	0.151	997.92	4
298.15	0.1675	998.01	4
298.15	0.191	998.15	4
298.15	0.2362	998.41	4
298.15	0.2908	998.74	4
298.15	0.335	998.99	4
298.15	0.3927	999.33	4
298.15	0.437	999.59	4
298.15	0.5305	1000.14	4
303.15	0	995.65	4
303.15	0.0395	995.88	4
303.15	0.0594	995.99	4
303.15	0.0777	996.1	4
303.15	0.0988	996.22	4
303.15	0.1277	996.38	4
303.15	0.151	996.51	4
303.15	0.1675	996.6	4
303.15	0.191	996.73	4
303.15	0.2362	997	4
303.15	0.2908	997.3	4
303.15	0.335	997.55	4
303.15	0.3927	997.88	4
303.15	0.437	998.13	4
303.15	0.5305	998.67	4
308.15	0	994.04	4
308.15	0.0395	994.27	4
308.15	0.0594	994.38	4
308.15	0.0777	994.48	4
308.15	0.0988	994.59	4
308.15	0.1277	994.75	4
308.15	0.151	994.88	4
308.15	0.1675	994.97	4
308.15	0.191	995.1	4
308.15	0.2362	995.35	4
308.15	0.2908	995.65	4
308.15	0.335	995.9	4
308.15	0.3927	996.21	4
308.15	0.437	996.45	4
308.15	0.5305	996.95	4
313.15	0	992.22	4
313.15	0.0395	992.45	4
313.15	0.0594	992.56	4
313.15	0.0777	992.67	4
313.15	0.0988	992.78	4
313.15	0.1277	992.94	4
313.15	0.151	993.06	4
313.15	0.1675	993.15	4
313.15	0.191	993.27	4
313.15	0.2362	993.52	4
313.15	0.2908	993.81	4
313.15	0.335	994.04	4
313.15	0.3927	994.36	4
313.15	0.437	994.59	4
313.15	0.5305	995.08	4

System: diethylammonium acetate + water; phases: Liquid
Fixed: Pressure, kPa = 94.4
Fixed: Temperature, K = 298.15
Fixed: Frequency, MHz = 2
Property: Speed of sound, m/s (Liquid); method: Linear variable-path acoustic interferometer
Molality, mol/kg of diethylammonium acetate	Speed of sound, m/s	uncertainty
0	1497.6	1.8
0.0502	1503.8	1.8
0.101	1509.8	1.8
0.1491	1515.2	1.8
0.2005	1521	1.8
0.2498	1526.2	1.8
0.3014	1531.4	1.8
0.349	1536.5	1.8
0.4008	1541.6	1.8
0.4448	1546.2	1.8
0.5109	1552.4	1.8

System: diethylammonium propanoate + water; phases: Liquid
Fixed: Pressure, kPa = 94.4
Property: Mass density, kg/m3 (Liquid); method: Vibrating tube method
Temperature, K	Molality, mol/kg of diethylammonium propanoate	Mass density, kg/m3	uncertainty
293.15	0	998.21	4
293.15	0.0185	998.31	4
293.15	0.0367	998.42	4
293.15	0.0561	998.53	4
293.15	0.0755	998.64	4
293.15	0.0945	998.75	4
293.15	0.1124	998.85	4
293.15	0.1355	998.99	4
293.15	0.1488	999.07	4
293.15	0.1747	999.21	4
293.15	0.1873	999.29	4
293.15	0.237	999.58	4
293.15	0.297	999.94	4
293.15	0.3357	1000.18	4
293.15	0.4034	1000.61	4
293.15	0.4289	1000.77	4
293.15	0.5223	1001.36	4
298.15	0	997.057	4
298.15	0.0185	997.159	4
298.15	0.0367	997.259	4
298.15	0.0561	997.35	4
298.15	0.0755	997.46	4
298.15	0.0945	997.56	4
298.15	0.1124	997.66	4
298.15	0.1355	997.78	4
298.15	0.1488	997.85	4
298.15	0.1747	997.99	4
298.15	0.1873	998.06	4
298.15	0.237	998.34	4
298.15	0.297	998.67	4
298.15	0.3357	998.89	4
298.15	0.4034	999.28	4
298.15	0.4289	999.43	4
298.15	0.5223	999.97	4
303.15	0	995.65	4
303.15	0.0185	995.75	4
303.15	0.0367	995.85	4
303.15	0.0561	995.94	4
303.15	0.0755	996.05	4
303.15	0.0945	996.14	4
303.15	0.1124	996.24	4
303.15	0.1355	996.35	4
303.15	0.1488	996.43	4
303.15	0.1747	996.56	4
303.15	0.1873	996.62	4
303.15	0.237	996.89	4
303.15	0.297	997.21	4
303.15	0.3357	997.41	4
303.15	0.4034	997.77	4
303.15	0.4289	997.92	4
303.15	0.5223	998.43	4
308.15	0	994.04	4
308.15	0.0185	994.13	4
308.15	0.0367	994.22	4
308.15	0.0561	994.31	4
308.15	0.0755	994.41	4
308.15	0.0945	994.49	4
308.15	0.1124	994.58	4
308.15	0.1355	994.69	4
308.15	0.1488	994.75	4
308.15	0.1747	994.88	4
308.15	0.1873	994.94	4
308.15	0.237	995.19	4
308.15	0.297	995.5	4
308.15	0.3357	995.67	4
308.15	0.4034	996.03	4
308.15	0.4289	996.17	4
308.15	0.5223	996.64	4
313.15	0	992.22	4
313.15	0.0185	992.31	4
313.15	0.0367	992.4	4
313.15	0.0561	992.49	4
313.15	0.0755	992.59	4
313.15	0.0945	992.68	4
313.15	0.1124	992.76	4
313.15	0.1355	992.877	4
313.15	0.1488	992.93	4
313.15	0.1747	993.05	4
313.15	0.1873	993.11	4
313.15	0.237	993.35	4
313.15	0.297	993.63	4
313.15	0.3357	993.82	4
313.15	0.4034	994.15	4
313.15	0.4289	994.28	4
313.15	0.5223	994.73	4

System: diethylammonium propanoate + water; phases: Liquid
Fixed: Pressure, kPa = 94.4
Fixed: Temperature, K = 298.15
Fixed: Frequency, MHz = 2
Property: Speed of sound, m/s (Liquid); method: Linear variable-path acoustic interferometer
Molality, mol/kg of diethylammonium propanoate	Speed of sound, m/s	uncertainty
0	1497.6	1.8
0.0509	1505.2	1.8
0.1006	1511.8	1.8
0.1513	1518.4	1.8
0.2032	1525	1.8
0.2509	1530.6	1.8
0.3022	1537.2	1.8
0.3496	1542.8	1.8
0.4007	1549	1.8
0.4515	1555	1.8
0.4892	1559.6	1.8

System: diethylammonium butanoate + water; phases: Liquid
Fixed: Pressure, kPa = 94.4
Property: Mass density, kg/m3 (Liquid); method: Vibrating tube method
Temperature, K	Molality, mol/kg of diethylammonium butanoate	Mass density, kg/m3	uncertainty
293.15	0	998.21	4
293.15	0.0175	998.27	4
293.15	0.036	998.34	4
293.15	0.0541	998.4	4
293.15	0.0716	998.47	4
293.15	0.0912	998.54	4
293.15	0.1116	998.61	4
293.15	0.132	998.69	4
293.15	0.1509	998.76	4
293.15	0.1739	998.85	4
293.15	0.1886	998.91	4
293.15	0.2385	999.11	4
293.15	0.2842	999.31	4
293.15	0.339	999.55	4
293.15	0.3879	999.77	4
293.15	0.4378	1000.01	4
293.15	0.5105	1000.35	4
298.15	0	997.05	4
298.15	0.0175	997.11	4
298.15	0.036	997.17	4
298.15	0.0541	997.23	4
298.15	0.0716	997.29	4
298.15	0.0912	997.35	4
298.15	0.1116	997.42	4
298.15	0.132	997.48	4
298.15	0.1509	997.54	4
298.15	0.1739	997.62	4
298.15	0.1886	997.68	4
298.15	0.2385	997.86	4
298.15	0.2842	998.03	4
298.15	0.339	998.24	4
298.15	0.3879	998.45	4
298.15	0.4378	998.65	4
298.15	0.5105	998.95	4
303.15	0	995.65	4
303.15	0.0175	995.71	4
303.15	0.036	995.76	4
303.15	0.0541	995.82	4
303.15	0.0716	995.87	4
303.15	0.0912	995.93	4
303.15	0.1116	995.98	4
303.15	0.132	996.05	4
303.15	0.1509	996.1	4
303.15	0.1739	996.18	4
303.15	0.1886	996.22	4
303.15	0.2385	996.39	4
303.15	0.2842	996.54	4
303.15	0.339	996.73	4
303.15	0.3879	996.9	4
303.15	0.4378	997.09	4
303.15	0.5105	997.35	4
308.15	0	994.04	4
308.15	0.0175	994.09	4
308.15	0.036	994.14	4
308.15	0.0541	994.19	4
308.15	0.0716	994.23	4
308.15	0.0912	994.29	4
308.15	0.1116	994.34	4
308.15	0.132	994.4	4
308.15	0.1509	994.45	4
308.15	0.1739	994.51	4
308.15	0.1886	994.55	4
308.15	0.2385	994.7	4
308.15	0.2842	994.84	4
308.15	0.339	995	4
308.15	0.3879	995.17	4
308.15	0.4378	995.32	4
308.15	0.5105	995.55	4
313.15	0	992.22	4
313.15	0.0175	992.27	4
313.15	0.036	992.32	4
313.15	0.0541	992.36	4
313.15	0.0716	992.41	4
313.15	0.0912	992.468	4
313.15	0.1116	992.51	4
313.15	0.132	992.55	4
313.15	0.1509	992.6	4
313.15	0.1739	992.66	4
313.15	0.1886	992.7	4
313.15	0.2385	992.82	4
313.15	0.2842	992.95	4
313.15	0.339	993.09	4
313.15	0.3879	993.23	4
313.15	0.4378	993.37	4
313.15	0.5105	993.57	4

System: diethylammonium butanoate + water; phases: Liquid
Fixed: Pressure, kPa = 94.4
Fixed: Temperature, K = 298.15
Fixed: Frequency, MHz = 2
Property: Speed of sound, m/s (Liquid); method: Linear variable-path acoustic interferometer
Molality, mol/kg of diethylammonium butanoate	Speed of sound, m/s	uncertainty
0	1497.6	1.8
0.0518	1505.9	1.8
0.1018	1513.2	1.8
0.1516	1520.4	1.8
0.2004	1527.2	1.8
0.2526	1534	1.8
0.2992	1540.6	1.8
0.3446	1546.4	1.8
0.4031	1554.2	1.8
0.4507	1560.6	1.8
0.51	1568.6	1.8
