Measured thermophysical data. Bubble Point Measurements of n-Butane + n-Octane and n-Butane + n-Nonane Binary Mixtures
Source: J. Chem. Eng. Data, 2015, 10.1021/acs.jced.5b00308
Compound 1: nonane, C9H20, InChI=1S/C9H20/c1-3-5-7-9-8-6-4-2/h3-9H2,1-2H3, purity 99%
Compound 2: octane, C8H18, InChI=1S/C8H18/c1-3-5-7-8-6-4-2/h3-8H2,1-2H3, purity 99%
Compound 3: butane, C4H10, InChI=1S/C4H10/c1-3-4-2/h3-4H2,1-2H3, purity 99.9%
Compound 4: propane, C3H8, InChI=1S/C3H8/c1-3-2/h3H2,1-2H3

System: butane + octane; phases: Liquid, Gas
Property: Vapor or sublimation pressure, kPa (Liquid); method: Closed cell (Static) method
Mole fraction of octane	Temperature, K	Vapor or sublimation pressure, kPa	uncertainty
0.306	270	64.98	11.22
0.306	275	77.75	11.31
0.306	280	93.27	11.43
0.306	285	111.18	11.55
0.306	290	131.26	11.66
0.306	295	154.32	12.66
0.306	300	180.19	11.97
0.306	305	207.88	12.13
0.306	305	209.26	12.13
0.306	310	236.52	12.3
0.306	310	239.96	12.32
0.306	315	270.22	14.43
0.306	315	273.17	14.44
0.306	320	307.33	14.62
0.306	320	310.6	14.63
0.306	320	307.01	14.61
0.306	325	341.82	14.9
0.306	325	342.79	14.9
0.306	330	386.6	15.16
0.306	330	386.4	15.16
0.306	335	435.59	15.53
0.306	335	435.2	15.52
0.306	340	489.27	14.65
0.306	340	488.38	14.65
0.306	345	546.84	14.77
0.306	345	547.63	14.77
0.306	345	546.47	14.77
0.306	350	609.39	14.89
0.306	350	608.74	14.89
0.306	355	676.99	15.01
0.306	360	748.36	17.95
0.306	365	825.1	18.67
0.306	370	906.98	19.49
0.48	270	51.42	8.74
0.48	270	49.65	7.35
0.48	275	61.28	8.84
0.48	275	59.6	7.49
0.48	280	72.59	8.97
0.48	280	71.02	7.65
0.48	285	85.52	9.11
0.48	285	83.65	7.79
0.48	290	99.93	9.26
0.48	290	98.4	7.98
0.48	295	116.23	9.46
0.48	295	114.84	8.18
0.48	295	114.92	8.18
0.48	300	134.61	9.65
0.48	300	132.73	8.41
0.48	300	135.61	8.41
0.48	305	155.1	9.79
0.48	305	152.99	8.67
0.48	305	151.69	8.67
0.48	310	177.83	10.01
0.48	310	176.73	8.93
0.48	310	176.74	8.93
0.48	310	174.79	8.93
0.48	315	203.07	12.81
0.48	315	201.93	11.9
0.48	320	230.8	13.07
0.48	320	227.44	12.19
0.48	325	254.39	13.28
0.48	325	255.12	12.41
0.48	330	284.44	13.62
0.48	330	285.47	12.78
0.48	335	316.93	14.02
0.48	335	318.74	13.2
0.628	270	37.86	7.7
0.628	275	44.89	7.81
0.628	280	53.08	7.9
0.628	285	62.6	8.01
0.628	290	73.04	8.11
0.628	295	84.81	8.24
0.628	300	98.21	8.37
0.628	305	111.43	8.51
0.628	305	112.75	8.51
0.628	310	127.8	8.64
0.628	310	129.18	8.64
0.628	315	145.84	11.73
0.628	315	142.85	11.73
0.628	320	165.91	11.87
0.628	325	187.5	11.98
0.628	330	211.44	12.13
0.628	335	237.33	12.29
0.628	340	263.8	12.42
0.628	345	288.81	12.66
0.628	345	291.67	12.68
0.628	350	318.91	12.81
0.628	355	339.92	13.52
0.628	355	336.59	13.52
0.628	360	363.3	13.92
0.628	365	400.55	14.37
0.628	370	436.69	14.83
0.746	270	29.36	8.94
0.746	275	34.27	9.04
0.746	280	40.16	9.19
0.746	285	46.73	9.37
0.746	290	54.04	9.55
0.746	295	62.81	9.79
0.746	295	60.31	9.83
0.746	300	72	10.09
0.746	300	72.61	10.07
0.746	300	69.73	10.13
0.746	305	82.32	10.32
0.746	305	80	10.37
0.746	305	80.01	10.37
0.746	310	93.82	10.8
0.746	310	91.13	10.87
0.746	310	91.42	10.86
0.746	315	103.52	13.82
0.746	315	103.99	13.81
0.746	320	117.81	14.4
0.746	320	118.07	14.39
0.746	325	132.66	14.96
0.746	330	149.42	15.65
0.746	335	167.9	16.42
0.746	340	187.47	17.1
0.746	345	209.83	17.57
0.746	350	231.06	18.4
0.746	355	256.09	18.15
0.746	360	280.76	18.05
0.746	365	305.56	19.55
0.746	370	328.54	21.06

System: butane + nonane; phases: Liquid, Gas
Property: Vapor or sublimation pressure, kPa (Liquid); method: Closed cell (Static) method
Mole fraction of nonane	Temperature, K	Vapor or sublimation pressure, kPa	uncertainty
0.251	270	69.74	10.21
0.251	275	83.9	10.3
0.251	280	100.08	10.42
0.251	280	100.13	10.42
0.251	285	119.13	10.55
0.251	285	119.21	10.55
0.251	285	119.71	10.55
0.251	290	140.64	10.68
0.251	290	141.22	10.68
0.251	295	164.84	10.83
0.251	295	165.49	10.83
0.251	300	191.86	10.99
0.251	300	192.52	10.99
0.251	305	222.3	11.16
0.251	305	222.81	11.16
0.251	310	255.51	11.35
0.251	310	256.41	11.35
0.251	315	290.38	13.6
0.251	315	292.53	13.61
0.251	320	326.93	13.78
0.251	320	329.35	13.79
0.251	325	368.93	14
0.251	325	369.13	14.01
0.251	325	368.98	14.01
0.251	325	372.4	14.02
0.251	330	417.55	14.28
0.251	330	419.86	14.29
0.251	335	470.31	14.62
0.251	335	470.24	14.62
0.251	340	527.75	15.19
0.251	340	527.77	15.19
0.251	345	590.19	15.72
0.251	350	656.64	16.27
0.251	355	729.81	16.94
0.251	360	808.08	17.69
0.251	365	889.92	18.53
0.251	370	979.01	19.44
0.498	270	47.11	7.18
0.498	270	47.17	10.94
0.498	275	56.72	7.33
0.498	275	56.37	7.33
0.498	280	67.46	7.52
0.498	280	67.05	7.52
0.498	285	79.92	7.72
0.498	285	79.45	7.72
0.498	290	94.1	7.96
0.498	290	93.48	7.96
0.498	295	109.93	8.22
0.498	295	110.12	8.22
0.498	300	127.66	8.54
0.498	300	127.96	8.54
0.498	305	147.42	8.92
0.498	305	146.82	8.92
0.498	310	169.36	12.06
0.498	310	169.11	9.35
0.498	315	193.57	9.79
0.498	315	191.87	9.79
0.498	320	220.19	10.29
0.498	320	220.58	10.29
0.498	325	248.85	10.89
0.498	325	249.43	10.89
0.498	330	277.96	11.62
0.498	330	276.53	11.62
0.498	335	309.64	12.43
0.498	335	308.07	12.43
0.498	340	330.61	13.34
0.498	340	331.3	13.34
0.498	345	364.06	14.39
0.498	345	364.48	14.39
0.498	350	403.59	15.53
0.498	350	403.23	15.53
0.498	355	445.81	16.78
0.498	355	445.87	16.78
0.498	360	491.34	18.14
0.498	360	491.66	18.14
0.498	365	540.07	19.7
0.498	365	540.38	19.7
0.498	370	591.98	21.58
0.498	370	592.32	21.58
0.738	270	24.75	6.45
0.738	275	29.36	6.57
0.738	280	34.89	6.71
0.738	285	41.31	6.85
0.738	290	48.45	7.02
0.738	295	56.6	7.29
0.738	300	65.53	7.49
0.738	300	65.54	7.49
0.738	305	75.28	7.75
0.738	310	86.21	7.95
0.738	315	98.19	10.11
0.738	320	111.31	10.23
0.738	325	125.24	10.74
0.738	325	125.68	10.76
0.738	330	140.73	11.09
0.738	335	158.07	11.58
0.738	340	176.81	12.14
0.738	345	196.21	12.7
0.738	350	216.54	13.33
0.738	350	216.58	13.34
0.738	355	240.46	14.02
0.738	360	266.24	14.83
0.738	365	289.19	14.89
0.738	370	307.23	14.06
0.786	270	22.3	6.6
0.786	275	26.36	6.69
0.786	280	30.85	6.79
0.786	280	30.95	6.78
0.786	285	36.29	6.92
0.786	290	42.16	7.05
0.786	295	47.74	7.21
0.786	295	48.76	7.19
0.786	300	55.17	7.41
0.786	300	54.91	7.41
0.786	300	56.35	7.39
0.786	305	63.3	7.57
0.786	305	64.43	7.54
0.786	310	73.09	7.78
0.786	310	72.37	7.8
0.786	310	73.55	7.77
0.786	315	82.24	10.74
0.786	315	82.5	10.73
0.786	315	83.61	10.71
0.786	320	94.74	10.97
0.786	320	92.9	11.01
0.786	320	93.2	11.01
0.786	320	93.41	11
0.786	325	105.16	11.16
0.786	330	118.56	11.44
0.786	335	132.58	11.78
0.786	335	132.71	11.77
0.786	340	147.71	12.2
0.786	345	164	12.57
0.786	345	164.27	12.56
0.786	350	181.76	12.91
0.786	350	181.85	12.9
0.786	355	201.58	13.52
0.786	355	200.66	13.56
0.786	360	221.64	14.24
0.786	365	243.88	14.38
0.786	370	268.56	13.69

System: propane + butane; phases: Liquid, Gas
Fixed: Mole fraction of butane = 0.783
Property: Vapor or sublimation pressure, kPa (Liquid); method: Closed cell (Static) method
Temperature, K	Vapor or sublimation pressure, kPa	uncertainty
270	161.73	7.69
275	190.96	8.08
280	224.35	8.55
285	263.64	9.06
290	306.26	9.66
295	352.67	10.3
300	405.55	11.04
300	405.44	11.04
305	464.18	11.86
310	529.19	12.75
310	526.37	12.75
315	600.27	13.74
315	599.84	13.74
320	678.24	14.78
320	677.69	14.78
325	762.89	15.96
330	855.71	17.26
335	956.39	18.63
340	1065.9	20.19
340	1060.94	20.17
345	1179.04	21.45
345	1178.98	21.45
350	1306.47	23.16
350	1306.63	23.16
355	1443.53	24.85
360	1591.47	26.67
365	1747.66	28.76
