Measured thermophysical data. Ionic Liquids-Based Aqueous Biphasic Systems with Citrate Biodegradable Salts
Source: J. Chem. Eng. Data, 2018, 10.1021/acs.jced.7b00849
Compound 1: 1-ethyl-3-methylimidazolium dicyanamide, C8H11N5, InChI=1S/C6H11N2.C2N3/c1-3-8-5-4-7(2)6-8;3-1-5-2-4/h4-6H,3H2,1-2H3;/q+1;-1, purity 99%
Compound 2: trisodium citrate, C6H5Na3O7, InChI=1S/C6H8O7.3Na/c7-3(8)1-6(13,5(11)12)2-4(9)10;;;/h13H,1-2H2,(H,7,8)(H,9,10)(H,11,12);;;/q;3*+1/p-3, purity 99%
Compound 3: water, H2O, InChI=1S/H2O/h1H2, purity 99.9%
Compound 4: 1-methyl-3-propylimidazolium dicyanamide, C9H13N5, InChI=1S/C7H13N2.C2N3/c1-3-4-9-6-5-8(2)7-9;3-1-5-2-4/h5-7H,3-4H2,1-2H3;/q+1;-1, purity 99%
Compound 5: 1-butyl-3-methylimidazolium dicyanamide, C10H15N5, InChI=1S/C8H15N2.C2N3/c1-3-4-5-10-7-6-9(2)8-10;3-1-5-2-4/h6-8H,3-5H2,1-2H3;/q+1;-1, purity 98%
Compound 6: 1-hexyl-3-methylimidazolium dicyanamide, C12H19N5, InChI=1S/C10H19N2.C2N3/c1-3-4-5-6-7-12-9-8-11(2)10-12;3-1-5-2-4/h8-10H,3-7H2,1-2H3;/q+1;-1, purity 99%
Compound 7: 1-butyl-1-methylpyrrolidinium dicyanamide, C11H20N4, InChI=1S/C9H20N.C2N3/c1-3-4-7-10(2)8-5-6-9-10;3-1-5-2-4/h3-9H2,1-2H3;/q+1;-1, purity 98%
Compound 8: potassium citrate, C6H5K3O7, InChI=1S/C6H8O7.3K/c7-3(8)1-6(13,5(11)12)2-4(9)10;;;/h13H,1-2H2,(H,7,8)(H,9,10)(H,11,12);;;/q;3*+1/p-3, purity 99%

System: 1-ethyl-3-methylimidazolium dicyanamide + trisodium citrate + water; phases: Liquid mixture 1, Liquid mixture 2
Fixed: Pressure, kPa = 100
Fixed: Temperature, K = 298.15
Property: Mass fraction of trisodium citrate (Liquid mixture 1); method: Titration method
Mass fraction of 1-ethyl-3-methylimidazolium dicyanamide	Mass fraction of trisodium citrate	uncertainty
0.55049	0.02893	0.00621
0.5262	0.0345	0.00623
0.40678	0.07612	0.00702
0.40138	0.07797	0.00722
0.38956	0.08457	0.00715
0.38425	0.08653	0.00717
0.37506	0.09145	0.00725
0.36464	0.09684	0.0073
0.35592	0.10146	0.00724
0.34618	0.10568	0.0081
0.34618	0.11209	0.00814
0.33567	0.11671	0.00874
0.32763	0.12235	0.00791
0.31875	0.12752	0.00812
0.31227	0.133	0.00874
0.30355	0.14048	0.00889
0.29211	0.15051	0.00927
0.27799	0.16445	0.00873
0.25644	0.17666	0.00873
0.23824	0.1904	0.00902
0.21838	0.20229	0.00933
0.2023	0.21618	0.01006
0.18482	0.23176	0.01006
0.16425	0.24616	0.01032
0.1481	0.26067	0.01056
0.13252	0.27043	0.01098
0.12323	0.28243	0.01211
0.11198	0.29395	0.01209
0.10241	0.3047	0.01308
0.09391	0.31749	0.01408

System: 1-methyl-3-propylimidazolium dicyanamide + trisodium citrate + water; phases: Liquid mixture 1, Liquid mixture 2
Fixed: Pressure, kPa = 100
Fixed: Temperature, K = 298.15
Property: Mass fraction of trisodium citrate (Liquid mixture 1); method: Titration method
Mass fraction of 1-methyl-3-propylimidazolium dicyanamide	Mass fraction of trisodium citrate	uncertainty
0.68594	0.00528	0.00528
0.58891	0.01837	0.00607
0.56302	0.02147	0.00608
0.54691	0.02369	0.0061
0.53188	0.0259	0.00614
0.52232	0.0282	0.00618
0.50153	0.03221	0.00624
0.48974	0.0364	0.00614
0.46806	0.03713	0.00622
0.46284	0.03911	0.00622
0.43725	0.04694	0.0065
0.40811	0.05829	0.00661
0.38644	0.06579	0.00672
0.35933	0.07754	0.00698
0.32825	0.09298	0.00731
0.27894	0.12074	0.00769
0.24048	0.14255	0.00799
0.21206	0.15866	0.00828
0.19677	0.16841	0.0086
0.18764	0.17459	0.00878
0.18267	0.17818	0.00884
0.17549	0.18293	0.00897
0.15097	0.20027	0.00952
0.12583	0.22224	0.01017
0.10254	0.24295	0.01109
0.09083	0.25996	0.01298
0.07637	0.28155	0.01283
0.06224	0.29844	0.01363
0.05757	0.30834	0.01401
0.05412	0.31523	0.01879
0.04912	0.32384	0.01553
0.04613	0.33985	0.02168
0.0434	0.35369	0.02448

System: 1-butyl-3-methylimidazolium dicyanamide + trisodium citrate + water; phases: Liquid mixture 1, Liquid mixture 2
Fixed: Pressure, kPa = 100
Fixed: Temperature, K = 298.15
Property: Mass fraction of trisodium citrate (Liquid mixture 1); method: Titration method
Mass fraction of 1-butyl-3-methylimidazolium dicyanamide	Mass fraction of trisodium citrate	uncertainty
0.58239	0.0143	0.00604
0.55781	0.01644	0.00602
0.54231	0.01859	0.00609
0.52526	0.02229	0.00621
0.50621	0.02589	0.00614
0.4914	0.02764	0.00615
0.47885	0.03041	0.00619
0.46932	0.03227	0.00621
0.46016	0.03455	0.00631
0.4407	0.0389	0.00625
0.41835	0.04394	0.00635
0.39115	0.05207	0.00636
0.36391	0.06124	0.00661
0.33532	0.0725	0.00673
0.31073	0.08207	0.00685
0.28365	0.09309	0.00701
0.25474	0.10572	0.00715
0.24032	0.11166	0.00732
0.22832	0.11775	0.00742
0.21833	0.12197	0.00747
0.20708	0.12771	0.00763
0.19598	0.13328	0.00768
0.17631	0.14291	0.00794
0.15564	0.15449	0.00806
0.13215	0.16891	0.00865
0.109	0.18692	0.00956
0.08533	0.20956	0.0107
0.58198	0.01676	0.00602
0.5496	0.01882	0.00608
0.53334	0.02112	0.00617
0.51474	0.02558	0.00615
0.4945	0.02909	0.00615
0.47937	0.0308	0.00619
0.46445	0.03384	0.00622
0.45535	0.03554	0.00628
0.44896	0.03798	0.00624
0.43316	0.04164	0.00625
0.40676	0.04913	0.0064
0.38175	0.05555	0.00652
0.35752	0.0645	0.00668
0.32832	0.07562	0.00678
0.30792	0.08425	0.00687
0.28175	0.0952	0.00703
0.2553	0.10592	0.00715
0.24045	0.11236	0.00733
0.22859	0.1178	0.00742
0.21774	0.12234	0.00748
0.20357	0.12949	0.00765
0.19273	0.13431	0.0077
0.17064	0.14702	0.008
0.14781	0.15911	0.00836
0.12333	0.17559	0.00908
0.10402	0.1909	0.00957
0.07942	0.21627	0.01138
0.0274	0.34488	0.01954
0.03137	0.33083	0.02645
0.03297	0.314	0.0216
0.03691	0.29808	0.02574
0.04489	0.27675	0.01742
0.05444	0.256	0.01467
0.06307	0.24272	0.01265
0.07724	0.22258	0.01244
0.09567	0.20201	0.01019
0.09742	0.19827	0.01014
0.0324	0.3456	0.03501
0.034	0.32747	0.02626

System: 1-hexyl-3-methylimidazolium dicyanamide + trisodium citrate + water; phases: Liquid mixture 1, Liquid mixture 2
Fixed: Pressure, kPa = 100
Fixed: Temperature, K = 298.15
Property: Mass fraction of trisodium citrate (Liquid mixture 1); method: Titration method
Mass fraction of 1-hexyl-3-methylimidazolium dicyanamide	Mass fraction of trisodium citrate	uncertainty
0.00809	0.38614	0.07288
0.01047	0.36149	0.06586
0.01335	0.33318	0.05239
0.01538	0.2989	0.05625
0.01795	0.28073	0.0575
0.02157	0.26305	0.03411
0.02307	0.24261	0.03343
0.02561	0.2185	0.03192
0.03673	0.18188	0.01866
0.04617	0.16088	0.01289
0.06109	0.13875	0.00944
0.09516	0.10914	0.0083
0.10475	0.10451	0.00735
0.11721	0.09799	0.00718
0.13115	0.09216	0.00694
0.14458	0.08736	0.00677
0.16181	0.08225	0.00666
0.17804	0.07771	0.00658
0.18858	0.07521	0.00659
0.20348	0.07057	0.00648
0.22762	0.06575	0.0064
0.26286	0.05827	0.00631
0.37683	0.03877	0.00619

System: 1-butyl-1-methylpyrrolidinium dicyanamide + trisodium citrate + water; phases: Liquid mixture 1, Liquid mixture 2
Fixed: Pressure, kPa = 100
Fixed: Temperature, K = 298.15
Property: Mass fraction of trisodium citrate (Liquid mixture 1); method: Titration method
Mass fraction of 1-butyl-1-methylpyrrolidinium dicyanamide	Mass fraction of trisodium citrate	uncertainty
0.02652	0.35282	0.04
0.03159	0.31734	0.02806
0.03546	0.2958	0.03212
0.03997	0.28117	0.02326
0.0436	0.26659	0.01991
0.04954	0.25418	0.01937
0.05321	0.24397	0.01529
0.05666	0.23401	0.01584
0.06224	0.22858	0.01284
0.06505	0.22011	0.01207
0.08821	0.18914	0.01052
0.11045	0.16888	0.00927
0.13334	0.15	0.00831
0.16541	0.13291	0.00778
0.18166	0.12393	0.00761
0.19917	0.11549	0.00732
0.21726	0.10838	0.00721
0.23274	0.10112	0.00719
0.24999	0.09342	0.00733
0.25336	0.08901	0.00709
0.25603	0.08772	0.007
0.26508	0.0842	0.00683
0.27486	0.08073	0.00684
0.28316	0.07705	0.00655
0.29224	0.07371	0.00675
0.29705	0.07181	0.00673
0.30377	0.06926	0.00665
0.31179	0.06666	0.00663
0.32051	0.06343	0.0064
0.33164	0.05987	0.00655
0.3409	0.05663	0.00651
0.35943	0.05073	0.00635
0.37889	0.04532	0.00641
0.39878	0.04043	0.00626
0.42325	0.0351	0.0063
0.4388	0.0309	0.00619
0.64469	0.00705	0.00602
0.59978	0.01014	0.00603
0.57489	0.01281	0.00605
0.54857	0.01563	0.00604
0.52709	0.01743	0.00606
0.479	0.02331	0.00612
0.44033	0.03221	0.0062
0.40458	0.04033	0.00626
0.36755	0.05026	0.0064
0.32696	0.0634	0.00662
0.29127	0.07671	0.00681
0.26228	0.08804	0.00693

System: 1-ethyl-3-methylimidazolium dicyanamide + potassium citrate + water; phases: Liquid mixture 1, Liquid mixture 2
Fixed: Pressure, kPa = 100
Fixed: Temperature, K = 298.15
Property: Mass fraction of potassium citrate (Liquid mixture 1); method: Titration method
Mass fraction of 1-ethyl-3-methylimidazolium dicyanamide	Mass fraction of potassium citrate	uncertainty
0.73342	0.00579	0.00579
0.69551	0.01094	0.00605
0.65743	0.01433	0.00606
0.62546	0.01949	0.00614
0.60106	0.02563	0.00619
0.58384	0.02875	0.00621
0.56881	0.033	0.00628
0.55308	0.03697	0.00629
0.53171	0.0428	0.0064
0.50166	0.05279	0.00655
0.45052	0.07404	0.00688
0.40467	0.09795	0.00727
0.35956	0.12262	0.00808
0.30943	0.15418	0.00841
0.27878	0.17371	0.00877
0.24575	0.19668	0.00912
0.213	0.22012	0.00979
0.04539	0.44027	0.02132
0.04976	0.42882	0.01977
0.05336	0.41871	0.02098
0.05713	0.41111	0.02125
0.05945	0.40219	0.02066
0.06183	0.39178	0.01955
0.06511	0.38606	0.02023
0.0678	0.37978	0.01706
0.07122	0.37404	0.01579
0.08047	0.36004	0.01554
0.09123	0.34046	0.01489
0.10152	0.32626	0.01303
0.11385	0.31402	0.0129
0.11851	0.30489	0.01271
0.13038	0.29199	0.01243
0.13717	0.28262	0.01189
0.14793	0.27286	0.01122
0.16089	0.26084	0.01064
0.18217	0.24542	0.0103
0.19657	0.23283	0.01018
0.21531	0.21818	0.00976
0.22949	0.20764	0.0094
0.24725	0.19578	0.0091
0.27016	0.18037	0.00891
0.28542	0.17005	0.0086
0.31025	0.15365	0.0084
0.32989	0.14066	0.00814
0.35011	0.12836	0.00791
0.36133	0.1183	0.00798
0.37825	0.10903	0.00752
0.39178	0.10148	0.00742
0.40357	0.09515	0.00726
0.41583	0.08919	0.00757
0.42623	0.08411	0.0071
0.43666	0.0789	0.00686
0.45083	0.07295	0.00688
0.4589	0.06895	0.00697

System: 1-methyl-3-propylimidazolium dicyanamide + potassium citrate + water; phases: Liquid mixture 1, Liquid mixture 2
Fixed: Pressure, kPa = 100
Fixed: Temperature, K = 298.15
Property: Mass fraction of potassium citrate (Liquid mixture 1); method: Titration method
Mass fraction of 1-methyl-3-propylimidazolium dicyanamide	Mass fraction of potassium citrate	uncertainty
0.66153	0.01368	0.00607
0.61832	0.01943	0.00609
0.58548	0.02477	0.00617
0.5494	0.0337	0.00619
0.52298	0.03719	0.00617
0.50972	0.04051	0.00643
0.49632	0.04605	0.00657
0.4832	0.05082	0.00642
0.47338	0.05277	0.00634
0.46356	0.05542	0.00643
0.45318	0.05855	0.00662
0.42218	0.07078	0.00671
0.402	0.07752	0.00796
0.36783	0.09567	0.01242
0.33368	0.11282	0.01539
0.30759	0.12353	0.01846
0.28627	0.13458	0.00869
0.2472	0.15782	0.01045
0.39891	0.03862	0.00841
0.38834	0.04086	0.01551
0.37154	0.04755	0.0073
0.35841	0.05018	0.01203
0.34551	0.05436	0.0171
0.33753	0.05705	0.01531
0.33238	0.05976	0.00647
0.32746	0.06194	0.01127
0.32191	0.06535	0.0072
0.31312	0.0711	0.00705
0.30469	0.07425	0.00685
0.29798	0.07798	0.00726
0.29026	0.08252	0.00794
0.2757	0.09494	0.00692
0.26406	0.10474	0.00853
0.25096	0.11673	0.00885
0.23818	0.12894	0.00797
0.22662	0.14304	0.00855
0.15521	0.21669	0.00922
0.17551	0.20524	0.00909
0.18749	0.19728	0.00915
0.20213	0.18721	0.00898
0.21675	0.17746	0.01294
0.23404	0.16701	0.00833
0.25	0.15784	0.00968
0.26852	0.14689	0.00767
0.28637	0.13806	0.00871
0.2981	0.1307	0.00738
0.31241	0.12186	0.00817
0.32393	0.11553	0.00719
0.33524	0.11004	0.01689
0.34375	0.10478	0.01567
0.35359	0.0996	0.01518
0.36286	0.09505	0.00721
0.37073	0.09117	0.00716
0.37875	0.08728	0.00753

System: 1-butyl-3-methylimidazolium dicyanamide + potassium citrate + water; phases: Liquid mixture 1, Liquid mixture 2
Fixed: Pressure, kPa = 100
Fixed: Temperature, K = 298.15
Property: Mass fraction of potassium citrate (Liquid mixture 1); method: Titration method
Mass fraction of 1-butyl-3-methylimidazolium dicyanamide	Mass fraction of potassium citrate	uncertainty
0.64531	0.01074	0.00607
0.58652	0.01934	0.00608
0.55187	0.02383	0.00611
0.52478	0.02902	0.00615
0.49495	0.03375	0.0062
0.46444	0.04165	0.00629
0.44123	0.04686	0.0064
0.39671	0.06142	0.00659
0.37286	0.07111	0.00679
0.36422	0.07474	0.00672
0.34453	0.08147	0.00678
0.32887	0.08756	0.00696
0.31152	0.09529	0.00716
0.29728	0.10238	0.00722
0.28346	0.10835	0.00723
0.27134	0.11413	0.00722
0.24495	0.12474	0.00757
0.22282	0.13553	0.00759
0.21332	0.14067	0.00779
0.19941	0.14732	0.00793
0.18144	0.15684	0.00819
0.02425	0.38961	0.03113
0.02706	0.37328	0.02685
0.02977	0.36067	0.02518
0.03234	0.35119	0.02458
0.03601	0.33756	0.02152
0.03782	0.32623	0.02171
0.04461	0.31492	0.01616
0.04983	0.29691	0.0158
0.06093	0.28027	0.01392
0.06776	0.26754	0.01529
0.07377	0.25488	0.01385
0.07828	0.24725	0.01395
0.08431	0.23902	0.0127
0.09112	0.22818	0.01148
0.10203	0.21694	0.01061
0.10923	0.20931	0.01042
0.11534	0.20338	0.0102
0.12202	0.19672	0.00942
0.13925	0.18444	0.00903
0.15208	0.17525	0.00876
0.16866	0.16465	0.00848
0.18446	0.15553	0.00817
0.20169	0.14676	0.00792
0.22067	0.13739	0.00763
0.23514	0.13098	0.00762
0.24778	0.12417	0.00759
0.26462	0.11604	0.00732
0.27933	0.11024	0.00724
0.29161	0.10532	0.0072
0.30285	0.09991	0.00729

System: 1-hexyl-3-methylimidazolium dicyanamide + potassium citrate + water; phases: Liquid mixture 1, Liquid mixture 2
Fixed: Pressure, kPa = 100
Fixed: Temperature, K = 298.15
Property: Mass fraction of potassium citrate (Liquid mixture 1); method: Titration method
Mass fraction of 1-hexyl-3-methylimidazolium dicyanamide	Mass fraction of potassium citrate	uncertainty
0.55436	0.02027	0.00604
0.5097	0.02287	0.00605
0.48878	0.02546	0.00607
0.45685	0.02782	0.00611
0.42692	0.03456	0.00616
0.40975	0.03539	0.00613
0.39095	0.03902	0.00619
0.37592	0.04116	0.00621
0.35643	0.04544	0.00625
0.32701	0.05073	0.00629
0.303	0.05631	0.00635
0.27556	0.06213	0.0064
0.24082	0.07038	0.00649
0.22523	0.07455	0.00663
0.20892	0.08042	0.00667
0.19561	0.08353	0.0066
0.18299	0.08652	0.00669
0.16898	0.09098	0.00691
0.013	0.38452	0.0857
0.01428	0.33815	0.05866
0.01643	0.31538	0.05504
0.02051	0.27838	0.04125
0.02128	0.27006	0.04172
0.02269	0.25906	0.03847
0.02519	0.25089	0.0368
0.02843	0.24232	0.0275
0.02986	0.23115	0.02533
0.0305	0.2222	0.02481
0.03298	0.21765	0.02426
0.03432	0.21127	0.02325
0.03616	0.20579	0.02178
0.03763	0.20139	0.01752
0.03919	0.19826	0.01828
0.0403	0.19404	0.01658
0.04218	0.18992	0.015
0.04573	0.18291	0.0151
0.04936	0.17778	0.01438
0.05597	0.16212	0.01286
0.06142	0.15477	0.01229
0.06479	0.15062	0.01035
0.06859	0.14701	0.00979
0.07276	0.14179	0.0096
0.07942	0.1352	0.00882
0.08901	0.12759	0.00846
0.0964	0.12179	0.00779
0.11363	0.1126	0.0073
0.13563	0.10426	0.00705
0.15763	0.09616	0.007

System: 1-butyl-1-methylpyrrolidinium dicyanamide + potassium citrate + water; phases: Liquid mixture 1, Liquid mixture 2
Fixed: Pressure, kPa = 100
Fixed: Temperature, K = 298.15
Property: Mass fraction of potassium citrate (Liquid mixture 1); method: Titration method
Mass fraction of 1-butyl-1-methylpyrrolidinium dicyanamide	Mass fraction of potassium citrate	uncertainty
0.6515	0.0104	0.00602
0.59256	0.01359	0.00604
0.51927	0.02355	0.0061
0.47069	0.03128	0.00615
0.45795	0.03454	0.00624
0.42768	0.0413	0.00632
0.39424	0.05154	0.00644
0.37849	0.05613	0.00657
0.36043	0.06366	0.0066
0.33851	0.07014	0.00669
0.3155	0.08	0.00683
0.30019	0.08498	0.0073
0.25456	0.11347	0.00764
0.24121	0.11813	0.0073
0.22176	0.12683	0.00716
0.2123	0.13018	0.00739
0.19835	0.13552	0.00726
0.18432	0.14127	0.00773
0.17491	0.14651	0.00754
0.16593	0.15062	0.00789
0.15839	0.15435	0.00778
0.01294	0.41413	0.07232
0.01495	0.39138	0.03874
0.01679	0.36592	0.03122
0.01749	0.34166	0.02011
0.02033	0.32654	0.04234
0.02773	0.31335	0.02046
0.02996	0.29995	0.01875
0.03443	0.28527	0.02075
0.04174	0.27075	0.01559
0.04838	0.25695	0.01358
0.05789	0.24409	0.01287
0.06659	0.22941	0.01286
0.07535	0.21692	0.01115
0.08754	0.20434	0.01031
0.10179	0.19011	0.00961
0.11844	0.17725	0.00898
0.13523	0.16551	0.00855
0.15006	0.15679	0.00803
0.16707	0.1466	0.00785
0.1893	0.13537	0.00772
0.2156	0.12312	0.00744
