Measured thermophysical data. (p, n, T) Behavior of CO2 + Tetradecane Systems: Experiments and Thermodynamic Modeling
Source: J. Chem. Eng. Data, 2015, 10.1021/acs.jced.5b00049
Compound 1: carbon dioxide, CO2, InChI=1S/CO2/c2-1-3, purity 99.99%
Compound 2: tetradecane, C14H30, InChI=1S/C14H30/c1-3-5-7-9-11-13-14-12-10-8-6-4-2/h3-14H2,1-2H3, purity 99.1%

System: tetradecane; phases: Liquid
Property: Mass density, kg/m3 (Liquid); method: Buoyancy - hydrostatic balance with magnetic suspension - one sinker
Temperature, K	Pressure, kPa	Mass density, kg/m3	uncertainty
313.19	10020	756.25	0.24
313.23	12040	757.62	0.24
313.15	14050	759.03	0.24
313.13	16040	760.35	0.24
313.15	18060	761.65	0.24
313.17	19040	762.28	0.24
323.26	10000	749.44	0.24
323.18	12040	750.93	0.24
323.14	14050	752.38	0.24
323.18	16070	753.74	0.24
323.23	18060	755.07	0.24
323.25	19080	755.76	0.24
333.14	10050	742.64	0.23
333.16	12040	744.14	0.24
333.28	14060	745.66	0.24
333.16	16060	747.18	0.24
333.13	18050	748.61	0.24
333.13	19060	749.31	0.24
343.32	10040	736	0.23
343.32	12050	737.59	0.23
343.35	14070	739.16	0.23
343.31	16030	740.68	0.23
343.34	18020	742.16	0.23
343.31	19040	742.92	0.23
353.63	10020	729.05	0.23
353.58	12050	730.83	0.23
353.66	14040	732.42	0.23
353.48	16030	734.17	0.23
353.5	18010	735.7	0.23
353.51	19050	736.41	0.23

System: carbon dioxide + tetradecane; phases: Liquid
Property: Mass density, kg/m3 (Liquid); method: MSONE:UFactor:12
Mole fraction of carbon dioxide	Temperature, K	Pressure, kPa	Mass density, kg/m3	uncertainty
0.2469	313.07	10010	761.87	1.14
0.2469	313.08	12050	763.39	1.15
0.2469	313.08	13990	764.87	1.15
0.2469	313.08	16020	766.36	1.15
0.2469	313.09	18000	767.75	1.15
0.2469	313.11	19000	768.47	1.15
0.2469	323.14	10120	754.69	1.13
0.2469	323.14	12060	756.22	1.14
0.2469	323.11	14020	757.81	1.14
0.2469	323.12	16020	759.35	1.14
0.2469	323.19	17960	760.81	1.14
0.2469	323.14	18980	761.61	1.14
0.2469	333.13	10010	747.3	1.12
0.2469	333.15	12060	749.05	1.12
0.2469	333.13	13970	750.65	1.13
0.2469	333.11	16040	752.33	1.13
0.2469	333.15	17980	753.84	1.13
0.2469	333.16	18980	754.7	1.13
0.2469	343.25	10080	739.8	1.11
0.2469	343.25	12000	741.71	1.11
0.2469	343.34	14060	743.54	1.12
0.2469	343.27	16010	745.25	1.12
0.2469	343.24	18020	746.97	1.12
0.2469	343.27	19050	747.79	1.12
0.2469	353.48	9970	733.1	1.1
0.2469	353.43	11990	735.13	1.1
0.2469	353.48	14000	737.01	1.11
0.2469	353.52	16030	738.93	1.11
0.2469	353.4	18070	741.03	1.11
0.2469	353.47	19020	741.82	1.11
0.5241	313.19	10110	776.82	1.14
0.5241	313.16	11930	778.74	1.14
0.5241	313.17	13930	780.74	1.14
0.5241	313.35	16050	782.84	1.15
0.5241	313.21	18060	784.76	1.15
0.5241	313.16	19060	785.72	1.15
0.5241	323.23	10030	767.22	1.12
0.5241	323.23	12040	769.42	1.12
0.5241	323.23	13980	771.51	1.13
0.5241	323.21	16080	773.72	1.13
0.5241	323.22	18050	775.72	1.13
0.5241	323.22	19040	776.7	1.14
0.5241	333.09	10100	757.94	1.11
0.5241	333.15	11930	760.02	1.11
0.5241	333.2	13970	762.35	1.11
0.5241	333.15	15990	764.66	1.12
0.5241	333.11	18060	766.9	1.12
0.5241	333.13	19080	767.96	1.12
0.5241	343.22	10080	748.36	1.09
0.5241	343.26	11930	750.66	1.1
0.5241	343.25	13970	753.12	1.1
0.5241	343.37	15990	755.45	1.1
0.5241	343.36	18040	757.81	1.11
0.5241	343.39	19080	758.96	1.11
0.5241	353.36	9980	738.86	1.08
0.5241	353.39	11960	741.42	1.08
0.5241	353.43	14020	744.02	1.09
0.5241	353.43	16060	746.56	1.09
0.5241	353.39	18060	748.96	1.09
0.5241	353.44	19060	750.06	1.09
0.7534	313.05	10040	799.71	1.15
0.7534	313.05	11940	804.49	1.16
0.7534	313.14	13040	806.93	1.16
0.7534	313.12	13940	809.04	1.17
0.7534	313	15040	811.66	1.17
0.7534	313.13	16010	813.59	1.18
0.7534	313.01	17010	815.79	1.18
0.7534	313.01	18060	817.99	1.18
0.7534	312.99	19070	819.95	1.19
0.7534	323.15	10070	782.23	1.13
0.7534	323.15	12030	787.2	1.13
0.7534	323.15	13000	789.82	1.14
0.7534	323.15	14020	791.84	1.14
0.7534	323.15	15060	794.75	1.14
0.7534	323.15	16040	796.67	1.15
0.7534	323.15	17010	799.28	1.15
0.7534	323.15	18070	801.5	1.16
0.7534	323.15	19020	803.65	1.16
0.7534	333.07	10050	764.82	1.1
0.7534	333.17	12050	769.75	1.11
0.7534	333.11	13040	771.85	1.11
0.7534	333.07	14030	774.55	1.12
0.7534	333.12	15020	777.38	1.12
0.7534	333.12	16040	779.31	1.12
0.7534	333.07	17060	782.56	1.13
0.7534	333.07	18060	784.44	1.13
0.7534	333.17	19050	786.81	1.13
0.7534	343.29	11990	755.9	1.09
0.7534	343.18	13030	757.6	1.09
0.7534	343.2	14070	759.71	1.09
0.7534	343.37	15000	761.76	1.1
0.7534	343.32	15970	764.11	1.1
0.7534	343.34	16930	766.37	1.1
0.7534	343.28	18030	768.86	1.11
0.7534	343.37	19030	770.9	1.11
0.7534	353.36	12050	743.36	1.07
0.7534	353.41	13000	744.77	1.07
0.7534	353.47	14010	746.82	1.08
0.7534	353.46	15040	748.68	1.08
0.7534	353.46	15990	750.82	1.08
0.7534	353.39	17030	753.15	1.09
0.7534	353.46	18040	755.21	1.09
0.7534	353.54	18990	756.97	1.09
0.8773	313.19	9970	799.39	1.15
0.8773	313.2	11990	806.52	1.16
0.8773	313.17	12990	810.26	1.16
0.8773	313.17	14050	813.95	1.17
0.8773	313.23	15010	818.7	1.17
0.8773	313.18	16020	822.71	1.18
0.8773	313.18	17010	826.33	1.19
0.8773	313.19	18040	829.7	1.19
0.8773	313.12	19060	833.41	1.2
0.8773	323.11	10980	783.24	1.12
0.8773	323.15	12050	786.07	1.13
0.8773	323.14	13020	788.73	1.13
0.8773	323.14	14050	791.99	1.13
0.8773	323.16	15050	795.16	1.14
0.8773	323.14	16040	799.2	1.15
0.8773	323.14	17040	801.18	1.15
0.8773	323.14	18060	805.9	1.16
0.8773	323.11	19020	809.81	1.16
0.8773	333.19	13020	771.46	1.11
0.8773	333.18	14030	774.07	1.11
0.8773	333.22	15040	776.33	1.11
0.8773	333.14	16050	779.75	1.12
0.8773	333.14	17040	782.59	1.12
0.8773	333.11	18060	785.49	1.13
0.8773	333.13	19050	788.14	1.13
0.8773	343.29	15010	756.06	1.09
0.8773	343.28	16050	759.7	1.09
0.8773	343.26	17070	763.58	1.1
0.8773	343.3	18040	766.93	1.1
0.8773	343.32	19050	770.12	1.1
0.8773	353.48	17020	747.37	1.07
0.8773	353.46	18010	751.14	1.08
0.8773	353.47	19040	754.52	1.08
