Measured thermophysical data. Experimental Study on the Saturated Liquid Density and Bubble Point Pressure for R1234ze(E) + R290
Source: J. Chem. Eng. Data, 2016, 10.1021/acs.jced.6b00327
Compound 1: trans-1,3,3,3-tetrafluoropropene, C3H2F4, InChI=1S/C3H2F4/c4-2-1-3(5,6)7/h1-2H/b2-1+, purity 99.5%
Compound 2: propane, C3H8, InChI=1S/C3H8/c1-3-2/h3H2,1-2H3, purity 99.9%

System: propane + trans-1,3,3,3-tetrafluoropropene; phases: Liquid, Gas
Property: Mass density, kg/m3 (Liquid); method: Buoyancy - hydrostatic balance with magnetic suspension - one sinker
Temperature, K	Mole fraction of trans-1,3,3,3-tetrafluoropropene	Mass density, kg/m3	uncertainty
253.299	0.1746	680.21	4.35
256.114	0.1746	676.35	4.29
261.139	0.1746	670.01	4.23
265.175	0.1746	662.22	4.22
269.183	0.1746	655.74	4.23
273.204	0.1746	648.23	4.19
278.197	0.1746	640.01	4.15
283.181	0.1746	630.77	4.12
253.446	0.7006	1067.62	4.45
258.142	0.7006	1056.03	4.43
263.154	0.7006	1043.42	4.43
268.17	0.7006	1030.6	4.36
273.175	0.7006	1017.6	4.32
278.201	0.7006	1004.24	4.27
283.201	0.7006	991.21	4.21
288.221	0.7006	977.85	4.13
293.283	0.7006	963.78	4.06
253.141	0.4965	913.53	4.42
258.166	0.4965	903.57	4.37
263.164	0.4965	892.67	4.3
268.188	0.4965	884.02	4.25
273.199	0.4965	873.27	4.21
278.239	0.4965	862	4.16
283.187	0.4965	851.76	4.12
288.248	0.4965	842.07	4
293.276	0.4965	831.58	3.89
253.441	0.8803	1197.23	4.34
258.204	0.8803	1186.23	4.37
263.174	0.8803	1175.37	4.4
268.196	0.8803	1162.41	4.41
273.177	0.8803	1149.12	4.4
278.19	0.8803	1135.29	4.38
283.186	0.8803	1121.17	4.34
288.214	0.8803	1106.57	4.3
293.284	0.8803	1091.31	4.27

System: propane + trans-1,3,3,3-tetrafluoropropene; phases: Liquid, Gas
Property: Vapor or sublimation pressure, kPa (Liquid); method: Closed cell (Static) method
Temperature, K	Mole fraction of trans-1,3,3,3-tetrafluoropropene	Vapor or sublimation pressure, kPa	uncertainty
253.299	0.1746	255.75	1.45
256.114	0.1746	283.36	1.52
261.139	0.1746	336.73	1.64
265.175	0.1746	385.39	1.72
269.183	0.1746	437.47	1.85
273.204	0.1746	495.58	2
278.197	0.1746	572.5	2.21
283.181	0.1746	665.14	2.46
253.446	0.7006	212.24	1.84
258.142	0.7006	249.99	2.01
263.154	0.7006	295.38	2.24
268.17	0.7006	346.61	2.52
273.175	0.7006	405.86	2.81
278.201	0.7006	471.51	3.13
283.201	0.7006	543.18	3.5
288.221	0.7006	623.67	3.87
293.283	0.7006	715.36	4.36
253.141	0.4965	236.34	1.48
258.166	0.4965	282.3	1.57
263.164	0.4965	333.5	1.72
268.188	0.4965	393.51	1.87
273.199	0.4965	458.34	2.04
278.239	0.4965	532.75	2.25
283.187	0.4965	613.45	2.53
288.248	0.4965	704.42	3.44
293.276	0.4965	807.23	3.78
253.441	0.8803	159.18	2.19
258.204	0.8803	189.98	2.4
263.174	0.8803	224.64	2.68
268.196	0.8803	266.24	3
273.177	0.8803	313.14	3.38
278.19	0.8803	368.01	3.77
283.186	0.8803	427.95	4.13
288.214	0.8803	497.52	4.55
293.284	0.8803	574.81	5.14
