Measured thermophysical data. New Concentration Correlations of NaOH Aqueous Solutions for a Thermodynamic Process
Source: J. Chem. Eng. Data, 2019, 10.1021/acs.jced.9b00536
Compound 1: sodium hydroxide, HNaO, InChI=1S/Na.H2O/h;1H2/q+1;/p-1, purity 98%
Compound 2: water, H2O, InChI=1S/H2O/h1H2, purity 99.5%

System: sodium hydroxide + water; phases: Liquid
Fixed: Pressure, kPa = 100
Property: Refractive index (Na D-line) (Liquid); method: Standard Abbe refractometry
Temperature, K	Mass fraction of sodium hydroxide	Refractive index (Na D-line)	uncertainty
283.15	0.2	1.3856	0.002
283.15	0.21	1.3875	0.002
283.15	0.22	1.3904	0.002
283.15	0.23	1.3922	0.002
283.15	0.24	1.3941	0.002
283.15	0.25	1.3969	0.002
283.15	0.26	1.3991	0.002
283.15	0.27	1.4009	0.002
283.15	0.28	1.4028	0.002
283.15	0.29	1.4053	0.002
283.15	0.3	1.4066	0.002
283.15	0.31	1.4087	0.002
283.15	0.32	1.4099	0.002
283.15	0.33	1.4115	0.002
283.15	0.34	1.4141	0.002
283.15	0.35	1.416	0.002
283.15	0.36	1.4175	0.002
283.15	0.37	1.419	0.002
283.15	0.38	1.4209	0.002
283.15	0.39	1.4226	0.002
283.15	0.4	1.4241	0.002
283.15	0.41	1.4252	0.002
283.15	0.42	1.4269	0.002
283.15	0.43	1.4281	0.002
283.15	0.44	1.4293	0.002
283.15	0.45	1.4303	0.002
283.15	0.46	1.4321	0.002
283.15	0.47	1.4332	0.002
283.15	0.48	1.4347	0.002
283.15	0.49	1.4356	0.002
283.15	0.5	1.4365	0.002
288.15	0.2	1.3847	0.002
288.15	0.21	1.3866	0.002
288.15	0.22	1.3895	0.002
288.15	0.23	1.3912	0.002
288.15	0.24	1.3932	0.002
288.15	0.25	1.3961	0.002
288.15	0.26	1.3982	0.002
288.15	0.27	1.4	0.002
288.15	0.28	1.4019	0.002
288.15	0.29	1.4044	0.002
288.15	0.3	1.4056	0.002
288.15	0.31	1.4077	0.002
288.15	0.32	1.4091	0.002
288.15	0.33	1.4107	0.002
288.15	0.34	1.4132	0.002
288.15	0.35	1.4151	0.002
288.15	0.36	1.4167	0.002
288.15	0.37	1.4181	0.002
288.15	0.38	1.42	0.002
288.15	0.39	1.4217	0.002
288.15	0.4	1.4232	0.002
288.15	0.41	1.4243	0.002
288.15	0.42	1.426	0.002
288.15	0.43	1.4272	0.002
288.15	0.44	1.4284	0.002
288.15	0.45	1.4295	0.002
288.15	0.46	1.4312	0.002
288.15	0.47	1.4323	0.002
288.15	0.48	1.4338	0.002
288.15	0.49	1.4347	0.002
288.15	0.5	1.4355	0.002
293.15	0.2	1.3838	0.002
293.15	0.21	1.3858	0.002
293.15	0.22	1.3886	0.002
293.15	0.23	1.3903	0.002
293.15	0.24	1.3923	0.002
293.15	0.25	1.3952	0.002
293.15	0.26	1.3974	0.002
293.15	0.27	1.3991	0.002
293.15	0.28	1.4011	0.002
293.15	0.29	1.4035	0.002
293.15	0.3	1.4048	0.002
293.15	0.31	1.4068	0.002
293.15	0.32	1.4081	0.002
293.15	0.33	1.4097	0.002
293.15	0.34	1.4123	0.002
293.15	0.35	1.4142	0.002
293.15	0.36	1.4158	0.002
293.15	0.37	1.4172	0.002
293.15	0.38	1.4191	0.002
293.15	0.39	1.4208	0.002
293.15	0.4	1.4223	0.002
293.15	0.41	1.4234	0.002
293.15	0.42	1.425	0.002
293.15	0.43	1.4263	0.002
293.15	0.44	1.4274	0.002
293.15	0.45	1.4286	0.002
293.15	0.46	1.4303	0.002
293.15	0.47	1.4314	0.002
293.15	0.48	1.4329	0.002
293.15	0.49	1.4338	0.002
293.15	0.5	1.4346	0.002
298.15	0.2	1.3829	0.002
298.15	0.21	1.3849	0.002
298.15	0.22	1.3878	0.002
298.15	0.23	1.3893	0.002
298.15	0.24	1.3914	0.002
298.15	0.25	1.3943	0.002
298.15	0.26	1.3965	0.002
298.15	0.27	1.3982	0.002
298.15	0.28	1.4002	0.002
298.15	0.29	1.4026	0.002
298.15	0.3	1.4038	0.002
298.15	0.31	1.4059	0.002
298.15	0.32	1.4073	0.002
298.15	0.33	1.4088	0.002
298.15	0.34	1.4114	0.002
298.15	0.35	1.4133	0.002
298.15	0.36	1.4148	0.002
298.15	0.37	1.4163	0.002
298.15	0.38	1.4182	0.002
298.15	0.39	1.4199	0.002
298.15	0.4	1.4214	0.002
298.15	0.41	1.4225	0.002
298.15	0.42	1.4241	0.002
298.15	0.43	1.4254	0.002
298.15	0.44	1.4265	0.002
298.15	0.45	1.4276	0.002
298.15	0.46	1.4293	0.002
298.15	0.47	1.4304	0.002
298.15	0.48	1.432	0.002
298.15	0.49	1.4328	0.002
298.15	0.5	1.4337	0.002
303.15	0.2	1.382	0.002
303.15	0.21	1.384	0.002
303.15	0.22	1.3869	0.002
303.15	0.23	1.3882	0.002
303.15	0.24	1.3905	0.002
303.15	0.25	1.3934	0.002
303.15	0.26	1.3956	0.002
303.15	0.27	1.3973	0.002
303.15	0.28	1.3993	0.002
303.15	0.29	1.4017	0.002
303.15	0.3	1.4029	0.002
303.15	0.31	1.405	0.002
303.15	0.32	1.4063	0.002
303.15	0.33	1.4079	0.002
303.15	0.34	1.4105	0.002
303.15	0.35	1.4123	0.002
303.15	0.36	1.4139	0.002
303.15	0.37	1.4154	0.002
303.15	0.38	1.4173	0.002
303.15	0.39	1.4189	0.002
303.15	0.4	1.4205	0.002
303.15	0.41	1.4215	0.002
303.15	0.42	1.4231	0.002
303.15	0.43	1.4245	0.002
303.15	0.44	1.4255	0.002
303.15	0.45	1.4267	0.002
303.15	0.46	1.4284	0.002
303.15	0.47	1.4294	0.002
303.15	0.48	1.4311	0.002
303.15	0.49	1.4318	0.002
303.15	0.5	1.4328	0.002
308.15	0.2	1.3811	0.002
308.15	0.21	1.3832	0.002
308.15	0.22	1.386	0.002
308.15	0.23	1.3874	0.002
308.15	0.24	1.3896	0.002
308.15	0.25	1.3925	0.002
308.15	0.26	1.3947	0.002
308.15	0.27	1.3964	0.002
308.15	0.28	1.3983	0.002
308.15	0.29	1.4008	0.002
308.15	0.3	1.402	0.002
308.15	0.31	1.4041	0.002
308.15	0.32	1.4055	0.002
308.15	0.33	1.407	0.002
308.15	0.34	1.4096	0.002
308.15	0.35	1.4114	0.002
308.15	0.36	1.413	0.002
308.15	0.37	1.4145	0.002
308.15	0.38	1.4163	0.002
308.15	0.39	1.418	0.002
308.15	0.4	1.4196	0.002
308.15	0.41	1.4206	0.002
308.15	0.42	1.4221	0.002
308.15	0.43	1.4236	0.002
308.15	0.44	1.4245	0.002
308.15	0.45	1.4258	0.002
308.15	0.46	1.4275	0.002
308.15	0.47	1.4285	0.002
308.15	0.48	1.4301	0.002
308.15	0.49	1.4309	0.002
308.15	0.5	1.4319	0.002
313.15	0.2	1.3801	0.002
313.15	0.21	1.3825	0.002
313.15	0.22	1.3851	0.002
313.15	0.23	1.3866	0.002
313.15	0.24	1.3886	0.002
313.15	0.25	1.3917	0.002
313.15	0.26	1.3938	0.002
313.15	0.27	1.3955	0.002
313.15	0.28	1.3975	0.002
313.15	0.29	1.3999	0.002
313.15	0.3	1.4011	0.002
313.15	0.31	1.4033	0.002
313.15	0.32	1.4044	0.002
313.15	0.33	1.4061	0.002
313.15	0.34	1.4086	0.002
313.15	0.35	1.4105	0.002
313.15	0.36	1.4121	0.002
313.15	0.37	1.4136	0.002
313.15	0.38	1.4154	0.002
313.15	0.39	1.417	0.002
313.15	0.4	1.4186	0.002
313.15	0.41	1.4196	0.002
313.15	0.42	1.4212	0.002
313.15	0.43	1.4226	0.002
313.15	0.44	1.4235	0.002
313.15	0.45	1.425	0.002
313.15	0.46	1.4266	0.002
313.15	0.47	1.4275	0.002
313.15	0.48	1.4292	0.002
313.15	0.49	1.43	0.002
313.15	0.5	1.4311	0.002
318.15	0.2	1.3795	0.002
318.15	0.21	1.3819	0.002
318.15	0.22	1.3847	0.002
318.15	0.23	1.3858	0.002
318.15	0.24	1.3877	0.002
318.15	0.25	1.391	0.002
318.15	0.26	1.3931	0.002
318.15	0.27	1.3946	0.002
318.15	0.28	1.3968	0.002
318.15	0.29	1.3989	0.002
318.15	0.3	1.4002	0.002
318.15	0.31	1.4024	0.002
318.15	0.32	1.4036	0.002
318.15	0.33	1.4051	0.002
318.15	0.34	1.4077	0.002
318.15	0.35	1.4095	0.002
318.15	0.36	1.4111	0.002
318.15	0.37	1.4126	0.002
318.15	0.38	1.4145	0.002
318.15	0.39	1.416	0.002
318.15	0.4	1.4177	0.002
318.15	0.41	1.4186	0.002
318.15	0.42	1.4202	0.002
318.15	0.43	1.4217	0.002
318.15	0.44	1.4226	0.002
318.15	0.45	1.4239	0.002
318.15	0.46	1.4256	0.002
318.15	0.47	1.4266	0.002
318.15	0.48	1.4282	0.002
318.15	0.49	1.4289	0.002
318.15	0.5	1.4302	0.002
323.15	0.2	1.3788	0.002
323.15	0.21	1.3815	0.002
323.15	0.22	1.3844	0.002
323.15	0.23	1.3853	0.002
323.15	0.24	1.3869	0.002
323.15	0.25	1.3904	0.002
323.15	0.26	1.3926	0.002
323.15	0.27	1.3937	0.002
323.15	0.28	1.3961	0.002
323.15	0.29	1.3981	0.002
323.15	0.3	1.3994	0.002
323.15	0.31	1.4016	0.002
323.15	0.32	1.4025	0.002
323.15	0.33	1.4042	0.002
323.15	0.34	1.4068	0.002
323.15	0.35	1.4085	0.002
323.15	0.36	1.4102	0.002
323.15	0.37	1.4117	0.002
323.15	0.38	1.4135	0.002
323.15	0.39	1.4151	0.002
323.15	0.4	1.4167	0.002
323.15	0.41	1.4177	0.002
323.15	0.42	1.4192	0.002
323.15	0.43	1.4207	0.002
323.15	0.44	1.4217	0.002
323.15	0.45	1.423	0.002
323.15	0.46	1.4247	0.002
323.15	0.47	1.4257	0.002
323.15	0.48	1.4273	0.002
323.15	0.49	1.428	0.002
323.15	0.5	1.4293	0.002
328.15	0.2	1.3788	0.002
328.15	0.21	1.381	0.002
328.15	0.22	1.3836	0.002
328.15	0.23	1.3852	0.002
328.15	0.24	1.3862	0.002
328.15	0.25	1.39	0.002
328.15	0.26	1.3922	0.002
328.15	0.27	1.3929	0.002
328.15	0.28	1.3953	0.002
328.15	0.29	1.397	0.002
328.15	0.3	1.3986	0.002
328.15	0.31	1.4008	0.002
328.15	0.32	1.4018	0.002
328.15	0.33	1.4033	0.002
328.15	0.34	1.4058	0.002
328.15	0.35	1.4076	0.002
328.15	0.36	1.4093	0.002
328.15	0.37	1.4107	0.002
328.15	0.38	1.4126	0.002
328.15	0.39	1.4142	0.002
328.15	0.4	1.4159	0.002
328.15	0.41	1.4167	0.002
328.15	0.42	1.4183	0.002
328.15	0.43	1.4198	0.002
328.15	0.44	1.4208	0.002
328.15	0.45	1.4221	0.002
328.15	0.46	1.4238	0.002
328.15	0.47	1.4248	0.002
328.15	0.48	1.4264	0.002
328.15	0.49	1.4271	0.002
328.15	0.5	1.4284	0.002
333.15	0.2	1.3794	0.002
333.15	0.21	1.3812	0.002
333.15	0.22	1.3835	0.002
333.15	0.23	1.3857	0.002
333.15	0.24	1.3847	0.002
333.15	0.25	1.3894	0.002
333.15	0.26	1.3915	0.002
333.15	0.27	1.3923	0.002
333.15	0.28	1.3941	0.002
333.15	0.29	1.3964	0.002
333.15	0.3	1.3977	0.002
333.15	0.31	1.3998	0.002
333.15	0.32	1.4008	0.002
333.15	0.33	1.4024	0.002
333.15	0.34	1.4048	0.002
333.15	0.35	1.4066	0.002
333.15	0.36	1.4083	0.002
333.15	0.37	1.4098	0.002
333.15	0.38	1.4116	0.002
333.15	0.39	1.4133	0.002
333.15	0.4	1.415	0.002
333.15	0.41	1.4159	0.002
333.15	0.42	1.4174	0.002
333.15	0.43	1.4189	0.002
333.15	0.44	1.4198	0.002
333.15	0.45	1.4212	0.002
333.15	0.46	1.4229	0.002
333.15	0.47	1.4239	0.002
333.15	0.48	1.4255	0.002
333.15	0.49	1.4263	0.002
333.15	0.5	1.4276	0.002

System: sodium hydroxide + water; phases: Liquid
Fixed: Pressure, kPa = 100
Property: Mass density, kg/m3 (Liquid); method: Vibrating tube method
Temperature, K	Mass fraction of sodium hydroxide	Mass density, kg/m3	uncertainty
303.15	0.2	1213.8	2
303.15	0.21	1223.5	2
303.15	0.22	1236.2	2
303.15	0.23	1246.1	2
303.15	0.24	1256.6	2
303.15	0.25	1268	2.1
303.15	0.26	1279.4	2.1
303.15	0.27	1289.2	2.1
303.15	0.28	1299	2.1
303.15	0.29	1311	2.1
303.15	0.3	1321.7	2.1
303.15	0.31	1330.9	2.1
303.15	0.32	1343.4	2.1
303.15	0.33	1353.5	2.1
303.15	0.34	1364.3	2.1
303.15	0.35	1372.5	2.1
303.15	0.36	1381.8	2.1
303.15	0.37	1393.6	2.1
303.15	0.38	1403.3	2.1
303.15	0.39	1413.5	2.1
303.15	0.4	1423.3	2.1
303.15	0.41	1432.9	2.1
303.15	0.42	1443.2	2.2
303.15	0.43	1452.9	2.2
303.15	0.44	1460.9	2.2
303.15	0.45	1470.7	2.2
303.15	0.46	1479.6	2.2
303.15	0.47	1489.7	2.2
303.15	0.48	1499.9	2.2
303.15	0.49	1509.4	2.2
303.15	0.5	1518.4	2.2
313.15	0.2	1208	2
313.15	0.21	1219	2
313.15	0.22	1230.3	2
313.15	0.23	1240.2	2
313.15	0.24	1250.6	2
313.15	0.25	1262	2
313.15	0.26	1273.3	2.1
313.15	0.27	1283	2.1
313.15	0.28	1293.7	2.1
313.15	0.29	1304.5	2.1
313.15	0.3	1315.4	2.1
313.15	0.31	1324.5	2.1
313.15	0.32	1337	2.1
313.15	0.33	1347	2.1
313.15	0.34	1357.8	2.1
313.15	0.35	1365.9	2.1
313.15	0.36	1375.5	2.1
313.15	0.37	1386.8	2.1
313.15	0.38	1396.5	2.1
313.15	0.39	1406.5	2.1
313.15	0.4	1416.3	2.1
313.15	0.41	1425.9	2.1
313.15	0.42	1436.2	2.1
313.15	0.43	1445.8	2.1
313.15	0.44	1453.8	2.2
313.15	0.45	1463.5	2.2
313.15	0.46	1472.7	2.2
313.15	0.47	1482.5	2.2
313.15	0.48	1492.6	2.2
313.15	0.49	1502.1	2.2
313.15	0.5	1511.1	2.2
323.15	0.2	1202.1	2
323.15	0.21	1213	2
323.15	0.22	1224.3	2
323.15	0.23	1234.1	2
323.15	0.24	1244.4	2
323.15	0.25	1256	2
323.15	0.26	1267.1	2
323.15	0.27	1276.7	2.1
323.15	0.28	1287.4	2.1
323.15	0.29	1298.5	2.1
323.15	0.3	1308.9	2.1
323.15	0.31	1318	2.1
323.15	0.32	1330.4	2.1
323.15	0.33	1340.4	2.1
323.15	0.34	1351.1	2.1
323.15	0.35	1359.2	2.1
323.15	0.36	1369	2.1
323.15	0.37	1380	2.1
323.15	0.38	1389.6	2.1
323.15	0.39	1400	2.1
323.15	0.4	1409.3	2.1
323.15	0.41	1418.9	2.1
323.15	0.42	1429.2	2.1
323.15	0.43	1438.8	2.1
323.15	0.44	1446.7	2.2
323.15	0.45	1456.5	2.2
323.15	0.46	1465.9	2.2
323.15	0.47	1475.3	2.2
323.15	0.48	1485.4	2.2
323.15	0.49	1494.9	2.2
323.15	0.5	1503.9	2.2
333.15	0.2	1196.1	2
333.15	0.21	1206.8	2
333.15	0.22	1218.1	2
333.15	0.23	1227.9	2
333.15	0.24	1238.3	2
333.15	0.25	1249.5	2
333.15	0.26	1260.8	2
333.15	0.27	1270.3	2.1
333.15	0.28	1281	2.1
333.15	0.29	1292	2.1
333.15	0.3	1302.4	2.1
333.15	0.31	1311.4	2.1
333.15	0.32	1323.8	2.1
333.15	0.33	1333.7	2.1
333.15	0.34	1344.4	2.1
333.15	0.35	1352.5	2.1
333.15	0.36	1362.9	2.1
333.15	0.37	1373.2	2.1
333.15	0.38	1382.8	2.1
333.15	0.39	1393	2.1
333.15	0.4	1402.4	2.1
333.15	0.41	1412	2.1
333.15	0.42	1422.2	2.1
333.15	0.43	1431.8	2.1
333.15	0.44	1439.7	2.2
333.15	0.45	1449.5	2.2
333.15	0.46	1459	2.2
333.15	0.47	1468.3	2.2
333.15	0.48	1478.3	2.2
333.15	0.49	1487.9	2.2
333.15	0.5	1496.9	2.2
343.15	0.2	1190	2
343.15	0.21	1200.5	2
343.15	0.22	1212	2
343.15	0.23	1221.8	2
343.15	0.24	1232.2	2
343.15	0.25	1243	2
343.15	0.26	1254.6	2
343.15	0.27	1264.1	2.1
343.15	0.28	1274.7	2.1
343.15	0.29	1285.5	2.1
343.15	0.3	1295.9	2.1
343.15	0.31	1304.9	2.1
343.15	0.32	1317.2	2.1
343.15	0.33	1327.1	2.1
343.15	0.34	1337.8	2.1
343.15	0.35	1345.9	2.1
343.15	0.36	1356.8	2.1
343.15	0.37	1366.5	2.1
343.15	0.38	1376.1	2.1
343.15	0.39	1386	2.1
343.15	0.4	1395.6	2.1
343.15	0.41	1405.1	2.1
343.15	0.42	1415.4	2.1
343.15	0.43	1425	2.1
343.15	0.44	1432.8	2.1
343.15	0.45	1442.6	2.2
343.15	0.46	1451.5	2.2
343.15	0.47	1461.4	2.2
343.15	0.48	1471.4	2.2
343.15	0.49	1481	2.2
343.15	0.5	1490	2.2
353.15	0.2	1184.4	2
353.15	0.21	1194	2
353.15	0.22	1206.4	2
353.15	0.23	1216.2	2
353.15	0.24	1226.7	2
353.15	0.25	1236.5	2
353.15	0.26	1249	2
353.15	0.27	1258.3	2.1
353.15	0.28	1269.1	2.1
353.15	0.29	1278.5	2.1
353.15	0.3	1289.9	2.1
353.15	0.31	1298.7	2.1
353.15	0.32	1311.1	2.1
353.15	0.33	1321	2.1
353.15	0.34	1331.6	2.1
353.15	0.35	1339.8	2.1
353.15	0.36	1349.8	2.1
353.15	0.37	1360.2	2.1
353.15	0.38	1369.9	2.1
353.15	0.39	1379.5	2.1
353.15	0.4	1389.6	2.1
353.15	0.41	1398.7	2.1
353.15	0.42	1409	2.1
353.15	0.43	1418.6	2.1
353.15	0.44	1426.3	2.1
353.15	0.45	1436.2	2.2
353.15	0.46	1445.2	2.2
353.15	0.47	1454.8	2.2
353.15	0.48	1465	2.2
353.15	0.49	1474.6	2.2
353.15	0.5	1483.6	2.2
