Measured thermophysical data. Experimental Determination and Correlation of Liquid Liquid Equilibria for Methyl Isopropyl Ketone + Phenol + Water Mixtures at 298.15, 313.15, and 323.15 K
Source: J. Chem. Eng. Data, 2016, 10.1021/acs.jced.5b00895
Compound 1: 3-methyl-2-butanone, C5H10O, InChI=1S/C5H10O/c1-4(2)5(3)6/h4H,1-3H3, purity 99%
Compound 2: phenol, C6H6O, InChI=1S/C6H6O/c7-6-4-2-1-3-5-6/h1-5,7H, purity 99.5%
Compound 3: water, H2O, InChI=1S/H2O/h1H2

System: phenol + 3-methyl-2-butanone + water; phases: Liquid mixture 1, Liquid mixture 2
Fixed: Pressure, kPa = 100
Property: Mass fraction of phenol (Liquid mixture 1); method: Chromatography
Property: Mass fraction of phenol (Liquid mixture 2); method: Chromatography
Property: Mass fraction of 3-methyl-2-butanone (Liquid mixture 2); method: Chromatography
Temperature, K	Mass fraction of 3-methyl-2-butanone	Mass fraction of phenol	uncertainty	Mass fraction of phenol	uncertainty	Mass fraction of 3-methyl-2-butanone	uncertainty
298.15	0.03214	0.00505	0.00024	0.3367	0.0026	0.5897	
298.15	0.04025	0.00258	0.00023	0.2236	0.0018	0.7151	
298.15	0.0434	0.00204	0.00021	0.1951	0.0016	0.7483	
298.15	0.04893	0.0012	0.00021	0.1422	0.0012	0.8072	
298.15	0.05062	0.00098	0.00021	0.1212	0.001	0.8321	
298.15	0.05286	0.00071	0.00021	0.0939	0.0008	0.8619	
298.15	0.05627	0.00034	0.0002	0.053	0.0006	0.9078	
298.15	0.06186	0		0		0.9653	
313.15	0.02928	0.00449	0.00027	0.2895	0.0023	0.6379	
313.15	0.03301	0.00322	0.00024	0.2354	0.0019	0.6983	
313.15	0.03749	0.00202	0.00022	0.1672	0.0013	0.7751	
313.15	0.03973	0.0015	0.00022	0.1341	0.0011	0.811	
313.15	0.04191	0.00096	0.00021	0.0983	0.0008	0.8523	
313.15	0.04478	0.00046	0.00021	0.0524	0.0006	0.9028	
313.15	0.04668	0.00024	0.0002	0.0295	0.0005	0.9274	
313.15	0.04964	0		0		0.9598	
323.15	0.02704	0.00515	0.00024	0.3091	0.0024	0.6102	
323.15	0.03325	0.00329	0.00023	0.216	0.0017	0.7165	
323.15	0.03639	0.00242	0.00023	0.1744	0.0014	0.7651	
323.15	0.03962	0.00158	0.00022	0.1244	0.001	0.8201	
323.15	0.04194	0.00102	0.00022	0.0856	0.0008	0.8641	
323.15	0.04328	0.00071	0.00022	0.0622	0.0006	0.8895	
323.15	0.04533	0.00024	0.00021	0.0223	0.0005	0.9308	
323.15	0.04782	0		0		0.9559	

System: 3-methyl-2-butanone + water; phases: Liquid mixture 1, Liquid mixture 2
Fixed: Pressure, kPa = 100
Property: Mass fraction of 3-methyl-2-butanone (Liquid mixture 1); method: Chromatography
Temperature, K	Mass fraction of 3-methyl-2-butanone	uncertainty
313.15	0.04964	0.00054
323.15	0.04782	0.00053
298.15	0.06186	0.00061

System: 3-methyl-2-butanone + water; phases: Liquid mixture 2, Liquid mixture 1
Fixed: Pressure, kPa = 100
Property: Mass fraction of 3-methyl-2-butanone (Liquid mixture 2); method: Chromatography
Temperature, K	Mass fraction of 3-methyl-2-butanone	uncertainty
313.15	0.9598	0.0005
323.15	0.9559	0.0005
298.15	0.9653	0.0005
