Measured thermophysical data. Solubility Determination and Correlation of Warfarin Sodium 2-Propanol Solvate in Pure, Binary, and Ternary Solvent Mixtures
Source: J. Chem. Eng. Data, 2019, 10.1021/acs.jced.8b00977
Compound 1: warfarin sodium, C19H15NaO4, InChI=1S/C19H16O4.Na/c1-12(20)11-15(13-7-3-2-4-8-13)17-18(21)14-9-5-6-10-16(14)23-19(17)22;/h2-10,15,21H,11H2,1H3;/q;+1/p-1
Compound 2: acetone, C3H6O, InChI=1S/C3H6O/c1-3(2)4/h1-2H3
Compound 3: ethanol, C2H6O, InChI=1S/C2H6O/c1-2-3/h3H,2H2,1H3
Compound 4: heptane, C7H16, InChI=1S/C7H16/c1-3-5-7-6-4-2/h3-7H2,1-2H3
Compound 5: hexane, C6H14, InChI=1S/C6H14/c1-3-5-6-4-2/h3-6H2,1-2H3
Compound 6: propan-2-ol, C3H8O, InChI=1S/C3H8O/c1-3(2)4/h3-4H,1-2H3
Compound 7: water, H2O, InChI=1S/H2O/h1H2, purity 99.9%

System: warfarin sodium; phases: Crystal, Liquid, Air at 1 atmosphere
Property: Triple point temperature, K (Crystal); method: DSC
Triple point temperature, K	uncertainty
468.87	1

System: warfarin sodium; phases: Crystal, Liquid, Air at 1 atmosphere
Property: Molar enthalpy of transition or fusion, kJ/mol (Crystal); method: DSC
Molar enthalpy of transition or fusion, kJ/mol	uncertainty
71.08	3.69

System: warfarin sodium + acetone + propan-2-ol; phases: Liquid, Crystal of intercomponent compound 1
Fixed: Pressure, kPa = 101.3
Property: Solid-liquid equilibrium temperature, K (Liquid); method: VISOBS
Mole fraction of warfarin sodium	Mole fraction of propan-2-ol	Solid-liquid equilibrium temperature, K	uncertainty
0.00572	0.00286	278.9	4
0.00723	0.00362	283.6	4
0.01109	0.00555	297.8	4
0.01405	0.00702	304	4
0.01572	0.00786	307.4	4.1
0.01871	0.00935	315.3	4.1
0.02247	0.01123	320.8	4.1

System: warfarin sodium + acetone + propan-2-ol; phases: Liquid, Crystal of intercomponent compound 1
Fixed: Pressure, kPa = 101.3
Property: Solid-liquid equilibrium temperature, K (Liquid); method: VISOBS
Mole fraction of warfarin sodium	Mole fraction of propan-2-ol	Solid-liquid equilibrium temperature, K	uncertainty
0.00136	0.949	280.3	4.2
0.00153	0.949	287.1	4.1
0.00173	0.949	290.8	4.1
0.00196	0.949	296.6	4.2
0.00216	0.949	304.9	4.1
0.00259	0.95	312.5	4.1
0.00323	0.95	320.4	4.1
0.00198	0.888	281.2	4.1
0.00213	0.888	283.3	4.1
0.00294	0.888	294	4.2
0.00377	0.888	306.3	4.2
0.00498	0.889	318	4.1
0.00577	0.889	322.7	4.1
0.00296	0.847	283.6	4.1
0.00383	0.848	290.2	4.2
0.00422	0.848	296.2	4.3
0.0051	0.848	307.3	4.3
0.00589	0.849	314.1	4.2
0.00668	0.849	320.5	4.2
0.0071	0.849	322.8	4.1

System: warfarin sodium + ethanol + propan-2-ol; phases: Liquid, Crystal of intercomponent compound 1
Fixed: Pressure, kPa = 101.3
Property: Solid-liquid equilibrium temperature, K (Liquid); method: VISOBS
Mole fraction of warfarin sodium	Mole fraction of propan-2-ol	Solid-liquid equilibrium temperature, K	uncertainty
0.02316	0.01158	278.8	4.1
0.0262	0.0131	284.9	4.1
0.02962	0.01481	293.4	4.3
0.03663	0.01832	306.4	4.2
0.04018	0.02009	312.3	4.2
0.04624	0.02312	321.3	4.1
0.04955	0.02478	324.6	4.1
0.053	0.0265	328.6	4.2

System: warfarin sodium + ethanol + propan-2-ol; phases: Liquid, Crystal of intercomponent compound 1
Fixed: Pressure, kPa = 101.3
Property: Solid-liquid equilibrium temperature, K (Liquid); method: VISOBS
Mole fraction of warfarin sodium	Mole fraction of propan-2-ol	Solid-liquid equilibrium temperature, K	uncertainty
0.00111	0.874	282.5	4
0.00132	0.874	285.6	4
0.0015	0.874	289.6	4
0.00226	0.875	303.9	4
0.00294	0.875	312.3	4
0.00383	0.875	322.4	4
0.00457	0.876	328.2	4
0.00445	0.644	284.4	4
0.00588	0.644	296.4	4
0.00774	0.645	307.4	4
0.00943	0.646	316.2	4
0.01147	0.647	326.4	4
0.01334	0.648	332.9	4
0.00148	0.755	280.6	4
0.00186	0.755	287.9	4
0.00307	0.756	304.7	4
0.00444	0.756	317.6	4
0.00542	0.757	324.4	4
0.00641	0.757	330.7	4

System: warfarin sodium + propan-2-ol; phases: Liquid, Crystal of intercomponent compound 1
Fixed: Pressure, kPa = 101.3
Property: Solid-liquid equilibrium temperature, K (Liquid); method: VISOBS
Mole fraction of warfarin sodium	Solid-liquid equilibrium temperature, K	uncertainty
0.00063	280.5	4
0.00076	283.7	4
0.00132	302.2	4.1
0.00179	312.9	4.1
0.00193	315.6	4.1
0.00279	326.4	4.1

System: warfarin sodium + water + propan-2-ol; phases: Liquid, Crystal of intercomponent compound 1
Fixed: Pressure, kPa = 101.3
Property: Solid-liquid equilibrium temperature, K (Liquid); method: VISOBS
Mole fraction of warfarin sodium	Mole fraction of propan-2-ol	Solid-liquid equilibrium temperature, K	uncertainty
0.00133	0.00066	282.4	4
0.00225	0.00113	288.1	4
0.00731	0.00365	303.2	4
0.02464	0.01232	317.9	4
0.03061	0.0153	320.2	4
0.04174	0.02087	329.8	4.1

System: warfarin sodium + water + propan-2-ol; phases: Liquid, Crystal of intercomponent compound 1
Fixed: Pressure, kPa = 101.3
Property: Solid-liquid equilibrium temperature, K (Liquid); method: VISOBS
Mole fraction of warfarin sodium	Mole fraction of propan-2-ol	Solid-liquid equilibrium temperature, K	uncertainty
0.00113	0.968	278.9	4
0.00217	0.968	290.7	4
0.00323	0.969	305.4	4.1
0.00424	0.97	314.9	4.1
0.00526	0.97	322.8	4.1
0.00634	0.971	328.9	4.1
0.00392	0.88	279.6	4.2
0.00654	0.881	295	4.3
0.0079	0.882	301.9	4.3
0.00981	0.883	308.7	4.3
0.0117	0.884	316.6	4.3
0.01378	0.885	322.9	4.3
0.01485	0.885	325.8	4.3
0.00299	0.908	283.6	4.1
0.00408	0.909	295.2	4.1
0.006	0.909	308.7	4.1
0.00808	0.911	319.4	4.2
0.0101	0.912	327.4	4.2
0.01096	0.912	330.7	4.2

System: warfarin sodium + heptane + propan-2-ol; phases: Liquid, Crystal of intercomponent compound 1
Fixed: Pressure, kPa = 101.3
Property: Solid-liquid equilibrium temperature, K (Liquid); method: VISOBS
Mole fraction of warfarin sodium	Mole fraction of propan-2-ol	Solid-liquid equilibrium temperature, K	uncertainty
0.00059	0.944	283.4	4
0.0007	0.944	285.7	4
0.00079	0.944	289.3	4.1
0.00115	0.945	300.5	4.1
0.0016	0.945	311.7	4.1
0.00229	0.945	324.4	4.1
0.0005	0.811	287.2	4.1
0.00064	0.811	296.9	4.1
0.00101	0.811	313.7	4.1
0.0013	0.812	323	4.1
0.00156	0.812	330.4	4.1
0.00014	0.653	278.4	4.1
0.00028	0.653	295.2	4.1
0.00042	0.653	307.2	4.2
0.00057	0.653	316.7	4.2
0.00071	0.653	326.2	4.2
0.00084	0.653	330.5	4.2
0.0005	0.884	283.6	4.1
0.0006	0.884	291.9	4.1
0.00119	0.884	309.2	4.1
0.00168	0.885	321.6	4.1
0.0019	0.885	326.4	4.1
0.00215	0.885	331.5	4.1
0.00027	0.74	282.7	4.1
0.00041	0.74	293.2	4.1
0.00081	0.74	317.3	4.2
0.00107	0.74	327	4.2
0.00121	0.74	331.8	4.2

System: warfarin sodium + hexane + propan-2-ol; phases: Liquid, Crystal of intercomponent compound 1
Fixed: Pressure, kPa = 101.3
Property: Solid-liquid equilibrium temperature, K (Liquid); method: VISOBS
Mole fraction of warfarin sodium	Mole fraction of propan-2-ol	Solid-liquid equilibrium temperature, K	uncertainty
0.00056	0.944	281	4
0.00064	0.944	282.9	4
0.00081	0.944	291.8	4.1
0.00091	0.944	295.3	4.1
0.00138	0.944	307.5	4.1
0.00183	0.944	315.4	4.1
0.00216	0.944	322.5	4.1
0.00031	0.818	279.6	4
0.00036	0.818	282.6	4
0.00052	0.818	291	4.1
0.00062	0.818	296.6	4.1
0.001	0.818	313.2	4.1
0.00124	0.818	321.3	4.1
0.0015	0.818	327.4	4.1
0.00177	0.818	332	4.1
0.00027	0.662	279.5	4.2
0.00032	0.662	290	4.1
0.0004	0.662	298	4.1
0.00049	0.662	309	4.2
0.00064	0.662	321.5	4.2
0.00075	0.662	326.5	4.2
0.00049	0.891	283.7	4
0.00062	0.891	289.5	4
0.0007	0.891	293.7	4
0.00095	0.891	301.5	4.1
0.00144	0.891	317.4	4.1
0.00168	0.891	322.8	4.1
0.00188	0.891	327	4.1
0.0003	0.748	280.7	4.1
0.00038	0.748	289.9	4.1
0.00051	0.748	298.1	4.1
0.00066	0.748	309.7	4.2
0.00077	0.748	314.9	4.1
0.00104	0.748	327.1	4.2
0.00119	0.748	331.3	4.1
