Measured thermophysical data. Liquid Liquid Equilibrium for the Ternary System of Methyl Laurate/Methyl Myristate + Ethanol + Glycerol at 318.15 and 333.15 K
Source: J. Chem. Eng. Data, 2016, 10.1021/acs.jced.5b01105
Compound 1: methyl dodecanoate, C13H26O2, InChI=1S/C13H26O2/c1-3-4-5-6-7-8-9-10-11-12-13(14)15-2/h3-12H2,1-2H3, purity 99%
Compound 2: methyl tetradecanoate, C15H30O2, InChI=1S/C15H30O2/c1-3-4-5-6-7-8-9-10-11-12-13-14-15(16)17-2/h3-14H2,1-2H3, purity 98%
Compound 3: ethanol, C2H6O, InChI=1S/C2H6O/c1-2-3/h3H,2H2,1H3, purity 99.8%
Compound 4: glycerol, C3H8O3, InChI=1S/C3H8O3/c4-1-3(6)2-5/h3-6H,1-2H2, purity 99.5%

System: glycerol + ethanol + methyl dodecanoate; phases: Liquid mixture 1, Liquid mixture 2
Fixed: Pressure, kPa = 101
Property: Mole fraction of methyl dodecanoate (Liquid mixture 1); method: Chromatography
Property: Mole fraction of glycerol (Liquid mixture 2); method: Chromatography
Property: Mole fraction of ethanol (Liquid mixture 2); method: Chromatography
Temperature, K	Mole fraction of ethanol	Mole fraction of methyl dodecanoate	uncertainty	Mole fraction of glycerol	uncertainty	Mole fraction of ethanol	uncertainty
318.15	0.107	0.884	0.003	0.868	0.002	0.132	
333.15	0.322	0.64	0.004	0.645	0.004	0.353	
333.15	0.41	0.547	0.004	0.572	0.004	0.425	
333.15	0.555	0.4	0.004	0.468	0.004	0.526	
318.15	0.167	0.82	0.003	0.799	0.003	0.2	
318.15	0.273	0.708	0.004	0.679	0.004	0.32	
318.15	0.349	0.622	0.004	0.607	0.004	0.391	
318.15	0.423	0.539	0.004	0.549	0.004	0.447	
318.15	0.535	0.42	0.004	0.469	0.004	0.524	
333.15	0.181	0.794	0.003	0.782	0.003	0.217	
333.15	0.219	0.754	0.003	0.744	0.003	0.255	
333.15	0.259	0.71	0.004	0.706	0.004	0.293	

System: glycerol + ethanol + methyl tetradecanoate; phases: Liquid mixture 2, Liquid mixture 1
Fixed: Pressure, kPa = 101
Property: Mole fraction of glycerol (Liquid mixture 2); method: Chromatography
Property: Mole fraction of ethanol (Liquid mixture 1); method: Chromatography
Property: Mole fraction of methyl tetradecanoate (Liquid mixture 1); method: Chromatography
Temperature, K	Mole fraction of ethanol	Mole fraction of glycerol	uncertainty	Mole fraction of ethanol	uncertainty	Mole fraction of methyl tetradecanoate	uncertainty
318.15	0.223	0.777	0.003	0.203	0.003	0.784	
318.15	0.319	0.681	0.004	0.296	0.003	0.684	
318.15	0.409	0.59	0.004	0.385	0.004	0.589	
318.15	0.473	0.525	0.004	0.46	0.004	0.509	
318.15	0.517	0.479	0.004	0.516	0.004	0.45	
318.15	0.558	0.438	0.004	0.562	0.004	0.399	
333.15	0.191	0.809	0.003	0.182	0.003	0.806	
333.15	0.263	0.737	0.003	0.253	0.003	0.732	
333.15	0.308	0.691	0.004	0.305	0.004	0.678	
333.15	0.361	0.638	0.004	0.361	0.004	0.62	
333.15	0.419	0.58	0.004	0.42	0.004	0.553	
333.15	0.459	0.539	0.004	0.468	0.004	0.504	
