Measured thermophysical data. Experimental and Predicted Vapor-Liquid Equilibrium for Diisopropanolamine with m-Cresol and 2,6-Dimethylphenol at 20.0 kPa
Source: J. Chem. Eng. Data, 2018, 10.1021/acs.jced.7b00827
Compound 1: water, H2O, InChI=1S/H2O/h1H2
Compound 2: ethanol, C2H6O, InChI=1S/C2H6O/c1-2-3/h3H,2H2,1H3, purity 99.7%
Compound 3: 3-methylphenol, C7H8O, InChI=1S/C7H8O/c1-6-3-2-4-7(8)5-6/h2-5,8H,1H3, purity 99%
Compound 4: N-(2-hydroxypropyl)-2-hydroxy-1-propanamine, C6H15NO2, InChI=1S/C6H15NO2/c1-5(8)3-7-4-6(2)9/h5-9H,3-4H2,1-2H3, purity 99%
Compound 5: 2,6-dimethylphenol, C8H10O, InChI=1S/C8H10O/c1-6-4-3-5-7(2)8(6)9/h3-5,9H,1-2H3, purity 99%

System: water; phases: Liquid, Gas
Property: Vapor or sublimation pressure, kPa (Liquid); method: Ebulliometric method (Recirculating still)
Temperature, K	Vapor or sublimation pressure, kPa	uncertainty
373.05	101.3	0.5

System: ethanol; phases: Liquid, Gas
Property: Vapor or sublimation pressure, kPa (Liquid); method: Ebulliometric method (Recirculating still)
Temperature, K	Vapor or sublimation pressure, kPa	uncertainty
351.38	101.3	0.5

System: 3-methylphenol; phases: Liquid, Gas
Property: Normal boiling temperature, K (Liquid); method: Ebulliometric method (Recirculating still)
Normal boiling temperature, K	uncertainty
475.35	1

System: 3-methylphenol; phases: Liquid
Fixed: Pressure, kPa = 101.325
Property: Refractive index (Na D-line) (Liquid); method: Standard Abbe refractometry
Temperature, K	Refractive index (Na D-line)	uncertainty
293.15	1.5396	0.0008
298.15	1.5374	0.0008

System: 3-methylphenol; phases: Liquid, Gas
Property: Vapor or sublimation pressure, kPa (Liquid); method: Ebulliometric method (Recirculating still)
Temperature, K	Vapor or sublimation pressure, kPa	uncertainty
422.28	20	0.2

System: N-(2-hydroxypropyl)-2-hydroxy-1-propanamine; phases: Liquid, Gas
Property: Normal boiling temperature, K (Liquid); method: Ebulliometric method (Recirculating still)
Normal boiling temperature, K	uncertainty
522.3	1

System: N-(2-hydroxypropyl)-2-hydroxy-1-propanamine; phases: Liquid
Property: Refractive index (Na D-line) (Liquid); method: Standard Abbe refractometry
Temperature, K	Pressure, kPa	Refractive index (Na D-line)	uncertainty
294.15	101.325	1.4625	0.0008

System: N-(2-hydroxypropyl)-2-hydroxy-1-propanamine; phases: Liquid, Gas
Property: Vapor or sublimation pressure, kPa (Liquid); method: Ebulliometric method (Recirculating still)
Temperature, K	Vapor or sublimation pressure, kPa	uncertainty
468.25	20	0.2

System: 2,6-dimethylphenol; phases: Liquid, Gas
Property: Normal boiling temperature, K (Liquid); method: Ebulliometric method (Recirculating still)
Normal boiling temperature, K	uncertainty
474.35	1

System: 2,6-dimethylphenol; phases: Metastable liquid
Fixed: Pressure, kPa = 101.325
Property: Refractive index (Na D-line) (Metastable liquid); method: Standard Abbe refractometry
Temperature, K	Refractive index (Na D-line)	uncertainty
293.15	1.5075	0.0008
298.15	1.5053	0.0008

System: 2,6-dimethylphenol; phases: Liquid, Gas
Property: Vapor or sublimation pressure, kPa (Liquid); method: Ebulliometric method (Recirculating still)
Temperature, K	Vapor or sublimation pressure, kPa	uncertainty
418.21	20	0.2

System: ethanol + water; phases: Liquid, Gas
Property: Boiling temperature at pressure P, K (Liquid); method: Ebulliometric method (Recirculating still)
Mole fraction of ethanol	Pressure, kPa	Boiling temperature at pressure P, K	uncertainty
0	101.3	373.05	0.24
0.017	101.3	369.8	2.23
0.0287	101.3	366.62	1.51
0.0516	101.3	364.36	1.23
0.0655	101.3	362.07	0.87
0.1042	101.3	359.64	0.62
0.1355	101.3	358.07	0.37
0.2243	101.3	355.92	0.28
0.3695	101.3	353.95	0.43
0.4924	101.3	353.24	0.23
0.6529	101.3	352.45	0.26
1	101.3	351.38	0.13
0.0106	19.71	331.65	1.7
0.0244	19.71	329.31	1.5
0.0454	19.71	326.42	1.06
0.0702	19.71	324.48	0.69
0.0958	19.71	323.04	0.59
0.1153	19.71	321.9	0.56
0.1482	19.71	320.21	0.28
0.2426	19.71	318.62	0.18
0.4449	19.71	316.65	0.17

System: ethanol + water; phases: Gas, Liquid
Property: Mole fraction of ethanol (Gas); method: Chromatography
Mole fraction of ethanol	Pressure, kPa	Mole fraction of ethanol	uncertainty
0	101.3	0	
0.017	101.3	0.1543	0.092
0.0287	101.3	0.2627	0.0401
0.0516	101.3	0.3008	0.0314
0.0655	101.3	0.377	0.0269
0.1042	101.3	0.4424	0.0188
0.1355	101.3	0.4846	0.0139
0.2243	101.3	0.5504	0.0119
0.3695	101.3	0.6052	0.0169
0.4924	101.3	0.6473	0.0113
0.6529	101.3	0.7212	0.0144
1	101.3	1	
0.0106	19.71	0.0661	0.0661
0.0244	19.71	0.1675	0.0602
0.0454	19.71	0.2752	0.0433
0.0702	19.71	0.3613	0.0297
0.0958	19.71	0.4153	0.0264
0.1153	19.71	0.4709	0.0217
0.1482	19.71	0.5167	0.0133
0.2426	19.71	0.5745	0.0116
0.4449	19.71	0.6568	0.0112

System: 3-methylphenol + N-(2-hydroxypropyl)-2-hydroxy-1-propanamine; phases: Liquid, Gas
Fixed: Pressure, kPa = 20
Property: Boiling temperature at pressure P, K (Liquid); method: Ebulliometric method (Recirculating still)
Mole fraction of 3-methylphenol	Boiling temperature at pressure P, K	uncertainty
1	422.28	0.21
0.9594	423.66	0.4
0.9344	424.57	0.43
0.8969	426.04	0.42
0.8756	426.73	0.42
0.8523	427.67	0.39
0.7965	429.36	0.42
0.769	430.78	0.51
0.7388	432.07	0.51
0.7075	433.64	0.51
0.6679	435.36	0.45
0.6403	436.28	0.5
0.5566	440.37	0.57
0.5315	442.27	0.58
0.464	445.56	1.07
0.4489	447.15	0.56
0.3928	449.56	0.58
0.3324	453.46	0.57
0.2675	456.27	0.57
0.2351	458.82	0.62
0.2019	460.09	0.45
0.1593	461.87	0.57
0.1096	465.01	0.48
0.0538	466.45	0.36
0	468.25	0.21

System: 3-methylphenol + N-(2-hydroxypropyl)-2-hydroxy-1-propanamine; phases: Gas, Liquid
Fixed: Pressure, kPa = 20
Property: Mole fraction of 3-methylphenol (Gas); method: Chromatography
Mole fraction of 3-methylphenol	Mole fraction of 3-methylphenol	uncertainty
1	1	
0.9594	0.9968	0.0032
0.9344	0.995	0.005
0.8969	0.9908	0.0092
0.8756	0.9894	0.0101
0.8523	0.9851	0.0101
0.7965	0.9758	0.0102
0.769	0.9698	0.0103
0.7388	0.963	0.0103
0.7075	0.9539	0.0105
0.6679	0.9405	0.0107
0.6403	0.9296	0.0112
0.5566	0.8863	0.0116
0.5315	0.8661	0.0128
0.464	0.8144	0.0223
0.4489	0.7845	0.0147
0.3928	0.7358	0.0158
0.3324	0.6479	0.0186
0.2675	0.5475	0.0202
0.2351	0.4821	0.0211
0.2019	0.4302	0.0224
0.1593	0.3354	0.0231
0.1096	0.2403	0.0231
0.0538	0.1169	0.0241
0	0	

System: 2,6-dimethylphenol + N-(2-hydroxypropyl)-2-hydroxy-1-propanamine; phases: Liquid, Gas
Fixed: Pressure, kPa = 20
Property: Boiling temperature at pressure P, K (Liquid); method: Ebulliometric method (Recirculating still)
Mole fraction of 2,6-dimethylphenol	Boiling temperature at pressure P, K	uncertainty
1	418.21	0.21
0.9424	419.85	0.36
0.8549	422.43	0.36
0.8537	422.45	0.36
0.7857	424.45	0.39
0.7801	424.53	0.39
0.7134	427.16	0.42
0.6502	429.28	0.34
0.6009	430.12	0.35
0.5885	431.25	0.93
0.5342	432.66	0.38
0.4831	434.64	0.44
0.4297	436.77	0.48
0.3655	439.73	0.53
0.3265	441.85	0.63
0.2495	446.54	0.63
0.215	448.52	0.64
0.1488	452.65	1.02
0.1345	454.08	1.1
0.1138	456.43	0.88
0.094	457.52	0.98
0.0738	460.24	1.21
0.0601	461.53	0.82
0.0471	462.35	1.17
0	468.25	0.21

System: 2,6-dimethylphenol + N-(2-hydroxypropyl)-2-hydroxy-1-propanamine; phases: Gas, Liquid
Fixed: Pressure, kPa = 20
Property: Mole fraction of 2,6-dimethylphenol (Gas); method: Chromatography
Mole fraction of 2,6-dimethylphenol	Mole fraction of 2,6-dimethylphenol	uncertainty
1	1	
0.9424	0.9912	0.0088
0.8549	0.9755	0.0102
0.8537	0.9754	0.0102
0.7857	0.9607	0.0103
0.7801	0.9602	0.0103
0.7134	0.9428	0.0105
0.6502	0.9224	0.0106
0.6009	0.9053	0.0107
0.5885	0.9011	0.0107
0.5342	0.8798	0.0111
0.4831	0.8545	0.0115
0.4297	0.8244	0.012
0.3655	0.7826	0.0127
0.3265	0.7498	0.0143
0.2495	0.6713	0.0155
0.215	0.6239	0.0195
0.1488	0.5103	0.0234
0.1345	0.4811	0.0247
0.1138	0.4338	0.0273
0.094	0.3797	0.0311
0.0738	0.3172	0.0336
0.0601	0.2711	0.0373
0.0471	0.2215	0.0467
0	0	
