Measured thermophysical data. Solubility of N-tert-Butylbenzothiazole-2-sulfenamide in Several Pure and Binary Solvents
Source: J. Chem. Eng. Data, 2019, 10.1021/acs.jced.8b00954
Compound 1: N-tert-butylbenzothiazole-2-sulphenamide, C11H14N2S2, InChI=1S/C11H14N2S2/c1-11(2,3)13-15-10-12-8-6-4-5-7-9(8)14-10/h4-7,13H,1-3H3, purity 99%
Compound 2: methanol, CH4O, InChI=1S/CH4O/c1-2/h2H,1H3, purity 99.5%
Compound 3: ethanol, C2H6O, InChI=1S/C2H6O/c1-2-3/h3H,2H2,1H3, purity 99.5%
Compound 4: toluene, C7H8, InChI=1S/C7H8/c1-7-5-3-2-4-6-7/h2-6H,1H3, purity 99.5%
Compound 5: propan-2-ol, C3H8O, InChI=1S/C3H8O/c1-3(2)4/h3-4H,1-2H3, purity 99.5%
Compound 6: butan-1-ol, C4H10O, InChI=1S/C4H10O/c1-2-3-4-5/h5H,2-4H2,1H3, purity 99.5%
Compound 7: 2-methyl-2-propanamine, C4H11N, InChI=1S/C4H11N/c1-4(2,3)5/h5H2,1-3H3, purity 99%
Compound 8: water, H2O, InChI=1S/H2O/h1H2, purity 99.9%
Compound 9: 2,2'-dimethyl-2,2'-azodipropionitrile, C8H12N4, InChI=1S/C8H12N4/c1-7(2,5-9)11-12-8(3,4)6-10/h1-4H3, purity 99%

System: N-tert-butylbenzothiazole-2-sulphenamide; phases: Crystal, Liquid, Air at 1 atmosphere
Property: Normal melting temperature, K (Crystal); method: DTA
Normal melting temperature, K	uncertainty
382.45	0.7

System: N-tert-butylbenzothiazole-2-sulphenamide; phases: Crystal, Liquid, Air at 1 atmosphere
Property: Molar enthalpy of transition or fusion, kJ/mol (Crystal); method: DSC
Molar enthalpy of transition or fusion, kJ/mol	uncertainty
26.84	0.6

System: N-tert-butylbenzothiazole-2-sulphenamide + methanol; phases: Liquid, Crystal
Fixed: Pressure, kPa = 101
Property: Mole fraction of N-tert-butylbenzothiazole-2-sulphenamide (Liquid); method: gravimetric
Temperature, K	Mole fraction of N-tert-butylbenzothiazole-2-sulphenamide	uncertainty
273.2	0.00591	0.00154
278.2	0.00707	0.00184
283.2	0.00834	0.00217
288.2	0.00991	0.00258
293.2	0.0123	0.0032
298.2	0.0148	0.0039
303.2	0.0178	0.0046
308.2	0.0219	0.0057
313.2	0.0266	0.0069

System: N-tert-butylbenzothiazole-2-sulphenamide + ethanol; phases: Liquid, Crystal
Fixed: Pressure, kPa = 101
Property: Mole fraction of N-tert-butylbenzothiazole-2-sulphenamide (Liquid); method: gravimetric
Temperature, K	Mole fraction of N-tert-butylbenzothiazole-2-sulphenamide	uncertainty
273.2	0.00951	0.00247
278.2	0.0111	0.0029
283.2	0.0133	0.0035
288.2	0.0157	0.0041
293.2	0.0198	0.0052
298.2	0.0236	0.0061
303.2	0.0278	0.0072
308.2	0.0344	0.0089
313.2	0.0419	0.0109

System: N-tert-butylbenzothiazole-2-sulphenamide + toluene; phases: Liquid, Crystal
Fixed: Pressure, kPa = 101
Property: Mole fraction of N-tert-butylbenzothiazole-2-sulphenamide (Liquid); method: gravimetric
Temperature, K	Mole fraction of N-tert-butylbenzothiazole-2-sulphenamide	uncertainty
273.2	0.0273	0.0071
278.2	0.0355	0.0092
283.2	0.0422	0.011
288.2	0.0518	0.0135
293.2	0.0605	0.0157
298.2	0.0691	0.018
303.2	0.084	0.0219
308.2	0.102	0.027
313.2	0.122	0.032

System: N-tert-butylbenzothiazole-2-sulphenamide + propan-2-ol; phases: Liquid, Crystal
Fixed: Pressure, kPa = 101
Property: Mole fraction of N-tert-butylbenzothiazole-2-sulphenamide (Liquid); method: gravimetric
Temperature, K	Mole fraction of N-tert-butylbenzothiazole-2-sulphenamide	uncertainty
273.2	0.00844	0.00219
278.2	0.00938	0.00244
283.2	0.0122	0.0032
288.2	0.015	0.0039
293.2	0.0176	0.0046
298.2	0.0208	0.0054
303.2	0.025	0.0065
308.2	0.0298	0.0078
313.2	0.0352	0.0092

System: N-tert-butylbenzothiazole-2-sulphenamide + butan-1-ol; phases: Liquid, Crystal
Fixed: Pressure, kPa = 101
Property: Mole fraction of N-tert-butylbenzothiazole-2-sulphenamide (Liquid); method: gravimetric
Temperature, K	Mole fraction of N-tert-butylbenzothiazole-2-sulphenamide	uncertainty
273.2	0.0177	0.0046
278.2	0.0202	0.0053
283.2	0.0237	0.0062
288.2	0.028	0.0073
293.2	0.0325	0.0085
298.2	0.0375	0.0098
303.2	0.0444	0.0115
308.2	0.0524	0.0136
313.2	0.061	0.0159

System: N-tert-butylbenzothiazole-2-sulphenamide + 2-methyl-2-propanamine; phases: Liquid, Crystal
Fixed: Pressure, kPa = 101
Property: Mole fraction of N-tert-butylbenzothiazole-2-sulphenamide (Liquid); method: gravimetric
Temperature, K	Mole fraction of N-tert-butylbenzothiazole-2-sulphenamide	uncertainty
273.2	0.0952	0.0248
278.2	0.107	0.028
283.2	0.115	0.03
288.2	0.124	0.032
293.2	0.135	0.035
298.2	0.149	0.039
303.2	0.165	0.043
308.2	0.176	0.046
313.2	0.198	0.051

System: N-tert-butylbenzothiazole-2-sulphenamide + 2-methyl-2-propanamine; phases: Liquid, Crystal
Property: Solid-liquid equilibrium temperature, K (Liquid); method: VISOBS
Pressure, kPa	Mole fraction of N-tert-butylbenzothiazole-2-sulphenamide	Solid-liquid equilibrium temperature, K	uncertainty
156	0.2166	320	1.3
164	0.2438	325.2	0.4
183	0.2859	332.3	0.9
191	0.3076	335.2	0.8
202	0.3377	338.8	0.7
213	0.3691	342.7	0.8

System: N-tert-butylbenzothiazole-2-sulphenamide + methanol + water; phases: Liquid, Crystal
Fixed: Pressure, kPa = 101
Property: Mole fraction of N-tert-butylbenzothiazole-2-sulphenamide (Liquid); method: gravimetric
Solvent: Mole fraction of methanol	Temperature, K	Mole fraction of N-tert-butylbenzothiazole-2-sulphenamide	uncertainty
0.4	273.2	2.61e-05	1.07e-05
0.4	278.2	3.96e-05	1.57e-05
0.4	283.2	6.6e-05	2.4e-05
0.4	288.2	0.000121	3.7e-05
0.4	293.2	0.000222	6.4e-05
0.4	298.2	0.000399	0.00011
0.4	303.2	0.00067	0.00018
0.4	308.2	0.00112	0.00029
0.4	313.2	0.00183	0.00048
0.5	273.2	0.000129	3.6e-05
0.5	278.2	0.000191	5.3e-05
0.5	283.2	0.000284	7.7e-05
0.5	288.2	0.000388	0.000106
0.5	293.2	0.000598	0.000162
0.5	298.2	0.000883	0.000237
0.5	303.2	0.00124	0.00033
0.5	308.2	0.00159	0.00043
0.5	313.2	0.00224	0.0006
0.6	273.2	0.00031	8.3e-05
0.6	278.2	0.000389	0.000105
0.6	283.2	0.000515	0.00014
0.6	288.2	0.000744	0.000202
0.6	293.2	0.0011	0.00029
0.6	298.2	0.00154	0.00041
0.6	303.2	0.00213	0.00056
0.6	308.2	0.00307	0.00081
0.6	313.2	0.00464	0.00122
0.7	273.2	0.000651	0.000174
0.7	278.2	0.000923	0.000246
0.7	283.2	0.00129	0.00034
0.7	288.2	0.00177	0.00047
0.7	293.2	0.0021	0.00055
0.7	298.2	0.00277	0.00073
0.7	303.2	0.00375	0.00098
0.7	308.2	0.00514	0.00135
0.7	313.2	0.00673	0.00176
0.8	273.2	0.00163	0.00043
0.8	278.2	0.00218	0.00057
0.8	283.2	0.00288	0.00075
0.8	288.2	0.00346	0.0009
0.8	293.2	0.00412	0.00108
0.8	298.2	0.00516	0.00135
0.8	303.2	0.00644	0.00168
0.8	308.2	0.00804	0.0021
0.8	313.2	0.0107	0.0028
0.9	273.2	0.00356	0.00093
0.9	278.2	0.00439	0.00114
0.9	283.2	0.00482	0.00125
0.9	288.2	0.00574	0.00149
0.9	293.2	0.00694	0.00181
0.9	298.2	0.00829	0.00216
0.9	303.2	0.0102	0.0027
0.9	308.2	0.0131	0.0034
0.9	313.2	0.0166	0.0043
1	273.2	0.00591	0.00154
1	278.2	0.00707	0.00184
1	283.2	0.00834	0.00217
1	288.2	0.00991	0.00258
1	293.2	0.0123	0.0032
1	298.2	0.0148	0.0039
1	303.2	0.0178	0.0046
1	308.2	0.0219	0.0057
1	313.2	0.0266	0.0069

System: N-tert-butylbenzothiazole-2-sulphenamide + ethanol + water; phases: Liquid, Crystal
Fixed: Pressure, kPa = 101
Property: Mole fraction of N-tert-butylbenzothiazole-2-sulphenamide (Liquid); method: gravimetric
Solvent: Mole fraction of ethanol	Temperature, K	Mole fraction of N-tert-butylbenzothiazole-2-sulphenamide	uncertainty
0.4	273.2	0.000344	0.000113
0.4	278.2	0.000457	0.000144
0.4	283.2	0.000629	0.000183
0.4	288.2	0.000841	0.000238
0.4	293.2	0.00112	0.00031
0.4	298.2	0.00154	0.00042
0.4	303.2	0.00213	0.00057
0.4	308.2	0.00288	0.00077
0.4	313.2	0.00434	0.00115
0.5	273.2	0.0012	0.00033
0.5	278.2	0.0015	0.00041
0.5	283.2	0.00166	0.00045
0.5	288.2	0.00202	0.00054
0.5	293.2	0.00246	0.00066
0.5	298.2	0.00323	0.00086
0.5	303.2	0.00396	0.00105
0.5	308.2	0.00506	0.00134
0.5	313.2	0.00688	0.00181
0.6	273.2	0.00223	0.00058
0.6	278.2	0.00274	0.00072
0.6	283.2	0.00311	0.00081
0.6	288.2	0.00358	0.00094
0.6	293.2	0.00397	0.00104
0.6	298.2	0.00543	0.00142
0.6	303.2	0.00615	0.00162
0.6	308.2	0.00771	0.00203
0.6	313.2	0.00962	0.00253
0.7	273.2	0.00287	0.00075
0.7	278.2	0.00358	0.00094
0.7	283.2	0.0041	0.00108
0.7	288.2	0.00509	0.00133
0.7	293.2	0.00605	0.00158
0.7	298.2	0.00765	0.002
0.7	303.2	0.00993	0.0026
0.7	308.2	0.0125	0.0033
0.7	313.2	0.0164	0.0043
0.8	273.2	0.00571	0.00149
0.8	278.2	0.00678	0.00177
0.8	283.2	0.00779	0.00203
0.8	288.2	0.00896	0.00233
0.8	293.2	0.00996	0.0026
0.8	298.2	0.0115	0.003
0.8	303.2	0.0146	0.0038
0.8	308.2	0.0192	0.005
0.8	313.2	0.0213	0.0055
0.9	273.2	0.00711	0.00185
0.9	278.2	0.00949	0.00247
0.9	283.2	0.0109	0.0028
0.9	288.2	0.0122	0.0032
0.9	293.2	0.0145	0.0038
0.9	298.2	0.0152	0.004
0.9	303.2	0.0208	0.0054
0.9	308.2	0.0214	0.0056
0.9	313.2	0.0245	0.0064
1	273.2	0.00951	0.00247
1	278.2	0.0111	0.0029
1	283.2	0.0133	0.0035
1	288.2	0.0157	0.0041
1	293.2	0.0198	0.0052
1	298.2	0.0236	0.0061
1	303.2	0.0278	0.0072
1	308.2	0.0344	0.0089
1	313.2	0.0419	0.0109

System: N-tert-butylbenzothiazole-2-sulphenamide + 2-methyl-2-propanamine + water; phases: Liquid, Crystal
Fixed: Pressure, kPa = 101
Property: Mole fraction of N-tert-butylbenzothiazole-2-sulphenamide (Liquid); method: gravimetric
Solvent: Mole fraction of 2-methyl-2-propanamine	Temperature, K	Mole fraction of N-tert-butylbenzothiazole-2-sulphenamide	uncertainty
0.4	273.2	0.00637	0.00173
0.4	278.2	0.00728	0.002
0.4	283.2	0.00849	0.00232
0.4	288.2	0.00993	0.0027
0.4	293.2	0.0119	0.0032
0.4	298.2	0.0138	0.0038
0.4	303.2	0.0168	0.0045
0.4	308.2	0.0198	0.0053
0.4	313.2	0.0237	0.0064
0.5	273.2	0.0128	0.0034
0.5	278.2	0.0153	0.0041
0.5	283.2	0.0174	0.0047
0.5	288.2	0.0201	0.0054
0.5	293.2	0.0236	0.0063
0.5	298.2	0.0279	0.0075
0.5	303.2	0.0322	0.0086
0.5	308.2	0.0382	0.0102
0.5	313.2	0.0444	0.0118
0.6	273.2	0.0238	0.0063
0.6	278.2	0.0277	0.0073
0.6	283.2	0.0309	0.0081
0.6	288.2	0.0356	0.0094
0.6	293.2	0.0411	0.0108
0.6	298.2	0.0481	0.0126
0.6	303.2	0.0544	0.0143
0.6	308.2	0.0637	0.0167
0.6	313.2	0.0739	0.0194
0.7	273.2	0.0388	0.0101
0.7	278.2	0.043	0.0112
0.7	283.2	0.0492	0.0128
0.7	288.2	0.0546	0.0143
0.7	293.2	0.0624	0.0163
0.7	298.2	0.0747	0.0195
0.7	303.2	0.0826	0.0215
0.7	308.2	0.0943	0.0246
0.7	313.2	0.107	0.028
0.8	273.2	0.0572	0.0149
0.8	278.2	0.0628	0.0164
0.8	283.2	0.0705	0.0184
0.8	288.2	0.0777	0.0202
0.8	293.2	0.0876	0.0228
0.8	298.2	0.103	0.027
0.8	303.2	0.111	0.029
0.8	308.2	0.125	0.033
0.8	313.2	0.141	0.037
0.9	273.2	0.0756	0.0197
0.9	278.2	0.0833	0.0217
0.9	283.2	0.0904	0.0235
0.9	288.2	0.0989	0.0257
0.9	293.2	0.111	0.029
0.9	298.2	0.123	0.032
0.9	303.2	0.136	0.035
0.9	308.2	0.152	0.04
0.9	313.2	0.171	0.044
1	273.2	0.0952	0.0248
1	278.2	0.107	0.028
1	283.2	0.115	0.03
1	288.2	0.124	0.032
1	293.2	0.135	0.035
1	298.2	0.149	0.039
1	303.2	0.165	0.043
1	308.2	0.176	0.046
1	313.2	0.198	0.051

System: 2,2'-dimethyl-2,2'-azodipropionitrile + ethanol; phases: Liquid, Crystal
Fixed: Pressure, kPa = 101
Property: Mole fraction of 2,2'-dimethyl-2,2'-azodipropionitrile (Liquid); method: gravimetric
Temperature, K	Mole fraction of 2,2'-dimethyl-2,2'-azodipropionitrile	uncertainty
278.6	0.00272	0.000708
284.4	0.003901	0.001015
289	0.005288	0.001376
293.2	0.006612	0.001722
297.9	0.00954	0.002484
303	0.01272	0.00331
307.7	0.01621	0.00422
312.6	0.02259	0.00588
