Measured thermophysical data. Measurement and Prediction of Hydrocarbon Dew Points of Synthetic Natural Gas Mixtures
Source: J. Chem. Eng. Data, 2018, 10.1021/acs.jced.8b00706
Compound 1: methane, CH4, InChI=1S/CH4/h1H4, purity 99.99%
Compound 2: ethane, C2H6, InChI=1S/C2H6/c1-2/h1-2H3, purity 99.99%
Compound 3: pentane, C5H12, InChI=1S/C5H12/c1-3-5-4-2/h3-5H2,1-2H3, purity 99.99%

System: methane + ethane + pentane; phases: Gas, Liquid
Fixed: Mole fraction of methane = 0.94085
Fixed: Mole fraction of ethane = 0.04468
Property: Vapor or sublimation pressure, kPa (Gas); method: Closed cell (Static) method
Temperature, K	Vapor or sublimation pressure, kPa	uncertainty
266.1	7051	472
268.3	5590	153
268	4513	146
266.4	3534	469
262.8	2662	29
255.9	1554	21
