Measured thermophysical data. Phase Equilibrium of Fats and Monoterpenes and How It Affects Chocolate Quality
Source: J. Chem. Eng. Data, 2019, 10.1021/acs.jced.8b01200
Compound 1: L-menthol, C10H20O, InChI=1S/C10H20O/c1-7(2)9-5-4-8(3)6-10(9)11/h7-11H,4-6H2,1-3H3/t8-,9+,10-/m1/s1, purity 99.7%
Compound 2: 3-methyl-6-isopropylphenol, C10H14O, InChI=1S/C10H14O/c1-7(2)9-5-4-8(3)6-10(9)11/h4-7,11H,1-3H3, purity 99.5%
Compound 3: 1,2,3-propanetriyl tri(tetradecanoate), C45H86O6, InChI=1S/C45H86O6/c1-4-7-10-13-16-19-22-25-28-31-34-37-43(46)49-40-42(51-45(48)39-36-33-30-27-24-21-18-15-12-9-6-3)41-50-44(47)38-35-32-29-26-23-20-17-14-11-8-5-2/h42H,4-41H2,1-3H3, purity 99%
Compound 4: 1,2,3-propanetriyl tri(hexadecanoate), C51H98O6, InChI=1S/C51H98O6/c1-4-7-10-13-16-19-22-25-28-31-34-37-40-43-49(52)55-46-48(57-51(54)45-42-39-36-33-30-27-24-21-18-15-12-9-6-3)47-56-50(53)44-41-38-35-32-29-26-23-20-17-14-11-8-5-2/h48H,4-47H2,1-3H3, purity 99%
Compound 5: glycerol trioctadecanoate, C57H110O6, InChI=1S/C57H110O6/c1-4-7-10-13-16-19-22-25-28-31-34-37-40-43-46-49-55(58)61-52-54(63-57(60)51-48-45-42-39-36-33-30-27-24-21-18-15-12-9-6-3)53-62-56(59)50-47-44-41-38-35-32-29-26-23-20-17-14-11-8-5-2/h54H,4-53H2,1-3H3, purity 99%

System: L-menthol; phases: Crystal, Liquid, Air at 1 atmosphere
Property: Triple point temperature, K (Crystal); method: DSC
Triple point temperature, K	uncertainty
314.4	2.43

System: L-menthol; phases: Crystal, Liquid, Air at 1 atmosphere
Property: Molar enthalpy of transition or fusion, kJ/mol (Crystal); method: DSC
Molar enthalpy of transition or fusion, kJ/mol	uncertainty
11.93	1.93

System: 3-methyl-6-isopropylphenol; phases: Crystal, Liquid, Air at 1 atmosphere
Property: Triple point temperature, K (Crystal); method: DSC
Triple point temperature, K	uncertainty
321.9	1.39

System: 3-methyl-6-isopropylphenol; phases: Crystal, Liquid, Air at 1 atmosphere
Property: Molar enthalpy of transition or fusion, kJ/mol (Crystal); method: DSC
Molar enthalpy of transition or fusion, kJ/mol	uncertainty
13.03	2.11

System: 1,2,3-propanetriyl tri(tetradecanoate); phases: Crystal, Liquid, Air at 1 atmosphere
Property: Triple point temperature, K (Crystal); method: DSC
Triple point temperature, K	uncertainty
329.4	1.39

System: 1,2,3-propanetriyl tri(tetradecanoate); phases: Crystal, Liquid, Air at 1 atmosphere
Property: Molar enthalpy of transition or fusion, kJ/mol (Crystal); method: DSC
Molar enthalpy of transition or fusion, kJ/mol	uncertainty
144.48	3.07

System: 1,2,3-propanetriyl tri(hexadecanoate); phases: Crystal, Liquid, Air at 1 atmosphere
Property: Triple point temperature, K (Crystal); method: DSC
Triple point temperature, K	uncertainty
336.8	1.39

System: 1,2,3-propanetriyl tri(hexadecanoate); phases: Crystal, Liquid, Air at 1 atmosphere
Property: Molar enthalpy of transition or fusion, kJ/mol (Crystal); method: DSC
Molar enthalpy of transition or fusion, kJ/mol	uncertainty
158.67	3.29

System: glycerol trioctadecanoate; phases: Crystal, Liquid, Air at 1 atmosphere
Property: Triple point temperature, K (Crystal); method: DSC
Triple point temperature, K	uncertainty
343.8	1.39

System: glycerol trioctadecanoate; phases: Crystal, Liquid, Air at 1 atmosphere
Property: Molar enthalpy of transition or fusion, kJ/mol (Crystal); method: DSC
Molar enthalpy of transition or fusion, kJ/mol	uncertainty
184.17	3.69

System: L-menthol + 1,2,3-propanetriyl tri(tetradecanoate); phases: Crystal, Crystal, Liquid, Air at 1 atmosphere
Property: Eutectic temperature, K (Crystal); method: DTA
Eutectic temperature, K	uncertainty
311.84	2.35

System: L-menthol + 1,2,3-propanetriyl tri(tetradecanoate); phases: Liquid, Crystal
Fixed: Pressure, kPa = 94.6
Property: Solid-liquid equilibrium temperature, K (Liquid); method: DTA
Mole fraction of L-menthol	Solid-liquid equilibrium temperature, K	uncertainty
0.107	328.65	1.25
0.203	328.7	1.25
0.303	327.99	1.25
0.395	327.21	1.25
0.501	326.33	1.26
0.602	325.11	1.27
0.697	322.5	1.27
0.799	320.62	1.28
0.9	316.75	1.31

System: L-menthol + 1,2,3-propanetriyl tri(hexadecanoate); phases: Crystal, Crystal, Liquid, Air at 1 atmosphere
Property: Eutectic temperature, K (Crystal); method: DTA
Eutectic temperature, K	uncertainty
313.83	2.35

System: L-menthol + 1,2,3-propanetriyl tri(hexadecanoate); phases: Liquid, Crystal
Fixed: Pressure, kPa = 94.6
Property: Solid-liquid equilibrium temperature, K (Liquid); method: DTA
Mole fraction of L-menthol	Solid-liquid equilibrium temperature, K	uncertainty
0.126	337.57	2.35
0.204	336.59	2.35
0.304	335.74	2.35
0.411	335.46	2.35
0.503	334.03	2.35
0.599	332.7	2.35
0.74	331.34	2.35
0.8	329.4	2.37
0.9	325.84	2.37

System: L-menthol + glycerol trioctadecanoate; phases: Crystal, Crystal, Liquid, Air at 1 atmosphere
Property: Eutectic temperature, K (Crystal); method: DTA
Eutectic temperature, K	uncertainty
314.36	2.35

System: L-menthol + glycerol trioctadecanoate; phases: Liquid, Crystal
Fixed: Pressure, kPa = 94.6
Property: Solid-liquid equilibrium temperature, K (Liquid); method: DTA
Mole fraction of L-menthol	Solid-liquid equilibrium temperature, K	uncertainty
0.106	344.07	1.25
0.211	343.48	1.25
0.298	343.32	1.25
0.401	343.39	1.25
0.493	341.41	1.26
0.602	340.64	1.26
0.701	338.98	1.27
0.799	336.34	1.3
0.9	331.78	1.33

System: 3-methyl-6-isopropylphenol + 1,2,3-propanetriyl tri(hexadecanoate); phases: Crystal, Crystal, Liquid, Air at 1 atmosphere
Property: Eutectic temperature, K (Crystal); method: DTA
Eutectic temperature, K	uncertainty
312.6	2.35

System: 3-methyl-6-isopropylphenol + 1,2,3-propanetriyl tri(hexadecanoate); phases: Liquid, Crystal
Fixed: Pressure, kPa = 94.6
Property: Solid-liquid equilibrium temperature, K (Liquid); method: DTA
Mole fraction of 3-methyl-6-isopropylphenol	Solid-liquid equilibrium temperature, K	uncertainty
0.099	337.53	1.26
0.198	336.42	1.25
0.301	335.66	1.26
0.407	334.06	1.26
0.497	332.63	1.26
0.593	330.92	1.3
0.699	325.55	1.43
0.8	316.54	1.54

System: 3-methyl-6-isopropylphenol + 1,2,3-propanetriyl tri(hexadecanoate); phases: Liquid, Crystal
Property: Solid-liquid equilibrium temperature, K (Liquid); method: DTA
Mole fraction of 3-methyl-6-isopropylphenol	Pressure, kPa	Solid-liquid equilibrium temperature, K	uncertainty
0.898	94.6	313.44	1.25
