Measured thermophysical data. Effect of Solvents and Temperature on Interactions in Binary and Ternary Mixtures of 1-Butyl-3-methylimidazolium Trifluoromethanesulfonate with Acetonitrile or/and N,N-Dimethylformamide
Source: J. Chem. Eng. Data, 2018, 10.1021/acs.jced.8b00176
Compound 1: 1-butyl-3-methylimidazolium trifluoromethanesulfonate, C9H15F3N2O3S, InChI=1S/C8H15N2.CHF3O3S/c1-3-4-5-10-7-6-9(2)8-10;2-1(3,4)8(5,6)7/h6-8H,3-5H2,1-2H3;(H,5,6,7)/q+1;/p-1, purity 98%
Compound 2: acetonitrile, C2H3N, InChI=1S/C2H3N/c1-2-3/h1H3, purity 99%
Compound 3: dimethylformamide, C3H7NO, InChI=1S/C3H7NO/c1-4(2)3-5/h3H,1-2H3, purity 99%

System: 1-butyl-3-methylimidazolium trifluoromethanesulfonate; phases: Liquid
Fixed: Pressure, kPa = 100
Property: Mass density, kg/m3 (Liquid); method: Vibrating tube method
Temperature, K	Mass density, kg/m3	uncertainty
298.15	1297.462	2.427
303.15	1293.465	2.421
308.15	1289.467	2.416
313.15	1285.471	2.411
318.15	1281.473	2.406
323.15	1277.476	2.401

System: 1-butyl-3-methylimidazolium trifluoromethanesulfonate; phases: Liquid
Fixed: Pressure, kPa = 100
Fixed: Frequency, MHz = 3
Property: Speed of sound, m/s (Liquid); method: Single path-length method
Temperature, K	Speed of sound, m/s	uncertainty
298.15	1393.21	2.83
303.15	1382.79	2.83
308.15	1371.68	2.83
313.15	1360.73	2.83
318.15	1349.9	2.83
323.15	1338.78	2.83

System: 1-butyl-3-methylimidazolium trifluoromethanesulfonate; phases: Liquid
Fixed: Pressure, kPa = 100
Property: Viscosity, Pa*s (Liquid); method: Falling or rolling sphere viscometry
Temperature, K	Viscosity, Pa*s	uncertainty
323.15	0.03057	0.00088
318.15	0.03629	0.00092
313.15	0.04367	0.00096
308.15	0.05286	0.00096
303.15	0.06669	0.0012
298.15	0.08238	0.00171

System: acetonitrile; phases: Liquid
Fixed: Pressure, kPa = 100
Property: Mass density, kg/m3 (Liquid); method: Vibrating tube method
Temperature, K	Mass density, kg/m3	uncertainty
298.15	776.714	2.012
303.15	771.289	2.012
308.15	765.833	2.012
313.15	760.339	2.012
318.15	754.815	2.012
323.15	749.253	2.012

System: acetonitrile; phases: Liquid
Fixed: Pressure, kPa = 100
Fixed: Frequency, MHz = 3
Property: Speed of sound, m/s (Liquid); method: Single path-length method
Temperature, K	Speed of sound, m/s	uncertainty
298.15	1278.53	2.24
303.15	1258.37	2.24
308.15	1238.17	2.24
313.15	1218.03	2.24
318.15	1197.87	2.24
323.15	1177.76	2.24

System: acetonitrile; phases: Liquid
Fixed: Pressure, kPa = 100
Property: Viscosity, Pa*s (Liquid); method: Falling or rolling sphere viscometry
Temperature, K	Viscosity, Pa*s	uncertainty
323.15	0.00028	0.0002
318.15	0.00029	0.0002
313.15	0.0003	0.0002
308.15	0.00031	0.0002
303.15	0.00032	0.0002
298.15	0.00034	0.0002

System: dimethylformamide; phases: Liquid
Fixed: Pressure, kPa = 100
Property: Mass density, kg/m3 (Liquid); method: Vibrating tube method
Temperature, K	Mass density, kg/m3	uncertainty
298.15	943.934	2.011
303.15	939.162	2.011
308.15	934.373	2.011
313.15	929.577	2.011
318.15	924.765	2.011
323.15	919.95	2.011

System: dimethylformamide; phases: Liquid
Fixed: Pressure, kPa = 100
Fixed: Frequency, MHz = 3
Property: Speed of sound, m/s (Liquid); method: Single path-length method
Temperature, K	Speed of sound, m/s	uncertainty
298.15	1457.14	2.24
303.15	1437.81	2.24
308.15	1418.45	2.24
313.15	1399.15	2.24
318.15	1379.92	2.24
323.15	1360.74	2.24

System: dimethylformamide; phases: Liquid
Fixed: Pressure, kPa = 100
Property: Viscosity, Pa*s (Liquid); method: Falling or rolling sphere viscometry
Temperature, K	Viscosity, Pa*s	uncertainty
323.15	0.00062	0.0002
318.15	0.00065	0.0002
313.15	0.00069	0.0002
308.15	0.00072	0.0002
303.15	0.00077	0.0002
298.15	0.00081	0.0002

System: acetonitrile + 1-butyl-3-methylimidazolium trifluoromethanesulfonate; phases: Liquid
Fixed: Pressure, kPa = 100
Property: Mass density, kg/m3 (Liquid); method: Vibrating tube method
Temperature, K	Mole fraction of 1-butyl-3-methylimidazolium trifluoromethanesulfonate	Mass density, kg/m3	uncertainty
298.15	0	776.714	2.012
298.15	0.0911	958.58	2.038
298.15	0.2023	1074.818	2.039
298.15	0.3029	1137.118	2.058
298.15	0.3998	1179.002	2.086
298.15	0.4994	1211.159	2.121
298.15	0.5953	1234.144	2.162
298.15	0.7029	1255.852	2.217
298.15	0.8009	1271.775	2.277
298.15	0.9012	1285.588	2.347
298.15	1	1297.462	2.427
303.15	0	771.289	2.012
303.15	0.0911	954.576	2.035
303.15	0.2023	1070.411	2.038
303.15	0.3029	1132.764	2.058
303.15	0.3998	1174.936	2.085
303.15	0.4994	1207.101	2.119
303.15	0.5953	1230.077	2.16
303.15	0.7029	1251.972	2.214
303.15	0.8009	1267.966	2.273
303.15	0.9012	1281.578	2.343
303.15	1	1293.465	2.421
308.15	0	765.833	2.012
308.15	0.0911	949.838	2.035
308.15	0.2023	1066.005	2.037
308.15	0.3029	1128.522	2.057
308.15	0.3998	1170.953	2.083
308.15	0.4994	1202.787	2.118
308.15	0.5953	1225.985	2.157
308.15	0.7029	1247.896	2.212
308.15	0.8009	1264.185	2.27
308.15	0.9012	1277.726	2.338
308.15	1	1289.467	2.416
313.15	0	760.339	2.012
313.15	0.0911	944.8	2.035
313.15	0.2023	1061.342	2.037
313.15	0.3029	1124.168	2.056
313.15	0.3998	1166.711	2.082
313.15	0.4994	1198.747	2.116
313.15	0.5953	1221.914	2.155
313.15	0.7029	1243.952	2.209
313.15	0.8009	1260.125	2.266
313.15	0.9012	1273.98	2.335
313.15	1	1285.471	2.411
318.15	0	754.815	2.012
318.15	0.0911	939.614	2.036
318.15	0.2023	1057.104	2.036
318.15	0.3029	1120.049	2.055
318.15	0.3998	1162.771	2.081
318.15	0.4994	1194.471	2.114
318.15	0.5953	1217.75	2.153
318.15	0.7029	1240.121	2.206
318.15	0.8009	1256.166	2.263
318.15	0.9012	1270.02	2.33
318.15	1	1281.473	2.406
323.15	0	749.253	2.012
323.15	0.0911	934.671	2.042
323.15	0.2023	1052.928	2.037
323.15	0.3029	1115.711	2.054
323.15	0.3998	1158.497	2.079
323.15	0.4994	1190.694	2.112
323.15	0.5953	1213.778	2.151
323.15	0.7029	1236.143	2.203
323.15	0.8009	1252.288	2.26
323.15	0.9012	1266.173	2.326
323.15	1	1277.476	2.401

System: acetonitrile + 1-butyl-3-methylimidazolium trifluoromethanesulfonate; phases: Liquid
Fixed: Pressure, kPa = 100
Fixed: Frequency, MHz = 3
Property: Speed of sound, m/s (Liquid); method: Single path-length method
Temperature, K	Mole fraction of 1-butyl-3-methylimidazolium trifluoromethanesulfonate	Speed of sound, m/s	uncertainty
298.15	0	1278.53	2.24
298.15	0.0911	1306.25	2.28
298.15	0.2023	1330.84	2.34
298.15	0.3029	1347.19	2.39
298.15	0.3998	1359.4	2.44
298.15	0.4994	1368.6	2.5
298.15	0.5953	1375.64	2.56
298.15	0.7029	1382.49	2.63
298.15	0.8009	1386.57	2.69
298.15	0.9012	1389.81	2.76
298.15	1	1393.21	2.83
303.15	0	1258.37	2.24
303.15	0.0911	1289.17	2.28
303.15	0.2023	1315.64	2.34
303.15	0.3029	1332.96	2.39
303.15	0.3998	1346.07	2.44
303.15	0.4994	1355.73	2.5
303.15	0.5953	1363.1	2.56
303.15	0.7029	1370.57	2.63
303.15	0.8009	1374.87	2.69
303.15	0.9012	1378.39	2.76
303.15	1	1382.79	2.83
308.15	0	1238.17	2.24
308.15	0.0911	1272.13	2.28
308.15	0.2023	1300.56	2.34
308.15	0.3029	1318.83	2.39
308.15	0.3998	1332.8	2.44
308.15	0.4994	1342.99	2.5
308.15	0.5953	1350.71	2.56
308.15	0.7029	1358.77	2.63
308.15	0.8009	1363.36	2.69
308.15	0.9012	1367.03	2.76
308.15	1	1371.68	2.83
313.15	0	1218.03	2.24
313.15	0.0911	1255.07	2.28
313.15	0.2023	1285.49	2.34
313.15	0.3029	1304.76	2.39
313.15	0.3998	1319.56	2.44
313.15	0.4994	1330.27	2.5
313.15	0.5953	1338.38	2.56
313.15	0.7029	1347.05	2.63
313.15	0.8009	1351.97	2.69
313.15	0.9012	1355.81	2.76
313.15	1	1360.73	2.83
318.15	0	1197.87	2.24
318.15	0.0911	1238.15	2.28
318.15	0.2023	1270.57	2.34
318.15	0.3029	1290.79	2.39
318.15	0.3998	1306.44	2.44
318.15	0.4994	1317.69	2.5
318.15	0.5953	1326.16	2.56
318.15	0.7029	1335.43	2.63
318.15	0.8009	1340.67	2.69
318.15	0.9012	1344.72	2.76
318.15	1	1349.9	2.83
323.15	0	1177.76	2.24
323.15	0.0911	1221.28	2.28
323.15	0.2023	1255.76	2.34
323.15	0.3029	1276.93	2.39
323.15	0.3998	1293.39	2.44
323.15	0.4994	1305.22	2.5
323.15	0.5953	1314.03	2.56
323.15	0.7029	1323.85	2.63
323.15	0.8009	1329.52	2.69
323.15	0.9012	1333.74	2.76
323.15	1	1338.78	2.83

System: acetonitrile + 1-butyl-3-methylimidazolium trifluoromethanesulfonate; phases: Liquid
Fixed: Pressure, kPa = 100
Property: Viscosity, Pa*s (Liquid); method: Falling or rolling sphere viscometry
Temperature, K	Mole fraction of 1-butyl-3-methylimidazolium trifluoromethanesulfonate	Viscosity, Pa*s	uncertainty
323.15	0	0.00028	0.0002
318.15	0	0.00029	0.0002
313.15	0	0.0003	0.0002
308.15	0	0.00031	0.0002
303.15	0	0.00032	0.0002
298.15	0	0.00034	0.0002
323.15	0.0911	0.00071	0.0002
318.15	0.0911	0.00075	0.0002
313.15	0.0911	0.00079	0.0002
308.15	0.0911	0.00083	0.0002
303.15	0.0911	0.00088	0.0002
298.15	0.0911	0.00094	0.0002
323.15	0.2023	0.00132	0.0006
318.15	0.2023	0.0014	0.0006
313.15	0.2023	0.00148	0.0006
308.15	0.2023	0.00158	0.0006
303.15	0.2023	0.00161	0.0006
298.15	0.2023	0.00174	0.0006
323.15	0.3029	0.00254	0.0006
318.15	0.3029	0.00275	0.0006
313.15	0.3029	0.00301	0.0006
308.15	0.3029	0.0033	0.0006
303.15	0.3029	0.00364	0.0006
323.15	0.3998	0.00388	0.0006
298.15	0.3029	0.00403	0.0006
318.15	0.3998	0.00426	0.0006
313.15	0.3998	0.00473	0.0006
308.15	0.3998	0.00526	0.0006
303.15	0.3998	0.0059	0.0006
323.15	0.4994	0.00595	0.0006
298.15	0.3998	0.00663	0.0006
318.15	0.4994	0.00665	0.0006
313.15	0.4994	0.00748	0.00061
308.15	0.4994	0.00846	0.00061
323.15	0.5953	0.00933	0.00061
303.15	0.4994	0.00965	0.00061
318.15	0.5953	0.01056	0.00081
298.15	0.4994	0.01109	0.00081
313.15	0.5953	0.01206	0.00081
323.15	0.7029	0.01354	0.00081
308.15	0.5953	0.01386	0.00081
318.15	0.7029	0.01552	0.00082
303.15	0.5953	0.01622	0.00082
323.15	0.8009	0.0174	0.00082
313.15	0.7029	0.01791	0.00082
298.15	0.5953	0.01901	0.00083
318.15	0.8009	0.02016	0.00083
308.15	0.7029	0.0209	0.00083
323.15	0.9012	0.02266	0.00084
313.15	0.8009	0.02351	0.00084
303.15	0.7029	0.02473	0.00085
318.15	0.9012	0.02658	0.00086
308.15	0.8009	0.02782	0.00086
298.15	0.7029	0.02957	0.00086
323.15	1	0.03057	0.00088
313.15	0.9012	0.03145	0.00088
303.15	0.8009	0.03314	0.00089
318.15	1	0.03629	0.00092
308.15	0.9012	0.0377	0.00092
298.15	0.8009	0.04036	0.00093
313.15	1	0.04367	0.00096
303.15	0.9012	0.04589	0.00097
308.15	1	0.05286	0.00096
298.15	0.9012	0.05657	0.00099
303.15	1	0.06669	0.0012
298.15	1	0.08238	0.00171

System: dimethylformamide + 1-butyl-3-methylimidazolium trifluoromethanesulfonate; phases: Liquid
Fixed: Pressure, kPa = 100
Property: Mass density, kg/m3 (Liquid); method: Vibrating tube method
Temperature, K	Mole fraction of 1-butyl-3-methylimidazolium trifluoromethanesulfonate	Mass density, kg/m3	uncertainty
298.15	0	943.934	2.011
298.15	0.1087	1042.017	2.026
298.15	0.203	1099.891	2.039
298.15	0.2978	1142.855	2.058
298.15	0.409	1181.65	2.088
298.15	0.4969	1206.073	2.118
298.15	0.603	1230.688	2.163
298.15	0.699	1249.538	2.211
298.15	0.809	1268.592	2.278
298.15	0.8928	1281.634	2.338
298.15	1	1297.462	2.427
303.15	0	939.162	2.011
303.15	0.1087	1037.253	2.026
303.15	0.203	1095.218	2.038
303.15	0.2978	1138.296	2.057
303.15	0.409	1177.218	2.087
303.15	0.4969	1201.732	2.116
303.15	0.603	1226.445	2.16
303.15	0.699	1245.372	2.208
303.15	0.809	1264.499	2.274
303.15	0.8928	1277.589	2.333
303.15	1	1293.465	2.421
308.15	0	934.373	2.011
308.15	0.1087	1032.473	2.025
308.15	0.203	1090.532	2.037
308.15	0.2978	1133.725	2.056
308.15	0.409	1172.775	2.085
308.15	0.4969	1197.383	2.114
308.15	0.603	1222.196	2.158
308.15	0.699	1241.201	2.205
308.15	0.809	1260.403	2.271
308.15	0.8928	1273.542	2.329
308.15	1	1289.467	2.416
313.15	0	929.577	2.011
313.15	0.1087	1027.686	2.025
313.15	0.203	1085.84	2.036
313.15	0.2978	1129.149	2.055
313.15	0.409	1168.329	2.084
313.15	0.4969	1193.032	2.113
313.15	0.603	1217.945	2.155
313.15	0.699	1237.029	2.202
313.15	0.809	1256.308	2.267
313.15	0.8928	1269.496	2.325
313.15	1	1285.471	2.411
318.15	0	924.765	2.011
318.15	0.1087	1022.884	2.024
318.15	0.203	1081.134	2.036
318.15	0.2978	1124.561	2.054
318.15	0.409	1163.873	2.082
318.15	0.4969	1188.672	2.111
318.15	0.603	1213.687	2.153
318.15	0.699	1232.852	2.199
318.15	0.809	1252.208	2.263
318.15	0.8928	1265.446	2.321
318.15	1	1281.473	2.406
323.15	0	919.95	2.011
323.15	0.1087	1018.079	2.024
323.15	0.203	1076.424	2.035
323.15	0.2978	1119.969	2.053
323.15	0.409	1159.414	2.081
323.15	0.4969	1184.309	2.109
323.15	0.603	1209.427	2.151
323.15	0.699	1228.674	2.197
323.15	0.809	1248.108	2.26
323.15	0.8928	1261.397	2.317
323.15	1	1277.476	2.401

System: dimethylformamide + 1-butyl-3-methylimidazolium trifluoromethanesulfonate; phases: Liquid
Fixed: Pressure, kPa = 100
Fixed: Frequency, MHz = 3
Property: Speed of sound, m/s (Liquid); method: Single path-length method
Temperature, K	Mole fraction of 1-butyl-3-methylimidazolium trifluoromethanesulfonate	Speed of sound, m/s	uncertainty
298.15	0	1457.14	2.24
298.15	0.1087	1449.24	2.29
298.15	0.203	1437.68	2.34
298.15	0.2978	1425.69	2.39
298.15	0.409	1415.04	2.45
298.15	0.4969	1409.17	2.5
298.15	0.603	1403.05	2.57
298.15	0.699	1399.14	2.63
298.15	0.809	1396.65	2.7
298.15	0.8928	1395.02	2.76
298.15	1	1393.21	2.83
303.15	0	1437.81	2.24
303.15	0.1087	1432.14	2.29
303.15	0.203	1421.89	2.34
303.15	0.2978	1410.93	2.39
303.15	0.409	1401.23	2.45
303.15	0.4969	1395.98	2.5
303.15	0.603	1390.51	2.57
303.15	0.699	1387.01	2.63
303.15	0.809	1384.82	2.7
303.15	0.8928	1383.52	2.76
303.15	1	1382.79	2.83
308.15	0	1418.45	2.24
308.15	0.1087	1415.16	2.29
308.15	0.203	1406.03	2.34
308.15	0.2978	1395.88	2.39
308.15	0.409	1387.25	2.45
308.15	0.4969	1382.87	2.5
308.15	0.603	1378.1	2.57
308.15	0.699	1375.05	2.63
308.15	0.809	1373.27	2.7
308.15	0.8928	1372.14	2.76
308.15	1	1371.68	2.83
313.15	0	1399.15	2.24
313.15	0.1087	1398.08	2.29
313.15	0.203	1390.43	2.34
313.15	0.2978	1381.41	2.39
313.15	0.409	1373.62	2.45
313.15	0.4969	1369.71	2.5
313.15	0.603	1365.57	2.57
313.15	0.699	1363.03	2.63
313.15	0.809	1361.7	2.7
313.15	0.8928	1360.87	2.76
313.15	1	1360.73	2.83
318.15	0	1379.92	2.24
318.15	0.1087	1381.22	2.29
318.15	0.203	1374.95	2.34
318.15	0.2978	1366.96	2.39
318.15	0.409	1360.12	2.45
318.15	0.4969	1356.83	2.5
318.15	0.603	1353.31	2.57
318.15	0.699	1351.23	2.63
318.15	0.809	1350.3	2.7
318.15	0.8928	1349.72	2.76
318.15	1	1349.9	2.83
323.15	0	1360.74	2.24
323.15	0.1087	1364.47	2.29
323.15	0.203	1359.6	2.34
323.15	0.2978	1352.6	2.39
323.15	0.409	1346.7	2.45
323.15	0.4969	1344.05	2.5
323.15	0.603	1341.14	2.57
323.15	0.699	1339.54	2.63
323.15	0.809	1339.09	2.7
323.15	0.8928	1338.7	2.76
323.15	1	1338.78	2.83

System: dimethylformamide + 1-butyl-3-methylimidazolium trifluoromethanesulfonate; phases: Liquid
Fixed: Pressure, kPa = 100
Property: Viscosity, Pa*s (Liquid); method: Falling or rolling sphere viscometry
Temperature, K	Mole fraction of 1-butyl-3-methylimidazolium trifluoromethanesulfonate	Viscosity, Pa*s	uncertainty
323.15	0	0.00062	0.0002
318.15	0	0.00065	0.0002
313.15	0	0.00069	0.0002
308.15	0	0.00072	0.0002
303.15	0	0.00077	0.0002
298.15	0	0.00081	0.0002
323.15	0.1087	0.00126	0.0006
318.15	0.1087	0.00134	0.0006
313.15	0.1087	0.00144	0.0006
308.15	0.1087	0.00155	0.0006
303.15	0.1087	0.00167	0.0006
298.15	0.1087	0.0018	0.0006
323.15	0.203	0.0022	0.0006
318.15	0.203	0.0024	0.0006
313.15	0.203	0.00264	0.0006
308.15	0.203	0.00293	0.0006
323.15	0.2978	0.00317	0.0006
303.15	0.203	0.00323	0.0006
318.15	0.2978	0.00347	0.0006
298.15	0.203	0.00367	0.0006
313.15	0.2978	0.00381	0.0006
308.15	0.2978	0.0042	0.0006
303.15	0.2978	0.00467	0.0006
323.15	0.409	0.00488	0.0006
298.15	0.2978	0.00522	0.0006
318.15	0.409	0.00541	0.0006
313.15	0.409	0.00601	0.0006
308.15	0.409	0.00673	0.0006
323.15	0.4969	0.00689	0.0006
303.15	0.409	0.00762	0.0006
318.15	0.4969	0.00774	0.00061
298.15	0.409	0.00868	0.00061
313.15	0.4969	0.00871	0.00061
308.15	0.4969	0.00992	0.00061
323.15	0.603	0.01021	0.00081
303.15	0.4969	0.0114	0.00081
318.15	0.603	0.0116	0.00081
313.15	0.603	0.01322	0.00081
298.15	0.4969	0.01324	0.00081
323.15	0.699	0.01464	0.00082
308.15	0.603	0.01523	0.00082
318.15	0.699	0.01684	0.00082
303.15	0.603	0.01779	0.00082
313.15	0.699	0.01953	0.00083
298.15	0.603	0.02091	0.00083
323.15	0.809	0.02129	0.00084
308.15	0.699	0.02289	0.00084
318.15	0.809	0.02486	0.00085
323.15	0.8928	0.02639	0.00086
303.15	0.699	0.02714	0.00086
313.15	0.809	0.02938	0.00087
323.15	1	0.03057	0.00088
318.15	0.8928	0.03109	0.00088
298.15	0.699	0.03259	0.00088
308.15	0.809	0.03516	0.0009
318.15	1	0.03629	0.00092
313.15	0.8928	0.03711	0.00091
303.15	0.809	0.04241	0.00094
313.15	1	0.04367	0.00096
308.15	0.8928	0.04483	0.00096
298.15	0.809	0.05215	0.00093
308.15	1	0.05286	0.00096
303.15	0.8928	0.0549	0.00097
303.15	1	0.06669	0.0012
298.15	0.8928	0.06808	0.00121
298.15	1	0.08238	0.00171

System: dimethylformamide + acetonitrile; phases: Liquid
Fixed: Pressure, kPa = 100
Property: Mass density, kg/m3 (Liquid); method: Vibrating tube method
Temperature, K	Mole fraction of dimethylformamide	Mass density, kg/m3	uncertainty
298.15	0	776.714	2.012
298.15	0.0989	802.565	2.012
298.15	0.1916	826.376	2.012
298.15	0.2925	844.614	2.012
298.15	0.3932	865.725	2.011
298.15	0.5029	880.889	2.011
298.15	0.6002	895.421	2.011
298.15	0.6931	907.546	2.011
298.15	0.7926	922.026	2.011
298.15	0.8996	932.676	2.011
298.15	1	943.934	2.011
303.15	0	771.289	2.012
303.15	0.0989	797.299	2.012
303.15	0.1916	821.229	2.012
303.15	0.2925	839.435	2.012
303.15	0.3932	860.639	2.012
303.15	0.5029	875.938	2.011
303.15	0.6002	890.518	2.011
303.15	0.6931	902.756	2.011
303.15	0.7926	917.22	2.011
303.15	0.8996	927.901	2.011
303.15	1	939.162	2.011
308.15	0	765.833	2.012
308.15	0.0989	792.024	2.012
308.15	0.1916	816.008	2.012
308.15	0.2925	834.219	2.012
308.15	0.3932	855.56	2.012
308.15	0.5029	870.924	2.011
308.15	0.6002	885.607	2.011
308.15	0.6931	897.887	2.011
308.15	0.7926	912.402	2.011
308.15	0.8996	923.153	2.011
308.15	1	934.373	2.011
313.15	0	760.339	2.012
313.15	0.0989	786.729	2.012
313.15	0.1916	810.757	2.012
313.15	0.2925	829.087	2.012
313.15	0.3932	850.487	2.012
313.15	0.5029	865.854	2.011
313.15	0.6002	880.698	2.011
313.15	0.6931	893.049	2.011
313.15	0.7926	907.663	2.011
313.15	0.8996	918.366	2.011
313.15	1	929.577	2.011
318.15	0	754.815	2.012
318.15	0.0989	781.363	2.012
318.15	0.1916	805.527	2.012
318.15	0.2925	823.852	2.012
318.15	0.3932	845.354	2.012
318.15	0.5029	860.76	2.011
318.15	0.6002	875.703	2.011
318.15	0.6931	888.143	2.011
318.15	0.7926	902.79	2.011
318.15	0.8996	913.57	2.011
318.15	1	924.765	2.011
323.15	0	749.253	2.012
323.15	0.0989	776.028	2.013
323.15	0.1916	800.222	2.012
323.15	0.2925	818.614	2.012
323.15	0.3932	840.213	2.012
323.15	0.5029	855.738	2.011
323.15	0.6002	870.738	2.011
323.15	0.6931	883.209	2.011
323.15	0.7926	897.991	2.011
323.15	0.8996	908.741	2.011
323.15	1	919.95	2.011

System: dimethylformamide + acetonitrile; phases: Liquid
Fixed: Pressure, kPa = 100
Fixed: Frequency, MHz = 3
Property: Speed of sound, m/s (Liquid); method: Single path-length method
Temperature, K	Mole fraction of dimethylformamide	Speed of sound, m/s	uncertainty
298.15	0	1278.53	2.24
298.15	0.0989	1302.51	2.24
298.15	0.1916	1322	2.24
298.15	0.2925	1339.63	2.24
298.15	0.3932	1361.63	2.24
298.15	0.5029	1377.51	2.24
298.15	0.6002	1395.94	2.24
298.15	0.6931	1411.39	2.24
298.15	0.7926	1429.22	2.24
298.15	0.8996	1442.81	2.24
298.15	1	1457.14	2.24
303.15	0	1258.37	2.24
303.15	0.0989	1282.67	2.24
303.15	0.1916	1302.28	2.24
303.15	0.2925	1320.07	2.24
303.15	0.3932	1342.15	2.24
303.15	0.5029	1358.13	2.24
303.15	0.6002	1376.59	2.24
303.15	0.6931	1392	2.24
303.15	0.7926	1409.88	2.24
303.15	0.8996	1423.35	2.24
303.15	1	1437.81	2.24
308.15	0	1238.17	2.24
308.15	0.0989	1262.86	2.24
308.15	0.1916	1282.5	2.24
308.15	0.2925	1300.45	2.24
308.15	0.3932	1322.61	2.24
308.15	0.5029	1338.64	2.24
308.15	0.6002	1357.18	2.24
308.15	0.6931	1372.56	2.24
308.15	0.7926	1390.53	2.24
308.15	0.8996	1404.01	2.24
308.15	1	1418.45	2.24
313.15	0	1218.03	2.24
313.15	0.0989	1243.05	2.24
313.15	0.1916	1262.78	2.24
313.15	0.2925	1280.9	2.24
313.15	0.3932	1303.15	2.24
313.15	0.5029	1319.19	2.24
313.15	0.6002	1337.86	2.24
313.15	0.6931	1353.28	2.24
313.15	0.7926	1371.27	2.24
313.15	0.8996	1384.73	2.24
313.15	1	1399.15	2.24
318.15	0	1197.87	2.24
318.15	0.0989	1223.28	2.24
318.15	0.1916	1243.09	2.24
318.15	0.2925	1261.35	2.24
318.15	0.3932	1283.73	2.24
318.15	0.5029	1299.86	2.24
318.15	0.6002	1318.6	2.24
318.15	0.6931	1334.01	2.24
318.15	0.7926	1352.06	2.24
318.15	0.8996	1365.49	2.24
318.15	1	1379.92	2.24
323.15	0	1177.76	2.24
323.15	0.0989	1203.45	2.24
323.15	0.1916	1223.43	2.24
323.15	0.2925	1241.88	2.24
323.15	0.3932	1264.36	2.24
323.15	0.5029	1280.59	2.24
323.15	0.6002	1299.4	2.24
323.15	0.6931	1314.79	2.24
323.15	0.7926	1332.92	2.24
323.15	0.8996	1346.35	2.24
323.15	1	1360.74	2.24

System: dimethylformamide + acetonitrile; phases: Liquid
Fixed: Pressure, kPa = 100
Property: Viscosity, Pa*s (Liquid); method: Falling or rolling sphere viscometry
Temperature, K	Mole fraction of dimethylformamide	Viscosity, Pa*s	uncertainty
298.15	0	0.00034	0.0002
298.15	0.0989	0.0004	0.0002
298.15	0.1916	0.00044	0.0002
298.15	0.2925	0.00048	0.0002
298.15	0.3932	0.00054	0.0002
298.15	0.5029	0.00061	0.0002
298.15	0.6002	0.00065	0.0002
298.15	0.6931	0.00069	0.0002
298.15	0.7926	0.00075	0.0002
298.15	0.8996	0.00079	0.0002
298.15	1	0.00081	0.0002
303.15	0	0.00032	0.0002
303.15	0.0989	0.00039	0.0002
303.15	0.1916	0.00042	0.0002
303.15	0.2925	0.00046	0.0002
303.15	0.3932	0.00051	0.0002
303.15	0.5029	0.00057	0.0002
303.15	0.6002	0.00061	0.0002
303.15	0.6931	0.00065	0.0002
303.15	0.7926	0.0007	0.0002
303.15	0.8996	0.00075	0.0002
303.15	1	0.00077	0.0002
308.15	0	0.00031	0.0002
308.15	0.0989	0.00037	0.0002
308.15	0.1916	0.0004	0.0002
308.15	0.2925	0.00044	0.0002
308.15	0.3932	0.00049	0.0002
308.15	0.5029	0.00054	0.0002
308.15	0.6002	0.00058	0.0002
308.15	0.6931	0.00061	0.0002
308.15	0.7926	0.00066	0.0002
308.15	0.8996	0.00071	0.0002
308.15	1	0.00072	0.0002
313.15	0	0.0003	0.0002
313.15	0.0989	0.00035	0.0002
313.15	0.1916	0.00039	0.0002
313.15	0.2925	0.00042	0.0002
313.15	0.3932	0.00046	0.0002
313.15	0.5029	0.00051	0.0002
313.15	0.6002	0.00055	0.0002
313.15	0.6931	0.00058	0.0002
313.15	0.7926	0.00063	0.0002
313.15	0.8996	0.00069	0.0002
313.15	1	0.00069	0.0002
318.15	0	0.00029	0.0002
318.15	0.0989	0.00033	0.0002
318.15	0.1916	0.00037	0.0002
318.15	0.2925	0.0004	0.0002
318.15	0.3932	0.00044	0.0002
318.15	0.5029	0.00049	0.0002
318.15	0.6002	0.00052	0.0002
318.15	0.6931	0.00055	0.0002
318.15	0.7926	0.00059	0.0002
318.15	0.8996	0.00063	0.0002
318.15	1	0.00065	0.0002
323.15	0	0.00028	0.0002
323.15	0.0989	0.00032	0.0002
323.15	0.1916	0.00035	0.0002
323.15	0.2925	0.00038	0.0002
323.15	0.3932	0.00042	0.0002
323.15	0.5029	0.00046	0.0002
323.15	0.6002	0.0005	0.0002
323.15	0.6931	0.00053	0.0002
323.15	0.7926	0.00056	0.0002
323.15	0.8996	0.0006	0.0002
323.15	1	0.00062	0.0002

System: dimethylformamide + acetonitrile + 1-butyl-3-methylimidazolium trifluoromethanesulfonate; phases: Liquid
Fixed: Pressure, kPa = 100
Property: Mass density, kg/m3 (Liquid); method: Vibrating tube method
Temperature, K	Mole fraction of 1-butyl-3-methylimidazolium trifluoromethanesulfonate	Mole fraction of acetonitrile	Mass density, kg/m3	uncertainty
298.15	0.0301	0.9323	844.244	2.039
298.15	0.0687	0.8807	907.836	2.034
298.15	0.1	0.8406	952.4	2.035
298.15	0.1345	0.7959	995.374	2.029
298.15	0.1613	0.7595	1024.514	2.033
298.15	0.1948	0.7145	1056.546	2.037
298.15	0.2336	0.6624	1088.188	2.044
298.15	0.2747	0.6065	1116.24	2.162
298.15	0.3079	0.5593	1135.389	2.098
298.15	0.3344	0.5196	1148.816	2.066
298.15	0.3634	0.476	1161.862	2.074
298.15	0.3953	0.4282	1174.506	2.084
298.15	0.4305	0.3754	1186.763	2.094
298.15	0.4618	0.3267	1196.445	2.105
298.15	0.496	0.2734	1205.976	2.118
298.15	0.5316	0.2476	1214.983	2.132
298.15	0.5682	0.2221	1223.5	2.147
298.15	0.6098	0.1706	1232.432	2.166
298.15	0.6369	0.1591	1237.932	2.179
298.15	0.6778	0.1324	1245.756	2.2
298.15	0.7035	0.1252	1250.371	2.214
298.15	0.7318	0.1042	1255.151	2.229
298.15	0.7659	0.0894	1260.432	2.249
298.15	0.7913	0.0731	1263.944	2.266
303.15	0.0301	0.9323	838.992	2.039
303.15	0.0687	0.8807	902.743	2.034
303.15	0.1	0.8406	947.421	2.035
303.15	0.1345	0.7959	990.507	2.029
303.15	0.1613	0.7595	1019.725	2.033
303.15	0.1948	0.7145	1051.846	2.037
303.15	0.2336	0.6624	1083.576	2.043
303.15	0.2747	0.6065	1111.71	2.16
303.15	0.3079	0.5593	1130.914	2.096
303.15	0.3344	0.5196	1144.384	2.065
303.15	0.3634	0.476	1157.467	2.073
303.15	0.3953	0.4282	1170.152	2.082
303.15	0.4305	0.3754	1182.448	2.093
303.15	0.4618	0.3267	1192.157	2.103
303.15	0.496	0.2734	1201.72	2.116
303.15	0.5316	0.2476	1210.753	2.13
303.15	0.5682	0.2221	1219.298	2.145
303.15	0.6098	0.1706	1228.257	2.163
303.15	0.6369	0.1591	1233.777	2.176
303.15	0.6778	0.1324	1241.626	2.197
303.15	0.7035	0.1252	1246.259	2.211
303.15	0.7318	0.1042	1251.058	2.226
303.15	0.7659	0.0894	1256.361	2.246
303.15	0.7913	0.0731	1259.891	2.262
308.15	0.0301	0.9323	833.699	2.039
308.15	0.0687	0.8807	897.63	2.034
308.15	0.1	0.8406	942.429	2.035
308.15	0.1345	0.7959	985.627	2.029
308.15	0.1613	0.7595	1014.917	2.032
308.15	0.1948	0.7145	1047.114	2.036
308.15	0.2336	0.6624	1078.919	2.042
308.15	0.2747	0.6065	1107.116	2.162
308.15	0.3079	0.5593	1126.366	2.097
308.15	0.3344	0.5196	1139.866	2.064
308.15	0.3634	0.476	1152.985	2.072
308.15	0.3953	0.4282	1165.702	2.081
308.15	0.4305	0.3754	1178.035	2.091
308.15	0.4618	0.3267	1187.781	2.102
308.15	0.496	0.2734	1197.38	2.114
308.15	0.5316	0.2476	1206.457	2.128
308.15	0.5682	0.2221	1215.045	2.143
308.15	0.6098	0.1706	1224.06	2.161
308.15	0.6369	0.1591	1229.613	2.174
308.15	0.6778	0.1324	1237.519	2.194
308.15	0.7035	0.1252	1242.183	2.208
308.15	0.7318	0.1042	1247.017	2.223
308.15	0.7659	0.0894	1252.362	2.243
308.15	0.7913	0.0731	1255.919	2.259
313.15	0.0301	0.9323	828.396	2.04
313.15	0.0687	0.8807	892.509	2.034
313.15	0.1	0.8406	937.431	2.035
313.15	0.1345	0.7959	980.745	2.029
313.15	0.1613	0.7595	1010.111	2.032
313.15	0.1948	0.7145	1042.391	2.035
313.15	0.2336	0.6624	1074.276	2.041
313.15	0.2747	0.6065	1102.544	2.163
313.15	0.3079	0.5593	1121.842	2.098
313.15	0.3344	0.5196	1135.378	2.063
313.15	0.3634	0.476	1148.53	2.07
313.15	0.3953	0.4282	1161.286	2.08
313.15	0.4305	0.3754	1173.658	2.089
313.15	0.4618	0.3267	1183.434	2.1
313.15	0.496	0.2734	1193.073	2.112
313.15	0.5316	0.2476	1202.186	2.126
313.15	0.5682	0.2221	1210.819	2.141
313.15	0.6098	0.1706	1219.877	2.159
313.15	0.6369	0.1591	1225.467	2.171
313.15	0.6778	0.1324	1233.417	2.191
313.15	0.7035	0.1252	1238.115	2.205
313.15	0.7318	0.1042	1242.981	2.22
313.15	0.7659	0.0894	1248.359	2.24
313.15	0.7913	0.0731	1251.941	2.256
318.15	0.0301	0.9323	823.06	2.04
318.15	0.0687	0.8807	887.319	2.034
318.15	0.1	0.8406	932.358	2.035
318.15	0.1345	0.7959	975.797	2.029
318.15	0.1613	0.7595	1005.258	2.031
318.15	0.1948	0.7145	1037.649	2.035
318.15	0.2336	0.6624	1069.653	2.041
318.15	0.2747	0.6065	1098.037	2.161
318.15	0.3079	0.5593	1117.417	2.095
318.15	0.3344	0.5196	1131.013	2.062
318.15	0.3634	0.476	1144.223	2.069
318.15	0.3953	0.4282	1157.033	2.078
318.15	0.4305	0.3754	1169.454	2.088
318.15	0.4618	0.3267	1179.266	2.098
318.15	0.496	0.2734	1188.93	2.111
318.15	0.5316	0.2476	1198.063	2.124
318.15	0.5682	0.2221	1206.702	2.139
318.15	0.6098	0.1706	1215.761	2.156
318.15	0.6369	0.1591	1221.342	2.169
318.15	0.6778	0.1324	1229.277	2.189
318.15	0.7035	0.1252	1233.96	2.202
318.15	0.7318	0.1042	1238.81	2.217
318.15	0.7659	0.0894	1244.167	2.236
318.15	0.7913	0.0731	1247.733	2.252
323.15	0.0301	0.9323	817.708	2.04
323.15	0.0687	0.8807	882.15	2.034
323.15	0.1	0.8406	927.318	2.035
323.15	0.1345	0.7959	970.893	2.029
323.15	0.1613	0.7595	1000.444	2.031
323.15	0.1948	0.7145	1032.941	2.034
323.15	0.2336	0.6624	1065.056	2.04
323.15	0.2747	0.6065	1093.54	2.16
323.15	0.3079	0.5593	1112.991	2.094
323.15	0.3344	0.5196	1126.638	2.06
323.15	0.3634	0.476	1139.897	2.068
323.15	0.3953	0.4282	1152.757	2.077
323.15	0.4305	0.3754	1165.223	2.086
323.15	0.4618	0.3267	1175.067	2.097
323.15	0.496	0.2734	1184.762	2.109
323.15	0.5316	0.2476	1193.917	2.122
323.15	0.5682	0.2221	1202.57	2.137
323.15	0.6098	0.1706	1211.634	2.154
323.15	0.6369	0.1591	1217.209	2.166
323.15	0.6778	0.1324	1225.13	2.186
323.15	0.7035	0.1252	1229.792	2.199
323.15	0.7318	0.1042	1234.616	2.214
323.15	0.7659	0.0894	1239.934	2.233
323.15	0.7913	0.0731	1243.46	2.249

System: dimethylformamide + acetonitrile + 1-butyl-3-methylimidazolium trifluoromethanesulfonate; phases: Liquid
Fixed: Pressure, kPa = 100
Fixed: Frequency, MHz = 3
Property: Speed of sound, m/s (Liquid); method: Single path-length method
Temperature, K	Mole fraction of 1-butyl-3-methylimidazolium trifluoromethanesulfonate	Mole fraction of acetonitrile	Speed of sound, m/s	uncertainty
298.15	0.0301	0.9323	1292.71	2.25
298.15	0.0687	0.8807	1301.89	2.27
298.15	0.1	0.8406	1309.46	2.29
298.15	0.1345	0.7959	1317.84	2.3
298.15	0.1613	0.7595	1324.26	2.32
298.15	0.1948	0.7145	1332.12	2.33
298.15	0.2336	0.6624	1340.87	2.35
298.15	0.2747	0.6065	1349.62	2.38
298.15	0.3079	0.5593	1356.19	2.39
298.15	0.3344	0.5196	1361.11	2.41
298.15	0.3634	0.476	1366.12	2.42
298.15	0.3953	0.4282	1371.16	2.44
298.15	0.4305	0.3754	1376.15	2.46
298.15	0.4618	0.3267	1380.08	2.48
298.15	0.496	0.2734	1383.84	2.5
298.15	0.5316	0.2476	1387.2	2.52
298.15	0.5682	0.2221	1390.11	2.54
298.15	0.6098	0.1706	1392.83	2.57
298.15	0.6369	0.1591	1394.33	2.59
298.15	0.6778	0.1324	1396.3	2.61
298.15	0.7035	0.1252	1397.42	2.63
298.15	0.7318	0.1042	1398.61	2.65
298.15	0.7659	0.0894	1400.1	2.67
298.15	0.7913	0.0731	1401.33	2.69
303.15	0.0301	0.9323	1273.47	2.25
303.15	0.0687	0.8807	1283.54	2.27
303.15	0.1	0.8406	1291.8	2.29
303.15	0.1345	0.7959	1300.9	2.3
303.15	0.1613	0.7595	1307.85	2.32
303.15	0.1948	0.7145	1316.33	2.33
303.15	0.2336	0.6624	1325.72	2.35
303.15	0.2747	0.6065	1335.06	2.38
303.15	0.3079	0.5593	1342.02	2.39
303.15	0.3344	0.5196	1347.21	2.41
303.15	0.3634	0.476	1352.47	2.42
303.15	0.3953	0.4282	1357.75	2.44
303.15	0.4305	0.3754	1362.94	2.46
303.15	0.4618	0.3267	1367.01	2.48
303.15	0.496	0.2734	1370.89	2.5
303.15	0.5316	0.2476	1374.36	2.52
303.15	0.5682	0.2221	1377.37	2.54
303.15	0.6098	0.1706	1380.24	2.57
303.15	0.6369	0.1591	1381.88	2.59
303.15	0.6778	0.1324	1384.12	2.61
303.15	0.7035	0.1252	1385.49	2.63
303.15	0.7318	0.1042	1387.03	2.65
303.15	0.7659	0.0894	1389.07	2.67
303.15	0.7913	0.0731	1390.82	2.69
308.15	0.0301	0.9323	1254.58	2.25
308.15	0.0687	0.8807	1265.63	2.27
308.15	0.1	0.8406	1274.6	2.29
308.15	0.1345	0.7959	1284.41	2.3
308.15	0.1613	0.7595	1291.84	2.32
308.15	0.1948	0.7145	1300.86	2.33
308.15	0.2336	0.6624	1310.8	2.35
308.15	0.2747	0.6065	1320.62	2.38
308.15	0.3079	0.5593	1327.92	2.4
308.15	0.3344	0.5196	1333.35	2.41
308.15	0.3634	0.476	1338.83	2.42
308.15	0.3953	0.4282	1344.32	2.44
308.15	0.4305	0.3754	1349.71	2.46
308.15	0.4618	0.3267	1353.94	2.48
308.15	0.496	0.2734	1357.98	2.5
308.15	0.5316	0.2476	1361.6	2.52
308.15	0.5682	0.2221	1364.77	2.54
308.15	0.6098	0.1706	1367.82	2.57
308.15	0.6369	0.1591	1369.59	2.59
308.15	0.6778	0.1324	1372.07	2.61
308.15	0.7035	0.1252	1373.6	2.63
308.15	0.7318	0.1042	1375.35	2.65
308.15	0.7659	0.0894	1377.7	2.67
308.15	0.7913	0.0731	1379.71	2.69
313.15	0.0301	0.9323	1235.67	2.25
313.15	0.0687	0.8807	1247.76	2.27
313.15	0.1	0.8406	1257.46	2.29
313.15	0.1345	0.7959	1267.99	2.3
313.15	0.1613	0.7595	1275.92	2.32
313.15	0.1948	0.7145	1285.5	2.33
313.15	0.2336	0.6624	1295.98	2.35
313.15	0.2747	0.6065	1306.29	2.38
313.15	0.3079	0.5593	1313.92	2.4
313.15	0.3344	0.5196	1319.57	2.41
313.15	0.3634	0.476	1325.28	2.42
313.15	0.3953	0.4282	1330.98	2.44
313.15	0.4305	0.3754	1336.57	2.46
313.15	0.4618	0.3267	1340.96	2.48
313.15	0.496	0.2734	1345.16	2.5
313.15	0.5316	0.2476	1348.94	2.52
313.15	0.5682	0.2221	1352.27	2.54
313.15	0.6098	0.1706	1355.52	2.57
313.15	0.6369	0.1591	1357.43	2.59
313.15	0.6778	0.1324	1360.15	2.61
313.15	0.7035	0.1252	1361.86	2.63
313.15	0.7318	0.1042	1363.83	2.65
313.15	0.7659	0.0894	1366.48	2.67
313.15	0.7913	0.0731	1368.75	2.69
318.15	0.0301	0.9323	1216.86	2.25
318.15	0.0687	0.8807	1229.97	2.27
318.15	0.1	0.8406	1240.41	2.29
318.15	0.1345	0.7959	1251.67	2.3
318.15	0.1613	0.7595	1260.1	2.32
318.15	0.1948	0.7145	1270.23	2.33
318.15	0.2336	0.6624	1281.26	2.35
318.15	0.2747	0.6065	1292.07	2.38
318.15	0.3079	0.5593	1300.03	2.4
318.15	0.3344	0.5196	1305.91	2.41
318.15	0.3634	0.476	1311.84	2.42
318.15	0.3953	0.4282	1317.75	2.44
318.15	0.4305	0.3754	1323.55	2.46
318.15	0.4618	0.3267	1328.1	2.48
318.15	0.496	0.2734	1332.45	2.5
318.15	0.5316	0.2476	1336.38	2.52
318.15	0.5682	0.2221	1339.87	2.54
318.15	0.6098	0.1706	1343.31	2.57
318.15	0.6369	0.1591	1345.36	2.59
318.15	0.6778	0.1324	1348.32	2.61
318.15	0.7035	0.1252	1350.2	2.63
318.15	0.7318	0.1042	1352.4	2.65
318.15	0.7659	0.0894	1355.36	2.67
318.15	0.7913	0.0731	1357.91	2.69
323.15	0.0301	0.9323	1198.07	2.25
323.15	0.0687	0.8807	1212.27	2.27
323.15	0.1	0.8406	1223.48	2.29
323.15	0.1345	0.7959	1235.48	2.3
323.15	0.1613	0.7595	1244.41	2.32
323.15	0.1948	0.7145	1255.09	2.33
323.15	0.2336	0.6624	1266.66	2.35
323.15	0.2747	0.6065	1277.94	2.38
323.15	0.3079	0.5593	1286.23	2.4
323.15	0.3344	0.5196	1292.34	2.41
323.15	0.3634	0.476	1298.48	2.42
323.15	0.3953	0.4282	1304.6	2.44
323.15	0.4305	0.3754	1310.6	2.46
323.15	0.4618	0.3267	1315.32	2.48
323.15	0.496	0.2734	1319.84	2.5
323.15	0.5316	0.2476	1323.93	2.52
323.15	0.5682	0.2221	1327.59	2.54
323.15	0.6098	0.1706	1331.23	2.57
323.15	0.6369	0.1591	1333.42	2.59
323.15	0.6778	0.1324	1336.6	2.61
323.15	0.7035	0.1252	1338.64	2.63
323.15	0.7318	0.1042	1341.01	2.65
323.15	0.7659	0.0894	1344.21	2.67
323.15	0.7913	0.0731	1346.95	2.69

System: dimethylformamide + acetonitrile + 1-butyl-3-methylimidazolium trifluoromethanesulfonate; phases: Liquid
Fixed: Pressure, kPa = 100
Property: Viscosity, Pa*s (Liquid); method: Falling or rolling sphere viscometry
Temperature, K	Mole fraction of 1-butyl-3-methylimidazolium trifluoromethanesulfonate	Mole fraction of acetonitrile	Viscosity, Pa*s	uncertainty
323.15	0.0301	0.9323	0.00039	0.0002
318.15	0.0301	0.9323	0.00041	0.0002
313.15	0.0301	0.9323	0.00043	0.0002
308.15	0.0301	0.9323	0.00045	0.0002
303.15	0.0301	0.9323	0.00047	0.0002
323.15	0.0687	0.8807	0.00047	0.0002
318.15	0.0687	0.8807	0.00048	0.0002
313.15	0.0687	0.8807	0.00049	0.0002
298.15	0.0301	0.9323	0.0005	0.0002
308.15	0.0687	0.8807	0.00051	0.0002
303.15	0.0687	0.8807	0.00052	0.0002
298.15	0.0687	0.8807	0.00053	0.0002
323.15	0.1	0.8406	0.0006	0.0002
318.15	0.1	0.8406	0.00061	0.0002
313.15	0.1	0.8406	0.00063	0.0002
308.15	0.1	0.8406	0.00065	0.0002
303.15	0.1	0.8406	0.00067	0.0002
298.15	0.1	0.8406	0.00069	0.0002
323.15	0.1345	0.7959	0.0008	0.0002
318.15	0.1345	0.7959	0.00082	0.0002
313.15	0.1345	0.7959	0.00086	0.0002
308.15	0.1345	0.7959	0.00091	0.0002
303.15	0.1345	0.7959	0.00095	0.0002
298.15	0.1345	0.7959	0.00099	0.0002
323.15	0.1613	0.7595	0.001	0.0002
318.15	0.1613	0.7595	0.00104	0.0006
313.15	0.1613	0.7595	0.0011	0.0006
308.15	0.1613	0.7595	0.00117	0.0006
303.15	0.1613	0.7595	0.00124	0.0006
323.15	0.1948	0.7145	0.0013	0.0006
298.15	0.1613	0.7595	0.00132	0.0006
318.15	0.1948	0.7145	0.00138	0.0006
313.15	0.1948	0.7145	0.00148	0.0006
308.15	0.1948	0.7145	0.00158	0.0006
303.15	0.1948	0.7145	0.00171	0.0006
323.15	0.2336	0.6624	0.00172	0.0006
298.15	0.1948	0.7145	0.00184	0.0006
318.15	0.2336	0.6624	0.00185	0.0006
313.15	0.2336	0.6624	0.002	0.0006
308.15	0.2336	0.6624	0.00217	0.0006
323.15	0.2747	0.6065	0.00225	0.0006
303.15	0.2336	0.6624	0.00238	0.0006
318.15	0.2747	0.6065	0.00246	0.0006
298.15	0.2336	0.6624	0.00259	0.0006
313.15	0.2747	0.6065	0.00268	0.0006
323.15	0.3079	0.5593	0.00275	0.0006
308.15	0.2747	0.6065	0.00293	0.0006
318.15	0.3079	0.5593	0.00302	0.0006
323.15	0.3344	0.5196	0.00318	0.0006
303.15	0.2747	0.6065	0.00324	0.0006
313.15	0.3079	0.5593	0.00331	0.0006
318.15	0.3344	0.5196	0.00351	0.0006
298.15	0.2747	0.6065	0.00358	0.0006
308.15	0.3079	0.5593	0.00364	0.0006
323.15	0.3634	0.476	0.0037	0.0006
313.15	0.3344	0.5196	0.00387	0.0006
303.15	0.3079	0.5593	0.00405	0.0006
318.15	0.3634	0.476	0.0041	0.0006
308.15	0.3344	0.5196	0.00428	0.0006
323.15	0.3953	0.4282	0.00432	0.0006
298.15	0.3079	0.5593	0.00451	0.0006
313.15	0.3634	0.476	0.00453	0.0006
303.15	0.3344	0.5196	0.00478	0.0006
318.15	0.3953	0.4282	0.0048	0.0006
308.15	0.3634	0.476	0.00505	0.0006
323.15	0.4305	0.3754	0.00506	0.0006
313.15	0.3953	0.4282	0.00534	0.0006
298.15	0.3344	0.5196	0.00535	0.0006
318.15	0.4305	0.3754	0.00566	0.0006
303.15	0.3634	0.476	0.00566	0.0006
323.15	0.4618	0.3267	0.00578	0.0006
308.15	0.3953	0.4282	0.00597	0.0006
313.15	0.4305	0.3754	0.00632	0.0006
298.15	0.3634	0.476	0.00638	0.0006
318.15	0.4618	0.3267	0.00648	0.0006
323.15	0.496	0.2734	0.00663	0.0006
303.15	0.3953	0.4282	0.00673	0.0006
308.15	0.4305	0.3754	0.0071	0.0006
313.15	0.4618	0.3267	0.00727	0.0006
318.15	0.496	0.2734	0.00746	0.0006
323.15	0.5316	0.2476	0.00759	0.00061
298.15	0.3953	0.4282	0.00763	0.0006
303.15	0.4305	0.3754	0.00804	0.00061
308.15	0.4618	0.3267	0.00821	0.00061
313.15	0.496	0.2734	0.0084	0.00061
318.15	0.5316	0.2476	0.00856	0.00061
323.15	0.5682	0.2221	0.00864	0.00061
298.15	0.4305	0.3754	0.00918	0.00061
303.15	0.4618	0.3267	0.00933	0.00061
308.15	0.496	0.2734	0.00953	0.00061
313.15	0.5316	0.2476	0.00968	0.00061
318.15	0.5682	0.2221	0.00978	0.00061
323.15	0.6098	0.1706	0.00994	0.00061
298.15	0.4618	0.3267	0.01072	0.00081
323.15	0.6369	0.1591	0.01085	0.00081
303.15	0.496	0.2734	0.01089	0.00081
308.15	0.5316	0.2476	0.01104	0.00081
313.15	0.5682	0.2221	0.01112	0.00081
318.15	0.6098	0.1706	0.01129	0.00081
323.15	0.6778	0.1324	0.0123	0.00081
318.15	0.6369	0.1591	0.01235	0.00081
298.15	0.496	0.2734	0.01259	0.00081
303.15	0.5316	0.2476	0.01269	0.00081
308.15	0.5682	0.2221	0.01275	0.00081
313.15	0.6098	0.1706	0.01291	0.00081
323.15	0.7035	0.1252	0.01327	0.00081
318.15	0.6778	0.1324	0.01407	0.00081
313.15	0.6369	0.1591	0.01418	0.00081
323.15	0.7318	0.1042	0.0144	0.00082
303.15	0.5682	0.2221	0.01474	0.00082
298.15	0.5316	0.2476	0.01475	0.00081
308.15	0.6098	0.1706	0.01489	0.00082
318.15	0.7035	0.1252	0.01522	0.00082
323.15	0.7659	0.0894	0.01583	0.00082
313.15	0.6778	0.1324	0.01624	0.00082
308.15	0.6369	0.1591	0.01641	0.00082
318.15	0.7318	0.1042	0.01656	0.00082
323.15	0.7913	0.0731	0.01695	0.00082
298.15	0.5682	0.2221	0.01724	0.00082
303.15	0.6098	0.1706	0.01733	0.00082
313.15	0.7035	0.1252	0.01763	0.00082
318.15	0.7659	0.0894	0.01828	0.00083
308.15	0.6778	0.1324	0.0189	0.00083
303.15	0.6369	0.1591	0.01919	0.00083
313.15	0.7318	0.1042	0.01926	0.00083
318.15	0.7913	0.0731	0.01964	0.00083
298.15	0.6098	0.1706	0.0204	0.00083
308.15	0.7035	0.1252	0.02059	0.00083
313.15	0.7659	0.0894	0.02136	0.00084
303.15	0.6778	0.1324	0.02226	0.00084
308.15	0.7318	0.1042	0.02258	0.00084
298.15	0.6369	0.1591	0.02269	0.00084
313.15	0.7913	0.0731	0.02303	0.00084
303.15	0.7035	0.1252	0.02437	0.00084
308.15	0.7659	0.0894	0.02516	0.00085
298.15	0.6778	0.1324	0.0265	0.00085
303.15	0.7318	0.1042	0.02686	0.00086
308.15	0.7913	0.0731	0.02722	0.00086
298.15	0.7035	0.1252	0.02912	0.00086
303.15	0.7659	0.0894	0.03013	0.00087
298.15	0.7318	0.1042	0.03224	0.00088
303.15	0.7913	0.0731	0.03277	0.00089
298.15	0.7659	0.0894	0.03635	0.0009
298.15	0.7913	0.0731	0.03967	0.00092
