Measured thermophysical data. Measurement and Correlation of Phase Equilibria of Ammonium, Calcium, Aluminum, and Chloride in Aqueous Solution at 298.15 K
Source: J. Chem. Eng. Data, 2019, 10.1021/acs.jced.9b00299
Compound 1: ammonium chloride (NH4Cl), ClH4N, InChI=1S/ClH.H3N/h1H;1H3, purity 99%
Compound 2: calcium chloride, CaCl2, InChI=1S/Ca.2ClH/h;2*1H/q+2;;/p-2, purity 99%
Compound 3: aluminum chloride, AlCl3, InChI=1S/Al.3ClH/h;3*1H/q+3;;;/p-3, purity 99%
Compound 4: water, H2O, InChI=1S/H2O/h1H2, purity 99.9%

System: calcium chloride + ammonium chloride (NH4Cl) + water; phases: Liquid, Crystal
Property: Mass fraction of ammonium chloride (NH4Cl) (Liquid); method: titration and spectrometry
Mass fraction of calcium chloride	Temperature, K	Pressure, kPa	Mass fraction of ammonium chloride (NH4Cl)	uncertainty
0.4164	298.15	100	0.0539	0.01

System: calcium chloride + ammonium chloride (NH4Cl) + water; phases: Liquid, Crystal of intercomponent compound 1
Property: Mass fraction of ammonium chloride (NH4Cl) (Liquid); method: titration and spectrometry
Mass fraction of calcium chloride	Temperature, K	Pressure, kPa	Mass fraction of ammonium chloride (NH4Cl)	uncertainty
0.4164	298.15	100	0.0539	0.01

System: calcium chloride + ammonium chloride (NH4Cl) + water; phases: Liquid
Property: Mass density, kg/m3 (Liquid); method: Pycnometric method
Mass fraction of calcium chloride	Mass fraction of ammonium chloride (NH4Cl)	Pressure, kPa	Temperature, K	Mass density, kg/m3	uncertainty
0.4164	0.0539	100	298.15	1381.5	1.8

System: calcium chloride + ammonium chloride (NH4Cl) + water; phases: Liquid
Property: Refractive index (Na D-line) (Liquid); method: Standard Abbe refractometry
Mass fraction of calcium chloride	Mass fraction of ammonium chloride (NH4Cl)	Pressure, kPa	Temperature, K	Refractive index (Na D-line)	uncertainty
0.4164	0.0539	100	298.15	1.455	0.0004

System: calcium chloride + aluminum chloride + water; phases: Liquid, Crystal of intercomponent compound 1
Property: Mass fraction of aluminum chloride (Liquid); method: titration and spectrometry
Mass fraction of calcium chloride	Temperature, K	Pressure, kPa	Mass fraction of aluminum chloride	uncertainty
0.4232	298.15	100	0.0237	0.006

System: calcium chloride + aluminum chloride + water; phases: Liquid, Crystal of intercomponent compound 2
Property: Mass fraction of aluminum chloride (Liquid); method: titration and spectrometry
Mass fraction of calcium chloride	Temperature, K	Pressure, kPa	Mass fraction of aluminum chloride	uncertainty
0.4232	298.15	100	0.0237	0.006

System: calcium chloride + aluminum chloride + water; phases: Liquid
Property: Mass density, kg/m3 (Liquid); method: Pycnometric method
Mass fraction of calcium chloride	Mass fraction of aluminum chloride	Pressure, kPa	Temperature, K	Mass density, kg/m3	uncertainty
0.4232	0.0237	100	298.15	1443.6	1.4

System: calcium chloride + aluminum chloride + water; phases: Liquid
Property: Refractive index (Na D-line) (Liquid); method: Standard Abbe refractometry
Mass fraction of calcium chloride	Mass fraction of aluminum chloride	Pressure, kPa	Temperature, K	Refractive index (Na D-line)	uncertainty
0.4232	0.0237	100	298.15	1.4551	0.0004

System: ammonium chloride (NH4Cl) + aluminum chloride + water; phases: Liquid, Crystal
Property: Mass fraction of aluminum chloride (Liquid); method: titration and spectrometry
Mass fraction of ammonium chloride (NH4Cl)	Temperature, K	Pressure, kPa	Mass fraction of aluminum chloride	uncertainty
0.0349	298.15	100	0.2848	0.006

System: ammonium chloride (NH4Cl) + aluminum chloride + water; phases: Liquid, Crystal of intercomponent compound 1
Property: Mass fraction of aluminum chloride (Liquid); method: titration and spectrometry
Mass fraction of ammonium chloride (NH4Cl)	Temperature, K	Pressure, kPa	Mass fraction of aluminum chloride	uncertainty
0.0349	298.15	100	0.2848	0.006

System: ammonium chloride (NH4Cl) + aluminum chloride + water; phases: Liquid
Property: Mass density, kg/m3 (Liquid); method: Pycnometric method
Mass fraction of ammonium chloride (NH4Cl)	Mass fraction of aluminum chloride	Pressure, kPa	Temperature, K	Mass density, kg/m3	uncertainty
0.0349	0.2848	100	298.15	1306.2	1.7

System: ammonium chloride (NH4Cl) + aluminum chloride + water; phases: Liquid
Property: Refractive index (Na D-line) (Liquid); method: Standard Abbe refractometry
Mass fraction of ammonium chloride (NH4Cl)	Mass fraction of aluminum chloride	Pressure, kPa	Temperature, K	Refractive index (Na D-line)	uncertainty
0.0349	0.2848	100	298.15	1.4379	0.0004
