Measured thermophysical data. Liquid-Liquid Equilibrium Data, Density, Viscosity, and Interfacial Tension of Ternary System (Toluene-Acetic Acid-Water) at 298.15 K: Experiment and Correlation
Source: J. Chem. Eng. Data, 2017, 10.1021/acs.jced.7b00505
Compound 1: toluene, C7H8, InChI=1S/C7H8/c1-7-5-3-2-4-6-7/h2-6H,1H3
Compound 2: acetic acid, C2H4O2, InChI=1S/C2H4O2/c1-2(3)4/h1H3,(H,3,4)
Compound 3: water, H2O, InChI=1S/H2O/h1H2, purity 99.8%

System: toluene; phases: Liquid
Property: Viscosity, Pa*s (Liquid); method: Capillary tube (Ostwald; Ubbelohde) method
Temperature, K	Pressure, kPa	Viscosity, Pa*s	uncertainty
298.15	101	0.000554	4.02e-05

System: toluene; phases: Liquid
Property: Mass density, kg/m3 (Liquid); method: Vibrating tube method
Temperature, K	Pressure, kPa	Mass density, kg/m3	uncertainty
298.15	101.7	860.8	2

System: water; phases: Liquid
Property: Viscosity, Pa*s (Liquid); method: Capillary tube (Ostwald; Ubbelohde) method
Temperature, K	Pressure, kPa	Viscosity, Pa*s	uncertainty
298.15	101.7	0.0008958	4.06e-05

System: water; phases: Liquid
Property: Mass density, kg/m3 (Liquid); method: Vibrating tube method
Temperature, K	Pressure, kPa	Mass density, kg/m3	uncertainty
298.15	101.7	997	0.3

System: toluene + acetic acid + water; phases: Liquid
Fixed: Temperature, K = 298.15
Fixed: Pressure, kPa = 101.7
Property: Viscosity, Pa*s (Liquid); method: Capillary tube (Ostwald; Ubbelohde) method
Mass fraction of toluene	Mass fraction of acetic acid	Viscosity, Pa*s	uncertainty
0	0	0.0008958	4.06e-05
0	0.0809	0.0009999	4.07e-05
0	0.1395	0.0010775	4.08e-05
0.0001	0.2094	0.001175	4.09e-05
0.0008	0.2616	0.0012586	4.1e-05
0.0025	0.3072	0.001336	4.11e-05
0.004	0.3521	0.0014187	4.12e-05
0.0055	0.3909	0.001495	4.14e-05
0.0068	0.4258	0.001553	4.14e-05
0.0083	0.4586	0.001615	4.15e-05
0.0101	0.4908	0.0016802	4.16e-05
0.0119	0.517	0.0017309	4.16e-05
0.0142	0.5468	0.0017995	4.18e-05
0.0166	0.5705	0.0018552	4.18e-05
0.0196	0.5923	0.0019053	4.18e-05
0.0233	0.6115	0.0019358	4.18e-05
0.0275	0.6287	0.0019652	4.19e-05
0.0325	0.6446	0.0019804	4.2e-05
0.0376	0.6585	0.0019862	4.19e-05
0.0429	0.6714	0.0019802	4.19e-05
0.0494	0.6831	0.0019683	4.18e-05
0.057	0.6934	0.0019556	4.18e-05
0.0627	0.7025	0.0019251	4.17e-05
0.076	0.7052	0.0019041	4.16e-05
0.0971	0.7043	0.0018543	4.17e-05
0.1555	0.7008	0.0016702	4.16e-05
1	0	0.000554	4.02e-05
0.9957	0.0043	0.0005531	4.02e-05
0.9921	0.0078	0.0005528	4.02e-05
0.9861	0.0133	0.0005448	6.41e-05
0.9794	0.0199	0.0005461	4.02e-05
0.9715	0.0277	0.0005462	4.02e-05
0.9634	0.0357	0.0005443	4.02e-05
0.9554	0.0436	0.0005438	4.02e-05
0.9478	0.0512	0.0005442	4.19e-05
0.9399	0.059	0.0005441	4.02e-05
0.9303	0.0685	0.0005403	4.02e-05
0.9215	0.0772	0.0005409	4.02e-05
0.9101	0.0885	0.0005428	4.02e-05
0.8997	0.0987	0.0005443	4.05e-05
0.8888	0.1095	0.0005461	4.09e-05
0.8774	0.1205	0.000547	4.02e-05
0.8652	0.1324	0.0005479	5.17e-05
0.8512	0.1458	0.0005452	4.02e-05
0.8353	0.161	0.0005478	4.02e-05
0.8176	0.1778	0.0005537	4.02e-05
0.8012	0.1934	0.0005568	4.02e-05
0.786	0.2077	0.0005604	4.02e-05
0.7611	0.231	0.0005672	4.02e-05
0.728	0.2622	0.0005834	4.03e-05
0.7124	0.2766	0.000593	4.03e-05
0.6763	0.3096	0.0006203	4.03e-05
0.4268	0.5185	0.000902	4.06e-05

System: toluene + acetic acid + water; phases: Liquid
Fixed: Temperature, K = 298.15
Fixed: Pressure, kPa = 101.7
Property: Mass density, kg/m3 (Liquid); method: Vibrating tube method
Mass fraction of toluene	Mass fraction of acetic acid	Mass density, kg/m3	uncertainty
0	0	997	1
0	0.0809	1007.5	1
0	0.1395	1015	1
0.0001	0.2094	1024.5	1
0.0008	0.2616	1030.2	1
0.0025	0.3072	1034.8	1.1
0.004	0.3521	1039.2	1.1
0.0055	0.3909	1043	1.1
0.0068	0.4258	1045.8	1.1
0.0083	0.4586	1048.5	1.1
0.0101	0.4908	1051.5	1.1
0.0119	0.517	1051.9	1.1
0.0142	0.5468	1052.8	1.1
0.0166	0.5705	1053.9	1.1
0.0196	0.5923	1054	1.1
0.0233	0.6115	1054.1	1.1
0.0275	0.6287	1053.8	1.1
0.0325	0.6446	1052.5	1.1
0.0376	0.6585	1051.4	1.1
0.0429	0.6714	1050.3	1.1
0.0494	0.6831	1048.1	1.1
0.057	0.6934	1045.8	1.3
0.0627	0.7025	1041.8	1.2
0.076	0.7052	1039	1.3
0.0971	0.7043	1025.2	1.1
0.1555	0.7008	1022.1	1
1	0	860.8	1
0.9957	0.0043	860.8	1
0.9921	0.0078	861.2	1
0.9861	0.0133	861.8	1.4
0.9794	0.0199	862.3	1
0.9715	0.0277	863.2	1
0.9634	0.0357	863.9	1.1
0.9554	0.0436	865.1	1.1
0.9478	0.0512	866.1	5.4
0.9399	0.059	866.9	1
0.9303	0.0685	868	1.1
0.9215	0.0772	869.2	1
0.9101	0.0885	870.5	1.1
0.8997	0.0987	871.9	2.8
0.8888	0.1095	873.5	1.1
0.8774	0.1205	875.2	1.1
0.8652	0.1324	877	1.1
0.8512	0.1458	879	1.1
0.8353	0.161	881.1	1
0.8176	0.1778	883.4	1.1
0.8012	0.1934	885.9	1.1
0.786	0.2077	888.5	1.1
0.7611	0.231	892	1.1
0.728	0.2622	898	1.1
0.7124	0.2766	900.8	1.1
0.6763	0.3096	907.5	1.1
0.4268	0.5185	952.2	1.1

System: toluene + acetic acid + water; phases: Liquid mixture 1, Liquid mixture 2
Fixed: Temperature, K = 298.15
Property: Interfacial tension, N/m (Liquid mixture 1); method: Pendant drop shape
Mass fraction of toluene	Mass fraction of acetic acid	Interfacial tension, N/m	uncertainty
0	0	0.0362	0.0036245
0	0.0809	0.0272	0.002726
0	0.1395	0.0253357	0.0025366
0.0001	0.2094	0.02307	0.0023098
0.0008	0.2616	0.0206112	0.0020641
0.0025	0.3072	0.0186107	0.001864
0.004	0.3521	0.0168092	0.0016836
0.0055	0.3909	0.015306	0.001533
0.0068	0.4258	0.0141736	0.0014195
0.0083	0.4586	0.0132309	0.001325
0.0101	0.4908	0.0123449	0.0012366
0.0119	0.517	0.0113839	0.0011406
0.0142	0.5468	0.0105327	0.0010557
0.0166	0.5705	0.0095276	0.0009559
0.0196	0.5923	0.008728	0.0008758
0.0233	0.6115	0.0080244	0.0008063
0.0275	0.6287	0.006989	0.0007054
0.0325	0.6446	0.00619	0.0006237
0.0376	0.6585	0.005503	0.0005564
0.0429	0.6714	0.004795	0.0004865
0.0494	0.6831	0.003892	0.0004057
0.057	0.6934	0.003488	0.0003558
0.0627	0.7025	0.00302	0.0003117
0.076	0.7052	0.002412	0.000254
0.0971	0.7043	0.002065	0.0002219
0.1555	0.7008	0.001325	0.0001505
1	0	0.0326	0.0032641
0.9957	0.0043	0.0272	0.0028466
0.9921	0.0078	0.0253357	0.0026686
0.9861	0.0133	0.02307	0.0024677
0.9794	0.0199	0.0206112	0.0021455
0.9715	0.0277	0.0186107	0.0019017
0.9634	0.0357	0.0168092	0.0017095
0.9554	0.0436	0.015306	0.0015508
0.9478	0.0512	0.0141736	0.0053304
0.9399	0.059	0.0132309	0.001335
0.9303	0.0685	0.0123449	0.0012482
0.9215	0.0772	0.0113839	0.0011485
0.9101	0.0885	0.0105327	0.0010657
0.8997	0.0987	0.0095276	0.005384
0.8888	0.1095	0.008728	0.001278
0.8774	0.1205	0.0080244	0.0049013
0.8652	0.1324	0.006989	0.003381
0.8512	0.1458	0.00619	0.0006247
0.8353	0.161	0.005503	0.0005626
0.8176	0.1778	0.004795	0.0005004
0.8012	0.1934	0.003892	0.0003919
0.786	0.2077	0.003488	0.0003622
0.7611	0.231	0.00302	0.000314
0.728	0.2622	0.002412	0.000258
0.7124	0.2766	0.002065	0.0002258
0.6763	0.3096	0.001325	0.0001604

System: toluene + acetic acid + water; phases: Liquid mixture 1, Liquid mixture 2
Fixed: Temperature, K = 298.15
Fixed: Pressure, kPa = 101.7
Property: Mass fraction of acetic acid (Liquid mixture 1); method: Titration method
Property: Mass fraction of acetic acid (Liquid mixture 2); method: Titration method
Property: Mass fraction of toluene (Liquid mixture 2); method: Titration method
Mass fraction of toluene	Mass fraction of acetic acid	uncertainty	Mass fraction of acetic acid	uncertainty	Mass fraction of toluene	uncertainty
0	0.0809	0.0028	0.0043	0.0022	0.9957	
0.0101	0.4908	0.0301	0.0685	0.003	0.9303	
0.0119	0.517	0.0264	0.0772	0.0031	0.9215	
0.0142	0.5468	0.023	0.0885	0.0034	0.9101	
0.0166	0.5705	0.0189	0.0987	0.0036	0.8997	
0.0196	0.5923	0.0159	0.1095	0.0038	0.8888	
0.0233	0.6115	0.0141	0.1205	0.0041	0.8774	
0.0275	0.6287	0.0129	0.1324	0.0044	0.8652	
0.0325	0.6446	0.012	0.1458	0.0048	0.8512	
0.0376	0.6585	0.0114	0.161	0.0052	0.8353	
0.0429	0.6714	0.0107	0.1778	0.0057	0.8176	
0	0.1395	0.0043	0.0078	0.0022	0.9921	
0.0494	0.6831	0.0101	0.1934	0.0062	0.8012	
0.057	0.6934	0.0098	0.2077	0.0066	0.786	
0.0627	0.7025	0.0093	0.231	0.0073	0.7611	
0.076	0.7052	0.0091	0.2622	0.0083	0.728	
0.0971	0.7043	0.0092	0.2766	0.0087	0.7124	
0.1555	0.7008	0.0093	0.3096	0.0097	0.6763	
0.0001	0.2094	0.0077	0.0133	0.0022	0.9861	
0.0008	0.2616	0.0229	0.0199	0.0023	0.9794	
0.0025	0.3072	0.0451	0.0277	0.0024	0.9715	
0.004	0.3521	0.0452	0.0357	0.0025	0.9634	
0.0055	0.3909	0.0435	0.0436	0.0026	0.9554	
0.0068	0.4258	0.0386	0.0512	0.0027	0.9478	
0.0083	0.4586	0.0379	0.059	0.0028	0.9399	
0.4268	0.5185	0.015	0.5185	0.015	0.4268	

System: toluene + water; phases: Liquid mixture 1, Liquid mixture 2
Property: Interfacial tension, N/m (Liquid mixture 1); method: Pendant drop shape
Temperature, K	Pressure, kPa	Interfacial tension, N/m	uncertainty
298.15	101.7	0.0362	0.003625
