Measured thermophysical data. Excess Partial Molar Enthalpies of 3-Ethoxypropan-1-amine and 3-Butoxypropan-1-amine in Water at 298.15 K
Source: J. Chem. Eng. Data, 2018, 10.1021/acs.jced.7b00900
Compound 1: 3-ethoxy-1-propanamine, C5H13NO, InChI=1S/C5H13NO/c1-2-7-5-3-4-6/h2-6H2,1H3, purity 99%
Compound 2: 3-butoxy-1-propanamine, C7H17NO, InChI=1S/C7H17NO/c1-2-3-6-9-7-4-5-8/h2-8H2,1H3, purity 99%
Compound 3: water, H2O, InChI=1S/H2O/h1H2, purity 99.9%

System: water + 3-ethoxy-1-propanamine; phases: Liquid
Fixed: Pressure, kPa = 100
Fixed: Temperature, K = 298.15
Property: Partial molar enthalpy, kJ/mol of 3-ethoxy-1-propanamine (Liquid); method: isoperibol calorimeter
Mole fraction of 3-ethoxy-1-propanamine	Partial molar enthalpy, kJ/mol of 3-ethoxy-1-propanamine	uncertainty
0	-27.54	0.22
0.00043	-28.71	0.35
0.00163	-29.9	0.28
0.00298	-30.67	0.25
0.00426	-30.55	0.25
0.00559	-30.16	0.25
0.00716	-29.7	0.25
0.00815	-29.15	0.25
0.01034	-28.2	0.24
0.01222	-27.5	0.23
0.01615	-26.5	0.22
0.02287	-24.85	0.2
0.02939	-23.79	0.19
0.03969	-22.48	0.18

System: water + 3-butoxy-1-propanamine; phases: Liquid
Fixed: Pressure, kPa = 100
Fixed: Temperature, K = 298.15
Property: Partial molar enthalpy, kJ/mol of 3-butoxy-1-propanamine (Liquid); method: isoperibol calorimeter
Mole fraction of 3-butoxy-1-propanamine	Partial molar enthalpy, kJ/mol of 3-butoxy-1-propanamine	uncertainty
0	-30.52	0.24
0.00223	-29.5	0.26
0.003	-28.94	0.36
0.00495	-25.84	0.27
0.00837	-23.97	0.24
0.01011	-21.77	0.31
0.02006	-16.43	0.15
0.03078	-15.04	0.12
0.06074	-13.91	0.11
0.07677	-13.01	0.1
