Measured thermophysical data. Solubility Data as a Response for a Challenge for Formulation Chemists: Imidazolium-Based Ionic Liquids and Antitubercular Antibiotic Medicines
Source: J. Chem. Eng. Data, 2016, 10.1021/acs.jced.6b00201
Compound 1: isonicotinic acid hydrazide, C6H7N3O, InChI=1S/C6H7N3O/c7-9-6(10)5-1-3-8-4-2-5/h1-4H,7H2,(H,9,10), purity 99%
Compound 2: pyrazinecarboxamide, C5H5N3O, InChI=1S/C5H5N3O/c6-5(9)4-3-7-1-2-8-4/h1-3H,(H2,6,9), purity 99%
Compound 3: 1-butyl-3-methylimidazolium tetrafluoroborate, C8H15BF4N2, InChI=1S/C8H15N2.BF4/c1-3-4-5-10-7-6-9(2)8-10;2-1(3,4)5/h6-8H,3-5H2,1-2H3;/q+1;-1, purity 95%
Compound 4: 1-butyl-3-methylimidazolium hexafluorophosphate, C8H15F6N2P, InChI=1S/C8H15N2.F6P/c1-3-4-5-10-7-6-9(2)8-10;1-7(2,3,4,5)6/h6-8H,3-5H2,1-2H3;/q+1;-1, purity 95%
Compound 5: 1-butyl-3-methylimidazolium trifluoromethanesulfonate, C9H15F3N2O3S, InChI=1S/C8H15N2.CHF3O3S/c1-3-4-5-10-7-6-9(2)8-10;2-1(3,4)8(5,6)7/h6-8H,3-5H2,1-2H3;(H,5,6,7)/q+1;/p-1, purity 95%
Compound 6: 1-octyl-3-methylimidazolium trifluoromethanesulfonate, C13H23F3N2O3S, InChI=1S/C12H23N2.CHF3O3S/c1-3-4-5-6-7-8-9-14-11-10-13(2)12-14;2-1(3,4)8(5,6)7/h10-12H,3-9H2,1-2H3;(H,5,6,7)/q+1;/p-1, purity 95%

System: isonicotinic acid hydrazide; phases: Crystal, Liquid, Air at 1 atmosphere
Property: Normal melting temperature, K (Crystal); method: VISOBS
Normal melting temperature, K	uncertainty
445.84	2.01

System: pyrazinecarboxamide; phases: Crystal, Liquid, Air at 1 atmosphere
Property: Normal melting temperature, K (Crystal); method: VISOBS
Normal melting temperature, K	uncertainty
461.42	0.16

System: 1-butyl-3-methylimidazolium tetrafluoroborate; phases: Glass, Liquid, Air at 1 atmosphere
Property: Triple point temperature, K (Glass); method: DSC
Triple point temperature, K	uncertainty
189.25	8.03

System: 1-butyl-3-methylimidazolium hexafluorophosphate; phases: Glass, Liquid, Air at 1 atmosphere
Property: Triple point temperature, K (Glass); method: DSC
Triple point temperature, K	uncertainty
198.87	1.22

System: 1-butyl-3-methylimidazolium hexafluorophosphate; phases: Crystal 1, Liquid, Air at 1 atmosphere
Property: Triple point temperature, K (Crystal 1); method: DSC
Triple point temperature, K	uncertainty
286.46	1.22

System: 1-butyl-3-methylimidazolium hexafluorophosphate; phases: Crystal 1, Liquid, Air at 1 atmosphere
Property: Molar enthalpy of transition or fusion, kJ/mol (Crystal 1); method: DSC
Molar enthalpy of transition or fusion, kJ/mol	uncertainty
11.43	0.35

System: 1-butyl-3-methylimidazolium trifluoromethanesulfonate; phases: Crystal, Liquid, Air at 1 atmosphere
Property: Triple point temperature, K (Crystal); method: DSC
Triple point temperature, K	uncertainty
291.46	1.22

System: 1-butyl-3-methylimidazolium trifluoromethanesulfonate; phases: Crystal, Liquid, Air at 1 atmosphere
Property: Molar enthalpy of transition or fusion, kJ/mol (Crystal); method: DSC
Molar enthalpy of transition or fusion, kJ/mol	uncertainty
20.18	0.59

System: 1-octyl-3-methylimidazolium trifluoromethanesulfonate; phases: Crystal, Liquid, Air at 1 atmosphere
Property: Triple point temperature, K (Crystal); method: DSC
Triple point temperature, K	uncertainty
283.51	1.22

System: 1-octyl-3-methylimidazolium trifluoromethanesulfonate; phases: Crystal 1, Liquid, Air at 1 atmosphere
Property: Molar enthalpy of transition or fusion, kJ/mol (Crystal 1); method: DSC
Molar enthalpy of transition or fusion, kJ/mol	uncertainty
24.11	0.69

System: isonicotinic acid hydrazide + 1-butyl-3-methylimidazolium tetrafluoroborate; phases: Liquid, Crystal
Fixed: Pressure, kPa = 101
Property: Solid-liquid equilibrium temperature, K (Liquid); method: VISOBS
Mole fraction of isonicotinic acid hydrazide	Solid-liquid equilibrium temperature, K	uncertainty
0.0409	293.68	2.01
0.0422	294.68	2.01
0.045	296.73	2.01
0.0612	306.59	2.01
0.0747	312.93	2.01
0.1135	326.34	2.01
0.1269	329.91	2.01
0.1428	333.68	2.01
0.1461	334.42	2.01
0.1544	336.2	2.01
0.1599	337.31	2.01
0.1692	339.13	2.01
0.1815	341.37	2.01
0.1855	342.06	2.01
0.2082	345.75	2.01
0.2123	346.38	2.01
0.2442	350.86	2.01
0.2535	352.06	2.01
0.2754	354.71	2.01
0.3299	360.49	2.01
0.3374	361.21	2.01
0.4058	367.12	2.01
0.4067	367.19	2.01
0.4213	368.32	2.01
0.4525	370.61	2.01
0.4681	371.69	2.01
0.474	372.09	2.01
0.4981	373.68	2.01
0.528	375.55	2.01
0.561	377.48	2.01
0.5812	378.62	2.01
0.6095	380.14	2.01
0.6377	381.59	2.01
0.6925	384.23	2.01
0.7299	385.91	2.01
0.7477	386.68	2.01
0.7859	388.28	2.01
0.8107	389.27	2.01
0.8286	389.97	2.01
0.8665	391.4	2.01
0.8944	392.42	2.01
0.9246	393.48	2.01
0.9529	394.45	2.12
1	445.84	2.01

System: isonicotinic acid hydrazide + 1-butyl-3-methylimidazolium trifluoromethanesulfonate; phases: Liquid, Crystal
Fixed: Pressure, kPa = 101
Property: Solid-liquid equilibrium temperature, K (Liquid); method: VISOBS
Mole fraction of isonicotinic acid hydrazide	Solid-liquid equilibrium temperature, K	uncertainty
0.0213	301.45	2.01
0.0239	302.02	2.01
0.0264	305.46	2.01
0.0347	315.28	2.01
0.0496	327.94	2.01
0.0742	342.24	2.01
0.1024	353.69	2.01
0.1286	361.79	2.01
0.1678	371.25	2.01
0.1692	371.55	2.01
0.1764	373.01	2.01
0.1919	376.01	2.01
0.1945	376.49	2.01
0.2092	379.08	2.01
0.2188	380.68	2.01
0.2514	386.11	2.01
0.264	387.36	2.01
0.2824	389.75	2.01
0.3244	394.68	2.01
0.3439	396.75	2.01
0.3981	401.96	2.01
0.4239	404.19	2.01
0.4805	408.64	2.01
0.4979	409.91	2.01
0.5217	411.56	2.01
0.535	412.46	2.01
0.5536	413.67	2.01
0.5606	414.12	2.01
0.5879	415.81	2.01
0.5912	416.01	2.01
1	445.84	2.01

System: isonicotinic acid hydrazide + 1-butyl-3-methylimidazolium hexafluorophosphate; phases: Liquid, Crystal
Fixed: Pressure, kPa = 101
Property: Solid-liquid equilibrium temperature, K (Liquid); method: VISOBS
Mole fraction of isonicotinic acid hydrazide	Solid-liquid equilibrium temperature, K	uncertainty
0.0245	290.37	2.01
0.0256	295.46	2.01
0.0323	297.68	2.01
0.0347	300.39	2.01
0.0566	318.75	2.01
0.0809	332.16	2.01
0.1282	349.44	2.01
0.1505	355.47	2.01
0.1687	359.76	2.01
0.1764	361.42	2.01
0.1829	362.78	2.01
0.1894	364.09	2.01
0.1946	365.11	2.01
0.2004	366.22	2.01
0.215	368.84	2.01
0.2206	369.81	2.01
0.2368	372.46	2.01
0.2665	376.82	2.01
0.2805	378.82	2.01
0.3003	381.38	2.01
0.3461	386.71	2.01
0.3995	392.1	2.01
0.4258	394.49	2.01
0.4816	399.11	2.01
0.4989	400.43	2.01
0.5226	402.18	2.01
0.5359	403.11	2.01
0.5544	404.39	2.01
0.5614	404.86	2.01
0.5886	406.63	2.01
0.6253	408.9	2
0.6883	412.5	2
0.7218	414.29	2.01
0.7353	414.98	2.01
1	445.84	2.01

System: isonicotinic acid hydrazide + 1-octyl-3-methylimidazolium trifluoromethanesulfonate; phases: Liquid, Crystal
Fixed: Pressure, kPa = 101
Property: Solid-liquid equilibrium temperature, K (Liquid); method: VISOBS
Mole fraction of isonicotinic acid hydrazide	Solid-liquid equilibrium temperature, K	uncertainty
0.0223	297.84	0.16
0.0251	302.24	0.16
0.0259	303.48	0.16
0.0289	307.54	0.16
0.0312	310.52	0.16
0.0328	312.3	0.16
0.0376	317.43	0.16
0.0485	327.02	0.16
0.0501	328.24	0.16
0.0787	345.21	0.16
0.1058	356.33	0.16
0.1395	366.75	0.16
0.1723	374.69	0.16
0.1801	376.34	0.16
0.2148	382.98	0.16
0.2313	385.76	0.16
0.2478	388.35	0.16
0.2626	390.54	0.16
0.2734	392.04	0.16
0.3258	398.64	0.16
0.3294	399.06	0.16
0.3354	399.73	0.16
0.3678	403.2	0.16
0.4124	407.5	0.2
0.4476	410.59	0.16
0.468	412.26	0.16
0.4999	414.74	0.16
0.5126	415.68	0.16
0.5189	416.15	0.16
1	445.84	0.16

System: pyrazinecarboxamide + 1-butyl-3-methylimidazolium tetrafluoroborate; phases: Liquid, Crystal
Fixed: Pressure, kPa = 101
Property: Solid-liquid equilibrium temperature, K (Liquid); method: VISOBS
Mole fraction of pyrazinecarboxamide	Solid-liquid equilibrium temperature, K	uncertainty
0.041	283.74	0.16
0.0423	284.74	0.16
0.0451	286.79	0.16
0.0614	296.65	0.16
0.0748	302.99	0.16
0.1137	316.4	0.16
0.1272	319.98	0.16
0.143	323.74	0.16
0.1464	324.49	0.16
0.1548	326.26	0.16
0.1602	327.37	0.16
0.1696	329.19	0.16
0.1819	331.43	0.16
0.1859	332.12	0.16
0.2086	335.81	0.16
0.2127	336.45	0.16
0.2447	340.92	0.16
0.254	342.12	0.16
0.2759	344.77	0.16
0.3305	350.55	0.16
0.338	351.27	0.16
0.4066	357.18	0.16
0.4075	357.25	0.16
0.4221	358.38	0.16
0.4534	360.67	0.16
0.4691	361.76	0.16
0.475	362.16	0.16
0.4991	363.75	0.16
0.529	365.61	0.16
0.5621	367.55	0.16
0.5823	368.68	0.16
0.6107	370.21	0.16
0.639	371.65	0.16
0.6939	374.29	0.16
0.7314	375.98	0.16
0.7492	376.75	0.16
0.7875	378.34	0.16
0.8123	379.34	0.16
0.8302	380.03	0.16
0.8683	381.47	0.16
0.8962	382.48	0.16
0.9264	383.54	0.16
0.9548	384.51	1.08
1	461.42	0.16

System: pyrazinecarboxamide + 1-butyl-3-methylimidazolium trifluoromethanesulfonate; phases: Liquid, Crystal
Fixed: Pressure, kPa = 101
Property: Solid-liquid equilibrium temperature, K (Liquid); method: VISOBS
Mole fraction of pyrazinecarboxamide	Solid-liquid equilibrium temperature, K	uncertainty
0.0249	300.48	0.16
0.0294	306.29	0.16
0.0355	313	0.16
0.0626	333.21	0.16
0.0874	345.07	0.16
0.1177	355.63	0.16
0.1496	364.16	0.16
0.1678	368.25	0.16
0.1724	369.21	0.16
0.1823	371.19	0.16
0.1888	372.44	0.16
0.1935	373.31	0.16
0.1999	374.47	0.16
0.2145	376.97	0.16
0.2223	378.24	0.16
0.2456	381.79	0.16
0.2657	384.58	0.16
0.289	387.57	0.16
0.3261	391.86	0.16
0.3456	393.93	0.16
0.3998	399.1	0.16
0.4256	401.33	0.16
0.4822	405.77	0.16
0.4996	407.03	0.16
0.5234	408.68	0.16
0.5367	409.57	0.16
0.553	410.78	0.16
0.5623	411.23	0.16
0.5896	412.91	0.16
0.6259	415.04	0.16
1	461.42	0.16

System: pyrazinecarboxamide + 1-butyl-3-methylimidazolium hexafluorophosphate; phases: Liquid, Crystal
Fixed: Pressure, kPa = 101
Property: Solid-liquid equilibrium temperature, K (Liquid); method: VISOBS
Mole fraction of pyrazinecarboxamide	Solid-liquid equilibrium temperature, K	uncertainty
0.0263	279.98	0.16
0.0313	286.5	0.16
0.0368	292.62	0.16
0.0645	313.68	0.16
0.0888	325.66	0.16
0.1196	336.83	0.16
0.1509	345.57	0.16
0.1697	349.98	0.16
0.1737	350.85	0.16
0.1836	352.93	0.16
0.1901	354.24	0.16
0.1954	355.26	0.16
0.2012	356.37	0.16
0.2158	358.99	0.16
0.2236	360.33	0.16
0.2475	364.13	0.16
0.267	366.98	0.16
0.2903	370.12	0.16
0.3274	374.63	0.16
0.3475	376.86	0.16
0.4011	382.25	0.16
0.4275	384.64	0.16
0.4835	389.26	0.16
0.5009	390.58	0.16
0.5247	392.33	0.16
0.538	393.26	0.16
0.5566	394.54	0.16
0.5636	395.01	0.16
0.5909	396.78	0.16
0.6278	399.05	0.16
0.691	402.65	0.16
0.7247	404.44	0.16
0.7583	406.14	0.16
0.7689	406.66	0.16
0.8234	409.23	0.16
0.889	412.11	0.32
1	461.42	0.16

System: pyrazinecarboxamide + 1-octyl-3-methylimidazolium trifluoromethanesulfonate; phases: Liquid, Crystal
Fixed: Pressure, kPa = 101
Property: Solid-liquid equilibrium temperature, K (Liquid); method: VISOBS
Mole fraction of pyrazinecarboxamide	Solid-liquid equilibrium temperature, K	uncertainty
0.0235	295.76	2.01
0.0289	303.54	2.01
0.0326	308.02	2.01
0.0398	315.56	2.01
0.0446	319.82	2.01
0.0492	323.55	2.01
0.0784	341.07	2.01
0.1128	354.77	2.01
0.1147	355.38	2.01
0.1323	360.75	2.01
0.1569	367.16	2.01
0.1884	374.04	2.01
0.2031	376.88	2.01
0.2245	380.64	2.01
0.2447	383.87	2.01
0.2687	387.39	2.01
0.3158	393.47	2.01
0.3254	394.6	2.01
0.3689	399.32	2.01
0.3878	401.2	2.01
0.4257	404.7	2.01
0.4567	407.35	2.01
0.4998	410.74	2.01
0.5099	411.49	2.01
0.5555	414.71	2.01
0.5623	417.05	2.01
1	461.42	2.01
