Measured thermophysical data. Solid-Liquid Phase Equilibria of Ternary System KBr-LiBr-H2O at 273 and 308 K
Source: J. Chem. Eng. Data, 2019, 10.1021/acs.jced.9b00517
Compound 1: lithium bromide, BrLi, InChI=1S/BrH.Li/h1H;/q;+1/p-1
Compound 2: potassium bromide, BrK, InChI=1S/BrH.K/h1H;/q;+1/p-1
Compound 3: water, H2O, InChI=1S/H2O/h1H2, purity 99.9%

System: lithium bromide + potassium bromide + water; phases: Liquid, Crystal
Fixed: Temperature, K = 273
Fixed: Pressure, kPa = 100
Property: Mass fraction of potassium bromide (Liquid); method: Titration method
Mass fraction of lithium bromide	Mass fraction of potassium bromide	uncertainty
0	0.3511	0.0036
0.0624	0.2821	0.0029
0.1283	0.2119	0.0023
0.1972	0.151	0.0018
0.2533	0.1106	0.0016
0.3023	0.0778	0.0012
0.3956	0.0398	0.001
0.4513	0.0224	0.0007
0.5149	0.0126	0.0003
0.5754	0.0107	0.0001

System: lithium bromide + potassium bromide + water; phases: Liquid, Crystal of intercomponent compound 1
Fixed: Temperature, K = 273
Fixed: Pressure, kPa = 100
Property: Mass fraction of potassium bromide (Liquid); method: Titration method
Mass fraction of lithium bromide	Mass fraction of potassium bromide	uncertainty
0.5754	0.0107	0.0107
0.5757	0.0082	0.0082
0.5761	0.0017	0.0017
0.5841	0	

System: lithium bromide + potassium bromide + water; phases: Liquid, Crystal
Fixed: Temperature, K = 308
Fixed: Pressure, kPa = 100
Property: Mass fraction of potassium bromide (Liquid); method: Titration method
Mass fraction of lithium bromide	Mass fraction of potassium bromide	uncertainty
0	0.4267	0.0044
0.0384	0.3798	0.0039
0.0773	0.3374	0.0035
0.1209	0.2887	0.0031
0.1796	0.2234	0.0025
0.2491	0.1611	0.0021
0.3023	0.1156	0.0018
0.3749	0.0681	0.0014
0.4361	0.0416	0.0009
0.509	0.0247	0.0004
0.6274	0.0213	0.0002

System: lithium bromide + potassium bromide + water; phases: Liquid, Crystal of intercomponent compound 1
Fixed: Temperature, K = 308
Fixed: Pressure, kPa = 100
Property: Mass fraction of potassium bromide (Liquid); method: Titration method
Mass fraction of lithium bromide	Mass fraction of potassium bromide	uncertainty
0.6274	0.0213	0.0039
0.6355	0.0071	0.0039
0.6393	0	

System: potassium bromide + water; phases: Liquid, Crystal
Fixed: Pressure, kPa = 100
Property: Mass fraction of potassium bromide (Liquid); method: Titration method
Temperature, K	Mass fraction of potassium bromide	uncertainty
273	0.3511	0.0036
308	0.4267	0.0044

System: lithium bromide + water; phases: Liquid, Crystal of intercomponent compound 1
Fixed: Pressure, kPa = 100
Property: Mass fraction of lithium bromide (Liquid); method: Titration method
Temperature, K	Mass fraction of lithium bromide	uncertainty
273	0.5841	
308	0.6393	
