Measured thermophysical data. Solubility Phase Equilibrium of the Quaternary Reciprocal System Ca2+, Mn2+//F-, SO42- + H2O at 298.15 K
Source: J. Chem. Eng. Data, 2019, 10.1021/acs.jced.9b00051
Compound 1: water, H2O, InChI=1S/H2O/h1H2, purity 99.9%
Compound 2: calcium fluoride, CaF2, InChI=1S/Ca.2FH/h;2*1H/q+2;;/p-2, purity 98.5%
Compound 3: manganese bifluoride, F2Mn, InChI=1S/2FH.Mn/h2*1H;/q;;+2/p-2, purity 99%
Compound 4: calcium sulfate, CaO4S, InChI=1S/Ca.H2O4S/c;1-5(2,3)4/h;(H2,1,2,3,4)/q+2;/p-2, purity 99%
Compound 5: manganese(II) sulfate, MnO4S, InChI=1S/Mn.H2O4S/c;1-5(2,3)4/h;(H2,1,2,3,4)/q+2;/p-2, purity 99%

System: calcium fluoride + manganese(II) sulfate + water; phases: Liquid, Crystal
Fixed: Pressure, kPa = 100
Fixed: Temperature, K = 298.15
Property: Molality, mol/kg of calcium fluoride (Liquid); method: multiple techniques
Molality, mol/kg of manganese(II) sulfate	Molality, mol/kg of calcium fluoride	uncertainty
0	0.000191	3.8e-05
0.091	0.000532	0.000106
0.3	0.000995	0.000199
0.697	0.00156	0.00031
1.185	0.00232	0.00046
2.199	0.00338	0.00068
3.131	0.00434	0.00087
4.267	0.00525	0.00105

System: calcium fluoride + manganese(II) sulfate + water; phases: Liquid, Crystal of intercomponent compound 1
Property: Molality, mol/kg of calcium fluoride (Liquid); method: multiple techniques
Molality, mol/kg of manganese(II) sulfate	Pressure, kPa	Temperature, K	Molality, mol/kg of calcium fluoride	uncertainty
4.267	100	298.15	0.00525	0.00105

System: manganese bifluoride + manganese(II) sulfate + water; phases: Liquid, Crystal
Fixed: Pressure, kPa = 100
Fixed: Temperature, K = 298.15
Property: Molality, mol/kg of manganese bifluoride (Liquid); method: multiple techniques
Molality, mol/kg of manganese(II) sulfate	Molality, mol/kg of manganese bifluoride	uncertainty
0	0.0938	0.0188
0.0065	0.084	0.0168
0.0151	0.0867	0.0173
0.0505	0.0982	0.0196
0.152	0.104	0.021
0.899	0.156	0.031
2.42	0.237	0.047
4.2	0.303	0.061

System: manganese bifluoride + manganese(II) sulfate + water; phases: Liquid, Crystal of intercomponent compound 1
Property: Molality, mol/kg of manganese bifluoride (Liquid); method: multiple techniques
Molality, mol/kg of manganese(II) sulfate	Pressure, kPa	Temperature, K	Molality, mol/kg of manganese bifluoride	uncertainty
4.2	100	298.15	0.303	0.061

System: calcium fluoride + manganese bifluoride + water; phases: Liquid, Crystal
Fixed: Pressure, kPa = 100
Fixed: Temperature, K = 298.15
Property: Molality, mol/kg of calcium fluoride (Liquid); method: multiple techniques
Molality, mol/kg of manganese bifluoride	Molality, mol/kg of calcium fluoride	uncertainty
0	0.000191	0.000191
0.000252	9.93e-05	9.93e-05
0.000642	6.25e-05	6.25e-05
0.0034	2.08e-05	2.08e-05
0.00862	2e-06	2.1e-06
0.0631	2.8e-06	2.8e-06
0.0934	1.24e-05	1.24e-05

System: calcium fluoride + manganese bifluoride + water; phases: Liquid, Crystal
Fixed: Pressure, kPa = 100
Fixed: Temperature, K = 298.15
Property: Molality, mol/kg of calcium fluoride (Liquid); method: multiple techniques
Molality, mol/kg of manganese bifluoride	Molality, mol/kg of calcium fluoride	uncertainty
0.0934	1.24e-05	5.92e-05
0.0938	0	6e-05

System: calcium fluoride + calcium sulfate + water; phases: Liquid, Crystal
Property: Molality, mol/kg of calcium fluoride (Liquid); method: multiple techniques
Molality, mol/kg of calcium sulfate	Pressure, kPa	Temperature, K	Molality, mol/kg of calcium fluoride	uncertainty
0.0153	100	298.15	7.2e-05	1.4e-05

System: calcium fluoride + calcium sulfate + water; phases: Liquid, Crystal of intercomponent compound 1
Property: Molality, mol/kg of calcium fluoride (Liquid); method: multiple techniques
Molality, mol/kg of calcium sulfate	Pressure, kPa	Temperature, K	Molality, mol/kg of calcium fluoride	uncertainty
0.0153	100	298.15	7.2e-05	1.4e-05

System: calcium fluoride + water; phases: Liquid, Crystal
Property: Molality, mol/kg of calcium fluoride (Liquid); method: multiple techniques
Pressure, kPa	Temperature, K	Molality, mol/kg of calcium fluoride	uncertainty
100	298.15	0.000191	3.8e-05

System: manganese bifluoride + water; phases: Liquid, Crystal
Property: Molality, mol/kg of manganese bifluoride (Liquid); method: multiple techniques
Pressure, kPa	Temperature, K	Molality, mol/kg of manganese bifluoride	uncertainty
100	298.15	0.0938	0.0188
