Measured thermophysical data. Vapor-Liquid Equilibrium Data for Binary Mixtures of Dimethyl Carbonate with Methyl Acetate, Ethyl Acetate, n-Propyl Acetate, Isopropyl Acetate, n-Butyl Acetate, and Isoamyl Acetate at 93.13 kPa
Source: J. Chem. Eng. Data, 2017, 10.1021/acs.jced.7b00704
Compound 1: dimethyl carbonate, C3H6O3, InChI=1S/C3H6O3/c1-5-3(4)6-2/h1-2H3, purity 99%
Compound 2: methyl ethanoate, C3H6O2, InChI=1S/C3H6O2/c1-3(4)5-2/h1-2H3, purity 99%
Compound 3: ethyl acetate, C4H8O2, InChI=1S/C4H8O2/c1-3-6-4(2)5/h3H2,1-2H3, purity 99.5%
Compound 4: propyl ethanoate, C5H10O2, InChI=1S/C5H10O2/c1-3-4-7-5(2)6/h3-4H2,1-2H3, purity 98%
Compound 5: 1-methylethyl ethanoate, C5H10O2, InChI=1S/C5H10O2/c1-4(2)7-5(3)6/h4H,1-3H3, purity 99%
Compound 6: butyl ethanoate, C6H12O2, InChI=1S/C6H12O2/c1-3-4-5-8-6(2)7/h3-5H2,1-2H3, purity 99.5%
Compound 7: 3-methylbutyl ethanoate, C7H14O2, InChI=1S/C7H14O2/c1-6(2)4-5-9-7(3)8/h6H,4-5H2,1-3H3, purity 98%

System: dimethyl carbonate; phases: Liquid
Property: Refractive index (Na D-line) (Liquid); method: Standard Abbe refractometry
Temperature, K	Pressure, kPa	Refractive index (Na D-line)	uncertainty
298.15	101.325	1.3664	0.00042

System: dimethyl carbonate; phases: Liquid, Gas
Property: Vapor or sublimation pressure, kPa (Liquid); method: Ebulliometric method (Recirculating still)
Temperature, K	Vapor or sublimation pressure, kPa	uncertainty
360.73	93.13	0.96

System: dimethyl carbonate; phases: Liquid
Property: Refractive index (Na D-line) (Liquid); method: Standard Abbe refractometry
Pressure, kPa	Temperature, K	Refractive index (Na D-line)	uncertainty
93	293.15	1.3688	0.0004

System: methyl ethanoate; phases: Liquid
Property: Refractive index (Na D-line) (Liquid); method: Standard Abbe refractometry
Temperature, K	Pressure, kPa	Refractive index (Na D-line)	uncertainty
298.15	101.325	1.35872	0.00042

System: methyl ethanoate; phases: Liquid, Gas
Property: Vapor or sublimation pressure, kPa (Liquid); method: Ebulliometric method (Recirculating still)
Temperature, K	Vapor or sublimation pressure, kPa	uncertainty
327.63	93.13	0.96

System: methyl ethanoate; phases: Liquid
Property: Refractive index (Na D-line) (Liquid); method: Standard Abbe refractometry
Pressure, kPa	Temperature, K	Refractive index (Na D-line)	uncertainty
93	293.15	1.3615	0.0004

System: ethyl acetate; phases: Liquid
Property: Refractive index (Na D-line) (Liquid); method: Standard Abbe refractometry
Temperature, K	Pressure, kPa	Refractive index (Na D-line)	uncertainty
298.15	101.325	1.3698	0.00038

System: ethyl acetate; phases: Liquid, Gas
Property: Vapor or sublimation pressure, kPa (Liquid); method: Ebulliometric method (Recirculating still)
Temperature, K	Vapor or sublimation pressure, kPa	uncertainty
347.58	93.13	0.95

System: ethyl acetate; phases: Liquid
Property: Refractive index (Na D-line) (Liquid); method: Standard Abbe refractometry
Pressure, kPa	Temperature, K	Refractive index (Na D-line)	uncertainty
93	293.15	1.3724	0.0004

System: propyl ethanoate; phases: Liquid
Property: Refractive index (Na D-line) (Liquid); method: Standard Abbe refractometry
Temperature, K	Pressure, kPa	Refractive index (Na D-line)	uncertainty
298.15	101.325	1.38181	0.00054

System: propyl ethanoate; phases: Liquid, Gas
Property: Vapor or sublimation pressure, kPa (Liquid); method: Ebulliometric method (Recirculating still)
Temperature, K	Vapor or sublimation pressure, kPa	uncertainty
372.05	93.13	0.97

System: propyl ethanoate; phases: Liquid
Property: Refractive index (Na D-line) (Liquid); method: Standard Abbe refractometry
Pressure, kPa	Temperature, K	Refractive index (Na D-line)	uncertainty
93	293.15	1.3843	0.0005

System: 1-methylethyl ethanoate; phases: Liquid
Property: Refractive index (Na D-line) (Liquid); method: Standard Abbe refractometry
Temperature, K	Pressure, kPa	Refractive index (Na D-line)	uncertainty
298.15	101.325	1.3748	0.00042

System: 1-methylethyl ethanoate; phases: Liquid, Gas
Property: Vapor or sublimation pressure, kPa (Liquid); method: Ebulliometric method (Recirculating still)
Temperature, K	Vapor or sublimation pressure, kPa	uncertainty
358.92	93.13	0.96

System: 1-methylethyl ethanoate; phases: Liquid
Property: Refractive index (Na D-line) (Liquid); method: Standard Abbe refractometry
Pressure, kPa	Temperature, K	Refractive index (Na D-line)	uncertainty
93	293.15	1.3774	0.0004

System: butyl ethanoate; phases: Liquid
Property: Refractive index (Na D-line) (Liquid); method: Standard Abbe refractometry
Temperature, K	Pressure, kPa	Refractive index (Na D-line)	uncertainty
298.15	101.325	1.39175	0.00038

System: butyl ethanoate; phases: Liquid, Gas
Property: Vapor or sublimation pressure, kPa (Liquid); method: Ebulliometric method (Recirculating still)
Temperature, K	Vapor or sublimation pressure, kPa	uncertainty
396.21	93.13	0.95

System: butyl ethanoate; phases: Liquid
Property: Refractive index (Na D-line) (Liquid); method: Standard Abbe refractometry
Pressure, kPa	Temperature, K	Refractive index (Na D-line)	uncertainty
93	293.15	1.3943	0.0004

System: 3-methylbutyl ethanoate; phases: Liquid
Property: Refractive index (Na D-line) (Liquid); method: Standard Abbe refractometry
Temperature, K	Pressure, kPa	Refractive index (Na D-line)	uncertainty
298.15	101.325	1.39842	0.00054

System: 3-methylbutyl ethanoate; phases: Liquid, Gas
Property: Vapor or sublimation pressure, kPa (Liquid); method: Ebulliometric method (Recirculating still)
Temperature, K	Vapor or sublimation pressure, kPa	uncertainty
412.31	93.13	0.97

System: 3-methylbutyl ethanoate; phases: Liquid
Property: Refractive index (Na D-line) (Liquid); method: Standard Abbe refractometry
Pressure, kPa	Temperature, K	Refractive index (Na D-line)	uncertainty
93	293.15	1.4007	0.0005

System: methyl ethanoate + dimethyl carbonate; phases: Liquid, Gas
Fixed: Pressure, kPa = 93.13
Property: Boiling temperature at pressure P, K (Liquid); method: Ebulliometric method (Recirculating still)
Mole fraction of methyl ethanoate	Boiling temperature at pressure P, K	uncertainty
0	360.73	0.22
0.0601	355.85	0.26
0.1452	350.48	0.25
0.214	347.06	0.24
0.3139	343.07	0.23
0.4102	339.99	0.23
0.4624	338.53	0.23
0.5723	335.84	0.23
0.6923	333.28	0.23
0.7998	331.2	0.23
0.8962	329.44	0.23
0.9585	328.35	0.23
1	327.63	0.22

System: methyl ethanoate + dimethyl carbonate; phases: Gas, Liquid
Fixed: Pressure, kPa = 93.13
Property: Mole fraction of methyl ethanoate (Gas); method: Index of refraction calibration data
Mole fraction of methyl ethanoate	Mole fraction of methyl ethanoate	uncertainty
0	0	
0.0601	0.1798	0.0059
0.1452	0.362	0.0071
0.214	0.4747	0.0086
0.3139	0.6011	0.0075
0.4102	0.6916	0.0061
0.4624	0.733	0.0053
0.5723	0.8072	0.0042
0.6923	0.8728	0.0033
0.7998	0.9233	0.0026
0.8962	0.9621	0.0023
0.9585	0.985	0.0022
1	1	

System: methyl ethanoate + dimethyl carbonate; phases: Liquid
Fixed: Pressure, kPa = 93
Fixed: Temperature, K = 293.15
Property: Refractive index (Na D-line) (Liquid); method: Standard Abbe refractometry
Mole fraction of methyl ethanoate	Refractive index (Na D-line)	uncertainty
0	1.3688	0.0004
0.0985	1.3682	0.0004
0.1427	1.3679	0.0004
0.2469	1.3673	0.0004
0.3243	1.3668	0.0004
0.3794	1.3665	0.0004
0.445	1.366	0.0004
0.5283	1.3654	0.0004
0.6548	1.3645	0.0004
0.7403	1.3639	0.0004
0.7976	1.3634	0.0004
0.8939	1.3625	0.0004
0.9548	1.362	0.0004
1	1.3615	0.0004

System: ethyl acetate + dimethyl carbonate; phases: Liquid, Gas
Fixed: Pressure, kPa = 93.13
Property: Boiling temperature at pressure P, K (Liquid); method: Ebulliometric method (Recirculating still)
Mole fraction of ethyl acetate	Boiling temperature at pressure P, K	uncertainty
0	360.73	0.22
0.0531	359.33	0.23
0.0839	358.59	0.23
0.1637	356.86	0.23
0.2674	354.98	0.22
0.3298	354	0.22
0.4791	352.03	0.22
0.5921	350.76	0.22
0.7043	349.71	0.22
0.7457	349.36	0.22
0.8218	348.76	0.22
0.9358	347.96	0.22
1	347.58	0.22

System: ethyl acetate + dimethyl carbonate; phases: Gas, Liquid
Fixed: Pressure, kPa = 93.13
Property: Mole fraction of ethyl acetate (Gas); method: Index of refraction calibration data
Mole fraction of ethyl acetate	Mole fraction of ethyl acetate	uncertainty
0	0	
0.0531	0.0944	0.0042
0.0839	0.1442	0.0041
0.1637	0.2585	0.005
0.2674	0.3851	0.0067
0.3298	0.451	0.0076
0.4791	0.5901	0.0071
0.5921	0.684	0.0056
0.7043	0.772	0.0044
0.7457	0.8039	0.004
0.8218	0.8606	0.0033
0.9358	0.9485	0.0027
1	1	

System: ethyl acetate + dimethyl carbonate; phases: Liquid
Fixed: Pressure, kPa = 93
Fixed: Temperature, K = 293.15
Property: Refractive index (Na D-line) (Liquid); method: Standard Abbe refractometry
Mole fraction of ethyl acetate	Refractive index (Na D-line)	uncertainty
0	1.3688	0.0004
0.0861	1.3693	0.0004
0.1154	1.3694	0.0004
0.2095	1.3698	0.0004
0.3017	1.3702	0.0004
0.3685	1.3704	0.0004
0.3952	1.3705	0.0004
0.4303	1.3707	0.0004
0.5094	1.371	0.0004
0.5642	1.3712	0.0004
0.6047	1.3713	0.0004
0.6964	1.3716	0.0004
0.8026	1.3719	0.0004
0.8912	1.3722	0.0004
0.9375	1.3723	0.0004
1	1.3724	0.0004

System: propyl ethanoate + dimethyl carbonate; phases: Liquid, Gas
Fixed: Pressure, kPa = 93.13
Property: Boiling temperature at pressure P, K (Liquid); method: Ebulliometric method (Recirculating still)
Mole fraction of propyl ethanoate	Boiling temperature at pressure P, K	uncertainty
0	360.73	0.22
0.047	360.91	0.22
0.0921	361.11	0.22
0.1922	361.66	0.22
0.3199	362.55	0.23
0.3741	363	0.23
0.4748	363.94	0.23
0.6022	365.36	0.23
0.6814	366.39	0.23
0.7862	367.96	0.23
0.9095	370.15	0.23
0.9468	370.9	0.24
1	372.05	0.23

System: propyl ethanoate + dimethyl carbonate; phases: Gas, Liquid
Fixed: Pressure, kPa = 93.13
Property: Mole fraction of propyl ethanoate (Gas); method: Index of refraction calibration data
Mole fraction of propyl ethanoate	Mole fraction of propyl ethanoate	uncertainty
0	0	
0.047	0.0409	0.0027
0.0921	0.0784	0.0028
0.1922	0.1583	0.0034
0.3199	0.2581	0.0046
0.3741	0.3012	0.0053
0.4748	0.3843	0.007
0.6022	0.4988	0.0098
0.6814	0.5778	0.0091
0.7862	0.695	0.0077
0.9095	0.8576	0.0051
0.9468	0.9136	0.0045
1	1	

System: propyl ethanoate + dimethyl carbonate; phases: Liquid
Fixed: Pressure, kPa = 93
Fixed: Temperature, K = 293.15
Property: Refractive index (Na D-line) (Liquid); method: Standard Abbe refractometry
Mole fraction of propyl ethanoate	Refractive index (Na D-line)	uncertainty
0	1.3688	0.0004
0.0846	1.3704	0.0004
0.1341	1.3714	0.0004
0.1705	1.372	0.0004
0.223	1.3731	0.0004
0.2896	1.3741	0.0005
0.3877	1.3757	0.0005
0.4374	1.3765	0.0005
0.4989	1.3775	0.0005
0.562	1.3784	0.0005
0.669	1.38	0.0005
0.7756	1.3815	0.0005
0.891	1.383	0.0005
0.9528	1.3838	0.0005
1	1.3843	0.0005

System: 1-methylethyl ethanoate + dimethyl carbonate; phases: Liquid, Gas
Fixed: Pressure, kPa = 93.13
Property: Boiling temperature at pressure P, K (Liquid); method: Ebulliometric method (Recirculating still)
Mole fraction of 1-methylethyl ethanoate	Boiling temperature at pressure P, K	uncertainty
0	360.73	0.22
0.0473	360.18	0.22
0.0901	359.76	0.22
0.18	359.05	0.22
0.2639	358.56	0.22
0.3664	358.15	0.22
0.4706	357.91	0.22
0.561	357.81	0.22
0.6781	357.86	0.22
0.7869	358.05	0.22
0.8941	358.41	0.22
0.9538	358.68	0.22
1	358.92	0.22

System: 1-methylethyl ethanoate + dimethyl carbonate; phases: Gas, Liquid
Fixed: Pressure, kPa = 93.13
Property: Mole fraction of 1-methylethyl ethanoate (Gas); method: Index of refraction calibration data
Mole fraction of 1-methylethyl ethanoate	Mole fraction of 1-methylethyl ethanoate	uncertainty
0	0	
0.0473	0.0635	0.0034
0.0901	0.1161	0.0035
0.18	0.2156	0.0043
0.2639	0.2991	0.0052
0.3664	0.3936	0.0068
0.4706	0.4857	0.0085
0.561	0.5648	0.0079
0.6781	0.6694	0.0064
0.7869	0.7719	0.0049
0.8941	0.8811	0.0037
0.9538	0.9466	0.0032
1	1	

System: 1-methylethyl ethanoate + dimethyl carbonate; phases: Liquid
Fixed: Pressure, kPa = 93
Fixed: Temperature, K = 293.15
Property: Refractive index (Na D-line) (Liquid); method: Standard Abbe refractometry
Mole fraction of 1-methylethyl ethanoate	Refractive index (Na D-line)	uncertainty
0	1.3688	0.0004
0.0423	1.3693	0.0004
0.0899	1.3699	0.0004
0.183	1.371	0.0004
0.2918	1.3721	0.0004
0.4235	1.3733	0.0004
0.5026	1.374	0.0004
0.5726	1.3746	0.0004
0.6814	1.3754	0.0004
0.7285	1.3758	0.0004
0.7616	1.3759	0.0004
0.7915	1.3761	0.0004
0.8849	1.3767	0.0004
0.9449	1.3771	0.0004
1	1.3774	0.0004

System: butyl ethanoate + dimethyl carbonate; phases: Liquid, Gas
Fixed: Pressure, kPa = 93.13
Property: Boiling temperature at pressure P, K (Liquid); method: Ebulliometric method (Recirculating still)
Mole fraction of butyl ethanoate	Boiling temperature at pressure P, K	uncertainty
0	360.73	0.22
0.0421	361.49	0.23
0.0834	362.24	0.23
0.1713	363.92	0.23
0.2595	365.77	0.23
0.354	367.94	0.23
0.4639	370.52	0.23
0.5695	374.01	0.23
0.6756	377.96	0.24
0.7981	383.62	0.24
0.912	390.02	0.25
0.9546	392.74	0.26
1	396.21	0.22

System: butyl ethanoate + dimethyl carbonate; phases: Gas, Liquid
Fixed: Pressure, kPa = 93.13
Property: Mole fraction of butyl ethanoate (Gas); method: Index of refraction calibration data
Mole fraction of butyl ethanoate	Mole fraction of butyl ethanoate	uncertainty
0	0	
0.0421	0.0174	0.0022
0.0834	0.0334	0.0022
0.1713	0.0698	0.0024
0.2595	0.1105	0.0027
0.354	0.1574	0.0032
0.4639	0.2165	0.0039
0.5695	0.2908	0.005
0.6756	0.3895	0.0067
0.7981	0.547	0.0082
0.912	0.7615	0.0058
0.9546	0.8609	0.0062
1	1	

System: butyl ethanoate + dimethyl carbonate; phases: Liquid
Fixed: Pressure, kPa = 93
Fixed: Temperature, K = 293.15
Property: Refractive index (Na D-line) (Liquid); method: Standard Abbe refractometry
Mole fraction of butyl ethanoate	Refractive index (Na D-line)	uncertainty
0	1.3688	0.0004
0.0941	1.3721	0.0004
0.1143	1.3728	0.0004
0.1628	1.3743	0.0004
0.2495	1.377	0.0004
0.3203	1.379	0.0004
0.4375	1.3821	0.0004
0.5357	1.3846	0.0004
0.6438	1.3871	0.0004
0.7325	1.389	0.0004
0.7418	1.3893	0.0004
0.8819	1.3921	0.0004
0.9073	1.3925	0.0004
1	1.3943	0.0004

System: 3-methylbutyl ethanoate + dimethyl carbonate; phases: Liquid, Gas
Fixed: Pressure, kPa = 93.13
Property: Boiling temperature at pressure P, K (Liquid); method: Ebulliometric method (Recirculating still)
Mole fraction of 3-methylbutyl ethanoate	Boiling temperature at pressure P, K	uncertainty
0	360.73	0.22
0.0359	361.54	0.23
0.0793	362.5	0.23
0.155	364.24	0.23
0.2463	366.47	0.23
0.3398	369.02	0.23
0.4336	371.96	0.24
0.5544	376.86	0.24
0.6487	381.53	0.26
0.7799	390.13	0.27
0.883	398.86	0.3
0.9506	406.02	0.33
1	412.31	0.23

System: 3-methylbutyl ethanoate + dimethyl carbonate; phases: Gas, Liquid
Fixed: Pressure, kPa = 93.13
Property: Mole fraction of 3-methylbutyl ethanoate (Gas); method: Index of refraction calibration data
Mole fraction of 3-methylbutyl ethanoate	Mole fraction of 3-methylbutyl ethanoate	uncertainty
0	0	
0.0359	0.0095	0.0021
0.0793	0.0214	0.0021
0.155	0.0404	0.0021
0.2463	0.0626	0.0023
0.3398	0.0903	0.0025
0.4336	0.1237	0.0028
0.5544	0.1882	0.0036
0.6487	0.2559	0.0047
0.7799	0.4025	0.0077
0.883	0.5943	0.0098
0.9506	0.791	0.0089
1	1	

System: 3-methylbutyl ethanoate + dimethyl carbonate; phases: Liquid
Fixed: Pressure, kPa = 93
Fixed: Temperature, K = 293.15
Property: Refractive index (Na D-line) (Liquid); method: Standard Abbe refractometry
Mole fraction of 3-methylbutyl ethanoate	Refractive index (Na D-line)	uncertainty
0	1.3688	0.0004
0.0369	1.3706	0.0004
0.0721	1.3724	0.0004
0.2004	1.378	0.0004
0.2231	1.3788	0.0005
0.3091	1.3821	0.0005
0.4027	1.3854	0.0005
0.4943	1.3883	0.0005
0.6064	1.3915	0.0005
0.7185	1.3945	0.0005
0.8312	1.3972	0.0005
0.9243	1.3992	0.0005
1	1.4007	0.0005
