Measured thermophysical data. Solubility of Halogenated Hydrocarbons in Hydrophobic Ionic Liquids: Experimental Study and COSMO-RS Prediction
Source: J. Chem. Eng. Data, 2015, 10.1021/acs.jced.5b00310
Compound 1: 1-butyl-1-methylpiperidinium bis(trifluoromethanesulfonyl)imide, C12H22F6N2O4S2, InChI=1S/C10H22N.C2F6NO4S2/c1-3-4-8-11(2)9-6-5-7-10-11;3-1(4,5)14(10,11)9-15(12,13)2(6,7)8/h3-10H2,1-2H3;/q+1;-1, purity 99%
Compound 2: 1-methyl-1-propylpiperidinium bis(trifluoromethylsulfonyl)imide, C11H20F6N2O4S2, InChI=1S/C9H20N.C2F6NO4S2/c1-3-7-10(2)8-5-4-6-9-10;3-1(4,5)14(10,11)9-15(12,13)2(6,7)8/h3-9H2,1-2H3;/q+1;-1, purity 99%
Compound 3: 1-methyl-1-octylpyrrolidinium bis(trifluoromethylsulfonyl)amide, C15H28F6N2O4S2, InChI=1S/C13H28N.C2F6NO4S2/c1-3-4-5-6-7-8-11-14(2)12-9-10-13-14;3-1(4,5)14(10,11)9-15(12,13)2(6,7)8/h3-13H2,1-2H3;/q+1;-1, purity 99%
Compound 4: 1-hexyl-1-methylpyrrolidinium bis(trifluoromethanesulfonyl)imide, C13H24F6N2O4S2, InChI=1S/C11H24N.C2F6NO4S2/c1-3-4-5-6-9-12(2)10-7-8-11-12;3-1(4,5)14(10,11)9-15(12,13)2(6,7)8/h3-11H2,1-2H3;/q+1;-1, purity 99%
Compound 5: 1-methyl-1-propylpyrrolidinium bis[(trifluoromethyl)sulfonyl]imide, C10H18F6N2O4S2, InChI=1S/C8H18N.C2F6NO4S2/c1-3-6-9(2)7-4-5-8-9;3-1(4,5)14(10,11)9-15(12,13)2(6,7)8/h3-8H2,1-2H3;/q+1;-1, purity 99%
Compound 6: triethyloctylammonium bis[(trifluoromethyl)sulfonyl]imide, C16H32F6N2O4S2, InChI=1S/C14H32N.C2F6NO4S2/c1-5-9-10-11-12-13-14-15(6-2,7-3)8-4;3-1(4,5)14(10,11)9-15(12,13)2(6,7)8/h5-14H2,1-4H3;/q+1;-1, purity 98%
Compound 7: tributylmethylammonium bis((trifluoromethyl)sulfonyl)imide, C15H30F6N2O4S2, InChI=1S/C13H30N.C2F6NO4S2/c1-5-8-11-14(4,12-9-6-2)13-10-7-3;3-1(4,5)14(10,11)9-15(12,13)2(6,7)8/h5-13H2,1-4H3;/q+1;-1, purity 99%
Compound 8: butyltriethylammonium bis(trifluoromethylsulfonyl)imide, C12H24F6N2O4S2, InChI=1S/C10H24N.C2F6NO4S2/c1-5-9-10-11(6-2,7-3)8-4;3-1(4,5)14(10,11)9-15(12,13)2(6,7)8/h5-10H2,1-4H3;/q+1;-1, purity 99%
Compound 9: N,N-diethyl-2-methoxy-N-methylethan-1-aminium bis((trifluoromethyl)sulfonyl)amide, C10H20F6N2O5S2, InChI=1S/C8H20NO.C2F6NO4S2/c1-5-9(3,6-2)7-8-10-4;3-1(4,5)14(10,11)9-15(12,13)2(6,7)8/h5-8H2,1-4H3;/q+1;-1, purity 99%
Compound 10: butyltrimethylammonium bis(trifluoromethylsulfonyl)imide, C9H18F6N2O4S2, InChI=1S/C7H18N.C2F6NO4S2/c1-5-6-7-8(2,3)4;3-1(4,5)14(10,11)9-15(12,13)2(6,7)8/h5-7H2,1-4H3;/q+1;-1, purity 99%
Compound 11: N-ethyl-N,N-dimethyl-1-propanaminium 1,1,1-trifluoro-N-[(trifluoromethyl)sulfonyl]methanesulfonamide, C9H18F6N2O4S2, InChI=1S/C7H18N.C2F6NO4S2/c1-5-7-8(3,4)6-2;3-1(4,5)14(10,11)9-15(12,13)2(6,7)8/h5-7H2,1-4H3;/q+1;-1, purity 98%
Compound 12: tetrachloromethane, CCl4, InChI=1S/CCl4/c2-1(3,4)5, purity 99%
Compound 13: tribromomethane, CHBr3, InChI=1S/CHBr3/c2-1(3)4/h1H, purity 97%

System: tetrachloromethane + triethyloctylammonium bis[(trifluoromethyl)sulfonyl]imide; phases: Liquid mixture 1, Liquid mixture 2
Fixed: Pressure, kPa = 101
Property: Mass fraction of tetrachloromethane (Liquid mixture 1); method: Chromatography
Temperature, K	Mass fraction of tetrachloromethane	uncertainty
298.15	0.48	0.02
308.15	0.52	0.02
318.15	0.53	0.02

System: tetrachloromethane + tributylmethylammonium bis((trifluoromethyl)sulfonyl)imide; phases: Liquid mixture 1, Liquid mixture 2
Fixed: Pressure, kPa = 101
Property: Mass fraction of tetrachloromethane (Liquid mixture 1); method: Chromatography
Temperature, K	Mass fraction of tetrachloromethane	uncertainty
298.15	0.37	0.02
308.15	0.41	0.02
318.15	0.44	0.02

System: tetrachloromethane + butyltriethylammonium bis(trifluoromethylsulfonyl)imide; phases: Liquid mixture 1, Liquid mixture 2
Fixed: Pressure, kPa = 101
Property: Mass fraction of tetrachloromethane (Liquid mixture 1); method: Chromatography
Temperature, K	Mass fraction of tetrachloromethane	uncertainty
298.15	0.0031	0.0002
308.15	0.0033	0.0002
318.15	0.0035	0.0002

System: tetrachloromethane + N,N-diethyl-2-methoxy-N-methylethan-1-aminium bis((trifluoromethyl)sulfonyl)amide; phases: Liquid mixture 1, Liquid mixture 2
Fixed: Pressure, kPa = 101
Property: Mass fraction of tetrachloromethane (Liquid mixture 1); method: Chromatography
Temperature, K	Mass fraction of tetrachloromethane	uncertainty
298.15	0.25	0.02
308.15	0.27	0.02
318.15	0.29	0.02

System: tetrachloromethane + N-ethyl-N,N-dimethyl-1-propanaminium 1,1,1-trifluoro-N-[(trifluoromethyl)sulfonyl]methanesulfonamide; phases: Liquid mixture 1, Liquid mixture 2
Fixed: Pressure, kPa = 101
Property: Mass fraction of tetrachloromethane (Liquid mixture 1); method: Chromatography
Temperature, K	Mass fraction of tetrachloromethane	uncertainty
298.15	0.2	0.02
308.15	0.23	0.02
318.15	0.24	0.02

System: tetrachloromethane + butyltrimethylammonium bis(trifluoromethylsulfonyl)imide; phases: Liquid mixture 1, Liquid mixture 2
Fixed: Pressure, kPa = 101
Property: Mass fraction of tetrachloromethane (Liquid mixture 1); method: Chromatography
Temperature, K	Mass fraction of tetrachloromethane	uncertainty
298.15	0.18	0.02
308.15	0.19	0.02
318.15	0.19	0.02

System: tetrachloromethane + 1-butyl-1-methylpiperidinium bis(trifluoromethanesulfonyl)imide; phases: Liquid mixture 1, Liquid mixture 2
Fixed: Pressure, kPa = 101
Property: Mass fraction of tetrachloromethane (Liquid mixture 1); method: Chromatography
Temperature, K	Mass fraction of tetrachloromethane	uncertainty
298.15	0.24	0.02
308.15	0.3	0.02
318.15	0.34	0.02

System: tetrachloromethane + 1-methyl-1-propylpiperidinium bis(trifluoromethylsulfonyl)imide; phases: Liquid mixture 1, Liquid mixture 2
Fixed: Pressure, kPa = 101
Property: Mass fraction of tetrachloromethane (Liquid mixture 1); method: Chromatography
Temperature, K	Mass fraction of tetrachloromethane	uncertainty
298.15	0.24	0.02
308.15	0.29	0.02
318.15	0.43	0.02

System: tetrachloromethane + 1-methyl-1-octylpyrrolidinium bis(trifluoromethylsulfonyl)amide; phases: Liquid mixture 1, Liquid mixture 2
Fixed: Pressure, kPa = 101
Property: Mass fraction of tetrachloromethane (Liquid mixture 1); method: Chromatography
Temperature, K	Mass fraction of tetrachloromethane	uncertainty
298.15	0.44	0.02
308.15	0.5	0.02
318.15	0.56	0.02

System: tetrachloromethane + 1-hexyl-1-methylpyrrolidinium bis(trifluoromethanesulfonyl)imide; phases: Liquid mixture 1, Liquid mixture 2
Fixed: Pressure, kPa = 101
Property: Mass fraction of tetrachloromethane (Liquid mixture 1); method: Chromatography
Temperature, K	Mass fraction of tetrachloromethane	uncertainty
298.15	0.34	0.02
308.15	0.38	0.02
318.15	0.42	0.02

System: tetrachloromethane + 1-methyl-1-propylpyrrolidinium bis[(trifluoromethyl)sulfonyl]imide; phases: Liquid mixture 1, Liquid mixture 2
Fixed: Pressure, kPa = 101
Property: Mass fraction of tetrachloromethane (Liquid mixture 1); method: Chromatography
Temperature, K	Mass fraction of tetrachloromethane	uncertainty
298.15	0.22	0.02
308.15	0.28	0.02
318.15	0.34	0.02

System: tribromomethane + triethyloctylammonium bis[(trifluoromethyl)sulfonyl]imide; phases: Liquid mixture 1, Liquid mixture 2
Fixed: Pressure, kPa = 101
Property: Mass fraction of tribromomethane (Liquid mixture 1); method: Chromatography
Temperature, K	Mass fraction of tribromomethane	uncertainty
298.15	0.38	0.02
308.15	0.48	0.02
318.15	0.59	0.02

System: tribromomethane + tributylmethylammonium bis((trifluoromethyl)sulfonyl)imide; phases: Liquid mixture 1, Liquid mixture 2
Fixed: Pressure, kPa = 101
Property: Mass fraction of tribromomethane (Liquid mixture 1); method: Chromatography
Temperature, K	Mass fraction of tribromomethane	uncertainty
298.15	0.36	0.02
308.15	0.38	0.02
318.15	0.46	0.02

System: tribromomethane + butyltriethylammonium bis(trifluoromethylsulfonyl)imide; phases: Liquid mixture 1, Liquid mixture 2
Fixed: Pressure, kPa = 101
Property: Mass fraction of tribromomethane (Liquid mixture 1); method: Chromatography
Temperature, K	Mass fraction of tribromomethane	uncertainty
298.15	0.45	0.02
308.15	0.49	0.02
318.15	0.56	0.02

System: tribromomethane + N,N-diethyl-2-methoxy-N-methylethan-1-aminium bis((trifluoromethyl)sulfonyl)amide; phases: Liquid mixture 1, Liquid mixture 2
Fixed: Pressure, kPa = 101
Property: Mass fraction of tribromomethane (Liquid mixture 1); method: Chromatography
Temperature, K	Mass fraction of tribromomethane	uncertainty
298.15	0.44	0.02
308.15	0.51	0.02
318.15	0.56	0.02

System: tribromomethane + N-ethyl-N,N-dimethyl-1-propanaminium 1,1,1-trifluoro-N-[(trifluoromethyl)sulfonyl]methanesulfonamide; phases: Liquid mixture 1, Liquid mixture 2
Fixed: Pressure, kPa = 101
Property: Mass fraction of tribromomethane (Liquid mixture 1); method: Chromatography
Temperature, K	Mass fraction of tribromomethane	uncertainty
298.15	0.34	0.02
308.15	0.41	0.02
318.15	0.46	0.02

System: tribromomethane + butyltrimethylammonium bis(trifluoromethylsulfonyl)imide; phases: Liquid mixture 1, Liquid mixture 2
Fixed: Pressure, kPa = 101
Property: Mass fraction of tribromomethane (Liquid mixture 1); method: Chromatography
Temperature, K	Mass fraction of tribromomethane	uncertainty
298.15	0.24	0.02
308.15	0.29	0.02
318.15	0.31	0.02

System: tribromomethane + 1-butyl-1-methylpiperidinium bis(trifluoromethanesulfonyl)imide; phases: Liquid mixture 1, Liquid mixture 2
Fixed: Pressure, kPa = 101
Property: Mass fraction of tribromomethane (Liquid mixture 1); method: Chromatography
Temperature, K	Mass fraction of tribromomethane	uncertainty
298.15	0.47	0.02
308.15	0.52	0.02
318.15	0.55	0.02

System: tribromomethane + 1-methyl-1-propylpiperidinium bis(trifluoromethylsulfonyl)imide; phases: Liquid mixture 1, Liquid mixture 2
Fixed: Pressure, kPa = 101
Property: Mass fraction of tribromomethane (Liquid mixture 1); method: Chromatography
Temperature, K	Mass fraction of tribromomethane	uncertainty
298.15	0.43	0.02
308.15	0.51	0.02
318.15	0.58	0.02

System: tribromomethane + 1-methyl-1-octylpyrrolidinium bis(trifluoromethylsulfonyl)amide; phases: Liquid mixture 1, Liquid mixture 2
Fixed: Pressure, kPa = 101
Property: Mass fraction of tribromomethane (Liquid mixture 1); method: Chromatography
Temperature, K	Mass fraction of tribromomethane	uncertainty
298.15	0.52	0.02
308.15	0.64	0.02
318.15	0.68	0.02

System: tribromomethane + 1-hexyl-1-methylpyrrolidinium bis(trifluoromethanesulfonyl)imide; phases: Liquid mixture 1, Liquid mixture 2
Fixed: Pressure, kPa = 101
Property: Mass fraction of tribromomethane (Liquid mixture 1); method: Chromatography
Temperature, K	Mass fraction of tribromomethane	uncertainty
298.15	0.48	0.02
308.15	0.48	0.02
318.15	0.57	0.02

System: tribromomethane + 1-methyl-1-propylpyrrolidinium bis[(trifluoromethyl)sulfonyl]imide; phases: Liquid mixture 1, Liquid mixture 2
Fixed: Pressure, kPa = 101
Property: Mass fraction of tribromomethane (Liquid mixture 1); method: Chromatography
Temperature, K	Mass fraction of tribromomethane	uncertainty
298.15	0.39	0.02
308.15	0.45	0.02
318.15	0.54	0.02
