Measured thermophysical data. Cosolvency and Mathematical Modeling Analysis of Chloroxine in Some Binary Solvent System
Source: J. Chem. Eng. Data, 2018, 10.1021/acs.jced.8b00257
Compound 1: 5,7-dichloro-8-hydroxyquinoline, C9H5Cl2NO, InChI=1S/C9H5Cl2NO/c10-6-4-7(11)9(13)8-5(6)2-1-3-12-8/h1-4,13H, purity 99.6%
Compound 2: methanol, CH4O, InChI=1S/CH4O/c1-2/h2H,1H3, purity 99.8%
Compound 3: ethanol, C2H6O, InChI=1S/C2H6O/c1-2-3/h3H,2H2,1H3, purity 99.6%
Compound 4: propan-1-ol, C3H8O, InChI=1S/C3H8O/c1-2-3-4/h4H,2-3H2,1H3, purity 99.6%
Compound 5: propan-2-ol, C3H8O, InChI=1S/C3H8O/c1-3(2)4/h3-4H,1-2H3, purity 99.7%
Compound 6: ethyl acetate, C4H8O2, InChI=1S/C4H8O2/c1-3-6-4(2)5/h3H2,1-2H3, purity 99.8%

System: 5,7-dichloro-8-hydroxyquinoline + ethyl acetate + methanol; phases: Liquid, Crystal
Fixed: Pressure, kPa = 100
Property: Mole fraction of 5,7-dichloro-8-hydroxyquinoline (Liquid); method: Chromatography
Temperature, K	Mass fraction of ethyl acetate	Mole fraction of 5,7-dichloro-8-hydroxyquinoline	uncertainty
283.15	0	0.0003976	1.97e-05
288.15	0	0.0004949	2.45e-05
293.15	0	0.0006107	3.02e-05
298.15	0	0.0007473	3.7e-05
303.15	0	0.0009033	4.47e-05
308.15	0	0.001095	5.4e-05
313.15	0	0.001306	6.5e-05
318.15	0	0.001538	7.6e-05
323.15	0	0.00181	9e-05
328.15	0	0.002121	0.000105
333.15	0	0.002484	0.000123
283.15	0.1	0.0004956	2.46e-05
288.15	0.1	0.0006198	3.08e-05
293.15	0.1	0.0007644	3.8e-05
298.15	0.1	0.000886	4.4e-05
303.15	0.1	0.001161	5.8e-05
308.15	0.1	0.001361	6.8e-05
313.15	0.1	0.001619	8e-05
318.15	0.1	0.00188	9.3e-05
323.15	0.1	0.002198	0.000109
328.15	0.1	0.00255	0.000126
333.15	0.1	0.002971	0.000147
283.15	0.2	0.0006136	3.09e-05
288.15	0.2	0.000768	3.86e-05
293.15	0.2	0.0009464	4.75e-05
298.15	0.2	0.001159	5.8e-05
303.15	0.2	0.001407	7e-05
308.15	0.2	0.001644	8.2e-05
313.15	0.2	0.001955	9.8e-05
318.15	0.2	0.002279	0.000114
323.15	0.2	0.00264	0.000132
328.15	0.2	0.003088	0.000154
333.15	0.2	0.003553	0.000177
283.15	0.3	0.00078	3.99e-05
288.15	0.3	0.000947	4.82e-05
293.15	0.3	0.001156	5.9e-05
298.15	0.3	0.00139	7.1e-05
303.15	0.3	0.001637	8.3e-05
308.15	0.3	0.001964	0.0001
313.15	0.3	0.00235	0.000119
318.15	0.3	0.002747	0.000139
323.15	0.3	0.003158	0.000159
328.15	0.3	0.003651	0.000184
333.15	0.3	0.004203	0.000211
283.15	0.4	0.0009476	4.89e-05
288.15	0.4	0.001141	5.8e-05
293.15	0.4	0.001421	7.3e-05
298.15	0.4	0.001689	8.7e-05
303.15	0.4	0.001999	0.000102
308.15	0.4	0.002364	0.000121
313.15	0.4	0.002808	0.000143
318.15	0.4	0.003207	0.000163
323.15	0.4	0.003714	0.000188
328.15	0.4	0.004244	0.000215
333.15	0.4	0.004847	0.000245
283.15	0.5	0.001129	5.8e-05
288.15	0.5	0.001325	6.8e-05
293.15	0.5	0.001615	8.3e-05
298.15	0.5	0.001964	0.000102
303.15	0.5	0.002299	0.000119
308.15	0.5	0.002742	0.000142
313.15	0.5	0.003218	0.000165
318.15	0.5	0.003731	0.000191
323.15	0.5	0.004209	0.000214
328.15	0.5	0.004789	0.000243
333.15	0.5	0.005473	0.000277
283.15	0.6	0.001274	6.4e-05
288.15	0.6	0.001533	7.7e-05
293.15	0.6	0.0019	9.6e-05
298.15	0.6	0.002299	0.000116
303.15	0.6	0.002715	0.000137
308.15	0.6	0.003175	0.000159
313.15	0.6	0.003647	0.000183
318.15	0.6	0.00416	0.000208
323.15	0.6	0.004701	0.000235
328.15	0.6	0.005326	0.000266
333.15	0.6	0.005999	0.000299
283.15	0.7	0.001415	7e-05
288.15	0.7	0.001721	8.6e-05
293.15	0.7	0.002069	0.000103
298.15	0.7	0.002506	0.000125
303.15	0.7	0.002951	0.000147
308.15	0.7	0.00341	0.00017
313.15	0.7	0.003953	0.000197
318.15	0.7	0.004486	0.000223
323.15	0.7	0.00508	0.000252
328.15	0.7	0.00576	0.000286
333.15	0.7	0.006476	0.000322
283.15	0.8	0.001544	7.7e-05
288.15	0.8	0.00189	9.4e-05
293.15	0.8	0.002352	0.000117
298.15	0.8	0.002791	0.000138
303.15	0.8	0.003241	0.000161
308.15	0.8	0.003764	0.000187
313.15	0.8	0.004334	0.000215
318.15	0.8	0.004886	0.000242
323.15	0.8	0.005532	0.000274
328.15	0.8	0.006217	0.000308
333.15	0.8	0.006965	0.000345
283.15	0.9	0.001691	8.4e-05
288.15	0.9	0.00204	0.000101
293.15	0.9	0.002502	0.000124
298.15	0.9	0.002999	0.000148
303.15	0.9	0.003519	0.000174
308.15	0.9	0.00405	0.0002
313.15	0.9	0.004658	0.00023
318.15	0.9	0.005265	0.000261
323.15	0.9	0.005882	0.000291
328.15	0.9	0.006606	0.000327
333.15	0.9	0.007323	0.000362
283.15	1	0.001823	9e-05
288.15	1	0.002234	0.000111
293.15	1	0.002747	0.000136
298.15	1	0.003252	0.000161
303.15	1	0.003819	0.000189
308.15	1	0.004407	0.000218
313.15	1	0.005029	0.000249
318.15	1	0.005716	0.000283
323.15	1	0.006353	0.000314
328.15	1	0.007102	0.000351
333.15	1	0.007819	0.000387

System: 5,7-dichloro-8-hydroxyquinoline + ethyl acetate + ethanol; phases: Liquid, Crystal
Fixed: Pressure, kPa = 100
Property: Mole fraction of 5,7-dichloro-8-hydroxyquinoline (Liquid); method: Chromatography
Temperature, K	Mass fraction of ethyl acetate	Mole fraction of 5,7-dichloro-8-hydroxyquinoline	uncertainty
283.15	0	0.0003282	1.62e-05
288.15	0	0.0004001	1.98e-05
293.15	0	0.0005033	2.49e-05
298.15	0	0.0006223	3.08e-05
303.15	0	0.0007456	3.69e-05
308.15	0	0.0008876	4.39e-05
313.15	0	0.001048	5.2e-05
318.15	0	0.001242	6.1e-05
323.15	0	0.001452	7.2e-05
328.15	0	0.001682	8.3e-05
333.15	0	0.001954	9.7e-05
283.15	0.1	0.0004665	2.32e-05
288.15	0.1	0.0005692	2.84e-05
293.15	0.1	0.0006736	3.36e-05
298.15	0.1	0.0008387	4.18e-05
303.15	0.1	0.001017	5.1e-05
308.15	0.1	0.001199	6e-05
313.15	0.1	0.00142	7.1e-05
318.15	0.1	0.001662	8.3e-05
323.15	0.1	0.001907	9.5e-05
328.15	0.1	0.002191	0.000109
333.15	0.1	0.002464	0.000122
283.15	0.2	0.0006031	3.02e-05
288.15	0.2	0.0007418	3.72e-05
293.15	0.2	0.000928	4.66e-05
298.15	0.2	0.00111	5.6e-05
303.15	0.2	0.001318	6.6e-05
308.15	0.2	0.001518	7.6e-05
313.15	0.2	0.001789	9e-05
318.15	0.2	0.002052	0.000103
323.15	0.2	0.002351	0.000118
328.15	0.2	0.002665	0.000134
333.15	0.2	0.003093	0.000155
283.15	0.3	0.0006837	3.5e-05
288.15	0.3	0.0008721	4.44e-05
293.15	0.3	0.001082	5.5e-05
298.15	0.3	0.001298	6.6e-05
303.15	0.3	0.001603	8.1e-05
308.15	0.3	0.001858	9.4e-05
313.15	0.3	0.0021	0.000107
318.15	0.3	0.002487	0.000126
323.15	0.3	0.002839	0.000144
328.15	0.3	0.003272	0.000166
333.15	0.3	0.003814	0.000192
283.15	0.4	0.0008984	4.69e-05
288.15	0.4	0.00109	5.6e-05
293.15	0.4	0.001329	6.9e-05
298.15	0.4	0.001601	8.3e-05
303.15	0.4	0.001924	9.9e-05
308.15	0.4	0.002201	0.000112
313.15	0.4	0.002585	0.000132
318.15	0.4	0.002992	0.000152
323.15	0.4	0.003394	0.000173
328.15	0.4	0.003824	0.000194
333.15	0.4	0.004342	0.000219
283.15	0.5	0.001056	5.4e-05
288.15	0.5	0.001286	6.7e-05
293.15	0.5	0.00159	8.3e-05
298.15	0.5	0.001904	9.9e-05
303.15	0.5	0.002246	0.000116
308.15	0.5	0.002546	0.000132
313.15	0.5	0.00294	0.000151
318.15	0.5	0.003406	0.000174
323.15	0.5	0.003872	0.000198
328.15	0.5	0.004328	0.00022
333.15	0.5	0.004857	0.000246
283.15	0.6	0.001193	6e-05
288.15	0.6	0.001496	7.6e-05
293.15	0.6	0.001846	9.3e-05
298.15	0.6	0.002219	0.000112
303.15	0.6	0.00262	0.000132
308.15	0.6	0.002981	0.000151
313.15	0.6	0.003412	0.000172
318.15	0.6	0.003865	0.000194
323.15	0.6	0.004379	0.00022
328.15	0.6	0.004868	0.000245
333.15	0.6	0.005412	0.000272
283.15	0.7	0.001358	6.8e-05
288.15	0.7	0.001688	8.4e-05
293.15	0.7	0.002033	0.000101
298.15	0.7	0.002418	0.00012
303.15	0.7	0.002837	0.000141
308.15	0.7	0.003317	0.000165
313.15	0.7	0.00379	0.000189
318.15	0.7	0.004299	0.000214
323.15	0.7	0.004853	0.000242
328.15	0.7	0.005421	0.00027
333.15	0.7	0.00605	0.000301
283.15	0.8	0.001464	7.3e-05
288.15	0.8	0.001792	8.9e-05
293.15	0.8	0.002263	0.000112
298.15	0.8	0.002701	0.000134
303.15	0.8	0.003168	0.000157
308.15	0.8	0.003665	0.000182
313.15	0.8	0.004203	0.000208
318.15	0.8	0.004741	0.000235
323.15	0.8	0.005332	0.000264
328.15	0.8	0.005979	0.000296
333.15	0.8	0.006645	0.000329
283.15	0.9	0.00168	8.3e-05
288.15	0.9	0.002009	9.9e-05
293.15	0.9	0.002472	0.000122
298.15	0.9	0.002993	0.000148
303.15	0.9	0.003457	0.000171
308.15	0.9	0.003958	0.000196
313.15	0.9	0.004576	0.000226
318.15	0.9	0.005197	0.000257
323.15	0.9	0.005822	0.000288
328.15	0.9	0.006455	0.000319
333.15	0.9	0.007144	0.000353
283.15	1	0.001823	9e-05
288.15	1	0.002234	0.000111
293.15	1	0.002747	0.000136
298.15	1	0.003252	0.000161
303.15	1	0.003819	0.000189
308.15	1	0.004407	0.000218
313.15	1	0.005029	0.000249
318.15	1	0.005716	0.000283
323.15	1	0.006353	0.000314
328.15	1	0.007102	0.000351
333.15	1	0.007819	0.000387

System: 5,7-dichloro-8-hydroxyquinoline + ethyl acetate + propan-1-ol; phases: Liquid, Crystal
Fixed: Pressure, kPa = 100
Property: Mole fraction of 5,7-dichloro-8-hydroxyquinoline (Liquid); method: Chromatography
Temperature, K	Mass fraction of ethyl acetate	Mole fraction of 5,7-dichloro-8-hydroxyquinoline	uncertainty
283.15	0	0.0002582	1.28e-05
288.15	0	0.0003155	1.56e-05
293.15	0	0.0004033	2e-05
298.15	0	0.0005021	2.48e-05
303.15	0	0.0006164	3.05e-05
308.15	0	0.0007513	3.72e-05
313.15	0	0.00091	4.5e-05
318.15	0	0.001099	5.4e-05
323.15	0	0.001301	6.4e-05
328.15	0	0.001551	7.7e-05
333.15	0	0.001828	9e-05
283.15	0.1	0.0002938	1.46e-05
288.15	0.1	0.0003841	1.91e-05
293.15	0.1	0.0004794	2.38e-05
298.15	0.1	0.0005966	2.97e-05
303.15	0.1	0.0007622	3.79e-05
308.15	0.1	0.0009096	4.52e-05
313.15	0.1	0.001102	5.5e-05
318.15	0.1	0.001322	6.6e-05
323.15	0.1	0.001547	7.7e-05
328.15	0.1	0.001879	9.3e-05
333.15	0.1	0.002225	0.000111
283.15	0.2	0.0003874	1.98e-05
288.15	0.2	0.000488	2.46e-05
293.15	0.2	0.000624	3.17e-05
298.15	0.2	0.0007911	4.01e-05
303.15	0.2	0.0009794	4.96e-05
308.15	0.2	0.001195	6e-05
313.15	0.2	0.001452	7.3e-05
318.15	0.2	0.001735	8.7e-05
323.15	0.2	0.002011	0.000101
328.15	0.2	0.002403	0.000121
333.15	0.2	0.002815	0.000141
283.15	0.3	0.0005333	2.83e-05
288.15	0.3	0.0006263	3.31e-05
293.15	0.3	0.000828	4.31e-05
298.15	0.3	0.001027	5.3e-05
303.15	0.3	0.001294	6.6e-05
308.15	0.3	0.001523	7.8e-05
313.15	0.3	0.001864	9.5e-05
318.15	0.3	0.002163	0.00011
323.15	0.3	0.002519	0.000128
328.15	0.3	0.002936	0.000149
333.15	0.3	0.003346	0.000169
283.15	0.4	0.000731	3.8e-05
288.15	0.4	0.000879	4.6e-05
293.15	0.4	0.001066	5.6e-05
298.15	0.4	0.001298	6.8e-05
303.15	0.4	0.001543	8.1e-05
308.15	0.4	0.001863	9.8e-05
313.15	0.4	0.002222	0.000116
318.15	0.4	0.002605	0.000135
323.15	0.4	0.003058	0.000158
328.15	0.4	0.003514	0.00018
333.15	0.4	0.004017	0.000207
283.15	0.5	0.000823	4.35e-05
288.15	0.5	0.001	5.3e-05
293.15	0.5	0.001265	6.8e-05
298.15	0.5	0.0016	8.6e-05
303.15	0.5	0.001963	0.000104
308.15	0.5	0.00235	0.000124
313.15	0.5	0.002786	0.000147
318.15	0.5	0.003207	0.000168
323.15	0.5	0.003675	0.000192
328.15	0.5	0.004149	0.000216
333.15	0.5	0.004778	0.000246
283.15	0.6	0.001037	5.4e-05
288.15	0.6	0.001237	6.5e-05
293.15	0.6	0.00162	8.4e-05
298.15	0.6	0.001954	0.000101
303.15	0.6	0.002288	0.000117
308.15	0.6	0.00271	0.000138
313.15	0.6	0.003221	0.000163
318.15	0.6	0.003727	0.000189
323.15	0.6	0.004266	0.000216
328.15	0.6	0.004832	0.000244
333.15	0.6	0.0054	0.000272
283.15	0.7	0.001279	6.4e-05
288.15	0.7	0.00156	7.9e-05
293.15	0.7	0.001922	9.7e-05
298.15	0.7	0.002308	0.000116
303.15	0.7	0.002691	0.000135
308.15	0.7	0.003146	0.000158
313.15	0.7	0.003682	0.000184
318.15	0.7	0.004218	0.000211
323.15	0.7	0.004814	0.00024
328.15	0.7	0.005392	0.000268
333.15	0.7	0.006044	0.000301
283.15	0.8	0.001389	6.9e-05
288.15	0.8	0.001724	8.6e-05
293.15	0.8	0.002237	0.000111
298.15	0.8	0.00269	0.000134
303.15	0.8	0.00312	0.000155
308.15	0.8	0.003609	0.000179
313.15	0.8	0.004151	0.000206
318.15	0.8	0.004692	0.000233
323.15	0.8	0.005255	0.000261
328.15	0.8	0.005849	0.00029
333.15	0.8	0.006527	0.000323
283.15	0.9	0.001667	8.3e-05
288.15	0.9	0.002004	9.9e-05
293.15	0.9	0.002302	0.000114
298.15	0.9	0.002954	0.000146
303.15	0.9	0.003439	0.00017
308.15	0.9	0.003885	0.000192
313.15	0.9	0.004559	0.000226
318.15	0.9	0.005164	0.000256
323.15	0.9	0.005799	0.000287
328.15	0.9	0.006394	0.000316
333.15	0.9	0.007109	0.000352
283.15	1	0.001823	9e-05
288.15	1	0.002234	0.000111
293.15	1	0.002747	0.000136
298.15	1	0.003252	0.000161
303.15	1	0.003819	0.000189
308.15	1	0.004407	0.000218
313.15	1	0.005029	0.000249
318.15	1	0.005716	0.000283
323.15	1	0.006353	0.000314
328.15	1	0.007102	0.000351
333.15	1	0.007819	0.000387

System: 5,7-dichloro-8-hydroxyquinoline + ethyl acetate + propan-2-ol; phases: Liquid, Crystal
Fixed: Pressure, kPa = 100
Property: Mole fraction of 5,7-dichloro-8-hydroxyquinoline (Liquid); method: Chromatography
Temperature, K	Mass fraction of ethyl acetate	Mole fraction of 5,7-dichloro-8-hydroxyquinoline	uncertainty
283.15	0	0.0001981	9.8e-06
288.15	0	0.0002431	1.2e-05
293.15	0	0.0003199	1.58e-05
298.15	0	0.0004149	2.05e-05
303.15	0	0.0005235	2.59e-05
308.15	0	0.0006448	3.19e-05
313.15	0	0.000801	3.96e-05
318.15	0	0.0009738	4.82e-05
323.15	0	0.001165	5.8e-05
328.15	0	0.001421	7e-05
333.15	0	0.001688	8.3e-05
283.15	0.1	0.0002709	1.35e-05
288.15	0.1	0.0003537	1.77e-05
293.15	0.1	0.0004639	2.31e-05
298.15	0.1	0.0005762	2.87e-05
303.15	0.1	0.0007257	3.61e-05
308.15	0.1	0.0008752	4.35e-05
313.15	0.1	0.001084	5.4e-05
318.15	0.1	0.001303	6.5e-05
323.15	0.1	0.001529	7.6e-05
328.15	0.1	0.001842	9.1e-05
333.15	0.1	0.002188	0.000109
283.15	0.2	0.0003603	1.84e-05
288.15	0.2	0.0004773	2.42e-05
293.15	0.2	0.0006109	3.1e-05
298.15	0.2	0.0007559	3.83e-05
303.15	0.2	0.0009276	4.67e-05
308.15	0.2	0.001108	5.6e-05
313.15	0.2	0.00134	6.7e-05
318.15	0.2	0.001587	8e-05
323.15	0.2	0.001834	9.2e-05
328.15	0.2	0.002112	0.000106
333.15	0.2	0.002493	0.000125
283.15	0.3	0.0004885	2.55e-05
288.15	0.3	0.0006148	3.18e-05
293.15	0.3	0.0008018	4.13e-05
298.15	0.3	0.000984	5.06e-05
303.15	0.3	0.001158	5.9e-05
308.15	0.3	0.001404	7.2e-05
313.15	0.3	0.00167	8.6e-05
318.15	0.3	0.001933	9.9e-05
323.15	0.3	0.002253	0.000115
328.15	0.3	0.002634	0.000134
333.15	0.3	0.003068	0.000156
283.15	0.4	0.000629	3.28e-05
288.15	0.4	0.000783	4.09e-05
293.15	0.4	0.000998	5.25e-05
298.15	0.4	0.001215	6.4e-05
303.15	0.4	0.001434	7.6e-05
308.15	0.4	0.001729	9.1e-05
313.15	0.4	0.002085	0.000109
318.15	0.4	0.002398	0.000125
323.15	0.4	0.002798	0.000145
328.15	0.4	0.003224	0.000166
333.15	0.4	0.003687	0.00019
283.15	0.5	0.00075	4.1e-05
288.15	0.5	0.000945	5.13e-05
293.15	0.5	0.001246	6.6e-05
298.15	0.5	0.001537	8.1e-05
303.15	0.5	0.001853	9.9e-05
308.15	0.5	0.002215	0.000117
313.15	0.5	0.002525	0.000133
318.15	0.5	0.002923	0.000154
323.15	0.5	0.003314	0.000174
328.15	0.5	0.003807	0.000199
333.15	0.5	0.004394	0.000229
283.15	0.6	0.000978	5.08e-05
288.15	0.6	0.001205	6.2e-05
293.15	0.6	0.001482	7.7e-05
298.15	0.6	0.001788	9.2e-05
303.15	0.6	0.00216	0.00011
308.15	0.6	0.002551	0.00013
313.15	0.6	0.003016	0.000154
318.15	0.6	0.003454	0.000176
323.15	0.6	0.003957	0.000201
328.15	0.6	0.004507	0.000229
333.15	0.6	0.005101	0.000258
283.15	0.7	0.001134	5.7e-05
288.15	0.7	0.001405	7.1e-05
293.15	0.7	0.001829	9.2e-05
298.15	0.7	0.002148	0.000108
303.15	0.7	0.002529	0.000127
308.15	0.7	0.003006	0.000151
313.15	0.7	0.003465	0.000174
318.15	0.7	0.003995	0.0002
323.15	0.7	0.004511	0.000226
328.15	0.7	0.00513	0.000256
333.15	0.7	0.00576	0.000288
283.15	0.8	0.001293	6.4e-05
288.15	0.8	0.001636	8.1e-05
293.15	0.8	0.002082	0.000103
298.15	0.8	0.002451	0.000122
303.15	0.8	0.002962	0.000147
308.15	0.8	0.003391	0.000169
313.15	0.8	0.003949	0.000196
318.15	0.8	0.004488	0.000223
323.15	0.8	0.005115	0.000254
328.15	0.8	0.005728	0.000284
333.15	0.8	0.006427	0.000319
283.15	0.9	0.001498	7.4e-05
288.15	0.9	0.001862	9.2e-05
293.15	0.9	0.0023	0.000114
298.15	0.9	0.002815	0.000139
303.15	0.9	0.003313	0.000164
308.15	0.9	0.003834	0.00019
313.15	0.9	0.004408	0.000218
318.15	0.9	0.00505	0.00025
323.15	0.9	0.005692	0.000282
328.15	0.9	0.006366	0.000315
333.15	0.9	0.00705	0.000349
283.15	1	0.001823	9e-05
288.15	1	0.002234	0.000111
293.15	1	0.002747	0.000136
298.15	1	0.003252	0.000161
303.15	1	0.003819	0.000189
308.15	1	0.004407	0.000218
313.15	1	0.005029	0.000249
318.15	1	0.005716	0.000283
323.15	1	0.006353	0.000314
328.15	1	0.007102	0.000351
333.15	1	0.007819	0.000387

System: 5,7-dichloro-8-hydroxyquinoline + methanol; phases: Liquid, Crystal
Fixed: Pressure, kPa = 100
Property: Mole fraction of 5,7-dichloro-8-hydroxyquinoline (Liquid); method: Chromatography
Temperature, K	Mole fraction of 5,7-dichloro-8-hydroxyquinoline	uncertainty
283.15	0.0003976	1.97e-05
288.15	0.0004949	2.45e-05
293.15	0.0006107	3.02e-05
298.15	0.0007473	3.7e-05
303.15	0.0009033	4.47e-05
308.15	0.001095	5.4e-05
313.15	0.001306	6.5e-05
318.15	0.001538	7.6e-05
323.15	0.00181	9e-05
328.15	0.002121	0.000105
333.15	0.002484	0.000123

System: 5,7-dichloro-8-hydroxyquinoline + ethanol; phases: Liquid, Crystal
Fixed: Pressure, kPa = 100
Property: Mole fraction of 5,7-dichloro-8-hydroxyquinoline (Liquid); method: Chromatography
Temperature, K	Mole fraction of 5,7-dichloro-8-hydroxyquinoline	uncertainty
283.15	0.0003282	1.62e-05
288.15	0.0004001	1.98e-05
293.15	0.0005033	2.49e-05
298.15	0.0006223	3.08e-05
303.15	0.0007456	3.69e-05
308.15	0.0008876	4.39e-05
313.15	0.001048	5.2e-05
318.15	0.001242	6.1e-05
323.15	0.001452	7.2e-05
328.15	0.001682	8.3e-05
333.15	0.001954	9.7e-05

System: 5,7-dichloro-8-hydroxyquinoline + propan-1-ol; phases: Liquid, Crystal
Fixed: Pressure, kPa = 100
Property: Mole fraction of 5,7-dichloro-8-hydroxyquinoline (Liquid); method: Chromatography
Temperature, K	Mole fraction of 5,7-dichloro-8-hydroxyquinoline	uncertainty
283.15	0.0002582	1.28e-05
288.15	0.0003155	1.56e-05
293.15	0.0004033	2e-05
298.15	0.0005021	2.48e-05
303.15	0.0006164	3.05e-05
308.15	0.0007513	3.72e-05
313.15	0.00091	4.5e-05
318.15	0.001099	5.4e-05
323.15	0.001301	6.4e-05
328.15	0.001551	7.7e-05
333.15	0.001828	9e-05

System: 5,7-dichloro-8-hydroxyquinoline + propan-2-ol; phases: Liquid, Crystal
Fixed: Pressure, kPa = 100
Property: Mole fraction of 5,7-dichloro-8-hydroxyquinoline (Liquid); method: Chromatography
Temperature, K	Mole fraction of 5,7-dichloro-8-hydroxyquinoline	uncertainty
283.15	0.0001981	9.8e-06
288.15	0.0002431	1.2e-05
293.15	0.0003199	1.58e-05
298.15	0.0004149	2.05e-05
303.15	0.0005235	2.59e-05
308.15	0.0006448	3.19e-05
313.15	0.000801	3.96e-05
318.15	0.0009738	4.82e-05
323.15	0.001165	5.8e-05
328.15	0.001421	7e-05
333.15	0.001688	8.3e-05
