Measured thermophysical data. Solubility Behavior and Data Modeling of l-Proline in Different Neat and Binary Solvent Systems
Source: J. Chem. Eng. Data, 2019, 10.1021/acs.jced.9b00802
Compound 1: L-proline, C5H9NO2, InChI=1S/C5H9NO2/c7-5(8)4-2-1-3-6-4/h4,6H,1-3H2,(H,7,8)/t4-/m0/s1, purity 99%
Compound 2: methanol, CH4O, InChI=1S/CH4O/c1-2/h2H,1H3, purity 99.5%
Compound 3: ethanol, C2H6O, InChI=1S/C2H6O/c1-2-3/h3H,2H2,1H3, purity 99.7%
Compound 4: acetone, C3H6O, InChI=1S/C3H6O/c1-3(2)4/h1-2H3, purity 99.5%
Compound 5: acetonitrile, C2H3N, InChI=1S/C2H3N/c1-2-3/h1H3, purity 99.5%
Compound 6: xylitol, C5H12O5, InChI=1S/C5H12O5/c6-1-3(8)5(10)4(9)2-7/h3-10H,1-2H2/t3-,4+,5+, purity 99%
Compound 7: 4-O-.alpha.-D-glucopyranosyl-D-glucitol, C12H24O11, InChI=1S/C12H24O11/c13-1-4(16)7(18)11(5(17)2-14)23-12-10(21)9(20)8(19)6(3-15)22-12/h4-21H,1-3H2/t4-,5+,6+,7+,8+,9-,10+,11+,12+/m0/s1, purity 99%
Compound 8: water, H2O, InChI=1S/H2O/h1H2, purity 99.9%

System: L-proline + water; phases: Liquid, Crystal
Fixed: Pressure, kPa = 100
Property: Mole fraction of L-proline (Liquid); method: gravimetric
Temperature, K	Mole fraction of L-proline	uncertainty
283.15	0.187581	0.056276
293.15	0.204063	0.061221
303.15	0.224323	0.067299
313.15	0.240593	0.07218
323.15	0.260345	0.078106

System: L-proline + methanol; phases: Liquid, Crystal
Fixed: Pressure, kPa = 100
Property: Mole fraction of L-proline (Liquid); method: gravimetric
Temperature, K	Mole fraction of L-proline	uncertainty
283.15	0.046866	0.01406
293.15	0.056498	0.01695
303.15	0.069556	0.020868
313.15	0.085918	0.025777
323.15	0.104142	0.031244

System: L-proline + ethanol; phases: Liquid, Crystal
Fixed: Pressure, kPa = 100
Property: Mole fraction of L-proline (Liquid); method: gravimetric
Temperature, K	Mole fraction of L-proline	uncertainty
283.15	0.003091	0.000927
293.15	0.004431	0.001329
303.15	0.00518	0.001554
313.15	0.007054	0.002116
323.15	0.009236	0.002771

System: L-proline + acetone; phases: Liquid, Crystal
Fixed: Pressure, kPa = 100
Property: Mole fraction of L-proline (Liquid); method: gravimetric
Temperature, K	Mole fraction of L-proline	uncertainty
283.15	9.9e-05	3e-05
293.15	0.000203	6.1e-05
303.15	0.000282	8.5e-05
313.15	0.00038	0.000114
323.15	0.00047	0.000141

System: L-proline + acetonitrile; phases: Liquid, Crystal
Fixed: Pressure, kPa = 100
Property: Mole fraction of L-proline (Liquid); method: gravimetric
Temperature, K	Mole fraction of L-proline	uncertainty
283.15	2.6e-05	8e-06
293.15	3e-05	9e-06
303.15	7.8e-05	2.3e-05
313.15	0.000111	3.3e-05
323.15	0.000184	5.5e-05

System: L-proline + methanol + acetone; phases: Liquid, Crystal
Fixed: Pressure, kPa = 100
Property: Mole fraction of L-proline (Liquid); method: gravimetric
Temperature, K	Solvent: Mole fraction of methanol	Mole fraction of L-proline	uncertainty
283.15	0.1	0.000223	6.7e-05
283.15	0.2	0.000576	0.000173
283.15	0.3	0.003277	0.000983
283.15	0.4	0.006779	0.002034
283.15	0.5	0.010994	0.003299
283.15	0.6	0.020047	0.006015
283.15	0.7	0.02873	0.008619
283.15	0.8	0.035283	0.010585
283.15	0.9	0.046374	0.013913
293.15	0.1	0.00028	8.4e-05
293.15	0.2	0.000703	0.000211
293.15	0.3	0.003375	0.001013
293.15	0.4	0.006838	0.002052
293.15	0.5	0.011267	0.003381
293.15	0.6	0.020874	0.006263
293.15	0.7	0.031175	0.009353
293.15	0.8	0.041933	0.01258
293.15	0.9	0.053891	0.016168
303.15	0.1	0.000342	0.000103
303.15	0.2	0.000843	0.000253
303.15	0.3	0.00347	0.001041
303.15	0.4	0.006904	0.002072
303.15	0.5	0.011689	0.003508
303.15	0.6	0.021754	0.006527
303.15	0.7	0.03409	0.010228
303.15	0.8	0.049289	0.014787
303.15	0.9	0.062434	0.018731
313.15	0.1	0.000473	0.000142
313.15	0.2	0.000983	0.000295
313.15	0.3	0.003571	0.001071
313.15	0.4	0.007232	0.00217
313.15	0.5	0.012262	0.00368
313.15	0.6	0.024252	0.007277
313.15	0.7	0.038316	0.011496
313.15	0.8	0.057167	0.017151
313.15	0.9	0.073448	0.022035
323.15	0.1	0.000581	0.000174
323.15	0.2	0.001238	0.000372
323.15	0.3	0.003693	0.001108
323.15	0.4	0.007438	0.002232
323.15	0.5	0.013203	0.003963
323.15	0.6	0.027825	0.008349
323.15	0.7	0.044771	0.013432
323.15	0.8	0.067455	0.020237
323.15	0.9	0.087224	0.026168
283.15	1	0.046866	0.01406
293.15	1	0.056498	0.01695
303.15	1	0.069556	0.020868
313.15	1	0.085918	0.025777
323.15	1	0.104142	0.031244
283.15	0	9.9e-05	3e-05
293.15	0	0.000203	6.1e-05
303.15	0	0.000282	8.5e-05
313.15	0	0.00038	0.000114
323.15	0	0.00047	0.000141

System: L-proline + ethanol + acetone; phases: Liquid, Crystal
Fixed: Pressure, kPa = 100
Property: Mole fraction of L-proline (Liquid); method: gravimetric
Temperature, K	Solvent: Mole fraction of ethanol	Mole fraction of L-proline	uncertainty
283.15	0.1	0.000128	3.8e-05
283.15	0.2	0.000336	0.000101
283.15	0.3	0.00161	0.000483
283.15	0.4	0.002308	0.000692
283.15	0.5	0.003979	0.001194
283.15	0.6	0.005396	0.001619
283.15	0.7	0.00748	0.002244
283.15	0.8	0.009482	0.002845
283.15	0.9	0.008304	0.002491
293.15	0.1	0.000205	6.2e-05
293.15	0.2	0.00043	0.000129
293.15	0.3	0.00168	0.000504
293.15	0.4	0.002453	0.000736
293.15	0.5	0.004185	0.001256
293.15	0.6	0.005513	0.001654
293.15	0.7	0.007646	0.002294
293.15	0.8	0.009953	0.002986
293.15	0.9	0.009088	0.002726
303.15	0.1	0.000289	8.7e-05
303.15	0.2	0.00052	0.000156
303.15	0.3	0.001739	0.000522
303.15	0.4	0.002552	0.000766
303.15	0.5	0.004352	0.001306
303.15	0.6	0.005724	0.001717
303.15	0.7	0.007926	0.002378
303.15	0.8	0.011042	0.003313
303.15	0.9	0.010281	0.003084
313.15	0.1	0.000389	0.000117
313.15	0.2	0.000629	0.000189
313.15	0.3	0.001833	0.00055
313.15	0.4	0.002711	0.000813
313.15	0.5	0.004561	0.001368
313.15	0.6	0.006085	0.001826
313.15	0.7	0.008741	0.002622
313.15	0.8	0.011772	0.003532
313.15	0.9	0.011547	0.003464
323.15	0.1	0.000481	0.000144
323.15	0.2	0.000717	0.000215
323.15	0.3	0.00205	0.000615
323.15	0.4	0.002855	0.000857
323.15	0.5	0.004704	0.001411
323.15	0.6	0.00678	0.002034
323.15	0.7	0.009822	0.002947
323.15	0.8	0.013583	0.004075
323.15	0.9	0.014173	0.004252
283.15	1	0.003091	0.000927
293.15	1	0.004431	0.001329
303.15	1	0.00518	0.001554
313.15	1	0.007054	0.002116
323.15	1	0.009236	0.002771
283.15	0	9.9e-05	3e-05
293.15	0	0.000203	6.1e-05
303.15	0	0.000282	8.5e-05
313.15	0	0.00038	0.000114
323.15	0	0.00047	0.000141

System: L-proline + methanol + acetonitrile; phases: Liquid, Crystal
Fixed: Pressure, kPa = 100
Property: Mole fraction of L-proline (Liquid); method: gravimetric
Temperature, K	Solvent: Mole fraction of methanol	Mole fraction of L-proline	uncertainty
283.15	0.1	0.000166	5e-05
283.15	0.2	0.000869	0.000261
283.15	0.3	0.003105	0.000932
283.15	0.4	0.007035	0.002111
283.15	0.5	0.016282	0.004885
283.15	0.6	0.020382	0.006115
283.15	0.7	0.028399	0.00852
283.15	0.8	0.037923	0.011378
283.15	0.9	0.044106	0.013233
293.15	0.1	0.000263	7.9e-05
293.15	0.2	0.000985	0.000296
293.15	0.3	0.003203	0.000961
293.15	0.4	0.007758	0.002328
293.15	0.5	0.017539	0.005262
293.15	0.6	0.022596	0.006779
293.15	0.7	0.033511	0.010054
293.15	0.8	0.045733	0.013721
293.15	0.9	0.053665	0.0161
303.15	0.1	0.000295	8.9e-05
303.15	0.2	0.0011	0.00033
303.15	0.3	0.003354	0.001006
303.15	0.4	0.008836	0.002652
303.15	0.5	0.018777	0.005634
303.15	0.6	0.026564	0.00797
303.15	0.7	0.037544	0.011264
303.15	0.8	0.054779	0.016435
303.15	0.9	0.065465	0.01964
313.15	0.1	0.000313	9.4e-05
313.15	0.2	0.001227	0.000368
313.15	0.3	0.003416	0.001025
313.15	0.4	0.009752	0.002926
313.15	0.5	0.020116	0.006036
313.15	0.6	0.031338	0.009403
313.15	0.7	0.048868	0.014662
313.15	0.8	0.066457	0.019938
313.15	0.9	0.07892	0.023677
323.15	0.1	0.000367	0.00011
323.15	0.2	0.001341	0.000402
323.15	0.3	0.003667	0.001101
323.15	0.4	0.011556	0.003468
323.15	0.5	0.021826	0.006549
323.15	0.6	0.038545	0.011565
323.15	0.7	0.059632	0.017891
323.15	0.8	0.0805	0.024151
323.15	0.9	0.094652	0.028397
283.15	1	0.046866	0.01406
293.15	1	0.056498	0.01695
303.15	1	0.069556	0.020868
313.15	1	0.085918	0.025777
323.15	1	0.104142	0.031244
283.15	0	2.6e-05	8e-06
293.15	0	3e-05	9e-06
303.15	0	7.8e-05	2.3e-05
313.15	0	0.000111	3.3e-05
323.15	0	0.000184	5.5e-05

System: L-proline + ethanol + acetonitrile; phases: Liquid, Crystal
Fixed: Pressure, kPa = 100
Property: Mole fraction of L-proline (Liquid); method: gravimetric
Temperature, K	Solvent: Mole fraction of ethanol	Mole fraction of L-proline	uncertainty
283.15	0.1	0.000169	5.1e-05
283.15	0.2	0.000474	0.000142
283.15	0.3	0.000846	0.000254
283.15	0.4	0.001475	0.000443
283.15	0.5	0.001976	0.000593
283.15	0.6	0.002789	0.000837
283.15	0.7	0.00373	0.001119
283.15	0.8	0.00459	0.001377
283.15	0.9	0.004721	0.001416
293.15	0.1	0.000266	8e-05
293.15	0.2	0.000545	0.000164
293.15	0.3	0.001017	0.000305
293.15	0.4	0.00161	0.000483
293.15	0.5	0.002479	0.000744
293.15	0.6	0.003357	0.001007
293.15	0.7	0.00444	0.001332
293.15	0.8	0.005843	0.001753
293.15	0.9	0.005934	0.00178
303.15	0.1	0.000377	0.000113
303.15	0.2	0.000757	0.000227
303.15	0.3	0.001152	0.000346
303.15	0.4	0.001759	0.000528
303.15	0.5	0.002734	0.00082
303.15	0.6	0.004044	0.001213
303.15	0.7	0.005393	0.001618
303.15	0.8	0.006926	0.002078
303.15	0.9	0.007251	0.002175
313.15	0.1	0.000491	0.000147
313.15	0.2	0.000847	0.000254
313.15	0.3	0.001598	0.000479
313.15	0.4	0.002501	0.00075
313.15	0.5	0.003652	0.001096
313.15	0.6	0.005311	0.001593
313.15	0.7	0.00673	0.002019
313.15	0.8	0.008967	0.00269
313.15	0.9	0.009282	0.002785
323.15	0.1	0.000569	0.000171
323.15	0.2	0.000984	0.000295
323.15	0.3	0.001959	0.000588
323.15	0.4	0.003136	0.000941
323.15	0.5	0.004367	0.00131
323.15	0.6	0.006411	0.001923
323.15	0.7	0.008666	0.0026
323.15	0.8	0.009785	0.002936
323.15	0.9	0.010069	0.003021
283.15	1	0.003091	0.000927
293.15	1	0.004431	0.001329
303.15	1	0.00518	0.001554
313.15	1	0.007054	0.002116
323.15	1	0.009236	0.002771
283.15	0	2.6e-05	8e-06
293.15	0	3e-05	9e-06
303.15	0	7.8e-05	2.3e-05
313.15	0	0.000111	3.3e-05
323.15	0	0.000184	5.5e-05

System: xylitol + ethanol; phases: Liquid, Crystal
Fixed: Pressure, kPa = 100
Property: Mole fraction of xylitol (Liquid); method: gravimetric
Temperature, K	Mole fraction of xylitol	uncertainty
293.15	0.001873	0.000562
298.15	0.002513	0.000754
303.15	0.003192	0.000958
308.15	0.004071	0.001222
313.15	0.005387	0.001616
318.15	0.007197	0.002159

System: 4-O-.alpha.-D-glucopyranosyl-D-glucitol + water + ethanol; phases: Liquid, Crystal
Fixed: Solvent: Mole fraction of water = 0.5229
Fixed: Pressure, kPa = 100
Property: Mole fraction of 4-O-.alpha.-D-glucopyranosyl-D-glucitol (Liquid); method: gravimetric
Temperature, K	Mole fraction of 4-O-.alpha.-D-glucopyranosyl-D-glucitol	uncertainty
298.15	0.004813	0.001444
303.15	0.005973	0.001792
308.15	0.007673	0.002302
313.15	0.010134	0.003041
318.15	0.013627	0.004089
323.15	0.018263	0.00548

System: L-proline + water + ethanol; phases: Liquid, Crystal
Fixed: Temperature, K = 298.15
Fixed: Pressure, kPa = 100
Property: Mole fraction of L-proline (Liquid); method: gravimetric
Solvent: Mole fraction of water	Mole fraction of L-proline	uncertainty
0.4602	0.0907	0.0272
0.7189	0.1674	0.0502
0.8847	0.2357	0.0707
