Measured thermophysical data. Measurement of Interfacial Tension of CO2 and NaCl Aqueous Solution over Wide Temperature, Pressure, and Salinity Ranges
Source: J. Chem. Eng. Data, 2017, 10.1021/acs.jced.6b00858
Compound 1: carbon dioxide, CO2, InChI=1S/CO2/c2-1-3
Compound 2: sodium chloride, ClNa, InChI=1S/ClH.Na/h1H;/q;+1/p-1
Compound 3: water, H2O, InChI=1S/H2O/h1H2, purity 99.8%

System: carbon dioxide + sodium chloride + water; phases: Liquid mixture 1, Liquid mixture 2
Fixed: Temperature, K = 300.1
Property: Interfacial tension, N/m (Liquid mixture 1); method: Pendant drop shape
Pressure, kPa	Solvent: Molality, mol/kg of sodium chloride	Interfacial tension, N/m	uncertainty
6910	0	0.0292	0.0006
7410	0	0.02961	0.0006
8050	0	0.02898	0.00059
8470	0	0.02805	0.00057
9080	0	0.02807	0.00056
9460	0	0.02854	0.00057
10040	0	0.02824	0.00057
10430	0	0.02831	0.00057
10950	0	0.0282	0.00057
11560	0	0.0284	0.00057
11970	0	0.02799	0.00057
6910	0.1	0.03028	0.00062
7410	0.1	0.03021	0.00061
8050	0.1	0.02948	0.00059
8470	0.1	0.02898	0.00059
9080	0.1	0.02834	0.00058
9460	0.1	0.02878	0.00058
10040	0.1	0.02863	0.00058
10430	0.1	0.02882	0.00058
10950	0.1	0.02859	0.00058
11560	0.1	0.02864	0.00058
11970	0.1	0.02862	0.00058
6910	0.2	0.03109	0.00062
7410	0.2	0.03044	0.00061
8050	0.2	0.03014	0.0006
8470	0.2	0.03001	0.0006
9080	0.2	0.02968	0.0006
9460	0.2	0.02905	0.00058
10040	0.2	0.02904	0.00058
10430	0.2	0.02912	0.00058
10950	0.2	0.02911	0.00058
11560	0.2	0.02931	0.00059
11970	0.2	0.02954	0.00059
6910	0.49	0.03114	0.00062
7410	0.49	0.03054	0.00061
8050	0.49	0.03042	0.00061
8470	0.49	0.03027	0.00061
9080	0.49	0.02987	0.0006
9460	0.49	0.02985	0.0006
10040	0.49	0.02928	0.00059
10430	0.49	0.02931	0.00059
10950	0.49	0.02933	0.00059
11560	0.49	0.02942	0.00059
11970	0.49	0.02965	0.00059
6910	0.95	0.0314	0.00063
7410	0.95	0.03073	0.00062
8050	0.95	0.03061	0.00061
8470	0.95	0.03036	0.00061
9080	0.95	0.02992	0.0006
9460	0.95	0.02964	0.00059
10040	0.95	0.02938	0.00059
10430	0.95	0.02945	0.00059
10950	0.95	0.02948	0.00059
11560	0.95	0.02952	0.00059
11970	0.95	0.02968	0.00059
6910	1.8	0.03271	0.00066
7410	1.8	0.03128	0.00063
8050	1.8	0.03114	0.00062
8470	1.8	0.03068	0.00062
9080	1.8	0.03025	0.00061
9460	1.8	0.03012	0.0006
10040	1.8	0.02978	0.0006
10430	1.8	0.02965	0.00059
10950	1.8	0.02958	0.00059
11560	1.8	0.02989	0.0006
11970	1.8	0.02988	0.0006

System: carbon dioxide + sodium chloride + water; phases: Liquid, Fluid (supercritical or subcritical phases)
Property: Interfacial tension, N/m (Liquid); method: Pendant drop shape
Temperature, K	Pressure, kPa	Solvent: Molality, mol/kg of sodium chloride	Interfacial tension, N/m	uncertainty
300.1	3010	0	0.049	0.00105
300.1	3440	0	0.04726	0.001
300.1	4010	0	0.0451	0.00097
300.1	4460	0	0.04207	0.00089
300.1	5030	0	0.04005	0.00092
300.1	5460	0	0.03731	0.00079
300.1	5970	0	0.03513	0.00075
300.1	6540	0	0.03314	0.00081
300.1	3010	0.1	0.05181	0.00107
300.1	3440	0.1	0.0493	0.00102
300.1	4010	0.1	0.04717	0.00097
300.1	4460	0.1	0.04461	0.00094
300.1	5030	0.1	0.04212	0.00091
300.1	5460	0.1	0.03976	0.00086
300.1	5970	0.1	0.03675	0.00079
300.1	6540	0.1	0.03441	0.00075
300.1	3010	0.2	0.05257	0.00106
300.1	3440	0.2	0.05084	0.00104
300.1	4010	0.2	0.04713	0.00096
300.1	4460	0.2	0.04467	0.00093
300.1	5030	0.2	0.04243	0.00091
300.1	5460	0.2	0.04083	0.00084
300.1	5970	0.2	0.03768	0.00079
300.1	6540	0.2	0.0346	0.00074
300.1	3010	0.49	0.05327	0.00107
300.1	3440	0.49	0.04944	0.00103
300.1	4010	0.49	0.04813	0.00097
300.1	4460	0.49	0.04407	0.00093
300.1	5030	0.49	0.04243	0.00086
300.1	5460	0.49	0.03954	0.00082
300.1	5970	0.49	0.03795	0.00077
300.1	6540	0.49	0.03404	0.00081
300.1	3010	0.95	0.05293	0.00106
300.1	3440	0.95	0.05122	0.00108
300.1	4010	0.95	0.0484	0.00098
300.1	4460	0.95	0.04618	0.00095
300.1	5030	0.95	0.04352	0.00089
300.1	5460	0.95	0.04141	0.00088
300.1	5970	0.95	0.0382	0.00081
300.1	6540	0.95	0.03509	0.00089
300.1	3010	1.8	0.05539	0.00112
300.1	3440	1.8	0.05128	0.00105
300.1	4010	1.8	0.0499	0.00105
300.1	4460	1.8	0.04586	0.00096
300.1	5030	1.8	0.0445	0.001
300.1	5460	1.8	0.04006	0.00091
300.1	5970	1.8	0.03878	0.00095
300.1	6540	1.8	0.03411	0.00108
308.2	2990	0	0.05073	0.00105
308.2	3590	0	0.04857	0.00101
308.2	4010	0	0.0462	0.00096
308.2	4530	0	0.0436	0.00094
308.2	5040	0	0.04233	0.00093
308.2	5470	0	0.03843	0.00086
308.2	5930	0	0.03712	0.00085
308.2	6580	0	0.03658	0.00086
308.2	6930	0	0.03267	0.00078
308.2	7510	0	0.03162	0.00091
308.2	7970	0	0.03144	0.00078
308.2	8420	0	0.02975	0.00099
308.2	8940	0	0.02844	0.00084
308.2	9550	0	0.02925	0.00071
308.2	10040	0	0.02908	0.0007
308.2	10490	0	0.02859	0.00067
308.2	10970	0	0.02813	0.00062
308.2	11520	0	0.02887	0.0006
308.2	12030	0	0.02899	0.00059
308.2	2990	0.1	0.05233	0.00107
308.2	3590	0.1	0.04963	0.00102
308.2	4010	0.1	0.04803	0.00099
308.2	4530	0.1	0.04603	0.00097
308.2	5040	0.1	0.04407	0.00093
308.2	5470	0.1	0.04145	0.0009
308.2	5930	0.1	0.03883	0.00086
308.2	6580	0.1	0.03616	0.00081
308.2	6930	0.1	0.03317	0.00096
308.2	7510	0.1	0.03254	0.00106
308.2	7970	0.1	0.03162	0.00075
308.2	8420	0.1	0.03039	0.0008
308.2	8940	0.1	0.02974	0.00085
308.2	9550	0.1	0.02926	0.00077
308.2	10040	0.1	0.02973	0.00074
308.2	10490	0.1	0.02953	0.00067
308.2	10970	0.1	0.02971	0.00065
308.2	11520	0.1	0.02953	0.0006
308.2	12030	0.1	0.02966	0.0006
308.2	2990	0.2	0.05329	0.00107
308.2	3590	0.2	0.051	0.00103
308.2	4010	0.2	0.0487	0.001
308.2	4530	0.2	0.04632	0.00096
308.2	5040	0.2	0.04483	0.00092
308.2	5470	0.2	0.04164	0.00086
308.2	5930	0.2	0.03948	0.00084
308.2	6580	0.2	0.0363	0.00081
308.2	6930	0.2	0.03404	0.00096
308.2	7510	0.2	0.03315	0.00094
308.2	7970	0.2	0.03112	0.00085
308.2	8420	0.2	0.03075	0.00075
308.2	8940	0.2	0.03074	0.00069
308.2	9550	0.2	0.03039	0.0007
308.2	10040	0.2	0.03022	0.00068
308.2	10490	0.2	0.02989	0.00065
308.2	10970	0.2	0.02975	0.00062
308.2	11520	0.2	0.0297	0.0006
308.2	12030	0.2	0.02986	0.0006
308.2	2990	0.49	0.05333	0.00107
308.2	3590	0.49	0.0523	0.00107
308.2	4010	0.49	0.04787	0.00096
308.2	4530	0.49	0.04714	0.00099
308.2	5040	0.49	0.04313	0.00088
308.2	5470	0.49	0.04206	0.00088
308.2	5930	0.49	0.03854	0.0008
308.2	6580	0.49	0.03776	0.00085
308.2	6930	0.49	0.03381	0.00077
308.2	7510	0.49	0.03172	0.00097
308.2	7970	0.49	0.03129	0.00093
308.2	8420	0.49	0.03141	0.00085
308.2	8940	0.49	0.03123	0.00071
308.2	9550	0.49	0.03105	0.00074
308.2	10040	0.49	0.0304	0.00066
308.2	10490	0.49	0.03037	0.00064
308.2	10970	0.49	0.03027	0.00064
308.2	11520	0.49	0.03015	0.00063
308.2	12030	0.49	0.03021	0.00061
308.2	2990	0.95	0.05411	0.00109
308.2	3590	0.95	0.05281	0.00107
308.2	4010	0.95	0.04929	0.001
308.2	4530	0.95	0.04704	0.00098
308.2	5040	0.95	0.04471	0.00092
308.2	5470	0.95	0.04287	0.00091
308.2	5930	0.95	0.04069	0.00087
308.2	6580	0.95	0.03851	0.0009
308.2	6930	0.95	0.03557	0.00092
308.2	7510	0.95	0.03254	0.00103
308.2	7970	0.95	0.03165	0.00091
308.2	8420	0.95	0.03157	0.00081
308.2	8940	0.95	0.03146	0.00072
308.2	9550	0.95	0.03115	0.00073
308.2	10040	0.95	0.03095	0.00068
308.2	10490	0.95	0.03087	0.00066
308.2	10970	0.95	0.03068	0.00067
308.2	11520	0.95	0.03024	0.00064
308.2	12030	0.95	0.03016	0.00061
308.2	2990	1.8	0.05638	0.00114
308.2	3590	1.8	0.05335	0.0011
308.2	4010	1.8	0.05125	0.00105
308.2	4530	1.8	0.04868	0.00104
308.2	5040	1.8	0.04677	0.00097
308.2	5470	1.8	0.04462	0.001
308.2	5930	1.8	0.04235	0.00093
308.2	6580	1.8	0.04048	0.001
308.2	6930	1.8	0.03821	0.00082
308.2	7510	1.8	0.03509	0.00085
308.2	7970	1.8	0.03384	0.00079
308.2	8420	1.8	0.03265	0.00088
308.2	8940	1.8	0.03158	0.00085
308.2	9550	1.8	0.02997	0.00082
308.2	10040	1.8	0.03035	0.00088
308.2	10490	1.8	0.02978	0.00081
308.2	10970	1.8	0.03013	0.00075
308.2	11520	1.8	0.02979	0.0007
308.2	12030	1.8	0.03047	0.00063
313.5	3060	0.1	0.05391	0.00115
313.5	3450	0.1	0.05198	0.00111
313.5	3990	0.1	0.0496	0.00108
313.5	4580	0.1	0.04785	0.00103
313.5	4980	0.1	0.04576	0.00098
313.5	5460	0.1	0.044	0.001
313.5	5980	0.1	0.04155	0.001
313.5	6590	0.1	0.03945	0.001
313.5	6930	0.1	0.03753	0.00106
313.5	7530	0.1	0.03678	0.00094
313.5	7940	0.1	0.03359	0.00086
313.5	8580	0.1	0.03293	0.00079
313.5	8990	0.1	0.03283	0.00077
313.5	9460	0.1	0.03233	0.00068
313.5	10010	0.1	0.03186	0.00066
313.5	10560	0.1	0.03105	0.00065
313.5	10990	0.1	0.03058	0.00063
313.5	11530	0.1	0.02989	0.00061
313.5	12040	0.1	0.02965	0.0006
313.5	3060	0	0.0517	0.00109
313.5	3450	0	0.04981	0.00105
313.5	3990	0	0.04776	0.00104
313.5	4580	0	0.04488	0.00103
313.5	4980	0	0.044	0.00097
313.5	5460	0	0.04175	0.00101
313.5	5980	0	0.0408	0.001
313.5	6590	0	0.03923	0.00089
313.5	6930	0	0.03621	0.00092
313.5	7530	0	0.03529	0.00088
313.5	7940	0	0.03338	0.00074
313.5	8580	0	0.03361	0.00068
313.5	8990	0	0.03242	0.00073
313.5	9460	0	0.03105	0.00065
313.5	10010	0	0.03097	0.00066
313.5	10560	0	0.03026	0.00064
313.5	10990	0	0.02965	0.00064
313.5	11530	0	0.02936	0.00061
313.5	12040	0	0.02931	0.00061
313.5	3060	0.2	0.05388	0.00111
313.5	3450	0.2	0.05183	0.00105
313.5	3990	0.2	0.04997	0.00105
313.5	4580	0.2	0.04751	0.00099
313.5	4980	0.2	0.04528	0.00093
313.5	5460	0.2	0.04351	0.00097
313.5	5980	0.2	0.04155	0.00093
313.5	6590	0.2	0.03954	0.00094
313.5	6930	0.2	0.03782	0.00099
313.5	7530	0.2	0.03598	0.00086
313.5	7940	0.2	0.03477	0.00091
313.5	8580	0.2	0.03301	0.00072
313.5	8990	0.2	0.03212	0.00075
313.5	9460	0.2	0.03207	0.00067
313.5	10010	0.2	0.0317	0.00065
313.5	10560	0.2	0.03121	0.00065
313.5	10990	0.2	0.03065	0.00063
313.5	11530	0.2	0.03023	0.00062
313.5	12040	0.2	0.02976	0.00061
313.5	3060	0.49	0.05349	0.00113
313.5	3450	0.49	0.05179	0.00105
313.5	3990	0.49	0.04916	0.0011
313.5	4580	0.49	0.04716	0.001
313.5	4980	0.49	0.04447	0.00101
313.5	5460	0.49	0.04255	0.00096
313.5	5980	0.49	0.04067	0.00102
313.5	6590	0.49	0.03916	0.00092
313.5	6930	0.49	0.03665	0.00104
313.5	7530	0.49	0.03629	0.00104
313.5	7940	0.49	0.03508	0.00093
313.5	8580	0.49	0.0342	0.00083
313.5	8990	0.49	0.03289	0.00076
313.5	9460	0.49	0.03294	0.00068
313.5	10010	0.49	0.03186	0.00065
313.5	10560	0.49	0.03128	0.00064
313.5	10990	0.49	0.0312	0.00064
313.5	11530	0.49	0.03111	0.00063
313.5	12040	0.49	0.03008	0.00061
313.5	3060	0.95	0.0543	0.00114
313.5	3450	0.95	0.05337	0.00109
313.5	3990	0.95	0.0502	0.00108
313.5	4580	0.95	0.04925	0.00105
313.5	4980	0.95	0.04628	0.001
313.5	5460	0.95	0.04543	0.00101
313.5	5980	0.95	0.04247	0.00098
313.5	6590	0.95	0.0413	0.00095
313.5	6930	0.95	0.03885	0.00101
313.5	7530	0.95	0.03719	0.00106
313.5	7940	0.95	0.03552	0.00099
313.5	8580	0.95	0.03434	0.00084
313.5	8990	0.95	0.03316	0.00076
313.5	9460	0.95	0.03306	0.00069
313.5	10010	0.95	0.0323	0.00066
313.5	10560	0.95	0.03174	0.00065
313.5	10990	0.95	0.03186	0.00065
313.5	11530	0.95	0.03129	0.00064
313.5	12040	0.95	0.03045	0.00062
313.5	3060	1.8	0.05696	0.00118
313.5	3450	1.8	0.0543	0.00113
313.5	3990	1.8	0.05255	0.00112
313.5	4580	1.8	0.04998	0.00104
313.5	4980	1.8	0.04803	0.00099
313.5	5460	1.8	0.04555	0.00101
313.5	5980	1.8	0.04367	0.001
313.5	6590	1.8	0.04138	0.00094
313.5	6930	1.8	0.03985	0.00095
313.5	7530	1.8	0.03795	0.00097
313.5	7940	1.8	0.03604	0.00092
313.5	8580	1.8	0.03551	0.00092
313.5	8990	1.8	0.03432	0.00087
313.5	9460	1.8	0.03366	0.00085
313.5	10010	1.8	0.03341	0.00075
313.5	10560	1.8	0.03298	0.00073
313.5	10990	1.8	0.03226	0.00069
313.5	11530	1.8	0.03205	0.00068
313.5	12040	1.8	0.03134	0.00064
318.2	3030	0.1	0.05593	0.00115
318.2	3460	0.1	0.05385	0.0011
318.2	4080	0.1	0.05195	0.00109
318.2	4490	0.1	0.04974	0.00102
318.2	4940	0.1	0.04782	0.00101
318.2	5560	0.1	0.04564	0.00097
318.2	6030	0.1	0.04392	0.00096
318.2	6590	0.1	0.04219	0.00092
318.2	6970	0.1	0.04044	0.00095
318.2	7420	0.1	0.03871	0.00087
318.2	7940	0.1	0.037	0.00093
318.2	8480	0.1	0.03523	0.00083
318.2	9010	0.1	0.03353	0.00078
318.2	9490	0.1	0.03127	0.00068
318.2	9980	0.1	0.03149	0.00064
318.2	10520	0.1	0.03129	0.00064
318.2	11050	0.1	0.03117	0.00063
318.2	11510	0.1	0.03065	0.00062
318.2	11910	0.1	0.03082	0.00063
318.2	3030	0.2	0.05539	0.00113
318.2	3460	0.2	0.05331	0.00109
318.2	4080	0.2	0.05148	0.00105
318.2	4490	0.2	0.04912	0.00101
318.2	4940	0.2	0.04739	0.00101
318.2	5560	0.2	0.0455	0.00097
318.2	6030	0.2	0.04331	0.00094
318.2	6590	0.2	0.04135	0.00091
318.2	6970	0.2	0.04028	0.00094
318.2	7420	0.2	0.03812	0.00089
318.2	7940	0.2	0.03707	0.00089
318.2	8480	0.2	0.03472	0.00082
318.2	9010	0.2	0.03448	0.00077
318.2	9490	0.2	0.03229	0.00066
318.2	9980	0.2	0.03151	0.00063
318.2	10520	0.2	0.03156	0.00063
318.2	11050	0.2	0.03122	0.00063
318.2	11510	0.2	0.03112	0.00063
318.2	11910	0.2	0.03107	0.00063
318.2	3030	0	0.05261	0.00113
318.2	3460	0	0.05139	0.00109
318.2	4080	0	0.04927	0.00106
318.2	4490	0	0.04801	0.00104
318.2	4940	0	0.04607	0.00099
318.2	5560	0	0.04312	0.00094
318.2	6030	0	0.04238	0.0009
318.2	6590	0	0.04049	0.00086
318.2	6970	0	0.03791	0.00088
318.2	7420	0	0.03622	0.00081
318.2	7940	0	0.03453	0.00082
318.2	8480	0	0.03288	0.0007
318.2	9010	0	0.03095	0.00065
318.2	9490	0	0.03033	0.00061
318.2	9980	0	0.03031	0.00062
318.2	10520	0	0.03011	0.00062
318.2	11050	0	0.03012	0.00062
318.2	11510	0	0.03048	0.00062
318.2	11910	0	0.03043	0.00062
318.2	3030	0.49	0.05676	0.00118
318.2	3460	0.49	0.05461	0.00113
318.2	4080	0.49	0.05255	0.00112
318.2	4490	0.49	0.05054	0.00107
318.2	4940	0.49	0.04849	0.00109
318.2	5560	0.49	0.04627	0.00105
318.2	6030	0.49	0.04439	0.00102
318.2	6590	0.49	0.04261	0.00097
318.2	6970	0.49	0.04097	0.00102
318.2	7420	0.49	0.03923	0.00092
318.2	7940	0.49	0.03738	0.00087
318.2	8480	0.49	0.03617	0.00081
318.2	9010	0.49	0.03483	0.00078
318.2	9490	0.49	0.03247	0.00069
318.2	9980	0.49	0.03184	0.00066
318.2	10520	0.49	0.03163	0.00065
318.2	11050	0.49	0.03145	0.00064
318.2	11510	0.49	0.03126	0.00063
318.2	11910	0.49	0.03118	0.00063
318.2	3030	0.95	0.0574	0.00117
318.2	3460	0.95	0.05531	0.00112
318.2	4080	0.95	0.05306	0.00109
318.2	4490	0.95	0.05092	0.00102
318.2	4940	0.95	0.04886	0.00102
318.2	5560	0.95	0.04687	0.00097
318.2	6030	0.95	0.04523	0.00097
318.2	6590	0.95	0.04327	0.0009
318.2	6970	0.95	0.04183	0.00092
318.2	7420	0.95	0.04031	0.00089
318.2	7940	0.95	0.03854	0.00088
318.2	8480	0.95	0.03684	0.0008
318.2	9010	0.95	0.035	0.00076
318.2	9490	0.95	0.03315	0.0007
318.2	9980	0.95	0.03226	0.00067
318.2	10520	0.95	0.03208	0.00067
318.2	11050	0.95	0.03185	0.00064
318.2	11510	0.95	0.03164	0.00064
318.2	11910	0.95	0.03132	0.00065
318.2	3030	1.8	0.05914	0.0012
318.2	3460	1.8	0.05691	0.00117
318.2	4080	1.8	0.05474	0.00113
318.2	4490	1.8	0.05145	0.00107
318.2	4940	1.8	0.0495	0.00105
318.2	5560	1.8	0.0487	0.00106
318.2	6030	1.8	0.04683	0.00103
318.2	6590	1.8	0.04504	0.00099
318.2	6970	1.8	0.04324	0.00099
318.2	7420	1.8	0.04146	0.00097
318.2	7940	1.8	0.03968	0.00097
318.2	8480	1.8	0.03809	0.00089
318.2	9010	1.8	0.03669	0.00086
318.2	9490	1.8	0.03508	0.0008
318.2	9980	1.8	0.03358	0.00074
318.2	10520	1.8	0.03261	0.0007
318.2	11050	1.8	0.03225	0.00071
318.2	11510	1.8	0.03193	0.0007
318.2	11910	1.8	0.03158	0.0007
323.4	3010	0.2	0.05589	0.00112
323.4	3450	0.2	0.05404	0.00109
323.4	4030	0.2	0.05174	0.00104
323.4	4510	0.2	0.04995	0.00101
323.4	5050	0.2	0.04838	0.00098
323.4	5540	0.2	0.04664	0.00094
323.4	6030	0.2	0.045	0.00093
323.4	6470	0.2	0.04358	0.0009
323.4	6970	0.2	0.04234	0.00089
323.4	7560	0.2	0.04047	0.00088
323.4	7980	0.2	0.03941	0.00084
323.4	8550	0.2	0.03731	0.00085
323.4	9040	0.2	0.03533	0.00076
323.4	9470	0.2	0.03344	0.00078
323.4	10030	0.2	0.03117	0.00073
323.4	10420	0.2	0.03108	0.00066
323.4	10960	0.2	0.03094	0.00063
323.4	11590	0.2	0.03096	0.00065
323.4	11990	0.2	0.03104	0.00062
323.4	3010	0.1	0.0561	0.00113
323.4	3450	0.1	0.05355	0.00108
323.4	4030	0.1	0.05221	0.00105
323.4	4510	0.1	0.05028	0.00102
323.4	5050	0.1	0.04843	0.00098
323.4	5540	0.1	0.04659	0.00095
323.4	6030	0.1	0.04505	0.00093
323.4	6470	0.1	0.04342	0.00089
323.4	6970	0.1	0.04202	0.00088
323.4	7560	0.1	0.04039	0.00087
323.4	7980	0.1	0.03886	0.00083
323.4	8550	0.1	0.03725	0.00083
323.4	9040	0.1	0.03585	0.00081
323.4	9470	0.1	0.03461	0.00083
323.4	10030	0.1	0.03098	0.00069
323.4	10420	0.1	0.03017	0.00063
323.4	10960	0.1	0.03056	0.00061
323.4	11590	0.1	0.03025	0.00063
323.4	11990	0.1	0.03081	0.00062
323.4	3010	0.49	0.05688	0.00114
323.4	3450	0.49	0.05474	0.0011
323.4	4030	0.49	0.05278	0.00106
323.4	4510	0.49	0.05097	0.00102
323.4	5050	0.49	0.04907	0.00099
323.4	5540	0.49	0.04726	0.00095
323.4	6030	0.49	0.04549	0.00092
323.4	6470	0.49	0.0441	0.00089
323.4	6970	0.49	0.04253	0.00087
323.4	7560	0.49	0.0409	0.00085
323.4	7980	0.49	0.0394	0.00083
323.4	8550	0.49	0.03787	0.0008
323.4	9040	0.49	0.03608	0.00077
323.4	9470	0.49	0.0351	0.00079
323.4	10030	0.49	0.03351	0.00073
323.4	10420	0.49	0.03257	0.00067
323.4	10960	0.49	0.03197	0.00065
323.4	11590	0.49	0.03122	0.00065
323.4	11990	0.49	0.03125	0.00063
323.4	3010	0	0.05364	0.00113
323.4	3450	0	0.05174	0.00106
323.4	4030	0	0.04981	0.00104
323.4	4510	0	0.04788	0.00099
323.4	5050	0	0.04648	0.00097
323.4	5540	0	0.04409	0.00094
323.4	6030	0	0.04261	0.00091
323.4	6470	0	0.04078	0.00087
323.4	6970	0	0.03958	0.00091
323.4	7560	0	0.03766	0.00089
323.4	7980	0	0.03676	0.00087
323.4	8550	0	0.03478	0.00087
323.4	9040	0	0.03322	0.00088
323.4	9470	0	0.03169	0.00082
323.4	10030	0	0.03081	0.00068
323.4	10420	0	0.03022	0.00063
323.4	10960	0	0.0305	0.00062
323.4	11590	0	0.03031	0.00063
323.4	11990	0	0.03033	0.00061
323.4	3010	0.95	0.05676	0.00114
323.4	3450	0.95	0.0547	0.0011
323.4	4030	0.95	0.05264	0.00106
323.4	4510	0.95	0.05011	0.00101
323.4	5050	0.95	0.04884	0.00099
323.4	5540	0.95	0.04749	0.00096
323.4	6030	0.95	0.04582	0.00093
323.4	6470	0.95	0.04416	0.00089
323.4	6970	0.95	0.04249	0.00087
323.4	7560	0.95	0.04073	0.00084
323.4	7980	0.95	0.03962	0.00081
323.4	8550	0.95	0.03747	0.00078
323.4	9040	0.95	0.03581	0.00076
323.4	9470	0.95	0.03521	0.0008
323.4	10030	0.95	0.03407	0.00077
323.4	10420	0.95	0.03346	0.00073
323.4	10960	0.95	0.03227	0.0007
323.4	11590	0.95	0.03234	0.00067
323.4	11990	0.95	0.03215	0.0007
323.4	3010	1.8	0.0592	0.00119
323.4	3450	1.8	0.05707	0.00115
323.4	4030	1.8	0.05508	0.00111
323.4	4510	1.8	0.05317	0.00109
323.4	5050	1.8	0.05124	0.00106
323.4	5540	1.8	0.04951	0.001
323.4	6030	1.8	0.04773	0.00098
323.4	6470	1.8	0.04599	0.00094
323.4	6970	1.8	0.04445	0.00093
323.4	7560	1.8	0.04275	0.00092
323.4	7980	1.8	0.04142	0.00089
323.4	8550	1.8	0.04008	0.00088
323.4	9040	1.8	0.03858	0.00085
323.4	9470	1.8	0.03744	0.00083
323.4	10030	1.8	0.03629	0.00082
323.4	10420	1.8	0.03552	0.00077
323.4	10960	1.8	0.03515	0.00079
323.4	11590	1.8	0.03464	0.00072
323.4	11990	1.8	0.03418	0.0008
328.3	3020	0.49	0.05662	0.00114
328.3	3520	0.49	0.05447	0.00109
328.3	4040	0.49	0.05249	0.00105
328.3	4430	0.49	0.05082	0.00102
328.3	4950	0.49	0.0489	0.00098
328.3	5420	0.49	0.04729	0.00095
328.3	6020	0.49	0.04583	0.00093
328.3	6470	0.49	0.0441	0.00089
328.3	7040	0.49	0.04262	0.00087
328.3	7530	0.49	0.04126	0.00084
328.3	7940	0.49	0.03984	0.00082
328.3	8550	0.49	0.03851	0.00079
328.3	9040	0.49	0.03731	0.00079
328.3	9540	0.49	0.03589	0.00077
328.3	10040	0.49	0.03444	0.00074
328.3	10470	0.49	0.03313	0.00074
328.3	10990	0.49	0.03266	0.00072
328.3	11440	0.49	0.03221	0.00069
328.3	12020	0.49	0.03211	0.00068
328.3	3020	0.2	0.05612	0.00113
328.3	3520	0.2	0.05374	0.00108
328.3	4040	0.2	0.05232	0.00105
328.3	4430	0.2	0.05026	0.00101
328.3	4950	0.2	0.04876	0.00098
328.3	5420	0.2	0.04707	0.00094
328.3	6020	0.2	0.0457	0.00092
328.3	6470	0.2	0.0438	0.00088
328.3	7040	0.2	0.0427	0.00086
328.3	7530	0.2	0.04115	0.00083
328.3	7940	0.2	0.03982	0.0008
328.3	8550	0.2	0.03843	0.00079
328.3	9040	0.2	0.03702	0.0008
328.3	9540	0.2	0.03613	0.00082
328.3	10040	0.2	0.03514	0.00085
328.3	10470	0.2	0.03367	0.00081
328.3	10990	0.2	0.03245	0.00073
328.3	11440	0.2	0.03197	0.00075
328.3	12020	0.2	0.03138	0.00067
328.3	3020	0.1	0.05584	0.00112
328.3	3520	0.1	0.05338	0.00107
328.3	4040	0.1	0.05208	0.00105
328.3	4430	0.1	0.05019	0.00101
328.3	4950	0.1	0.04876	0.00098
328.3	5420	0.1	0.04701	0.00095
328.3	6020	0.1	0.04563	0.00093
328.3	6470	0.1	0.04392	0.00089
328.3	7040	0.1	0.04214	0.00086
328.3	7530	0.1	0.04102	0.00084
328.3	7940	0.1	0.03958	0.00081
328.3	8550	0.1	0.03833	0.0008
328.3	9040	0.1	0.037	0.00078
328.3	9540	0.1	0.03559	0.00077
328.3	10040	0.1	0.03437	0.00085
328.3	10470	0.1	0.033	0.00083
328.3	10990	0.1	0.03125	0.00072
328.3	11440	0.1	0.03074	0.00071
328.3	12020	0.1	0.03089	0.00062
328.3	3020	0.95	0.05756	0.00116
328.3	3520	0.95	0.05562	0.00112
328.3	4040	0.95	0.05365	0.00108
328.3	4430	0.95	0.05186	0.00105
328.3	4950	0.95	0.05013	0.00101
328.3	5420	0.95	0.04826	0.00098
328.3	6020	0.95	0.04655	0.00095
328.3	6470	0.95	0.04488	0.00091
328.3	7040	0.95	0.04321	0.00089
328.3	7530	0.95	0.04174	0.00086
328.3	7940	0.95	0.03988	0.00082
328.3	8550	0.95	0.03884	0.00082
328.3	9040	0.95	0.03752	0.00081
328.3	9540	0.95	0.03685	0.0008
328.3	10040	0.95	0.03577	0.00077
328.3	10470	0.95	0.03495	0.00075
328.3	10990	0.95	0.0347	0.00073
328.3	11440	0.95	0.03417	0.00069
328.3	12020	0.95	0.03402	0.00071
328.3	3020	0	0.05482	0.00112
328.3	3520	0	0.05293	0.00108
328.3	4040	0	0.05107	0.00105
328.3	4430	0	0.04905	0.00101
328.3	4950	0	0.04732	0.00098
328.3	5420	0	0.04569	0.00097
328.3	6020	0	0.04397	0.00095
328.3	6470	0	0.04249	0.00093
328.3	7040	0	0.04114	0.0009
328.3	7530	0	0.03971	0.00089
328.3	7940	0	0.03833	0.00084
328.3	8550	0	0.03711	0.00086
328.3	9040	0	0.03592	0.00085
328.3	9540	0	0.03469	0.00086
328.3	10040	0	0.03323	0.00081
328.3	10470	0	0.03182	0.00078
328.3	10990	0	0.03088	0.00069
328.3	11440	0	0.03042	0.00072
328.3	12020	0	0.03045	0.00061
328.3	3020	1.8	0.05918	0.00119
328.3	3520	1.8	0.05717	0.00115
328.3	4040	1.8	0.05552	0.00111
328.3	4430	1.8	0.05376	0.00108
328.3	4950	1.8	0.05189	0.00105
328.3	5420	1.8	0.05023	0.00102
328.3	6020	1.8	0.04875	0.00099
328.3	6470	1.8	0.04729	0.00097
328.3	7040	1.8	0.04566	0.00095
328.3	7530	1.8	0.04439	0.00093
328.3	7940	1.8	0.04288	0.0009
328.3	8550	1.8	0.0415	0.00087
328.3	9040	1.8	0.0401	0.00085
328.3	9540	1.8	0.03853	0.00083
328.3	10040	1.8	0.03714	0.00078
328.3	10470	1.8	0.03561	0.00075
328.3	10990	1.8	0.03588	0.00073
328.3	11440	1.8	0.03507	0.00071
328.3	12020	1.8	0.03543	0.00072
333.4	2960	0.49	0.05682	0.00114
333.4	3460	0.49	0.05486	0.0011
333.4	3930	0.49	0.05301	0.00106
333.4	4470	0.49	0.0514	0.00103
333.4	4980	0.49	0.04968	0.001
333.4	5520	0.49	0.04806	0.00097
333.4	6070	0.49	0.04662	0.00094
333.4	6490	0.49	0.04505	0.00092
333.4	7030	0.49	0.04385	0.0009
333.4	7560	0.49	0.04237	0.00087
333.4	7960	0.49	0.0411	0.00085
333.4	8510	0.49	0.03977	0.00082
333.4	9010	0.49	0.03878	0.00081
333.4	9520	0.49	0.03772	0.0008
333.4	9940	0.49	0.03645	0.0008
333.4	10440	0.49	0.0358	0.00081
333.4	10930	0.49	0.03485	0.00075
333.4	11540	0.49	0.03371	0.00075
333.4	12040	0.49	0.03353	0.00073
333.4	2960	0.2	0.05556	0.00112
333.4	3460	0.2	0.05363	0.00108
333.4	3930	0.2	0.0517	0.00104
333.4	4470	0.2	0.05033	0.00101
333.4	4980	0.2	0.04868	0.00098
333.4	5520	0.2	0.04692	0.00094
333.4	6070	0.2	0.04521	0.00091
333.4	6490	0.2	0.04363	0.00088
333.4	7030	0.2	0.04283	0.00086
333.4	7560	0.2	0.04151	0.00083
333.4	7960	0.2	0.04017	0.00081
333.4	8510	0.2	0.03926	0.00079
333.4	9010	0.2	0.03839	0.00079
333.4	9520	0.2	0.0372	0.00077
333.4	9940	0.2	0.03622	0.00076
333.4	10440	0.2	0.03542	0.00076
333.4	10930	0.2	0.0343	0.00073
333.4	11540	0.2	0.03357	0.00072
333.4	12040	0.2	0.03342	0.00074
333.4	2960	0.95	0.05744	0.00115
333.4	3460	0.95	0.05563	0.00112
333.4	3930	0.95	0.05383	0.00108
333.4	4470	0.95	0.05202	0.00105
333.4	4980	0.95	0.05036	0.00101
333.4	5520	0.95	0.04878	0.00099
333.4	6070	0.95	0.04725	0.00096
333.4	6490	0.95	0.04566	0.00093
333.4	7030	0.95	0.0443	0.00091
333.4	7560	0.95	0.04284	0.00089
333.4	7960	0.95	0.0414	0.00089
333.4	8510	0.95	0.0401	0.00084
333.4	9010	0.95	0.03897	0.00082
333.4	9520	0.95	0.03811	0.0008
333.4	9940	0.95	0.037	0.00078
333.4	10440	0.95	0.03605	0.00076
333.4	10930	0.95	0.03465	0.00072
333.4	11540	0.95	0.03425	0.0007
333.4	12040	0.95	0.03414	0.00069
333.4	2960	0	0.05547	0.00112
333.4	3460	0	0.05349	0.00108
333.4	3930	0	0.05174	0.00104
333.4	4470	0	0.05001	0.00102
333.4	4980	0	0.04855	0.00099
333.4	5520	0	0.04718	0.00097
333.4	6070	0	0.04549	0.00093
333.4	6490	0	0.04414	0.00091
333.4	7030	0	0.04268	0.00088
333.4	7560	0	0.04139	0.00086
333.4	7960	0	0.03998	0.00085
333.4	8510	0	0.03883	0.00082
333.4	9010	0	0.03762	0.00079
333.4	9520	0	0.03646	0.00078
333.4	9940	0	0.03539	0.00078
333.4	10440	0	0.03456	0.0008
333.4	10930	0	0.0336	0.00074
333.4	11540	0	0.03248	0.00076
333.4	12040	0	0.03093	0.00067
333.4	2960	0.1	0.05613	0.00113
333.4	3460	0.1	0.05435	0.00109
333.4	3930	0.1	0.0524	0.00105
333.4	4470	0.1	0.05087	0.00102
333.4	4980	0.1	0.04915	0.00099
333.4	5520	0.1	0.04756	0.00096
333.4	6070	0.1	0.04602	0.00092
333.4	6490	0.1	0.04453	0.0009
333.4	7030	0.1	0.04305	0.00087
333.4	7560	0.1	0.04172	0.00084
333.4	7960	0.1	0.04048	0.00083
333.4	8510	0.1	0.03933	0.0008
333.4	9010	0.1	0.03815	0.00078
333.4	9520	0.1	0.03714	0.00077
333.4	9940	0.1	0.03611	0.00076
333.4	10440	0.1	0.03504	0.00076
333.4	10930	0.1	0.0341	0.00074
333.4	11540	0.1	0.03282	0.00076
333.4	12040	0.1	0.03123	0.00067
333.4	2960	1.8	0.05921	0.00119
333.4	3460	1.8	0.05731	0.00115
333.4	3930	1.8	0.05562	0.00112
333.4	4470	1.8	0.05417	0.00109
333.4	4980	1.8	0.05254	0.00105
333.4	5520	1.8	0.05094	0.00102
333.4	6070	1.8	0.04943	0.00099
333.4	6490	1.8	0.048	0.00096
333.4	7030	1.8	0.04664	0.00094
333.4	7560	1.8	0.04532	0.00091
333.4	7960	1.8	0.04403	0.00089
333.4	8510	1.8	0.04277	0.00087
333.4	9010	1.8	0.04152	0.00084
333.4	9520	1.8	0.04021	0.00083
333.4	9940	1.8	0.03896	0.00082
333.4	10440	1.8	0.03782	0.00081
333.4	10930	1.8	0.03644	0.00075
333.4	11540	1.8	0.03518	0.00072
333.4	12040	1.8	0.03537	0.00071
338.2	2980	0	0.05537	0.00111
338.2	3430	0	0.0537	0.00108
338.2	3990	0	0.05197	0.00105
338.2	4540	0	0.0503	0.00101
338.2	4960	0	0.04871	0.00098
338.2	5530	0	0.04729	0.00095
338.2	5970	0	0.04577	0.00092
338.2	6460	0	0.04448	0.0009
338.2	7020	0	0.04326	0.00087
338.2	7510	0	0.04185	0.00084
338.2	8040	0	0.04073	0.00083
338.2	8470	0	0.03956	0.00081
338.2	8920	0	0.03851	0.00079
338.2	9450	0	0.03746	0.00077
338.2	10020	0	0.03647	0.00076
338.2	10450	0	0.0356	0.00073
338.2	11090	0	0.03472	0.00071
338.2	11560	0	0.03384	0.00071
338.2	12040	0	0.03297	0.00073
338.2	2980	0.1	0.05538	0.00111
338.2	3430	0.1	0.05362	0.00108
338.2	3990	0.1	0.05198	0.00104
338.2	4540	0.1	0.05065	0.00102
338.2	4960	0.1	0.04931	0.00099
338.2	5530	0.1	0.04786	0.00096
338.2	5970	0.1	0.04521	0.00091
338.2	6460	0.1	0.04482	0.0009
338.2	7020	0.1	0.04351	0.00087
338.2	7510	0.1	0.04192	0.00084
338.2	8040	0.1	0.04088	0.00083
338.2	8470	0.1	0.03977	0.0008
338.2	8920	0.1	0.03868	0.00079
338.2	9450	0.1	0.03767	0.00076
338.2	10020	0.1	0.03673	0.00075
338.2	10450	0.1	0.03573	0.00073
338.2	11090	0.1	0.03497	0.00072
338.2	11560	0.1	0.03406	0.00072
338.2	12040	0.1	0.0327	0.00075
338.2	2980	0.95	0.05781	0.00116
338.2	3430	0.95	0.0559	0.00112
338.2	3990	0.95	0.05404	0.00109
338.2	4540	0.95	0.05256	0.00106
338.2	4960	0.95	0.05096	0.00103
338.2	5530	0.95	0.04951	0.001
338.2	5970	0.95	0.04799	0.00097
338.2	6460	0.95	0.0466	0.00095
338.2	7020	0.95	0.04515	0.00092
338.2	7510	0.95	0.04393	0.00089
338.2	8040	0.95	0.04266	0.00089
338.2	8470	0.95	0.04142	0.00086
338.2	8920	0.95	0.04031	0.00084
338.2	9450	0.95	0.03926	0.00081
338.2	10020	0.95	0.03826	0.0008
338.2	10450	0.95	0.0374	0.00078
338.2	11090	0.95	0.03648	0.00074
338.2	11560	0.95	0.03558	0.00075
338.2	12040	0.95	0.035	0.00073
338.2	2980	0.49	0.0559	0.00112
338.2	3430	0.49	0.05454	0.00109
338.2	3990	0.49	0.0528	0.00106
338.2	4540	0.49	0.05101	0.00102
338.2	4960	0.49	0.04956	0.001
338.2	5530	0.49	0.04818	0.00097
338.2	5970	0.49	0.04702	0.00094
338.2	6460	0.49	0.04601	0.00093
338.2	7020	0.49	0.04432	0.0009
338.2	7510	0.49	0.04313	0.00087
338.2	8040	0.49	0.04174	0.00086
338.2	8470	0.49	0.04064	0.00083
338.2	8920	0.49	0.03961	0.00081
338.2	9450	0.49	0.0387	0.00079
338.2	10020	0.49	0.03769	0.00079
338.2	10450	0.49	0.03687	0.00077
338.2	11090	0.49	0.03594	0.00074
338.2	11560	0.49	0.03523	0.00074
338.2	12040	0.49	0.03485	0.00073
338.2	2980	0.2	0.05533	0.00111
338.2	3430	0.2	0.05342	0.00108
338.2	3990	0.2	0.0516	0.00104
338.2	4540	0.2	0.05003	0.00101
338.2	4960	0.2	0.04858	0.00098
338.2	5530	0.2	0.047	0.00095
338.2	5970	0.2	0.04541	0.00092
338.2	6460	0.2	0.04407	0.00091
338.2	7020	0.2	0.04277	0.00087
338.2	7510	0.2	0.0417	0.00084
338.2	8040	0.2	0.04057	0.00084
338.2	8470	0.2	0.03962	0.00081
338.2	8920	0.2	0.03876	0.00079
338.2	9450	0.2	0.03807	0.00077
338.2	10020	0.2	0.03731	0.00076
338.2	10450	0.2	0.03649	0.00075
338.2	11090	0.2	0.03505	0.00073
338.2	11560	0.2	0.03451	0.00073
338.2	12040	0.2	0.03453	0.00073
338.2	2980	1.8	0.05868	0.00118
338.2	3430	1.8	0.05691	0.00114
338.2	3990	1.8	0.05535	0.00111
338.2	4540	1.8	0.05366	0.00108
338.2	4960	1.8	0.05211	0.00105
338.2	5530	1.8	0.05065	0.00102
338.2	5970	1.8	0.04928	0.00099
338.2	6460	1.8	0.04779	0.00096
338.2	7020	1.8	0.04647	0.00094
338.2	7510	1.8	0.04526	0.00091
338.2	8040	1.8	0.04399	0.00089
338.2	8470	1.8	0.04288	0.00087
338.2	8920	1.8	0.04166	0.00085
338.2	9450	1.8	0.0406	0.00083
338.2	10020	1.8	0.03955	0.00081
338.2	10450	1.8	0.03856	0.00079
338.2	11090	1.8	0.03756	0.00077
338.2	11560	1.8	0.03657	0.00078
338.2	12040	1.8	0.0358	0.00074
343.1	3010	0.2	0.05588	0.00112
343.1	3510	0.2	0.05426	0.00109
343.1	4060	0.2	0.05253	0.00106
343.1	4470	0.2	0.05105	0.00103
343.1	5030	0.2	0.04961	0.001
343.1	5450	0.2	0.04824	0.00097
343.1	5960	0.2	0.04687	0.00096
343.1	6560	0.2	0.04542	0.00094
343.1	7020	0.2	0.04425	0.00092
343.1	7430	0.2	0.04288	0.00088
343.1	8020	0.2	0.04203	0.00086
343.1	8510	0.2	0.0407	0.00083
343.1	9040	0.2	0.03954	0.00081
343.1	9460	0.2	0.0385	0.00078
343.1	9960	0.2	0.03754	0.00076
343.1	10440	0.2	0.03689	0.00075
343.1	10970	0.2	0.03645	0.00074
343.1	11450	0.2	0.03596	0.00074
343.1	12020	0.2	0.03573	0.00073
343.1	3010	0.95	0.05764	0.00116
343.1	3510	0.95	0.05596	0.00112
343.1	4060	0.95	0.05441	0.00109
343.1	4470	0.95	0.05271	0.00106
343.1	5030	0.95	0.0512	0.00103
343.1	5450	0.95	0.04988	0.001
343.1	5960	0.95	0.04841	0.00097
343.1	6560	0.95	0.04717	0.00095
343.1	7020	0.95	0.04596	0.00092
343.1	7430	0.95	0.04462	0.0009
343.1	8020	0.95	0.04349	0.00087
343.1	8510	0.95	0.04224	0.00085
343.1	9040	0.95	0.0412	0.00084
343.1	9460	0.95	0.04023	0.00081
343.1	9960	0.95	0.03923	0.0008
343.1	10440	0.95	0.03825	0.00078
343.1	10970	0.95	0.03727	0.00075
343.1	11450	0.95	0.03652	0.00074
343.1	12020	0.95	0.03603	0.00073
343.1	3010	0	0.05546	0.00111
343.1	3510	0	0.05375	0.00108
343.1	4060	0	0.05216	0.00105
343.1	4470	0	0.05054	0.00101
343.1	5030	0	0.04904	0.00099
343.1	5450	0	0.04773	0.00096
343.1	5960	0	0.04622	0.00093
343.1	6560	0	0.04513	0.00091
343.1	7020	0	0.04369	0.00088
343.1	7430	0	0.04259	0.00086
343.1	8020	0	0.04138	0.00083
343.1	8510	0	0.04029	0.00081
343.1	9040	0	0.03928	0.0008
343.1	9460	0	0.03823	0.00078
343.1	9960	0	0.03718	0.00076
343.1	10440	0	0.03623	0.00075
343.1	10970	0	0.03542	0.00073
343.1	11450	0	0.03478	0.00072
343.1	12020	0	0.03408	0.00072
343.1	3010	0.1	0.05537	0.00111
343.1	3510	0.1	0.05387	0.00108
343.1	4060	0.1	0.05228	0.00105
343.1	4470	0.1	0.05053	0.00101
343.1	5030	0.1	0.049	0.00098
343.1	5450	0.1	0.04754	0.00095
343.1	5960	0.1	0.04617	0.00094
343.1	6560	0.1	0.04472	0.0009
343.1	7020	0.1	0.04339	0.00087
343.1	7430	0.1	0.04237	0.00085
343.1	8020	0.1	0.04143	0.00084
343.1	8510	0.1	0.04028	0.00081
343.1	9040	0.1	0.03929	0.0008
343.1	9460	0.1	0.03826	0.00078
343.1	9960	0.1	0.03729	0.00076
343.1	10440	0.1	0.03634	0.00075
343.1	10970	0.1	0.03572	0.00074
343.1	11450	0.1	0.03524	0.00073
343.1	12020	0.1	0.03462	0.00076
343.1	3010	0.49	0.05652	0.00113
343.1	3510	0.49	0.0548	0.0011
343.1	4060	0.49	0.05299	0.00106
343.1	4470	0.49	0.0517	0.00104
343.1	5030	0.49	0.05017	0.00101
343.1	5450	0.49	0.04851	0.00097
343.1	5960	0.49	0.04707	0.00094
343.1	6560	0.49	0.0461	0.00092
343.1	7020	0.49	0.04508	0.00091
343.1	7430	0.49	0.04388	0.00088
343.1	8020	0.49	0.04283	0.00086
343.1	8510	0.49	0.04144	0.00083
343.1	9040	0.49	0.04039	0.00081
343.1	9460	0.49	0.03934	0.00079
343.1	9960	0.49	0.03864	0.00078
343.1	10440	0.49	0.03781	0.00076
343.1	10970	0.49	0.03689	0.00074
343.1	11450	0.49	0.03607	0.00072
343.1	12020	0.49	0.0355	0.00071
343.1	3010	1.8	0.05894	0.00118
343.1	3510	1.8	0.05738	0.00115
343.1	4060	1.8	0.0558	0.00112
343.1	4470	1.8	0.05428	0.00109
343.1	5030	1.8	0.0528	0.00106
343.1	5450	1.8	0.05134	0.00103
343.1	5960	1.8	0.04994	0.00101
343.1	6560	1.8	0.04865	0.00098
343.1	7020	1.8	0.04751	0.00096
343.1	7430	1.8	0.04618	0.00094
343.1	8020	1.8	0.04495	0.00091
343.1	8510	1.8	0.04382	0.00089
343.1	9040	1.8	0.04269	0.00088
343.1	9460	1.8	0.04167	0.00086
343.1	9960	1.8	0.04065	0.00084
343.1	10440	1.8	0.03957	0.00083
343.1	10970	1.8	0.03841	0.0008
343.1	11450	1.8	0.03782	0.00079
343.1	12020	1.8	0.03716	0.00079
348.5	2920	0	0.05547	0.00111
348.5	3520	0	0.05377	0.00108
348.5	4020	0	0.05215	0.00105
348.5	4530	0	0.05045	0.00101
348.5	5040	0	0.04914	0.00099
348.5	5420	0	0.04808	0.00096
348.5	5980	0	0.04661	0.00094
348.5	6560	0	0.04526	0.00091
348.5	7090	0	0.04411	0.00089
348.5	7510	0	0.04268	0.00086
348.5	8040	0	0.04152	0.00084
348.5	8440	0	0.04071	0.00082
348.5	9060	0	0.03962	0.0008
348.5	9490	0	0.03877	0.00079
348.5	10090	0	0.03788	0.00077
348.5	10550	0	0.03719	0.00076
348.5	11010	0	0.03642	0.00075
348.5	11520	0	0.03586	0.00074
348.5	12080	0	0.03529	0.00075
348.5	2920	0.2	0.05591	0.00112
348.5	3520	0.2	0.05414	0.00109
348.5	4020	0.2	0.05233	0.00105
348.5	4530	0.2	0.05107	0.00102
348.5	5040	0.2	0.04963	0.001
348.5	5420	0.2	0.04837	0.00097
348.5	5980	0.2	0.04729	0.00095
348.5	6560	0.2	0.04631	0.00093
348.5	7090	0.2	0.04489	0.00091
348.5	7510	0.2	0.04349	0.00088
348.5	8040	0.2	0.04205	0.00085
348.5	8440	0.2	0.04095	0.00083
348.5	9060	0.2	0.04004	0.00081
348.5	9490	0.2	0.03909	0.00079
348.5	10090	0.2	0.0382	0.00078
348.5	10550	0.2	0.03758	0.00076
348.5	11010	0.2	0.0365	0.00074
348.5	11520	0.2	0.03615	0.00073
348.5	12080	0.2	0.03588	0.00072
348.5	2920	0.1	0.05559	0.00112
348.5	3520	0.1	0.05373	0.00108
348.5	4020	0.1	0.05213	0.00105
348.5	4530	0.1	0.05066	0.00102
348.5	5040	0.1	0.04923	0.00099
348.5	5420	0.1	0.04795	0.00096
348.5	5980	0.1	0.04652	0.00094
348.5	6560	0.1	0.04526	0.00091
348.5	7090	0.1	0.04412	0.00089
348.5	7510	0.1	0.04289	0.00087
348.5	8040	0.1	0.04189	0.00084
348.5	8440	0.1	0.04078	0.00082
348.5	9060	0.1	0.03982	0.0008
348.5	9490	0.1	0.03903	0.00079
348.5	10090	0.1	0.03815	0.00078
348.5	10550	0.1	0.03738	0.00076
348.5	11010	0.1	0.03667	0.00074
348.5	11520	0.1	0.03604	0.00073
348.5	12080	0.1	0.03571	0.00074
348.5	2920	0.49	0.05608	0.00112
348.5	3520	0.49	0.05442	0.00109
348.5	4020	0.49	0.05277	0.00106
348.5	4530	0.49	0.05137	0.00103
348.5	5040	0.49	0.04993	0.001
348.5	5420	0.49	0.0485	0.00098
348.5	5980	0.49	0.04729	0.00096
348.5	6560	0.49	0.0461	0.00093
348.5	7090	0.49	0.04466	0.0009
348.5	7510	0.49	0.04347	0.00088
348.5	8040	0.49	0.04229	0.00085
348.5	8440	0.49	0.04135	0.00084
348.5	9060	0.49	0.04016	0.00081
348.5	9490	0.49	0.03921	0.00079
348.5	10090	0.49	0.03851	0.00078
348.5	10550	0.49	0.03761	0.00076
348.5	11010	0.49	0.03661	0.00074
348.5	11520	0.49	0.03569	0.00072
348.5	12080	0.49	0.03529	0.00071
348.5	2920	0.95	0.05705	0.00115
348.5	3520	0.95	0.05533	0.00111
348.5	4020	0.95	0.05361	0.00108
348.5	4530	0.95	0.05239	0.00105
348.5	5040	0.95	0.05101	0.00102
348.5	5420	0.95	0.0495	0.00099
348.5	5980	0.95	0.04811	0.00097
348.5	6560	0.95	0.04701	0.00094
348.5	7090	0.95	0.04564	0.00092
348.5	7510	0.95	0.04456	0.00089
348.5	8040	0.95	0.04331	0.00087
348.5	8440	0.95	0.04235	0.00085
348.5	9060	0.95	0.04134	0.00083
348.5	9490	0.95	0.04024	0.00081
348.5	10090	0.95	0.03944	0.0008
348.5	10550	0.95	0.03848	0.00078
348.5	11010	0.95	0.03743	0.00077
348.5	11520	0.95	0.03659	0.00075
348.5	12080	0.95	0.03613	0.00073
348.5	2920	1.8	0.05881	0.00118
348.5	3520	1.8	0.05725	0.00115
348.5	4020	1.8	0.05569	0.00112
348.5	4530	1.8	0.05426	0.00109
348.5	5040	1.8	0.05291	0.00106
348.5	5420	1.8	0.05158	0.00103
348.5	5980	1.8	0.05027	0.00101
348.5	6560	1.8	0.04898	0.00098
348.5	7090	1.8	0.04781	0.00096
348.5	7510	1.8	0.04662	0.00094
348.5	8040	1.8	0.04554	0.00092
348.5	8440	1.8	0.04445	0.0009
348.5	9060	1.8	0.04354	0.00088
348.5	9490	1.8	0.04253	0.00086
348.5	10090	1.8	0.0415	0.00085
348.5	10550	1.8	0.04066	0.00083
348.5	11010	1.8	0.03992	0.00083
348.5	11520	1.8	0.03898	0.0008
348.5	12080	1.8	0.0383	0.0008
353.2	2980	0.95	0.0565	0.00114
353.2	3440	0.95	0.05514	0.00111
353.2	3930	0.95	0.05373	0.00108
353.2	4460	0.95	0.05237	0.00105
353.2	5040	0.95	0.05099	0.00102
353.2	5430	0.95	0.04965	0.001
353.2	5990	0.95	0.04785	0.00096
353.2	6510	0.95	0.04668	0.00094
353.2	7020	0.95	0.04576	0.00092
353.2	7450	0.95	0.04474	0.0009
353.2	7980	0.95	0.04382	0.00089
353.2	8450	0.95	0.04279	0.00087
353.2	9030	0.95	0.04181	0.00085
353.2	9490	0.95	0.04103	0.00085
353.2	10050	0.95	0.04029	0.00083
353.2	10420	0.95	0.03953	0.00082
353.2	11030	0.95	0.03878	0.00082
353.2	11480	0.95	0.03789	0.00081
353.2	11920	0.95	0.0372	0.00077
353.2	2980	0.1	0.05576	0.00112
353.2	3440	0.1	0.05384	0.00108
353.2	3930	0.1	0.05214	0.00105
353.2	4460	0.1	0.05077	0.00102
353.2	5040	0.1	0.04936	0.00099
353.2	5430	0.1	0.048	0.00097
353.2	5990	0.1	0.04679	0.00094
353.2	6510	0.1	0.04564	0.00092
353.2	7020	0.1	0.04452	0.0009
353.2	7450	0.1	0.04332	0.00088
353.2	7980	0.1	0.04226	0.00085
353.2	8450	0.1	0.04128	0.00084
353.2	9030	0.1	0.0401	0.00081
353.2	9490	0.1	0.03917	0.00079
353.2	10050	0.1	0.03837	0.00077
353.2	10420	0.1	0.03756	0.00075
353.2	11030	0.1	0.03673	0.00074
353.2	11480	0.1	0.03595	0.00072
353.2	11920	0.1	0.0353	0.00071
353.2	2980	0	0.05567	0.00112
353.2	3440	0	0.05381	0.00108
353.2	3930	0	0.0522	0.00105
353.2	4460	0	0.05073	0.00102
353.2	5040	0	0.04931	0.00099
353.2	5430	0	0.04807	0.00097
353.2	5990	0	0.04691	0.00094
353.2	6510	0	0.04565	0.00092
353.2	7020	0	0.04449	0.00089
353.2	7450	0	0.04329	0.00088
353.2	7980	0	0.04213	0.00085
353.2	8450	0	0.04125	0.00084
353.2	9030	0	0.04024	0.00082
353.2	9490	0	0.03945	0.0008
353.2	10050	0	0.03845	0.00078
353.2	10420	0	0.03771	0.00076
353.2	11030	0	0.03704	0.00075
353.2	11480	0	0.03642	0.00074
353.2	11920	0	0.03594	0.00073
353.2	2980	0.49	0.05684	0.00114
353.2	3440	0.49	0.05535	0.00111
353.2	3930	0.49	0.05374	0.00108
353.2	4460	0.49	0.05181	0.00104
353.2	5040	0.49	0.05054	0.00102
353.2	5430	0.49	0.04942	0.00101
353.2	5990	0.49	0.04819	0.00098
353.2	6510	0.49	0.04698	0.00095
353.2	7020	0.49	0.04596	0.00094
353.2	7450	0.49	0.04482	0.00093
353.2	7980	0.49	0.04379	0.00091
353.2	8450	0.49	0.04265	0.00089
353.2	9030	0.49	0.04154	0.00087
353.2	9490	0.49	0.04048	0.00085
353.2	10050	0.49	0.03958	0.00081
353.2	10420	0.49	0.03853	0.00079
353.2	11030	0.49	0.0378	0.0008
353.2	11480	0.49	0.03698	0.0008
353.2	11920	0.49	0.03653	0.00078
353.2	2980	0.2	0.05607	0.00113
353.2	3440	0.2	0.05425	0.00109
353.2	3930	0.2	0.05261	0.00106
353.2	4460	0.2	0.05114	0.00103
353.2	5040	0.2	0.04994	0.001
353.2	5430	0.2	0.04868	0.00098
353.2	5990	0.2	0.04747	0.00095
353.2	6510	0.2	0.04632	0.00093
353.2	7020	0.2	0.04522	0.00091
353.2	7450	0.2	0.04396	0.00089
353.2	7980	0.2	0.04302	0.00088
353.2	8450	0.2	0.04195	0.00087
353.2	9030	0.2	0.04089	0.00083
353.2	9490	0.2	0.03979	0.00081
353.2	10050	0.2	0.03876	0.00078
353.2	10420	0.2	0.03781	0.00076
353.2	11030	0.2	0.03749	0.00077
353.2	11480	0.2	0.0369	0.00075
353.2	11920	0.2	0.03637	0.00073
353.2	2980	1.8	0.05886	0.00118
353.2	3440	1.8	0.0572	0.00115
353.2	3930	1.8	0.0559	0.00112
353.2	4460	1.8	0.05437	0.00109
353.2	5040	1.8	0.05301	0.00106
353.2	5430	1.8	0.05152	0.00103
353.2	5990	1.8	0.05032	0.00101
353.2	6510	1.8	0.04914	0.00099
353.2	7020	1.8	0.04801	0.00096
353.2	7450	1.8	0.04684	0.00094
353.2	7980	1.8	0.04582	0.00092
353.2	8450	1.8	0.04476	0.0009
353.2	9030	1.8	0.04384	0.00088
353.2	9490	1.8	0.04288	0.00087
353.2	10050	1.8	0.0421	0.00085
353.2	10420	1.8	0.04116	0.00083
353.2	11030	1.8	0.04049	0.00082
353.2	11480	1.8	0.03949	0.0008
353.2	11920	1.8	0.03856	0.00077

System: carbon dioxide + water; phases: Liquid mixture 1, Liquid mixture 2
Fixed: Temperature, K = 300.1
Property: Interfacial tension, N/m (Liquid mixture 1); method: Pendant drop shape
Pressure, kPa	Interfacial tension, N/m	uncertainty
6910	0.0292	0.00058
7410	0.02961	0.00059
8050	0.02898	0.00058
8470	0.02805	0.00056
9080	0.02807	0.00056
9460	0.02854	0.00057
10040	0.02824	0.00057
10430	0.02831	0.00057
10950	0.0282	0.00056
11560	0.0284	0.00057
11970	0.02799	0.00056

System: carbon dioxide + water; phases: Liquid, Fluid (supercritical or subcritical phases)
Property: Interfacial tension, N/m (Liquid); method: Pendant drop shape
Temperature, K	Pressure, kPa	Interfacial tension, N/m	uncertainty
300.1	3010	0.049	0.001
300.1	3440	0.04726	0.00097
300.1	4010	0.0451	0.00093
300.1	4460	0.04207	0.00086
300.1	5030	0.04005	0.00087
300.1	5460	0.03731	0.00076
300.1	5970	0.03513	0.00073
300.1	6540	0.03314	0.0008
308.2	2990	0.05073	0.00104
308.2	3590	0.04857	0.00099
308.2	4010	0.0462	0.00094
308.2	4530	0.0436	0.00091
308.2	5040	0.04233	0.00089
308.2	5470	0.03843	0.00084
308.2	5930	0.03712	0.00085
308.2	6580	0.03658	0.00085
308.2	6930	0.03267	0.00078
308.2	7510	0.03162	0.00091
308.2	7970	0.03144	0.00077
308.2	8420	0.02975	0.00098
308.2	8940	0.02844	0.00084
308.2	9550	0.02925	0.00071
308.2	10040	0.02908	0.00069
308.2	10490	0.02859	0.00066
308.2	10970	0.02813	0.0006
308.2	11520	0.02887	0.00059
308.2	12030	0.02899	0.00058
313.5	3060	0.0517	0.00106
313.5	3450	0.04981	0.00102
313.5	3990	0.04776	0.00101
313.5	4580	0.04488	0.00099
313.5	4980	0.044	0.00094
313.5	5460	0.04175	0.00098
313.5	5980	0.0408	0.00099
313.5	6590	0.03923	0.00088
313.5	6930	0.03621	0.00091
313.5	7530	0.03529	0.00083
313.5	7940	0.03338	0.00074
313.5	8580	0.03361	0.00068
313.5	8990	0.03242	0.00071
313.5	9460	0.03105	0.00063
313.5	10010	0.03097	0.00063
313.5	10560	0.03026	0.00063
313.5	10990	0.02965	0.00063
313.5	11530	0.02936	0.00061
313.5	12040	0.02931	0.0006
318.2	3030	0.05261	0.00107
318.2	3460	0.05139	0.00105
318.2	4080	0.04927	0.00101
318.2	4490	0.04801	0.001
318.2	4940	0.04607	0.00096
318.2	5560	0.04312	0.0009
318.2	6030	0.04238	0.00087
318.2	6590	0.04049	0.00082
318.2	6970	0.03791	0.00084
318.2	7420	0.03622	0.00077
318.2	7940	0.03453	0.00078
318.2	8480	0.03288	0.00067
318.2	9010	0.03095	0.00063
318.2	9490	0.03033	0.00061
318.2	9980	0.03031	0.00061
318.2	10520	0.03011	0.0006
318.2	11050	0.03012	0.00061
318.2	11510	0.03048	0.00062
318.2	11910	0.03043	0.00062
323.4	3010	0.05364	0.0011
323.4	3450	0.05174	0.00105
323.4	4030	0.04981	0.00101
323.4	4510	0.04788	0.00096
323.4	5050	0.04648	0.00094
323.4	5540	0.04409	0.00091
323.4	6030	0.04261	0.00087
323.4	6470	0.04078	0.00083
323.4	6970	0.03958	0.00086
323.4	7560	0.03766	0.00084
323.4	7980	0.03676	0.00083
323.4	8550	0.03478	0.00082
323.4	9040	0.03322	0.00083
323.4	9470	0.03169	0.00077
323.4	10030	0.03081	0.00068
323.4	10420	0.03022	0.00063
323.4	10960	0.0305	0.00062
323.4	11590	0.03031	0.00063
323.4	11990	0.03033	0.00061
328.3	3020	0.05482	0.00111
328.3	3520	0.05293	0.00107
328.3	4040	0.05107	0.00103
328.3	4430	0.04905	0.001
328.3	4950	0.04732	0.00097
328.3	5420	0.04569	0.00096
328.3	6020	0.04397	0.00093
328.3	6470	0.04249	0.00092
328.3	7040	0.04114	0.00089
328.3	7530	0.03971	0.00088
328.3	7940	0.03833	0.00083
328.3	8550	0.03711	0.00084
328.3	9040	0.03592	0.00084
328.3	9540	0.03469	0.00085
328.3	10040	0.03323	0.00079
328.3	10470	0.03182	0.00077
328.3	10990	0.03088	0.00069
328.3	11440	0.03042	0.00072
328.3	12020	0.03045	0.00061
333.4	2960	0.05547	0.00111
333.4	3460	0.05349	0.00107
333.4	3930	0.05174	0.00104
333.4	4470	0.05001	0.00101
333.4	4980	0.04855	0.00098
333.4	5520	0.04718	0.00096
333.4	6070	0.04549	0.00093
333.4	6490	0.04414	0.00091
333.4	7030	0.04268	0.00088
333.4	7560	0.04139	0.00086
333.4	7960	0.03998	0.00085
333.4	8510	0.03883	0.00081
333.4	9010	0.03762	0.00079
333.4	9520	0.03646	0.00077
333.4	9940	0.03539	0.00078
333.4	10440	0.03456	0.00079
333.4	10930	0.0336	0.00073
333.4	11540	0.03248	0.00075
333.4	12040	0.03093	0.00067
338.2	2980	0.05537	0.00111
338.2	3430	0.0537	0.00108
338.2	3990	0.05197	0.00104
338.2	4540	0.0503	0.00101
338.2	4960	0.04871	0.00098
338.2	5530	0.04729	0.00095
338.2	5970	0.04577	0.00092
338.2	6460	0.04448	0.0009
338.2	7020	0.04326	0.00087
338.2	7510	0.04185	0.00084
338.2	8040	0.04073	0.00083
338.2	8470	0.03956	0.00081
338.2	8920	0.03851	0.00079
338.2	9450	0.03746	0.00077
338.2	10020	0.03647	0.00075
338.2	10450	0.0356	0.00073
338.2	11090	0.03472	0.00071
338.2	11560	0.03384	0.00071
338.2	12040	0.03297	0.00073
343.1	3010	0.05546	0.00111
343.1	3510	0.05375	0.00108
343.1	4060	0.05216	0.00104
343.1	4470	0.05054	0.00101
343.1	5030	0.04904	0.00098
343.1	5450	0.04773	0.00096
343.1	5960	0.04622	0.00093
343.1	6560	0.04513	0.00091
343.1	7020	0.04369	0.00088
343.1	7430	0.04259	0.00086
343.1	8020	0.04138	0.00083
343.1	8510	0.04029	0.00081
343.1	9040	0.03928	0.0008
343.1	9460	0.03823	0.00078
343.1	9960	0.03718	0.00076
343.1	10440	0.03623	0.00075
343.1	10970	0.03542	0.00073
343.1	11450	0.03478	0.00072
343.1	12020	0.03408	0.00072
348.5	2920	0.05547	0.00111
348.5	3520	0.05377	0.00108
348.5	4020	0.05215	0.00104
348.5	4530	0.05045	0.00101
348.5	5040	0.04914	0.00098
348.5	5420	0.04808	0.00096
348.5	5980	0.04661	0.00094
348.5	6560	0.04526	0.00091
348.5	7090	0.04411	0.00089
348.5	7510	0.04268	0.00086
348.5	8040	0.04152	0.00083
348.5	8440	0.04071	0.00082
348.5	9060	0.03962	0.0008
348.5	9490	0.03877	0.00079
348.5	10090	0.03788	0.00077
348.5	10550	0.03719	0.00076
348.5	11010	0.03642	0.00075
348.5	11520	0.03586	0.00074
348.5	12080	0.03529	0.00074
353.2	2980	0.05567	0.00112
353.2	3440	0.05381	0.00108
353.2	3930	0.0522	0.00105
353.2	4460	0.05073	0.00102
353.2	5040	0.04931	0.00099
353.2	5430	0.04807	0.00096
353.2	5990	0.04691	0.00094
353.2	6510	0.04565	0.00092
353.2	7020	0.04449	0.00089
353.2	7450	0.04329	0.00087
353.2	7980	0.04213	0.00085
353.2	8450	0.04125	0.00083
353.2	9030	0.04024	0.00081
353.2	9490	0.03945	0.0008
353.2	10050	0.03845	0.00078
353.2	10420	0.03771	0.00076
353.2	11030	0.03704	0.00075
353.2	11480	0.03642	0.00074
353.2	11920	0.03594	0.00073
