Measured thermophysical data. Physicochemical Properties of New Imidazolium-Based Ionic Liquids Containing Aromatic Group
Source: J. Chem. Eng. Data, 2016, 10.1021/acs.jced.5b00983
Compound 1: 1-butyl-1H-benzimidazolium bis((trifluoromethyl)sulfonyl)amide, C13H15F6N3O4S2, InChI=1S/C11H14N2.C2F6NO4S2/c1-2-3-8-13-9-12-10-6-4-5-7-11(10)13;3-1(4,5)14(10,11)9-15(12,13)2(6,7)8/h4-7,9H,2-3,8H2,1H3;/q;-1/p+1, purity 99%
Compound 2: 1-butyl-2-phenylimidazolium bis(trifluoromethylsulfonyl)imide, C15H17F6N3O4S2, InChI=1S/C13H16N2.C2F6NO4S2/c1-2-3-10-15-11-9-14-13(15)12-7-5-4-6-8-12;3-1(4,5)14(10,11)9-15(12,13)2(6,7)8/h4-9,11H,2-3,10H2,1H3;/q;-1/p+1, purity 99%
Compound 3: 1-benzyl-3-butylimidazolium bis(trifluoromethylsulfonyl)imide, C16H19F6N3O4S2, InChI=1S/C14H19N2.C2F6NO4S2/c1-2-3-9-15-10-11-16(13-15)12-14-7-5-4-6-8-14;3-1(4,5)14(10,11)9-15(12,13)2(6,7)8/h4-8,10-11,13H,2-3,9,12H2,1H3;/q+1;-1, purity 99.8%

System: 1-butyl-1H-benzimidazolium bis((trifluoromethyl)sulfonyl)amide; phases: Glass, Liquid, Air at 1 atmosphere
Property: Triple point temperature, K (Glass); method: DSC
Triple point temperature, K	uncertainty
220.68	2.12

System: 1-butyl-1H-benzimidazolium bis((trifluoromethyl)sulfonyl)amide; phases: Liquid
Fixed: Pressure, kPa = 101.325
Property: Viscosity, Pa*s (Liquid); method: Concentric cylinders viscometry
Temperature, K	Viscosity, Pa*s	uncertainty
293.15	1.1504	0.0503
303.15	0.49714	0.01742
313.15	0.24469	0.00697
323.15	0.13361	0.0032
333.15	0.0793	0.0017
343.15	0.050425	0.001041
353.15	0.033921	0.000707
363.15	0.023966	0.000499
373.15	0.017589	0.000367

System: 1-butyl-1H-benzimidazolium bis((trifluoromethyl)sulfonyl)amide; phases: Liquid
Fixed: Pressure, kPa = 101.325
Property: Mass density, kg/m3 (Liquid); method: Vibrating tube method
Temperature, K	Mass density, kg/m3	uncertainty
293.15	1429.3	2.1
303.15	1419.5	2.1
313.15	1410.1	2.1
323.15	1400.9	2.1
333.15	1391.9	2.1
343.15	1383	2.1
353.15	1374	2.1
363.15	1365.2	2.1
373.15	1356.6	2.1

System: 1-butyl-1H-benzimidazolium bis((trifluoromethyl)sulfonyl)amide; phases: Liquid
Fixed: Pressure, kPa = 101.325
Property: Molar heat capacity at constant pressure, J/K/mol (Liquid); method: Small sample (50 mg) DSC
Temperature, K	Molar heat capacity at constant pressure, J/K/mol	uncertainty
303.15	685.66	69.25
308.15	688.01	69.51
313.15	695.49	70.32
318.15	704.16	71.15
323.15	706.15	71.33
328.15	711.42	71.89
333.15	717.85	72.54
338.15	724.01	73.16
343.15	730.23	73.79

System: 1-butyl-2-phenylimidazolium bis(trifluoromethylsulfonyl)imide; phases: Glass, Liquid, Air at 1 atmosphere
Property: Triple point temperature, K (Glass); method: DSC
Triple point temperature, K	uncertainty
220.18	2.12

System: 1-butyl-2-phenylimidazolium bis(trifluoromethylsulfonyl)imide; phases: Liquid
Fixed: Pressure, kPa = 101.325
Property: Viscosity, Pa*s (Liquid); method: Concentric cylinders viscometry
Temperature, K	Viscosity, Pa*s	uncertainty
293.15	0.75371	0.03673
303.15	0.33974	0.01286
313.15	0.17394	0.00458
323.15	0.098778	0.001709
333.15	0.060902	0.000695
343.15	0.040104	0.00042
353.15	0.027866	0.000269
363.15	0.020237	0.000183
373.15	0.015215	0.000142

System: 1-butyl-2-phenylimidazolium bis(trifluoromethylsulfonyl)imide; phases: Liquid
Fixed: Pressure, kPa = 101.325
Property: Mass density, kg/m3 (Liquid); method: Vibrating tube method
Temperature, K	Mass density, kg/m3	uncertainty
293.15	1422.8	0.7
303.15	1412.8	0.7
313.15	1403.3	0.7
323.15	1394	0.7
333.15	1384.8	0.7
343.15	1375.6	0.6
353.15	1366.5	0.6
363.15	1357.5	0.6
373.15	1348.8	0.6

System: 1-butyl-2-phenylimidazolium bis(trifluoromethylsulfonyl)imide; phases: Liquid
Fixed: Pressure, kPa = 101.325
Property: Molar heat capacity at constant pressure, J/K/mol (Liquid); method: Small sample (50 mg) DSC
Temperature, K	Molar heat capacity at constant pressure, J/K/mol	uncertainty
303.15	627.73	63.4
308.15	628.71	63.51
313.15	633.63	64.04
318.15	640.58	64.72
323.15	643.24	64.98
328.15	647.68	65.44
333.15	652.82	65.97
338.15	658.26	66.51
343.15	662.09	66.89

System: 1-benzyl-3-butylimidazolium bis(trifluoromethylsulfonyl)imide; phases: Glass, Liquid, Air at 1 atmosphere
Property: Triple point temperature, K (Glass); method: DSC
Triple point temperature, K	uncertainty
187.02	2.12

System: 1-benzyl-3-butylimidazolium bis(trifluoromethylsulfonyl)imide; phases: Liquid
Fixed: Pressure, kPa = 101.325
Property: Viscosity, Pa*s (Liquid); method: Concentric cylinders viscometry
Temperature, K	Viscosity, Pa*s	uncertainty
293.15	0.08675	0.00117
303.15	0.052838	0.000586
313.15	0.034648	0.000367
323.15	0.023822	0.000234
333.15	0.017243	0.000157
343.15	0.012965	0.000112
353.15	0.010021	8.4e-05
363.15	0.0079322	6.78e-05
373.15	0.0059353	5.75e-05

System: 1-benzyl-3-butylimidazolium bis(trifluoromethylsulfonyl)imide; phases: Liquid
Fixed: Pressure, kPa = 101.325
Property: Mass density, kg/m3 (Liquid); method: Vibrating tube method
Temperature, K	Mass density, kg/m3	uncertainty
293.15	1297.1	0.6
303.15	1288.3	0.6
313.15	1279.6	0.6
323.15	1271	0.6
333.15	1262.4	0.6
343.15	1253.7	0.6
353.15	1245.3	0.6
363.15	1237.2	0.6
373.15	1229.2	0.6

System: 1-benzyl-3-butylimidazolium bis(trifluoromethylsulfonyl)imide; phases: Liquid
Fixed: Pressure, kPa = 101.325
Property: Molar heat capacity at constant pressure, J/K/mol (Liquid); method: Small sample (50 mg) DSC
Temperature, K	Molar heat capacity at constant pressure, J/K/mol	uncertainty
303.15	556.21	56.2
308.15	560.11	56.59
313.15	564.15	57.01
318.15	569.77	57.56
323.15	571.78	57.76
328.15	576.09	58.21
333.15	580.63	58.67
338.15	585.65	59.18
343.15	590.56	59.68
