Measured thermophysical data. Liquid Densities and Speed of Sound for Ionic Liquid (2-HEAA and 2-HDEAA) + Alcohol (1-Propanol and 2-Propanol) Mixtures at T = (293.15-323.15 K) and Atmospheric Pressure
Source: J. Chem. Eng. Data, 2019, 10.1021/acs.jced.9b00147
Compound 1: 2,2'-azanediylbis(ethanol) acetate, C6H15NO4, InChI=1S/C4H11NO2.C2H4O2/c6-3-1-5-2-4-7;1-2(3)4/h5-7H,1-4H2;1H3,(H,3,4), purity 98.03%
Compound 2: 2-hydroxyethylammonium acetate, C4H11NO3, InChI=1S/C2H7NO.C2H4O2/c3-1-2-4;1-2(3)4/h4H,1-3H2;1H3,(H,3,4), purity 99.02%
Compound 3: propan-1-ol, C3H8O, InChI=1S/C3H8O/c1-2-3-4/h4H,2-3H2,1H3, purity 99.5%
Compound 4: propan-2-ol, C3H8O, InChI=1S/C3H8O/c1-3(2)4/h3-4H,1-2H3, purity 99.5%

System: 2,2'-azanediylbis(ethanol) acetate; phases: Liquid
Fixed: Pressure, kPa = 101.3
Property: Mass density, kg/m3 (Liquid); method: Vibrating tube method
Temperature, K	Mass density, kg/m3	uncertainty
293.15	1180	6
303.15	1173	6
313.15	1167	6
323.15	1160	6

System: 2,2'-azanediylbis(ethanol) acetate; phases: Liquid
Fixed: Pressure, kPa = 101.3
Property: Speed of sound, m/s (Liquid); method: Single path-length method
Temperature, K	Speed of sound, m/s	uncertainty
293.15	1884.7	20.1
303.15	1828.2	20.1
313.15	1788.6	20.1
323.15	1756	20.1

System: 2-hydroxyethylammonium acetate; phases: Liquid
Fixed: Pressure, kPa = 101.3
Property: Mass density, kg/m3 (Liquid); method: Vibrating tube method
Temperature, K	Mass density, kg/m3	uncertainty
293.15	1150	6
303.15	1144	6
313.15	1139	6
323.15	1133	6
323.15	1132	6

System: 2-hydroxyethylammonium acetate; phases: Liquid
Fixed: Pressure, kPa = 101.3
Property: Speed of sound, m/s (Liquid); method: Single path-length method
Temperature, K	Speed of sound, m/s	uncertainty
293.15	1812.9	20
303.15	1781.2	20
313.15	1754.7	20
323.15	1730.9	20

System: propan-1-ol; phases: Liquid
Fixed: Pressure, kPa = 101.3
Property: Mass density, kg/m3 (Liquid); method: Vibrating tube method
Temperature, K	Mass density, kg/m3	uncertainty
293.15	803.6	6
303.15	795.7	6
313.15	787.5	6
323.15	779.2	6

System: propan-1-ol; phases: Liquid
Fixed: Pressure, kPa = 101.3
Property: Speed of sound, m/s (Liquid); method: Single path-length method
Temperature, K	Speed of sound, m/s	uncertainty
293.15	1223.4	20
303.15	1189.4	20
313.15	1155.5	20
323.15	1122	20

System: propan-2-ol; phases: Liquid
Fixed: Pressure, kPa = 101.3
Property: Mass density, kg/m3 (Liquid); method: Vibrating tube method
Temperature, K	Mass density, kg/m3	uncertainty
293.15	791.5	6
303.15	777	6
313.15	768.2	6
323.15	759	6

System: propan-2-ol; phases: Liquid
Fixed: Pressure, kPa = 101.3
Property: Speed of sound, m/s (Liquid); method: Single path-length method
Temperature, K	Speed of sound, m/s	uncertainty
293.15	1174.3	20
303.15	1122.4	20
313.15	1087.4	20
323.15	1051.6	20

System: 2,2'-azanediylbis(ethanol) acetate + propan-1-ol; phases: Liquid
Fixed: Pressure, kPa = 101.3
Property: Mass density, kg/m3 (Liquid); method: Vibrating tube method
Temperature, K	Mole fraction of 2,2'-azanediylbis(ethanol) acetate	Mass density, kg/m3	uncertainty
293.15	0	803.6	6
293.15	0.096	869.5	7.1
293.15	0.199	929	6.8
293.15	0.295	975	6.6
293.15	0.4	1018	6
293.15	0.501	1054	6
293.15	0.599	1085	6
293.15	0.697	1113	6
293.15	0.801	1137	6
293.15	0.901	1160	6
293.15	1	1180	6
303.15	0	795.7	6
303.15	0.096	861.6	7.1
303.15	0.199	921.2	6.8
303.15	0.295	967.5	6.6
303.15	0.4	1012	6
303.15	0.501	1047	6
303.15	0.599	1078	6
303.15	0.697	1106	6
303.15	0.801	1131	6
303.15	0.901	1153	6
303.15	1	1173	6
313.15	0	787.5	6
313.15	0.096	853.5	7.1
313.15	0.199	913.4	6.8
313.15	0.295	959.9	6.6
313.15	0.4	1004	6
313.15	0.501	1040	6
313.15	0.599	1072	6
313.15	0.697	1099	6
313.15	0.801	1124	6
313.15	0.901	1146	6
313.15	1	1167	6
323.15	0	779.2	6
323.15	0.096	845.4	7.1
323.15	0.199	905.7	6.8
323.15	0.295	952	6.6
323.15	0.4	996.6	6.5
323.15	0.501	1033	6
323.15	0.599	1065	6
323.15	0.697	1093	6
323.15	0.801	1118	6
323.15	0.901	1140	6
323.15	1	1160	6

System: 2,2'-azanediylbis(ethanol) acetate + propan-1-ol; phases: Liquid
Fixed: Pressure, kPa = 101.3
Property: Speed of sound, m/s (Liquid); method: Single path-length method
Temperature, K	Mole fraction of 2,2'-azanediylbis(ethanol) acetate	Speed of sound, m/s	uncertainty
293.15	0	1223.4	20
293.15	0.096	1286.3	20.4
293.15	0.199	1352.7	20.4
293.15	0.295	1415.2	20.4
293.15	0.4	1488.2	20.4
293.15	0.501	1556.5	20.5
293.15	0.599	1626.4	20.5
293.15	0.697	1701.1	20.4
293.15	0.801	1756.5	20.4
293.15	0.901	1817.8	20.5
293.15	1	1884.7	20.1
303.15	0	1189.4	20
303.15	0.096	1253.5	20.4
303.15	0.199	1321	20.4
303.15	0.295	1384.2	20.4
303.15	0.4	1457.2	20.4
303.15	0.501	1524.7	20.4
303.15	0.599	1590.7	20.5
303.15	0.697	1657.4	20.4
303.15	0.801	1720.1	20.4
303.15	0.901	1772.9	20.3
303.15	1	1828.2	20.1
313.15	0	1155.5	20
313.15	0.096	1221.2	20.4
313.15	0.199	1289.8	20.4
313.15	0.295	1353.6	20.4
313.15	0.4	1427.3	20.4
313.15	0.501	1494.6	20.4
313.15	0.599	1559.2	20.4
313.15	0.697	1623.2	20.4
313.15	0.801	1688.9	20.4
313.15	0.901	1738.1	20.3
313.15	1	1788.6	20.1
323.15	0	1122	20
323.15	0.096	1188.8	20.4
323.15	0.199	1258.8	20.4
323.15	0.295	1323.1	20.4
323.15	0.4	1397.4	20.5
323.15	0.501	1465.4	20.4
323.15	0.599	1529.2	20.4
323.15	0.697	1592.3	20.4
323.15	0.801	1659.2	20.4
323.15	0.901	1707.4	20.3
323.15	1	1756	20.1

System: 2,2'-azanediylbis(ethanol) acetate + propan-2-ol; phases: Liquid
Fixed: Pressure, kPa = 101.3
Property: Mass density, kg/m3 (Liquid); method: Vibrating tube method
Temperature, K	Mole fraction of 2,2'-azanediylbis(ethanol) acetate	Mass density, kg/m3	uncertainty
293.15	0	791.5	6
293.15	0.102	857.7	7.1
293.15	0.2	915.4	6.8
293.15	0.299	965.3	6.6
293.15	0.398	1009	7
293.15	0.502	1048	6
293.15	0.59	1076	6
293.15	0.696	1109	6
293.15	0.799	1137	6
293.15	0.9	1162	6
293.15	1	1180	6
303.15	0	777	6
303.15	0.102	849.5	7.2
303.15	0.2	907.6	6.8
303.15	0.299	957.7	6.6
303.15	0.398	1001	7
303.15	0.502	1041	6
303.15	0.59	1069	6
303.15	0.696	1102	6
303.15	0.799	1131	6
303.15	0.9	1155	6
303.15	1	1173	6
313.15	0	768.2	6
313.15	0.102	841.1	7.2
313.15	0.2	899.4	6.9
313.15	0.299	949.8	6.6
313.15	0.398	993.2	6.5
313.15	0.502	1034	6
313.15	0.59	1061	6
313.15	0.696	1095	6
313.15	0.799	1124	6
313.15	0.9	1149	6
313.15	1	1167	6
323.15	0	759	6
323.15	0.102	832.5	7.2
323.15	0.2	891.4	6.9
323.15	0.299	942.3	6.7
323.15	0.398	986.6	6.5
323.15	0.502	1025	6
323.15	0.59	1056	6
323.15	0.696	1089	6
323.15	0.799	1118	6
323.15	0.9	1142	6
323.15	1	1160	6

System: 2,2'-azanediylbis(ethanol) acetate + propan-2-ol; phases: Liquid
Fixed: Pressure, kPa = 101.3
Property: Speed of sound, m/s (Liquid); method: Single path-length method
Temperature, K	Mole fraction of 2,2'-azanediylbis(ethanol) acetate	Speed of sound, m/s	uncertainty
293.15	0	1174.3	20
293.15	0.102	1233.4	20.4
293.15	0.2	1301.5	20.5
293.15	0.299	1372.4	20.5
293.15	0.398	1448.2	20.6
293.15	0.502	1530.5	20.6
293.15	0.59	1596.5	20.5
293.15	0.696	1675.3	20.6
293.15	0.799	1756.3	20.6
293.15	0.9	1828.4	20.4
293.15	1	1884.7	20.1
303.15	0	1122.4	20
303.15	0.102	1200.3	20.5
303.15	0.2	1269.6	20.5
303.15	0.299	1341.2	20.5
303.15	0.398	1416.7	20.6
303.15	0.502	1498.3	20.5
303.15	0.59	1561.8	20.5
303.15	0.696	1638.8	20.6
303.15	0.799	1717.6	20.5
303.15	0.9	1782.1	20.4
303.15	1	1828.2	20.1
313.15	0	1087.4	20
313.15	0.102	1167.1	20.5
313.15	0.2	1237.8	20.5
313.15	0.299	1310.1	20.5
313.15	0.398	1386.3	20.6
313.15	0.502	1468.4	20.5
313.15	0.59	1530.4	20.5
313.15	0.696	1607	20.5
313.15	0.799	1684.7	20.5
313.15	0.9	1746.8	20.3
313.15	1	1788.6	20.1
323.15	0	1051.6	20
323.15	0.102	1133.6	20.5
323.15	0.2	1205.8	20.5
323.15	0.299	1279.1	20.5
323.15	0.398	1355.2	20.6
323.15	0.502	1438.7	20.5
323.15	0.59	1498.8	20.5
323.15	0.696	1576.7	20.5
323.15	0.799	1653.8	20.5
323.15	0.9	1714.4	20.3
323.15	1	1756	20.1

System: 2-hydroxyethylammonium acetate + propan-1-ol; phases: Liquid
Fixed: Pressure, kPa = 101.3
Property: Mass density, kg/m3 (Liquid); method: Vibrating tube method
Temperature, K	Mole fraction of 2-hydroxyethylammonium acetate	Mass density, kg/m3	uncertainty
293.15	0	803.6	6
293.15	0.101	855.6	6.7
293.15	0.199	900	6.5
293.15	0.298	941.7	6.5
293.15	0.401	981.1	6.4
293.15	0.502	1016	6
293.15	0.592	1046	6
293.15	0.681	1073	6
293.15	0.795	1104	6
293.15	0.89	1130	6
293.15	1	1150	6
303.15	0	795.7	6
303.15	0.101	847.8	6.7
303.15	0.199	892.5	6.6
303.15	0.298	934.5	6.5
303.15	0.401	974.1	6.4
303.15	0.502	1010	6
303.15	0.592	1040	6
303.15	0.681	1067	6
303.15	0.795	1098	6
303.15	0.89	1124	6
303.15	1	1144	6
313.15	0	787.5	6
313.15	0.101	839.9	6.7
313.15	0.199	884.8	6.6
313.15	0.298	927.2	6.5
313.15	0.401	967.3	6.4
313.15	0.502	1003	6
313.15	0.592	1033	6
313.15	0.681	1061	6
313.15	0.795	1092	6
313.15	0.89	1118	6
313.15	1	1139	6
323.15	0	779.2	6
323.15	0.101	831.9	6.7
323.15	0.199	877.1	6.6
323.15	0.298	919.6	6.5
323.15	0.401	960.3	6.4
323.15	0.502	996.3	6.4
323.15	0.592	1027	6
323.15	0.681	1055	6
323.15	0.795	1086	6
323.15	0.89	1112	6
323.15	1	1133	6

System: 2-hydroxyethylammonium acetate + propan-1-ol; phases: Liquid
Fixed: Pressure, kPa = 101.3
Property: Speed of sound, m/s (Liquid); method: Single path-length method
Temperature, K	Mole fraction of 2-hydroxyethylammonium acetate	Speed of sound, m/s	uncertainty
293.15	0	1223.4	20
293.15	0.101	1274.5	20.2
293.15	0.199	1323.5	20.3
293.15	0.298	1377.3	20.3
293.15	0.401	1437.7	20.3
293.15	0.502	1502	20.4
293.15	0.592	1561.1	20.4
293.15	0.681	1624.3	20.5
293.15	0.795	1711.5	20.5
293.15	0.89	1777.8	20.2
293.15	1	1812.9	20
303.15	0	1189.4	20
303.15	0.101	1241.6	20.2
303.15	0.199	1291.7	20.3
303.15	0.298	1346.4	20.3
303.15	0.401	1407.8	20.4
303.15	0.502	1472.9	20.4
303.15	0.592	1532.2	20.4
303.15	0.681	1595.1	20.5
303.15	0.795	1678.6	20.5
303.15	0.89	1743.4	20.2
303.15	1	1781.2	20
313.15	0	1155.5	20
313.15	0.101	1208.9	20.3
313.15	0.199	1260.2	20.3
313.15	0.298	1316	20.3
313.15	0.401	1378.3	20.4
313.15	0.502	1444.4	20.4
313.15	0.592	1504.3	20.4
313.15	0.681	1567.7	20.5
313.15	0.795	1650.8	20.5
313.15	0.89	1715.9	20.2
313.15	1	1754.7	20
323.15	0	1122	20
323.15	0.101	1176.3	20.3
323.15	0.199	1228.7	20.3
323.15	0.298	1285.6	20.3
323.15	0.401	1348.9	20.4
323.15	0.502	1416.3	20.4
323.15	0.592	1477	20.4
323.15	0.681	1541.3	20.5
323.15	0.795	1624	20.5
323.15	0.89	1690.2	20.3
323.15	1	1730.9	20

System: 2-hydroxyethylammonium acetate + propan-2-ol; phases: Liquid
Fixed: Pressure, kPa = 101.3
Property: Mass density, kg/m3 (Liquid); method: Vibrating tube method
Temperature, K	Mole fraction of 2-hydroxyethylammonium acetate	Mass density, kg/m3	uncertainty
293.15	0	791.5	6
293.15	0.102	840.8	6.7
293.15	0.2	888.4	6.6
293.15	0.299	930.8	6.5
293.15	0.397	970.4	6.4
293.15	0.493	1007	6
293.15	0.6	1042	6
293.15	0.692	1072	6
293.15	0.798	1103	6
293.15	0.894	1129	6
293.15	1	1150	6
303.15	0	777	6
303.15	0.102	832.7	6.8
303.15	0.2	880.8	6.6
303.15	0.299	923.5	6.5
303.15	0.397	963.3	6.4
303.15	0.493	999.7	6.4
303.15	0.6	1037	6
303.15	0.692	1066	6
303.15	0.798	1097	6
303.15	0.894	1124	6
303.15	1	1144	6
313.15	0	768.2	6
313.15	0.102	824.4	6.8
313.15	0.2	872.9	6.6
313.15	0.299	916	6.5
313.15	0.397	956.2	6.5
313.15	0.493	992.8	6.4
313.15	0.6	1030	6
313.15	0.692	1060	6
313.15	0.798	1091	6
313.15	0.894	1118	6
313.15	1	1139	6
323.15	0	759	6
323.15	0.102	815.7	6.8
323.15	0.2	864.8	6.6
323.15	0.299	908.3	6.5
323.15	0.397	948.5	6.5
323.15	0.493	985.5	6.4
323.15	0.6	1023	6
323.15	0.692	1052	6
323.15	0.798	1085	6
323.15	0.894	1112	6
323.15	1	1132	6

System: 2-hydroxyethylammonium acetate + propan-2-ol; phases: Liquid
Fixed: Pressure, kPa = 101.3
Property: Speed of sound, m/s (Liquid); method: Single path-length method
Temperature, K	Mole fraction of 2-hydroxyethylammonium acetate	Speed of sound, m/s	uncertainty
293.15	0	1174.3	20
293.15	0.102	1218.6	20.2
293.15	0.2	1275.2	20.3
293.15	0.299	1334	20.4
293.15	0.397	1397.5	20.4
293.15	0.493	1465.1	20.5
293.15	0.6	1549.8	20.6
293.15	0.692	1620.1	20.5
293.15	0.798	1701.8	20.6
293.15	0.894	1779	20.3
293.15	1	1812.9	20
303.15	0	1122.4	20
303.15	0.102	1184.9	20.3
303.15	0.2	1242.9	20.3
303.15	0.299	1302.6	20.4
303.15	0.397	1366.2	20.4
303.15	0.493	1435.1	20.5
303.15	0.6	1516.7	20.5
303.15	0.692	1588.6	20.5
303.15	0.798	1666.8	20.5
303.15	0.894	1742.8	20.3
303.15	1	1781.2	20
313.15	0	1087.4	20
313.15	0.102	1151	20.3
313.15	0.2	1210.5	20.3
313.15	0.299	1271.5	20.4
313.15	0.397	1335.9	20.4
313.15	0.493	1405.8	20.5
313.15	0.6	1487.9	20.5
313.15	0.692	1559.5	20.5
313.15	0.798	1638.2	20.5
313.15	0.894	1713.8	20.3
313.15	1	1754.7	20
323.15	0	1051.6	20
323.15	0.102	1116.9	20.4
323.15	0.2	1177.8	20.4
323.15	0.299	1240.1	20.4
323.15	0.397	1305.6	20.5
323.15	0.493	1376.6	20.5
323.15	0.6	1460.2	20.6
323.15	0.692	1532.3	20.5
323.15	0.798	1612	20.5
323.15	0.894	1687.8	20.3
323.15	1	1730.9	20
