Measured thermophysical data. Density, Viscosity, Speed of Sound, Bulk Modulus, Surface Tension, and Flash Point of Binary Mixtures of Butylbenzene + Linear Alkanes (n-Decane, n-Dodecane, n-Tetradecane, n-Hexadecane, or n-Heptadecane) at 0.1 MPa
Source: J. Chem. Eng. Data, 2017, 10.1021/acs.jced.6b00542
Compound 1: butylbenzene, C10H14, InChI=1S/C10H14/c1-2-3-7-10-8-5-4-6-9-10/h4-6,8-9H,2-3,7H2,1H3, purity 99.9%
Compound 2: decane, C10H22, InChI=1S/C10H22/c1-3-5-7-9-10-8-6-4-2/h3-10H2,1-2H3, purity 99.4%
Compound 3: dodecane, C12H26, InChI=1S/C12H26/c1-3-5-7-9-11-12-10-8-6-4-2/h3-12H2,1-2H3, purity 99.5%
Compound 4: tetradecane, C14H30, InChI=1S/C14H30/c1-3-5-7-9-11-13-14-12-10-8-6-4-2/h3-14H2,1-2H3, purity 99.7%
Compound 5: hexadecane, C16H34, InChI=1S/C16H34/c1-3-5-7-9-11-13-15-16-14-12-10-8-6-4-2/h3-16H2,1-2H3, purity 99.4%
Compound 6: heptadecane, C17H36, InChI=1S/C17H36/c1-3-5-7-9-11-13-15-17-16-14-12-10-8-6-4-2/h3-17H2,1-2H3, purity 99.9%

System: butylbenzene; phases: Liquid, Gas
Property: Surface tension liquid-gas, N/m (Liquid); method: Pendant drop shape
Temperature, K	Surface tension liquid-gas, N/m	uncertainty
294.2	0.0291	0.0003

System: butylbenzene; phases: Liquid
Fixed: Pressure, kPa = 102
Property: Mass density, kg/m3 (Liquid); method: Vibrating tube method
Temperature, K	Mass density, kg/m3	uncertainty
293.15	860.51	0.11
303.15	852.49	0.11
313.15	844.43	0.11
323.15	836.34	0.11
333.15	828.21	0.12
343.15	819.9	0.2
353.15	811.7	0.2
363.15	803.4	0.2
373.15	795	0.2

System: butylbenzene; phases: Liquid
Fixed: Pressure, kPa = 102
Property: Viscosity, Pa*s (Liquid); method: Concentric cylinders viscometry
Temperature, K	Viscosity, Pa*s	uncertainty
293.15	0.00105	1e-05
303.15	0.00091	7e-06
313.15	0.000801	6e-06
323.15	0.000713	6e-06
333.15	0.000636	6e-06
343.15	0.000571	6e-06
353.15	0.000516	6e-06
363.15	0.000469	5e-06
373.15	0.00043	5e-06

System: butylbenzene; phases: Liquid
Fixed: Pressure, kPa = 100
Fixed: Frequency, MHz = 3
Property: Speed of sound, m/s (Liquid); method: Sing-around technique in a fixed-path interferometer
Temperature, K	Speed of sound, m/s	uncertainty
293.15	1353.7	0.9
303.15	1314.9	0.9
313.15	1276.6	0.9
323.15	1238.7	0.8
333.15	1201.4	0.8

System: decane; phases: Liquid, Gas
Property: Surface tension liquid-gas, N/m (Liquid); method: Pendant drop shape
Temperature, K	Surface tension liquid-gas, N/m	uncertainty
294.6	0.0238	0.0003

System: decane; phases: Liquid
Fixed: Pressure, kPa = 102
Property: Mass density, kg/m3 (Liquid); method: Vibrating tube method
Temperature, K	Mass density, kg/m3	uncertainty
293.15	729.88	0.17
303.15	722.31	0.18
313.15	714.69	0.18
323.15	707.02	0.18
333.15	699.29	0.18
343.15	691.5	0.3
353.15	683.6	0.3
363.15	675.6	0.3
373.15	667.5	0.3

System: decane; phases: Liquid
Fixed: Pressure, kPa = 102
Property: Viscosity, Pa*s (Liquid); method: Concentric cylinders viscometry
Temperature, K	Viscosity, Pa*s	uncertainty
293.15	0.000922	7e-06
303.15	0.000794	7e-06
313.15	0.000693	6e-06
323.15	0.000615	6e-06
333.15	0.000545	6e-06
343.15	0.000486	6e-06
353.15	0.000436	5e-06
363.15	0.000396	5e-06
373.15	0.000362	5e-06

System: decane; phases: Liquid
Fixed: Pressure, kPa = 100
Fixed: Frequency, MHz = 3
Property: Speed of sound, m/s (Liquid); method: Sing-around technique in a fixed-path interferometer
Temperature, K	Speed of sound, m/s	uncertainty
293.15	1253.8	1.4
303.15	1214.5	1.3
313.15	1175.7	1.2
323.15	1137.3	1.2
333.15	1099.3	1.1

System: dodecane; phases: Liquid, Gas
Property: Surface tension liquid-gas, N/m (Liquid); method: Pendant drop shape
Temperature, K	Surface tension liquid-gas, N/m	uncertainty
294.1	0.0251	0.0003

System: dodecane; phases: Liquid
Fixed: Pressure, kPa = 102
Property: Mass density, kg/m3 (Liquid); method: Vibrating tube method
Temperature, K	Mass density, kg/m3	uncertainty
293.15	748.79	0.16
303.15	741.54	0.16
313.15	734.25	0.16
323.15	726.94	0.17
333.15	719.59	0.17
343.15	712.2	0.3
353.15	704.7	0.3
363.15	697.2	0.3
373.15	689.6	0.3

System: dodecane; phases: Liquid
Fixed: Pressure, kPa = 102
Property: Viscosity, Pa*s (Liquid); method: Concentric cylinders viscometry
Temperature, K	Viscosity, Pa*s	uncertainty
293.15	0.00147	1e-05
303.15	0.00124	1e-05
313.15	0.00106	1e-05
323.15	0.000916	7e-06
333.15	0.000801	7e-06
343.15	0.000706	6e-06
353.15	0.000627	6e-06
363.15	0.000562	6e-06
373.15	0.000506	6e-06

System: dodecane; phases: Liquid
Fixed: Pressure, kPa = 100
Fixed: Frequency, MHz = 3
Property: Speed of sound, m/s (Liquid); method: Sing-around technique in a fixed-path interferometer
Temperature, K	Speed of sound, m/s	uncertainty
293.15	1297.9	1
303.15	1259.6	1
313.15	1221.9	1
323.15	1184.7	1
333.15	1148	1

System: tetradecane; phases: Liquid, Gas
Property: Surface tension liquid-gas, N/m (Liquid); method: Pendant drop shape
Temperature, K	Surface tension liquid-gas, N/m	uncertainty
294.6	0.0262	0.0003

System: tetradecane; phases: Liquid
Fixed: Pressure, kPa = 102
Property: Mass density, kg/m3 (Liquid); method: Vibrating tube method
Temperature, K	Mass density, kg/m3	uncertainty
293.15	762.71	0.14
303.15	755.65	0.14
313.15	748.58	0.15
323.15	741.5	0.15
333.15	734.4	0.15
343.15	727.5	0.2
353.15	720.3	0.2
363.15	713.1	0.3
373.15	705.8	0.3

System: tetradecane; phases: Liquid
Fixed: Pressure, kPa = 102
Property: Viscosity, Pa*s (Liquid); method: Concentric cylinders viscometry
Temperature, K	Viscosity, Pa*s	uncertainty
293.15	0.0023	1e-05
303.15	0.00188	1e-05
313.15	0.00156	1e-05
323.15	0.00132	1e-05
333.15	0.00113	8e-06
343.15	0.00098	7e-06
353.15	0.000858	7e-06
363.15	0.00076	6e-06
373.15	0.000679	6e-06

System: tetradecane; phases: Liquid
Fixed: Pressure, kPa = 100
Fixed: Frequency, MHz = 3
Property: Speed of sound, m/s (Liquid); method: Sing-around technique in a fixed-path interferometer
Temperature, K	Speed of sound, m/s	uncertainty
293.15	1331.2	0.9
303.15	1293.6	0.9
313.15	1256.4	0.9
323.15	1220.1	0.9
333.15	1184.1	0.9

System: hexadecane; phases: Liquid, Gas
Property: Surface tension liquid-gas, N/m (Liquid); method: Pendant drop shape
Temperature, K	Surface tension liquid-gas, N/m	uncertainty
294.8	0.0274	0.0003

System: hexadecane; phases: Liquid
Fixed: Pressure, kPa = 102
Property: Mass density, kg/m3 (Liquid); method: Vibrating tube method
Temperature, K	Mass density, kg/m3	uncertainty
293.15	773.52	0.16
303.15	766.58	0.17
313.15	759.66	0.17
323.15	752.74	0.17
333.15	745.82	0.17
343.15	738.8	0.3
353.15	731.9	0.3
363.15	724.9	0.3
373.15	717.8	0.3

System: hexadecane; phases: Liquid
Fixed: Pressure, kPa = 102
Property: Viscosity, Pa*s (Liquid); method: Concentric cylinders viscometry
Temperature, K	Viscosity, Pa*s	uncertainty
293.15	0.00345	2e-05
303.15	0.00274	2e-05
313.15	0.00222	1e-05
323.15	0.00184	1e-05
333.15	0.00155	1e-05
343.15	0.00132	1e-05
353.15	0.00114	1e-05
363.15	0.001	1e-05
373.15	0.000887	7e-06

System: hexadecane; phases: Liquid
Fixed: Pressure, kPa = 100
Fixed: Frequency, MHz = 3
Property: Speed of sound, m/s (Liquid); method: Sing-around technique in a fixed-path interferometer
Temperature, K	Speed of sound, m/s	uncertainty
293.15	1357.3	1.1
303.15	1320	1
313.15	1283.4	1
323.15	1247.5	1
333.15	1212.1	1

System: heptadecane; phases: Liquid
Fixed: Pressure, kPa = 102
Property: Mass density, kg/m3 (Liquid); method: Vibrating tube method
Temperature, K	Mass density, kg/m3	uncertainty
303.15	771.02	0.13
313.15	764.16	0.13
323.15	757.3	0.14
333.15	750.45	0.14
343.15	743.7	0.23
353.15	736.8	0.2
363.15	729.8	0.2
373.15	723	0.2

System: heptadecane; phases: Liquid
Fixed: Pressure, kPa = 102
Property: Viscosity, Pa*s (Liquid); method: Concentric cylinders viscometry
Temperature, K	Viscosity, Pa*s	uncertainty
303.15	0.00325	2e-05
313.15	0.00261	1e-05
323.15	0.00214	1e-05
333.15	0.00179	1e-05
343.15	0.00152	1e-05
353.15	0.0013	1e-05
363.15	0.00114	1e-05
373.15	0.001	1e-05

System: heptadecane; phases: Liquid
Fixed: Pressure, kPa = 100
Fixed: Frequency, MHz = 3
Property: Speed of sound, m/s (Liquid); method: Sing-around technique in a fixed-path interferometer
Temperature, K	Speed of sound, m/s	uncertainty
303.15	1330.9	1.2
313.15	1294.5	1.1
323.15	1258.8	0.9
333.15	1223.8	0.8

System: butylbenzene + decane; phases: Liquid
Fixed: Pressure, kPa = 102
Property: Mass density, kg/m3 (Liquid); method: Vibrating tube method
Temperature, K	Mole fraction of butylbenzene	Mass density, kg/m3	uncertainty
293.15	0	729.88	0.17
293.15	0.1055	740.9	0.17
293.15	0.2096	752.3	0.16
293.15	0.3124	764.12	0.15
293.15	0.4141	776.38	0.15
293.15	0.5145	789.08	0.14
293.15	0.614	802.32	0.13
293.15	0.712	816.03	0.13
293.15	0.8094	830.38	0.12
293.15	0.9051	845.04	0.12
293.15	1	860.51	0.11
303.15	0	722.31	0.18
303.15	0.1055	733.32	0.17
303.15	0.2096	744.67	0.16
303.15	0.3124	756.43	0.16
303.15	0.4141	768.66	0.15
303.15	0.5145	781.31	0.14
303.15	0.614	794.51	0.14
303.15	0.712	808.16	0.13
303.15	0.8094	822.46	0.12
303.15	0.9051	837.07	0.12
303.15	1	852.49	0.11
313.15	0	714.69	0.18
313.15	0.1055	725.64	0.17
313.15	0.2096	736.97	0.16
313.15	0.3124	748.7	0.16
313.15	0.4141	760.89	0.15
313.15	0.5145	773.5	0.14
313.15	0.614	786.65	0.14
313.15	0.712	800.26	0.13
313.15	0.8094	814.51	0.13
313.15	0.9051	829.07	0.12
313.15	1	844.43	0.11
323.15	0	707.02	0.18
323.15	0.1055	717.94	0.17
323.15	0.2096	729.23	0.17
323.15	0.3124	740.92	0.16
323.15	0.4141	753.07	0.15
323.15	0.5145	765.64	0.15
323.15	0.614	778.75	0.14
323.15	0.712	792.31	0.13
323.15	0.8094	806.52	0.13
323.15	0.9051	821.03	0.12
323.15	1	836.34	0.11
333.15	0	699.29	0.18
333.15	0.1055	710.17	0.18
333.15	0.2096	721.43	0.17
333.15	0.3124	733.08	0.16
333.15	0.4141	745.19	0.15
333.15	0.5145	757.73	0.15
333.15	0.614	770.8	0.14
333.15	0.712	784.32	0.14
333.15	0.8094	798.48	0.13
333.15	0.9051	812.95	0.13
333.15	1	828.21	0.12
343.15	0	691.5	0.3
343.15	0.1055	702.3	0.3
343.15	0.2096	713.5	0.3
343.15	0.3124	725.1	0.3
343.15	0.4141	737.2	0.3
343.15	0.5145	749.7	0.2
343.15	0.614	762.7	0.2
343.15	0.712	776.1	0.2
343.15	0.8094	790.3	0.2
343.15	0.9051	804.7	0.2
343.15	1	819.9	0.2
353.15	0	683.6	0.3
353.15	0.1055	694.4	0.3
353.15	0.2096	705.6	0.3
353.15	0.3124	717.1	0.3
353.15	0.4141	729.2	0.3
353.15	0.5145	741.7	0.2
353.15	0.614	754.6	0.2
353.15	0.712	768	0.2
353.15	0.8094	782.1	0.2
353.15	0.9051	796.5	0.2
353.15	1	811.7	0.2
363.15	0	675.6	0.3
363.15	0.1055	686.4	0.3
363.15	0.2096	697.5	0.3
363.15	0.3124	709.1	0.3
363.15	0.4141	721.1	0.3
363.15	0.5145	733.5	0.2
363.15	0.614	746.4	0.2
363.15	0.712	759.9	0.2
363.15	0.8094	773.9	0.2
363.15	0.9051	788.3	0.2
363.15	1	803.4	0.2
373.15	0	667.5	0.3
373.15	0.1055	678.2	0.3
373.15	0.2096	689.3	0.3
373.15	0.3124	700.9	0.3
373.15	0.4141	712.8	0.3
373.15	0.5145	725.3	0.3
373.15	0.614	738.2	0.2
373.15	0.712	751.6	0.2
373.15	0.8094	765.6	0.2
373.15	0.9051	779.9	0.2
373.15	1	795	0.2

System: butylbenzene + decane; phases: Liquid
Fixed: Pressure, kPa = 102
Property: Viscosity, Pa*s (Liquid); method: Concentric cylinders viscometry
Temperature, K	Mole fraction of butylbenzene	Viscosity, Pa*s	uncertainty
293.15	0	0.000922	7e-06
293.15	0.1055	0.000917	7e-06
293.15	0.2096	0.000917	7e-06
293.15	0.3124	0.000921	7e-06
293.15	0.4141	0.000928	7e-06
293.15	0.5145	0.00094	7e-06
293.15	0.614	0.000957	7e-06
293.15	0.712	0.000981	7e-06
293.15	0.8094	0.001	1e-05
293.15	0.9051	0.00103	1e-05
293.15	1	0.00105	1e-05
303.15	0	0.000794	7e-06
303.15	0.1055	0.000792	7e-06
303.15	0.2096	0.000794	7e-06
303.15	0.3124	0.000798	7e-06
303.15	0.4141	0.000805	7e-06
303.15	0.5145	0.000816	7e-06
303.15	0.614	0.00083	7e-06
303.15	0.712	0.000849	7e-06
303.15	0.8094	0.000866	7e-06
303.15	0.9051	0.000891	7e-06
303.15	1	0.00091	7e-06
313.15	0	0.000693	6e-06
313.15	0.1055	0.000693	6e-06
313.15	0.2096	0.000696	6e-06
313.15	0.3124	0.0007	6e-06
313.15	0.4141	0.000707	6e-06
313.15	0.5145	0.000716	6e-06
313.15	0.614	0.000727	6e-06
313.15	0.712	0.000743	6e-06
313.15	0.8094	0.00076	6e-06
313.15	0.9051	0.000781	6e-06
313.15	1	0.000801	6e-06
323.15	0	0.000615	6e-06
323.15	0.1055	0.000616	6e-06
323.15	0.2096	0.000619	6e-06
323.15	0.3124	0.000624	6e-06
323.15	0.4141	0.00063	6e-06
323.15	0.5145	0.000639	6e-06
323.15	0.614	0.000649	6e-06
323.15	0.712	0.000661	6e-06
323.15	0.8094	0.000677	6e-06
323.15	0.9051	0.000695	6e-06
323.15	1	0.000713	6e-06
333.15	0	0.000545	6e-06
333.15	0.1055	0.000547	6e-06
333.15	0.2096	0.000549	6e-06
333.15	0.3124	0.000555	6e-06
333.15	0.4141	0.00056	6e-06
333.15	0.5145	0.000568	6e-06
333.15	0.614	0.000577	6e-06
333.15	0.712	0.000589	6e-06
333.15	0.8094	0.000602	6e-06
333.15	0.9051	0.000618	6e-06
333.15	1	0.000636	6e-06
343.15	0	0.000486	6e-06
343.15	0.1055	0.000488	6e-06
343.15	0.2096	0.000492	6e-06
343.15	0.3124	0.000496	6e-06
343.15	0.4141	0.000502	6e-06
343.15	0.5145	0.000509	6e-06
343.15	0.614	0.000518	6e-06
343.15	0.712	0.000528	6e-06
343.15	0.8094	0.00054	6e-06
343.15	0.9051	0.000554	6e-06
343.15	1	0.000571	6e-06
353.15	0	0.000436	5e-06
353.15	0.1055	0.000439	5e-06
353.15	0.2096	0.000443	5e-06
353.15	0.3124	0.000447	5e-06
353.15	0.4141	0.000453	5e-06
353.15	0.5145	0.00046	5e-06
353.15	0.614	0.000467	5e-06
353.15	0.712	0.000477	5e-06
353.15	0.8094	0.000488	5e-06
353.15	0.9051	0.0005	5e-06
353.15	1	0.000516	6e-06
363.15	0	0.000396	5e-06
363.15	0.1055	0.000399	5e-06
363.15	0.2096	0.000402	5e-06
363.15	0.3124	0.000407	5e-06
363.15	0.4141	0.000412	5e-06
363.15	0.5145	0.000419	5e-06
363.15	0.614	0.000426	5e-06
363.15	0.712	0.000434	5e-06
363.15	0.8094	0.000444	5e-06
363.15	0.9051	0.000456	5e-06
363.15	1	0.000469	5e-06
373.15	0	0.000362	5e-06
373.15	0.1055	0.000365	5e-06
373.15	0.2096	0.000369	5e-06
373.15	0.3124	0.000373	5e-06
373.15	0.4141	0.000378	5e-06
373.15	0.5145	0.000384	5e-06
373.15	0.614	0.000391	5e-06
373.15	0.712	0.000399	5e-06
373.15	0.8094	0.000408	5e-06
373.15	0.9051	0.000419	5e-06
373.15	1	0.00043	5e-06

System: butylbenzene + decane; phases: Liquid, Gas
Fixed: Temperature, K = 294.5
Property: Surface tension liquid-gas, N/m (Liquid); method: Pendant drop shape
Mole fraction of butylbenzene	Surface tension liquid-gas, N/m	uncertainty
0.1055	0.0239	0.0003
0.2096	0.0243	0.0004
0.3124	0.0246	0.0004
0.4141	0.0249	0.0004
0.5145	0.0254	0.0004
0.614	0.0258	0.0004
0.712	0.0265	0.0004
0.8094	0.0267	0.0004
0.9051	0.0279	0.0004

System: butylbenzene + decane; phases: Liquid
Fixed: Pressure, kPa = 100
Fixed: Frequency, MHz = 3
Property: Speed of sound, m/s (Liquid); method: Sing-around technique in a fixed-path interferometer
Temperature, K	Mole fraction of butylbenzene	Speed of sound, m/s	uncertainty
293.15	0	1253.8	1.4
303.15	0	1214.5	1.3
313.15	0	1175.7	1.2
323.15	0	1137.3	1.2
333.15	0	1099.3	1.1
293.15	1	1353.7	0.9
303.15	1	1314.9	0.9
313.15	1	1276.6	0.9
323.15	1	1238.7	0.8
333.15	1	1201.4	0.8
293.15	0.1055	1259.2	1
303.15	0.1055	1220.2	1
313.15	0.1055	1181.5	1
323.15	0.1055	1143.3	1
333.15	0.1055	1105.6	1
293.15	0.2096	1266.3	1
303.15	0.2096	1227.4	1
313.15	0.2096	1188.9	1
323.15	0.2096	1150.8	1
333.15	0.2096	1113.2	0.9
293.15	0.3124	1273.8	1
303.15	0.3124	1235	0.9
313.15	0.3124	1196.6	0.9
323.15	0.3124	1158.7	0.9
333.15	0.3124	1121.2	0.9
293.15	0.4141	1282.1	0.9
303.15	0.4141	1243.5	0.9
313.15	0.4141	1205.2	0.9
323.15	0.4141	1167.3	0.9
333.15	0.4141	1129.9	0.9
293.15	0.5145	1291.3	1.1
303.15	0.5145	1252.5	0.9
313.15	0.5145	1214.3	0.9
323.15	0.5145	1176.6	0.9
333.15	0.5145	1139.3	0.9
293.15	0.614	1301.1	0.9
303.15	0.614	1262.6	0.9
313.15	0.614	1224.4	0.9
323.15	0.614	1186.7	0.9
333.15	0.614	1149.5	0.9
293.15	0.712	1312.2	0.9
303.15	0.712	1273.7	0.9
313.15	0.712	1235.6	0.9
323.15	0.712	1197.9	0.9
333.15	0.712	1160.7	0.9
293.15	0.8094	1324.5	1.1
303.15	0.8094	1286	1.1
313.15	0.8094	1247.9	1
323.15	0.8094	1210.2	1
333.15	0.8094	1173	1
293.15	0.9051	1338.2	0.9
303.15	0.9051	1299.4	0.9
313.15	0.9051	1261.2	0.9
323.15	0.9051	1223.5	0.8
333.15	0.9051	1186.3	0.8

System: butylbenzene + dodecane; phases: Liquid
Fixed: Pressure, kPa = 102
Property: Mass density, kg/m3 (Liquid); method: Vibrating tube method
Temperature, K	Mole fraction of butylbenzene	Mass density, kg/m3	uncertainty
293.15	0	748.79	0.16
293.15	0.1241	758.28	0.15
293.15	0.2414	768.11	0.15
293.15	0.3524	778.18	0.14
293.15	0.4583	788.6	0.14
293.15	0.5593	799.56	0.13
293.15	0.6552	810.7	0.13
293.15	0.7575	823.88	0.12
293.15	0.8349	834.67	0.12
293.15	0.9194	847.33	0.12
293.15	1	860.51	0.11
303.15	0	741.54	0.16
303.15	0.1241	750.96	0.16
303.15	0.2414	760.73	0.15
303.15	0.3524	770.74	0.14
303.15	0.4583	781.11	0.14
303.15	0.5593	791.97	0.13
303.15	0.6552	803.03	0.13
303.15	0.7575	816.12	0.12
303.15	0.8349	826.84	0.12
303.15	0.9194	839.4	0.12
303.15	1	852.49	0.11
313.15	0	734.25	0.16
313.15	0.1241	743.61	0.16
313.15	0.2414	753.32	0.15
313.15	0.3524	763.26	0.15
313.15	0.4583	773.56	0.14
313.15	0.5593	784.35	0.14
313.15	0.6552	795.32	0.13
313.15	0.7575	808.33	0.13
313.15	0.8349	818.96	0.12
313.15	0.9194	831.44	0.12
313.15	1	844.43	0.11
323.15	0	726.94	0.17
323.15	0.1241	736.23	0.16
323.15	0.2414	745.87	0.15
323.15	0.3524	755.75	0.15
323.15	0.4583	765.97	0.14
323.15	0.5593	776.69	0.14
323.15	0.6552	787.58	0.13
323.15	0.7575	800.5	0.13
323.15	0.8349	811.06	0.13
323.15	0.9194	823.44	0.12
323.15	1	836.34	0.11
333.15	0	719.59	0.17
333.15	0.1241	728.82	0.16
333.15	0.2414	738.39	0.16
333.15	0.3524	748.19	0.15
333.15	0.4583	758.34	0.15
333.15	0.5593	768.98	0.14
333.15	0.6552	779.81	0.14
333.15	0.7575	792.63	0.13
333.15	0.8349	803.11	0.13
333.15	0.9194	815.41	0.12
333.15	1	828.21	0.12
343.15	0	712.2	0.3
343.15	0.1241	721.2	0.3
343.15	0.2414	730.8	0.3
343.15	0.3524	740.5	0.2
343.15	0.4583	750.7	0.2
343.15	0.5593	761.2	0.2
343.15	0.6552	771.9	0.2
343.15	0.7575	784.7	0.2
343.15	0.8349	795.1	0.2
343.15	0.9194	807.2	0.2
343.15	1	819.9	0.2
353.15	0	704.7	0.3
353.15	0.1241	713.7	0.3
353.15	0.2414	723.2	0.3
353.15	0.3524	732.9	0.2
353.15	0.4583	743	0.2
353.15	0.5593	753.4	0.2
353.15	0.6552	764	0.2
353.15	0.7575	776.7	0.2
353.15	0.8349	787	0.2
353.15	0.9194	799.1	0.2
353.15	1	811.7	0.2
363.15	0	697.2	0.3
363.15	0.1241	706.1	0.3
363.15	0.2414	715.6	0.3
363.15	0.3524	725.1	0.3
363.15	0.4583	735.2	0.2
363.15	0.5593	745.5	0.2
363.15	0.6552	756	0.2
363.15	0.7575	768.6	0.2
363.15	0.8349	778.9	0.2
363.15	0.9194	790.9	0.2
363.15	1	803.4	0.2
373.15	0	689.6	0.3
373.15	0.1241	698.5	0.3
373.15	0.2414	707.8	0.3
373.15	0.3524	717.3	0.3
373.15	0.4583	727.2	0.2
373.15	0.5593	737.5	0.2
373.15	0.6552	747.9	0.2
373.15	0.7575	760.5	0.2
373.15	0.8349	770.7	0.2
373.15	0.9194	782.6	0.2
373.15	1	795	0.2

System: butylbenzene + dodecane; phases: Liquid
Fixed: Pressure, kPa = 102
Property: Viscosity, Pa*s (Liquid); method: Concentric cylinders viscometry
Temperature, K	Mole fraction of butylbenzene	Viscosity, Pa*s	uncertainty
293.15	0	0.00147	1e-05
293.15	0.1241	0.00138	1e-05
293.15	0.2414	0.00131	1e-05
293.15	0.3524	0.00124	1e-05
293.15	0.4583	0.00119	1e-05
293.15	0.5593	0.00115	1e-05
293.15	0.6552	0.00111	1e-05
293.15	0.7575	0.00108	1e-05
293.15	0.8349	0.00106	1e-05
293.15	0.9194	0.00104	1e-05
293.15	1	0.00105	1e-05
303.15	0	0.00124	1e-05
303.15	0.1241	0.00117	1e-05
303.15	0.2414	0.00112	1e-05
303.15	0.3524	0.00107	1e-05
303.15	0.4583	0.00103	1e-05
303.15	0.5593	0.000996	7e-06
303.15	0.6552	0.000968	7e-06
303.15	0.7575	0.000941	7e-06
303.15	0.8349	0.000925	7e-06
303.15	0.9194	0.000909	7e-06
303.15	1	0.00091	7e-06
313.15	0	0.00106	1e-05
313.15	0.1241	0.00101	1e-05
313.15	0.2414	0.000968	7e-06
313.15	0.3524	0.000931	7e-06
313.15	0.4583	0.0009	7e-06
313.15	0.5593	0.000873	7e-06
313.15	0.6552	0.00085	7e-06
313.15	0.7575	0.000829	7e-06
313.15	0.8349	0.000816	6e-06
313.15	0.9194	0.000804	6e-06
313.15	1	0.000801	6e-06
323.15	0	0.000916	7e-06
323.15	0.1241	0.000879	7e-06
323.15	0.2414	0.000846	7e-06
323.15	0.3524	0.000817	7e-06
323.15	0.4583	0.000793	6e-06
323.15	0.5593	0.000771	6e-06
323.15	0.6552	0.000753	6e-06
323.15	0.7575	0.000736	6e-06
323.15	0.8349	0.000725	6e-06
323.15	0.9194	0.000716	6e-06
323.15	1	0.000713	6e-06
333.15	0	0.000801	7e-06
333.15	0.1241	0.000771	7e-06
333.15	0.2414	0.000745	6e-06
333.15	0.3524	0.000722	6e-06
333.15	0.4583	0.000703	6e-06
333.15	0.5593	0.000686	6e-06
333.15	0.6552	0.000671	6e-06
333.15	0.7575	0.000657	6e-06
333.15	0.8349	0.000649	6e-06
333.15	0.9194	0.00064	6e-06
333.15	1	0.000636	6e-06
343.15	0	0.000706	6e-06
343.15	0.1241	0.000683	6e-06
343.15	0.2414	0.000662	6e-06
343.15	0.3524	0.000643	6e-06
343.15	0.4583	0.000627	6e-06
343.15	0.5593	0.000614	6e-06
343.15	0.6552	0.000602	6e-06
343.15	0.7575	0.00059	6e-06
343.15	0.8349	0.000583	6e-06
343.15	0.9194	0.000576	6e-06
343.15	1	0.000571	6e-06
353.15	0	0.000627	6e-06
353.15	0.1241	0.000608	6e-06
353.15	0.2414	0.000591	6e-06
353.15	0.3524	0.000576	6e-06
353.15	0.4583	0.000563	6e-06
353.15	0.5593	0.000552	6e-06
353.15	0.6552	0.000542	6e-06
353.15	0.7575	0.000532	6e-06
353.15	0.8349	0.000526	6e-06
353.15	0.9194	0.000521	6e-06
353.15	1	0.000516	6e-06
363.15	0	0.000562	6e-06
363.15	0.1241	0.000546	6e-06
363.15	0.2414	0.000532	6e-06
363.15	0.3524	0.000519	6e-06
363.15	0.4583	0.000508	6e-06
363.15	0.5593	0.000499	5e-06
363.15	0.6552	0.000491	5e-06
363.15	0.7575	0.000483	5e-06
363.15	0.8349	0.000478	5e-06
363.15	0.9194	0.000473	5e-06
363.15	1	0.000469	5e-06
373.15	0	0.000506	6e-06
373.15	0.1241	0.000493	6e-06
373.15	0.2414	0.000481	5e-06
373.15	0.3524	0.000471	5e-06
373.15	0.4583	0.000461	5e-06
373.15	0.5593	0.000454	5e-06
373.15	0.6552	0.000447	5e-06
373.15	0.7575	0.00044	5e-06
373.15	0.8349	0.000436	5e-06
373.15	0.9194	0.000432	5e-06
373.15	1	0.00043	5e-06

System: butylbenzene + dodecane; phases: Liquid, Gas
Fixed: Temperature, K = 294.5
Property: Surface tension liquid-gas, N/m (Liquid); method: Pendant drop shape
Mole fraction of butylbenzene	Surface tension liquid-gas, N/m	uncertainty
0.1241	0.0254	0.0004
0.2414	0.026	0.0004
0.3524	0.0263	0.0004
0.4583	0.0262	0.0004
0.5593	0.0267	0.0004
0.6552	0.027	0.0004
0.7575	0.0275	0.0004
0.8349	0.0277	0.0004
0.9194	0.0284	0.0004

System: butylbenzene + dodecane; phases: Liquid
Fixed: Pressure, kPa = 100
Fixed: Frequency, MHz = 3
Property: Speed of sound, m/s (Liquid); method: Sing-around technique in a fixed-path interferometer
Temperature, K	Mole fraction of butylbenzene	Speed of sound, m/s	uncertainty
293.15	0	1297.9	1
303.15	0	1259.6	1
313.15	0	1221.9	1
323.15	0	1184.7	1
333.15	0	1148	1
293.15	1	1353.7	0.9
303.15	1	1314.9	0.9
313.15	1	1276.6	0.9
323.15	1	1238.7	0.8
333.15	1	1201.4	0.8
293.15	0.1241	1300.2	1
303.15	0.1241	1262	1
313.15	0.1241	1224.4	0.9
323.15	0.1241	1187.2	0.9
333.15	0.1241	1150.5	0.9
293.15	0.2414	1302.8	0.9
303.15	0.2414	1264.8	0.9
313.15	0.2414	1227.2	0.9
323.15	0.2414	1190	0.9
333.15	0.2414	1153.4	0.9
293.15	0.3524	1306.4	0.9
303.15	0.3524	1268.4	0.9
313.15	0.3524	1230.8	0.9
323.15	0.3524	1193.7	0.9
333.15	0.3524	1157	0.9
293.15	0.4583	1310.3	0.9
303.15	0.4583	1272.3	0.9
313.15	0.4583	1234.7	0.9
323.15	0.4583	1197.6	0.9
333.15	0.4583	1161	0.9
293.15	0.5593	1315.4	0.9
303.15	0.5593	1277.3	0.9
313.15	0.5593	1239.7	0.9
323.15	0.5593	1202.5	0.9
333.15	0.5593	1165.8	0.9
293.15	0.6552	1321.3	0.9
303.15	0.6552	1283.1	0.9
313.15	0.6552	1245.4	0.9
323.15	0.6552	1208.1	0.9
333.15	0.6552	1171.3	0.9
293.15	0.7575	1328.6	0.9
303.15	0.7575	1290.4	0.9
313.15	0.7575	1252.5	0.9
323.15	0.7575	1215.2	0.9
333.15	0.7575	1178.4	0.8
293.15	0.8349	1335.5	0.9
303.15	0.8349	1297	0.9
313.15	0.8349	1259.1	0.9
323.15	0.8349	1221.6	0.8
333.15	0.8349	1184.6	0.8
293.15	0.9194	1343.9	0.9
303.15	0.9194	1305.4	0.9
313.15	0.9194	1267.3	0.9
323.15	0.9194	1229.7	0.8
333.15	0.9194	1192.5	0.8

System: butylbenzene + tetradecane; phases: Liquid
Fixed: Pressure, kPa = 102
Property: Mass density, kg/m3 (Liquid); method: Vibrating tube method
Temperature, K	Mole fraction of butylbenzene	Mass density, kg/m3	uncertainty
293.15	0	762.71	0.14
293.15	0.1414	770.92	0.14
293.15	0.2704	779.61	0.14
293.15	0.3915	788.74	0.13
293.15	0.4988	797.91	0.13
293.15	0.5961	807.14	0.13
293.15	0.6892	817.1	0.12
293.15	0.7751	827.32	0.12
293.15	0.8553	837.74	0.12
293.15	0.9299	849.02	0.11
293.15	1	860.51	0.11
303.15	0	755.65	0.14
303.15	0.1414	763.79	0.14
303.15	0.2704	772.41	0.14
303.15	0.3915	781.46	0.13
303.15	0.4988	790.54	0.13
303.15	0.5961	799.68	0.13
303.15	0.6892	809.54	0.12
303.15	0.7751	819.66	0.12
303.15	0.8553	829.96	0.12
303.15	0.9299	841.12	0.12
303.15	1	852.49	0.11
313.15	0	748.58	0.15
313.15	0.1414	756.65	0.14
313.15	0.2704	765.18	0.14
313.15	0.3915	774.14	0.14
313.15	0.4988	783.14	0.13
313.15	0.5961	792.18	0.13
313.15	0.6892	801.94	0.13
313.15	0.7751	811.95	0.12
313.15	0.8553	822.15	0.12
313.15	0.9299	833.19	0.12
313.15	1	844.43	0.11
323.15	0	741.5	0.15
323.15	0.1414	749.49	0.14
323.15	0.2704	757.94	0.14
323.15	0.3915	766.81	0.14
323.15	0.4988	775.71	0.13
323.15	0.5961	784.66	0.13
323.15	0.6892	794.32	0.13
323.15	0.7751	804.22	0.13
323.15	0.8553	814.31	0.12
323.15	0.9299	825.22	0.12
323.15	1	836.34	0.11
333.15	0	734.4	0.15
333.15	0.1414	742.31	0.15
333.15	0.2704	750.67	0.14
333.15	0.3915	759.45	0.14
333.15	0.4988	768.25	0.14
333.15	0.5961	777.11	0.13
333.15	0.6892	786.65	0.13
333.15	0.7751	796.45	0.13
333.15	0.8553	806.42	0.13
333.15	0.9299	817.22	0.12
333.15	1	828.21	0.12
343.15	0	727.5	0.2
343.15	0.1414	735.2	0.2
343.15	0.2704	743.4	0.2
343.15	0.3915	752	0.2
343.15	0.4988	760.8	0.2
343.15	0.5961	769.6	0.2
343.15	0.6892	779	0.2
343.15	0.7751	788.7	0.2
343.15	0.8553	798.5	0.2
343.15	0.9299	809.2	0.2
343.15	1	819.9	0.2
353.15	0	720.3	0.2
353.15	0.1414	728	0.2
353.15	0.2704	736.1	0.2
353.15	0.3915	744.6	0.2
353.15	0.4988	753.3	0.2
353.15	0.5961	762	0.2
353.15	0.6892	771.3	0.2
353.15	0.7751	780.9	0.2
353.15	0.8553	790.6	0.2
353.15	0.9299	801.1	0.2
353.15	1	811.7	0.2
363.15	0	713.1	0.3
363.15	0.1414	720.7	0.2
363.15	0.2704	728.7	0.2
363.15	0.3915	737.1	0.2
363.15	0.4988	745.7	0.2
363.15	0.5961	754.3	0.2
363.15	0.6892	763.5	0.2
363.15	0.7751	773	0.2
363.15	0.8553	782.5	0.2
363.15	0.9299	793	0.2
363.15	1	803.4	0.2
373.15	0	705.8	0.3
373.15	0.1414	713.3	0.2
373.15	0.2704	721.2	0.2
373.15	0.3915	729.5	0.2
373.15	0.4988	738	0.2
373.15	0.5961	746.5	0.2
373.15	0.6892	755.6	0.2
373.15	0.7751	764.9	0.2
373.15	0.8553	774.3	0.2
373.15	0.9299	784.7	0.2
373.15	1	795	0.2

System: butylbenzene + tetradecane; phases: Liquid
Fixed: Pressure, kPa = 102
Property: Viscosity, Pa*s (Liquid); method: Concentric cylinders viscometry
Temperature, K	Mole fraction of butylbenzene	Viscosity, Pa*s	uncertainty
293.15	0	0.0023	1e-05
293.15	0.1414	0.00206	1e-05
293.15	0.2704	0.00186	1e-05
293.15	0.3915	0.00169	1e-05
293.15	0.4988	0.00155	1e-05
293.15	0.5961	0.00144	1e-05
293.15	0.6892	0.00134	1e-05
293.15	0.7751	0.00125	1e-05
293.15	0.8553	0.00118	1e-05
293.15	0.9299	0.00112	1e-05
293.15	1	0.00105	1e-05
303.15	0	0.00188	1e-05
303.15	0.1414	0.0017	1e-05
303.15	0.2704	0.00154	1e-05
303.15	0.3915	0.00142	1e-05
303.15	0.4988	0.00131	1e-05
303.15	0.5961	0.00122	1e-05
303.15	0.6892	0.00114	1e-05
303.15	0.7751	0.00107	1e-05
303.15	0.8553	0.00102	1e-05
303.15	0.9299	0.000965	7e-06
303.15	1	0.00091	7e-06
313.15	0	0.00156	1e-05
313.15	0.1414	0.00142	1e-05
313.15	0.2704	0.00131	1e-05
313.15	0.3915	0.00121	1e-05
313.15	0.4988	0.00112	1e-05
313.15	0.5961	0.00105	1e-05
313.15	0.6892	0.000987	7e-06
313.15	0.7751	0.000932	7e-06
313.15	0.8553	0.000886	7e-06
313.15	0.9299	0.000843	7e-06
313.15	1	0.000801	6e-06
323.15	0	0.00132	1e-05
323.15	0.1414	0.00121	1e-05
323.15	0.2704	0.00112	1e-05
323.15	0.3915	0.00104	1e-05
323.15	0.4988	0.000973	7e-06
323.15	0.5961	0.000915	7e-06
323.15	0.6892	0.000863	7e-06
323.15	0.7751	0.000818	6e-06
323.15	0.8553	0.00078	6e-06
323.15	0.9299	0.000744	6e-06
323.15	1	0.000713	6e-06
333.15	0	0.00113	8e-06
333.15	0.1414	0.00105	1e-05
333.15	0.2704	0.000973	7e-06
333.15	0.3915	0.000908	7e-06
333.15	0.4988	0.000853	7e-06
333.15	0.5961	0.000806	6e-06
333.15	0.6892	0.000762	6e-06
333.15	0.7751	0.000725	6e-06
333.15	0.8553	0.000691	6e-06
333.15	0.9299	0.000662	6e-06
333.15	1	0.000636	6e-06
343.15	0	0.00098	7e-06
343.15	0.1414	0.000912	7e-06
343.15	0.2704	0.000852	7e-06
343.15	0.3915	0.0008	6e-06
343.15	0.4988	0.000753	6e-06
343.15	0.5961	0.000716	6e-06
343.15	0.6892	0.000678	6e-06
343.15	0.7751	0.000647	6e-06
343.15	0.8553	0.000619	6e-06
343.15	0.9299	0.000592	6e-06
343.15	1	0.000571	6e-06
353.15	0	0.000858	7e-06
353.15	0.1414	0.000804	6e-06
353.15	0.2704	0.000754	6e-06
353.15	0.3915	0.000711	6e-06
353.15	0.4988	0.000671	6e-06
353.15	0.5961	0.000639	6e-06
353.15	0.6892	0.000608	6e-06
353.15	0.7751	0.000581	6e-06
353.15	0.8553	0.000557	6e-06
353.15	0.9299	0.000534	6e-06
353.15	1	0.000516	6e-06
363.15	0	0.00076	6e-06
363.15	0.1414	0.000715	6e-06
363.15	0.2704	0.000674	6e-06
363.15	0.3915	0.000637	6e-06
363.15	0.4988	0.000604	6e-06
363.15	0.5961	0.000576	6e-06
363.15	0.6892	0.00055	6e-06
363.15	0.7751	0.000526	6e-06
363.15	0.8553	0.000505	5e-06
363.15	0.9299	0.000486	5e-06
363.15	1	0.000469	5e-06
373.15	0	0.000679	6e-06
373.15	0.1414	0.000641	6e-06
373.15	0.2704	0.000606	6e-06
373.15	0.3915	0.000575	6e-06
373.15	0.4988	0.000547	6e-06
373.15	0.5961	0.000523	6e-06
373.15	0.6892	0.0005	5e-06
373.15	0.7751	0.00048	5e-06
373.15	0.8553	0.000461	5e-06
373.15	0.9299	0.000444	5e-06
373.15	1	0.00043	5e-06

System: butylbenzene + tetradecane; phases: Liquid, Gas
Fixed: Temperature, K = 294.5
Property: Surface tension liquid-gas, N/m (Liquid); method: Pendant drop shape
Mole fraction of butylbenzene	Surface tension liquid-gas, N/m	uncertainty
0.1414	0.0265	0.0004
0.2704	0.0267	0.0004
0.3915	0.027	0.0004
0.4988	0.027	0.0004
0.5961	0.0273	0.0004
0.6892	0.0273	0.0004
0.7751	0.0278	0.0004
0.8553	0.028	0.0004
0.9299	0.0283	0.0004

System: butylbenzene + tetradecane; phases: Liquid
Fixed: Pressure, kPa = 100
Fixed: Frequency, MHz = 3
Property: Speed of sound, m/s (Liquid); method: Sing-around technique in a fixed-path interferometer
Temperature, K	Mole fraction of butylbenzene	Speed of sound, m/s	uncertainty
293.15	0	1331.2	0.9
303.15	0	1293.6	0.9
313.15	0	1256.4	0.9
323.15	0	1220.1	0.9
333.15	0	1184.1	0.9
293.15	1	1353.7	0.9
303.15	1	1314.9	0.9
313.15	1	1276.6	0.9
323.15	1	1238.7	0.8
333.15	1	1201.4	0.8
293.15	0.1414	1330.1	0.9
303.15	0.1414	1292.6	0.9
313.15	0.1414	1255.6	0.9
323.15	0.1414	1219.1	0.9
333.15	0.1414	1183.2	0.9
293.15	0.2704	1329.5	0.9
303.15	0.2704	1292.1	0.9
313.15	0.2704	1255.1	0.9
323.15	0.2704	1218.6	0.9
333.15	0.2704	1182.7	0.9
293.15	0.3915	1329.7	1
303.15	0.3915	1292.3	0.9
313.15	0.3915	1255.3	0.9
323.15	0.3915	1218.7	0.9
333.15	0.3915	1182.7	0.9
293.15	0.4988	1330.9	1
303.15	0.4988	1293.4	0.9
313.15	0.4988	1256.3	1
323.15	0.4988	1219.6	0.9
333.15	0.4988	1183.5	0.9
293.15	0.5961	1332.5	0.9
303.15	0.5961	1294.9	0.9
313.15	0.5961	1257.6	0.9
323.15	0.5961	1220.9	0.9
333.15	0.5961	1184.7	0.8
293.15	0.6892	1334.9	0.9
303.15	0.6892	1297.2	0.9
313.15	0.6892	1259.8	0.9
323.15	0.6892	1223	0.8
333.15	0.6892	1186.6	0.8
293.15	0.7751	1338.1	0.9
303.15	0.7751	1300.2	0.9
313.15	0.7751	1262.7	0.9
323.15	0.7751	1225.6	0.8
333.15	0.7751	1189.1	0.8
293.15	0.8553	1342.1	0.9
303.15	0.8553	1303.8	0.9
313.15	0.8553	1266.1	0.9
323.15	0.8553	1228.9	0.8
333.15	0.8553	1192.1	0.8
293.15	0.9299	1347.7	1.1
303.15	0.9299	1309.2	1.3
313.15	0.9299	1271.2	1.2
323.15	0.9299	1233.7	1.2
333.15	0.9299	1196.7	1.1

System: butylbenzene + hexadecane; phases: Liquid
Fixed: Pressure, kPa = 102
Property: Mass density, kg/m3 (Liquid); method: Vibrating tube method
Temperature, K	Mole fraction of butylbenzene	Mass density, kg/m3	uncertainty
293.15	0	773.52	0.16
293.15	0.1586	780.89	0.15
293.15	0.2971	788.51	0.15
293.15	0.4067	795.49	0.14
293.15	0.5293	804.56	0.13
293.15	0.6278	813.07	0.13
293.15	0.7158	821.75	0.12
293.15	0.7981	831.1	0.12
293.15	0.8709	840.48	0.12
293.15	0.938	850.32	0.11
293.15	1	860.51	0.11
303.15	0	766.58	0.17
303.15	0.1586	773.89	0.16
303.15	0.2971	781.43	0.15
303.15	0.4067	788.33	0.14
303.15	0.5293	797.29	0.14
303.15	0.6278	805.7	0.13
303.15	0.7158	814.27	0.13
303.15	0.7981	823.49	0.12
303.15	0.8709	832.73	0.12
303.15	0.938	842.44	0.12
303.15	1	852.49	0.11
313.15	0	759.66	0.17
313.15	0.1586	766.88	0.16
313.15	0.2971	774.34	0.15
313.15	0.4067	781.16	0.14
313.15	0.5293	790	0.14
313.15	0.6278	798.3	0.13
313.15	0.7158	806.75	0.13
313.15	0.7981	815.84	0.12
313.15	0.8709	824.96	0.12
313.15	0.938	834.53	0.12
313.15	1	844.43	0.11
323.15	0	752.74	0.17
323.15	0.1586	759.88	0.16
323.15	0.2971	767.24	0.15
323.15	0.4067	773.97	0.15
323.15	0.5293	782.69	0.14
323.15	0.6278	790.88	0.13
323.15	0.7158	799.21	0.13
323.15	0.7981	808.17	0.13
323.15	0.8709	817.16	0.12
323.15	0.938	826.58	0.12
323.15	1	836.34	0.11
333.15	0	745.82	0.17
333.15	0.1586	752.86	0.16
333.15	0.2971	760.13	0.15
333.15	0.4067	766.76	0.15
333.15	0.5293	775.36	0.14
333.15	0.6278	783.43	0.14
333.15	0.7158	791.64	0.13
333.15	0.7981	800.47	0.13
333.15	0.8709	809.32	0.13
333.15	0.938	818.61	0.12
333.15	1	828.21	0.12
343.15	0	738.8	0.3
343.15	0.1586	745.8	0.3
343.15	0.2971	752.9	0.2
343.15	0.4067	759.5	0.2
343.15	0.5293	767.9	0.2
343.15	0.6278	775.9	0.2
343.15	0.7158	783.9	0.2
343.15	0.7981	792.7	0.2
343.15	0.8709	801.4	0.2
343.15	0.938	810.6	0.2
343.15	1	819.9	0.2
353.15	0	731.9	0.3
353.15	0.1586	738.8	0.3
353.15	0.2971	745.8	0.3
353.15	0.4067	752.3	0.2
353.15	0.5293	760.5	0.2
353.15	0.6278	768.4	0.2
353.15	0.7158	776.2	0.2
353.15	0.7981	784.9	0.2
353.15	0.8709	793.5	0.2
353.15	0.938	802.5	0.2
353.15	1	811.7	0.2
363.15	0	724.9	0.3
363.15	0.1586	731.6	0.3
363.15	0.2971	738.6	0.3
363.15	0.4067	744.9	0.2
363.15	0.5293	753.1	0.2
363.15	0.6278	760.8	0.2
363.15	0.7158	768.5	0.2
363.15	0.7981	777.1	0.2
363.15	0.8709	785.4	0.2
363.15	0.938	794.3	0.2
363.15	1	803.4	0.2
373.15	0	717.8	0.3
373.15	0.1586	724.5	0.3
373.15	0.2971	731.3	0.3
373.15	0.4067	737.5	0.2
373.15	0.5293	745.5	0.2
373.15	0.6278	753.1	0.2
373.15	0.7158	760.8	0.2
373.15	0.7981	769.1	0.2
373.15	0.8709	777.5	0.2
373.15	0.938	786.1	0.2
373.15	1	795	0.2

System: butylbenzene + hexadecane; phases: Liquid
Fixed: Pressure, kPa = 102
Property: Viscosity, Pa*s (Liquid); method: Concentric cylinders viscometry
Temperature, K	Mole fraction of butylbenzene	Viscosity, Pa*s	uncertainty
293.15	0	0.00345	2e-05
293.15	0.1586	0.00292	2e-05
293.15	0.2971	0.0025	1e-05
293.15	0.4067	0.00221	1e-05
293.15	0.5293	0.00191	1e-05
293.15	0.6278	0.00169	1e-05
293.15	0.7158	0.00152	1e-05
293.15	0.7981	0.00136	1e-05
293.15	0.8709	0.00123	1e-05
293.15	0.938	0.00112	1e-05
293.15	1	0.00105	1e-05
303.15	0	0.00274	2e-05
303.15	0.1586	0.00235	1e-05
303.15	0.2971	0.00205	1e-05
303.15	0.4067	0.00183	1e-05
303.15	0.5293	0.0016	1e-05
303.15	0.6278	0.00143	1e-05
303.15	0.7158	0.00129	1e-05
303.15	0.7981	0.00117	1e-05
303.15	0.8709	0.00106	1e-05
303.15	0.938	0.000976	7e-06
303.15	1	0.00091	7e-06
313.15	0	0.00222	1e-05
313.15	0.1586	0.00194	1e-05
313.15	0.2971	0.00171	1e-05
313.15	0.4067	0.00154	1e-05
313.15	0.5293	0.00136	1e-05
313.15	0.6278	0.00123	1e-05
313.15	0.7158	0.00111	1e-05
313.15	0.7981	0.00101	1e-05
313.15	0.8709	0.000932	7e-06
313.15	0.938	0.000859	7e-06
313.15	1	0.000801	6e-06
323.15	0	0.00184	1e-05
323.15	0.1586	0.00162	1e-05
323.15	0.2971	0.00144	1e-05
323.15	0.4067	0.00131	1e-05
323.15	0.5293	0.00117	1e-05
323.15	0.6278	0.00106	1e-05
323.15	0.7158	0.000972	7e-06
323.15	0.7981	0.000891	7e-06
323.15	0.8709	0.000822	6e-06
323.15	0.938	0.000761	6e-06
323.15	1	0.000713	6e-06
333.15	0	0.00155	1e-05
333.15	0.1586	0.00137	1e-05
333.15	0.2971	0.00124	1e-05
333.15	0.4067	0.00113	1e-05
333.15	0.5293	0.00102	1e-05
333.15	0.6278	0.000929	7e-06
333.15	0.7158	0.000856	7e-06
333.15	0.7981	0.000787	6e-06
333.15	0.8709	0.000731	6e-06
333.15	0.938	0.00068	6e-06
333.15	1	0.000636	6e-06
343.15	0	0.00132	1e-05
343.15	0.1586	0.00118	1e-05
343.15	0.2971	0.00107	1e-05
343.15	0.4067	0.000986	7e-06
343.15	0.5293	0.000893	7e-06
343.15	0.6278	0.000821	7e-06
343.15	0.7158	0.000757	6e-06
343.15	0.7981	0.000702	6e-06
343.15	0.8709	0.000653	6e-06
343.15	0.938	0.00061	6e-06
343.15	1	0.000571	6e-06
353.15	0	0.00114	1e-05
353.15	0.1586	0.00103	1e-05
353.15	0.2971	0.000939	7e-06
353.15	0.4067	0.000868	7e-06
353.15	0.5293	0.000792	6e-06
353.15	0.6278	0.000731	6e-06
353.15	0.7158	0.000677	6e-06
353.15	0.7981	0.00063	6e-06
353.15	0.8709	0.000588	6e-06
353.15	0.938	0.00055	6e-06
353.15	1	0.000516	6e-06
363.15	0	0.001	1e-05
363.15	0.1586	0.00091	7e-06
363.15	0.2971	0.000833	7e-06
363.15	0.4067	0.000773	6e-06
363.15	0.5293	0.000708	6e-06
363.15	0.6278	0.000656	6e-06
363.15	0.7158	0.00061	6e-06
363.15	0.7981	0.000569	6e-06
363.15	0.8709	0.000532	6e-06
363.15	0.938	0.0005	5e-06
363.15	1	0.000469	5e-06
373.15	0	0.000887	7e-06
373.15	0.1586	0.000811	7e-06
373.15	0.2971	0.000746	6e-06
373.15	0.4067	0.000695	6e-06
373.15	0.5293	0.000639	6e-06
373.15	0.6278	0.000594	6e-06
373.15	0.7158	0.000553	6e-06
373.15	0.7981	0.000517	6e-06
373.15	0.8709	0.000484	5e-06
373.15	0.938	0.000456	5e-06
373.15	1	0.00043	5e-06

System: butylbenzene + hexadecane; phases: Liquid, Gas
Fixed: Temperature, K = 294.5
Property: Surface tension liquid-gas, N/m (Liquid); method: Pendant drop shape
Mole fraction of butylbenzene	Surface tension liquid-gas, N/m	uncertainty
0.1586	0.0275	0.0004
0.2971	0.0273	0.0004
0.4067	0.0276	0.0004
0.5293	0.0278	0.0004
0.6278	0.0279	0.0004
0.7158	0.028	0.0004
0.7981	0.0282	0.0004
0.8709	0.0284	0.0004
0.938	0.0287	0.0004

System: butylbenzene + hexadecane; phases: Liquid
Fixed: Pressure, kPa = 100
Fixed: Frequency, MHz = 3
Property: Speed of sound, m/s (Liquid); method: Sing-around technique in a fixed-path interferometer
Temperature, K	Mole fraction of butylbenzene	Speed of sound, m/s	uncertainty
293.15	0	1357.3	1.1
303.15	0	1320	1
313.15	0	1283.4	1
323.15	0	1247.5	1
333.15	0	1212.1	1
293.15	1	1353.7	0.9
303.15	1	1314.9	0.9
313.15	1	1276.6	0.9
323.15	1	1238.7	0.8
333.15	1	1201.4	0.8
293.15	0.1586	1353.2	1
303.15	0.1586	1316.1	1
313.15	0.1586	1279.5	1
323.15	0.1586	1243.6	1
333.15	0.1586	1208.2	1
293.15	0.2971	1350.1	1
303.15	0.2971	1313	1
313.15	0.2971	1276.4	1
323.15	0.2971	1240.4	1
333.15	0.2971	1204.9	0.9
293.15	0.4067	1347.8	1
303.15	0.4067	1310.7	0.9
313.15	0.4067	1274.1	0.9
323.15	0.4067	1238	0.9
333.15	0.4067	1202.5	0.9
293.15	0.5293	1346	0.9
303.15	0.5293	1308.8	0.9
313.15	0.5293	1272.1	0.9
323.15	0.5293	1235.9	0.9
333.15	0.5293	1200.2	0.9
293.15	0.6278	1345	0.9
303.15	0.6278	1307.7	0.9
313.15	0.6278	1270.8	0.9
323.15	0.6278	1234.4	0.9
333.15	0.6278	1198.6	0.9
293.15	0.7158	1345.1	0.9
303.15	0.7158	1307.6	0.9
313.15	0.7158	1270.5	0.9
323.15	0.7158	1233.9	0.9
333.15	0.7158	1197.8	0.9
293.15	0.7981	1346.3	0.9
303.15	0.7981	1308.5	0.9
313.15	0.7981	1271.1	0.9
323.15	0.7981	1234.3	0.9
333.15	0.7981	1197.9	0.9
293.15	0.8709	1347.8	0.9
303.15	0.8709	1309.7	0.9
313.15	0.8709	1272.1	0.9
323.15	0.8709	1235	0.9
333.15	0.8709	1198.3	0.8
293.15	0.938	1350.4	0.9
303.15	0.938	1312	0.9
313.15	0.938	1274	0.9
323.15	0.938	1236.6	0.8
333.15	0.938	1199.6	0.8

System: butylbenzene + heptadecane; phases: Liquid
Fixed: Pressure, kPa = 102
Property: Mass density, kg/m3 (Liquid); method: Vibrating tube method
Temperature, K	Mole fraction of butylbenzene	Mass density, kg/m3	uncertainty
303.15	0	771.02	0.13
303.15	0.1662	777.94	0.13
303.15	0.3047	784.91	0.13
303.15	0.4587	794.08	0.13
303.15	0.6419	808.08	0.12
303.15	0.7515	818.66	0.12
303.15	0.8742	833.23	0.12
303.15	1	852.49	0.11
313.15	0	764.16	0.13
313.15	0.1662	771	0.13
313.15	0.3047	777.87	0.13
313.15	0.4587	786.92	0.13
313.15	0.6419	800.73	0.12
313.15	0.7515	811.14	0.12
313.15	0.8742	825.49	0.12
313.15	1	844.43	0.11
323.15	0	757.3	0.14
323.15	0.1662	764.03	0.13
323.15	0.3047	770.84	0.13
323.15	0.4587	779.75	0.13
323.15	0.6419	793.34	0.13
323.15	0.7515	803.6	0.12
323.15	0.8742	817.71	0.12
323.15	1	836.34	0.11
333.15	0	750.45	0.14
333.15	0.1662	757.11	0.14
333.15	0.3047	763.79	0.13
333.15	0.4587	772.56	0.13
333.15	0.6419	785.94	0.13
333.15	0.7515	796.02	0.13
333.15	0.8742	809.9	0.12
333.15	1	828.21	0.12
343.15	0	743.7	0.23
343.15	0.1662	750.12	0.23
343.15	0.3047	756.65	0.23
343.15	0.4587	765.4	0.23
343.15	0.6419	778.47	0.23
343.15	0.7515	788.4	0.23
343.15	0.8742	802	0.23
343.15	1	819.9	0.22
353.15	0	736.8	0.2
353.15	0.1662	743.1	0.2
353.15	0.3047	749.6	0.2
353.15	0.4587	758.1	0.2
353.15	0.6419	771	0.2
353.15	0.7515	780.7	0.2
353.15	0.8742	794.1	0.2
353.15	1	811.7	0.2
363.15	0	729.8	0.2
363.15	0.1662	736.1	0.2
363.15	0.3047	742.4	0.2
363.15	0.4587	750.8	0.2
363.15	0.6419	763.4	0.2
363.15	0.7515	773	0.2
363.15	0.8742	786.1	0.2
363.15	1	803.4	0.2
373.15	0	723	0.2
373.15	0.1662	729	0.2
373.15	0.3047	735.2	0.2
373.15	0.4587	743.5	0.2
373.15	0.6419	755.8	0.2
373.15	0.7515	765.2	0.2
373.15	0.8742	778.1	0.2
373.15	1	795	0.2

System: butylbenzene + heptadecane; phases: Liquid
Fixed: Pressure, kPa = 102
Property: Viscosity, Pa*s (Liquid); method: Concentric cylinders viscometry
Temperature, K	Mole fraction of butylbenzene	Viscosity, Pa*s	uncertainty
303.15	0	0.00325	2e-05
303.15	0.1662	0.00273	1e-05
303.15	0.3047	0.00235	1e-05
303.15	0.4587	0.00196	1e-05
303.15	0.6419	0.00156	1e-05
303.15	0.7515	0.00135	1e-05
303.15	0.8742	0.00113	1e-05
303.15	1	0.00091	7e-06
313.15	0	0.00261	1e-05
313.15	0.1662	0.00223	1e-05
313.15	0.3047	0.00194	1e-05
313.15	0.4587	0.00164	1e-05
313.15	0.6419	0.00132	1e-05
313.15	0.7515	0.00115	1e-05
313.15	0.8742	0.000967	7e-06
313.15	1	0.000801	6e-06
323.15	0	0.00214	1e-05
323.15	0.1662	0.00185	1e-05
323.15	0.3047	0.00162	1e-05
323.15	0.4587	0.00139	1e-05
323.15	0.6419	0.00114	1e-05
323.15	0.7515	0.001	1e-05
323.15	0.8742	0.000844	7e-06
323.15	1	0.000713	6e-06
333.15	0	0.00179	1e-05
333.15	0.1662	0.00156	1e-05
333.15	0.3047	0.00138	1e-05
333.15	0.4587	0.0012	1e-05
333.15	0.6419	0.000981	7e-06
333.15	0.7515	0.000865	7e-06
333.15	0.8742	0.000747	6e-06
333.15	1	0.000636	6e-06
343.15	0	0.00152	1e-05
343.15	0.1662	0.00133	1e-05
343.15	0.3047	0.00119	1e-05
343.15	0.4587	0.00104	1e-05
343.15	0.6419	0.000861	7e-06
343.15	0.7515	0.000768	6e-06
343.15	0.8742	0.000671	6e-06
343.15	1	0.000571	6e-06
353.15	0	0.0013	1e-05
353.15	0.1662	0.00116	1e-05
353.15	0.3047	0.00104	1e-05
353.15	0.4587	0.000906	7e-06
353.15	0.6419	0.000763	6e-06
353.15	0.7515	0.000684	6e-06
353.15	0.8742	0.000602	6e-06
353.15	1	0.000516	6e-06
363.15	0	0.00114	1e-05
363.15	0.1662	0.00101	1e-05
363.15	0.3047	0.000909	7e-06
363.15	0.4587	0.000805	6e-06
363.15	0.6419	0.000687	6e-06
363.15	0.7515	0.000623	6e-06
363.15	0.8742	0.000546	6e-06
363.15	1	0.000469	5e-06
373.15	0	0.001	1e-05
373.15	0.1662	0.000891	7e-06
373.15	0.3047	0.000811	6e-06
373.15	0.4587	0.000725	6e-06
373.15	0.6419	0.000628	6e-06
373.15	0.7515	0.000567	6e-06
373.15	0.8742	0.000499	5e-06
373.15	1	0.00043	5e-06

System: butylbenzene + heptadecane; phases: Liquid, Gas
Fixed: Temperature, K = 294.5
Property: Surface tension liquid-gas, N/m (Liquid); method: Pendant drop shape
Mole fraction of butylbenzene	Surface tension liquid-gas, N/m	uncertainty
0.1662	0.0276	0.0004
0.3047	0.0277	0.0004
0.4587	0.028	0.0004
0.6419	0.0282	0.0004
0.7515	0.0283	0.0004
0.8742	0.0292	0.0004

System: butylbenzene + heptadecane; phases: Liquid
Fixed: Pressure, kPa = 100
Fixed: Frequency, MHz = 3
Property: Speed of sound, m/s (Liquid); method: Sing-around technique in a fixed-path interferometer
Temperature, K	Mole fraction of butylbenzene	Speed of sound, m/s	uncertainty
303.15	0	1330.9	1.2
313.15	0	1294.5	1.1
323.15	0	1258.8	0.9
333.15	0	1223.8	0.8
303.15	1	1314.9	0.9
313.15	1	1276.6	0.9
323.15	1	1238.7	0.8
333.15	1	1201.4	0.8
303.15	0.1662	1325.3	0.9
313.15	0.1662	1289	0.9
323.15	0.1662	1253.3	0.8
333.15	0.1662	1218.1	0.8
303.15	0.3047	1321.4	1
313.15	0.3047	1285	0.9
323.15	0.3047	1249.2	0.8
333.15	0.3047	1214	0.8
303.15	0.4587	1316.9	0.9
313.15	0.4587	1280.3	0.9
323.15	0.4587	1244.5	0.8
333.15	0.4587	1209.1	0.8
303.15	0.6419	1312.4	0.9
313.15	0.6419	1275.9	0.9
323.15	0.6419	1239.7	0.8
333.15	0.6419	1204	0.8
303.15	0.7515	1311.3	1
313.15	0.7515	1274.1	0.9
323.15	0.7515	1237.6	0.8
333.15	0.7515	1201.6	0.8
303.15	0.8742	1311	0.9
313.15	0.8742	1273.6	0.9
323.15	0.8742	1236.6	0.8
333.15	0.8742	1200.1	0.8
