Measured thermophysical data. Density, Viscosity, Speed of Sound, Bulk Modulus, Surface Tension, and Flash Point of Binary Mixtures of n-Hexylbenzene (1) or n-Butylbenzene (1) in 2,2,4,6,6-Pentamethylheptane (2) or 2,2,4,4,6,8,8-Heptamethylnonane (2) at 0.1 MPa
Source: J. Chem. Eng. Data, 2018, 10.1021/acs.jced.8b00387
Compound 1: 2,2,4,6,6-pentamethylheptane, C12H26, InChI=1S/C12H26/c1-10(8-11(2,3)4)9-12(5,6)7/h10H,8-9H2,1-7H3, purity 99.1%
Compound 2: 2,2,4,4,6,8,8-heptamethylnonane, C16H34, InChI=1S/C16H34/c1-13(10-14(2,3)4)11-16(8,9)12-15(5,6)7/h13H,10-12H2,1-9H3, purity 99.4%
Compound 3: hexylbenzene, C12H18, InChI=1S/C12H18/c1-2-3-4-6-9-12-10-7-5-8-11-12/h5,7-8,10-11H,2-4,6,9H2,1H3, purity 98.8%
Compound 4: butylbenzene, C10H14, InChI=1S/C10H14/c1-2-3-7-10-8-5-4-6-9-10/h4-6,8-9H,2-3,7H2,1H3, purity 99.6%

System: 2,2,4,6,6-pentamethylheptane; phases: Liquid
Fixed: Pressure, kPa = 102
Property: Mass density, kg/m3 (Liquid); method: Vibrating tube method
Temperature, K	Mass density, kg/m3	uncertainty
253.15	775.8	2
288.15	748.8	0.7
293.15	745.2	0.7
303.15	737.9	0.7
313.15	730.6	0.7
323.15	723.2	0.7
333.15	715.8	0.7

System: 2,2,4,6,6-pentamethylheptane; phases: Liquid
Fixed: Pressure, kPa = 102
Property: Viscosity, Pa*s (Liquid); method: Concentric cylinders viscometry
Temperature, K	Viscosity, Pa*s	uncertainty
253.15	0.00308	6e-05
293.15	0.00131	2e-05
303.15	0.00113	2e-05
313.15	0.000955	2.1e-05
323.15	0.000849	2.1e-05
333.15	0.000744	2.1e-05

System: 2,2,4,6,6-pentamethylheptane; phases: Liquid
Fixed: Pressure, kPa = 102
Fixed: Frequency, MHz = 3
Property: Speed of sound, m/s (Liquid); method: Single path-length method
Temperature, K	Speed of sound, m/s	uncertainty
288.15	1223.7	1.3
293.15	1203.8	1.3
303.15	1164.7	1.3
313.15	1126.5	1.3
323.15	1089.1	1.3
333.15	1052.7	1.3

System: 2,2,4,6,6-pentamethylheptane; phases: Liquid, Gas
Property: Surface tension liquid-gas, N/m (Liquid); method: Pendant drop shape
Temperature, K	Surface tension liquid-gas, N/m	uncertainty
294	0.0221	0.0004

System: 2,2,4,4,6,8,8-heptamethylnonane; phases: Liquid
Fixed: Pressure, kPa = 102
Property: Mass density, kg/m3 (Liquid); method: Vibrating tube method
Temperature, K	Mass density, kg/m3	uncertainty
253.15	811.4	2
288.15	787.76	0.71
293.15	784.41	0.71
303.15	777.73	0.72
313.15	770.99	0.72
323.15	764.27	0.72
333.15	757.53	0.72

System: 2,2,4,4,6,8,8-heptamethylnonane; phases: Liquid
Fixed: Pressure, kPa = 102
Property: Viscosity, Pa*s (Liquid); method: Concentric cylinders viscometry
Temperature, K	Viscosity, Pa*s	uncertainty
253.15	0.01409	0.00019
293.15	0.00375	3e-05
303.15	0.00297	3e-05
313.15	0.0024	2e-05
323.15	0.00197	2e-05
333.15	0.00165	2e-05

System: 2,2,4,4,6,8,8-heptamethylnonane; phases: Liquid
Fixed: Pressure, kPa = 102
Fixed: Frequency, MHz = 3
Property: Speed of sound, m/s (Liquid); method: Single path-length method
Temperature, K	Speed of sound, m/s	uncertainty
288.15	1305.1	1.2
293.15	1285.9	1.2
303.15	1248.3	1.2
313.15	1211.7	1.2
323.15	1175.9	1.2
333.15	1141.3	1.2

System: 2,2,4,4,6,8,8-heptamethylnonane; phases: Liquid, Gas
Property: Surface tension liquid-gas, N/m (Liquid); method: Pendant drop shape
Temperature, K	Surface tension liquid-gas, N/m	uncertainty
294.7	0.0242	0.0003

System: hexylbenzene; phases: Liquid
Fixed: Pressure, kPa = 102
Property: Mass density, kg/m3 (Liquid); method: Vibrating tube method
Temperature, K	Mass density, kg/m3	uncertainty
253.15	889.1	2
288.15	862.4	0.8
293.15	858.6	0.8
303.15	851	0.8
313.15	843.4	0.8
323.15	835.8	0.8
333.15	828.2	0.8

System: hexylbenzene; phases: Liquid
Fixed: Pressure, kPa = 102
Property: Viscosity, Pa*s (Liquid); method: Concentric cylinders viscometry
Temperature, K	Viscosity, Pa*s	uncertainty
253.15	0.00456	7e-05
293.15	0.00164	2e-05
303.15	0.00139	2e-05
313.15	0.00117	2e-05
323.15	0.00103	2e-05
333.15	0.0009	2e-05

System: hexylbenzene; phases: Liquid
Fixed: Pressure, kPa = 102
Fixed: Frequency, MHz = 3
Property: Speed of sound, m/s (Liquid); method: Single path-length method
Temperature, K	Speed of sound, m/s	uncertainty
288.15	1395.8	1.6
293.15	1376	1.6
303.15	1338.1	1.6
313.15	1301.1	1.6
323.15	1264.7	1.6
333.15	1229.4	1.6

System: hexylbenzene; phases: Liquid, Gas
Property: Surface tension liquid-gas, N/m (Liquid); method: Pendant drop shape
Temperature, K	Surface tension liquid-gas, N/m	uncertainty
295	0.0293	0.0004

System: hexylbenzene; phases: Liquid
Fixed: Pressure, kPa = 102
Property: Mass density, kg/m3 (Liquid); method: Vibrating tube method
Temperature, K	Mass density, kg/m3	uncertainty
253.15	888.9	0.4
288.15	862.3	0.4
293.15	858.5	0.4
303.15	850.9	0.4
313.15	843.3	0.4
323.15	845.7	0.4
333.15	828.1	0.4

System: hexylbenzene; phases: Liquid
Fixed: Pressure, kPa = 102
Property: Viscosity, Pa*s (Liquid); method: Concentric cylinders viscometry
Temperature, K	Viscosity, Pa*s	uncertainty
253.15	0.00463	4e-05
293.15	0.00166	2e-05
303.15	0.00141	1e-05
313.15	0.00119	1e-05
323.15	0.00104	1e-05

System: hexylbenzene; phases: Liquid
Fixed: Pressure, kPa = 102
Fixed: Frequency, MHz = 3
Property: Speed of sound, m/s (Liquid); method: Single path-length method
Temperature, K	Speed of sound, m/s	uncertainty
288.15	1395.6	1.6
293.15	1376.5	1.6
303.15	1338.7	1.6
313.15	1301.6	1.6
323.15	1265.3	1.6
333.15	1229.8	1.6

System: butylbenzene; phases: Liquid
Fixed: Pressure, kPa = 102
Property: Mass density, kg/m3 (Liquid); method: Vibrating tube method
Temperature, K	Mass density, kg/m3	uncertainty
253.15	892.6	2
288.15	864.47	0.71
293.15	860.17	0.71
303.15	852.13	0.71
313.15	844.07	0.71
323.15	835.98	0.71
333.15	827.86	0.71

System: butylbenzene; phases: Liquid
Fixed: Pressure, kPa = 102
Property: Viscosity, Pa*s (Liquid); method: Concentric cylinders viscometry
Temperature, K	Viscosity, Pa*s	uncertainty
253.15	0.00221	6e-05
293.15	0.001	2e-05
303.15	0.00088	2.1e-05
313.15	0.000775	2.1e-05
323.15	0.000687	2.1e-05
333.15	0.000615	2.1e-05

System: butylbenzene; phases: Liquid
Fixed: Pressure, kPa = 102
Fixed: Frequency, MHz = 3
Property: Speed of sound, m/s (Liquid); method: Single path-length method
Temperature, K	Speed of sound, m/s	uncertainty
288.15	1373.7	1.1
293.15	1353.2	1.1
303.15	1314.3	1.1
313.15	1276.1	1.1
323.15	1238.4	1.1
333.15	1201.5	1.1

System: butylbenzene; phases: Liquid, Gas
Property: Surface tension liquid-gas, N/m (Liquid); method: Pendant drop shape
Temperature, K	Surface tension liquid-gas, N/m	uncertainty
295	0.029	0.0003

System: hexylbenzene + 2,2,4,6,6-pentamethylheptane; phases: Liquid
Fixed: Pressure, kPa = 102
Property: Mass density, kg/m3 (Liquid); method: Vibrating tube method
Temperature, K	Mole fraction of hexylbenzene	Mass density, kg/m3	uncertainty
253.15	0.1	784.1	2
288.15	0.1	758.47	0.73
293.15	0.1	754.83	0.73
303.15	0.1	747.53	0.73
313.15	0.1	740.2	0.73
323.15	0.1	732.84	0.73
333.15	0.1	725.44	0.73
253.15	0.2065	795	2
288.15	0.2065	769.17	0.73
293.15	0.2065	765.51	0.73
303.15	0.2065	758.19	0.73
313.15	0.2065	750.84	0.73
323.15	0.2065	743.45	0.73
333.15	0.2065	736.04	0.73
253.15	0.3009	804.9	2
288.15	0.3009	778.97	0.73
293.15	0.3009	775.3	0.73
303.15	0.3009	767.96	0.73
313.15	0.3009	760.6	0.73
323.15	0.3009	753.21	0.73
333.15	0.3009	745.77	0.73
253.15	0.3968	815.2	2
288.15	0.3968	789.42	0.73
293.15	0.3968	785.5	0.73
303.15	0.3968	778.14	0.73
313.15	0.3968	770.75	0.73
323.15	0.3968	763.34	0.73
333.15	0.3968	755.89	0.73
253.15	0.5001	826.8	2
288.15	0.5001	800.56	0.74
293.15	0.5001	796.87	0.74
303.15	0.5001	789.48	0.74
313.15	0.5001	782.06	0.74
323.15	0.5001	774.63	0.74
333.15	0.5001	767.15	0.74
253.15	0.6	838.5	2
288.15	0.6	812.08	0.74
293.15	0.6	808.37	0.74
303.15	0.6	800.94	0.74
313.15	0.6	793.5	0.74
323.15	0.6	786.03	0.74
333.15	0.6	778.54	0.74
253.15	0.6998	850.5	2
288.15	0.6998	824	0.74
293.15	0.6998	820.27	0.74
303.15	0.6998	812.8	0.74
313.15	0.6998	805.33	0.74
323.15	0.6998	797.82	0.74
333.15	0.6998	790.29	0.74
253.15	0.7997	863.5	2
288.15	0.7997	836.31	0.74
293.15	0.7997	832.57	0.74
303.15	0.7997	825.06	0.74
313.15	0.7997	817.55	0.74
323.15	0.7997	810.01	0.74
333.15	0.7997	802.45	0.74
253.15	0.8999	875.7	2
288.15	0.8999	849.13	0.75
293.15	0.8999	845.36	0.75
303.15	0.8999	837.82	0.75
313.15	0.8999	830.26	0.75
323.15	0.8999	822.68	0.75
333.15	0.8999	815.08	0.75

System: hexylbenzene + 2,2,4,6,6-pentamethylheptane; phases: Liquid
Fixed: Pressure, kPa = 102
Fixed: Frequency, MHz = 3
Property: Speed of sound, m/s (Liquid); method: Single path-length method
Temperature, K	Mole fraction of hexylbenzene	Speed of sound, m/s	uncertainty
288.15	0.1	1238.9	1.1
293.15	0.1	1219	1.1
303.15	0.1	1180	1.1
313.15	0.1	1141.9	1.1
323.15	0.1	1104.7	1.1
333.15	0.1	1068.5	1.1
288.15	0.2065	1255.2	1.1
293.15	0.2065	1235.7	1.1
303.15	0.2065	1197.2	1.1
313.15	0.2065	1159.3	1.1
323.15	0.2065	1122.2	1.1
333.15	0.2065	1085.8	1.1
288.15	0.3009	1270.3	1.2
293.15	0.3009	1250.6	1.2
303.15	0.3009	1211.8	1.2
313.15	0.3009	1174	1.2
323.15	0.3009	1136.9	1.2
333.15	0.3009	1101	1.2
288.15	0.3968	1286.2	1.2
293.15	0.3968	1266	1.2
303.15	0.3968	1227.4	1.2
313.15	0.3968	1189.7	1.2
323.15	0.3968	1152.8	1.2
333.15	0.3968	1117	1.2
288.15	0.5004	1302.9	1.2
293.15	0.5004	1283.3	1.2
303.15	0.5004	1244.8	1.2
313.15	0.5004	1207.2	1.2
323.15	0.5004	1170.4	1.2
333.15	0.5004	1134.6	1.2
288.15	0.6	1320.1	1.2
293.15	0.6	1300.6	1.2
303.15	0.6	1262.2	1.2
313.15	0.6	1224.7	1.2
323.15	0.6	1188.1	1.2
333.15	0.6	1152.5	1.2
288.15	0.6998	1338	1.3
293.15	0.6998	1318.6	1.3
303.15	0.6998	1280.3	1.3
313.15	0.6998	1243	1.3
323.15	0.6998	1206.4	1.3
333.15	0.6998	1170.8	1.3
288.15	0.7997	1356.4	1.3
293.15	0.7997	1337.1	1.3
303.15	0.7997	1299	1.3
313.15	0.7997	1261.7	1.3
323.15	0.7997	1225.2	1.3
333.15	0.7997	1189.6	1.3
288.15	0.8999	1375.5	1.3
293.15	0.8999	1356.2	1.3
303.15	0.8999	1318.2	1.3
313.15	0.8999	1281	1.3
323.15	0.8999	1244.6	1.3
333.15	0.8999	1209.1	1.3

System: hexylbenzene + 2,2,4,6,6-pentamethylheptane; phases: Liquid
Fixed: Pressure, kPa = 102
Property: Viscosity, Pa*s (Liquid); method: Concentric cylinders viscometry
Temperature, K	Mole fraction of hexylbenzene	Viscosity, Pa*s	uncertainty
253.15	0.1	0.003	6e-05
293.15	0.1	0.00131	2e-05
303.15	0.1	0.00112	2e-05
313.15	0.1	0.000957	2.1e-05
323.15	0.1	0.000848	2.1e-05
333.15	0.1	0.000749	2.1e-05
253.15	0.2065	0.00303	6e-05
293.15	0.2065	0.00131	2e-05
303.15	0.2065	0.00113	2e-05
313.15	0.2065	0.000962	2.1e-05
323.15	0.2065	0.000853	2.1e-05
333.15	0.2065	0.000753	2.1e-05
253.15	0.3009	0.00308	6e-05
293.15	0.3009	0.00131	2e-05
303.15	0.3009	0.00114	2e-05
313.15	0.3009	0.000967	2.2e-05
323.15	0.3009	0.000861	2.1e-05
333.15	0.3009	0.000758	2.1e-05
253.15	0.3968	0.00319	6e-05
293.15	0.3968	0.00135	2e-05
303.15	0.3968	0.00115	2e-05
313.15	0.3968	0.000979	2.2e-05
323.15	0.3968	0.000873	2.1e-05
333.15	0.3968	0.000768	2.1e-05
253.15	0.5004	0.00331	6e-05
293.15	0.5004	0.00136	2e-05
303.15	0.5004	0.00117	2e-05
313.15	0.5004	0.001	2e-05
323.15	0.5004	0.000889	2.1e-05
333.15	0.5004	0.000783	2.1e-05
253.15	0.6	0.00347	6e-05
293.15	0.6	0.0014	2e-05
303.15	0.6	0.0012	2e-05
313.15	0.6	0.00102	2e-05
323.15	0.6	0.000911	2.1e-05
333.15	0.6	0.000803	2.1e-05
253.15	0.6998	0.0037	7e-05
293.15	0.6998	0.00146	2e-05
303.15	0.6998	0.00125	2e-05
313.15	0.6998	0.00106	2e-05
323.15	0.6998	0.000943	2.2e-05
333.15	0.6998	0.000828	2.1e-05
253.15	0.7997	0.00393	7e-05
293.15	0.7997	0.00151	3e-05
303.15	0.7997	0.00129	2e-05
313.15	0.7997	0.00109	2e-05
323.15	0.7997	0.000964	2.2e-05
333.15	0.7997	0.000844	2.1e-05
253.15	0.8999	0.0042	7e-05
293.15	0.8999	0.00156	2e-05
303.15	0.8999	0.00133	2e-05
313.15	0.8999	0.00112	2e-05
323.15	0.8999	0.000992	2.2e-05
333.15	0.8999	0.00087	2.1e-05

System: hexylbenzene + 2,2,4,6,6-pentamethylheptane; phases: Liquid, Gas
Fixed: Temperature, K = 294
Property: Surface tension liquid-gas, N/m (Liquid); method: Pendant drop shape
Mole fraction of hexylbenzene	Surface tension liquid-gas, N/m	uncertainty
0.1	0.0219	0.0003
0.2065	0.0225	0.0003
0.3009	0.0231	0.0003
0.3968	0.0235	0.0003
0.5001	0.0241	0.0004
0.6	0.0247	0.0003
0.6998	0.0255	0.0004
0.7997	0.0265	0.0004
0.8999	0.0277	0.0004

System: butylbenzene + 2,2,4,4,6,8,8-heptamethylnonane; phases: Liquid
Fixed: Pressure, kPa = 102
Property: Mass density, kg/m3 (Liquid); method: Vibrating tube method
Mole fraction of butylbenzene	Temperature, K	Mass density, kg/m3	uncertainty
0.1007	253.15	815.9	2
0.1007	288.15	791.93	0.71
0.1007	293.15	788.54	0.71
0.1007	303.15	781.75	0.71
0.1007	313.15	774.96	0.71
0.1007	323.15	768.15	0.72
0.1007	333.15	761.33	0.72
0.2007	253.15	820.7	2
0.2007	288.15	796.54	0.71
0.2007	293.15	793.11	0.71
0.2007	303.15	786.24	0.71
0.2007	313.15	779.36	0.71
0.2007	323.15	772.47	0.71
0.2007	333.15	765.57	0.71
0.3	253.15	826.1	2
0.3	288.15	801.59	0.71
0.3	293.15	798.11	0.71
0.3	303.15	791.16	0.71
0.3	313.15	784.19	0.71
0.3	323.15	777.21	0.71
0.3	333.15	770.2	0.71
0.3999	253.15	832.1	2
0.3999	288.15	807.31	0.71
0.3999	293.15	803.78	0.71
0.3999	303.15	796.72	0.71
0.3999	313.15	789.65	0.71
0.3999	323.15	782.56	0.71
0.3999	333.15	775.45	0.71
0.4998	253.15	838.8	2
0.4998	288.15	813.73	0.71
0.4998	293.15	810.17	0.71
0.4998	303.15	803	0.71
0.4998	313.15	795.81	0.71
0.4998	323.15	788.61	0.71
0.4998	333.15	781.38	0.71
0.5997	253.15	846.5	2
0.5997	288.15	820.89	0.71
0.5997	293.15	817.24	0.71
0.5997	303.15	809.95	0.71
0.5997	313.15	802.64	0.71
0.5997	323.15	795.31	0.71
0.5997	333.15	787.95	0.71
0.7001	253.15	855.7	2
0.7001	288.15	829.45	0.71
0.7001	293.15	825.74	0.71
0.7001	303.15	818.29	0.71
0.7001	313.15	810.83	0.71
0.7001	323.15	803.34	0.71
0.7001	333.15	795.82	0.71
0.7998	253.15	865.8	2
0.7998	288.15	839.17	0.71
0.7998	293.15	835.37	0.71
0.7998	303.15	827.77	0.71
0.7998	313.15	820.15	0.71
0.7998	323.15	812.49	0.71
0.7998	333.15	804.8	0.71
0.8992	253.15	878.5	2
0.8992	288.15	850.51	0.71
0.8992	293.15	846.62	0.71
0.8992	303.15	838.82	0.71
0.8992	313.15	831.01	0.71
0.8992	323.15	823.15	0.71
0.8992	333.15	815.26	0.71

System: butylbenzene + 2,2,4,4,6,8,8-heptamethylnonane; phases: Liquid
Fixed: Pressure, kPa = 102
Fixed: Frequency, MHz = 3
Property: Speed of sound, m/s (Liquid); method: Single path-length method
Temperature, K	Mole fraction of butylbenzene	Speed of sound, m/s	uncertainty
288.15	0.1007	1308.2	0.8
293.15	0.1007	1289.3	0.8
303.15	0.1007	1251.9	0.8
313.15	0.1007	1215.2	0.8
323.15	0.1007	1179.3	0.8
333.15	0.1007	1144.1	0.8
288.15	0.2007	1311.6	0.8
293.15	0.2007	1292.7	0.8
303.15	0.2007	1255.2	0.8
313.15	0.2007	1218.4	0.8
323.15	0.2007	1182.3	0.8
333.15	0.2007	1147	0.8
288.15	0.3	1315.6	0.8
293.15	0.3	1296.6	0.8
303.15	0.3	1258.9	0.8
313.15	0.3	1222	0.8
323.15	0.3	1185.8	0.8
333.15	0.3	1150.3	0.8
288.15	0.3999	1320.4	0.8
293.15	0.3999	1301.1	0.8
303.15	0.3999	1263.3	0.8
313.15	0.3999	1226.2	0.8
323.15	0.3999	1189.8	0.8
333.15	0.3999	1154.1	0.8
288.15	0.4998	1325.5	0.8
293.15	0.4998	1306.3	0.8
303.15	0.4998	1268.3	0.8
313.15	0.4998	1231.1	0.8
323.15	0.4998	1194.5	0.8
333.15	0.4998	1158.8	0.8
288.15	0.5997	1331.9	0.8
293.15	0.5997	1312.5	0.8
303.15	0.5997	1274.4	0.8
313.15	0.5997	1237	0.8
323.15	0.5997	1200.2	0.8
333.15	0.5997	1164.2	0.8
288.15	0.7001	1339.5	0.8
293.15	0.7001	1320.1	0.8
303.15	0.7001	1281.9	0.8
313.15	0.7001	1244.2	0.8
323.15	0.7001	1207.2	0.8
333.15	0.7001	1170.9	0.8
288.15	0.7998	1348.9	0.8
293.15	0.7998	1329.1	0.8
303.15	0.7998	1290.3	0.8
313.15	0.7998	1252.3	0.8
323.15	0.7998	1215.1	0.7
333.15	0.7998	1178.9	0.7
288.15	0.8992	1359.8	0.7
293.15	0.8992	1340	0.7
303.15	0.8992	1300.9	0.7
313.15	0.8992	1262.7	0.7
323.15	0.8992	1225.2	0.7
333.15	0.8992	1188.7	0.7

System: butylbenzene + 2,2,4,4,6,8,8-heptamethylnonane; phases: Liquid
Fixed: Pressure, kPa = 102
Property: Viscosity, Pa*s (Liquid); method: Concentric cylinders viscometry
Temperature, K	Mole fraction of butylbenzene	Viscosity, Pa*s	uncertainty
253.15	0.1007	0.01106	8e-05
293.15	0.1007	0.00322	3e-05
303.15	0.1007	0.00258	2e-05
313.15	0.1007	0.00211	2e-05
323.15	0.1007	0.00176	2e-05
333.15	0.1007	0.00149	2e-05
253.15	0.2007	0.00894	7e-05
293.15	0.2007	0.00277	3e-05
303.15	0.2007	0.00225	2e-05
313.15	0.2007	0.00186	2e-05
323.15	0.2007	0.00156	2e-05
333.15	0.2007	0.00133	2e-05
253.15	0.3	0.00729	7e-05
293.15	0.3	0.00241	2e-05
303.15	0.3	0.00197	2e-05
313.15	0.3	0.00164	2e-05
323.15	0.3	0.00139	2e-05
333.15	0.3	0.0012	2e-05
253.15	0.3999	0.00597	7e-05
293.15	0.3999	0.00209	2e-05
303.15	0.3999	0.00173	2e-05
313.15	0.3999	0.00146	2e-05
323.15	0.3999	0.00127	2e-05
333.15	0.3999	0.0011	2e-05
253.15	0.4998	0.00493	6e-05
293.15	0.4998	0.00183	2e-05
303.15	0.4998	0.00155	2e-05
313.15	0.4998	0.0013	2e-05
323.15	0.4998	0.00114	2e-05
333.15	0.4998	0.001	2e-05
253.15	0.5997	0.00412	6e-05
293.15	0.5997	0.0016	2e-05
303.15	0.5997	0.00137	2e-05
313.15	0.5997	0.00116	2e-05
323.15	0.5997	0.00103	2e-05
333.15	0.5997	0.0009	2.1e-05
253.15	0.7001	0.00346	6e-05
293.15	0.7001	0.00141	2e-05
303.15	0.7001	0.00121	2e-05
313.15	0.7001	0.00103	2e-05
323.15	0.7001	0.00092	2.1e-05
333.15	0.7001	0.000812	2.1e-05
253.15	0.7998	0.00296	6e-05
293.15	0.7998	0.00129	2e-05
303.15	0.7998	0.0011	2e-05
313.15	0.7998	0.000957	2.1e-05
323.15	0.7998	0.000831	2.1e-05
333.15	0.7998	0.000736	2.1e-05
253.15	0.8992	0.00259	0.00015
293.15	0.8992	0.00115	2e-05
303.15	0.8992	0.000993	2.1e-05
313.15	0.8992	0.000855	2.1e-05
323.15	0.8992	0.000754	2.1e-05
333.15	0.8992	0.00067	2.1e-05

System: butylbenzene + 2,2,4,4,6,8,8-heptamethylnonane; phases: Liquid, Gas
Fixed: Temperature, K = 295
Property: Surface tension liquid-gas, N/m (Liquid); method: Pendant drop shape
Mole fraction of butylbenzene	Surface tension liquid-gas, N/m	uncertainty
0.1007	0.0243	0.0003
0.2007	0.0246	0.0003
0.3	0.0248	0.0003
0.3999	0.0251	0.0003
0.4998	0.0255	0.0003
0.5997	0.026	0.0003
0.7001	0.0262	0.0003
0.7998	0.0267	0.0003
0.8992	0.0273	0.0003

System: butylbenzene + 2,2,4,6,6-pentamethylheptane; phases: Liquid
Fixed: Pressure, kPa = 102
Property: Mass density, kg/m3 (Liquid); method: Vibrating tube method
Mole fraction of butylbenzene	Temperature, K	Mass density, kg/m3	uncertainty
0.1001	253.15	782.1	2
0.1001	288.15	756.92	0.73
0.1001	293.15	753.25	0.73
0.1001	303.15	745.91	0.73
0.1001	313.15	738.55	0.73
0.1001	323.15	731.16	0.73
0.1001	333.15	723.71	0.73
0.2	253.15	791.5	2
0.2	288.15	765.57	0.72
0.2	293.15	761.88	0.72
0.2	303.15	754.49	0.72
0.2	313.15	747.07	0.72
0.2	323.15	739.61	0.72
0.2	333.15	732.11	0.72
0.3001	253.15	801	2
0.3001	288.15	774.88	0.72
0.3001	293.15	771.17	0.72
0.3001	303.15	763.72	0.72
0.3001	313.15	756.25	0.72
0.3001	323.15	748.74	0.72
0.3001	333.15	741.19	0.72
0.4006	253.15	811.2	2
0.4006	288.15	784.92	0.72
0.4006	293.15	781.17	0.72
0.4006	303.15	773.66	0.72
0.4006	313.15	766.12	0.72
0.4006	323.15	758.55	0.72
0.4006	333.15	750.94	0.72
0.5	253.15	822.2	2
0.5	288.15	795.63	0.72
0.5	293.15	791.85	0.72
0.5	303.15	784.27	0.72
0.5	313.15	776.66	0.72
0.5	323.15	769.02	0.72
0.5	333.15	761.34	0.72
0.6002	253.15	834.1	2
0.6002	288.15	807.34	0.71
0.6002	293.15	803.52	0.71
0.6002	303.15	795.86	0.71
0.6002	313.15	788.17	0.71
0.6002	323.15	780.45	0.72
0.6002	333.15	772.69	0.72
0.6999	253.15	846.8	2
0.6999	288.15	819.87	0.71
0.6999	293.15	816.01	0.71
0.6999	303.15	808.28	0.71
0.6999	313.15	800.51	0.71
0.6999	323.15	792.72	0.71
0.6999	333.15	784.88	0.71
0.8009	253.15	860	2
0.8009	288.15	833.77	0.71
0.8009	293.15	829.8	0.71
0.8009	303.15	821.96	0.71
0.8009	313.15	814.1	0.71
0.8009	323.15	806.2	0.71
0.8009	333.15	798.16	0.71
0.9	253.15	876.1	2
0.9	288.15	848.29	0.71
0.9	293.15	844.33	0.71
0.9	303.15	836.41	0.71
0.9	313.15	828.46	0.71
0.9	323.15	820.47	0.71
0.9	333.15	812.44	0.71

System: butylbenzene + 2,2,4,6,6-pentamethylheptane; phases: Liquid
Fixed: Pressure, kPa = 102
Fixed: Frequency, MHz = 3
Property: Speed of sound, m/s (Liquid); method: Single path-length method
Temperature, K	Mole fraction of butylbenzene	Speed of sound, m/s	uncertainty
288.15	0.1001	1234.1	1
293.15	0.1001	1214.1	1
303.15	0.1001	1175	1
313.15	0.1001	1136.7	1
323.15	0.1001	1099.4	1
333.15	0.1001	1063	1
288.15	0.2	1245.3	1
293.15	0.2	1225.4	1
303.15	0.2	1186.5	1
313.15	0.2	1148.4	1
323.15	0.2	1111	1
333.15	0.2	1074.5	1
288.15	0.3001	1257.1	1
293.15	0.3001	1237.2	1
303.15	0.3001	1198	1
313.15	0.3001	1159.8	1
323.15	0.3001	1122.4	1
333.15	0.3001	1086.1	1
288.15	0.4006	1270	0.9
293.15	0.4006	1250	0.9
303.15	0.4006	1210.8	0.9
313.15	0.4006	1172.6	0.9
323.15	0.4006	1135.1	0.9
333.15	0.4006	1098.7	0.9
288.15	0.5	1283.8	0.9
293.15	0.5	1263.8	0.9
303.15	0.5	1224.6	0.9
313.15	0.5	1186.3	0.9
323.15	0.5	1148.8	0.9
333.15	0.5	1112.3	0.9
288.15	0.6002	1298.7	0.9
293.15	0.6002	1278.9	0.9
303.15	0.6002	1240.1	0.9
313.15	0.6002	1201.9	0.9
323.15	0.6002	1164.4	0.9
333.15	0.6002	1127.7	0.9
288.15	0.6999	1315	0.8
293.15	0.6999	1295	0.8
303.15	0.6999	1255.8	0.8
313.15	0.6999	1217.5	0.8
323.15	0.6999	1179.9	0.8
333.15	0.6999	1143.2	0.8
288.15	0.8009	1332.9	0.8
293.15	0.8009	1312.9	0.8
303.15	0.8009	1274.1	0.8
313.15	0.8009	1235.9	0.8
323.15	0.8009	1198.3	0.8
333.15	0.8009	1161.4	0.8
288.15	0.9	1352.1	0.8
293.15	0.9	1332.1	0.8
303.15	0.9	1292.8	0.8
313.15	0.9	1254.4	0.8
323.15	0.9	1216.8	0.8
333.15	0.9	1180	0.8

System: butylbenzene + 2,2,4,6,6-pentamethylheptane; phases: Liquid
Fixed: Pressure, kPa = 102
Property: Viscosity, Pa*s (Liquid); method: Concentric cylinders viscometry
Temperature, K	Mole fraction of butylbenzene	Viscosity, Pa*s	uncertainty
253.15	0.1015	0.00282	6e-05
293.15	0.1015	0.00124	2e-05
303.15	0.1015	0.00107	2e-05
313.15	0.1015	0.00092	2e-05
323.15	0.1015	0.000813	2.1e-05
333.15	0.1015	0.000715	2.1e-05
253.15	0.2005	0.00263	6e-05
293.15	0.2005	0.00118	2e-05
303.15	0.2005	0.00103	2e-05
313.15	0.2005	0.00089	2.1e-05
323.15	0.2005	0.000784	2.1e-05
333.15	0.2005	0.000692	2.1e-05
253.15	0.2999	0.00249	6e-05
293.15	0.2999	0.00113	2e-05
303.15	0.2999	0.000989	2.1e-05
313.15	0.2999	0.000862	2.1e-05
323.15	0.2999	0.000762	2.1e-05
333.15	0.2999	0.000675	2.1e-05
253.15	0.4001	0.00237	6e-05
293.15	0.4001	0.00108	2e-05
303.15	0.4001	0.000951	2.1e-05
313.15	0.4001	0.000837	2.1e-05
323.15	0.4001	0.000735	2.1e-05
333.15	0.4001	0.000653	2.1e-05
253.15	0.4996	0.00228	6e-05
293.15	0.4996	0.00105	2e-05
303.15	0.4996	0.000924	2.1e-05
313.15	0.4996	0.000814	2.1e-05
323.15	0.4996	0.000718	2.1e-05
333.15	0.4996	0.000636	2.1e-05
253.15	0.6	0.00224	6e-05
293.15	0.6	0.00102	2e-05
303.15	0.6	0.000904	2.1e-05
313.15	0.6	0.000798	2.1e-05
323.15	0.6	0.000703	2.1e-05
333.15	0.6	0.000627	2.1e-05
253.15	0.6999	0.0022	6e-05
293.15	0.6999	0.00101	2e-05
303.15	0.6999	0.000887	2.1e-05
313.15	0.6999	0.000781	2.1e-05
323.15	0.6999	0.000692	2.1e-05
333.15	0.6999	0.000617	2.1e-05
253.15	0.8	0.00219	6e-05
293.15	0.8	0.000995	2.1e-05
303.15	0.8	0.000874	2.1e-05
313.15	0.8	0.00077	2.1e-05
323.15	0.8	0.000682	2.1e-05
333.15	0.8	0.00061	2.1e-05
253.15	0.9	0.00221	6e-05
293.15	0.9	0.000997	2.1e-05
303.15	0.9	0.000874	2.1e-05
313.15	0.9	0.00077	2.1e-05
323.15	0.9	0.000683	2.1e-05
333.15	0.9	0.000611	2.1e-05

System: butylbenzene + 2,2,4,6,6-pentamethylheptane; phases: Liquid, Gas
Fixed: Temperature, K = 295
Property: Surface tension liquid-gas, N/m (Liquid); method: Pendant drop shape
Mole fraction of butylbenzene	Surface tension liquid-gas, N/m	uncertainty
0.1001	0.022	0.0003
0.2	0.0222	0.0003
0.3001	0.0227	0.0003
0.4006	0.0231	0.0003
0.5	0.0235	0.0003
0.6002	0.024	0.0003
0.6999	0.0248	0.0003
0.8009	0.0257	0.0003
0.8985	0.0267	0.0003

System: hexylbenzene + 2,2,4,4,6,8,8-heptamethylnonane; phases: Liquid
Fixed: Pressure, kPa = 102
Property: Mass density, kg/m3 (Liquid); method: Vibrating tube method
Mole fraction of hexylbenzene	Temperature, K	Mass density, kg/m3	uncertainty
0.1015	253.15	816.6	2
0.1015	288.15	792.77	0.72
0.1015	293.15	789.39	0.72
0.1015	303.15	782.63	0.72
0.1015	313.15	775.87	0.72
0.1015	323.15	769.09	0.72
0.1015	333.15	762.29	0.72
0.2005	253.15	822.2	2
0.2005	288.15	798.05	0.72
0.2005	293.15	794.63	0.72
0.2005	303.15	787.8	0.72
0.2005	313.15	780.97	0.72
0.2005	323.15	774.12	0.72
0.2005	333.15	767.25	0.72
0.2999	253.15	828	2
0.2999	288.15	803.73	0.72
0.2999	293.15	800.29	0.72
0.2999	303.15	793.41	0.72
0.2999	313.15	786.51	0.72
0.2999	323.15	779.61	0.72
0.2999	333.15	772.68	0.72
0.4001	253.15	834.5	2
0.4001	288.15	810.02	0.72
0.4001	293.15	806.56	0.72
0.4001	303.15	799.59	0.72
0.4001	313.15	792.62	0.72
0.4001	323.15	785.63	0.72
0.4001	333.15	778.62	0.72
0.4996	253.15	841.5	2
0.4996	288.15	816.74	0.73
0.4996	293.15	813.23	0.73
0.4996	303.15	806.19	0.73
0.4996	313.15	799.14	0.73
0.4996	323.15	792.08	0.73
0.4996	333.15	784.99	0.73
0.6	253.15	849.4	2
0.6	288.15	824.16	0.73
0.6	293.15	820.65	0.73
0.6	303.15	813.53	0.73
0.6	313.15	806.39	0.73
0.6	323.15	799.24	0.73
0.6	333.15	792.06	0.73
0.6999	253.15	857.7	2
0.6999	288.15	832.36	0.73
0.6999	293.15	828.75	0.73
0.6999	303.15	821.53	0.73
0.6999	313.15	814.29	0.73
0.6999	323.15	807.04	0.73
0.6999	333.15	799.77	0.73
0.8	253.15	867.1	2
0.8	288.15	841.37	0.74
0.8	293.15	837.7	0.74
0.8	303.15	830.36	0.74
0.8	313.15	823.01	0.74
0.8	323.15	815.65	0.74
0.8	333.15	808.26	0.74
0.9	253.15	877.1	2
0.9	288.15	851.27	0.74
0.9	293.15	847.55	0.74
0.9	303.15	840.1	0.74
0.9	313.15	832.64	0.74
0.9	323.15	825.16	0.74
0.9	333.15	817.65	0.74

System: hexylbenzene + 2,2,4,4,6,8,8-heptamethylnonane; phases: Liquid
Fixed: Pressure, kPa = 102
Fixed: Frequency, MHz = 3
Property: Speed of sound, m/s (Liquid); method: Single path-length method
Temperature, K	Mole fraction of hexylbenzene	Speed of sound, m/s	uncertainty
288.15	0.1015	1311.3	0.9
293.15	0.1015	1292.1	0.9
303.15	0.1015	1254.4	0.9
313.15	0.1015	1217.8	0.9
323.15	0.1015	1181.9	0.9
333.15	0.1015	1147.1	0.9
288.15	0.2005	1317.6	0.9
293.15	0.2005	1298.5	0.9
303.15	0.2005	1261.2	0.9
313.15	0.2005	1224.6	0.9
323.15	0.2005	1188.7	0.9
333.15	0.2005	1153.6	0.9
288.15	0.2999	1324.6	1
293.15	0.2999	1305.4	1
303.15	0.2999	1267.7	1
313.15	0.2999	1231	1
323.15	0.2999	1195.1	1
333.15	0.2999	1160.3	1
288.15	0.4001	1332	1
293.15	0.4001	1313	1
303.15	0.4001	1275.6	1
313.15	0.4001	1238.9	1
323.15	0.4001	1203	1
333.15	0.4001	1167.9	1
288.15	0.4996	1340.4	1.1
293.15	0.4996	1321.1	1.1
303.15	0.4996	1283.4	1.1
313.15	0.4996	1246.6	1.1
323.15	0.4996	1210.5	1.1
333.15	0.4996	1175.5	1.1
288.15	0.6	1349.4	1.1
293.15	0.6	1330.2	1.1
303.15	0.6	1292.4	1.1
313.15	0.6	1255.5	1.1
323.15	0.6	1219.5	1.1
333.15	0.6	1184.4	1.1
288.15	0.6999	1359.3	1.2
293.15	0.6999	1340.1	1.2
303.15	0.6999	1302.3	1.2
313.15	0.6999	1265.4	1.2
323.15	0.6999	1229.4	1.2
333.15	0.6999	1194.3	1.2
288.15	0.8	1370	1.2
293.15	0.8	1350.9	1.2
303.15	0.8	1313.5	1.2
313.15	0.8	1276.7	1.2
323.15	0.8	1240.5	1.2
333.15	0.8	1205.1	1.2
288.15	0.9	1382.2	1.3
293.15	0.9	1363	1.3
303.15	0.9	1325.2	1.3
313.15	0.9	1288.3	1.3
323.15	0.9	1252	1.3
333.15	0.9	1216.8	1.3

System: hexylbenzene + 2,2,4,4,6,8,8-heptamethylnonane; phases: Liquid
Fixed: Pressure, kPa = 102
Property: Viscosity, Pa*s (Liquid); method: Concentric cylinders viscometry
Temperature, K	Mole fraction of hexylbenzene	Viscosity, Pa*s	uncertainty
253.15	0.1015	0.01182	8e-05
293.15	0.1015	0.00337	3e-05
303.15	0.1015	0.00268	3e-05
313.15	0.1015	0.00219	2e-05
323.15	0.1015	0.00182	2e-05
333.15	0.1015	0.00153	2e-05
253.15	0.2005	0.01018	8e-05
293.15	0.2005	0.00304	3e-05
303.15	0.2005	0.00244	2e-05
313.15	0.2005	0.002	2e-05
323.15	0.2005	0.00167	2e-05
333.15	0.2005	0.00142	2e-05
253.15	0.2999	0.00904	8e-05
293.15	0.2999	0.00275	3e-05
303.15	0.2999	0.00223	2e-05
313.15	0.2999	0.00184	2e-05
323.15	0.2999	0.00155	2e-05
333.15	0.2999	0.00132	2e-05
253.15	0.4001	0.00796	7e-05
293.15	0.4001	0.00251	3e-05
303.15	0.4001	0.00205	2e-05
313.15	0.4001	0.0017	2e-05
323.15	0.4001	0.00144	2e-05
333.15	0.4001	0.00123	2e-05
253.15	0.4996	0.00708	7e-05
293.15	0.4996	0.0023	3e-05
303.15	0.4996	0.00189	2e-05
313.15	0.4996	0.00158	2e-05
323.15	0.4996	0.00137	2e-05
333.15	0.4996	0.00118	2e-05
253.15	0.6	0.00637	7e-05
293.15	0.6	0.00212	3e-05
303.15	0.6	0.00178	2e-05
313.15	0.6	0.00149	2e-05
323.15	0.6	0.00128	2e-05
333.15	0.6	0.00111	2e-05
253.15	0.6999	0.00578	7e-05
293.15	0.6999	0.00198	2e-05
303.15	0.6999	0.00166	2e-05
313.15	0.6999	0.0014	2e-05
323.15	0.6999	0.0012	2e-05
333.15	0.6999	0.00104	2e-05
253.15	0.8	0.0053	7e-05
293.15	0.8	0.00185	2e-05
303.15	0.8	0.00156	2e-05
313.15	0.8	0.00132	2e-05
323.15	0.8	0.00114	2e-05
333.15	0.8	0.00099	2.2e-05
253.15	0.9	0.00494	7e-05
293.15	0.9	0.00174	2e-05
303.15	0.9	0.00148	2e-05
313.15	0.9	0.00125	2e-05
323.15	0.9	0.00109	2e-05
333.15	0.9	0.000945	2.2e-05

System: hexylbenzene + 2,2,4,4,6,8,8-heptamethylnonane; phases: Liquid, Gas
Fixed: Temperature, K = 295
Property: Surface tension liquid-gas, N/m (Liquid); method: Pendant drop shape
Mole fraction of hexylbenzene	Surface tension liquid-gas, N/m	uncertainty
0.1015	0.0244	0.0003
0.2005	0.0245	0.0003
0.2999	0.0247	0.0003
0.4001	0.0253	0.0003
0.4996	0.0256	0.0003
0.6	0.0258	0.0003
0.6999	0.0265	0.0004
0.8	0.0272	0.0004
0.9	0.0279	0.0004
