Measured thermophysical data. Equilibrium Solubility of Biapenem in Different Neat and Binary Solvents: Experimental Determination and Model Correlation
Source: J. Chem. Eng. Data, 2019, 10.1021/acs.jced.8b01051
Compound 1: biapenem, C15H18N4O4S, InChI=1S/C15H18N4O4S/c1-7-11-10(8(2)20)14(21)19(11)12(15(22)23)13(7)24-9-3-17-5-16-6-18(17)4-9/h5-11,20H,3-4H2,1-2H3/t7-,8-,10-,11-/m1/s1, purity 99.5%
Compound 2: methanol, CH4O, InChI=1S/CH4O/c1-2/h2H,1H3, purity 99.7%
Compound 3: propan-1-ol, C3H8O, InChI=1S/C3H8O/c1-2-3-4/h4H,2-3H2,1H3, purity 99.5%
Compound 4: propan-2-ol, C3H8O, InChI=1S/C3H8O/c1-3(2)4/h3-4H,1-2H3, purity 99.5%
Compound 5: acetone, C3H6O, InChI=1S/C3H6O/c1-3(2)4/h1-2H3, purity 99.5%
Compound 6: ethyl acetate, C4H8O2, InChI=1S/C4H8O2/c1-3-6-4(2)5/h3H2,1-2H3, purity 99.5%
Compound 7: acetonitrile, C2H3N, InChI=1S/C2H3N/c1-2-3/h1H3, purity 99.4%
Compound 8: ethanol, C2H6O, InChI=1S/C2H6O/c1-2-3/h3H,2H2,1H3, purity 99.5%
Compound 9: dimethylformamide, C3H7NO, InChI=1S/C3H7NO/c1-4(2)3-5/h3H,1-2H3, purity 99.6%
Compound 10: N-methylpyrrolidone, C5H9NO, InChI=1S/C5H9NO/c1-6-4-2-3-5(6)7/h2-4H2,1H3, purity 99.4%
Compound 11: dimethyl sulfoxide, C2H6OS, InChI=1S/C2H6OS/c1-4(2)3/h1-2H3, purity 99.6%

System: biapenem + methanol; phases: Liquid, Crystal
Fixed: Pressure, kPa = 101.2
Property: Mole fraction of biapenem (Liquid); method: Chromatography
Temperature, K	Mole fraction of biapenem	uncertainty
283.15	1.863e-05	9.7e-07
288.15	2.193e-05	1.14e-06
293.15	2.589e-05	1.35e-06
298.15	3.068e-05	1.6e-06
303.15	3.568e-05	1.86e-06
308.15	4.182e-05	2.18e-06
313.15	4.903e-05	2.55e-06
318.15	5.634e-05	2.93e-06
323.15	6.607e-05	3.44e-06

System: biapenem + acetonitrile; phases: Liquid, Crystal
Fixed: Pressure, kPa = 101.2
Property: Mole fraction of biapenem (Liquid); method: Chromatography
Temperature, K	Mole fraction of biapenem	uncertainty
283.15	3.625e-05	1.89e-06
288.15	4.071e-05	2.12e-06
293.15	4.606e-05	2.4e-06
298.15	5.169e-05	2.69e-06
303.15	5.821e-05	3.03e-06
308.15	6.667e-05	3.47e-06
313.15	7.462e-05	3.88e-06
318.15	8.497e-05	4.42e-06
323.15	9.557e-05	4.97e-06

System: biapenem + propan-1-ol; phases: Liquid, Crystal
Fixed: Pressure, kPa = 101.2
Property: Mole fraction of biapenem (Liquid); method: Chromatography
Temperature, K	Mole fraction of biapenem	uncertainty
283.15	1.167e-05	6.1e-07
288.15	1.373e-05	7.1e-07
293.15	1.624e-05	8.5e-07
298.15	1.966e-05	1.02e-06
303.15	2.316e-05	1.21e-06
308.15	2.699e-05	1.41e-06
313.15	3.19e-05	1.66e-06
318.15	3.709e-05	1.93e-06
323.15	4.321e-05	2.25e-06

System: biapenem + propan-2-ol; phases: Liquid, Crystal
Fixed: Pressure, kPa = 101.2
Property: Mole fraction of biapenem (Liquid); method: Chromatography
Temperature, K	Mole fraction of biapenem	uncertainty
283.15	6.658e-06	3.47e-07
288.15	8.242e-06	4.29e-07
293.15	9.983e-06	5.2e-07
298.15	1.205e-05	6.3e-07
303.15	1.413e-05	7.4e-07
308.15	1.692e-05	8.8e-07
313.15	2.002e-05	1.04e-06
318.15	2.371e-05	1.23e-06
323.15	2.795e-05	1.46e-06

System: biapenem + ethanol; phases: Liquid, Crystal
Fixed: Pressure, kPa = 101.2
Property: Mole fraction of biapenem (Liquid); method: Chromatography
Temperature, K	Mole fraction of biapenem	uncertainty
283.15	1.486e-05	7.7e-07
288.15	1.765e-05	9.2e-07
293.15	2.09e-05	1.09e-06
298.15	2.455e-05	1.28e-06
303.15	2.904e-05	1.51e-06
308.15	3.41e-05	1.78e-06
313.15	3.975e-05	2.07e-06
318.15	4.543e-05	2.36e-06
323.15	5.227e-05	2.72e-06

System: biapenem + acetone; phases: Liquid, Crystal
Fixed: Pressure, kPa = 101.2
Property: Mole fraction of biapenem (Liquid); method: Chromatography
Temperature, K	Mole fraction of biapenem	uncertainty
283.15	1.768e-06	9.7e-07
288.15	2.509e-06	1.14e-06
293.15	3.402e-06	1.35e-06
298.15	4.572e-06	1.6e-06
303.15	5.971e-06	1.86e-06
308.15	8.128e-06	2.18e-06
313.15	1.061e-05	2.55e-06
318.15	1.386e-05	2.93e-06
323.15	1.788e-05	3.44e-06

System: biapenem + ethyl acetate; phases: Liquid, Crystal
Fixed: Pressure, kPa = 101.2
Property: Mole fraction of biapenem (Liquid); method: Chromatography
Temperature, K	Mole fraction of biapenem	uncertainty
283.15	5.208e-05	2.71e-06
288.15	5.728e-05	2.98e-06
293.15	6.475e-05	3.37e-06
298.15	7.161e-05	3.73e-06
303.15	7.97e-05	4.15e-06
308.15	8.9e-05	4.63e-06
313.15	9.931e-05	5.17e-06
318.15	0.0001109	5.8e-06
323.15	0.000123	6.4e-06

System: biapenem + ethyl acetate; phases: Liquid, Crystal
Fixed: Pressure, kPa = 101.1
Property: Mole fraction of biapenem (Liquid); method: Chromatography
Temperature, K	Mole fraction of biapenem	uncertainty
283.15	5.208e-05	2.71e-06
288.15	5.728e-05	2.98e-06
293.15	6.475e-05	3.37e-06
298.15	7.161e-05	3.73e-06
303.15	7.97e-05	4.15e-06
308.15	8.9e-05	4.63e-06
313.15	9.931e-05	5.17e-06
318.15	0.0001109	5.8e-06
323.15	0.000123	6.4e-06

System: biapenem + dimethyl sulfoxide; phases: Liquid, Crystal
Fixed: Pressure, kPa = 101.2
Property: Mole fraction of biapenem (Liquid); method: Chromatography
Temperature, K	Mole fraction of biapenem	uncertainty
293.15	7.859e-05	4.09e-06
298.15	8.655e-05	4.5e-06
303.15	9.473e-05	4.93e-06
308.15	0.000104	5.4e-06
313.15	0.0001161	6e-06
318.15	0.0001287	6.7e-06
323.15	0.000142	7.4e-06

System: biapenem + dimethylformamide; phases: Liquid, Crystal
Fixed: Pressure, kPa = 101.2
Property: Mole fraction of biapenem (Liquid); method: Chromatography
Temperature, K	Mole fraction of biapenem	uncertainty
283.15	5.801e-05	3.02e-06
288.15	6.44e-05	3.35e-06
293.15	7.107e-05	3.7e-06
298.15	7.796e-05	4.06e-06
303.15	8.722e-05	4.54e-06
308.15	9.651e-05	5.02e-06
313.15	0.0001072	5.6e-06
318.15	0.0001188	6.2e-06
323.15	0.0001313	6.8e-06

System: biapenem + N-methylpyrrolidone; phases: Liquid, Crystal
Fixed: Pressure, kPa = 101.2
Property: Mole fraction of biapenem (Liquid); method: Chromatography
Temperature, K	Mole fraction of biapenem	uncertainty
283.15	7.583e-05	3.95e-06
288.15	8.138e-05	4.24e-06
293.15	8.786e-05	4.57e-06
298.15	9.663e-05	5.03e-06
303.15	0.0001059	5.5e-06
308.15	0.0001168	6.1e-06
313.15	0.0001282	6.7e-06
318.15	0.000141	7.3e-06
323.15	0.0001556	8.1e-06

System: biapenem + ethyl acetate + methanol; phases: Liquid, Crystal
Fixed: Pressure, kPa = 101.1
Property: Mole fraction of biapenem (Liquid); method: Chromatography
Temperature, K	Solvent: Mass fraction of ethyl acetate	Mole fraction of biapenem	uncertainty
283.15	1	5.208e-05	2.71e-06
288.15	1	5.728e-05	2.98e-06
293.15	1	6.475e-05	3.37e-06
298.15	1	7.161e-05	3.73e-06
303.15	1	7.97e-05	4.15e-06
308.15	1	8.9e-05	4.63e-06
313.15	1	9.931e-05	5.17e-06
318.15	1	0.0001109	5.8e-06
323.15	1	0.000123	6.4e-06
283.15	0.9	4.819e-05	2.52e-06
288.15	0.9	5.338e-05	2.79e-06
293.15	0.9	5.992e-05	3.13e-06
298.15	0.9	6.702e-05	3.5e-06
303.15	0.9	7.447e-05	3.89e-06
308.15	0.9	8.384e-05	4.37e-06
313.15	0.9	9.352e-05	4.88e-06
318.15	0.9	0.0001044	5.4e-06
323.15	0.9	0.0001171	6.1e-06
283.15	0.8	4.45e-05	2.36e-06
288.15	0.8	4.92e-05	2.6e-06
293.15	0.8	5.557e-05	2.94e-06
298.15	0.8	6.25e-05	3.3e-06
303.15	0.8	6.974e-05	3.67e-06
308.15	0.8	7.907e-05	4.16e-06
313.15	0.8	8.822e-05	4.63e-06
318.15	0.8	9.863e-05	5.17e-06
323.15	0.8	0.0001107	5.8e-06
283.15	0.7	4.109e-05	2.24e-06
288.15	0.7	4.547e-05	2.47e-06
293.15	0.7	5.153e-05	2.8e-06
298.15	0.7	5.818e-05	3.14e-06
303.15	0.7	6.549e-05	3.51e-06
308.15	0.7	7.416e-05	3.97e-06
313.15	0.7	8.349e-05	4.45e-06
318.15	0.7	9.359e-05	4.98e-06
323.15	0.7	0.0001055	5.6e-06
283.15	0.6	3.722e-05	2.12e-06
288.15	0.6	4.133e-05	2.34e-06
293.15	0.6	4.673e-05	2.63e-06
298.15	0.6	5.313e-05	2.98e-06
303.15	0.6	6.058e-05	3.34e-06
308.15	0.6	6.862e-05	3.79e-06
313.15	0.6	7.771e-05	4.26e-06
318.15	0.6	8.715e-05	4.76e-06
323.15	0.6	9.853e-05	5.36e-06
283.15	0.5	3.399e-05	2.05e-06
288.15	0.5	3.771e-05	2.24e-06
293.15	0.5	4.321e-05	2.52e-06
298.15	0.5	4.885e-05	2.83e-06
303.15	0.5	5.627e-05	3.24e-06
308.15	0.5	6.361e-05	3.63e-06
313.15	0.5	7.235e-05	4.1e-06
318.15	0.5	8.144e-05	4.58e-06
323.15	0.5	9.265e-05	5.14e-06
283.15	0.4	3.037e-05	1.81e-06
288.15	0.4	3.409e-05	1.97e-06
293.15	0.4	3.914e-05	2.27e-06
298.15	0.4	4.478e-05	2.57e-06
303.15	0.4	5.129e-05	2.94e-06
308.15	0.4	5.863e-05	3.32e-06
313.15	0.4	6.692e-05	3.63e-06
318.15	0.4	7.555e-05	4.22e-06
323.15	0.4	8.676e-05	4.72e-06
283.15	0.3	2.661e-05	1.5e-06
288.15	0.3	3.057e-05	1.72e-06
293.15	0.3	3.493e-05	1.95e-06
298.15	0.3	3.987e-05	2.2e-06
303.15	0.3	4.607e-05	2.54e-06
308.15	0.3	5.279e-05	2.89e-06
313.15	0.3	6.383e-05	3.45e-06
318.15	0.3	6.876e-05	3.72e-06
323.15	0.3	8.129e-05	4.36e-06
283.15	0.2	2.393e-05	1.29e-06
288.15	0.2	2.695e-05	1.45e-06
293.15	0.2	3.131e-05	1.67e-06
298.15	0.2	3.67e-05	1.95e-06
303.15	0.2	4.199e-05	2.22e-06
308.15	0.2	4.871e-05	2.57e-06
313.15	0.2	5.675e-05	3.03e-06
318.15	0.2	6.424e-05	3.38e-06
323.15	0.2	7.531e-05	3.98e-06
283.15	0.1	2.121e-05	1.12e-06
288.15	0.1	2.469e-05	1.29e-06
293.15	0.1	2.904e-05	1.52e-06
298.15	0.1	3.353e-05	1.75e-06
303.15	0.1	3.928e-05	2.05e-06
308.15	0.1	4.554e-05	2.38e-06
313.15	0.1	5.268e-05	2.75e-06
318.15	0.1	6.017e-05	3.14e-06
323.15	0.1	7.033e-05	3.67e-06
283.15	0	1.863e-05	9.7e-07
288.15	0	2.193e-05	1.14e-06
293.15	0	2.589e-05	1.35e-06
298.15	0	3.068e-05	1.6e-06
303.15	0	3.568e-05	1.86e-06
308.15	0	4.182e-05	2.18e-06
313.15	0	4.903e-05	2.55e-06
318.15	0	5.634e-05	2.93e-06
323.15	0	6.607e-05	3.44e-06
