Measured thermophysical data. Vapor Pressures and Gibbs Energies of Formation of the Three Hydroxybenzaldehydes
Source: J. Chem. Eng. Data, 2017, 10.1021/acs.jced.7b00227
Compound 1: 2-hydroxybenzaldehyde, C7H6O2, InChI=1S/C7H6O2/c8-5-6-3-1-2-4-7(6)9/h1-5,9H
Compound 2: 3-hydroxybenzaldehyde, C7H6O2, InChI=1S/C7H6O2/c8-5-6-2-1-3-7(9)4-6/h1-5,9H
Compound 3: 4-hydroxybenzaldehyde, C7H6O2, InChI=1S/C7H6O2/c8-5-6-1-3-7(9)4-2-6/h1-5,9H

System: 2-hydroxybenzaldehyde; phases: Crystal, Liquid, Air at 1 atmosphere
Property: Normal melting temperature, K (Crystal); method: DTA
Normal melting temperature, K	uncertainty
272.3	0.5

System: 2-hydroxybenzaldehyde; phases: Crystal, Liquid, Air at 1 atmosphere
Property: Molar enthalpy of transition or fusion, kJ/mol (Crystal); method: DSC
Molar enthalpy of transition or fusion, kJ/mol	uncertainty
13.3	0.9

System: 2-hydroxybenzaldehyde; phases: Crystal, Gas
Property: Vapor or sublimation pressure, kPa (Crystal); method: Closed cell (Static) method
Temperature, K	Vapor or sublimation pressure, kPa	uncertainty
264.55	0.00232	0.00013
266.52	0.00319	0.00016
268.49	0.00453	0.0002
270.45	0.00599	0.00025

System: 2-hydroxybenzaldehyde; phases: Metastable liquid, Gas
Property: Vapor or sublimation pressure, kPa (Metastable liquid); method: Closed cell (Static) method
Temperature, K	Vapor or sublimation pressure, kPa	uncertainty
266.54	0.00505	0.0003
268.5	0.00606	0.00034
270.45	0.00727	0.00037
272.44	0.00884	0.00041
274.4	0.01038	0.00046
276.37	0.01235	0.00052
278.29	0.01469	0.00057
280.27	0.01734	0.0006
282.24	0.02049	0.00065
284.23	0.02411	0.0007
286.21	0.02842	0.00077
288.16	0.03343	0.00084
290.13	0.03878	0.00092
292.14	0.0453	0.00102
294.09	0.05232	0.00112
296	0.06145	0.00126
298.06	0.0702	0.0014
300.04	0.08175	0.00158
302.02	0.09355	0.00176
304.24	0.1075	0.002
305.97	0.1228	0.0022
307.92	0.1409	0.0021
309.88	0.1603	0.0023
311.9	0.1832	0.0025
313.81	0.2071	0.0027
315.78	0.2358	0.0029
317.77	0.2661	0.0032
319.78	0.3014	0.0035
321.96	0.3441	0.0039
323.95	0.3875	0.0043
325.91	0.4352	0.0047
327.88	0.4884	0.0051
329.84	0.5465	0.0057
331.84	0.611	0.0062
333.81	0.682	0.0068
335.78	0.7604	0.0075
337.76	0.846	0.0083
339.74	0.9402	0.0091
341.67	1.042	0.01

System: 3-hydroxybenzaldehyde; phases: Crystal, Liquid, Air at 1 atmosphere
Property: Normal melting temperature, K (Crystal); method: DTA
Normal melting temperature, K	uncertainty
377.6	0.5

System: 3-hydroxybenzaldehyde; phases: Crystal, Liquid, Air at 1 atmosphere
Property: Molar enthalpy of transition or fusion, kJ/mol (Crystal); method: DSC
Molar enthalpy of transition or fusion, kJ/mol	uncertainty
25.6	1

System: 3-hydroxybenzaldehyde; phases: Crystal, Gas
Property: Vapor or sublimation pressure, kPa (Crystal); method: Closed cell (Static) method
Temperature, K	Vapor or sublimation pressure, kPa	uncertainty
324.86	0.00061	0.00011
326.85	0.00076	0.00012
328.83	0.00094	0.00012
330.84	0.00116	0.00012
332.78	0.00142	0.00013
334.76	0.00176	0.00013
336.76	0.00219	0.00014
338.72	0.00269	0.00016
340.73	0.00336	0.00018
342.63	0.00405	0.0002
344.71	0.00495	0.00023
346.64	0.006	0.00026
348.61	0.00733	0.00031
350.55	0.00897	0.00037
352.54	0.01085	0.00044
354.49	0.01289	0.00052
356.45	0.01575	0.00056
358.45	0.01898	0.00061
360.41	0.02275	0.00067
362.4	0.02727	0.00074
364.34	0.03226	0.00081
366.32	0.03884	0.00091
368.21	0.04637	0.00103

System: 3-hydroxybenzaldehyde; phases: Crystal, Gas
Property: Vapor or sublimation pressure, kPa (Crystal); method: Calculated from knudsen effusion weight loss
Temperature, K	Vapor or sublimation pressure, kPa	uncertainty
309.13	8.9e-05	2e-05
311.29	0.000118	2e-05
313.21	0.00015	2.1e-05
315.13	0.000189	2.1e-05
317.29	0.000243	2.2e-05
319.2	0.000308	2.3e-05
321.13	0.00039	2.4e-05
323.29	0.00049	2.6e-05
325.23	0.000616	3e-05
327.14	0.000763	3.4e-05
329.29	0.000957	3.9e-05
331.22	0.001188	9.6e-05

System: 3-hydroxybenzaldehyde; phases: Metastable liquid, Gas
Property: Vapor or sublimation pressure, kPa (Metastable liquid); method: Closed cell (Static) method
Temperature, K	Vapor or sublimation pressure, kPa	uncertainty
368.31	0.05807	0.00121
370.35	0.06605	0.00133
372.25	0.07435	0.00146
374.24	0.08475	0.00162
376.14	0.09434	0.00177
378.15	0.1083	0.002
380.15	0.1217	0.0022
382.09	0.1367	0.0021
384.06	0.1536	0.0022
386.07	0.1727	0.0024
388	0.1931	0.0026
389.95	0.2148	0.0028
391.96	0.2415	0.003
395.88	0.3002	0.0035
399.75	0.3687	0.0041
403.71	0.454	0.0048
405.31	0.49	0.0052
407.66	0.5539	0.0057
409.61	0.618	0.0063
411.6	0.6754	0.0068
413.56	0.751	0.0074
415.52	0.814	0.008
417.46	0.902	0.0087
419.41	0.994	0.01

System: 4-hydroxybenzaldehyde; phases: Crystal, Liquid, Air at 1 atmosphere
Property: Normal melting temperature, K (Crystal); method: DTA
Normal melting temperature, K	uncertainty
390.2	0.5

System: 4-hydroxybenzaldehyde; phases: Crystal, Liquid, Air at 1 atmosphere
Property: Molar enthalpy of transition or fusion, kJ/mol (Crystal); method: DSC
Molar enthalpy of transition or fusion, kJ/mol	uncertainty
21.6	0.9

System: 4-hydroxybenzaldehyde; phases: Crystal, Gas
Property: Vapor or sublimation pressure, kPa (Crystal); method: Closed cell (Static) method
Temperature, K	Vapor or sublimation pressure, kPa	uncertainty
334.88	0.00047	0.00012
336.84	0.00058	0.00012
338.82	0.00072	0.00012
340.78	0.00089	0.00012
342.79	0.00109	0.00012
344.73	0.00133	0.00013
346.72	0.00165	0.00013
348.7	0.00199	0.00014
350.66	0.00241	0.00015
352.65	0.00296	0.00017
354.62	0.00358	0.00019
356.58	0.00433	0.00021
358.56	0.00525	0.00024
360.53	0.0064	0.00028
362.52	0.00769	0.00033
364.51	0.00915	0.00038
366.46	0.01071	0.00044
368.43	0.01274	0.00051
370.43	0.01545	0.00056
372.39	0.01842	0.0006
374.32	0.02206	0.00066
376.26	0.02606	0.00072
378.32	0.03067	0.00079
380.29	0.03625	0.00087

System: 4-hydroxybenzaldehyde; phases: Metastable liquid, Gas
Property: Vapor or sublimation pressure, kPa (Metastable liquid); method: Closed cell (Static) method
Temperature, K	Vapor or sublimation pressure, kPa	uncertainty
378.18	0.03765	0.0009
380.28	0.04331	0.00099
382.26	0.04915	0.00108
384.18	0.05575	0.00118
385.95	0.06255	0.00128
388.15	0.07155	0.00142
390.14	0.08085	0.00156
392.11	0.09145	0.00173
393.98	0.1013	0.0019
396.02	0.1156	0.0021
398.08	0.132	0.0021
399.97	0.1466	0.0022
402.15	0.1659	0.0023
403.9	0.184	0.0025
406.15	0.2077	0.0027
407.83	0.2288	0.0029
409.81	0.2537	0.0031
411.77	0.281	0.0033
413.71	0.315	0.0036
415.68	0.3477	0.0039
417.65	0.3831	0.0042
419.62	0.4264	0.0046
421.57	0.4738	0.005
423.73	0.5285	0.0055
425.48	0.5776	0.0059
427.46	0.6379	0.0064
429.41	0.7018	0.007

System: 4-hydroxybenzaldehyde; phases: Crystal, Gas
Property: Vapor or sublimation pressure, kPa (Crystal); method: Calculated from knudsen effusion weight loss
Temperature, K	Vapor or sublimation pressure, kPa	uncertainty
319.14	7.6e-05	2e-05
321.31	0.000101	2e-05
323.2	0.000124	2e-05
325.16	0.000152	2.1e-05
327.35	0.000196	2.1e-05
329.21	0.00024	2.2e-05
331.15	0.000305	2.3e-05
333.36	0.000383	2.4e-05
335.2	0.000476	2.6e-05
337.14	0.000583	2.9e-05
339.28	0.000737	3.3e-05
341.2	0.00091	3.8e-05
