Measured thermophysical data. Solubilities of Binary Systems alpha-Tocopherol + Capsaicin and alpha-Tocopherol + Palmitic Acid in Supercritical Carbon Dioxide
Source: J. Chem. Eng. Data, 2019, 10.1021/acs.jced.8b00996
Compound 1: carbon dioxide, CO2, InChI=1S/CO2/c2-1-3, purity 99.995%
Compound 2: dl-.alpha.-tocopherol, C29H50O2, InChI=1S/C29H50O2/c1-20(2)12-9-13-21(3)14-10-15-22(4)16-11-18-29(8)19-17-26-25(7)27(30)23(5)24(6)28(26)31-29/h20-22,30H,9-19H2,1-8H3, purity 97%
Compound 3: hexadecanoic acid, C16H32O2, InChI=1S/C16H32O2/c1-2-3-4-5-6-7-8-9-10-11-12-13-14-15-16(17)18/h2-15H2,1H3,(H,17,18), purity 99%
Compound 4: capsaicin, C18H27NO3, InChI=1S/C18H27NO3/c1-14(2)8-6-4-5-7-9-18(21)19-13-15-10-11-16(20)17(12-15)22-3/h6,8,10-12,14,20H,4-5,7,9,13H2,1-3H3,(H,19,21)/b8-6+, purity 96%

System: dl-.alpha.-tocopherol + capsaicin + carbon dioxide; phases: Fluid (supercritical or subcritical phases), Crystal, Crystal
Property: Mole fraction of dl-.alpha.-tocopherol (Fluid (supercritical or subcritical phases)); method: Chromatography
Temperature, K	Pressure, kPa	Mole fraction of dl-.alpha.-tocopherol	uncertainty
308.15	10270	0.000183	0.000378
308.15	12320	0.000348	0.000378
308.15	14240	0.000571	0.000378
308.15	16300	0.000977	0.000378
308.15	18340	0.001396	0.000378
308.15	20280	0.001516	0.000378
308.15	22290	0.001678	0.000378
308.15	24320	0.001801	0.000378
308.15	26340	0.002126	0.000378
308.15	28430	0.002282	0.000378
308.15	30330	0.0025	0.000378
308.15	32420	0.002872	0.000378
308.15	35350	0.003704	0.000378
328.15	10250	0.000221	0.000378
328.15	12290	0.000346	0.000378
328.15	14250	0.00056	0.000378
328.15	16320	0.00096	0.000378
328.15	18360	0.001198	0.000378
328.15	20320	0.00174	0.000378
328.15	22400	0.002096	0.000378
328.15	24400	0.002634	0.000378
328.15	26400	0.002876	0.000378
328.15	28410	0.003074	0.000378
328.15	30350	0.003372	0.000378
328.15	32440	0.003477	0.000378
328.15	35420	0.003784	0.000378

System: dl-.alpha.-tocopherol + capsaicin + carbon dioxide; phases: Fluid (supercritical or subcritical phases), Crystal, Crystal
Property: Mole fraction of capsaicin (Fluid (supercritical or subcritical phases)); method: Chromatography
Temperature, K	Pressure, kPa	Mole fraction of capsaicin	uncertainty
308.15	10270	5.6e-05	8.04e-05
308.15	12320	7.4e-05	8.04e-05
308.15	14240	0.000106	8.04e-05
308.15	16300	0.000146	8.04e-05
308.15	18340	0.000176	8.04e-05
308.15	20280	0.000193	8.04e-05
308.15	22290	0.000204	8.04e-05
308.15	24320	0.00021	8.04e-05
308.15	26340	0.000222	8.04e-05
308.15	28430	0.000249	8.04e-05
308.15	30330	0.00027	8.04e-05
308.15	32420	0.000308	8.04e-05
308.15	35350	0.000335	8.04e-05
328.15	10250	9.8e-05	8.04e-05
328.15	12290	0.000152	8.04e-05
328.15	14250	0.000219	8.04e-05
328.15	16320	0.000297	8.04e-05
328.15	18360	0.000332	8.04e-05
328.15	20320	0.000367	8.04e-05
328.15	22400	0.000424	8.04e-05
328.15	24400	0.000515	8.04e-05
328.15	26400	0.000617	8.04e-05
328.15	28410	0.00068	8.04e-05
328.15	30350	0.00074	8.04e-05
328.15	32440	0.000771	8.04e-05
328.15	35420	0.000804	8.04e-05

System: dl-.alpha.-tocopherol + hexadecanoic acid + carbon dioxide; phases: Fluid (supercritical or subcritical phases), Crystal, Crystal
Property: Mole fraction of dl-.alpha.-tocopherol (Fluid (supercritical or subcritical phases)); method: Chromatography
Temperature, K	Pressure, kPa	Mole fraction of dl-.alpha.-tocopherol	uncertainty
308.15	10190	0.000405	0.00149
308.15	12260	0.000609	0.00149
308.15	14280	0.00078	0.00149
308.15	16220	0.00091	0.00149
308.15	18320	0.001058	0.00149
308.15	20030	0.001144	0.00149
308.15	22330	0.001437	0.00149
308.15	24130	0.001663	0.00149
308.15	26140	0.001775	0.00149
308.15	28330	0.00201	0.00149
308.15	30140	0.002173	0.00149
308.15	32030	0.002475	0.00149
308.15	35130	0.002874	0.00149
328.15	10220	0.000672	0.00149
328.15	12150	0.000709	0.00149
328.15	14250	0.000753	0.00149
328.15	16290	0.000658	0.00149
328.15	18030	0.000735	0.00149
328.15	20270	0.000846	0.00149
328.15	22330	0.001111	0.00149
328.15	24260	0.001496	0.00149
328.15	26330	0.001746	0.00149
328.15	28260	0.002121	0.00149
328.15	30360	0.002571	0.00149
328.15	32230	0.002933	0.00149

System: dl-.alpha.-tocopherol + hexadecanoic acid + carbon dioxide; phases: Fluid (supercritical or subcritical phases), Crystal, Crystal
Property: Mole fraction of hexadecanoic acid (Fluid (supercritical or subcritical phases)); method: Chromatography
Temperature, K	Pressure, kPa	Mole fraction of hexadecanoic acid	uncertainty
308.15	10190	0.000214	0.00029
308.15	12260	0.000285	0.00029
308.15	14280	0.00038	0.00029
308.15	16220	0.00045	0.00029
308.15	18320	0.000503	0.00029
308.15	20030	0.000531	0.00029
308.15	22330	0.000646	0.00029
308.15	24130	0.000672	0.00029
308.15	26140	0.000716	0.00029
308.15	28330	0.000745	0.00029
308.15	30140	0.000741	0.00029
308.15	32030	0.000766	0.00029
308.15	35130	0.0008	0.00029
328.15	10220	0.000993	0.00029
328.15	12150	0.001052	0.00029
328.15	14250	0.001316	0.00029
328.15	16290	0.001637	0.00029
328.15	18030	0.002044	0.00029
328.15	20270	0.003062	0.00029
328.15	22330	0.004493	0.00029
328.15	24260	0.005365	0.00029
328.15	26330	0.007629	0.00029
328.15	28260	0.01061	0.00029
328.15	30360	0.01349	0.00029
328.15	32230	0.01491	0.00029
