Measured thermophysical data. Sulfasalazine: Dissolution and Distribution in Pharmaceutically Relevant Mediums
Source: J. Chem. Eng. Data, 2017, 10.1021/acs.jced.6b00497
Compound 1: Sulfasalazine, C18H14N4O5S, InChI=1S/C18H14N4O5S/c23-16-9-6-13(11-15(16)18(24)25)21-20-12-4-7-14(8-5-12)28(26,27)22-17-3-1-2-10-19-17/h1-11,23H,(H,19,22)(H,24,25), purity 99.1%
Compound 2: octan-1-ol, C8H18O, InChI=1S/C8H18O/c1-2-3-4-5-6-7-8-9/h9H,2-8H2,1H3, purity 99%
Compound 3: hexane, C6H14, InChI=1S/C6H14/c1-3-5-6-4-2/h3-6H2,1-2H3, purity 97%

System: Sulfasalazine; phases: Crystal, Liquid, Air at 1 atmosphere
Property: Normal melting temperature, K (Crystal); method: DTA
Normal melting temperature, K	uncertainty
493.15	1

System: octan-1-ol + Sulfasalazine; phases: Liquid, Crystal
Fixed: Pressure, kPa = 100
Property: Mole fraction of Sulfasalazine (Liquid); method: UV spectroscopy
Temperature, K	Mole fraction of Sulfasalazine	uncertainty
293.15	0.000105	1.1e-05
298.15	0.000116	1.2e-05
303.15	0.000132	1.3e-05
308.15	0.000146	1.5e-05
313.15	0.000165	1.7e-05

System: hexane + Sulfasalazine; phases: Liquid, Crystal
Fixed: Pressure, kPa = 100
Property: Mole fraction of Sulfasalazine (Liquid); method: UV spectroscopy
Temperature, K	Mole fraction of Sulfasalazine	uncertainty
293.15	3.26e-06	3.3e-07
298.15	4.32e-06	4.4e-07
303.15	5.88e-06	6e-07
308.15	7.71e-06	7.8e-07
313.15	1.006e-05	1.02e-06
