Measured thermophysical data. Volumetric Analysis of Structural Changes of Cationic Micelles in the Presence of Quaternary Ammonium Salts
Source: J. Chem. Eng. Data, 2016, 10.1021/acs.jced.6b00332
Compound 1: tetrapropylammonium iodide, C12H28IN, InChI=1S/C12H28N.HI/c1-5-9-13(10-6-2,11-7-3)12-8-4;/h5-12H2,1-4H3;1H/q+1;/p-1, purity 98%
Compound 2: tetrabutylammonium bromide, C16H36BrN, InChI=1S/C16H36N.BrH/c1-5-9-13-17(14-10-6-2,15-11-7-3)16-12-8-4;/h5-16H2,1-4H3;1H/q+1;/p-1, purity 99%
Compound 3: tetrapentylammonium bromide, C20H44BrN, InChI=1S/C20H44N.BrH/c1-5-9-13-17-21(18-14-10-6-2,19-15-11-7-3)20-16-12-8-4;/h5-20H2,1-4H3;1H/q+1;/p-1, purity 99%
Compound 4: dodecyltrimethylammonium bromide, C15H34BrN, InChI=1S/C15H34N.BrH/c1-5-6-7-8-9-10-11-12-13-14-15-16(2,3)4;/h5-15H2,1-4H3;1H/q+1;/p-1, purity 98%
Compound 5: water, H2O, InChI=1S/H2O/h1H2, purity 99.8%

System: water; phases: Liquid
Property: Mass density, kg/m3 (Liquid); method: Vibrating tube method
Temperature, K	Pressure, kPa	Mass density, kg/m3	uncertainty
318.15	100	990.22	0.3

System: water; phases: Liquid
Property: Speed of sound, m/s (Liquid); method: Sing-around technique in a fixed-path interferometer
Temperature, K	Pressure, kPa	Frequency, MHz	Speed of sound, m/s	uncertainty
318.15	100	3	1535.7	1.2

System: dodecyltrimethylammonium bromide + water; phases: Liquid
Fixed: Pressure, kPa = 100
Property: Mass density, kg/m3 (Liquid); method: Vibrating tube method
Molality, mol/kg of dodecyltrimethylammonium bromide	Temperature, K	Mass density, kg/m3	uncertainty
0.003	293.15	998.31	0.3
0.006	293.15	998.37	0.33
0.009	293.15	998.43	0.3
0.012	293.15	998.49	0.3
0.015	293.15	998.54	0.3
0.018	293.15	998.6	0.3
0.021	293.15	998.65	0.3
0.024	293.15	998.7	0.3
0.027	293.15	998.75	0.3
0.03	293.15	998.81	0.3
0.033	293.15	998.87	0.3
0.036	293.15	998.92	0.3
0.039	293.15	998.95	0.3
0.042	293.15	999	0.3
0.045	293.15	999.05	0.3
0.003	298.15	997.2	0.3
0.006	298.15	997.26	0.3
0.009	298.15	997.32	0.3
0.012	298.15	997.37	0.3
0.015	298.15	997.43	0.3
0.018	298.15	997.49	0.3
0.021	298.15	997.53	0.3
0.024	298.15	997.58	0.3
0.027	298.15	997.63	0.3
0.03	298.15	997.67	0.3
0.033	298.15	997.71	0.3
0.036	298.15	997.75	0.3
0.039	298.15	997.79	0.3
0.042	298.15	997.82	0.3
0.045	298.15	997.85	0.3
0.003	303.15	995.71	0.3
0.006	303.15	995.76	0.3
0.009	303.15	995.82	0.3
0.012	303.15	995.87	0.3
0.015	303.15	995.92	0.3
0.018	303.15	995.97	0.3
0.021	303.15	996.02	0.3
0.024	303.15	996.07	0.3
0.027	303.15	996.11	0.3
0.03	303.15	996.16	0.3
0.033	303.15	996.21	0.3
0.036	303.15	996.24	0.3
0.039	303.15	996.29	0.3
0.042	303.15	996.32	0.3
0.045	303.15	996.36	0.3
0.003	308.15	994.26	0.3
0.006	308.15	994.31	0.3
0.009	308.15	994.36	0.3
0.012	308.15	994.41	0.3
0.015	308.15	994.46	0.3
0.018	308.15	994.51	0.3
0.021	308.15	994.55	0.3
0.024	308.15	994.59	0.3
0.027	308.15	994.63	0.3
0.03	308.15	994.67	0.3
0.033	308.15	994.72	0.3
0.036	308.15	994.77	0.3
0.039	308.15	994.79	0.3
0.042	308.15	994.82	0.3
0.045	308.15	994.84	0.3
0.003	313.15	992.29	0.3
0.006	313.15	992.33	0.3
0.009	313.15	992.38	0.3
0.012	313.15	992.42	0.3
0.015	313.15	992.47	0.3
0.018	313.15	992.51	0.3
0.021	313.15	992.55	0.3
0.024	313.15	992.59	0.3
0.027	313.15	992.63	0.3
0.03	313.15	992.67	0.3
0.033	313.15	992.71	0.3
0.036	313.15	992.77	0.3
0.039	313.15	992.81	0.3
0.042	313.15	992.87	0.3
0.045	313.15	992.9	0.3
0	318.15	990.22	0.3
0.003	318.15	990.28	0.3
0.006	318.15	990.33	0.33
0.009	318.15	990.37	0.32
0.012	318.15	990.39	0.31
0.015	318.15	990.42	0.3
0.018	318.15	990.45	0.3
0.021	318.15	990.48	0.3
0.024	318.15	990.52	0.3
0.027	318.15	990.55	0.3
0.03	318.15	990.57	0.3
0.033	318.15	990.61	0.3
0.036	318.15	990.64	0.3
0.039	318.15	990.67	0.3
0.042	318.15	990.7	0.3
0.045	318.15	990.72	0.3

System: dodecyltrimethylammonium bromide + water; phases: Liquid
Fixed: Pressure, kPa = 100
Fixed: Frequency, MHz = 3
Property: Speed of sound, m/s (Liquid); method: Sing-around technique in a fixed-path interferometer
Molality, mol/kg of dodecyltrimethylammonium bromide	Temperature, K	Speed of sound, m/s	uncertainty
0.003	293.15	1483.3	1.2
0.006	293.15	1484.2	1.4
0.009	293.15	1484.9	1.5
0.012	293.15	1485.6	1.3
0.015	293.15	1486.3	1.2
0.018	293.15	1486.7	1.2
0.021	293.15	1486.8	1.2
0.024	293.15	1486.9	1.2
0.027	293.15	1487	1.2
0.03	293.15	1487	1.2
0.033	293.15	1487.1	1.2
0.036	293.15	1487.1	1.2
0.039	293.15	1487.1	1.2
0.042	293.15	1487.1	1.3
0.045	293.15	1487	1.2
0.003	298.15	1497.2	1.2
0.006	298.15	1497.9	1.2
0.009	298.15	1498.6	1.2
0.012	298.15	1499.2	1.2
0.015	298.15	1499.9	1.2
0.018	298.15	1500.2	1.2
0.021	298.15	1500.3	1.2
0.024	298.15	1500.3	1.2
0.027	298.15	1500.4	1.2
0.03	298.15	1500.4	1.2
0.033	298.15	1500.5	1.2
0.036	298.15	1500.4	1.2
0.039	298.15	1500.5	1.2
0.042	298.15	1500.4	1.2
0.045	298.15	1500.5	1.2
0.003	303.15	1509.7	1.2
0.006	303.15	1510.3	1.2
0.009	303.15	1511	1.2
0.012	303.15	1511.6	1.2
0.015	303.15	1512	1.2
0.018	303.15	1512.2	1.2
0.021	303.15	1512.2	1.2
0.024	303.15	1512.2	1.2
0.027	303.15	1512.2	1.2
0.03	303.15	1512.2	1.2
0.033	303.15	1512.2	1.2
0.036	303.15	1512.2	1.2
0.039	303.15	1512.3	1.2
0.042	303.15	1512.2	1.2
0.045	303.15	1512.3	1.2
0.003	308.15	1520.3	1.2
0.006	308.15	1520.9	1.2
0.009	308.15	1521.5	1.2
0.012	308.15	1522	1.2
0.015	308.15	1522.6	1.2
0.018	308.15	1522.6	1.2
0.021	308.15	1522.6	1.2
0.024	308.15	1522.6	1.2
0.027	308.15	1522.6	1.2
0.03	308.15	1522.5	1.2
0.033	308.15	1522.5	1.2
0.036	308.15	1522.5	1.2
0.039	308.15	1522.5	1.2
0.042	308.15	1522.6	1.2
0.045	308.15	1522.5	1.2
0.003	313.15	1529.4	1.2
0.006	313.15	1529.9	1.2
0.009	313.15	1530.4	1.2
0.012	313.15	1530.9	1.2
0.015	313.15	1531.4	1.2
0.018	313.15	1531.5	1.2
0.021	313.15	1531.4	1.2
0.024	313.15	1531.4	1.2
0.027	313.15	1531.3	1.2
0.03	313.15	1531.3	1.2
0.033	313.15	1531.2	1.2
0.036	313.15	1531.3	1.2
0.039	313.15	1531.3	1.2
0.042	313.15	1531.3	1.2
0.045	313.15	1531.2	1.2
0	318.15	1535.7	1.2
0.003	318.15	1536.3	1.2
0.006	318.15	1536.7	1.3
0.009	318.15	1537.2	1.2
0.012	318.15	1537.8	1.2
0.015	318.15	1538.2	1.2
0.018	318.15	1538.4	1.2
0.021	318.15	1538.6	1.2
0.024	318.15	1538.7	1.2
0.027	318.15	1538.7	1.2
0.03	318.15	1538.7	1.2
0.033	318.15	1538.9	1.2
0.036	318.15	1538.9	1.2
0.039	318.15	1539	1.2
0.042	318.15	1539.1	1.2
0.045	318.15	1539.1	1.2

System: tetrapropylammonium iodide + dodecyltrimethylammonium bromide + water; phases: Liquid
Fixed: Pressure, kPa = 100
Fixed: Solvent: Molality, mol/kg of tetrapropylammonium iodide = 0.01
Property: Mass density, kg/m3 (Liquid); method: Vibrating tube method
Temperature, K	Molality, mol/kg of dodecyltrimethylammonium bromide	Mass density, kg/m3	uncertainty
293.15	0	998.62	0.49
293.15	0.003	998.75	0.49
293.15	0.006	998.84	0.49
293.15	0.009	998.88	0.49
293.15	0.012	998.92	0.49
293.15	0.015	998.97	0.49
293.15	0.018	999.01	0.49
293.15	0.021	999.04	0.49
293.15	0.024	999.1	0.49
293.15	0.027	999.15	0.49
293.15	0.03	999.18	0.49
293.15	0.033	999.2	0.49
298.15	0	997.49	0.49
298.15	0.003	997.57	0.49
298.15	0.006	997.64	0.49
298.15	0.009	997.7	0.49
298.15	0.012	997.74	0.49
298.15	0.015	997.78	0.49
298.15	0.018	997.82	0.49
298.15	0.021	997.85	0.49
298.15	0.024	997.9	0.49
298.15	0.027	997.95	0.49
298.15	0.03	998	0.49
298.15	0.033	998.01	0.49
303.15	0	996	0.49
303.15	0.003	996.16	0.49
303.15	0.006	996.23	0.49
303.15	0.009	996.27	0.49
303.15	0.012	996.31	0.49
303.15	0.015	996.35	0.49
303.15	0.018	996.39	0.49
303.15	0.021	996.42	0.49
303.15	0.024	996.46	0.49
303.15	0.027	996.51	0.49
303.15	0.03	996.58	0.49
303.15	0.033	996.6	0.49
308.15	0	994.41	0.49
308.15	0.003	994.53	0.49
308.15	0.006	994.59	0.49
308.15	0.009	994.63	0.49
308.15	0.012	994.67	0.49
308.15	0.015	994.71	0.49
308.15	0.018	994.74	0.49
308.15	0.021	994.77	0.49
308.15	0.024	994.81	0.49
308.15	0.027	994.86	0.49
308.15	0.03	994.9	0.49
308.15	0.033	994.93	0.49
313.15	0	992.61	0.49
313.15	0.003	992.7	0.49
313.15	0.006	992.75	0.49
313.15	0.009	992.8	0.5
313.15	0.012	992.83	0.49
313.15	0.015	992.87	0.49
313.15	0.018	992.9	0.49
313.15	0.021	992.92	0.49
313.15	0.024	992.96	0.49
313.15	0.027	993.01	0.49
313.15	0.03	992.98	0.49
313.15	0.033	992.99	0.49
318.15	0	990.53	0.49
318.15	0.003	990.68	0.49
318.15	0.006	990.74	0.49
318.15	0.009	990.79	0.49
318.15	0.012	990.81	0.49
318.15	0.015	990.84	0.49
318.15	0.018	990.87	0.49
318.15	0.021	990.89	0.49
318.15	0.024	990.93	0.49
318.15	0.027	990.97	0.49
318.15	0.03	990.98	0.49
318.15	0.033	991.02	0.49

System: tetrapropylammonium iodide + dodecyltrimethylammonium bromide + water; phases: Liquid
Fixed: Pressure, kPa = 100
Fixed: Solvent: Molality, mol/kg of tetrapropylammonium iodide = 0.01
Fixed: Frequency, MHz = 3
Property: Speed of sound, m/s (Liquid); method: Sing-around technique in a fixed-path interferometer
Temperature, K	Molality, mol/kg of dodecyltrimethylammonium bromide	Speed of sound, m/s	uncertainty
293.15	0	1484.5	1.9
293.15	0.003	1485.4	1.9
293.15	0.006	1486	1.9
293.15	0.009	1486.6	1.9
293.15	0.012	1487	1.9
293.15	0.015	1487.5	1.9
293.15	0.018	1487.6	1.8
293.15	0.021	1487.6	1.8
293.15	0.024	1487.7	1.8
293.15	0.027	1487.7	1.8
293.15	0.03	1487.6	1.8
293.15	0.033	1487.4	1.8
298.15	0	1498.5	1.9
298.15	0.003	1499.1	1.9
298.15	0.006	1499.7	1.9
298.15	0.009	1500.2	1.9
298.15	0.012	1500.8	1.9
298.15	0.015	1501	2
298.15	0.018	1501.1	1.9
298.15	0.021	1501.1	1.9
298.15	0.024	1501.2	1.9
298.15	0.027	1501.2	1.9
298.15	0.03	1501.1	1.9
298.15	0.033	1500.9	1.9
303.15	0	1510.9	1.9
303.15	0.003	1511.4	1.9
303.15	0.006	1511.8	1.9
303.15	0.009	1512.5	1.9
303.15	0.012	1513.1	1.9
303.15	0.015	1513.2	1.9
303.15	0.018	1513.2	1.9
303.15	0.021	1513.3	1.9
303.15	0.024	1513.1	1.9
303.15	0.027	1513.3	1.9
303.15	0.03	1513.1	1.9
303.15	0.033	1513	1.9
308.15	0	1521.4	1.9
308.15	0.003	1522	2
308.15	0.006	1522.6	1.9
308.15	0.009	1523.1	1.9
308.15	0.012	1523.5	1.9
308.15	0.015	1523.6	1.9
308.15	0.018	1523.6	1.9
308.15	0.021	1523.6	1.9
308.15	0.024	1523.4	1.9
308.15	0.027	1523.4	1.9
308.15	0.03	1523.5	1.9
308.15	0.033	1523.5	1.9
313.15	0	1530.4	1.9
313.15	0.003	1530.9	1.9
313.15	0.006	1531.2	1.9
313.15	0.009	1531.6	1.9
313.15	0.012	1532	2
313.15	0.015	1532.2	1.9
313.15	0.018	1532.2	1.9
313.15	0.021	1532.3	1.9
313.15	0.024	1532.2	1.9
313.15	0.027	1532.2	1.9
313.15	0.03	1532.2	1.9
313.15	0.033	1532.3	1.9
318.15	0	1538	1.9
318.15	0.003	1538.4	1.9
318.15	0.006	1538.8	1.9
318.15	0.009	1539	1.9
318.15	0.012	1539.5	1.9
318.15	0.015	1539.7	1.9
318.15	0.018	1539.6	1.9
318.15	0.021	1539.6	1.9
318.15	0.024	1539.4	1.9
318.15	0.027	1539.4	1.9
318.15	0.03	1539.5	1.9
318.15	0.033	1539.5	1.9

System: dodecyltrimethylammonium bromide + tetrabutylammonium bromide + water; phases: Liquid
Fixed: Pressure, kPa = 100
Fixed: Solvent: Molality, mol/kg of tetrabutylammonium bromide = 0.01
Property: Mass density, kg/m3 (Liquid); method: Vibrating tube method
Temperature, K	Molality, mol/kg of dodecyltrimethylammonium bromide	Mass density, kg/m3	uncertainty
293.15	0	998.57	0.38
293.15	0.003	998.7	0.38
293.15	0.006	998.74	0.38
293.15	0.009	998.79	0.38
293.15	0.012	998.85	0.38
293.15	0.015	998.89	0.38
293.15	0.018	998.94	0.38
293.15	0.021	998.99	0.38
293.15	0.024	999.03	0.38
293.15	0.027	999.08	0.38
293.15	0.03	999.14	0.38
293.15	0.033	999.19	0.38
298.15	0	997.35	0.38
298.15	0.003	997.51	0.38
298.15	0.006	997.55	0.38
298.15	0.009	997.6	0.38
298.15	0.012	997.66	0.38
298.15	0.015	997.7	0.38
298.15	0.018	997.75	0.38
298.15	0.021	997.79	0.38
298.15	0.024	997.83	0.38
298.15	0.027	997.89	0.38
298.15	0.03	997.93	0.38
298.15	0.033	997.98	0.38
303.15	0	995.88	0.38
303.15	0.003	996.09	0.38
303.15	0.006	996.14	0.38
303.15	0.009	996.18	0.38
303.15	0.012	996.22	0.38
303.15	0.015	996.27	0.38
303.15	0.018	996.31	0.38
303.15	0.021	996.34	0.38
303.15	0.024	996.39	0.38
303.15	0.027	996.44	0.38
303.15	0.03	996.49	0.38
303.15	0.033	996.52	0.38
308.15	0	994.29	0.38
308.15	0.003	994.45	0.38
308.15	0.006	994.49	0.38
308.15	0.009	994.53	0.38
308.15	0.012	994.58	0.38
308.15	0.015	994.62	0.38
308.15	0.018	994.66	0.38
308.15	0.021	994.7	0.38
308.15	0.024	994.74	0.38
308.15	0.027	994.79	0.38
308.15	0.03	994.83	0.38
308.15	0.033	994.87	0.38
313.15	0	992.33	0.38
313.15	0.003	992.58	0.38
313.15	0.006	992.64	0.38
313.15	0.009	992.69	0.38
313.15	0.012	992.74	0.38
313.15	0.015	992.79	0.38
313.15	0.018	992.82	0.38
313.15	0.021	992.86	0.38
313.15	0.024	992.89	0.38
313.15	0.027	992.94	0.38
313.15	0.03	992.96	0.38
313.15	0.033	993	0.38
318.15	0	990.43	0.38
318.15	0.003	990.57	0.38
318.15	0.006	990.62	0.38
318.15	0.009	990.66	0.38
318.15	0.012	990.71	0.38
318.15	0.015	990.75	0.38
318.15	0.018	990.79	0.38
318.15	0.021	990.83	0.38
318.15	0.024	990.86	0.38
318.15	0.027	990.89	0.38
318.15	0.03	990.92	0.38
318.15	0.033	990.97	0.38

System: dodecyltrimethylammonium bromide + tetrabutylammonium bromide + water; phases: Liquid
Fixed: Pressure, kPa = 100
Fixed: Solvent: Molality, mol/kg of tetrabutylammonium bromide = 0.01
Fixed: Frequency, MHz = 3
Property: Speed of sound, m/s (Liquid); method: Sing-around technique in a fixed-path interferometer
Temperature, K	Molality, mol/kg of dodecyltrimethylammonium bromide	Speed of sound, m/s	uncertainty
293.15	0	1485.3	1.6
293.15	0.003	1485.8	1.6
293.15	0.006	1486.7	1.6
293.15	0.009	1487.2	1.6
293.15	0.012	1487.8	1.6
293.15	0.015	1488.1	1.6
293.15	0.018	1488.2	1.6
293.15	0.021	1488.3	1.6
293.15	0.024	1488.5	1.6
293.15	0.027	1488.4	1.6
293.15	0.03	1488.4	1.6
293.15	0.033	1488.4	1.6
298.15	0	1499.2	1.6
298.15	0.003	1499.7	1.6
298.15	0.006	1500.1	1.6
298.15	0.009	1500.8	1.6
298.15	0.012	1501.3	1.6
298.15	0.015	1501.6	1.6
298.15	0.018	1501.7	1.6
298.15	0.021	1501.9	1.6
298.15	0.024	1501.8	1.6
298.15	0.027	1501.9	1.6
298.15	0.03	1501.8	1.6
298.15	0.033	1501.7	1.6
303.15	0	1511.4	1.6
303.15	0.003	1511.9	1.6
303.15	0.006	1512.4	1.6
303.15	0.009	1512.9	1.6
303.15	0.012	1513.4	1.6
303.15	0.015	1513.7	1.6
303.15	0.018	1513.7	1.6
303.15	0.021	1513.8	1.6
303.15	0.024	1513.8	1.6
303.15	0.027	1513.8	1.6
303.15	0.03	1513.8	1.6
303.15	0.033	1513.7	1.6
308.15	0	1521.9	1.6
308.15	0.003	1522.5	1.6
308.15	0.006	1522.9	1.6
308.15	0.009	1523.2	1.6
308.15	0.012	1523.6	1.6
308.15	0.015	1523.8	1.6
308.15	0.018	1523.9	1.6
308.15	0.021	1524	1.6
308.15	0.024	1524.1	1.6
308.15	0.027	1524	1.6
308.15	0.03	1523.9	1.6
308.15	0.033	1523.9	1.6
313.15	0	1531	1.6
313.15	0.003	1531.7	1.6
313.15	0.006	1531.8	1.6
313.15	0.009	1532.2	1.6
313.15	0.012	1532.5	1.6
313.15	0.015	1532.7	1.6
313.15	0.018	1532.7	1.6
313.15	0.021	1532.8	1.6
313.15	0.024	1532.8	1.6
313.15	0.027	1532.6	1.6
313.15	0.03	1532.6	1.6
313.15	0.033	1532.6	1.6
318.15	0	1538.6	1.6
318.15	0.003	1539	1.6
318.15	0.006	1539.2	1.6
318.15	0.009	1539.5	1.6
318.15	0.012	1539.8	1.6
318.15	0.015	1540.1	1.6
318.15	0.018	1540	1.6
318.15	0.021	1540.1	1.6
318.15	0.024	1540	1.6
318.15	0.027	1539.8	1.6
318.15	0.03	1539.8	1.6
318.15	0.033	1539.8	1.6

System: tetrapentylammonium bromide + dodecyltrimethylammonium bromide + water; phases: Liquid
Fixed: Pressure, kPa = 100
Fixed: Solvent: Molality, mol/kg of tetrapentylammonium bromide = 0.01
Property: Mass density, kg/m3 (Liquid); method: Vibrating tube method
Temperature, K	Molality, mol/kg of dodecyltrimethylammonium bromide	Mass density, kg/m3	uncertainty
293.15	0	998.34	0.38
293.15	0.003	998.54	0.38
293.15	0.006	998.59	0.38
293.15	0.009	998.63	0.38
293.15	0.012	998.68	0.38
293.15	0.015	998.74	0.38
293.15	0.018	998.78	0.38
293.15	0.021	998.83	0.38
293.15	0.024	998.87	0.38
293.15	0.027	998.9	0.38
293.15	0.03	998.96	0.38
293.15	0.033	998.99	0.38
298.15	0	997	0.38
298.15	0.003	997.34	0.38
298.15	0.006	997.39	0.38
298.15	0.009	997.44	0.38
298.15	0.012	997.49	0.38
298.15	0.015	997.54	0.38
298.15	0.018	997.59	0.38
298.15	0.021	997.62	0.38
298.15	0.024	997.67	0.38
298.15	0.027	997.72	0.38
298.15	0.03	997.76	0.38
298.15	0.033	997.79	0.38
303.15	0	995.7	0.38
303.15	0.003	995.89	0.38
303.15	0.006	995.96	0.38
303.15	0.009	996.01	0.38
303.15	0.012	996.1	0.38
303.15	0.015	996.11	0.38
303.15	0.018	996.15	0.38
303.15	0.021	996.18	0.38
303.15	0.024	996.23	0.38
303.15	0.027	996.27	0.38
303.15	0.03	996.31	0.38
303.15	0.033	996.38	0.38
308.15	0	994.05	0.38
308.15	0.003	994.28	0.38
308.15	0.006	994.32	0.38
308.15	0.009	994.37	0.38
308.15	0.012	994.41	0.38
308.15	0.015	994.46	0.38
308.15	0.018	994.49	0.38
308.15	0.021	994.53	0.38
308.15	0.024	994.57	0.38
308.15	0.027	994.61	0.38
308.15	0.03	994.65	0.38
308.15	0.033	994.68	0.38
313.15	0	991.93	0.38
313.15	0.003	992.3	0.38
313.15	0.006	992.37	0.38
313.15	0.009	992.42	0.38
313.15	0.012	992.5	0.38
313.15	0.015	992.56	0.38
313.15	0.018	992.6	0.4
313.15	0.021	992.67	0.38
313.15	0.024	992.71	0.38
313.15	0.027	992.75	0.38
313.15	0.03	992.8	0.38
313.15	0.033	992.86	0.38
318.15	0	990.16	0.38
318.15	0.003	990.39	0.38
318.15	0.006	990.44	0.38
318.15	0.009	990.49	0.38
318.15	0.012	990.54	0.38
318.15	0.015	990.58	0.38
318.15	0.018	990.61	0.38
318.15	0.021	990.64	0.38
318.15	0.024	990.67	0.38
318.15	0.027	990.71	0.38
318.15	0.03	990.74	0.38
318.15	0.033	990.78	0.38

System: tetrapentylammonium bromide + dodecyltrimethylammonium bromide + water; phases: Liquid
Fixed: Pressure, kPa = 100
Fixed: Solvent: Molality, mol/kg of tetrapentylammonium bromide = 0.01
Fixed: Frequency, MHz = 3
Property: Speed of sound, m/s (Liquid); method: Sing-around technique in a fixed-path interferometer
Temperature, K	Molality, mol/kg of dodecyltrimethylammonium bromide	Speed of sound, m/s	uncertainty
293.15	0	1485.3	1.6
293.15	0.003	1486.2	1.6
293.15	0.006	1487	1.6
293.15	0.009	1487.8	1.6
293.15	0.012	1488.4	1.6
293.15	0.015	1488.6	1.6
293.15	0.018	1488.4	1.6
293.15	0.021	1488.3	1.6
293.15	0.024	1488.6	1.6
293.15	0.027	1488.7	1.6
293.15	0.03	1488.9	1.6
293.15	0.033	1488.9	1.6
298.15	0	1499.1	1.6
298.15	0.003	1500	1.6
298.15	0.006	1500.6	1.6
298.15	0.009	1501.3	1.6
298.15	0.012	1501.9	1.6
298.15	0.015	1502.1	1.6
298.15	0.018	1501.9	1.6
298.15	0.021	1501.9	1.6
298.15	0.024	1502	1.6
298.15	0.027	1502.2	1.6
298.15	0.03	1502.2	1.6
298.15	0.033	1502.3	1.6
303.15	0	1511.2	1.6
303.15	0.003	1512.1	1.6
303.15	0.006	1512.6	1.6
303.15	0.009	1513.2	1.6
303.15	0.012	1513.7	1.6
303.15	0.015	1513.9	1.6
303.15	0.018	1513.8	1.6
303.15	0.021	1513.7	1.6
303.15	0.024	1513.8	1.6
303.15	0.027	1513.9	1.6
303.15	0.03	1514	1.6
303.15	0.033	1514.1	1.6
308.15	0	1521.6	1.6
308.15	0.003	1522.4	1.6
308.15	0.006	1522.9	1.6
308.15	0.009	1523.4	1.6
308.15	0.012	1523.8	1.6
308.15	0.015	1524.2	1.6
308.15	0.018	1524.1	1.6
308.15	0.021	1524	1.6
308.15	0.024	1524	1.6
308.15	0.027	1524	1.6
308.15	0.03	1524.1	1.6
308.15	0.033	1524.1	1.6
313.15	0	1530.5	1.6
313.15	0.003	1531.2	1.6
313.15	0.006	1531.7	1.6
313.15	0.009	1532.1	1.6
313.15	0.012	1532.6	1.6
313.15	0.015	1532.8	1.6
313.15	0.018	1532.7	1.6
313.15	0.021	1532.6	1.6
313.15	0.024	1532.6	1.6
313.15	0.027	1532.6	1.6
313.15	0.03	1532.7	1.6
313.15	0.033	1532.7	1.6
318.15	0	1537.9	1.6
318.15	0.003	1538.5	1.6
318.15	0.006	1539	1.6
318.15	0.009	1539.3	1.6
318.15	0.012	1539.7	1.6
318.15	0.015	1540	1.6
318.15	0.018	1539.9	1.6
318.15	0.021	1539.8	1.6
318.15	0.024	1539.7	1.6
318.15	0.027	1539.8	1.6
318.15	0.03	1539.8	1.6
318.15	0.033	1539.8	1.6

System: tetrapropylammonium iodide + water; phases: Liquid
Fixed: Pressure, kPa = 100
Fixed: Molality, mol/kg of tetrapropylammonium iodide = 0.01
Property: Mass density, kg/m3 (Liquid); method: Vibrating tube method
Temperature, K	Mass density, kg/m3	uncertainty
293.15	998.62	0.3
298.15	997.49	0.3
303.15	996	0.3
308.15	994.41	0.3
313.15	992.61	0.3
318.15	990.53	0.3

System: tetrapropylammonium iodide + water; phases: Liquid
Fixed: Pressure, kPa = 100
Fixed: Molality, mol/kg of tetrapropylammonium iodide = 0.01
Fixed: Frequency, MHz = 3
Property: Speed of sound, m/s (Liquid); method: Sing-around technique in a fixed-path interferometer
Temperature, K	Speed of sound, m/s	uncertainty
293.15	1484.5	1.2
298.15	1498.5	1.2
303.15	1510.9	1.2
308.15	1521.4	1.2
313.15	1530.4	1.2
318.15	1538	1.2

System: tetrabutylammonium bromide + water; phases: Liquid
Fixed: Pressure, kPa = 100
Fixed: Molality, mol/kg of tetrabutylammonium bromide = 0.01
Property: Mass density, kg/m3 (Liquid); method: Vibrating tube method
Temperature, K	Mass density, kg/m3	uncertainty
293.15	998.57	0.3
298.15	997.35	0.3
303.15	995.88	0.3
308.15	994.29	0.3
313.15	992.33	0.3
318.15	990.43	0.3

System: tetrabutylammonium bromide + water; phases: Liquid
Fixed: Pressure, kPa = 100
Fixed: Molality, mol/kg of tetrabutylammonium bromide = 0.01
Fixed: Frequency, MHz = 3
Property: Speed of sound, m/s (Liquid); method: Sing-around technique in a fixed-path interferometer
Temperature, K	Speed of sound, m/s	uncertainty
293.15	1485.3	1.2
298.15	1499.2	1.2
303.15	1511.4	1.2
308.15	1521.9	1.2
313.15	1531	1.2
318.15	1538.6	1.2

System: tetrapentylammonium bromide + water; phases: Liquid
Fixed: Pressure, kPa = 100
Fixed: Molality, mol/kg of tetrapentylammonium bromide = 0.01
Property: Mass density, kg/m3 (Liquid); method: Vibrating tube method
Temperature, K	Mass density, kg/m3	uncertainty
293.15	998.34	0.3
298.15	997	0.3
303.15	995.7	0.3
308.15	994.05	0.3
313.15	991.93	0.3
318.15	990.16	0.3

System: tetrapentylammonium bromide + water; phases: Liquid
Fixed: Pressure, kPa = 100
Fixed: Molality, mol/kg of tetrapentylammonium bromide = 0.01
Fixed: Frequency, MHz = 3
Property: Speed of sound, m/s (Liquid); method: Sing-around technique in a fixed-path interferometer
Temperature, K	Speed of sound, m/s	uncertainty
293.15	1485.3	1.2
298.15	1499.1	1.2
303.15	1511.2	1.2
308.15	1521.6	1.2
313.15	1530.5	1.2
318.15	1537.9	1.2
