Measured thermophysical data. Solubility of MoO3 in NaClO4 Solutions at 573 K
Source: J. Chem. Eng. Data, 2017, 10.1021/acs.jced.7b00527
Compound 1: molybdenum oxide (MoO3), MoO3, InChI=1S/Mo.3O/q+6;3*-2, purity 98%
Compound 2: sodium perchlorate, ClNaO4, InChI=1S/ClHO4.Na/c2-1(3,4)5;/h(H,2,3,4,5);/q;+1/p-1, purity 98%
Compound 3: water, H2O, InChI=1S/H2O/h1H2, purity 99.8%

System: molybdenum oxide (MoO3) + sodium perchlorate + water; phases: Liquid, Crystal
Fixed: Temperature, K = 573
Fixed: Pressure, kPa = 10000
Property: Molality, mol/kg of molybdenum oxide (MoO3) (Liquid); method: spectrometry
Solvent: Molality, mol/kg of sodium perchlorate	Molality, mol/kg of molybdenum oxide (MoO3)	uncertainty
0.005	0.0166	0.0083
0.005	0.0158	0.0079
0.01	0.0166	0.0083
0.01	0.0166	0.0083
0.02	0.0162	0.0081
0.05	0.0182	0.0091
0.05	0.0204	0.0102
0.1	0.0219	0.011
0.51	0.0316	0.0158
1.05	0.0363	0.0182
1.62	0.0302	0.0151
2.21	0.0331	0.0166
0.3	0.0234	0.0117
0.73	0.0269	0.0135
1.39	0.0309	0.0155
1.85	0.0324	0.0162
