Measured thermophysical data. Densities and Apparent Molar Volumes of Aqueous Solutions of K4Fe(CN)6, K3Fe(CN)6, K3Co(CN)6, K2Ni(CN)4, and KAg(CN)2 at 293 to 343 K
Source: J. Chem. Eng. Data, 2018, 10.1021/acs.jced.8b00513
Compound 1: potassium ferrocyanide, C6FeK4N6, InChI=1S/6CN.Fe.4K/c6*1-2;;;;;/q6*-1;+2;4*+1, purity 98.5%
Compound 2: potassium ferricyanide, C6FeK3N6, InChI=1S/6CN.Fe.3K/c6*1-2;;;;/q6*-1;+3;3*+1, purity 99.9%
Compound 3: potassium hexacyanocobaltate(III), C6CoK3N6, InChI=1S/6CN.Co.3K/c6*1-2;;;;/q;;;;;;-3;3*+1, purity 99.5%
Compound 4: potassium tetracyanonickelate(II), C4K2N4Ni, InChI=1S/4CN.2K.Ni/c4*1-2;;;/q;;;;2*+1;-2, purity 99%
Compound 5: potassium dicyanoargentate(I), C2AgKN2, InChI=1S/2CN.Ag.K/c2*1-2;;/q;;-1;+1, purity 99%
Compound 6: water, H2O, InChI=1S/H2O/h1H2, purity 99.8%

System: water; phases: Liquid
Fixed: Pressure, kPa = 101.325
Property: Mass density, kg/m3 (Liquid); method: Vibrating tube method
Temperature, K	Mass density, kg/m3	uncertainty
293.15	998.207	0.999
298.15	997.047	0.998
303.15	995.649	0.996
308.15	994.033	0.995
313.15	992.216	0.993
318.15	990.213	0.991
323.15	988.035	0.999
328.15	985.693	0.999
333.15	983.196	0.984
338.15	980.551	0.981
343.15	977.765	0.979

System: potassium ferrocyanide + water; phases: Liquid
Fixed: Pressure, kPa = 100
Property: Mass density, kg/m3 (Liquid); method: Vibrating tube method
Temperature, K	Molality, mol/kg of potassium ferrocyanide	Mass density, kg/m3	uncertainty
298.15	0.02006	4.992	0.035
298.15	0.0301	7.445	0.038
298.15	0.04007	9.855	0.04
298.15	0.05003	12.252	0.042
298.15	0.05995	14.615	0.045
298.15	0.08023	19.406	0.05
298.15	0.09994	24.005	0.057
298.15	0.12019	28.686	0.063
298.15	0.14987	35.457	0.073
298.15	0.19988	46.663	0.089
298.15	0.2497	57.543	0.105
298.15	0.29983	68.259	0.121
298.15	0.39972	88.925	0.153
298.15	0.02006	4.954	0.035
298.15	0.0301	7.387	0.038
298.15	0.04007	9.779	0.04
298.15	0.05003	12.158	0.042
298.15	0.05995	14.501	0.045
298.15	0.08023	19.261	0.05
298.15	0.09994	23.827	0.056
298.15	0.12019	28.48	0.063
298.15	0.14987	35.205	0.073
298.15	0.19988	46.34	0.089
298.15	0.2497	57.159	0.105
298.15	0.29983	67.808	0.12
298.15	0.39972	88.368	0.151
303.15	0.02006	4.926	0.035
303.15	0.0301	7.348	0.037
303.15	0.04007	9.724	0.04
303.15	0.05003	12.084	0.042
303.15	0.05995	14.41	0.045
303.15	0.08023	19.147	0.05
303.15	0.09994	23.687	0.056
303.15	0.12019	28.313	0.063
303.15	0.14987	34.999	0.072
303.15	0.19988	46.076	0.088
303.15	0.2497	56.847	0.104
303.15	0.29983	67.431	0.12
303.15	0.39972	87.94	0.152
308.15	0.02006	4.9	0.035
308.15	0.0301	7.308	0.037
308.15	0.04007	9.67	0.04
308.15	0.05003	12.021	0.042
308.15	0.05995	14.334	0.045
308.15	0.08023	19.046	0.05
308.15	0.09994	23.562	0.056
308.15	0.12019	28.169	0.062
308.15	0.14987	34.822	0.072
308.15	0.19988	45.845	0.088
308.15	0.2497	56.573	0.104
308.15	0.29983	67.115	0.119
308.15	0.39972	87.539	0.151
313.15	0.02006	4.879	0.035
313.15	0.0301	7.273	0.037
313.15	0.04007	9.628	0.04
313.15	0.05003	11.969	0.042
313.15	0.05995	14.273	0.044
313.15	0.08023	18.963	0.05
313.15	0.09994	23.457	0.056
313.15	0.12019	28.048	0.062
313.15	0.14987	34.676	0.072
313.15	0.19988	45.658	0.088
313.15	0.2497	56.345	0.104
313.15	0.29983	66.85	0.119
313.15	0.39972	87.201	0.15
318.15	0.02006	4.86	0.035
318.15	0.0301	7.247	0.037
318.15	0.04007	9.591	0.04
318.15	0.05003	11.923	0.042
318.15	0.05995	14.221	0.044
318.15	0.08023	18.895	0.05
318.15	0.09994	23.378	0.056
318.15	0.12019	27.95	0.062
318.15	0.14987	34.554	0.071
318.15	0.19988	45.499	0.088
318.15	0.2497	56.154	0.103
318.15	0.29983	66.634	0.118
318.15	0.39972	86.92	0.15
323.15	0.02006	4.846	0.035
323.15	0.0301	7.224	0.037
323.15	0.04007	9.564	0.04
323.15	0.05003	11.89	0.042
323.15	0.05995	14.18	0.044
323.15	0.08023	18.839	0.049
323.15	0.09994	23.31	0.056
323.15	0.12019	27.867	0.062
323.15	0.14987	34.456	0.071
323.15	0.19988	45.376	0.087
323.15	0.2497	56.001	0.103
323.15	0.29983	66.462	0.118
323.15	0.39972	86.69	0.149
328.15	0.02006	4.832	0.035
328.15	0.0301	7.207	0.037
328.15	0.04007	9.541	0.04
328.15	0.05003	11.864	0.042
328.15	0.05995	14.149	0.044
328.15	0.08023	18.796	0.049
328.15	0.09994	23.257	0.056
328.15	0.12019	27.805	0.062
328.15	0.14987	34.381	0.071
328.15	0.19988	45.277	0.087
328.15	0.2497	55.878	0.103
328.15	0.29983	66.324	0.118
328.15	0.39972	86.502	0.149
333.15	0.02006	4.824	0.035
333.15	0.0301	7.19	0.037
333.15	0.04007	9.523	0.04
333.15	0.05003	11.841	0.042
333.15	0.05995	14.126	0.044
333.15	0.08023	18.763	0.049
333.15	0.09994	23.217	0.055
333.15	0.12019	27.757	0.062
333.15	0.14987	34.321	0.071
333.15	0.19988	45.201	0.087
333.15	0.2497	55.782	0.103
333.15	0.29983	66.22	0.118
333.15	0.39972	86.357	0.149
338.15	0.02006	4.82	0.035
338.15	0.0301	7.185	0.037
338.15	0.04007	9.511	0.04
338.15	0.05003	11.829	0.042
338.15	0.05995	14.11	0.044
338.15	0.08023	18.744	0.049
338.15	0.09994	23.19	0.055
338.15	0.12019	27.725	0.062
338.15	0.14987	34.281	0.071
338.15	0.19988	45.149	0.087
338.15	0.2497	55.719	0.103
338.15	0.29983	66.143	0.118
338.15	0.39972	86.262	0.149
343.15	0.02006	4.816	0.035
343.15	0.0301	7.18	0.037
343.15	0.04007	9.508	0.04
343.15	0.05003	11.82	0.042
343.15	0.05995	14.103	0.044
343.15	0.08023	18.729	0.049
343.15	0.09994	23.175	0.055
343.15	0.12019	27.706	0.062
343.15	0.14987	34.258	0.071
343.15	0.19988	45.118	0.087
343.15	0.2497	55.677	0.103
343.15	0.29983	66.095	0.118
343.15	0.39972	86.204	0.149

System: potassium ferricyanide + water; phases: Liquid
Fixed: Pressure, kPa = 100
Property: Mass density, kg/m3 (Liquid); method: Vibrating tube method
Temperature, K	Molality, mol/kg of potassium ferricyanide	Mass density, kg/m3	uncertainty
293.15	0.01813	3.277	0.034
293.15	0.02721	4.897	0.035
293.15	0.03657	6.554	0.037
293.15	0.04528	8.093	0.038
293.15	0.05438	9.68	0.04
293.15	0.07277	12.878	0.043
293.15	0.09066	15.958	0.046
293.15	0.10848	19.004	0.05
293.15	0.13528	23.522	0.056
293.15	0.18087	31.102	0.067
293.15	0.22467	38.224	0.077
293.15	0.26903	45.288	0.087
293.15	0.3997	65.318	0.117
298.15	0.01813	3.247	0.034
298.15	0.02721	4.854	0.035
298.15	0.03657	6.498	0.037
298.15	0.04528	8.023	0.038
298.15	0.05438	9.598	0.04
298.15	0.07277	12.773	0.043
298.15	0.09066	15.825	0.046
298.15	0.10848	18.846	0.049
298.15	0.13528	23.329	0.056
298.15	0.18087	30.852	0.066
298.15	0.22467	37.922	0.076
298.15	0.26903	44.935	0.086
298.15	0.3997	64.844	0.116
303.15	0.01813	3.225	0.034
303.15	0.02721	4.824	0.035
303.15	0.03657	6.451	0.037
303.15	0.04528	7.961	0.038
303.15	0.05438	9.527	0.04
303.15	0.07277	12.684	0.043
303.15	0.09066	15.713	0.046
303.15	0.10848	18.718	0.049
303.15	0.13528	23.176	0.055
303.15	0.18087	30.649	0.066
303.15	0.22467	37.689	0.076
303.15	0.26903	44.637	0.086
303.15	0.3997	64.434	0.116
308.15	0.01813	3.207	0.034
308.15	0.02721	4.793	0.035
308.15	0.03657	6.412	0.037
308.15	0.04528	7.911	0.038
308.15	0.05438	9.472	0.04
308.15	0.07277	12.609	0.043
308.15	0.09066	15.62	0.046
308.15	0.10848	18.608	0.049
308.15	0.13528	23.039	0.055
308.15	0.18087	30.474	0.066
308.15	0.22467	37.473	0.076
308.15	0.26903	44.389	0.085
308.15	0.3997	64.09	0.115
313.15	0.01813	3.192	0.034
313.15	0.02721	4.77	0.035
313.15	0.03657	6.382	0.037
313.15	0.04528	7.874	0.038
313.15	0.05438	9.427	0.04
313.15	0.07277	12.546	0.043
313.15	0.09066	15.545	0.046
313.15	0.10848	18.518	0.049
313.15	0.13528	22.927	0.055
313.15	0.18087	30.326	0.065
313.15	0.22467	37.291	0.075
313.15	0.26903	44.183	0.085
313.15	0.3997	63.803	0.115
318.15	0.01813	3.179	0.034
318.15	0.02721	4.751	0.035
318.15	0.03657	6.351	0.037
318.15	0.04528	7.844	0.038
318.15	0.05438	9.39	0.039
318.15	0.07277	12.493	0.043
318.15	0.09066	15.483	0.046
318.15	0.10848	18.446	0.049
318.15	0.13528	22.835	0.055
318.15	0.18087	30.209	0.065
318.15	0.22467	37.142	0.075
318.15	0.26903	44.012	0.085
318.15	0.3997	63.563	0.115
323.15	0.01813	3.169	0.034
323.15	0.02721	4.733	0.035
323.15	0.03657	6.336	0.037
323.15	0.04528	7.819	0.038
323.15	0.05438	9.363	0.039
323.15	0.07277	12.45	0.043
323.15	0.09066	15.433	0.046
323.15	0.10848	18.384	0.049
323.15	0.13528	22.762	0.055
323.15	0.18087	30.11	0.065
323.15	0.22467	37.017	0.075
323.15	0.26903	43.876	0.085
323.15	0.3997	63.377	0.114
328.15	0.01813	3.162	0.034
328.15	0.02721	4.718	0.035
328.15	0.03657	6.32	0.037
328.15	0.04528	7.797	0.038
328.15	0.05438	9.337	0.039
328.15	0.07277	12.419	0.043
328.15	0.09066	15.398	0.046
328.15	0.10848	18.338	0.049
328.15	0.13528	22.706	0.055
328.15	0.18087	30.033	0.065
328.15	0.22467	36.921	0.075
328.15	0.26903	43.77	0.084
328.15	0.3997	63.228	0.114
333.15	0.01813	3.156	0.034
333.15	0.02721	4.713	0.035
333.15	0.03657	6.311	0.037
333.15	0.04528	7.787	0.038
333.15	0.05438	9.323	0.039
333.15	0.07277	12.396	0.043
333.15	0.09066	15.369	0.046
333.15	0.10848	18.306	0.049
333.15	0.13528	22.663	0.055
333.15	0.18087	29.979	0.065
333.15	0.22467	36.847	0.075
333.15	0.26903	43.691	0.084
333.15	0.3997	63.118	0.114
338.15	0.01813	3.152	0.034
338.15	0.02721	4.707	0.035
338.15	0.03657	6.304	0.037
338.15	0.04528	7.78	0.038
338.15	0.05438	9.31	0.039
338.15	0.07277	12.383	0.043
338.15	0.09066	15.352	0.046
338.15	0.10848	18.285	0.049
338.15	0.13528	22.636	0.055
338.15	0.18087	29.943	0.065
338.15	0.22467	36.799	0.075
338.15	0.26903	43.638	0.084
338.15	0.3997	63.042	0.114
343.15	0.01813	3.15	0.034
343.15	0.02721	4.706	0.035
343.15	0.03657	6.302	0.037
343.15	0.04528	7.781	0.038
343.15	0.05438	9.304	0.039
343.15	0.07277	12.382	0.043
343.15	0.09066	15.346	0.046
343.15	0.10848	18.272	0.049
343.15	0.13528	22.625	0.055
343.15	0.18087	29.927	0.065
343.15	0.22467	36.774	0.075
343.15	0.26903	43.61	0.084
343.15	0.3997	62.999	0.114

System: potassium hexacyanocobaltate(III) + water; phases: Liquid
Fixed: Pressure, kPa = 100
Property: Mass density, kg/m3 (Liquid); method: Vibrating tube method
Temperature, K	Molality, mol/kg of potassium hexacyanocobaltate(III)	Mass density, kg/m3	uncertainty
293.15	0.01504	2.81	0.033
293.15	0.02501	4.649	0.035
293.15	0.02953	5.485	0.036
293.15	0.04081	7.552	0.038
293.15	0.05018	9.259	0.039
293.15	0.06136	11.275	0.041
293.15	0.08045	14.701	0.045
293.15	0.10117	18.38	0.049
293.15	0.1201	21.724	0.053
293.15	0.15131	27.165	0.061
293.15	0.2013	35.743	0.073
293.15	0.25288	44.43	0.086
293.15	0.30235	52.595	0.098
293.15	0.35668	61.366	0.111
298.15	0.01504	2.788	0.033
298.15	0.02501	4.613	0.035
298.15	0.02953	5.439	0.036
298.15	0.04081	7.494	0.038
298.15	0.05018	9.182	0.039
298.15	0.06136	11.178	0.041
298.15	0.08045	14.58	0.045
298.15	0.10117	18.236	0.049
298.15	0.1201	21.553	0.053
298.15	0.15131	26.959	0.061
298.15	0.2013	35.477	0.073
298.15	0.25288	44.102	0.086
298.15	0.30235	52.21	0.097
298.15	0.35668	60.93	0.111
303.15	0.01504	2.769	0.033
303.15	0.02501	4.584	0.035
303.15	0.02953	5.403	0.036
303.15	0.04081	7.444	0.038
303.15	0.05018	9.119	0.039
303.15	0.06136	11.102	0.041
303.15	0.08045	14.482	0.045
303.15	0.10117	18.113	0.049
303.15	0.1201	21.409	0.053
303.15	0.15131	26.784	0.06
303.15	0.2013	35.249	0.073
303.15	0.25288	43.828	0.085
303.15	0.30235	51.886	0.097
303.15	0.35668	60.563	0.11
308.15	0.01504	2.751	0.033
308.15	0.02501	4.56	0.035
308.15	0.02953	5.372	0.036
308.15	0.04081	7.401	0.038
308.15	0.05018	9.069	0.039
308.15	0.06136	11.041	0.041
308.15	0.08045	14.401	0.045
308.15	0.10117	18.013	0.049
308.15	0.1201	21.29	0.053
308.15	0.15131	26.636	0.06
308.15	0.2013	35.057	0.072
308.15	0.25288	43.595	0.085
308.15	0.30235	51.619	0.096
308.15	0.35668	60.256	0.11
313.15	0.01504	2.739	0.033
313.15	0.02501	4.539	0.035
313.15	0.02953	5.348	0.036
313.15	0.04081	7.366	0.038
313.15	0.05018	9.026	0.039
313.15	0.06136	10.991	0.041
313.15	0.08045	14.334	0.045
313.15	0.10117	17.929	0.048
313.15	0.1201	21.192	0.053
313.15	0.15131	26.513	0.06
313.15	0.2013	34.896	0.072
313.15	0.25288	43.401	0.084
313.15	0.30235	51.394	0.096
313.15	0.35668	60	0.109
318.15	0.01504	2.729	0.033
318.15	0.02501	4.518	0.035
318.15	0.02953	5.328	0.036
318.15	0.04081	7.337	0.037
318.15	0.05018	8.991	0.039
318.15	0.06136	10.948	0.041
318.15	0.08045	14.28	0.045
318.15	0.10117	17.861	0.048
318.15	0.1201	21.116	0.053
318.15	0.15131	26.41	0.06
318.15	0.2013	34.766	0.072
318.15	0.25288	43.239	0.084
318.15	0.30235	51.209	0.096
318.15	0.35668	59.787	0.109
323.15	0.01504	2.72	0.033
323.15	0.02501	4.503	0.035
323.15	0.02953	5.312	0.036
323.15	0.04081	7.316	0.037
323.15	0.05018	8.964	0.039
323.15	0.06136	10.918	0.041
323.15	0.08045	14.238	0.044
323.15	0.10117	17.805	0.048
323.15	0.1201	21.05	0.052
323.15	0.15131	26.326	0.06
323.15	0.2013	34.666	0.072
323.15	0.25288	43.109	0.084
323.15	0.30235	51.063	0.096
323.15	0.35668	59.62	0.109
328.15	0.01504	2.715	0.033
328.15	0.02501	4.492	0.035
328.15	0.02953	5.297	0.036
328.15	0.04081	7.298	0.037
328.15	0.05018	8.947	0.039
328.15	0.06136	10.895	0.041
328.15	0.08045	14.204	0.044
328.15	0.10117	17.763	0.048
328.15	0.1201	21.004	0.052
328.15	0.15131	26.26	0.06
328.15	0.2013	34.587	0.072
328.15	0.25288	43.015	0.084
328.15	0.30235	50.953	0.096
328.15	0.35668	59.49	0.108
333.15	0.01504	2.713	0.033
333.15	0.02501	4.486	0.035
333.15	0.02953	5.291	0.036
333.15	0.04081	7.288	0.037
333.15	0.05018	8.929	0.039
333.15	0.06136	10.877	0.041
333.15	0.08045	14.181	0.044
333.15	0.10117	17.731	0.048
333.15	0.1201	20.969	0.052
333.15	0.15131	26.213	0.06
333.15	0.2013	34.534	0.072
333.15	0.25288	42.944	0.084
333.15	0.30235	50.869	0.095
333.15	0.35668	59.393	0.108
338.15	0.01504	2.711	0.033
338.15	0.02501	4.483	0.035
338.15	0.02953	5.287	0.036
338.15	0.04081	7.282	0.037
338.15	0.05018	8.921	0.039
338.15	0.06136	10.871	0.041
338.15	0.08045	14.167	0.044
338.15	0.10117	17.717	0.048
338.15	0.1201	20.948	0.052
338.15	0.15131	26.187	0.06
338.15	0.2013	34.497	0.072
338.15	0.25288	42.897	0.084
338.15	0.30235	50.818	0.095
338.15	0.35668	59.33	0.108
343.15	0.01504	2.711	0.033
343.15	0.02501	4.483	0.035
343.15	0.02953	5.284	0.036
343.15	0.04081	7.282	0.038
343.15	0.05018	8.921	0.039
343.15	0.06136	10.867	0.041
343.15	0.08045	14.165	0.044
343.15	0.10117	17.71	0.048
343.15	0.1201	20.938	0.052
343.15	0.15131	26.176	0.06
343.15	0.2013	34.483	0.072
343.15	0.25288	42.877	0.084
343.15	0.30235	50.789	0.095
343.15	0.35668	59.301	0.108

System: potassium tetracyanonickelate(II) + water; phases: Liquid
Fixed: Pressure, kPa = 100
Property: Mass density, kg/m3 (Liquid); method: Vibrating tube method
Temperature, K	Molality, mol/kg of potassium tetracyanonickelate(II)	Mass density, kg/m3	uncertainty
293.15	0.02009	2.589	0.033
293.15	0.03016	3.873	0.034
293.15	0.04015	5.152	0.035
293.15	0.05036	6.456	0.037
293.15	0.06049	7.736	0.038
293.15	0.08047	10.258	0.04
293.15	0.10052	12.774	0.043
293.15	0.12061	15.271	0.046
293.15	0.15107	19.033	0.05
293.15	0.20044	25.074	0.058
293.15	0.25014	31.054	0.067
293.15	0.30041	37.001	0.075
293.15	0.34766	42.518	0.083
293.15	0.39726	48.252	0.092
298.15	0.02009	2.561	0.033
298.15	0.03016	3.837	0.034
298.15	0.04015	5.103	0.035
298.15	0.05036	6.385	0.037
298.15	0.06049	7.654	0.038
298.15	0.08047	10.144	0.04
298.15	0.10052	12.635	0.043
298.15	0.12061	15.107	0.045
298.15	0.15107	18.831	0.049
298.15	0.20044	24.812	0.058
298.15	0.25014	30.728	0.066
298.15	0.30041	36.616	0.075
298.15	0.34766	42.081	0.083
298.15	0.39726	47.756	0.091
303.15	0.02009	2.54	0.033
303.15	0.03016	3.801	0.034
303.15	0.04015	5.054	0.035
303.15	0.05036	6.326	0.037
303.15	0.06049	7.585	0.038
303.15	0.08047	10.053	0.04
303.15	0.10052	12.518	0.043
303.15	0.12061	14.968	0.045
303.15	0.15107	18.655	0.049
303.15	0.20044	24.583	0.057
303.15	0.25014	30.446	0.066
303.15	0.30041	36.281	0.074
303.15	0.34766	41.7	0.082
303.15	0.39726	47.327	0.09
308.15	0.02009	2.521	0.033
308.15	0.03016	3.773	0.034
308.15	0.04015	5.016	0.035
308.15	0.05036	6.277	0.036
308.15	0.06049	7.526	0.038
308.15	0.08047	9.975	0.04
308.15	0.10052	12.418	0.043
308.15	0.12061	14.848	0.045
308.15	0.15107	18.501	0.049
308.15	0.20044	24.386	0.057
308.15	0.25014	30.199	0.065
308.15	0.30041	35.992	0.074
308.15	0.34766	41.365	0.081
308.15	0.39726	46.952	0.09
313.15	0.02009	2.504	0.033
313.15	0.03016	3.749	0.034
313.15	0.04015	4.981	0.035
313.15	0.05036	6.235	0.036
313.15	0.06049	7.475	0.038
313.15	0.08047	9.908	0.04
313.15	0.10052	12.33	0.042
313.15	0.12061	14.748	0.045
313.15	0.15107	18.376	0.049
313.15	0.20044	24.215	0.057
313.15	0.25014	29.985	0.065
313.15	0.30041	35.738	0.073
313.15	0.34766	41.068	0.081
313.15	0.39726	46.622	0.089
318.15	0.02009	2.492	0.033
318.15	0.03016	3.725	0.034
318.15	0.04015	4.954	0.035
318.15	0.05036	6.199	0.036
318.15	0.06049	7.431	0.038
318.15	0.08047	9.854	0.04
318.15	0.10052	12.257	0.042
318.15	0.12061	14.66	0.045
318.15	0.15107	18.269	0.049
318.15	0.20044	24.066	0.057
318.15	0.25014	29.799	0.065
318.15	0.30041	35.518	0.073
318.15	0.34766	40.814	0.081
318.15	0.39726	46.332	0.089
323.15	0.02009	2.48	0.033
323.15	0.03016	3.712	0.034
323.15	0.04015	4.936	0.035
323.15	0.05036	6.172	0.036
323.15	0.06049	7.396	0.038
323.15	0.08047	9.805	0.04
323.15	0.10052	12.196	0.042
323.15	0.12061	14.582	0.045
323.15	0.15107	18.176	0.049
323.15	0.20044	23.942	0.056
323.15	0.25014	29.64	0.064
323.15	0.30041	35.331	0.073
323.15	0.34766	40.593	0.08
323.15	0.39726	46.084	0.089
328.15	0.02009	2.474	0.033
328.15	0.03016	3.701	0.034
328.15	0.04015	4.915	0.035
328.15	0.05036	6.151	0.036
328.15	0.06049	7.369	0.038
328.15	0.08047	9.767	0.04
328.15	0.10052	12.144	0.042
328.15	0.12061	14.521	0.045
328.15	0.15107	18.099	0.049
328.15	0.20044	23.835	0.056
328.15	0.25014	29.504	0.064
328.15	0.30041	35.168	0.072
328.15	0.34766	40.407	0.08
328.15	0.39726	45.871	0.088
333.15	0.02009	2.469	0.033
333.15	0.03016	3.693	0.034
333.15	0.04015	4.906	0.035
333.15	0.05036	6.131	0.036
333.15	0.06049	7.347	0.038
333.15	0.08047	9.734	0.04
333.15	0.10052	12.105	0.042
333.15	0.12061	14.47	0.045
333.15	0.15107	18.034	0.049
333.15	0.20044	23.75	0.056
333.15	0.25014	29.394	0.064
333.15	0.30041	35.037	0.072
333.15	0.34766	40.248	0.08
333.15	0.39726	45.689	0.088
338.15	0.02009	2.468	0.033
338.15	0.03016	3.688	0.034
338.15	0.04015	4.9	0.035
338.15	0.05036	6.122	0.036
338.15	0.06049	7.329	0.038
338.15	0.08047	9.714	0.04
338.15	0.10052	12.074	0.042
338.15	0.12061	14.43	0.045
338.15	0.15107	17.984	0.049
338.15	0.20044	23.68	0.056
338.15	0.25014	29.304	0.064
338.15	0.30041	34.926	0.072
338.15	0.34766	40.119	0.08
338.15	0.39726	45.538	0.088
343.15	0.02009	2.468	0.033
343.15	0.03016	3.688	0.034
343.15	0.04015	4.898	0.035
343.15	0.05036	6.114	0.036
343.15	0.06049	7.319	0.038
343.15	0.08047	9.694	0.04
343.15	0.10052	12.055	0.042
343.15	0.12061	14.403	0.045
343.15	0.15107	17.946	0.048
343.15	0.20044	23.623	0.056
343.15	0.25014	29.233	0.064
343.15	0.30041	34.839	0.072
343.15	0.34766	40.015	0.079
343.15	0.39726	45.419	0.088

System: potassium dicyanoargentate(I) + water; phases: Liquid
Fixed: Pressure, kPa = 100
Property: Mass density, kg/m3 (Liquid); method: Vibrating tube method
Temperature, K	Molality, mol/kg of potassium dicyanoargentate(I)	Mass density, kg/m3	uncertainty
293.15	0.02005	2.566	0.033
293.15	0.03005	3.843	0.034
293.15	0.04021	5.133	0.035
293.15	0.05015	6.394	0.037
293.15	0.06026	7.678	0.038
293.15	0.08034	10.215	0.04
293.15	0.10063	12.782	0.043
293.15	0.12065	15.289	0.046
293.15	0.15054	19.031	0.05
293.15	0.19998	25.168	0.058
293.15	0.25068	31.396	0.067
293.15	0.29986	37.397	0.076
293.15	0.35032	43.472	0.085
298.15	0.02005	2.546	0.033
298.15	0.03005	3.811	0.034
298.15	0.04021	5.086	0.035
298.15	0.05015	6.34	0.037
298.15	0.06026	7.607	0.038
298.15	0.08034	10.13	0.04
298.15	0.10063	12.671	0.043
298.15	0.12065	15.157	0.046
298.15	0.15054	18.869	0.05
298.15	0.19998	24.949	0.058
298.15	0.25068	31.126	0.067
298.15	0.29986	37.069	0.076
298.15	0.35032	43.108	0.085
303.15	0.02005	2.526	0.033
303.15	0.03005	3.779	0.034
303.15	0.04021	5.046	0.035
303.15	0.05015	6.288	0.036
303.15	0.06026	7.543	0.038
303.15	0.08034	10.051	0.04
303.15	0.10063	12.567	0.043
303.15	0.12065	15.032	0.045
303.15	0.15054	18.717	0.049
303.15	0.19998	24.748	0.058
303.15	0.25068	30.881	0.066
303.15	0.29986	36.774	0.075
303.15	0.35032	42.769	0.084
308.15	0.02005	2.506	0.033
308.15	0.03005	3.752	0.034
308.15	0.04021	5.009	0.035
308.15	0.05015	6.237	0.036
308.15	0.06026	7.488	0.038
308.15	0.08034	9.977	0.04
308.15	0.10063	12.474	0.043
308.15	0.12065	14.917	0.045
308.15	0.15054	18.573	0.049
308.15	0.19998	24.561	0.057
308.15	0.25068	30.654	0.066
308.15	0.29986	36.503	0.075
308.15	0.35032	42.454	0.084
313.15	0.02005	2.489	0.033
313.15	0.03005	3.724	0.034
313.15	0.04021	4.976	0.035
313.15	0.05015	6.194	0.036
313.15	0.06026	7.433	0.038
313.15	0.08034	9.905	0.04
313.15	0.10063	12.384	0.043
313.15	0.12065	14.811	0.045
313.15	0.15054	18.442	0.049
313.15	0.19998	24.387	0.057
313.15	0.25068	30.439	0.066
313.15	0.29986	36.247	0.074
313.15	0.35032	42.161	0.083
318.15	0.02005	2.47	0.033
318.15	0.03005	3.699	0.034
318.15	0.04021	4.944	0.035
318.15	0.05015	6.153	0.036
318.15	0.06026	7.385	0.038
318.15	0.08034	9.841	0.04
318.15	0.10063	12.299	0.042
318.15	0.12065	14.712	0.045
318.15	0.15054	18.318	0.049
318.15	0.19998	24.224	0.057
318.15	0.25068	30.24	0.066
318.15	0.29986	36.01	0.074
318.15	0.35032	41.887	0.083
323.15	0.02005	2.457	0.033
323.15	0.03005	3.672	0.034
323.15	0.04021	4.912	0.035
323.15	0.05015	6.116	0.036
323.15	0.06026	7.345	0.038
323.15	0.08034	9.779	0.04
323.15	0.10063	12.22	0.042
323.15	0.12065	14.62	0.045
323.15	0.15054	18.207	0.049
323.15	0.19998	24.073	0.057
323.15	0.25068	30.055	0.065
323.15	0.29986	35.791	0.074
323.15	0.35032	41.633	0.082
328.15	0.02005	2.444	0.033
328.15	0.03005	3.655	0.034
328.15	0.04021	4.884	0.035
328.15	0.05015	6.081	0.036
328.15	0.06026	7.304	0.037
328.15	0.08034	9.723	0.04
328.15	0.10063	12.147	0.042
328.15	0.12065	14.534	0.045
328.15	0.15054	18.1	0.049
328.15	0.19998	23.932	0.057
328.15	0.25068	29.88	0.065
328.15	0.29986	35.583	0.073
328.15	0.35032	41.395	0.082
333.15	0.02005	2.428	0.033
333.15	0.03005	3.636	0.034
333.15	0.04021	4.861	0.035
333.15	0.05015	6.053	0.036
333.15	0.06026	7.269	0.037
333.15	0.08034	9.673	0.04
333.15	0.10063	12.083	0.042
333.15	0.12065	14.457	0.045
333.15	0.15054	17.999	0.049
333.15	0.19998	23.8	0.056
333.15	0.25068	29.715	0.065
333.15	0.29986	35.39	0.073
333.15	0.35032	41.168	0.082
338.15	0.02005	2.416	0.033
338.15	0.03005	3.618	0.034
338.15	0.04021	4.837	0.035
338.15	0.05015	6.022	0.036
338.15	0.06026	7.232	0.037
338.15	0.08034	9.624	0.04
338.15	0.10063	12.02	0.042
338.15	0.12065	14.384	0.045
338.15	0.15054	17.907	0.049
338.15	0.19998	23.678	0.056
338.15	0.25068	29.563	0.065
338.15	0.29986	35.208	0.073
338.15	0.35032	40.956	0.081
343.15	0.02005	2.405	0.033
343.15	0.03005	3.605	0.034
343.15	0.04021	4.82	0.035
343.15	0.05015	5.999	0.036
343.15	0.06026	7.2	0.037
343.15	0.08034	9.584	0.04
343.15	0.10063	11.97	0.042
343.15	0.12065	14.317	0.045
343.15	0.15054	17.822	0.048
343.15	0.19998	23.562	0.056
343.15	0.25068	29.417	0.064
343.15	0.29986	35.036	0.073
343.15	0.35032	40.758	0.081
