Measured thermophysical data. Solubility Determination and Thermodynamic Modeling of 2-Mercaptobenzimidazole in 12 Solvents from T = 278.15 K to T = 318.15 K
Source: J. Chem. Eng. Data, 2019, 10.1021/acs.jced.9b00190
Compound 1: 2-benzimidazolethiol, C7H6N2S, InChI=1S/C7H6N2S/c10-7-8-5-3-1-2-4-6(5)9-7/h1-4H,(H2,8,9,10), purity 99.6%
Compound 2: methanol, CH4O, InChI=1S/CH4O/c1-2/h2H,1H3, purity 99.6%
Compound 3: ethanol, C2H6O, InChI=1S/C2H6O/c1-2-3/h3H,2H2,1H3, purity 99.4%
Compound 4: propan-1-ol, C3H8O, InChI=1S/C3H8O/c1-2-3-4/h4H,2-3H2,1H3, purity 99.5%
Compound 5: propan-2-ol, C3H8O, InChI=1S/C3H8O/c1-3(2)4/h3-4H,1-2H3, purity 99.4%
Compound 6: ethyl acetate, C4H8O2, InChI=1S/C4H8O2/c1-3-6-4(2)5/h3H2,1-2H3, purity 99.5%
Compound 7: acetone, C3H6O, InChI=1S/C3H6O/c1-3(2)4/h1-2H3, purity 99.5%
Compound 8: acetonitrile, C2H3N, InChI=1S/C2H3N/c1-2-3/h1H3, purity 99.5%
Compound 9: toluene, C7H8, InChI=1S/C7H8/c1-7-5-3-2-4-6-7/h2-6H,1H3, purity 99.5%
Compound 10: 1,4-dioxane, C4H8O2, InChI=1S/C4H8O2/c1-2-6-4-3-5-1/h1-4H2, purity 99.4%
Compound 11: cyclohexane, C6H12, InChI=1S/C6H12/c1-2-4-6-5-3-1/h1-6H2, purity 99.6%
Compound 12: butanone, C4H8O, InChI=1S/C4H8O/c1-3-4(2)5/h3H2,1-2H3, purity 99.5%
Compound 13: butan-1-ol, C4H10O, InChI=1S/C4H10O/c1-2-3-4-5/h5H,2-4H2,1H3, purity 99.6%
Compound 14: benzoic acid, C7H6O2, InChI=1S/C7H6O2/c8-7(9)6-4-2-1-3-5-6/h1-5H,(H,8,9), purity 99.5%

System: 2-benzimidazolethiol + methanol; phases: Liquid, Crystal
Fixed: Pressure, kPa = 101.1
Property: Mole fraction of 2-benzimidazolethiol (Liquid); method: Chromatography
Temperature, K	Mole fraction of 2-benzimidazolethiol	uncertainty
278.15	0.00625	0.00051
283.15	0.0073	0.0006
288.15	0.00848	0.0007
293.15	0.00964	0.00079
298.15	0.01091	0.00089
303.15	0.01228	0.00101
308.15	0.01376	0.00113
313.15	0.01515	0.00124
318.15	0.01685	0.00138

System: 2-benzimidazolethiol + ethanol; phases: Liquid, Crystal
Fixed: Pressure, kPa = 101.1
Property: Mole fraction of 2-benzimidazolethiol (Liquid); method: Chromatography
Temperature, K	Mole fraction of 2-benzimidazolethiol	uncertainty
278.15	0.00532	0.00044
283.15	0.00634	0.00052
288.15	0.00746	0.00061
293.15	0.00868	0.00071
298.15	0.00998	0.00082
303.15	0.01141	0.00094
308.15	0.01265	0.00104
313.15	0.01417	0.00116
318.15	0.01583	0.0013

System: 2-benzimidazolethiol + acetonitrile; phases: Liquid, Crystal
Fixed: Pressure, kPa = 101.1
Property: Mole fraction of 2-benzimidazolethiol (Liquid); method: Chromatography
Temperature, K	Mole fraction of 2-benzimidazolethiol	uncertainty
278.15	0.00102	8e-05
283.15	0.00115	9e-05
288.15	0.00129	0.00011
293.15	0.00146	0.00012
298.15	0.00163	0.00013
303.15	0.00183	0.00015
308.15	0.00205	0.00017
313.15	0.00228	0.00019
318.15	0.00257	0.00021

System: 2-benzimidazolethiol + propan-1-ol; phases: Liquid, Crystal
Fixed: Pressure, kPa = 101.1
Property: Mole fraction of 2-benzimidazolethiol (Liquid); method: Chromatography
Temperature, K	Mole fraction of 2-benzimidazolethiol	uncertainty
278.15	0.00484	0.0004
283.15	0.00559	0.00046
288.15	0.0065	0.00053
293.15	0.00759	0.00062
298.15	0.00872	0.00072
303.15	0.00999	0.00082
308.15	0.01139	0.00093
313.15	0.01309	0.00107
318.15	0.01508	0.00124

System: 2-benzimidazolethiol + propan-2-ol; phases: Liquid, Crystal
Fixed: Pressure, kPa = 101.1
Property: Mole fraction of 2-benzimidazolethiol (Liquid); method: Chromatography
Temperature, K	Mole fraction of 2-benzimidazolethiol	uncertainty
278.15	0.0034	0.00028
283.15	0.00435	0.00036
288.15	0.00528	0.00043
293.15	0.00635	0.00052
298.15	0.00755	0.00062
303.15	0.0088	0.00072
308.15	0.01017	0.00083
313.15	0.0116	0.00095
318.15	0.0132	0.00108

System: 2-benzimidazolethiol + butan-1-ol; phases: Liquid, Crystal
Fixed: Pressure, kPa = 101.1
Property: Mole fraction of 2-benzimidazolethiol (Liquid); method: Chromatography
Temperature, K	Mole fraction of 2-benzimidazolethiol	uncertainty
278.15	0.0041	0.00034
283.15	0.0049	0.0004
288.15	0.0058	0.00048
293.15	0.0069	0.00057
298.15	0.00809	0.00066
303.15	0.00941	0.00077
308.15	0.01085	0.00089
313.15	0.0125	0.00103
318.15	0.01441	0.00118

System: 2-benzimidazolethiol + acetone; phases: Liquid, Crystal
Fixed: Pressure, kPa = 101.1
Property: Mole fraction of 2-benzimidazolethiol (Liquid); method: Chromatography
Temperature, K	Mole fraction of 2-benzimidazolethiol	uncertainty
278.15	0.0121	0.00099
283.15	0.01276	0.00105
288.15	0.01352	0.00111
293.15	0.01435	0.00118
298.15	0.01521	0.00125
303.15	0.01603	0.00131
308.15	0.01689	0.00139
313.15	0.01787	0.00147
318.15	0.01886	0.00155

System: 2-benzimidazolethiol + ethyl acetate; phases: Liquid, Crystal
Fixed: Pressure, kPa = 101.1
Property: Mole fraction of 2-benzimidazolethiol (Liquid); method: Chromatography
Temperature, K	Mole fraction of 2-benzimidazolethiol	uncertainty
278.15	0.00198	0.00016
283.15	0.00236	0.00019
288.15	0.00275	0.00023
293.15	0.00318	0.00026
298.15	0.00366	0.0003
303.15	0.00413	0.00034
308.15	0.00463	0.00038
313.15	0.00518	0.00042
318.15	0.00577	0.00047

System: 2-benzimidazolethiol + 1,4-dioxane; phases: Liquid, Crystal
Fixed: Pressure, kPa = 101.1
Property: Mole fraction of 2-benzimidazolethiol (Liquid); method: Chromatography
Temperature, K	Mole fraction of 2-benzimidazolethiol	uncertainty
278.15	0.01406	0.00115
283.15	0.01526	0.00125
288.15	0.01656	0.00136
293.15	0.01806	0.00148
298.15	0.01946	0.0016
303.15	0.021	0.00172
308.15	0.02273	0.00186
313.15	0.02461	0.00202
318.15	0.0265	0.00217

System: 2-benzimidazolethiol + cyclohexane; phases: Liquid, Crystal
Fixed: Pressure, kPa = 101.1
Property: Mole fraction of 2-benzimidazolethiol (Liquid); method: Chromatography
Temperature, K	Mole fraction of 2-benzimidazolethiol	uncertainty
278.15	4.36e-06	3.6e-07
283.15	5.51e-06	4.5e-07
288.15	7.05e-06	5.8e-07
293.15	8.99e-06	7.4e-07
298.15	1.16e-05	1e-06
303.15	1.49e-05	1.2e-06
308.15	1.88e-05	1.5e-06
313.15	2.27e-05	1.9e-06
318.15	2.81e-05	2.3e-06

System: 2-benzimidazolethiol + toluene; phases: Liquid, Crystal
Fixed: Pressure, kPa = 101.1
Property: Mole fraction of 2-benzimidazolethiol (Liquid); method: Chromatography
Temperature, K	Mole fraction of 2-benzimidazolethiol	uncertainty
278.15	2.01e-05	1.7e-06
283.15	2.73e-05	2.2e-06
288.15	3.51e-05	2.9e-06
293.15	4.35e-05	3.6e-06
298.15	5.3e-05	4.3e-06
303.15	6.38e-05	5.2e-06
308.15	7.53e-05	6.2e-06
313.15	8.87e-05	7.3e-06
318.15	0.000104	9e-06

System: 2-benzimidazolethiol + butanone; phases: Liquid, Crystal
Fixed: Pressure, kPa = 101.1
Property: Mole fraction of 2-benzimidazolethiol (Liquid); method: Chromatography
Temperature, K	Mole fraction of 2-benzimidazolethiol	uncertainty
278.15	0.01029	0.00084
283.15	0.01097	0.0009
288.15	0.01169	0.00096
293.15	0.01243	0.00102
298.15	0.01328	0.00109
303.15	0.01413	0.00116
308.15	0.01506	0.00124
313.15	0.01616	0.00133
318.15	0.01721	0.00141

System: benzoic acid + toluene; phases: Liquid, Crystal
Fixed: Pressure, kPa = 101.2
Property: Mole fraction of benzoic acid (Liquid); method: Chromatography
Temperature, K	Mole fraction of benzoic acid	uncertainty
283.15	0.129	0.011
293.15	0.138	0.011
303.15	0.164	0.013
313.15	0.197	0.016
