Measured thermophysical data. o-Nitrophenylacetonitrile Solubility in Several Pure Solvents: Measurement, Correlation, and Solvent Effect Analysis
Source: J. Chem. Eng. Data, 2019, 10.1021/acs.jced.9b00243
Compound 1: o-nitrophenylacetonitrile, C8H6N2O2, InChI=1S/C8H6N2O2/c9-6-5-7-3-1-2-4-8(7)10(11)12/h1-4H,5H2, purity 98.2%
Compound 2: methanol, CH4O, InChI=1S/CH4O/c1-2/h2H,1H3, purity 99.5%
Compound 3: ethanol, C2H6O, InChI=1S/C2H6O/c1-2-3/h3H,2H2,1H3, purity 99.7%
Compound 4: propan-1-ol, C3H8O, InChI=1S/C3H8O/c1-2-3-4/h4H,2-3H2,1H3, purity 99.5%
Compound 5: propan-2-ol, C3H8O, InChI=1S/C3H8O/c1-3(2)4/h3-4H,1-2H3, purity 99.5%
Compound 6: acetone, C3H6O, InChI=1S/C3H6O/c1-3(2)4/h1-2H3, purity 99.7%
Compound 7: butanone, C4H8O, InChI=1S/C4H8O/c1-3-4(2)5/h3H2,1-2H3, purity 99.6%
Compound 8: acetonitrile, C2H3N, InChI=1S/C2H3N/c1-2-3/h1H3, purity 99.5%
Compound 9: ethyl acetate, C4H8O2, InChI=1S/C4H8O2/c1-3-6-4(2)5/h3H2,1-2H3, purity 99.6%
Compound 10: butan-1-ol, C4H10O, InChI=1S/C4H10O/c1-2-3-4-5/h5H,2-4H2,1H3, purity 99.5%
Compound 11: butan-2-ol, C4H10O, InChI=1S/C4H10O/c1-3-4(2)5/h4-5H,3H2,1-2H3, purity 99.6%
Compound 12: 1,4-dioxane, C4H8O2, InChI=1S/C4H8O2/c1-2-6-4-3-5-1/h1-4H2, purity 99.7%
Compound 13: toluene, C7H8, InChI=1S/C7H8/c1-7-5-3-2-4-6-7/h2-6H,1H3, purity 99.5%
Compound 14: acetic acid, C2H4O2, InChI=1S/C2H4O2/c1-2(3)4/h1H3,(H,3,4), purity 99.6%
Compound 15: cyclohexane, C6H12, InChI=1S/C6H12/c1-2-4-6-5-3-1/h1-6H2, purity 99.6%
Compound 16: ethylbenzene, C8H10, InChI=1S/C8H10/c1-2-8-6-4-3-5-7-8/h3-7H,2H2,1H3, purity 99.5%
Compound 17: water, H2O, InChI=1S/H2O/h1H2, purity 99.9%

System: o-nitrophenylacetonitrile; phases: Crystal, Liquid, Air at 1 atmosphere
Property: Triple point temperature, K (Crystal); method: DSC
Triple point temperature, K	uncertainty
351.59	1.22

System: o-nitrophenylacetonitrile; phases: Crystal, Liquid, Air at 1 atmosphere
Property: Molar enthalpy of transition or fusion, kJ/mol (Crystal); method: DSC
Molar enthalpy of transition or fusion, kJ/mol	uncertainty
14.21	0.92

System: o-nitrophenylacetonitrile + methanol; phases: Liquid, Crystal
Fixed: Pressure, kPa = 101.2
Property: Mole fraction of o-nitrophenylacetonitrile (Liquid); method: Chromatography
Temperature, K	Mole fraction of o-nitrophenylacetonitrile	uncertainty
278.15	0.006408	0.001025
283.15	0.008417	0.001347
288.15	0.01052	0.00168
293.15	0.01307	0.00209
298.15	0.01741	0.00279
303.15	0.0235	0.00376
308.15	0.03051	0.00488
313.15	0.03953	0.00633
318.15	0.05139	0.00822
323.15	0.06606	0.01057
328.15	0.08423	0.01348
333.15	0.1085	0.0174

System: o-nitrophenylacetonitrile + ethanol; phases: Liquid, Crystal
Fixed: Pressure, kPa = 101.2
Property: Mole fraction of o-nitrophenylacetonitrile (Liquid); method: Chromatography
Temperature, K	Mole fraction of o-nitrophenylacetonitrile	uncertainty
278.15	0.004576	0.000732
283.15	0.005657	0.000905
288.15	0.007047	0.001128
293.15	0.009394	0.001503
298.15	0.0118	0.00189
303.15	0.01557	0.00249
308.15	0.02128	0.00341
313.15	0.02766	0.00443
318.15	0.03827	0.00612
323.15	0.04871	0.0078
328.15	0.06492	0.01039
333.15	0.08376	0.0134

System: o-nitrophenylacetonitrile + propan-1-ol; phases: Liquid, Crystal
Fixed: Pressure, kPa = 101.2
Property: Mole fraction of o-nitrophenylacetonitrile (Liquid); method: Chromatography
Temperature, K	Mole fraction of o-nitrophenylacetonitrile	uncertainty
278.15	0.004118	0.000659
283.15	0.005533	0.000885
288.15	0.006814	0.00109
293.15	0.009172	0.001468
298.15	0.01155	0.00185
303.15	0.01506	0.00241
308.15	0.01957	0.00313
313.15	0.02541	0.00407
318.15	0.03334	0.00534
323.15	0.04261	0.00682
328.15	0.05436	0.0087
333.15	0.06851	0.01096

System: o-nitrophenylacetonitrile + propan-2-ol; phases: Liquid, Crystal
Fixed: Pressure, kPa = 101.2
Property: Mole fraction of o-nitrophenylacetonitrile (Liquid); method: Chromatography
Temperature, K	Mole fraction of o-nitrophenylacetonitrile	uncertainty
278.15	0.004111	0.000658
283.15	0.004843	0.000775
288.15	0.005786	0.000926
293.15	0.00751	0.001202
298.15	0.009823	0.001572
303.15	0.01321	0.00211
308.15	0.01768	0.00283
313.15	0.0228	0.00365
318.15	0.02997	0.0048
323.15	0.03838	0.00614
328.15	0.04922	0.00788
333.15	0.06269	0.01003

System: o-nitrophenylacetonitrile + acetone; phases: Liquid, Crystal
Fixed: Pressure, kPa = 101.2
Property: Mole fraction of o-nitrophenylacetonitrile (Liquid); method: Chromatography
Temperature, K	Mole fraction of o-nitrophenylacetonitrile	uncertainty
278.15	0.1296	0.0207
283.15	0.1472	0.0236
288.15	0.1709	0.0273
293.15	0.1935	0.031
298.15	0.2265	0.0362
303.15	0.259	0.0414
308.15	0.2951	0.0472
313.15	0.3415	0.0546
318.15	0.3854	0.0617
323.15	0.4385	0.0702
328.15	0.5061	0.079

System: o-nitrophenylacetonitrile + butanone; phases: Liquid, Crystal
Fixed: Pressure, kPa = 101.2
Property: Mole fraction of o-nitrophenylacetonitrile (Liquid); method: Chromatography
Temperature, K	Mole fraction of o-nitrophenylacetonitrile	uncertainty
278.15	0.108	0.0173
283.15	0.128	0.0205
288.15	0.151	0.0242
293.15	0.173	0.0277
298.15	0.1966	0.0315
303.15	0.2351	0.0376
308.15	0.2688	0.043
313.15	0.3117	0.0499
318.15	0.357	0.0571
323.15	0.4222	0.0676
328.15	0.4748	0.076
333.15	0.5434	0.0731

System: o-nitrophenylacetonitrile + acetonitrile; phases: Liquid, Crystal
Fixed: Pressure, kPa = 101.2
Property: Mole fraction of o-nitrophenylacetonitrile (Liquid); method: Chromatography
Temperature, K	Mole fraction of o-nitrophenylacetonitrile	uncertainty
278.15	0.09323	0.01492
283.15	0.1073	0.0172
288.15	0.1241	0.0199
293.15	0.1435	0.023
298.15	0.1675	0.0268
303.15	0.1954	0.0313
308.15	0.2276	0.0364
313.15	0.2641	0.0423
318.15	0.31	0.0496
323.15	0.3624	0.058
328.15	0.4242	0.0679
333.15	0.4979	0.0797

System: o-nitrophenylacetonitrile + toluene; phases: Liquid, Crystal
Fixed: Pressure, kPa = 101.2
Property: Mole fraction of o-nitrophenylacetonitrile (Liquid); method: Chromatography
Temperature, K	Mole fraction of o-nitrophenylacetonitrile	uncertainty
278.15	0.02926	0.00468
283.15	0.03714	0.00594
288.15	0.04714	0.00754
293.15	0.06127	0.0098
298.15	0.07377	0.01181
303.15	0.09683	0.0155
308.15	0.1233	0.0197
313.15	0.1528	0.0245
318.15	0.1951	0.0312
323.15	0.2407	0.0385
328.15	0.3035	0.0486
333.15	0.3765	0.0602

System: o-nitrophenylacetonitrile + 1,4-dioxane; phases: Liquid, Crystal
Fixed: Pressure, kPa = 101.2
Property: Mole fraction of o-nitrophenylacetonitrile (Liquid); method: Chromatography
Temperature, K	Mole fraction of o-nitrophenylacetonitrile	uncertainty
288.15	0.2159	0.0345
293.15	0.2262	0.0362
298.15	0.2408	0.0385
303.15	0.2568	0.0411
308.15	0.2778	0.0445
313.15	0.3033	0.0485
318.15	0.3339	0.0534
323.15	0.3707	0.0593
328.15	0.4145	0.0663
333.15	0.4685	0.075

System: o-nitrophenylacetonitrile + cyclohexane; phases: Liquid, Crystal
Fixed: Pressure, kPa = 101.2
Property: Mole fraction of o-nitrophenylacetonitrile (Liquid); method: Chromatography
Temperature, K	Mole fraction of o-nitrophenylacetonitrile	uncertainty
283.15	0.02374	0.0038
288.15	0.02854	0.00457
293.15	0.03459	0.00554
298.15	0.04226	0.00676
303.15	0.05201	0.00832
308.15	0.06442	0.01031
313.15	0.08029	0.01285
318.15	0.1008	0.0161
323.15	0.126	0.0202
328.15	0.1604	0.0257
333.15	0.2041	0.0327

System: o-nitrophenylacetonitrile + butan-2-ol; phases: Liquid, Crystal
Fixed: Pressure, kPa = 101.2
Property: Mole fraction of o-nitrophenylacetonitrile (Liquid); method: Chromatography
Temperature, K	Mole fraction of o-nitrophenylacetonitrile	uncertainty
278.15	0.003321	0.000531
283.15	0.004161	0.000666
288.15	0.004909	0.000786
293.15	0.006387	0.001022
298.15	0.008029	0.001285
303.15	0.01024	0.00164
308.15	0.01301	0.00208
313.15	0.01714	0.00274
318.15	0.02281	0.00365
323.15	0.03033	0.00485
328.15	0.04044	0.00647
333.15	0.0546	0.00874

System: o-nitrophenylacetonitrile + ethyl acetate; phases: Liquid, Crystal
Fixed: Pressure, kPa = 101.2
Property: Mole fraction of o-nitrophenylacetonitrile (Liquid); method: Chromatography
Temperature, K	Mole fraction of o-nitrophenylacetonitrile	uncertainty
278.15	0.1296	0.0207
283.15	0.1425	0.0228
288.15	0.1598	0.0256
293.15	0.1767	0.0283
298.15	0.1987	0.0318
303.15	0.2193	0.0351
308.15	0.2464	0.0394
313.15	0.2775	0.0444
318.15	0.3132	0.0501
323.15	0.3566	0.0571
328.15	0.4067	0.0651
333.15	0.4663	0.0746

System: o-nitrophenylacetonitrile + butan-1-ol; phases: Liquid, Crystal
Fixed: Pressure, kPa = 101.2
Property: Mole fraction of o-nitrophenylacetonitrile (Liquid); method: Chromatography
Temperature, K	Mole fraction of o-nitrophenylacetonitrile	uncertainty
278.15	0.003512	0.000562
283.15	0.004366	0.000699
288.15	0.005691	0.000911
293.15	0.007308	0.001169
298.15	0.009688	0.00155
303.15	0.01294	0.00207
308.15	0.01753	0.00281
313.15	0.02229	0.00357
318.15	0.02934	0.0047
323.15	0.03832	0.00613
328.15	0.0491	0.00786
333.15	0.0624	0.00999

System: o-nitrophenylacetonitrile + acetic acid; phases: Liquid, Crystal
Fixed: Pressure, kPa = 101.2
Property: Mole fraction of o-nitrophenylacetonitrile (Liquid); method: Chromatography
Temperature, K	Mole fraction of o-nitrophenylacetonitrile	uncertainty
293.15	0.04778	0.00765
298.15	0.0574	0.00919
303.15	0.06945	0.01111
308.15	0.08456	0.01353
313.15	0.1038	0.0166
318.15	0.1278	0.0205
323.15	0.1584	0.0253
328.15	0.1964	0.0314
333.15	0.2445	0.0391

System: o-nitrophenylacetonitrile + ethylbenzene; phases: Liquid, Crystal
Fixed: Pressure, kPa = 101.2
Property: Mole fraction of o-nitrophenylacetonitrile (Liquid); method: Chromatography
Temperature, K	Mole fraction of o-nitrophenylacetonitrile	uncertainty
278.15	0.02374	0.0038
283.15	0.02854	0.00457
288.15	0.03459	0.00554
293.15	0.04226	0.00676
298.15	0.05201	0.00832
303.15	0.06442	0.01031
308.15	0.08029	0.01285
313.15	0.1008	0.0161
318.15	0.126	0.0202
323.15	0.1604	0.0257
328.15	0.2041	0.0327
333.15	0.26	0.0416

System: o-nitrophenylacetonitrile + water; phases: Liquid, Crystal
Fixed: Pressure, kPa = 101.2
Property: Mole fraction of o-nitrophenylacetonitrile (Liquid); method: Chromatography
Temperature, K	Mole fraction of o-nitrophenylacetonitrile	uncertainty
278.15	3.754e-05	6.01e-06
283.15	4.65e-05	7.44e-06
288.15	5.571e-05	8.91e-06
293.15	6.691e-05	1.071e-05
298.15	8.191e-05	1.311e-05
303.15	0.000102	1.63e-05
308.15	0.000125	2e-05
313.15	0.0001532	2.45e-05
318.15	0.0001857	2.97e-05
323.15	0.000225	3.6e-05
328.15	0.0002742	4.39e-05
333.15	0.0003327	5.32e-05
