Measured thermophysical data. Experimental Study of Carbon Dioxide Solubility in Aqueous N-Methyldiethanolamine Solution with 1-Butylpyridinium Tetrafluoroborate Ionic Liquid
Source: J. Chem. Eng. Data, 2018, 10.1021/acs.jced.8b00142
Compound 1: carbon dioxide, CO2, InChI=1S/CO2/c2-1-3, purity 99.99%
Compound 2: N-methyldiethanolamine, C5H13NO2, InChI=1S/C5H13NO2/c1-6(2-4-7)3-5-8/h7-8H,2-5H2,1H3, purity 98%
Compound 3: 1-butylpyridinium tetrafluoroborate, C9H14BF4N, InChI=1S/C9H14N.BF4/c1-2-3-7-10-8-5-4-6-9-10;2-1(3,4)5/h4-6,8-9H,2-3,7H2,1H3;/q+1;-1, purity 98%
Compound 4: water, H2O, InChI=1S/H2O/h1H2, purity 99.9%

System: N-methyldiethanolamine; phases: Liquid
Fixed: Pressure, kPa = 86
Property: Mass density, kg/m3 (Liquid); method: Vibrating tube method
Temperature, K	Mass density, kg/m3	uncertainty
298.15	1036.4	4.1
313.15	1025.1	4.1
323.15	1017.5	4.1
333.15	1009.9	4.1
343.15	1002.2	4.1

System: 1-butylpyridinium tetrafluoroborate; phases: Liquid
Fixed: Pressure, kPa = 86
Property: Mass density, kg/m3 (Liquid); method: Vibrating tube method
Temperature, K	Mass density, kg/m3	uncertainty
298.15	1213.9	4.2
313.15	1203.8	4.2
323.15	1197	4.2
333.15	1190.3	4.2
343.15	1183.6	4.2

System: N-methyldiethanolamine + 1-butylpyridinium tetrafluoroborate + water; phases: Liquid
Fixed: Pressure, kPa = 86
Property: Mass density, kg/m3 (Liquid); method: Vibrating tube method
Temperature, K	Mass fraction of N-methyldiethanolamine	Mass fraction of 1-butylpyridinium tetrafluoroborate	Mass density, kg/m3	uncertainty
298.15	0.2573	0	1020.5	4
298.15	0.3	0	1024.7	4
298.15	0.3	0.05	1034.6	4
298.15	0.3	0.1	1043.4	4
298.15	0.3	0.2	1061.2	4
298.15	0.5	0	1042.5	4
298.15	0.5	0.05	1051.4	4
298.15	0.5	0.1	1059.6	4
298.15	0.5	0.2	1075.5	4
313.15	0.2573	0	1013.5	4
313.15	0.3	0	1017.1	4
313.15	0.3	0.05	1026.3	4
313.15	0.3	0.1	1034.7	4
313.15	0.3	0.2	1050.6	4
313.15	0.5	0	1032.8	4
313.15	0.5	0.05	1041.3	4
313.15	0.5	0.1	1049	4
313.15	0.5	0.2	1064.4	4
323.15	0.3	0	1009.6	4
323.15	0.3	0.05	1018.8	4
323.15	0.3	0.1	1028.1	4
323.15	0.3	0.2	1045	4
323.15	0.5	0	1026	4
323.15	0.5	0.05	1034.2	4
323.15	0.5	0.1	1041.7	4
323.15	0.5	0.2	1056.7	4
333.15	0.3	0	1002.7	4
333.15	0.3	0.05	1009.3	4
333.15	0.3	0.1	1021.6	4
333.15	0.3	0.2	1037	4
333.15	0.5	0	1018.7	4
333.15	0.5	0.05	1026.8	4
333.15	0.5	0.1	1034	4
333.15	0.5	0.2	1048.9	4
348.17	0.2573	0	988.9	4
343.15	0.3	0	995.1	4
343.15	0.3	0.05	999.5	4
343.15	0.3	0.1	1012.6	4
343.15	0.3	0.2	1026.4	4
343.15	0.5	0	1011.2	4
343.15	0.5	0.05	1019.1	4
343.15	0.5	0.1	1025.8	4
343.15	0.5	0.2	1040.9	4

System: N-methyldiethanolamine + water + carbon dioxide; phases: Liquid, Gas
Property: Molality, mol/kg of carbon dioxide (Liquid); method: phase equilibration
Temperature, K	Pressure, kPa	Solvent: Mass fraction of N-methyldiethanolamine	Molality, mol/kg of carbon dioxide	uncertainty
298.15	710	0.3	2.583	0.016
298.15	1200	0.3	2.733	0.017
298.15	1640	0.3	2.828	0.017
298.15	1950	0.3	2.873	0.017
298.15	2220	0.3	2.933	0.017
298.15	2530	0.3	2.987	0.017
298.15	2790	0.3	3.048	0.018
298.15	3160	0.3	3.084	0.018
313.15	800	0.3	2.542	0.015
313.15	1360	0.3	2.656	0.016
313.15	1820	0.3	2.759	0.016
313.15	2160	0.3	2.796	0.016
313.15	2460	0.3	2.847	0.017
313.15	2810	0.3	2.885	0.017
313.15	3090	0.3	2.949	0.017
313.15	3480	0.3	3.002	0.017
323.15	890	0.3	2.493	0.015
323.15	1470	0.3	2.609	0.016
323.15	1950	0.3	2.711	0.016
323.15	2290	0.3	2.762	0.016
323.15	2620	0.3	2.799	0.017
323.15	2970	0.3	2.855	0.017
323.15	3280	0.3	2.904	0.017
323.15	3700	0.3	2.952	0.017
333.15	1020	0.3	2.417	0.015
333.15	1600	0.3	2.548	0.015
333.15	2100	0.3	2.649	0.016
333.15	2450	0.3	2.704	0.016
333.15	2800	0.3	2.736	0.016
333.15	3160	0.3	2.799	0.016
333.15	3470	0.3	2.864	0.017
333.15	3900	0.3	2.926	0.017
343.15	1180	0.3	2.323	0.014
343.15	1770	0.3	2.461	0.015
343.15	2280	0.3	2.568	0.016
343.15	2630	0.3	2.636	0.016
343.15	2960	0.3	2.698	0.016
343.15	3350	0.3	2.75	0.016
343.15	3680	0.3	2.811	0.016
343.15	4130	0.3	2.876	0.017
298.15	360	0.5	3.834	0.026
298.15	760	0.5	4.123	0.025
298.15	1250	0.5	4.237	0.024
298.15	1560	0.5	4.308	0.024
298.15	1910	0.5	4.353	0.024
298.15	2230	0.5	4.405	0.025
298.15	2490	0.5	4.453	0.025
298.15	2870	0.5	4.497	0.025
313.15	520	0.5	3.718	0.024
313.15	980	0.5	3.972	0.024
313.15	1470	0.5	4.108	0.023
313.15	1800	0.5	4.178	0.024
313.15	2160	0.5	4.234	0.024
313.15	2500	0.5	4.29	0.024
313.15	2780	0.5	4.338	0.024
313.15	3190	0.5	4.384	0.024
323.15	690	0.5	3.596	0.023
323.15	1180	0.5	3.835	0.023
323.15	1680	0.5	3.975	0.023
323.15	2000	0.5	4.064	0.023
323.15	2360	0.5	4.133	0.023
323.15	2730	0.5	4.173	0.024
323.15	3000	0.5	4.244	0.024
323.15	3420	0.5	4.302	0.024
333.15	910	0.5	3.442	0.022
333.15	1420	0.5	3.675	0.023
333.15	1910	0.5	3.835	0.022
333.15	2250	0.5	3.915	0.022
333.15	2630	0.5	3.977	0.023
333.15	2980	0.5	4.049	0.023
333.15	3260	0.5	4.121	0.024
333.15	3700	0.5	4.178	0.024
343.15	1210	0.5	3.235	0.021
343.15	1740	0.5	3.461	0.022
343.15	2230	0.5	3.63	0.022
343.15	2570	0.5	3.718	0.022
343.15	2940	0.5	3.799	0.022
343.15	3300	0.5	3.873	0.023
343.15	3570	0.5	3.964	0.023
343.15	4010	0.5	4.039	0.023

System: N-methyldiethanolamine + water; phases: Liquid
Fixed: Pressure, kPa = 86
Property: Mass density, kg/m3 (Liquid); method: Vibrating tube method
Temperature, K	Mass fraction of N-methyldiethanolamine	Mass density, kg/m3	uncertainty
298.15	0.2573	1020.5	4
298.15	0.3	1024.7	4
298.15	0.5	1042.5	4
313.15	0.2573	1013.5	4
313.15	0.3	1017.1	4
313.15	0.5	1032.8	4
323.15	0.3	1009.6	4
323.15	0.5	1026	4
333.15	0.3	1002.7	4
333.15	0.5	1018.7	4
348.17	0.2573	988.9	4
343.15	0.3	995.1	4
343.15	0.5	1011.2	4
