Measured thermophysical data. Vapor Liquid Equilibrium and Excess Enthalpy Data for Systems Containing N,N-Dimethylacetamide
Source: J. Chem. Eng. Data, 2017, 10.1021/acs.jced.7b00119
Compound 1: N,N-dimethylethanamide, C4H9NO, InChI=1S/C4H9NO/c1-4(6)5(2)3/h1-3H3
Compound 2: hexane, C6H14, InChI=1S/C6H14/c1-3-5-6-4-2/h3-6H2,1-2H3
Compound 3: heptane, C7H16, InChI=1S/C7H16/c1-3-5-7-6-4-2/h3-7H2,1-2H3
Compound 4: oct-1-ene, C8H16, InChI=1S/C8H16/c1-3-5-7-8-6-4-2/h3H,1,4-8H2,2H3
Compound 5: benzene, C6H6, InChI=1S/C6H6/c1-2-4-6-5-3-1/h1-6H
Compound 6: toluene, C7H8, InChI=1S/C7H8/c1-7-5-3-2-4-6-7/h2-6H,1H3
Compound 7: ethanol, C2H6O, InChI=1S/C2H6O/c1-2-3/h3H,2H2,1H3
Compound 8: methanol, CH4O, InChI=1S/CH4O/c1-2/h2H,1H3
Compound 9: ethyl acetate, C4H8O2, InChI=1S/C4H8O2/c1-3-6-4(2)5/h3H2,1-2H3
Compound 10: dibutyl ether, C8H18O, InChI=1S/C8H18O/c1-3-5-7-9-8-6-4-2/h3-8H2,1-2H3
Compound 11: dichloromethane, CH2Cl2, InChI=1S/CH2Cl2/c2-1-3/h1H2

System: N,N-dimethylethanamide; phases: Liquid, Gas
Property: Vapor or sublimation pressure, kPa (Liquid); method: Closed cell (Static) method
Temperature, K	Vapor or sublimation pressure, kPa	uncertainty
328.15	1.61	0.16
328.15	1.64	0.16
333.15	2.23	0.16
343.15	3.39	0.16
353.15	5.29	0.16
353.15	5.31	0.16
353.15	5.32	0.16
353.15	5.35	0.16
353.15	5.37	0.16
363.15	8.46	0.16

System: hexane; phases: Liquid, Gas
Property: Vapor or sublimation pressure, kPa (Liquid); method: Closed cell (Static) method
Temperature, K	Vapor or sublimation pressure, kPa	uncertainty
353.15	142.4	0.5

System: heptane; phases: Liquid, Gas
Property: Vapor or sublimation pressure, kPa (Liquid); method: Closed cell (Static) method
Temperature, K	Vapor or sublimation pressure, kPa	uncertainty
353.15	57.09	0.25

System: oct-1-ene; phases: Liquid, Gas
Property: Vapor or sublimation pressure, kPa (Liquid); method: Closed cell (Static) method
Temperature, K	Vapor or sublimation pressure, kPa	uncertainty
328.15	10.12	0.17
363.15	39.2	0.18

System: benzene; phases: Liquid, Gas
Property: Vapor or sublimation pressure, kPa (Liquid); method: Closed cell (Static) method
Temperature, K	Vapor or sublimation pressure, kPa	uncertainty
328.15	43.65	0.22

System: toluene; phases: Liquid, Gas
Property: Vapor or sublimation pressure, kPa (Liquid); method: Closed cell (Static) method
Temperature, K	Vapor or sublimation pressure, kPa	uncertainty
353.15	38.92	0.21

System: ethanol; phases: Liquid, Gas
Property: Vapor or sublimation pressure, kPa (Liquid); method: Closed cell (Static) method
Temperature, K	Vapor or sublimation pressure, kPa	uncertainty
353.15	108.42	0.4

System: methanol; phases: Liquid, Gas
Property: Vapor or sublimation pressure, kPa (Liquid); method: Closed cell (Static) method
Temperature, K	Vapor or sublimation pressure, kPa	uncertainty
343.15	125.65	0.45

System: ethyl acetate; phases: Liquid, Gas
Property: Vapor or sublimation pressure, kPa (Liquid); method: Closed cell (Static) method
Temperature, K	Vapor or sublimation pressure, kPa	uncertainty
353.15	111.76	0.41

System: dibutyl ether; phases: Liquid, Gas
Property: Vapor or sublimation pressure, kPa (Liquid); method: Closed cell (Static) method
Temperature, K	Vapor or sublimation pressure, kPa	uncertainty
353.15	13.9	0.17

System: dichloromethane; phases: Liquid, Gas
Property: Vapor or sublimation pressure, kPa (Liquid); method: Closed cell (Static) method
Temperature, K	Vapor or sublimation pressure, kPa	uncertainty
333.15	197.94	0.68

System: hexane + N,N-dimethylethanamide; phases: Liquid, Gas
Fixed: Temperature, K = 353.15
Property: Vapor or sublimation pressure, kPa (Liquid); method: Closed cell (Static) method
Mole fraction of hexane	Vapor or sublimation pressure, kPa	uncertainty
0	5.37	0.16
0.0023	7.48	0.25
0.0047	9.74	0.25
0.0073	12.06	0.25
0.0104	14.84	0.25
0.0137	17.81	0.25
0.0224	25.06	0.25
0.0335	33.47	0.26
0.047	42.97	0.28
0.0634	52.94	0.3
0.0822	62.95	0.33
0.1042	72.79	0.36
0.1293	82.08	0.39
0.1602	91.16	0.42
0.1941	98.82	0.45
0.231	105.12	0.47
0.27	110.06	0.49
0.3105	113.89	0.51
0.3521	116.83	0.52
0.3942	119.11	0.53
0.4355	120.89	0.53
0.46	121.63	0.54
0.4762	122.33	0.54
0.5081	123.16	0.54
0.5586	124.55	0.55
0.6109	125.87	0.56
0.6641	127.2	0.6
0.7173	128.59	0.57
0.7685	130.09	0.57
0.817	131.75	0.58
0.857	133.35	0.59
0.8921	135	1
0.9215	136.63	0.6
0.9448	138.11	0.61
0.9631	139.4	0.6
0.9748	140.27	0.62
0.9825	140.87	0.62
0.9888	141.36	0.62
0.9929	141.74	0.63
0.996	142.02	0.63
0.9984	142.24	0.63
1	142.4	0.6

System: hexane + N,N-dimethylethanamide; phases: Liquid
Property: Excess molar enthalpy (molar enthalpy of mixing), kJ/mol (Liquid); method: Flow calorimetry
Temperature, K	Pressure, kPa	Mole fraction of hexane	Excess molar enthalpy (molar enthalpy of mixing), kJ/mol	uncertainty
363.15	1982	0.0358	0.234	0.009
363.15	1982	0.0726	0.477	0.014
363.15	1982	0.1106	0.704	0.019
363.15	1982	0.1498	0.913	0.023
363.15	1982	0.1902	1.098	0.027
363.15	1982	0.2319	1.263	0.031
363.15	1982	0.275	1.41	0.034
363.15	1982	0.3196	1.532	0.037
363.15	1982	0.3657	1.634	0.039
363.15	1982	0.4134	1.714	0.04
363.15	1982	0.4627	1.752	0.041
363.15	1982	0.5138	1.782	0.042
363.15	1982	0.5668	1.783	0.042
363.15	1982	0.6218	1.748	0.041
363.15	1982	0.6788	1.673	0.04
363.15	1982	0.7381	1.549	0.037
363.15	1982	0.7997	1.357	0.033
363.15	1982	0.8638	1.08	0.027
363.15	1982	0.9305	0.657	0.018
413.15	1824	0.0179	0.121	0.007
413.15	1824	0.0361	0.247	0.009
413.15	1824	0.0733	0.49	0.014
413.15	1824	0.1116	0.711	0.019
413.15	1824	0.151	0.913	0.023
413.15	1824	0.1917	1.097	0.027
413.15	1824	0.2337	1.27	0.031
413.15	1824	0.277	1.415	0.034
413.15	1824	0.3217	1.545	0.037
413.15	1824	0.3679	1.657	0.039
413.15	1824	0.4157	1.762	0.041
413.15	1824	0.4651	1.81	0.042
413.15	1824	0.5163	1.847	0.043
413.15	1824	0.5692	1.849	0.043
413.15	1824	0.6241	1.814	0.042
413.15	1824	0.681	1.736	0.041
413.15	1824	0.74	1.616	0.038
413.15	1824	0.8013	1.411	0.034
413.15	1824	0.8649	1.106	0.027
413.15	1824	0.9311	0.661	0.018
413.15	1824	0.9652	0.36	0.012

System: N,N-dimethylethanamide + heptane; phases: Liquid, Gas
Fixed: Temperature, K = 353.15
Property: Vapor or sublimation pressure, kPa (Liquid); method: Closed cell (Static) method
Mole fraction of heptane	Vapor or sublimation pressure, kPa	uncertainty
0	5.32	0.16
0.002	6.24	0.19
0.004	7.12	0.19
0.0064	8.15	0.19
0.0087	9.15	0.19
0.0132	10.98	0.19
0.0193	13.37	0.19
0.0273	16.19	0.19
0.0379	19.7	0.19
0.0509	23.48	0.2
0.0669	27.49	0.21
0.0861	31.49	0.22
0.1084	35.28	0.23
0.1362	38.98	0.24
0.1672	42.07	0.24
0.2015	44.58	0.25
0.2381	46.52	0.26
0.2767	48.01	0.26
0.3168	49.14	0.27
0.3578	50.01	0.27
0.3887	50.43	0.27
0.3987	50.68	0.27
0.4325	51.04	0.27
0.439	51.21	0.27
0.4802	51.58	0.27
0.5309	52.08	0.28
0.5839	52.56	0.28
0.6384	53.04	0.28
0.6936	53.55	0.28
0.7471	54.09	0.28
0.7985	54.67	0.28
0.8413	55.2	0.29
0.8792	55.72	0.29
0.9113	56.18	0.29
0.9369	56.54	0.29
0.9572	56.79	0.29
0.9704	56.93	0.29
0.9792	57.01	0.29
0.9865	57.05	0.29
0.9911	57.07	0.29
0.9958	57.08	0.29
1	57.09	0.29

System: N,N-dimethylethanamide + heptane; phases: Liquid
Fixed: Temperature, K = 413.15
Fixed: Pressure, kPa = 1824
Property: Excess molar enthalpy (molar enthalpy of mixing), kJ/mol (Liquid); method: Flow calorimetry
Mole fraction of heptane	Excess molar enthalpy (molar enthalpy of mixing), kJ/mol	uncertainty
0.016	0.129	0.007
0.0323	0.259	0.01
0.0659	0.51	0.015
0.1007	0.742	0.02
0.137	0.956	0.024
0.1747	1.153	0.028
0.2139	1.333	0.032
0.2548	1.496	0.036
0.2974	1.644	0.039
0.3419	1.77	0.042
0.3883	1.88	0.044
0.4369	1.948	0.045
0.4878	1.991	0.046
0.5411	2.009	0.047
0.597	1.982	0.046
0.6557	1.909	0.045
0.7175	1.786	0.042
0.7825	1.573	0.037
0.8511	1.251	0.031
0.9234	0.756	0.02
0.9612	0.418	0.013

System: oct-1-ene + N,N-dimethylethanamide; phases: Liquid, Gas
Property: Vapor or sublimation pressure, kPa (Liquid); method: Closed cell (Static) method
Temperature, K	Mole fraction of oct-1-ene	Vapor or sublimation pressure, kPa	uncertainty
328.15	0	1.61	0.16
328.15	0.001	1.68	0.16
328.15	0.0017	1.74	0.16
328.15	0.0026	1.79	0.16
328.15	0.0043	1.91	0.16
328.15	0.0073	2.11	0.16
328.15	0.0105	2.31	0.16
328.15	0.013	2.48	0.16
328.15	0.0172	2.73	0.16
328.15	0.0243	3.12	0.16
328.15	0.0346	3.63	0.16
328.15	0.0468	4.18	0.16
328.15	0.0624	4.8	0.16
328.15	0.0828	5.48	0.16
328.15	0.1057	6.12	0.17
328.15	0.1308	6.69	0.17
328.15	0.1574	7.18	0.17
328.15	0.1866	7.61	0.17
328.15	0.2165	7.97	0.17
328.15	0.2478	8.26	0.17
328.15	0.2767	8.49	0.17
328.15	0.3055	8.68	0.17
328.15	0.3349	8.83	0.17
328.15	0.3636	8.95	0.17
328.15	0.3644	8.97	0.17
328.15	0.3902	9.06	0.17
328.15	0.3929	9.09	0.17
328.15	0.4163	9.15	0.17
328.15	0.419	9.18	0.17
328.15	0.4462	9.27	0.17
328.15	0.4462	9.24	0.17
328.15	0.4746	9.33	0.17
328.15	0.5068	9.41	0.17
328.15	0.5437	9.5	0.17
328.15	0.5864	9.6	0.17
328.15	0.6258	9.69	0.17
328.15	0.6709	9.79	0.17
328.15	0.7229	9.9	0.17
328.15	0.7674	10	0.17
328.15	0.8072	10.1	0.17
328.15	0.8437	10.18	0.17
328.15	0.8835	10.27	0.17
328.15	0.9194	10.34	0.17
328.15	0.9427	10.36	0.17
328.15	0.9609	10.35	0.17
328.15	0.9707	10.33	0.17
328.15	0.9783	10.3	0.17
328.15	0.9845	10.27	0.17
328.15	0.9897	10.23	0.17
328.15	0.9936	10.2	0.17
328.15	0.996	10.18	0.17
328.15	0.9978	10.15	0.17
328.15	0.9989	10.14	0.17
328.15	1	10.12	0.17
363.15	0	8.46	0.16
363.15	0.0014	8.76	0.17
363.15	0.0032	9.12	0.17
363.15	0.005	9.47	0.17
363.15	0.0067	9.8	0.17
363.15	0.0089	10.22	0.17
363.15	0.0112	10.65	0.17
363.15	0.015	11.32	0.17
363.15	0.0195	12.11	0.17
363.15	0.0284	13.51	0.17
363.15	0.0403	15.26	0.17
363.15	0.055	17.2	0.18
363.15	0.0725	19.18	0.18
363.15	0.0943	21.41	0.18
363.15	0.1181	23.49	0.18
363.15	0.1424	25.3	0.18
363.15	0.1682	26.93	0.19
363.15	0.1967	28.44	0.19
363.15	0.2267	29.77	0.19
363.15	0.2572	30.92	0.19
363.15	0.2861	31.86	0.2
363.15	0.3142	32.65	0.2
363.15	0.3433	33.35	0.2
363.15	0.3641	33.72	0.2
363.15	0.3907	34.21	0.2
363.15	0.4168	34.65	0.2
363.15	0.4467	35.11	0.2
363.15	0.4751	35.52	0.2
363.15	0.5073	35.93	0.2
363.15	0.5442	36.41	0.2
363.15	0.587	36.9	0.2
363.15	0.6263	37.34	0.21
363.15	0.6714	37.81	0.21
363.15	0.7234	38.34	0.21
363.15	0.768	38.78	0.21
363.15	0.8077	39.15	0.21
363.15	0.8441	39.46	0.21
363.15	0.8839	39.75	0.21
363.15	0.9186	39.91	0.21
363.15	0.943	39.93	0.21
363.15	0.9612	39.85	0.21
363.15	0.9714	39.77	0.21
363.15	0.9791	39.67	0.21
363.15	0.9845	39.58	0.21
363.15	0.9897	39.47	0.21
363.15	0.9935	39.38	0.21
363.15	0.9961	39.31	0.21
363.15	0.9974	39.29	0.21
363.15	0.9987	39.23	0.21
363.15	1	39.2	0.21

System: oct-1-ene + N,N-dimethylethanamide; phases: Liquid
Fixed: Temperature, K = 363.15
Fixed: Pressure, kPa = 1858
Property: Excess molar enthalpy (molar enthalpy of mixing), kJ/mol (Liquid); method: Flow calorimetry
Mole fraction of oct-1-ene	Excess molar enthalpy (molar enthalpy of mixing), kJ/mol	uncertainty
0.03	0.183	0.008
0.0612	0.379	0.012
0.0938	0.563	0.016
0.1279	0.736	0.02
0.1636	0.892	0.023
0.201	1.042	0.026
0.2401	1.175	0.029
0.2812	1.297	0.032
0.3244	1.404	0.034
0.3698	1.494	0.036
0.4177	1.548	0.037
0.4682	1.586	0.038
0.5215	1.604	0.038
0.5779	1.592	0.038
0.6377	1.54	0.037
0.7013	1.441	0.035
0.7688	1.274	0.031
0.8408	1.018	0.026
0.9177	0.625	0.017

System: benzene + N,N-dimethylethanamide; phases: Liquid, Gas
Fixed: Temperature, K = 328.15
Property: Vapor or sublimation pressure, kPa (Liquid); method: Closed cell (Static) method
Mole fraction of benzene	Vapor or sublimation pressure, kPa	uncertainty
0	1.64	0.16
0.0013	1.71	0.16
0.0029	1.78	0.16
0.0045	1.86	0.16
0.0065	1.96	0.16
0.0095	2.12	0.16
0.0128	2.29	0.16
0.0176	2.52	0.16
0.0257	2.88	0.16
0.0402	3.54	0.16
0.0595	4.42	0.16
0.0827	5.47	0.16
0.1107	6.73	0.16
0.145	8.27	0.17
0.1819	9.91	0.17
0.2193	11.58	0.17
0.2594	13.35	0.17
0.2994	15.12	0.18
0.3399	16.9	0.18
0.3793	18.62	0.18
0.4139	20.12	0.19
0.4432	21.39	0.19
0.4466	21.54	0.19
0.4618	22.13	0.19
0.4821	22.95	0.19
0.5043	23.86	0.19
0.5323	25.02	0.2
0.5596	26.15	0.2
0.5897	27.39	0.2
0.6212	28.66	0.21
0.653	29.96	0.21
0.6845	31.23	0.21
0.7166	32.5	0.22
0.7518	33.89	0.22
0.7857	35.22	0.22
0.8195	36.53	0.23
0.8505	37.72	0.23
0.8797	38.85	0.23
0.9069	39.89	0.24
0.9311	40.83	0.24
0.9497	41.56	0.24
0.9641	42.15	0.24
0.9753	42.63	0.25
0.9825	42.93	0.25
0.9875	43.12	0.25
0.9915	43.3	0.25
0.9945	43.45	0.25
0.9964	43.52	0.25
0.9979	43.58	0.25
0.9989	43.62	0.25
1	43.65	0.25

System: benzene + N,N-dimethylethanamide; phases: Liquid
Fixed: Temperature, K = 413.15
Fixed: Pressure, kPa = 1824
Property: Excess molar enthalpy (molar enthalpy of mixing), kJ/mol (Liquid); method: Flow calorimetry
Mole fraction of benzene	Excess molar enthalpy (molar enthalpy of mixing), kJ/mol	uncertainty
0.0261	-0.0138	0.0044
0.0522	-0.0258	0.0046
0.1042	-0.0484	0.0051
0.1817	-0.0783	0.0057
0.2586	-0.0998	0.0062
0.3604	-0.116	0.007
0.4361	-0.115	0.007
0.5114	-0.101	0.006
0.5861	-0.0807	0.0058
0.6603	-0.0541	0.0052
0.7584	-0.0149	0.0044
0.8315	0.013	0.0043
0.904	0.0294	0.0047
0.9521	0.0263	0.0046
0.9761	0.0172	0.0044

System: toluene + N,N-dimethylethanamide; phases: Liquid, Gas
Fixed: Temperature, K = 353.15
Property: Vapor or sublimation pressure, kPa (Liquid); method: Closed cell (Static) method
Mole fraction of toluene	Vapor or sublimation pressure, kPa	uncertainty
0	5.29	0.16
0.0014	5.38	0.16
0.0027	5.46	0.16
0.005	5.58	0.16
0.0087	5.79	0.16
0.0131	6.03	0.16
0.0208	6.45	0.16
0.0308	6.99	0.17
0.0445	7.7	0.17
0.0613	8.55	0.17
0.0821	9.58	0.17
0.1068	10.79	0.17
0.1355	12.13	0.17
0.1709	13.72	0.17
0.2094	15.39	0.18
0.2512	17.11	0.18
0.2947	18.83	0.18
0.3395	20.52	0.19
0.3847	22.14	0.19
0.4251	23.46	0.19
0.4297	23.66	0.19
0.4681	24.85	0.2
0.4733	25.1	0.2
0.5134	26.27	0.2
0.5155	26.41	0.2
0.5614	27.69	0.2
0.6108	29.08	0.21
0.6607	30.42	0.21
0.7104	31.71	0.21
0.7589	32.92	0.22
0.8046	34.03	0.22
0.8469	35.05	0.22
0.8812	35.87	0.23
0.9109	36.59	0.23
0.9355	37.19	0.23
0.9548	37.68	0.23
0.9698	38.06	0.23
0.9793	38.32	0.23
0.9856	38.48	0.23
0.9903	38.62	0.23
0.994	38.72	0.23
0.9966	38.78	0.23
0.9987	38.85	0.23
1	38.92	0.23

System: toluene + N,N-dimethylethanamide; phases: Liquid
Property: Excess molar enthalpy (molar enthalpy of mixing), kJ/mol (Liquid); method: Flow calorimetry
Temperature, K	Pressure, kPa	Mole fraction of toluene	Excess molar enthalpy (molar enthalpy of mixing), kJ/mol	uncertainty
363.15	1955	0.0436	0.0158	0.0044
363.15	1955	0.0878	0.0287	0.0047
363.15	1955	0.1327	0.0425	0.005
363.15	1955	0.1781	0.0559	0.0052
363.15	1955	0.2242	0.0681	0.0055
363.15	1955	0.2709	0.0809	0.0058
363.15	1955	0.3182	0.097	0.0061
363.15	1955	0.3662	0.11	0.006
363.15	1955	0.4149	0.122	0.007
363.15	1955	0.4643	0.133	0.007
363.15	1955	0.5144	0.144	0.007
363.15	1955	0.5652	0.151	0.007
363.15	1955	0.6168	0.154	0.007
363.15	1955	0.6691	0.159	0.007
363.15	1955	0.7222	0.161	0.007
363.15	1955	0.7761	0.157	0.007
363.15	1955	0.8308	0.146	0.007
363.15	1955	0.8864	0.121	0.007
363.15	1955	0.9428	0.0745	0.0056
413.15	1824	0.022	0.0105	0.0043
413.15	1824	0.0441	0.0221	0.0045
413.15	1824	0.0887	0.0403	0.0049
413.15	1824	0.1338	0.0587	0.0053
413.15	1824	0.1796	0.0779	0.0057
413.15	1824	0.2259	0.0942	0.006
413.15	1824	0.2728	0.111	0.006
413.15	1824	0.3204	0.13	0.007
413.15	1824	0.3686	0.148	0.007
413.15	1824	0.4174	0.17	0.008
413.15	1824	0.4668	0.188	0.008
413.15	1824	0.5169	0.203	0.008
413.15	1824	0.5677	0.219	0.009
413.15	1824	0.6192	0.232	0.009
413.15	1824	0.6714	0.239	0.009
413.15	1824	0.7243	0.241	0.009
413.15	1824	0.7779	0.233	0.009
413.15	1824	0.8323	0.208	0.008
413.15	1824	0.8874	0.17	0.008
413.15	1824	0.9433	0.103	0.006
413.15	1824	0.9715	0.0561	0.0052

System: ethanol + N,N-dimethylethanamide; phases: Liquid, Gas
Fixed: Temperature, K = 353.15
Property: Vapor or sublimation pressure, kPa (Liquid); method: Closed cell (Static) method
Mole fraction of ethanol	Vapor or sublimation pressure, kPa	uncertainty
0	5.35	0.16
0.0047	5.61	0.16
0.0115	5.97	0.16
0.0201	6.44	0.16
0.0278	6.87	0.17
0.0351	7.29	0.17
0.0516	8.23	0.17
0.072	9.41	0.17
0.0982	10.97	0.17
0.1288	12.91	0.17
0.1642	15.25	0.18
0.204	18.03	0.18
0.2477	21.32	0.19
0.2979	25.4	0.2
0.3494	29.9	0.21
0.4015	34.84	0.22
0.4522	40	0.24
0.5014	45.36	0.25
0.5483	50.75	0.27
0.5737	53.61	0.28
0.5922	56.06	0.29
0.6155	58.74	0.3
0.6324	61.07	0.31
0.6574	64.13	0.32
0.6697	65.91	0.33
0.6994	69.61	0.34
0.7403	75.05	0.36
0.7796	80.29	0.38
0.8166	85.17	0.4
0.8509	89.8	0.41
0.8818	93.88	0.43
0.9092	97.38	0.44
0.9305	100.08	0.45
0.9485	102.29	0.46
0.9629	104	0.47
0.9741	105.33	0.47
0.9826	106.36	0.48
0.9879	106.93	0.48
0.9919	107.42	0.48
0.9947	107.73	0.48
0.9966	107.98	0.48
0.9984	108.22	0.48
0.9991	108.32	0.48
1	108.42	0.48

System: ethanol + N,N-dimethylethanamide; phases: Liquid
Fixed: Temperature, K = 413.15
Fixed: Pressure, kPa = 1824
Property: Excess molar enthalpy (molar enthalpy of mixing), kJ/mol (Liquid); method: Flow calorimetry
Mole fraction of ethanol	Excess molar enthalpy (molar enthalpy of mixing), kJ/mol	uncertainty
0.0774	-0.176	0.008
0.1505	-0.322	0.011
0.2528	-0.486	0.014
0.3471	-0.6	0.017
0.462	-0.683	0.019
0.541	-0.704	0.019
0.6146	-0.695	0.019
0.6833	-0.645	0.018
0.7476	-0.577	0.016
0.8271	-0.454	0.014
0.8826	-0.337	0.011
0.9349	-0.205	0.008
0.9681	-0.108	0.006

System: methanol + N,N-dimethylethanamide; phases: Liquid, Gas
Fixed: Temperature, K = 343.15
Property: Vapor or sublimation pressure, kPa (Liquid); method: Closed cell (Static) method
Mole fraction of methanol	Vapor or sublimation pressure, kPa	uncertainty
0	3.39	0.16
0.0068	3.76	0.16
0.0141	4.15	0.16
0.0214	4.55	0.16
0.0286	4.94	0.16
0.0376	5.44	0.16
0.0467	5.93	0.16
0.0557	6.45	0.16
0.073	7.45	0.17
0.0986	9.03	0.17
0.1333	11.28	0.17
0.173	14.08	0.17
0.2179	17.54	0.18
0.2695	21.91	0.19
0.3218	26.81	0.2
0.3721	32.02	0.22
0.4203	37.51	0.23
0.4679	43.4	0.25
0.5117	49.22	0.27
0.5532	55.08	0.29
0.5881	60.26	0.31
0.6199	65.18	0.32
0.6498	69.93	0.34
0.6565	70.96	0.34
0.6776	74.43	0.36
0.6813	74.99	0.36
0.7026	78.55	0.37
0.7045	78.83	0.37
0.7239	82.1	0.39
0.7294	82.97	0.39
0.7447	85.59	0.4
0.7546	87.18	0.4
0.7791	91.3	0.42
0.8025	95.21	0.43
0.8255	99.05	0.45
0.8499	103.05	0.46
0.8726	106.75	0.48
0.8944	110.22	0.49
0.9138	113.24	0.5
0.9316	115.97	0.51
0.9477	118.34	0.52
0.9617	120.4	0.53
0.9723	121.88	0.54
0.9803	123.03	0.54
0.9866	123.86	0.55
0.9905	124.39	0.55
0.9931	124.74	0.55
0.9952	125	0.55
0.9967	125.23	0.55
0.9978	125.38	0.55
0.9988	125.49	0.55
0.9994	125.52	0.55
0.9997	125.57	0.55
1	125.65	0.55

System: methanol + N,N-dimethylethanamide; phases: Liquid
Fixed: Temperature, K = 413.15
Fixed: Pressure, kPa = 1824
Property: Excess molar enthalpy (molar enthalpy of mixing), kJ/mol (Liquid); method: Flow calorimetry
Mole fraction of methanol	Excess molar enthalpy (molar enthalpy of mixing), kJ/mol	uncertainty
0.1079	-0.313	0.011
0.2034	-0.543	0.016
0.2885	-0.712	0.019
0.3648	-0.822	0.021
0.4337	-0.889	0.023
0.4961	-0.921	0.024
0.553	-0.924	0.024
0.605	-0.906	0.023
0.6527	-0.866	0.022
0.6967	-0.823	0.021
0.7374	-0.756	0.02
0.7751	-0.684	0.019
0.8101	-0.606	0.017
0.8428	-0.523	0.015
0.8733	-0.439	0.013
0.9019	-0.355	0.012
0.9287	-0.265	0.01
0.9539	-0.177	0.008
0.9776	-0.0892	0.0059

System: N,N-dimethylethanamide + ethyl acetate; phases: Liquid, Gas
Fixed: Temperature, K = 353.15
Property: Vapor or sublimation pressure, kPa (Liquid); method: Closed cell (Static) method
Mole fraction of ethyl acetate	Vapor or sublimation pressure, kPa	uncertainty
0	5.31	0.16
0.0025	5.67	0.17
0.0048	6.02	0.17
0.0073	6.39	0.17
0.0096	6.73	0.17
0.0127	7.19	0.17
0.0157	7.65	0.17
0.022	8.57	0.17
0.0285	9.52	0.17
0.0398	11.11	0.17
0.0553	13.31	0.18
0.0743	15.92	0.18
0.0976	19.07	0.19
0.1264	22.86	0.19
0.1577	26.86	0.2
0.1908	30.97	0.21
0.2259	35.18	0.22
0.263	39.5	0.24
0.2996	43.64	0.25
0.3367	47.7	0.26
0.3701	51.27	0.27
0.4023	54.64	0.29
0.4343	57.9	0.3
0.4428	58.82	0.3
0.4656	61.03	0.31
0.4706	61.59	0.31
0.4946	63.89	0.32
0.498	64.27	0.32
0.5206	66.4	0.33
0.5288	67.16	0.33
0.547	68.94	0.34
0.5615	70.27	0.34
0.595	73.42	0.35
0.6288	76.56	0.36
0.6637	79.78	0.38
0.7027	83.34	0.39
0.7411	86.86	0.4
0.7799	90.4	0.42
0.8161	93.74	0.43
0.851	96.99	0.44
0.8838	100.11	0.45
0.9135	102.99	0.46
0.9369	105.33	0.47
0.9555	107.2	0.48
0.97	108.7	0.49
0.9794	109.66	0.49
0.9859	110.3	0.49
0.9902	110.76	0.49
0.9934	111.08	0.5
0.996	111.35	0.5
0.9977	111.52	0.5
0.9988	111.62	0.5
0.9994	111.69	0.5
1	111.76	0.5

System: N,N-dimethylethanamide + ethyl acetate; phases: Liquid
Fixed: Temperature, K = 323.15
Fixed: Pressure, kPa = 1307
Property: Excess molar enthalpy (molar enthalpy of mixing), kJ/mol (Liquid); method: Flow calorimetry
Mole fraction of ethyl acetate	Excess molar enthalpy (molar enthalpy of mixing), kJ/mol	uncertainty
0.0476	0.028	0.0046
0.0954	0.0527	0.0052
0.1435	0.0786	0.0057
0.1918	0.1	0.006
0.2404	0.119	0.007
0.2892	0.137	0.007
0.3383	0.151	0.007
0.3876	0.164	0.008
0.4372	0.173	0.008
0.487	0.18	0.008
0.5371	0.184	0.008
0.5875	0.183	0.008
0.6381	0.18	0.008
0.689	0.171	0.008
0.7401	0.16	0.007
0.7916	0.144	0.007
0.8433	0.12	0.007
0.8952	0.0888	0.0059
0.9475	0.0499	0.0051

System: N,N-dimethylethanamide + dibutyl ether; phases: Liquid, Gas
Fixed: Temperature, K = 353.15
Property: Vapor or sublimation pressure, kPa (Liquid); method: Closed cell (Static) method
Mole fraction of dibutyl ether	Vapor or sublimation pressure, kPa	uncertainty
0	5.37	0.16
0.0014	5.46	0.16
0.0026	5.53	0.16
0.0039	5.61	0.16
0.0053	5.69	0.16
0.007	5.79	0.16
0.0086	5.88	0.16
0.0116	6.04	0.16
0.0147	6.21	0.16
0.0208	6.53	0.16
0.0297	6.96	0.17
0.0406	7.44	0.17
0.0544	7.99	0.17
0.0723	8.61	0.17
0.0919	9.21	0.17
0.1133	9.76	0.17
0.1371	10.28	0.17
0.1632	10.77	0.17
0.1901	11.19	0.17
0.2185	11.56	0.17
0.2449	11.86	0.17
0.2715	12.12	0.17
0.2985	12.35	0.17
0.3151	12.47	0.17
0.326	12.56	0.17
0.3399	12.65	0.17
0.3528	12.74	0.17
0.365	12.81	0.17
0.3774	12.89	0.17
0.3941	12.98	0.17
0.4034	13.04	0.17
0.4261	13.15	0.17
0.4602	13.31	0.17
0.4958	13.46	0.17
0.5341	13.62	0.17
0.5788	13.78	0.17
0.6249	13.92	0.17
0.6737	14.06	0.17
0.7215	14.18	0.17
0.7697	14.28	0.17
0.817	14.36	0.17
0.8617	14.37	0.17
0.8974	14.34	0.17
0.9262	14.29	0.17
0.949	14.22	0.17
0.9638	14.15	0.17
0.9747	14.1	0.17
0.9825	14.05	0.17
0.9876	14.01	0.17
0.9929	13.97	0.17
0.996	13.95	0.17
0.9977	13.93	0.17
0.9988	13.92	0.17
1	13.9	0.17

System: N,N-dimethylethanamide + dibutyl ether; phases: Liquid
Fixed: Temperature, K = 323.15
Fixed: Pressure, kPa = 1272
Property: Excess molar enthalpy (molar enthalpy of mixing), kJ/mol (Liquid); method: Flow calorimetry
Mole fraction of dibutyl ether	Excess molar enthalpy (molar enthalpy of mixing), kJ/mol	uncertainty
0.0281	0.162	0.007
0.0575	0.316	0.011
0.0883	0.47	0.014
0.1206	0.614	0.017
0.1546	0.751	0.02
0.1904	0.874	0.023
0.2281	0.979	0.025
0.2678	1.079	0.027
0.3098	1.16	0.029
0.3543	1.235	0.03
0.4014	1.287	0.031
0.4515	1.328	0.032
0.5047	1.344	0.033
0.5615	1.327	0.032
0.6221	1.288	0.031
0.687	1.2	0.029
0.7566	1.055	0.026
0.8316	0.831	0.022
0.9125	0.501	0.015

System: dichloromethane + N,N-dimethylethanamide; phases: Liquid, Gas
Fixed: Temperature, K = 333.15
Property: Vapor or sublimation pressure, kPa (Liquid); method: Closed cell (Static) method
Mole fraction of dichloromethane	Vapor or sublimation pressure, kPa	uncertainty
0	2.23	0.16
0.0048	2.54	0.16
0.0092	2.9	0.16
0.0136	3.24	0.16
0.0237	3.98	0.16
0.045	5.58	0.16
0.0931	9.47	0.17
0.1465	14.41	0.18
0.212	21.5	0.19
0.2863	30.96	0.21
0.3693	43.78	0.25
0.451	58.86	0.3
0.5265	74.94	0.36
0.5956	91.59	0.42
0.6539	106.79	0.48
0.705	120.63	0.54
0.7669	138.11	0.61
0.8226	153.67	0.68
0.8917	172.73	0.76
0.9305	182.64	0.8
0.9596	189.62	0.83
0.9834	194.77	0.85
0.9933	196.66	0.86
0.9981	197.69	0.87
1	197.94	0.87

System: dichloromethane + N,N-dimethylethanamide; phases: Liquid
Fixed: Temperature, K = 323.15
Fixed: Pressure, kPa = 1273
Property: Excess molar enthalpy (molar enthalpy of mixing), kJ/mol (Liquid); method: Flow calorimetry
Mole fraction of dichloromethane	Excess molar enthalpy (molar enthalpy of mixing), kJ/mol	uncertainty
0.0709	-0.424	0.013
0.1387	-0.788	0.021
0.2037	-1.108	0.028
0.2659	-1.374	0.033
0.3257	-1.587	0.038
0.3831	-1.722	0.041
0.4383	-1.834	0.043
0.4914	-1.898	0.044
0.5425	-1.916	0.045
0.5917	-1.907	0.044
0.6391	-1.842	0.043
0.6849	-1.745	0.041
0.7291	-1.614	0.038
0.7718	-1.456	0.035
0.813	-1.267	0.031
0.8529	-1.055	0.026
0.8914	-0.815	0.021
0.9288	-0.554	0.016
0.965	-0.285	0.01
