Measured thermophysical data. High Pressure Phase Equilibria of the CO2/Saturated Ethyl Esters Homologous Series
Source: J. Chem. Eng. Data, 2018, 10.1021/acs.jced.7b00780
Compound 1: carbon dioxide, CO2, InChI=1S/CO2/c2-1-3
Compound 2: ethyl decanoate, C12H24O2, InChI=1S/C12H24O2/c1-3-5-6-7-8-9-10-11-12(13)14-4-2/h3-11H2,1-2H3
Compound 3: ethyl dodecanoate, C14H28O2, InChI=1S/C14H28O2/c1-3-5-6-7-8-9-10-11-12-13-14(15)16-4-2/h3-13H2,1-2H3
Compound 4: ethyl tetradecanoate, C16H32O2, InChI=1S/C16H32O2/c1-3-5-6-7-8-9-10-11-12-13-14-15-16(17)18-4-2/h3-15H2,1-2H3
Compound 5: ethyl hexadecanoate, C18H36O2, InChI=1S/C18H36O2/c1-3-5-6-7-8-9-10-11-12-13-14-15-16-17-18(19)20-4-2/h3-17H2,1-2H3

System: carbon dioxide + ethyl decanoate; phases: Liquid, Gas
Property: Vapor or sublimation pressure, kPa (Liquid); method: visual
Mole fraction of ethyl decanoate	Temperature, K	Vapor or sublimation pressure, kPa	uncertainty
0.275	308.5	5860	1460
0.275	318.6	6910	1480
0.275	328.7	8000	1510
0.275	338.7	9120	1540
0.275	348.7	10200	1580
0.275	358.5	11290	1610
0.212	308.4	6490	1470
0.212	318.4	7760	1500
0.212	328.6	9120	1540
0.212	338.7	10460	1580
0.212	348.7	11840	1630
0.212	358.7	13250	1690
0.162	308.5	6930	1480
0.162	318.5	8290	1520
0.162	328.5	9780	1560
0.162	338.6	11400	1620
0.162	348.6	13010	1680
0.162	358.6	14520	1740
0.125	308.4	7140	1490
0.125	318.3	8640	1530
0.125	328.3	10340	1580
0.125	338.2	12130	1640
0.125	348.2	13800	1710
0.125	358.5	15460	1780
0.0875	308.4	7390	1500
0.0875	318.3	9020	1540
0.0875	328.4	10880	1600
0.0875	338.4	12800	1670
0.0875	348.5	14690	1740
0.0622	308.5	7590	1500
0.0622	318.6	9300	1550
0.0469	308.5	7580	1500
0.0469	318.4	9260	1550
0.0287	308.5	7720	1500
0.0187	308.5	7840	1510

System: carbon dioxide + ethyl decanoate; phases: Gas, Liquid
Property: Vapor or sublimation pressure, kPa (Gas); method: visual
Mole fraction of ethyl decanoate	Temperature, K	Vapor or sublimation pressure, kPa	uncertainty
0.0875	358.4	16430	1820
0.0622	328.5	11260	1610
0.0622	338.6	13300	1690
0.0622	348.6	15120	1760
0.0622	358.7	16770	1840
0.0469	328.5	11330	1610
0.0469	338.6	13310	1690
0.0469	348.8	15110	1760
0.0469	358.8	16720	1830
0.0287	318.5	9510	1560
0.0287	328.5	11420	1620
0.0287	338.6	13320	1690
0.0287	348.8	15040	1760
0.0287	358.8	16560	1830
0.0187	318.5	9610	1560
0.0187	328.5	11440	1620
0.0187	338.6	13260	1690
0.0187	348.7	14850	1750
0.0187	358.8	16210	1810
0.0129	308.1	7670	1500
0.0129	318.6	9370	1550
0.0129	328.6	11180	1610
0.0129	338.7	12930	1670
0.0129	348.5	14380	1730
0.0129	358.5	15520	1780

System: carbon dioxide + ethyl dodecanoate; phases: Liquid, Gas
Property: Vapor or sublimation pressure, kPa (Liquid); method: visual
Mole fraction of ethyl dodecanoate	Temperature, K	Vapor or sublimation pressure, kPa	uncertainty
0.261	308.4	6090	1470
0.261	318.1	7160	1490
0.261	328.7	8420	1520
0.261	338.7	9620	1560
0.261	348.7	10840	1600
0.261	358.7	12080	1640
0.195	308.5	6740	1480
0.195	318.4	8070	1510
0.195	328.6	9590	1560
0.195	338.6	11110	1610
0.195	348.7	12620	1660
0.195	358.7	14050	1720
0.145	308.5	7250	1490
0.145	318.5	8850	1530
0.145	328.6	10620	1590
0.145	338.6	12400	1650
0.145	348.5	14160	1720
0.145	358.7	15900	1800
0.107	308.5	7540	1500
0.107	318.5	9330	1550
0.107	328.7	11380	1620
0.107	338.9	13480	1700
0.107	348.7	15370	1770
0.107	358.7	17110	1850
0.08	308.5	7610	1500
0.08	318.5	9550	1560
0.08	328.6	11820	1630
0.08	338.4	14000	1720
0.08	349	16130	1810
0.055	308.6	7870	1510
0.055	318.6	9850	1570
0.044	308.7	7970	1510
0.026	308.5	7850	1510
0.018	308.4	7830	1510

System: carbon dioxide + ethyl dodecanoate; phases: Gas, Liquid
Property: Vapor or sublimation pressure, kPa (Gas); method: visual
Mole fraction of ethyl dodecanoate	Temperature, K	Vapor or sublimation pressure, kPa	uncertainty
0.08	358.8	17930	1890
0.055	328.7	12240	1650
0.055	338.4	14380	1730
0.055	348.5	16400	1820
0.055	358.3	18200	1900
0.044	318.7	10140	1580
0.044	328.7	12480	1660
0.044	338.4	14620	1740
0.044	348.6	16680	1830
0.044	358.3	18370	1910
0.026	318.6	10010	1570
0.026	328.7	12340	1650
0.026	338.4	14390	1730
0.026	348.8	16410	1820
0.026	358.6	18110	1900
0.018	318.5	9870	1570
0.018	328.6	12090	1640
0.018	338.4	14110	1720
0.018	349	16040	1800
0.018	358.6	17540	1870
0.0108	308.6	7890	1510
0.0108	318.2	9710	1560
0.0108	328.7	11920	1640
0.0108	338.8	13820	1710
0.0108	348.4	15460	1780
0.0108	358.6	16890	1840
0.0054	308.3	7870	1510
0.0054	318.2	9570	1560
0.0054	328.7	11540	1620
0.0054	338.8	13150	1680
0.0054	348.4	14440	1730
0.0054	358.4	15620	1780
0.0035	308.5	7890	1510
0.0035	318.5	9470	1550
0.0035	328.6	11180	1610
0.0035	338.8	12660	1660
0.0035	348.6	13850	1710
0.0035	358.8	14810	1750

System: carbon dioxide + ethyl tetradecanoate; phases: Liquid, Gas
Property: Vapor or sublimation pressure, kPa (Liquid); method: visual
Mole fraction of ethyl tetradecanoate	Temperature, K	Vapor or sublimation pressure, kPa	uncertainty
0.247	308.5	6360	1470
0.247	318.4	7560	1500
0.247	328.6	8830	1530
0.247	338.2	10020	1570
0.247	348.7	11390	1620
0.247	358.5	12490	1660
0.188	308.5	7010	1490
0.188	318.5	8500	1520
0.188	328.7	10070	1570
0.188	338.3	11630	1620
0.188	348.8	13320	1690
0.188	358.6	14790	1750
0.135	308.4	7500	1500
0.135	318.5	9350	1550
0.135	328.6	11490	1620
0.135	338.6	13610	1700
0.135	348.7	15670	1790
0.135	358.3	17480	1870
0.0947	308.5	7810	1510
0.0947	318.5	10200	1580
0.0947	328.6	12770	1670
0.0947	338.7	15110	1760
0.0947	348.9	17310	1860
0.0947	358.5	19200	1950
0.0699	308.5	7950	1510

System: carbon dioxide + ethyl tetradecanoate; phases: Gas, Liquid
Property: Vapor or sublimation pressure, kPa (Gas); method: visual
Mole fraction of ethyl tetradecanoate	Temperature, K	Vapor or sublimation pressure, kPa	uncertainty
0.0699	318.6	10780	1600
0.0699	328.7	13440	1700
0.0699	338.9	15870	1800
0.0699	348.4	17920	1890
0.0699	358.6	19910	1990
0.0499	308.5	8160	1520
0.0499	318.5	11040	1610
0.0499	328.5	13670	1700
0.0499	338.4	15990	1800
0.0499	348.7	18240	1910
0.0499	358.6	20170	2000
0.0397	308.5	8200	1520
0.0397	318.5	11080	1610
0.0397	328.5	13700	1710
0.0397	338.3	15950	1800
0.0397	348.9	18180	1900
0.0397	358.6	20060	1990
0.0381	308.3	8160	1520
0.0381	318.4	11030	1610
0.0381	328.4	13670	1700
0.0381	338.2	15930	1800
0.0381	348.6	18130	1900
0.0381	358.5	20040	1990
0.0237	308.4	8070	1520
0.0237	318.4	10870	1600
0.0237	328.6	13500	1700
0.0237	339	15900	1800
0.0237	348.6	17850	1890
0.0237	358.2	19590	1970
0.0152	308.3	7960	1510
0.0152	318.2	10540	1590
0.0152	328.4	13140	1680
0.0152	338.3	15340	1770
0.0152	348.6	17390	1860
0.0152	358.1	19000	1940

System: carbon dioxide + ethyl hexadecanoate; phases: Liquid, Gas
Property: Vapor or sublimation pressure, kPa (Liquid); method: visual
Mole fraction of ethyl hexadecanoate	Temperature, K	Vapor or sublimation pressure, kPa	uncertainty
0.219	308.5	6700	1480
0.219	318.5	7930	1510
0.219	328.5	9400	1550
0.219	338.7	10930	1600
0.219	348.2	12380	1650
0.219	358.3	13820	1710
0.162	308.6	7360	1490
0.162	318.7	8990	1540
0.162	328.8	11000	1600
0.162	338.8	13010	1680
0.162	348.5	14880	1750
0.162	358.4	16670	1830
0.117	308.6	7910	1510
0.117	318.6	10370	1580
0.117	328.7	13000	1680
0.117	338.9	15340	1770
0.117	348.4	17460	1870
0.117	358.5	19470	1960
0.0932	309.1	9040	1540
0.0932	318.3	11620	1630
0.0932	328.2	14170	1720
0.0932	338.5	16650	1830
0.0932	348.8	18750	1930
0.0932	358.6	20610	2020

System: carbon dioxide + ethyl hexadecanoate; phases: Gas, Liquid
Property: Vapor or sublimation pressure, kPa (Gas); method: visual
Mole fraction of ethyl hexadecanoate	Temperature, K	Vapor or sublimation pressure, kPa	uncertainty
0.0637	308.6	10090	1580
0.0637	318.1	12850	1670
0.0637	328.2	15650	1790
0.0637	338.7	18180	1900
0.0637	349	20550	2020
0.0637	359.6	22720	2130
0.0477	308.6	10710	1600
0.0477	319.2	13780	1710
0.0477	328.8	16310	1820
0.0477	338.3	18630	1920
0.0477	348.7	20950	2040
0.0477	358.4	23010	2150
0.0324	308.3	10380	1590
0.0324	318.4	13360	1690
0.0324	328.3	15950	1800
0.0324	338.5	18440	1920
0.0324	348.8	20690	2030
0.0324	358.6	22600	2130
0.0202	308.6	10290	1580
0.0202	318.3	13200	1690
0.0202	328.3	15860	1800
0.0202	338.3	18290	1910
0.0202	348.3	20390	2010
0.0202	358.4	22370	2110
0.0135	308.5	9540	1560
0.0135	318.7	12650	1670
0.0135	328.5	15360	1770
0.0135	338.2	17710	1880
0.0135	348.6	20020	1990
0.0135	358.3	21880	2090
0.00767	308.4	8760	1540
0.00767	318.8	11740	1630
0.00767	328.6	14280	1730
0.00767	338.3	16320	1820
0.00767	348.5	18430	1910
0.00767	358.4	20570	2020
0.00507	308.7	8480	1530
0.00507	318.7	11170	1610
0.00507	328.8	13450	1690
0.00507	338.4	15420	1780
0.00507	348.4	17230	1860
0.00507	358.5	19170	1950
0.00273	308.3	8060	1510
0.00273	318.6	10530	1590
0.00273	328.5	12640	1660
0.00273	338.3	14470	1740
0.00273	348.6	15910	1800
0.00273	358.5	17490	1870
