Measured thermophysical data. Standard Volumetric Properties of Chiral N-Methyl-Substituted Glycolurils in Water between 278.15 and 318.15 K at Ambient Pressure
Source: J. Chem. Eng. Data, 2018, 10.1021/acs.jced.8b00105
Compound 1: rac-(3aS,6aR)-1-methyltetrahydroimidazo[4,5-d]imidazole-2,5(1H,3H)-dione, C5H8N4O2, InChI=1S/C5H8N4O2/c1-9-3-2(7-5(9)11)6-4(10)8-3/h2-3H,1H3,(H,7,11)(H2,6,8,10)/t2-,3+/m0/s1, purity 98%
Compound 2: rac-(3aS,6aR)-1,3,4-trimethyltetrahydroimidazo[4,5-d]imidazole-2,5(1H,3H)-dione, C7H12N4O2, InChI=1S/C7H12N4O2/c1-9-4-5(11(3)7(9)13)10(2)6(12)8-4/h4-5H,1-3H3,(H,8,12)/t4-,5+/m1/s1, purity 98%
Compound 3: water, H2O, InChI=1S/H2O/h1H2, purity 99.9%
Compound 4: urea, CH4N2O, InChI=1S/CH4N2O/c2-1(3)4/h(H4,2,3,4), purity 99.5%

System: rac-(3aS,6aR)-1-methyltetrahydroimidazo[4,5-d]imidazole-2,5(1H,3H)-dione; phases: Crystal, Liquid, Air at 1 atmosphere
Property: Triple point temperature, K (Crystal); method: DSC
Triple point temperature, K	uncertainty
534.5	0.9

System: rac-(3aS,6aR)-1,3,4-trimethyltetrahydroimidazo[4,5-d]imidazole-2,5(1H,3H)-dione; phases: Crystal, Liquid, Air at 1 atmosphere
Property: Triple point temperature, K (Crystal); method: DSC
Triple point temperature, K	uncertainty
365.5	0.9

System: water; phases: Liquid
Fixed: Pressure, kPa = 99.6
Property: Mass density, kg/m3 (Liquid); method: Vibrating tube method
Temperature, K	Mass density, kg/m3	uncertainty
278.15	999.965	0.039
288.15	999.101	0.039
298.15	997.047	0.04
308.15	994.035	0.041
318.15	990.216	0.043

System: water + rac-(3aS,6aR)-1-methyltetrahydroimidazo[4,5-d]imidazole-2,5(1H,3H)-dione; phases: Liquid
Fixed: Pressure, kPa = 99.6
Property: Mass density, kg/m3 (Liquid); method: Vibrating tube method
Temperature, K	Molality, mol/kg of rac-(3aS,6aR)-1-methyltetrahydroimidazo[4,5-d]imidazole-2,5(1H,3H)-dione	Mass density, kg/m3	uncertainty
278.15	0	999.965	0.039
278.15	0.00565	1000.264	0.039
278.15	0.00579	1000.272	0.039
278.15	0.00688	1000.33	0.039
278.15	0.00707	1000.34	0.039
278.15	0.00779	1000.378	0.039
278.15	0.00938	1000.462	0.039
278.15	0.00979	1000.484	0.039
278.15	0.01084	1000.539	0.039
278.15	0.01155	1000.577	0.039
278.15	0.01478	1000.747	0.039
278.15	0.01573	1000.797	0.039
278.15	0.01844	1000.941	0.039
278.15	0.02028	1001.038	0.039
278.15	0.02384	1001.225	0.04
278.15	0.02691	1001.387	0.04
278.15	0.02724	1001.404	0.04
278.15	0.03034	1001.567	0.04
278.15	0.03189	1001.649	0.04
288.15	0	999.101	0.04
288.15	0.00565	999.391	0.122
288.15	0.00579	999.398	0.118
288.15	0.00688	999.454	0.094
288.15	0.00707	999.464	0.041
288.15	0.00779	999.501	0.04
288.15	0.00938	999.583	0.039
288.15	0.00979	999.603	0.04
288.15	0.01084	999.657	0.039
288.15	0.01155	999.694	0.044
288.15	0.01478	999.859	0.039
288.15	0.01573	999.908	0.039
288.15	0.01844	1000.046	0.039
288.15	0.02028	1000.14	0.039
288.15	0.02384	1000.322	0.039
288.15	0.02691	1000.479	0.063
288.15	0.02724	1000.496	0.06
288.15	0.03034	1000.654	0.039
288.15	0.03189	1000.732	0.04
298.15	0	997.047	0.04
298.15	0.00565	997.33	0.101
298.15	0.00579	997.337	0.098
298.15	0.00688	997.392	0.08
298.15	0.00707	997.401	0.041
298.15	0.00779	997.437	0.04
298.15	0.00938	997.517	0.04
298.15	0.00979	997.537	0.041
298.15	0.01084	997.59	0.04
298.15	0.01155	997.626	0.043
298.15	0.01478	997.787	0.04
298.15	0.01573	997.835	0.04
298.15	0.01844	997.97	0.04
298.15	0.02028	998.062	0.04
298.15	0.02384	998.239	0.04
298.15	0.02691	998.393	0.057
298.15	0.02724	998.41	0.054
298.15	0.03034	998.563	0.04
298.15	0.03189	998.64	0.04
308.15	0	994.035	0.041
308.15	0.00565	994.313	0.089
308.15	0.00579	994.32	0.085
308.15	0.00688	994.374	0.071
308.15	0.00707	994.383	0.042
308.15	0.00779	994.418	0.041
308.15	0.00938	994.497	0.041
308.15	0.00979	994.517	0.042
308.15	0.01084	994.569	0.041
308.15	0.01155	994.603	0.043
308.15	0.01478	994.762	0.041
308.15	0.01573	994.809	0.041
308.15	0.01844	994.942	0.041
308.15	0.02028	995.032	0.041
308.15	0.02384	995.207	0.041
308.15	0.02691	995.358	0.053
308.15	0.02724	995.374	0.051
308.15	0.03034	995.526	0.041
308.15	0.03189	995.602	0.041
318.15	0	990.216	0.043
318.15	0.00565	990.491	0.042
318.15	0.00579	990.498	0.042
318.15	0.00688	990.551	0.042
318.15	0.00707	990.56	0.042
318.15	0.00779	990.595	0.042
318.15	0.00938	990.673	0.042
318.15	0.00979	990.693	0.042
318.15	0.01084	990.744	0.042
318.15	0.01155	990.778	0.042
318.15	0.01478	990.935	0.042
318.15	0.01573	990.981	0.042
318.15	0.01844	991.113	0.042
318.15	0.02028	991.202	0.042
318.15	0.02384	991.376	0.042
318.15	0.02691	991.524	0.042
318.15	0.02724	991.541	0.042
318.15	0.03034	991.691	0.042
318.15	0.03189	991.767	0.042

System: water + rac-(3aS,6aR)-1,3,4-trimethyltetrahydroimidazo[4,5-d]imidazole-2,5(1H,3H)-dione; phases: Liquid
Fixed: Pressure, kPa = 99.6
Property: Mass density, kg/m3 (Liquid); method: Vibrating tube method
Temperature, K	Molality, mol/kg of rac-(3aS,6aR)-1,3,4-trimethyltetrahydroimidazo[4,5-d]imidazole-2,5(1H,3H)-dione	Mass density, kg/m3	uncertainty
278.15	0	999.965	0.039
278.15	0.03579	1001.599	0.04
278.15	0.05432	1002.444	0.04
278.15	0.06775	1003.05	0.04
278.15	0.10602	1004.779	0.041
278.15	0.10771	1004.851	0.041
278.15	0.13402	1006.026	0.041
278.15	0.16517	1007.419	0.041
278.15	0.17597	1007.894	0.041
278.15	0.1985	1008.884	0.042
278.15	0.22035	1009.845	0.042
278.15	0.25303	1011.275	0.042
278.15	0.28331	1012.585	0.043
278.15	0.32989	1014.584	0.043
278.15	0.38224	1016.815	0.044
278.15	0.42139	1018.46	0.045
278.15	0.47091	1020.51	0.045
278.15	0.5228	1022.651	0.046
288.15	0	999.101	0.04
288.15	0.03579	1000.687	0.039
288.15	0.05432	1001.504	0.04
288.15	0.06775	1002.092	0.04
288.15	0.10602	1003.762	0.042
288.15	0.10771	1003.839	0.041
288.15	0.13402	1004.982	0.041
288.15	0.16517	1006.318	0.041
288.15	0.17597	1006.783	0.041
288.15	0.1985	1007.75	0.041
288.15	0.22035	1008.673	0.042
288.15	0.25303	1010.051	0.042
288.15	0.28331	1011.325	0.043
288.15	0.32989	1013.264	0.043
288.15	0.38224	1015.412	0.044
288.15	0.42139	1017.003	0.044
288.15	0.47091	1018.994	0.045
288.15	0.5228	1021.052	0.045
298.15	0	997.047	0.04
298.15	0.03579	998.593	0.04
298.15	0.05432	999.391	0.04
298.15	0.06775	999.969	0.039
298.15	0.10602	1001.595	0.041
298.15	0.10771	1001.668	0.04
298.15	0.13402	1002.785	0.04
298.15	0.16517	1004.09	0.041
298.15	0.17597	1004.595	0.041
298.15	0.1985	1005.485	0.041
298.15	0.22035	1006.389	0.041
298.15	0.25303	1007.733	0.042
298.15	0.28331	1008.978	0.042
298.15	0.32989	1010.861	0.043
298.15	0.38224	1012.967	0.043
298.15	0.42139	1014.513	0.044
298.15	0.47091	1016.457	0.044
298.15	0.5228	1018.474	0.045
308.15	0	994.035	0.041
308.15	0.03579	995.55	0.041
308.15	0.05432	996.33	0.041
308.15	0.06775	996.893	0.041
308.15	0.10602	998.493	0.041
308.15	0.10771	998.562	0.04
308.15	0.13402	999.65	0.04
308.15	0.16517	1000.937	0.04
308.15	0.17597	1001.378	0.04
308.15	0.1985	1002.293	0.04
308.15	0.22035	1003.184	0.041
308.15	0.25303	1004.5	0.041
308.15	0.28331	1005.713	0.041
308.15	0.32989	1007.562	0.042
308.15	0.38224	1009.617	0.043
308.15	0.42139	1011.139	0.043
308.15	0.47091	1013.037	0.044
308.15	0.5228	1015.012	0.044
318.15	0	990.216	0.043
318.15	0.03579	991.703	0.042
318.15	0.05432	992.472	0.042
318.15	0.06775	993.021	0.042
318.15	0.10602	994.587	0.041
318.15	0.10771	994.66	0.041
318.15	0.13402	995.73	0.041
318.15	0.16517	996.987	0.041
318.15	0.17597	997.419	0.041
318.15	0.1985	998.317	0.04
318.15	0.22035	999.19	0.04
318.15	0.25303	1000.48	0.04
318.15	0.28331	1001.676	0.04
318.15	0.32989	1003.484	0.041
318.15	0.38224	1005.493	0.042
318.15	0.42139	1006.984	0.042
318.15	0.47091	1008.852	0.042
318.15	0.5228	1010.776	0.043

System: water + urea; phases: Liquid
Fixed: Temperature, K = 298.15
Fixed: Pressure, kPa = 99.6
Property: Mass density, kg/m3 (Liquid); method: Vibrating tube method
Molality, mol/kg of urea	Mass density, kg/m3	uncertainty
0.02492	997.447	0.071
0.05008	997.848	0.07
0.07479	998.236	0.07
0.09987	998.633	0.07
