Measured thermophysical data. Isobaric Vapor Liquid Equilibria for Binary Mixtures of .gamma.-Valerolactone + Methanol, Ethanol, and 2-Propanol
Source: J. Chem. Eng. Data, 2016, 10.1021/acs.jced.6b00384
Compound 1: .gamma.-valerolactone, C5H8O2, InChI=1S/C5H8O2/c1-4-2-3-5(6)7-4/h4H,2-3H2,1H3, purity 98%
Compound 2: methanol, CH4O, InChI=1S/CH4O/c1-2/h2H,1H3, purity 98.5%
Compound 3: ethanol, C2H6O, InChI=1S/C2H6O/c1-2-3/h3H,2H2,1H3, purity 99.99%
Compound 4: propan-2-ol, C3H8O, InChI=1S/C3H8O/c1-3(2)4/h3-4H,1-2H3, purity 99.9%
Compound 5: 1,2-ethanediol, C2H6O2, InChI=1S/C2H6O2/c3-1-2-4/h3-4H,1-2H2, purity 99.8%

System: .gamma.-valerolactone; phases: Liquid
Fixed: Pressure, kPa = 101
Property: Refractive index (Na D-line) (Liquid); method: Standard Abbe refractometry
Temperature, K	Refractive index (Na D-line)	uncertainty
293.2	1.4339	0.0004
298.2	1.4316	0.0004

System: methanol; phases: Liquid
Fixed: Pressure, kPa = 101
Property: Refractive index (Na D-line) (Liquid); method: Standard Abbe refractometry
Temperature, K	Refractive index (Na D-line)	uncertainty
293.2	1.329	0.0004
298.2	1.3268	0.0004

System: methanol; phases: Liquid, Gas
Property: Vapor or sublimation pressure, kPa (Liquid); method: Ebulliometric method (Recirculating still)
Temperature, K	Vapor or sublimation pressure, kPa	uncertainty
337.8	101	1

System: ethanol; phases: Liquid
Fixed: Pressure, kPa = 101
Property: Refractive index (Na D-line) (Liquid); method: Standard Abbe refractometry
Temperature, K	Refractive index (Na D-line)	uncertainty
293.2	1.3616	0.0004
298.2	1.3596	0.0004

System: ethanol; phases: Liquid, Gas
Property: Vapor or sublimation pressure, kPa (Liquid); method: Ebulliometric method (Recirculating still)
Temperature, K	Vapor or sublimation pressure, kPa	uncertainty
351.5	101	1

System: propan-2-ol; phases: Liquid
Fixed: Pressure, kPa = 101
Property: Refractive index (Na D-line) (Liquid); method: Standard Abbe refractometry
Temperature, K	Refractive index (Na D-line)	uncertainty
293.2	1.3771	0.0004
298.2	1.3751	0.0004

System: propan-2-ol; phases: Liquid, Gas
Property: Vapor or sublimation pressure, kPa (Liquid); method: Ebulliometric method (Recirculating still)
Temperature, K	Vapor or sublimation pressure, kPa	uncertainty
355.2	101	1

System: methanol + .gamma.-valerolactone; phases: Liquid
Fixed: Pressure, kPa = 101
Property: Refractive index (Na D-line) (Liquid); method: Standard Abbe refractometry
Temperature, K	Mole fraction of methanol	Refractive index (Na D-line)	uncertainty
293.2	0	1.4339	0.0004
293.2	0.2537	1.4222	0.0004
293.2	0.3108	1.4183	0.0004
293.2	0.3144	1.4181	0.0004
293.2	0.3827	1.4136	0.0004
293.2	0.4409	1.4093	0.0004
293.2	0.4927	1.405	0.0004
293.2	0.5389	1.4018	0.0004
298.2	0	1.4316	0.0004
298.2	0.2537	1.4197	0.0004
298.2	0.3108	1.4163	0.0004
298.2	0.3144	1.4161	0.0004
298.2	0.3827	1.4116	0.0004
298.2	0.4409	1.4067	0.0004
298.2	0.4927	1.4029	0.0004
298.2	0.5389	1.3997	0.0004
293.2	0.5945	1.3969	0.0004
293.2	0.6358	1.3925	0.0004
293.2	0.6768	1.3876	0.0004
293.2	0.7044	1.3842	0.0004
293.2	0.7143	1.3831	0.0004
293.2	0.7396	1.3791	0.0004
293.2	0.769	1.3756	0.0004
293.2	0.7817	1.3728	0.0004
298.2	0.5945	1.3948	0.0004
298.2	0.6358	1.3903	0.0004
298.2	0.6768	1.3849	0.0004
298.2	0.7044	1.3815	0.0004
298.2	0.7143	1.3804	0.0004
298.2	0.7396	1.3769	0.0004
298.2	0.769	1.3729	0.0004
298.2	0.7817	1.3708	0.0004
293.2	0.8257	1.367	0.0004
293.2	0.8362	1.3647	0.0004
293.2	0.8754	1.3579	0.0004
293.2	0.8882	1.3548	0.0004
293.2	0.9296	1.3468	0.0004
293.2	0.9362	1.3447	0.0004
293.2	1	1.329	0.0004
298.2	0.8257	1.3643	0.0004
298.2	0.8362	1.3627	0.0004
298.2	0.8754	1.3552	0.0004
298.2	0.8882	1.3527	0.0004
298.2	0.9296	1.3442	0.0004
298.2	0.9362	1.3427	0.0004
298.2	1	1.3268	0.0004

System: methanol + .gamma.-valerolactone; phases: Liquid, Gas
Fixed: Pressure, kPa = 101
Property: Boiling temperature at pressure P, K (Liquid); method: Ebulliometric method (Recirculating still)
Mole fraction of methanol	Boiling temperature at pressure P, K	uncertainty
1	337.8	0.8
0.9993	337.8	0.8
0.9986	337.8	0.8
0.9983	337.8	0.8
0.998	337.8	0.8
0.9973	337.9	0.8
0.996	337.9	0.8
0.9939	337.9	0.8
0.9737	338.4	0.8
0.9533	338.9	0.8
0.933	339.3	0.8
0.8681	340.6	0.8
0.8456	341.2	0.8
0.6739	345.1	0.8
0.6468	345.9	0.8
0.5601	348.8	0.8
0.4966	351.6	0.8
0.4612	353.4	0.8
0.4256	355.1	0.8
0.3904	356.6	0.8
0.267	365.2	0.8
0.2401	368	0.8
0.2006	372.4	0.8
0.1777	375.1	0.8

System: methanol + .gamma.-valerolactone; phases: Gas, Liquid
Fixed: Pressure, kPa = 101
Property: Mole fraction of methanol (Gas); method: Index of refraction calibration data
Mole fraction of methanol	Mole fraction of methanol	uncertainty
1	1	
0.9993	0.99999	1e-05
0.9986	0.9999	0.0001
0.9983	0.9999	0.0001
0.998	0.9999	0.0001
0.9973	0.9999	0.0001
0.996	0.9999	0.0001
0.9939	0.9998	0.0002
0.9737	0.9994	0.0006
0.9533	0.9992	0.0008
0.933	0.999	0.001
0.8681	0.9987	0.0012
0.8456	0.9985	0.0012
0.6739	0.9975	0.0012
0.6468	0.9973	0.0012
0.5601	0.9962	0.0012
0.4966	0.9949	0.0012
0.4612	0.994	0.0012
0.4256	0.9929	0.0012
0.3904	0.9919	0.0012
0.267	0.985	0.0012
0.2401	0.9821	0.0012
0.2006	0.9768	0.0012
0.1777	0.9729	0.0012

System: ethanol + .gamma.-valerolactone; phases: Liquid
Fixed: Pressure, kPa = 101
Property: Refractive index (Na D-line) (Liquid); method: Standard Abbe refractometry
Temperature, K	Mole fraction of ethanol	Refractive index (Na D-line)	uncertainty
293.2	0	1.4339	0.0004
293.2	0.1875	1.4254	0.0004
293.2	0.2488	1.4225	0.0004
293.2	0.2857	1.4205	0.0004
293.2	0.3591	1.417	0.0004
293.2	0.4062	1.4138	0.0004
298.2	0	1.4316	0.0004
298.2	0.1875	1.423	0.0004
298.2	0.2488	1.42	0.0004
298.2	0.2857	1.4183	0.0004
298.2	0.3591	1.4144	0.0004
298.2	0.4062	1.4115	0.0004
293.2	0.5219	1.4062	0.0004
293.2	0.5521	1.4045	0.0004
293.2	0.6172	1.4001	0.0004
293.2	0.6457	1.3976	0.0004
293.2	0.7024	1.393	0.0004
293.2	0.7199	1.3915	0.0004
298.2	0.5219	1.4041	0.0004
298.2	0.5521	1.4023	0.0004
298.2	0.6172	1.3979	0.0004
298.2	0.6457	1.3951	0.0004
298.2	0.7024	1.3907	0.0004
298.2	0.7199	1.3891	0.0004
293.2	0.7983	1.3842	0.0004
293.2	0.8667	1.3775	0.0004
293.2	0.9299	1.3703	0.0004
293.2	0.9697	1.3655	0.0004
293.2	1	1.3616	0.0004
298.2	0.7983	1.3823	0.0004
298.2	0.8667	1.3756	0.0004
298.2	0.9299	1.3683	0.0004
298.2	0.9697	1.3634	0.0004
298.2	1	1.3596	0.0004

System: ethanol + .gamma.-valerolactone; phases: Liquid, Gas
Fixed: Pressure, kPa = 101
Property: Boiling temperature at pressure P, K (Liquid); method: Ebulliometric method (Recirculating still)
Mole fraction of ethanol	Boiling temperature at pressure P, K	uncertainty
1	351.5	0.8
0.9961	351.5	0.8
0.9925	351.6	0.8
0.9813	351.8	0.8
0.9769	351.9	0.8
0.9729	352	0.8
0.9696	352	0.8
0.9655	352.1	0.8
0.9495	352.4	0.8
0.9387	352.7	0.8
0.931	352.9	0.8
0.9157	353.3	0.8
0.8994	353.7	0.8
0.8751	354.1	0.8
0.8612	354.5	0.8
0.8403	354.9	0.8
0.8208	355.4	0.8
0.8016	355.9	0.8
0.7714	356.7	0.8
0.7146	357.4	0.8
0.6788	358.2	0.8
0.6361	359.5	0.8
0.603	360.7	0.8
0.5434	362.2	0.8
0.509	363.4	0.8
0.4775	364.6	0.8
0.4241	366.7	0.8
0.3902	368.5	0.8
0.3798	369.2	0.8
0.3242	372.9	0.8
0.2588	379.3	0.8
0.2371	381.7	0.9
0.2192	383.8	0.9
0.1976	386.8	0.9
0.1768	390	0.9

System: ethanol + .gamma.-valerolactone; phases: Gas, Liquid
Fixed: Pressure, kPa = 101
Property: Mole fraction of ethanol (Gas); method: Index of refraction calibration data
Mole fraction of ethanol	Mole fraction of ethanol	uncertainty
1	1	
0.9961	0.9996	0.0004
0.9925	0.9995	0.0005
0.9813	0.9989	0.0011
0.9769	0.9988	0.0012
0.9729	0.9987	0.0013
0.9696	0.9985	0.0015
0.9655	0.9984	0.0016
0.9495	0.998	0.002
0.9387	0.9978	0.002
0.931	0.9977	0.002
0.9157	0.9974	0.002
0.8994	0.9972	0.002
0.8751	0.997	0.002
0.8612	0.9969	0.002
0.8403	0.9967	0.002
0.8208	0.9966	0.002
0.8016	0.9964	0.002
0.7714	0.9959	0.002
0.7146	0.995	0.002
0.6788	0.9944	0.002
0.6361	0.9934	0.002
0.603	0.9925	0.002
0.5434	0.991	0.002
0.509	0.9899	0.002
0.4775	0.9886	0.002
0.4241	0.9862	0.002
0.3902	0.9843	0.002
0.3798	0.9835	0.002
0.3242	0.9788	0.002
0.2588	0.9693	0.002
0.2371	0.9651	0.002
0.2192	0.9612	0.0021
0.1976	0.9553	0.0021
0.1768	0.9478	0.0021

System: propan-2-ol + .gamma.-valerolactone; phases: Liquid
Fixed: Pressure, kPa = 101
Property: Refractive index (Na D-line) (Liquid); method: Standard Abbe refractometry
Temperature, K	Mole fraction of propan-2-ol	Refractive index (Na D-line)	uncertainty
293.2	0	1.4339	0.0004
293.2	0.0995	1.4292	0.0004
293.2	0.1165	1.4283	0.0004
293.2	0.1885	1.4249	0.0004
293.2	0.2516	1.4217	0.0004
293.2	0.2714	1.4208	0.0004
293.2	0.3166	1.4186	0.0004
298.2	0	1.4316	0.0004
298.2	0.0995	1.4271	0.0004
298.2	0.1165	1.4262	0.0004
298.2	0.1885	1.4229	0.0004
298.2	0.2516	1.4198	0.0004
298.2	0.2714	1.4189	0.0004
298.2	0.3166	1.4165	0.0004
293.2	0.3891	1.4149	0.0004
293.2	0.3895	1.4148	0.0004
293.2	0.509	1.4082	0.0004
293.2	0.5904	1.4037	0.0004
293.2	0.6605	1.3997	0.0004
293.2	0.7367	1.395	0.0004
293.2	0.8101	1.3903	0.0004
298.2	0.3891	1.4128	0.0004
298.2	0.3895	1.4128	0.0004
298.2	0.509	1.4062	0.0004
298.2	0.5904	1.4018	0.0004
298.2	0.6605	1.3978	0.0004
298.2	0.7367	1.393	0.0004
298.2	0.8101	1.3883	0.0004
293.2	0.8492	1.3879	0.0004
293.2	0.9016	1.3842	0.0004
293.2	0.9251	1.3828	0.0004
293.2	0.9679	1.3798	0.0004
293.2	1	1.3771	0.0004
298.2	0.8492	1.3858	0.0004
298.2	0.9016	1.3822	0.0004
298.2	0.9251	1.3808	0.0004
298.2	0.9679	1.3778	0.0004
298.2	1	1.3751	0.0004

System: propan-2-ol + .gamma.-valerolactone; phases: Liquid, Gas
Fixed: Pressure, kPa = 101
Property: Boiling temperature at pressure P, K (Liquid); method: Ebulliometric method (Recirculating still)
Mole fraction of propan-2-ol	Boiling temperature at pressure P, K	uncertainty
1	355.2	0.8
0.9901	355.7	0.8
0.9856	355.8	0.8
0.9735	356.1	0.8
0.9581	356.4	0.8
0.9512	356.6	0.8
0.9149	357.5	0.8
0.904	357.8	0.8
0.8881	358.1	0.8
0.8647	358.5	0.8
0.8453	358.9	0.8
0.8272	359.4	0.8
0.808	359.7	0.8
0.7956	360	0.8
0.7878	360.1	0.8
0.769	360.5	0.8
0.753	360.9	0.8
0.7256	361.4	0.8
0.661	363.3	0.8
0.6286	364	0.8
0.5879	365	0.8
0.5561	365.5	0.8
0.5112	367.2	0.8
0.4579	369.3	0.8
0.4514	369.6	0.8
0.4015	371.6	0.8
0.3235	377.4	0.9
0.3098	378.5	0.9
0.2501	384.5	0.9
0.2262	387.4	0.9
0.223	387.8	0.9

System: propan-2-ol + .gamma.-valerolactone; phases: Gas, Liquid
Fixed: Pressure, kPa = 101
Property: Mole fraction of propan-2-ol (Gas); method: Index of refraction calibration data
Mole fraction of propan-2-ol	Mole fraction of propan-2-ol	uncertainty
1	1	
0.9901	0.9995	0.0005
0.9856	0.9993	0.0007
0.9735	0.9988	0.0012
0.9581	0.9983	0.0017
0.9512	0.9981	0.0019
0.9149	0.9971	0.0029
0.904	0.9968	0.003
0.8881	0.9964	0.003
0.8647	0.9959	0.003
0.8453	0.9955	0.003
0.8272	0.9951	0.003
0.808	0.9948	0.003
0.7956	0.9946	0.003
0.7878	0.9944	0.003
0.769	0.9942	0.003
0.753	0.9939	0.003
0.7256	0.9935	0.003
0.661	0.9922	0.003
0.6286	0.9918	0.003
0.5879	0.991	0.003
0.5561	0.9901	0.003
0.5112	0.9887	0.003
0.4579	0.9862	0.003
0.4514	0.9859	0.003
0.4015	0.9832	0.003
0.3235	0.9751	0.003
0.3098	0.9733	0.003
0.2501	0.9621	0.0031
0.2262	0.956	0.0031
0.223	0.9552	0.0031

System: ethanol + 1,2-ethanediol; phases: Liquid, Gas
Fixed: Pressure, kPa = 101
Property: Boiling temperature at pressure P, K (Liquid); method: Ebulliometric method (Recirculating still)
Mole fraction of ethanol	Boiling temperature at pressure P, K	uncertainty
1	351.5	0.8
0.9584	352.5	0.8
0.8925	354.3	0.8
0.8389	355.5	0.8
0.7884	357.2	0.8
0.7327	358.6	0.8
0.7248	358.9	0.8
0.6892	360	0.8
0.6611	360.9	0.8
0.6462	361.5	0.8
0.6082	362.1	0.8
0.5671	363.5	0.8
0.4816	366.3	0.8
0.4097	369.5	0.8
0.3606	372.1	0.8
0.3373	373.3	0.8
0.3107	374.8	0.8
0.2704	378.3	0.8
0.2276	382.1	0.8
0.2031	384.8	0.9

System: ethanol + 1,2-ethanediol; phases: Gas, Liquid
Fixed: Pressure, kPa = 101
Property: Mole fraction of ethanol (Gas); method: Index of refraction calibration data
Mole fraction of ethanol	Mole fraction of ethanol	uncertainty
1	1	
0.9584	0.9993	0.0007
0.8925	0.9982	0.0018
0.8389	0.997	0.002
0.7884	0.9962	0.002
0.7327	0.9951	0.002
0.7248	0.9949	0.002
0.6892	0.9944	0.002
0.6611	0.9936	0.002
0.6462	0.9934	0.002
0.6082	0.9932	0.002
0.5671	0.993	0.002
0.4816	0.9915	0.002
0.4097	0.9904	0.002
0.3606	0.9892	0.002
0.3373	0.9887	0.002
0.3107	0.9881	0.002
0.2704	0.9858	0.002
0.2276	0.9824	0.002
0.2031	0.9733	0.0021
