Measured thermophysical data. 4-Nitrophenzylcyanide Solubility in Several Nonaqueous Solvent Mixtures: Determination and Modeling
Source: J. Chem. Eng. Data, 2019, 10.1021/acs.jced.9b00005
Compound 1: 2-(4-nitrophenyl)acetonitrile, C8H6N2O2, InChI=1S/C8H6N2O2/c9-6-5-7-1-3-8(4-2-7)10(11)12/h1-4H,5H2, purity 98%
Compound 2: methanol, CH4O, InChI=1S/CH4O/c1-2/h2H,1H3, purity 99.8%
Compound 3: ethanol, C2H6O, InChI=1S/C2H6O/c1-2-3/h3H,2H2,1H3, purity 99.6%
Compound 4: propan-1-ol, C3H8O, InChI=1S/C3H8O/c1-2-3-4/h4H,2-3H2,1H3, purity 99.6%
Compound 5: propan-2-ol, C3H8O, InChI=1S/C3H8O/c1-3(2)4/h3-4H,1-2H3, purity 99.7%
Compound 6: ethyl acetate, C4H8O2, InChI=1S/C4H8O2/c1-3-6-4(2)5/h3H2,1-2H3, purity 99.5%

System: 2-(4-nitrophenyl)acetonitrile + ethyl acetate + methanol; phases: Liquid, Crystal
Fixed: Pressure, kPa = 101.2
Property: Mole fraction of 2-(4-nitrophenyl)acetonitrile (Liquid); method: Chromatography
Temperature, K	Solvent: Mass fraction of ethyl acetate	Mole fraction of 2-(4-nitrophenyl)acetonitrile	uncertainty
278.15	0.1	0.003331	0.000227
283.15	0.1	0.003825	0.00026
288.15	0.1	0.004636	0.000316
293.15	0.1	0.005823	0.000396
298.15	0.1	0.007298	0.000497
303.15	0.1	0.009114	0.00062
308.15	0.1	0.01119	0.00076
313.15	0.1	0.01397	0.00095
318.15	0.1	0.01709	0.00116
323.15	0.1	0.02106	0.00143
328.15	0.1	0.02588	0.00176
333.15	0.1	0.03159	0.00215
278.15	0.1999	0.004664	0.000317
283.15	0.1999	0.005319	0.000362
288.15	0.1999	0.006401	0.000436
293.15	0.1999	0.007917	0.000539
298.15	0.1999	0.009686	0.000659
303.15	0.1999	0.0119	0.00081
308.15	0.1999	0.01441	0.00098
313.15	0.1999	0.0177	0.0012
318.15	0.1999	0.02137	0.00145
323.15	0.1999	0.02598	0.00177
328.15	0.1999	0.0315	0.00214
333.15	0.1999	0.038	0.00259
278.15	0.3	0.006656	0.000453
283.15	0.3	0.007775	0.000529
288.15	0.3	0.009276	0.000631
293.15	0.3	0.01114	0.00076
298.15	0.3	0.01304	0.00089
303.15	0.3	0.01556	0.00106
308.15	0.3	0.01858	0.00126
313.15	0.3	0.02247	0.00153
318.15	0.3	0.02676	0.00182
323.15	0.3	0.03209	0.00218
328.15	0.3	0.03839	0.00261
333.15	0.3	0.04576	0.00311
278.15	0.3997	0.009496	0.000646
283.15	0.3997	0.01096	0.00075
288.15	0.3997	0.01289	0.00088
293.15	0.3997	0.01523	0.00104
298.15	0.3997	0.01762	0.0012
303.15	0.3997	0.02068	0.00141
308.15	0.3997	0.0241	0.00164
313.15	0.3997	0.02869	0.00195
318.15	0.3997	0.0337	0.00229
323.15	0.3997	0.03987	0.00271
328.15	0.3997	0.04706	0.0032
333.15	0.3997	0.05543	0.00377
278.15	0.4989	0.01319	0.0009
283.15	0.4989	0.01473	0.001
288.15	0.4989	0.01696	0.00115
293.15	0.4989	0.01987	0.00135
298.15	0.4989	0.02328	0.00158
303.15	0.4989	0.02724	0.00185
308.15	0.4989	0.03162	0.00215
313.15	0.4989	0.03705	0.00252
318.15	0.4989	0.04292	0.00292
323.15	0.4989	0.05008	0.00341
328.15	0.4989	0.05831	0.00397
333.15	0.4989	0.06785	0.00462
278.15	0.6002	0.01931	0.00131
283.15	0.6002	0.02132	0.00145
288.15	0.6002	0.02391	0.00163
293.15	0.6002	0.02839	0.00193
298.15	0.6002	0.03217	0.00219
303.15	0.6002	0.03789	0.00258
308.15	0.6002	0.04254	0.00289
313.15	0.6002	0.04879	0.00332
318.15	0.6002	0.05569	0.00379
323.15	0.6002	0.06436	0.00438
328.15	0.6002	0.07438	0.00506
333.15	0.6002	0.08481	0.00577
278.15	0.6995	0.02905	0.00198
283.15	0.6995	0.03194	0.00217
288.15	0.6995	0.03576	0.00243
293.15	0.6995	0.04041	0.00275
298.15	0.6995	0.04569	0.00311
303.15	0.6995	0.05166	0.00352
308.15	0.6995	0.0582	0.00396
313.15	0.6995	0.06597	0.00449
318.15	0.6995	0.07425	0.00505
323.15	0.6995	0.08418	0.00573
328.15	0.6995	0.09528	0.00648
333.15	0.6995	0.1081	0.0074
278.15	0.8008	0.04526	0.00308
283.15	0.8008	0.04932	0.00336
288.15	0.8008	0.05442	0.0037
293.15	0.8008	0.06031	0.0041
298.15	0.8008	0.06694	0.00455
303.15	0.8008	0.07434	0.00506
308.15	0.8008	0.08245	0.00561
313.15	0.8008	0.09185	0.00625
318.15	0.8008	0.1018	0.0069
323.15	0.8008	0.1137	0.0077
328.15	0.8008	0.1268	0.0086
333.15	0.8008	0.1419	0.0097
278.15	0.9003	0.07291	0.00496
283.15	0.9003	0.07833	0.00533
288.15	0.9003	0.08558	0.00582
293.15	0.9003	0.09236	0.00628
298.15	0.9003	0.1013	0.0069
303.15	0.9003	0.1099	0.0075
308.15	0.9003	0.1204	0.0082
313.15	0.9003	0.1317	0.009
318.15	0.9003	0.1441	0.0098
323.15	0.9003	0.1577	0.0107
328.15	0.9003	0.1743	0.0119
333.15	0.9003	0.1918	0.013

System: 2-(4-nitrophenyl)acetonitrile + ethyl acetate + ethanol; phases: Liquid, Crystal
Fixed: Pressure, kPa = 101.2
Property: Mole fraction of 2-(4-nitrophenyl)acetonitrile (Liquid); method: Chromatography
Temperature, K	Solvent: Mass fraction of ethyl acetate	Mole fraction of 2-(4-nitrophenyl)acetonitrile	uncertainty
278.15	0.1008	0.002809	0.000191
283.15	0.1008	0.003367	0.000229
288.15	0.1008	0.004147	0.000282
293.15	0.1008	0.005155	0.000351
298.15	0.1008	0.0062	0.000422
303.15	0.1008	0.007614	0.000518
308.15	0.1008	0.009171	0.000624
313.15	0.1008	0.01093	0.00074
318.15	0.1008	0.01346	0.00092
323.15	0.1008	0.01642	0.00112
328.15	0.1008	0.01979	0.00135
333.15	0.1008	0.02348	0.0016
278.15	0.2	0.00438	0.000298
283.15	0.2	0.005239	0.000357
288.15	0.2	0.006365	0.000433
293.15	0.2	0.007859	0.000535
298.15	0.2	0.009124	0.000621
303.15	0.2	0.01078	0.00073
308.15	0.2	0.0135	0.00092
313.15	0.2	0.0153	0.00104
318.15	0.2	0.01878	0.00128
323.15	0.2	0.02277	0.00155
328.15	0.2	0.02737	0.00186
333.15	0.2	0.03186	0.00217
278.15	0.2987	0.006541	0.000445
283.15	0.2987	0.007409	0.000504
288.15	0.2987	0.008752	0.000596
293.15	0.2987	0.01062	0.00072
298.15	0.2987	0.01287	0.00088
303.15	0.2987	0.01553	0.00106
308.15	0.2987	0.01822	0.00124
313.15	0.2987	0.02122	0.00144
318.15	0.2987	0.02534	0.00172
323.15	0.2987	0.03008	0.00205
328.15	0.2987	0.03538	0.00241
333.15	0.2987	0.04118	0.0028
278.15	0.4001	0.009233	0.000628
283.15	0.4001	0.01039	0.00071
288.15	0.4001	0.01211	0.00082
293.15	0.4001	0.01444	0.00098
298.15	0.4001	0.01721	0.00117
303.15	0.4001	0.02047	0.00139
308.15	0.4001	0.02399	0.00163
313.15	0.4001	0.02764	0.00188
318.15	0.4001	0.03254	0.00221
323.15	0.4001	0.03815	0.0026
328.15	0.4001	0.04437	0.00302
333.15	0.4001	0.05119	0.00348
278.15	0.4997	0.01273	0.00087
283.15	0.4997	0.01455	0.00099
288.15	0.4997	0.01688	0.00115
293.15	0.4997	0.01964	0.00134
298.15	0.4997	0.02247	0.00153
303.15	0.4997	0.02602	0.00177
308.15	0.4997	0.02986	0.00203
313.15	0.4997	0.03407	0.00232
318.15	0.4997	0.03958	0.00269
323.15	0.4997	0.04587	0.00312
328.15	0.4997	0.0528	0.00359
333.15	0.4997	0.06044	0.00411
278.15	0.6002	0.01652	0.00112
283.15	0.6002	0.01869	0.00127
288.15	0.6002	0.0214	0.00146
293.15	0.6002	0.02455	0.00167
298.15	0.6002	0.02778	0.00189
303.15	0.6002	0.03176	0.00216
308.15	0.6002	0.03606	0.00245
313.15	0.6002	0.04076	0.00277
318.15	0.6002	0.04673	0.00318
323.15	0.6002	0.05356	0.00364
328.15	0.6002	0.06104	0.00415
333.15	0.6002	0.06933	0.00472
278.15	0.7005	0.02155	0.00147
283.15	0.7005	0.02414	0.00164
288.15	0.7005	0.02728	0.00186
293.15	0.7005	0.03084	0.0021
298.15	0.7005	0.03453	0.00235
303.15	0.7005	0.03897	0.00265
308.15	0.7005	0.04378	0.00298
313.15	0.7005	0.04904	0.00334
318.15	0.7005	0.0555	0.00378
323.15	0.7005	0.06291	0.00428
328.15	0.7005	0.07097	0.00483
333.15	0.7005	0.08	0.00544
278.15	0.8	0.0308	0.0021
283.15	0.8	0.03409	0.00232
288.15	0.8	0.03797	0.00258
293.15	0.8	0.04223	0.00287
298.15	0.8	0.04671	0.00318
303.15	0.8	0.05195	0.00353
308.15	0.8	0.05768	0.00392
313.15	0.8	0.06392	0.00435
318.15	0.8	0.0713	0.00485
323.15	0.8	0.07981	0.00543
328.15	0.8	0.08902	0.00606
333.15	0.8	0.09946	0.00677
278.15	0.8988	0.05256	0.00358
283.15	0.8988	0.05733	0.0039
288.15	0.8988	0.06275	0.00427
293.15	0.8988	0.06847	0.00466
298.15	0.8988	0.07459	0.00507
303.15	0.8988	0.08157	0.00555
308.15	0.8988	0.08926	0.00607
313.15	0.8988	0.09762	0.00664
318.15	0.8988	0.1071	0.0073
323.15	0.8988	0.1181	0.008
328.15	0.8988	0.13	0.0088
333.15	0.8988	0.1436	0.0098

System: 2-(4-nitrophenyl)acetonitrile + ethyl acetate + propan-1-ol; phases: Liquid, Crystal
Fixed: Pressure, kPa = 101.2
Property: Mole fraction of 2-(4-nitrophenyl)acetonitrile (Liquid); method: Chromatography
Temperature, K	Solvent: Mass fraction of ethyl acetate	Mole fraction of 2-(4-nitrophenyl)acetonitrile	uncertainty
278.15	0.1001	0.002175	0.000148
283.15	0.1001	0.002476	0.000168
288.15	0.1001	0.003135	0.000213
293.15	0.1001	0.003895	0.000265
298.15	0.1001	0.004867	0.000331
303.15	0.1001	0.006052	0.000412
308.15	0.1001	0.007667	0.000522
313.15	0.1001	0.009657	0.000657
318.15	0.1001	0.01192	0.00081
323.15	0.1001	0.01488	0.00101
328.15	0.1001	0.01843	0.00125
333.15	0.1001	0.02249	0.00153
278.15	0.1999	0.003366	0.000229
283.15	0.1999	0.003807	0.000259
288.15	0.1999	0.004731	0.000322
293.15	0.1999	0.00578	0.000393
298.15	0.1999	0.007099	0.000483
303.15	0.1999	0.008682	0.000591
308.15	0.1999	0.0108	0.00074
313.15	0.1999	0.01337	0.00091
318.15	0.1999	0.01626	0.00111
323.15	0.1999	0.01997	0.00136
328.15	0.1999	0.02436	0.00166
333.15	0.1999	0.02936	0.002
278.15	0.3003	0.00484	0.000329
283.15	0.3003	0.005443	0.00037
288.15	0.3003	0.006648	0.000452
293.15	0.3003	0.007996	0.000544
298.15	0.3003	0.009662	0.000658
303.15	0.3003	0.01164	0.00079
308.15	0.3003	0.01423	0.00097
313.15	0.3003	0.01732	0.00118
318.15	0.3003	0.02077	0.00141
323.15	0.3003	0.02513	0.00171
328.15	0.3003	0.03024	0.00206
333.15	0.3003	0.03602	0.00245
278.15	0.4001	0.006581	0.000448
283.15	0.4001	0.007367	0.000501
288.15	0.4001	0.008853	0.000602
293.15	0.4001	0.01049	0.00071
298.15	0.4001	0.01249	0.00085
303.15	0.4001	0.01482	0.00101
308.15	0.4001	0.01783	0.00121
313.15	0.4001	0.02137	0.00145
318.15	0.4001	0.02527	0.00172
323.15	0.4001	0.03017	0.00205
328.15	0.4001	0.03582	0.00244
333.15	0.4001	0.04221	0.00287
278.15	0.4969	0.008285	0.000564
283.15	0.4969	0.009434	0.000642
288.15	0.4969	0.01093	0.00074
293.15	0.4969	0.01303	0.00089
298.15	0.4969	0.01555	0.00106
303.15	0.4969	0.01834	0.00125
308.15	0.4969	0.02186	0.00149
313.15	0.4969	0.02527	0.00172
318.15	0.4969	0.02993	0.00204
323.15	0.4969	0.03531	0.0024
328.15	0.4969	0.04151	0.00282
333.15	0.4969	0.04739	0.00322
278.15	0.5989	0.01173	0.0008
283.15	0.5989	0.01302	0.00089
288.15	0.5989	0.01516	0.00103
293.15	0.5989	0.01745	0.00119
298.15	0.5989	0.02016	0.00137
303.15	0.5989	0.02326	0.00158
308.15	0.5989	0.0271	0.00184
313.15	0.5989	0.03151	0.00214
318.15	0.5989	0.03628	0.00247
323.15	0.5989	0.04215	0.00287
328.15	0.5989	0.04877	0.00332
333.15	0.5989	0.05625	0.00383
278.15	0.6994	0.01677	0.00114
283.15	0.6994	0.01851	0.00126
288.15	0.6994	0.02118	0.00144
293.15	0.6994	0.024	0.00163
298.15	0.6994	0.02729	0.00186
303.15	0.6994	0.031	0.00211
308.15	0.6994	0.03552	0.00242
313.15	0.6994	0.04062	0.00276
318.15	0.6994	0.04611	0.00314
323.15	0.6994	0.05279	0.00359
328.15	0.6994	0.06023	0.0041
333.15	0.6994	0.06867	0.00467
278.15	0.8002	0.02685	0.00183
283.15	0.8002	0.02942	0.002
288.15	0.8002	0.03302	0.00225
293.15	0.8002	0.03677	0.0025
298.15	0.8002	0.04107	0.00279
303.15	0.8002	0.04586	0.00312
308.15	0.8002	0.05156	0.00351
313.15	0.8002	0.05791	0.00394
318.15	0.8002	0.0647	0.0044
323.15	0.8002	0.07288	0.00496
328.15	0.8002	0.08188	0.00557
333.15	0.8002	0.09214	0.00627
278.15	0.8989	0.05035	0.00343
283.15	0.8989	0.05462	0.00372
288.15	0.8989	0.05999	0.00408
293.15	0.8989	0.06548	0.00446
298.15	0.8989	0.07167	0.00488
303.15	0.8989	0.07851	0.00534
308.15	0.8989	0.08642	0.00588
313.15	0.8989	0.09513	0.00647
318.15	0.8989	0.1044	0.0071
323.15	0.8989	0.1155	0.0079
328.15	0.8989	0.1275	0.0087
333.15	0.8989	0.1414	0.0096

System: 2-(4-nitrophenyl)acetonitrile + ethyl acetate + propan-2-ol; phases: Liquid, Crystal
Fixed: Pressure, kPa = 101.2
Property: Mole fraction of 2-(4-nitrophenyl)acetonitrile (Liquid); method: Chromatography
Temperature, K	Solvent: Mass fraction of ethyl acetate	Mole fraction of 2-(4-nitrophenyl)acetonitrile	uncertainty
278.15	0.1003	0.00146	9.9e-05
283.15	0.1003	0.002007	0.000137
288.15	0.1003	0.002664	0.000181
293.15	0.1003	0.003175	0.000216
298.15	0.1003	0.003923	0.000267
303.15	0.1003	0.005109	0.000348
308.15	0.1003	0.006478	0.000441
313.15	0.1003	0.00823	0.00056
318.15	0.1003	0.01002	0.00068
323.15	0.1003	0.01274	0.00087
328.15	0.1003	0.01582	0.00108
333.15	0.1003	0.01987	0.00135
278.15	0.201	0.002636	0.000179
283.15	0.201	0.003084	0.00021
288.15	0.201	0.004124	0.000281
293.15	0.201	0.005014	0.000341
298.15	0.201	0.006294	0.000428
303.15	0.201	0.007931	0.00054
308.15	0.201	0.009544	0.000649
313.15	0.201	0.01168	0.00079
318.15	0.201	0.01445	0.00098
323.15	0.201	0.01774	0.00121
328.15	0.201	0.02184	0.00149
333.15	0.201	0.02651	0.0018
278.15	0.2998	0.003887	0.000265
283.15	0.2998	0.004964	0.000338
288.15	0.2998	0.005931	0.000404
293.15	0.2998	0.007044	0.000479
298.15	0.2998	0.008704	0.000592
303.15	0.2998	0.01069	0.00073
308.15	0.2998	0.01305	0.00089
313.15	0.2998	0.01566	0.00107
318.15	0.2998	0.01911	0.0013
323.15	0.2998	0.02299	0.00156
328.15	0.2998	0.02787	0.0019
333.15	0.2998	0.03365	0.00229
278.15	0.399	0.005536	0.000377
283.15	0.399	0.006722	0.000457
288.15	0.399	0.00807	0.000549
293.15	0.399	0.009529	0.000648
298.15	0.399	0.01153	0.00078
303.15	0.399	0.014	0.00095
308.15	0.399	0.01672	0.00114
313.15	0.399	0.01981	0.00135
318.15	0.399	0.02367	0.00161
323.15	0.399	0.02818	0.00192
328.15	0.399	0.03364	0.00229
333.15	0.399	0.04005	0.00273
278.15	0.4988	0.007476	0.000509
283.15	0.4988	0.00892	0.000607
288.15	0.4988	0.01055	0.00072
293.15	0.4988	0.01228	0.00084
298.15	0.4988	0.01461	0.00099
303.15	0.4988	0.01742	0.00119
308.15	0.4988	0.02051	0.0014
313.15	0.4988	0.02398	0.00163
318.15	0.4988	0.02824	0.00192
323.15	0.4988	0.03318	0.00226
328.15	0.4988	0.03908	0.00266
333.15	0.4988	0.04596	0.00313
278.15	0.6	0.01014	0.00069
283.15	0.6	0.01189	0.00081
288.15	0.6	0.01384	0.00094
293.15	0.6	0.0159	0.00108
298.15	0.6	0.01858	0.00126
303.15	0.6	0.02176	0.00148
308.15	0.6	0.02525	0.00172
313.15	0.6	0.02913	0.00198
318.15	0.6	0.03379	0.0023
323.15	0.6	0.03919	0.00267
328.15	0.6	0.04552	0.0031
333.15	0.6	0.05288	0.0036
278.15	0.7008	0.01454	0.00099
283.15	0.7008	0.01673	0.00114
288.15	0.7008	0.01915	0.0013
293.15	0.7008	0.02168	0.00148
298.15	0.7008	0.02487	0.00169
303.15	0.7008	0.02859	0.00195
308.15	0.7008	0.03265	0.00222
313.15	0.7008	0.03715	0.00253
318.15	0.7008	0.04242	0.00289
323.15	0.7008	0.04852	0.0033
328.15	0.7008	0.05555	0.00378
333.15	0.7008	0.06369	0.00433
278.15	0.7993	0.02328	0.00158
283.15	0.7993	0.02626	0.00179
288.15	0.7993	0.0295	0.00201
293.15	0.7993	0.03286	0.00224
298.15	0.7993	0.03696	0.00251
303.15	0.7993	0.04164	0.00283
308.15	0.7993	0.04676	0.00318
313.15	0.7993	0.05129	0.00349
318.15	0.7993	0.05881	0.004
323.15	0.7993	0.06626	0.00451
328.15	0.7993	0.0736	0.00501
333.15	0.7993	0.08443	0.00575
278.15	0.8981	0.04541	0.00309
283.15	0.8981	0.05	0.0034
288.15	0.8981	0.0539	0.00367
293.15	0.8981	0.06005	0.00409
298.15	0.8981	0.06599	0.00449
303.15	0.8981	0.07265	0.00494
308.15	0.8981	0.07889	0.00537
313.15	0.8981	0.08687	0.00591
318.15	0.8981	0.0957	0.0065
323.15	0.8981	0.1061	0.0072
328.15	0.8981	0.1164	0.0079
333.15	0.8981	0.1318	0.009
