Measured thermophysical data. Generation of recommendable values for the surface tension of water using a non-parametric regression
Source: J. Chem. Eng. Data, 2016, 10.1021/acs.jced.5b00776
Compound 1: water, H2O, InChI=1S/H2O/h1H2, purity 99.99%

System: water; phases: Metastable liquid, Air at 1 atmosphere
Property: Surface tension liquid-gas, N/m (Metastable liquid); method: Wilhelmi plate
Temperature, K	Surface tension liquid-gas, N/m	uncertainty
272.64	0.07578	3e-05
273.04	0.07571	3e-05
275.06	0.07541	3e-05
276.72	0.07517	3e-05
280.09	0.07469	3e-05
280.34	0.07465	3e-05
283.27	0.07423	3e-05
286.54	0.07374	3e-05
288.33	0.07346	3e-05
290.57	0.07312	3e-05
293.04	0.07274	3e-05
294.13	0.07258	3e-05
295.71	0.07233	3e-05
297.4	0.07207	3e-05
298.42	0.07191	3e-05
299.35	0.07177	3e-05
300.3	0.07162	3e-05
301.78	0.07139	3e-05
302.43	0.07128	3e-05
303.41	0.07113	3e-05
304.45	0.07096	3e-05
305.69	0.07076	3e-05
306.63	0.07061	3e-05
307.99	0.07039	3e-05
310.6	0.06997	3e-05
313.69	0.06947	3e-05
316.02	0.06907	3e-05
318.49	0.06866	3e-05
323.62	0.06779	3e-05
328.1	0.06703	3e-05
333.49	0.0661	3e-05
337.83	0.06534	3e-05
343.49	0.06433	3e-05
