Measured thermophysical data. Thermodynamic Studies of Molecular Interactions in Mixtures Containing Tetrahydropyran, 1,4-dioxane and Cyclic ketones
Source: J. Chem. Eng. Data, 2017, 10.1021/acs.jced.6b00606
Compound 1: tetrahydropyran, C5H10O, InChI=1S/C5H10O/c1-2-4-6-5-3-1/h1-5H2, purity 98.7%
Compound 2: 1,4-dioxane, C4H8O2, InChI=1S/C4H8O2/c1-2-6-4-3-5-1/h1-4H2, purity 98.3%
Compound 3: cyclohexanone, C6H10O, InChI=1S/C6H10O/c7-6-4-2-1-3-5-6/h1-5H2, purity 99%
Compound 4: cycloheptanone, C7H12O, InChI=1S/C7H12O/c8-7-5-3-1-2-4-6-7/h1-6H2, purity 98%

System: tetrahydropyran; phases: Liquid
Fixed: Pressure, kPa = 101.325
Property: Mass density, kg/m3 (Liquid); method: Vibrating tube method
Temperature, K	Mass density, kg/m3	uncertainty
293.15	884.23	1.01
298.15	879.09	1.01
303.15	873.91	1.01
308.15	868.75	1.01

System: tetrahydropyran; phases: Liquid
Fixed: Pressure, kPa = 100
Fixed: Frequency, MHz = 3
Property: Speed of sound, m/s (Liquid); method: Sing-around technique in a fixed-path interferometer
Temperature, K	Speed of sound, m/s	uncertainty
293.15	1293	1.4
298.15	1269.7	1.4
303.15	1246.7	1.4
308.15	1224.3	1.4

System: tetrahydropyran; phases: Liquid
Fixed: Pressure, kPa = 101.325
Property: Molar heat capacity at constant pressure, J/K/mol (Liquid); method: Extra sensitive DSC
Temperature, K	Molar heat capacity at constant pressure, J/K/mol	uncertainty
293.15	148.03	5.74
298.15	149.68	5.81
303.15	151.18	5.87
308.15	153.01	5.94

System: 1,4-dioxane; phases: Liquid
Fixed: Pressure, kPa = 101.325
Property: Mass density, kg/m3 (Liquid); method: Vibrating tube method
Temperature, K	Mass density, kg/m3	uncertainty
293.15	1033.59	1.02
298.15	1027.94	1.02
303.15	1022.28	1.02
308.15	1016.59	1.02

System: 1,4-dioxane; phases: Liquid
Fixed: Pressure, kPa = 100
Fixed: Frequency, MHz = 3
Property: Speed of sound, m/s (Liquid); method: Sing-around technique in a fixed-path interferometer
Temperature, K	Speed of sound, m/s	uncertainty
293.15	1367.8	1.5
298.15	1346	1.5
303.15	1324.4	1.5
308.15	1302.5	1.5

System: 1,4-dioxane; phases: Liquid
Fixed: Pressure, kPa = 101.325
Property: Molar heat capacity at constant pressure, J/K/mol (Liquid); method: Extra sensitive DSC
Temperature, K	Molar heat capacity at constant pressure, J/K/mol	uncertainty
293.15	151.62	5.88
298.15	152.76	5.93
303.15	153.92	5.97
308.15	155.09	6.02

System: cyclohexanone; phases: Liquid
Fixed: Pressure, kPa = 101.325
Property: Mass density, kg/m3 (Liquid); method: Vibrating tube method
Temperature, K	Mass density, kg/m3	uncertainty
293.15	947.38	1.01
298.15	942.92	1.01
303.15	938.07	1.01
308.15	933.19	1.01

System: cyclohexanone; phases: Liquid
Fixed: Pressure, kPa = 100
Fixed: Frequency, MHz = 3
Property: Speed of sound, m/s (Liquid); method: Sing-around technique in a fixed-path interferometer
Temperature, K	Speed of sound, m/s	uncertainty
293.15	1431.2	1.3
298.15	1415.5	1.3
303.15	1395.1	1.3
308.15	1375.1	1.3

System: cyclohexanone; phases: Liquid
Fixed: Pressure, kPa = 101.325
Property: Molar heat capacity at constant pressure, J/K/mol (Liquid); method: Extra sensitive DSC
Temperature, K	Molar heat capacity at constant pressure, J/K/mol	uncertainty
293.15	176.17	6.84
298.15	178.27	6.92
303.15	180.38	7
308.15	182.46	7.08

System: cycloheptanone; phases: Liquid
Fixed: Pressure, kPa = 101.325
Property: Mass density, kg/m3 (Liquid); method: Vibrating tube method
Temperature, K	Mass density, kg/m3	uncertainty
293.15	951.85	1.03
298.15	947.62	1.03
303.15	943.38	1.03
308.15	939.14	1.03

System: cycloheptanone; phases: Liquid
Fixed: Pressure, kPa = 100
Fixed: Frequency, MHz = 3
Property: Speed of sound, m/s (Liquid); method: Sing-around technique in a fixed-path interferometer
Temperature, K	Speed of sound, m/s	uncertainty
293.15	1477.3	1.6
298.15	1455	1.6
303.15	1432.4	1.6
308.15	1409.6	1.6

System: cycloheptanone; phases: Liquid
Fixed: Pressure, kPa = 101.325
Property: Molar heat capacity at constant pressure, J/K/mol (Liquid); method: Extra sensitive DSC
Temperature, K	Molar heat capacity at constant pressure, J/K/mol	uncertainty
293.15	201.11	7.8
298.15	202.01	7.84
303.15	203.21	7.89
308.15	204.51	7.94

System: cyclohexanone + tetrahydropyran; phases: Liquid
Fixed: Pressure, kPa = 100
Property: Mass density, kg/m3 (Liquid); method: Vibrating tube method
Temperature, K	Mole fraction of tetrahydropyran	Mass density, kg/m3	uncertainty
293.15	0.1175	941.72	1.01
293.15	0.1586	939.66	1.01
293.15	0.1952	937.78	1.01
293.15	0.2471	935.05	1.01
293.15	0.2843	933.05	1.01
293.15	0.3396	930	1.01
293.15	0.3784	927.8	1.01
293.15	0.4178	925.53	1.01
293.15	0.462	922.91	1.01
293.15	0.5009	920.56	1.01
293.15	0.5486	917.59	1.01
293.15	0.5814	915.51	1.01
293.15	0.6379	911.8	1.01
293.15	0.6899	908.28	1.01
293.15	0.7389	904.83	1.01
293.15	0.7804	901.82	1.01
293.15	0.8345	897.76	1.01
293.15	0.8929	893.19	1.01
298.15	0.1175	937.26	1.01
298.15	0.1586	935.2	1.01
298.15	0.1952	933.32	1.01
298.15	0.2471	930.59	1.01
298.15	0.2843	928.59	1.01
298.15	0.3396	925.53	1.01
298.15	0.3784	923.32	1.01
298.15	0.4178	921.03	1.01
298.15	0.462	918.41	1.01
298.15	0.5009	916.03	1.01
298.15	0.5486	913.03	1.01
298.15	0.5814	910.91	1.01
298.15	0.6379	907.17	1.01
298.15	0.6899	903.58	1.01
298.15	0.7389	900.08	1.01
298.15	0.7804	897.02	1.01
298.15	0.8345	892.89	1.01
298.15	0.8929	888.23	1.01
303.15	0.1175	932.48	1.01
303.15	0.1586	930.42	1.01
303.15	0.1952	928.55	1.01
303.15	0.2471	925.82	1.01
303.15	0.2843	923.82	1.01
303.15	0.3396	920.76	1.01
303.15	0.3784	918.56	1.01
303.15	0.4178	916.26	1.01
303.15	0.462	913.62	1.01
303.15	0.5009	911.24	1.01
303.15	0.5486	908.24	1.01
303.15	0.5814	906.13	1.01
303.15	0.6379	902.35	1.01
303.15	0.6899	898.75	1.01
303.15	0.7389	895.23	1.01
303.15	0.7804	892.14	1.01
303.15	0.8345	887.96	1.01
303.15	0.8929	883.23	1.01
308.15	0.1175	927.65	1.01
308.15	0.1586	925.6	1.01
308.15	0.1952	923.74	1.01
308.15	0.2471	921.01	1.01
308.15	0.2843	919.01	1.01
308.15	0.3396	915.96	1.01
308.15	0.3784	913.76	1.01
308.15	0.4178	911.46	1.01
308.15	0.462	908.82	1.01
308.15	0.5009	906.44	1.01
308.15	0.5486	903.43	1.01
308.15	0.5814	901.31	1.01
308.15	0.6379	897.53	1.01
308.15	0.6899	893.91	1.01
308.15	0.7389	890.37	1.01
308.15	0.7804	887.26	1.01
308.15	0.8345	883.04	1.01
308.15	0.8929	878.25	1.01

System: cyclohexanone + tetrahydropyran; phases: Liquid
Fixed: Pressure, kPa = 100
Fixed: Frequency, MHz = 3
Property: Speed of sound, m/s (Liquid); method: Sing-around technique in a fixed-path interferometer
Temperature, K	Mole fraction of tetrahydropyran	Speed of sound, m/s	uncertainty
293.15	0.1175	1411.4	1.3
293.15	0.1586	1404.6	1.3
293.15	0.1952	1398.7	1.3
293.15	0.2471	1390.5	1.3
293.15	0.2843	1384.6	1.3
293.15	0.3396	1376.1	1.3
293.15	0.3784	1370.3	1.3
293.15	0.4178	1364.5	1.3
293.15	0.462	1358.2	1.3
293.15	0.5009	1352.6	1.3
293.15	0.5486	1346.1	1.3
293.15	0.5814	1341.7	1.4
293.15	0.6379	1334.3	1.4
293.15	0.6899	1327.7	1.4
293.15	0.7389	1321.7	1.4
293.15	0.7804	1316.8	1.4
293.15	0.8345	1310.6	1.4
293.15	0.8929	1304.1	1.4
298.15	0.1175	1394.5	1.3
298.15	0.1586	1387.3	1.3
298.15	0.1952	1381	1.3
298.15	0.2471	1372.1	1.3
298.15	0.2843	1365.8	1.3
298.15	0.3396	1356.7	1.3
298.15	0.3784	1350.6	1.3
298.15	0.4178	1344.5	1.3
298.15	0.462	1337.8	1.3
298.15	0.5009	1332.1	1.3
298.15	0.5486	1325.3	1.3
298.15	0.5814	1320.7	1.3
298.15	0.6379	1313.2	1.3
298.15	0.6899	1306.4	1.4
298.15	0.7389	1299.7	1.4
298.15	0.7804	1294.6	1.4
298.15	0.8345	1288.1	1.4
298.15	0.8929	1281.4	1.4
303.15	0.1175	1373.6	1.3
303.15	0.1586	1366.3	1.3
303.15	0.1952	1359.7	1.3
303.15	0.2471	1350.7	1.3
303.15	0.2843	1344.4	1.3
303.15	0.3396	1335.2	1.3
303.15	0.3784	1328.9	1.3
303.15	0.4178	1322.6	1.3
303.15	0.462	1315.8	1.3
303.15	0.5009	1309.9	1.3
303.15	0.5486	1302.9	1.3
303.15	0.5814	1298.2	1.3
303.15	0.6379	1290.3	1.3
303.15	0.6899	1283.4	1.3
303.15	0.7389	1277	1.3
303.15	0.7804	1271.8	1.3
303.15	0.8345	1265.3	1.4
303.15	0.8929	1258.5	1.4
308.15	0.1175	1353.2	1.3
308.15	0.1586	1345.6	1.3
308.15	0.1952	1339.1	1.3
308.15	0.2471	1329.8	1.3
308.15	0.2843	1323.4	1.3
308.15	0.3396	1314	1.3
308.15	0.3784	1307.6	1.3
308.15	0.4178	1301.2	1.3
308.15	0.462	1294.2	1.3
308.15	0.5009	1288.3	1.3
308.15	0.5486	1281.1	1.3
308.15	0.5814	1276.3	1.3
308.15	0.6379	1268.3	1.3
308.15	0.6899	1261.3	1.3
308.15	0.7389	1254.8	1.3
308.15	0.7804	1249.6	1.3
308.15	0.8345	1242.9	1.3
308.15	0.8929	1236.1	1.3

System: cyclohexanone + tetrahydropyran; phases: Liquid
Fixed: Pressure, kPa = 100
Fixed: Temperature, K = 308.15
Property: Excess molar enthalpy (molar enthalpy of mixing), kJ/mol (Liquid); method: Calvet calorimetry
Mole fraction of tetrahydropyran	Excess molar enthalpy (molar enthalpy of mixing), kJ/mol	uncertainty
0.0989	0.041	0.0013
0.1475	0.0584	0.0016
0.1926	0.0712	0.0019
0.2415	0.086	0.0022
0.2953	0.0968	0.0024
0.3416	0.1058	0.0026
0.3952	0.112	0.0027
0.4426	0.1148	0.0028
0.4956	0.1155	0.0028
0.5425	0.1135	0.0027
0.5982	0.1075	0.0026
0.641	0.1021	0.0025
0.6825	0.0948	0.0023
0.7333	0.0835	0.0021
0.7865	0.0697	0.0018
0.8359	0.0553	0.0016
0.8875	0.0389	0.0013
0.9299	0.0241	0.001

System: cyclohexanone + tetrahydropyran; phases: Liquid
Fixed: Pressure, kPa = 100
Property: Molar heat capacity at constant pressure, J/K/mol (Liquid); method: Extra sensitive DSC
Temperature, K	Mole fraction of tetrahydropyran	Molar heat capacity at constant pressure, J/K/mol	uncertainty
293.15	0.0995	176.32	6.84
293.15	0.1452	175.99	6.83
293.15	0.1965	175.76	6.82
293.15	0.2456	175.65	6.82
293.15	0.2863	175.47	6.81
293.15	0.3321	175.13	6.8
293.15	0.3845	174.53	6.77
293.15	0.4215	173.95	6.75
293.15	0.4723	172.86	6.71
293.15	0.5241	171.58	6.66
293.15	0.5796	169.75	6.59
293.15	0.6153	168.49	6.54
293.15	0.6654	166.35	6.46
293.15	0.7132	164.19	6.37
293.15	0.7698	161.26	6.26
293.15	0.8265	158.18	6.14
293.15	0.8732	155.48	6.03
293.15	0.9245	152.46	5.92
298.15	0.0995	178.62	6.93
298.15	0.1452	178.41	6.92
298.15	0.1965	178.4	6.92
298.15	0.2456	178.24	6.92
298.15	0.2863	178.06	6.91
298.15	0.3321	177.68	6.9
298.15	0.3845	177.03	6.87
298.15	0.4215	176.42	6.85
298.15	0.4723	175.29	6.8
298.15	0.5241	173.99	6.75
298.15	0.5796	172.22	6.68
298.15	0.6153	170.9	6.63
298.15	0.6654	168.77	6.55
298.15	0.7132	166.61	6.47
298.15	0.7698	163.68	6.35
298.15	0.8265	160.54	6.23
298.15	0.8732	157.76	6.12
298.15	0.9245	154.55	6
303.15	0.0995	180.9	7.02
303.15	0.1452	181.03	7.03
303.15	0.1965	181.02	7.02
303.15	0.2456	180.93	7.02
303.15	0.2863	180.64	7.01
303.15	0.3321	180.22	6.99
303.15	0.3845	179.51	6.97
303.15	0.4215	178.92	6.94
303.15	0.4723	177.75	6.9
303.15	0.5241	176.42	6.85
303.15	0.5796	174.56	6.77
303.15	0.6153	173.23	6.72
303.15	0.6654	171.21	6.64
303.15	0.7132	168.92	6.56
303.15	0.7698	165.99	6.44
303.15	0.8265	162.79	6.32
303.15	0.8732	159.9	6.21
303.15	0.9245	156.51	6.07
308.15	0.0995	183.36	7.12
308.15	0.1452	183.58	7.12
308.15	0.1965	183.49	7.12
308.15	0.2456	183.53	7.12
308.15	0.2863	183.3	7.11
308.15	0.3321	182.87	7.1
308.15	0.3845	182.09	7.07
308.15	0.4215	181.49	7.04
308.15	0.4723	180.31	7
308.15	0.5241	178.98	6.95
308.15	0.5796	177.13	6.87
308.15	0.6153	175.87	6.83
308.15	0.6654	173.73	6.74
308.15	0.7132	171.57	6.66
308.15	0.7698	168.56	6.54
308.15	0.8265	165.3	6.41
308.15	0.8732	162.31	6.3
308.15	0.9245	158.75	6.16

System: tetrahydropyran + cycloheptanone; phases: Liquid
Fixed: Pressure, kPa = 100
Property: Mass density, kg/m3 (Liquid); method: Vibrating tube method
Temperature, K	Mole fraction of tetrahydropyran	Mass density, kg/m3	uncertainty
293.15	0.0845	948.05	1.03
293.15	0.1276	946.02	1.03
293.15	0.1794	943.48	1.02
293.15	0.2172	941.57	1.02
293.15	0.254	939.66	1.02
293.15	0.3098	936.64	1.02
293.15	0.341	934.9	1.02
293.15	0.3982	931.59	1.02
293.15	0.4407	929.02	1.02
293.15	0.4986	925.38	1.02
293.15	0.5312	923.24	1.02
293.15	0.5779	920.07	1.01
293.15	0.6295	916.42	1.01
293.15	0.6717	913.29	1.01
293.15	0.7229	909.34	1.01
293.15	0.7686	905.66	1.01
293.15	0.8202	901.28	1.01
293.15	0.8742	896.48	1.01
298.15	0.0845	943.9	1.03
298.15	0.1276	941.88	1.03
298.15	0.1794	939.35	1.02
298.15	0.2172	937.43	1.02
298.15	0.254	935.51	1.02
298.15	0.3098	932.46	1.02
298.15	0.341	930.72	1.02
298.15	0.3982	927.36	1.02
298.15	0.4407	924.78	1.02
298.15	0.4986	921.12	1.02
298.15	0.5312	918.96	1.02
298.15	0.5779	915.78	1.01
298.15	0.6295	912.11	1.01
298.15	0.6717	908.95	1.01
298.15	0.7229	904.97	1.01
298.15	0.7686	901.22	1.01
298.15	0.8202	896.77	1.01
298.15	0.8742	891.84	1.01
303.15	0.0845	939.65	1.03
303.15	0.1276	937.63	1.03
303.15	0.1794	935.11	1.02
303.15	0.2172	933.19	1.02
303.15	0.254	931.26	1.02
303.15	0.3098	928.23	1.02
303.15	0.341	926.47	1.02
303.15	0.3982	923.12	1.02
303.15	0.4407	920.53	1.02
303.15	0.4986	916.82	1.02
303.15	0.5312	914.66	1.02
303.15	0.5779	911.43	1.02
303.15	0.6295	907.7	1.01
303.15	0.6717	904.49	1.01
303.15	0.7229	900.41	1.01
303.15	0.7686	896.58	1.01
303.15	0.8202	892.03	1.01
303.15	0.8742	886.98	1.01
308.15	0.0845	935.43	1.03
308.15	0.1276	933.42	1.03
308.15	0.1794	930.88	1.02
308.15	0.2172	928.95	1.02
308.15	0.254	927.02	1.02
308.15	0.3098	923.95	1.02
308.15	0.341	922.18	1.02
308.15	0.3982	918.8	1.02
308.15	0.4407	916.18	1.02
308.15	0.4986	912.46	1.02
308.15	0.5312	910.27	1.02
308.15	0.5779	907.03	1.02
308.15	0.6295	903.26	1.01
308.15	0.6717	900.02	1.01
308.15	0.7229	895.9	1.01
308.15	0.7686	892.03	1.01
308.15	0.8202	887.39	1.01
308.15	0.8742	882.23	1.01

System: tetrahydropyran + cycloheptanone; phases: Liquid
Fixed: Pressure, kPa = 100
Fixed: Frequency, MHz = 3
Property: Speed of sound, m/s (Liquid); method: Sing-around technique in a fixed-path interferometer
Temperature, K	Mole fraction of tetrahydropyran	Speed of sound, m/s	uncertainty
293.15	0.0845	1457.2	1.6
293.15	0.1276	1447.3	1.6
293.15	0.1794	1435.5	1.6
293.15	0.2172	1427.2	1.6
293.15	0.254	1419.2	1.6
293.15	0.3098	1407.4	1.5
293.15	0.341	1400.9	1.5
293.15	0.3982	1389.4	1.5
293.15	0.4407	1381.2	1.5
293.15	0.4986	1370.2	1.5
293.15	0.5312	1364.3	1.5
293.15	0.5779	1355.9	1.5
293.15	0.6295	1347.1	1.5
293.15	0.6717	1340.1	1.4
293.15	0.7229	1331.9	1.4
293.15	0.7686	1324.8	1.4
293.15	0.8202	1317.2	1.4
293.15	0.8742	1309.5	1.4
298.15	0.0845	1435	1.6
298.15	0.1276	1424.9	1.6
298.15	0.1794	1413	1.6
298.15	0.2172	1404.5	1.6
298.15	0.254	1396.5	1.6
298.15	0.3098	1384.5	1.5
298.15	0.341	1378	1.5
298.15	0.3982	1366.4	1.5
298.15	0.4407	1358	1.5
298.15	0.4986	1346.9	1.5
298.15	0.5312	1340.9	1.5
298.15	0.5779	1332.6	1.5
298.15	0.6295	1323.7	1.5
298.15	0.6717	1316.6	1.4
298.15	0.7229	1308.4	1.4
298.15	0.7686	1301.4	1.4
298.15	0.8202	1293.7	1.4
298.15	0.8742	1286.1	1.4
303.15	0.0845	1411.9	1.6
303.15	0.1276	1401.8	1.6
303.15	0.1794	1389.8	1.6
303.15	0.2172	1381.3	1.6
303.15	0.254	1373.2	1.6
303.15	0.3098	1361.1	1.5
303.15	0.341	1354.6	1.5
303.15	0.3982	1342.9	1.5
303.15	0.4407	1334.6	1.5
303.15	0.4986	1323.6	1.5
303.15	0.5312	1317.5	1.5
303.15	0.5779	1309.2	1.5
303.15	0.6295	1300.3	1.4
303.15	0.6717	1293.3	1.4
303.15	0.7229	1285.2	1.4
303.15	0.7686	1278.2	1.4
303.15	0.8202	1270.6	1.4
303.15	0.8742	1263	1.4
308.15	0.0845	1389.1	1.6
308.15	0.1276	1378.9	1.6
308.15	0.1794	1366.9	1.6
308.15	0.2172	1358.4	1.6
308.15	0.254	1350.2	1.5
308.15	0.3098	1338.2	1.5
308.15	0.341	1331.6	1.5
308.15	0.3982	1319.9	1.5
308.15	0.4407	1311.6	1.5
308.15	0.4986	1300.6	1.5
308.15	0.5312	1294.6	1.5
308.15	0.5779	1286.3	1.5
308.15	0.6295	1277.4	1.4
308.15	0.6717	1270.5	1.4
308.15	0.7229	1262.4	1.4
308.15	0.7686	1255.4	1.4
308.15	0.8202	1247.9	1.4
308.15	0.8742	1240.4	1.4

System: tetrahydropyran + cycloheptanone; phases: Liquid
Fixed: Pressure, kPa = 1e-07
Fixed: Temperature, K = 308.15
Property: Excess molar enthalpy (molar enthalpy of mixing), kJ/mol (Liquid); method: Calvet calorimetry
Mole fraction of tetrahydropyran	Excess molar enthalpy (molar enthalpy of mixing), kJ/mol	uncertainty
0.0898	0.0549	0.0016
0.1356	0.0749	0.0019
0.1846	0.0896	0.0022
0.2366	0.1044	0.0025
0.2882	0.1135	0.0027
0.3312	0.1188	0.0028
0.3942	0.1233	0.0029
0.4412	0.1247	0.003
0.4895	0.1245	0.003
0.5326	0.1233	0.0029
0.5842	0.1201	0.0029
0.6335	0.116	0.0028
0.6875	0.1092	0.0026
0.7289	0.1025	0.0025
0.7789	0.092	0.0023
0.8278	0.0774	0.002
0.8799	0.0612	0.0017
0.9199	0.0434	0.0013

System: tetrahydropyran + cycloheptanone; phases: Liquid
Fixed: Pressure, kPa = 100
Property: Molar heat capacity at constant pressure, J/K/mol (Liquid); method: Extra sensitive DSC
Temperature, K	Mole fraction of tetrahydropyran	Molar heat capacity at constant pressure, J/K/mol	uncertainty
293.15	0.1121	196.3	7.62
293.15	0.1652	194.07	7.53
293.15	0.2103	192.18	7.46
293.15	0.2652	189.86	7.37
293.15	0.3187	187.56	7.28
293.15	0.3562	185.92	7.22
293.15	0.4036	183.78	7.13
293.15	0.4562	181.33	7.04
293.15	0.4921	179.6	6.97
293.15	0.5341	177.51	6.89
293.15	0.5896	174.63	6.78
293.15	0.6231	172.8	6.71
293.15	0.6741	169.93	6.59
293.15	0.7256	166.92	6.48
293.15	0.7769	163.72	6.35
293.15	0.8321	160.14	6.21
293.15	0.8754	157.18	6.1
293.15	0.9365	152.82	5.93
298.15	0.1121	197.43	7.66
298.15	0.1652	195.27	7.58
298.15	0.2103	193.43	7.51
298.15	0.2652	191.15	7.42
298.15	0.3187	188.91	7.33
298.15	0.3562	187.28	7.27
298.15	0.4036	185.22	7.19
298.15	0.4562	182.82	7.09
298.15	0.4921	181.13	7.03
298.15	0.5341	179.07	6.95
298.15	0.5896	176.29	6.84
298.15	0.6231	174.52	6.77
298.15	0.6741	171.69	6.66
298.15	0.7256	168.74	6.55
298.15	0.7769	165.58	6.43
298.15	0.8321	162	6.29
298.15	0.8754	159.06	6.17
298.15	0.9365	154.62	6
303.15	0.1121	198.93	7.72
303.15	0.1652	196.82	7.64
303.15	0.2103	195.03	7.57
303.15	0.2652	192.76	7.48
303.15	0.3187	190.53	7.39
303.15	0.3562	188.93	7.33
303.15	0.4036	186.84	7.25
303.15	0.4562	184.44	7.16
303.15	0.4921	182.76	7.09
303.15	0.5341	180.74	7.01
303.15	0.5896	177.96	6.91
303.15	0.6231	176.25	6.84
303.15	0.6741	173.45	6.73
303.15	0.7256	170.53	6.62
303.15	0.7769	167.38	6.5
303.15	0.8321	163.83	6.36
303.15	0.8754	160.84	6.24
303.15	0.9365	156.31	6.07
308.15	0.1121	200.52	7.78
308.15	0.1652	198.49	7.7
308.15	0.2103	196.74	7.63
308.15	0.2652	194.53	7.55
308.15	0.3187	192.28	7.46
308.15	0.3562	190.71	7.4
308.15	0.4036	188.65	7.32
308.15	0.4562	186.27	7.23
308.15	0.4921	184.65	7.17
308.15	0.5341	182.63	7.09
308.15	0.5896	179.93	6.98
308.15	0.6231	178.18	6.91
308.15	0.6741	175.49	6.81
308.15	0.7256	172.58	6.7
308.15	0.7769	169.46	6.58
308.15	0.8321	165.92	6.44
308.15	0.8754	162.89	6.32
308.15	0.9365	158.31	6.14

System: cyclohexanone + 1,4-dioxane; phases: Liquid
Fixed: Pressure, kPa = 100
Property: Mass density, kg/m3 (Liquid); method: Vibrating tube method
Temperature, K	Mole fraction of 1,4-dioxane	Mass density, kg/m3	uncertainty
293.15	0.0999	953.66	1.01
293.15	0.1548	957.29	1.01
293.15	0.2064	960.83	1.01
293.15	0.2523	964.08	1.01
293.15	0.3087	968.21	1.01
293.15	0.3412	970.67	1.01
293.15	0.3952	974.86	1.01
293.15	0.4315	977.76	1.01
293.15	0.4875	982.38	1.01
293.15	0.5348	986.41	1.01
293.15	0.5798	990.36	1.01
293.15	0.6145	993.49	1.01
293.15	0.6698	998.63	1.01
293.15	0.7148	1002.9	1
293.15	0.7682	1008.2	1
293.15	0.8015	1011.6	1
293.15	0.8542	1017.2	1
293.15	0.9054	1022.7	1
298.15	0.0999	949.13	1.01
298.15	0.1548	952.73	1.01
298.15	0.2064	956.23	1.01
298.15	0.2523	959.45	1.01
298.15	0.3087	963.55	1.01
298.15	0.3412	965.97	1.01
298.15	0.3952	970.12	1.01
298.15	0.4315	972.99	1.01
298.15	0.4875	977.54	1.01
298.15	0.5348	981.52	1.01
298.15	0.5798	985.42	1.01
298.15	0.6145	988.51	1.01
298.15	0.6698	993.56	1.01
298.15	0.7148	997.82	1.01
298.15	0.7682	1003	1
298.15	0.8015	1006.4	1
298.15	0.8542	1011.8	1
298.15	0.9054	1017.3	1
303.15	0.0999	944.25	1.01
303.15	0.1548	947.83	1.01
303.15	0.2064	951.32	1.01
303.15	0.2523	954.52	1.01
303.15	0.3087	958.59	1.01
303.15	0.3412	960.99	1.01
303.15	0.3952	965.11	1.01
303.15	0.4315	967.96	1.01
303.15	0.4875	972.47	1.01
303.15	0.5348	976.42	1.01
303.15	0.5798	980.28	1.01
303.15	0.6145	983.33	1.01
303.15	0.6698	988.34	1.01
303.15	0.7148	992.55	1.01
303.15	0.7682	997.69	1.01
303.15	0.8015	1001	1
303.15	0.8542	1006.4	1
303.15	0.9054	1011.7	1
308.15	0.0999	939.34	1.01
308.15	0.1548	942.9	1.01
308.15	0.2064	946.37	1.01
308.15	0.2523	949.56	1.01
308.15	0.3087	953.6	1.01
308.15	0.3412	955.99	1.01
308.15	0.3952	960.08	1.01
308.15	0.4315	962.9	1.01
308.15	0.4875	967.38	1.01
308.15	0.5348	971.29	1.01
308.15	0.5798	975.11	1.01
308.15	0.6145	978.13	1.01
308.15	0.6698	983.08	1.01
308.15	0.7148	987.23	1.01
308.15	0.7682	992.32	1.01
308.15	0.8015	995.58	1.01
308.15	0.8542	1000.8	1
308.15	0.9054	1006.2	1

System: cyclohexanone + 1,4-dioxane; phases: Liquid
Fixed: Pressure, kPa = 100
Fixed: Frequency, MHz = 3
Property: Speed of sound, m/s (Liquid); method: Sing-around technique in a fixed-path interferometer
Temperature, K	Mole fraction of 1,4-dioxane	Speed of sound, m/s	uncertainty
293.15	0.0999	1423.2	1.3
293.15	0.1548	1419	1.4
293.15	0.2064	1415.2	1.4
293.15	0.2523	1411.8	1.4
293.15	0.3087	1407.8	1.4
293.15	0.3412	1405.5	1.4
293.15	0.3952	1401.8	1.4
293.15	0.4315	1399.3	1.4
293.15	0.4875	1395.6	1.4
293.15	0.5348	1392.5	1.4
293.15	0.5798	1389.7	1.4
293.15	0.6145	1387.5	1.4
293.15	0.6698	1384.1	1.4
293.15	0.7148	1381.5	1.4
293.15	0.7682	1378.5	1.4
293.15	0.8015	1376.8	1.5
293.15	0.8542	1374.1	1.5
293.15	0.9054	1371.7	1.5
298.15	0.0999	1407.2	1.3
298.15	0.1548	1402.8	1.4
298.15	0.2064	1398.7	1.4
298.15	0.2523	1395.1	1.4
298.15	0.3087	1390.8	1.4
298.15	0.3412	1388.3	1.4
298.15	0.3952	1384.3	1.4
298.15	0.4315	1381.6	1.4
298.15	0.4875	1377.6	1.4
298.15	0.5348	1374.2	1.4
298.15	0.5798	1371.1	1.4
298.15	0.6145	1368.7	1.4
298.15	0.6698	1365	1.4
298.15	0.7148	1362	1.4
298.15	0.7682	1358.7	1.4
298.15	0.8015	1356.7	1.4
298.15	0.8542	1353.6	1.5
298.15	0.9054	1350.8	1.5
303.15	0.0999	1387	1.3
303.15	0.1548	1382.6	1.4
303.15	0.2064	1378.5	1.4
303.15	0.2523	1374.9	1.4
303.15	0.3087	1370.6	1.4
303.15	0.3412	1368.1	1.4
303.15	0.3952	1364	1.4
303.15	0.4315	1361.3	1.4
303.15	0.4875	1357.2	1.4
303.15	0.5348	1353.8	1.4
303.15	0.5798	1350.6	1.4
303.15	0.6145	1348.2	1.4
303.15	0.6698	1344.4	1.4
303.15	0.7148	1341.4	1.4
303.15	0.7682	1338	1.4
303.15	0.8015	1335.9	1.4
303.15	0.8542	1332.7	1.5
303.15	0.9054	1329.6	1.5
308.15	0.0999	1367.1	1.3
308.15	0.1548	1362.7	1.3
308.15	0.2064	1358.7	1.4
308.15	0.2523	1355	1.4
308.15	0.3087	1350.6	1.4
308.15	0.3412	1348.1	1.4
308.15	0.3952	1343.9	1.4
308.15	0.4315	1341.2	1.4
308.15	0.4875	1336.9	1.4
308.15	0.5348	1333.5	1.4
308.15	0.5798	1330.2	1.4
308.15	0.6145	1327.7	1.4
308.15	0.6698	1323.8	1.4
308.15	0.7148	1320.7	1.4
308.15	0.7682	1317.1	1.4
308.15	0.8015	1314.9	1.4
308.15	0.8542	1311.5	1.5
308.15	0.9054	1308.3	1.5

System: cyclohexanone + 1,4-dioxane; phases: Liquid
Fixed: Pressure, kPa = 100
Fixed: Temperature, K = 308.15
Property: Excess molar enthalpy (molar enthalpy of mixing), kJ/mol (Liquid); method: Calvet calorimetry
Mole fraction of 1,4-dioxane	Excess molar enthalpy (molar enthalpy of mixing), kJ/mol	uncertainty
0.0792	0.0817	0.0021
0.1286	0.1245	0.003
0.1749	0.1595	0.0037
0.2236	0.1916	0.0044
0.2743	0.2201	0.005
0.3289	0.2455	0.0055
0.3729	0.2622	0.0058
0.4298	0.2787	0.0062
0.4715	0.2871	0.0064
0.5242	0.293	0.0065
0.5735	0.2935	0.0065
0.6199	0.2892	0.0064
0.7182	0.2624	0.0058
0.7628	0.2412	0.0054
0.8193	0.2048	0.0046
0.8672	0.1647	0.0038
0.9173	0.1125	0.0027

System: cyclohexanone + 1,4-dioxane; phases: Liquid
Fixed: Pressure, kPa = 100
Property: Molar heat capacity at constant pressure, J/K/mol (Liquid); method: ADIACNV
Temperature, K	Mole fraction of 1,4-dioxane	Molar heat capacity at constant pressure, J/K/mol	uncertainty
293.15	0.0799	173.61	6.74
293.15	0.1351	171.94	6.67
293.15	0.1965	170.17	6.6
293.15	0.2378	169.01	6.56
293.15	0.2874	167.66	6.51
293.15	0.3258	166.66	6.47
293.15	0.3642	165.66	6.43
293.15	0.4195	164.26	6.37
293.15	0.4625	163.21	6.33
293.15	0.5061	162.15	6.29
293.15	0.5543	161.01	6.25
293.15	0.6023	159.9	6.21
293.15	0.6487	158.83	6.16
293.15	0.6946	157.82	6.12
293.15	0.7412	156.79	6.08
293.15	0.7845	155.87	6.05
293.15	0.8398	154.71	6
293.15	0.8975	153.56	5.96
298.15	0.0799	175.65	6.82
298.15	0.1351	173.94	6.75
298.15	0.1965	172.12	6.68
298.15	0.2378	170.93	6.63
298.15	0.2874	169.54	6.58
298.15	0.3258	168.49	6.54
298.15	0.3642	167.46	6.5
298.15	0.4195	166.02	6.44
298.15	0.4625	164.92	6.4
298.15	0.5061	163.82	6.36
298.15	0.5543	162.63	6.31
298.15	0.6023	161.47	6.27
298.15	0.6487	160.36	6.22
298.15	0.6946	159.29	6.18
298.15	0.7412	158.22	6.14
298.15	0.7845	157.25	6.1
298.15	0.8398	156.04	6.06
298.15	0.8975	154.82	6.01
303.15	0.0799	177.71	6.9
303.15	0.1351	175.96	6.83
303.15	0.1965	174.08	6.76
303.15	0.2378	172.86	6.71
303.15	0.2874	171.43	6.65
303.15	0.3258	170.34	6.61
303.15	0.3642	169.27	6.57
303.15	0.4195	167.78	6.51
303.15	0.4625	166.62	6.47
303.15	0.5061	165.49	6.42
303.15	0.5543	164.25	6.37
303.15	0.6023	163.05	6.33
303.15	0.6487	161.9	6.28
303.15	0.6946	160.78	6.24
303.15	0.7412	159.66	6.2
303.15	0.7845	158.66	6.16
303.15	0.8398	157.39	6.11
303.15	0.8975	156.1	6.06
308.15	0.0799	179.75	6.98
308.15	0.1351	177.96	6.91
308.15	0.1965	176.03	6.83
308.15	0.2378	174.77	6.78
308.15	0.2874	173.28	6.72
308.15	0.3258	172.17	6.68
308.15	0.3642	171.07	6.64
308.15	0.4195	169.52	6.58
308.15	0.4625	168.33	6.53
308.15	0.5061	167.15	6.49
308.15	0.5543	165.88	6.44
308.15	0.6023	164.62	6.39
308.15	0.6487	163.44	6.34
308.15	0.6946	162.27	6.3
308.15	0.7412	161.12	6.25
308.15	0.7845	160.06	6.21
308.15	0.8398	158.74	6.16
308.15	0.8975	157.39	6.11

System: 1,4-dioxane + cycloheptanone; phases: Liquid
Fixed: Pressure, kPa = 100
Property: Mass density, kg/m3 (Liquid); method: Vibrating tube method
Temperature, K	Mole fraction of 1,4-dioxane	Mass density, kg/m3	uncertainty
293.15	0.0954	957.02	1.03
293.15	0.1589	960.61	1.03
293.15	0.2184	964.09	1.03
293.15	0.2555	966.35	1.03
293.15	0.3019	969.25	1.02
293.15	0.3487	972.3	1.02
293.15	0.3814	974.5	1.02
293.15	0.4324	978.07	1.02
293.15	0.4879	982.15	1.02
293.15	0.5219	984.76	1.02
293.15	0.5723	988.81	1.02
293.15	0.6149	992.39	1.02
293.15	0.6687	997.15	1.02
293.15	0.7104	1001	1
293.15	0.7489	1004.7	1
293.15	0.7919	1009.2	1
293.15	0.8475	1015.1	1
293.15	0.9018	1021.3	1
298.15	0.0954	952.54	1.03
298.15	0.1589	956.03	1.03
298.15	0.2184	959.46	1.03
298.15	0.2555	961.68	1.03
298.15	0.3019	964.56	1.02
298.15	0.3487	967.57	1.02
298.15	0.3814	969.75	1.02
298.15	0.4324	973.27	1.02
298.15	0.4879	977.29	1.02
298.15	0.5219	979.85	1.02
298.15	0.5723	983.82	1.02
298.15	0.6149	987.32	1.02
298.15	0.6687	991.96	1.02
298.15	0.7104	995.75	1.02
298.15	0.7489	999.41	1.02
298.15	0.7919	1003.7	1
298.15	0.8475	1009.5	1
298.15	0.9018	1015.6	1
303.15	0.0954	948.07	1.03
303.15	0.1589	951.46	1.03
303.15	0.2184	954.81	1.03
303.15	0.2555	956.99	1.03
303.15	0.3019	959.82	1.02
303.15	0.3487	962.78	1.02
303.15	0.3814	964.92	1.02
303.15	0.4324	968.38	1.02
303.15	0.4879	972.33	1.02
303.15	0.5219	974.85	1.02
303.15	0.5723	978.74	1.02
303.15	0.6149	982.17	1.02
303.15	0.6687	986.73	1.02
303.15	0.7104	990.44	1.02
303.15	0.7489	994.03	1.02
303.15	0.7919	998.23	1.02
303.15	0.8475	1004	1
303.15	0.9018	1010.1	1
308.15	0.0954	943.61	1.03
308.15	0.1589	946.89	1.03
308.15	0.2184	950.18	1.03
308.15	0.2555	952.32	1.03
308.15	0.3019	955.1	1.02
308.15	0.3487	958.02	1.02
308.15	0.3814	960.13	1.02
308.15	0.4324	963.54	1.02
308.15	0.4879	967.42	1.02
308.15	0.5219	969.89	1.02
308.15	0.5723	973.7	1.02
308.15	0.6149	977.06	1.02
308.15	0.6687	981.52	1.02
308.15	0.7104	985.15	1.02
308.15	0.7489	988.66	1.02
308.15	0.7919	992.77	1.02
308.15	0.8475	998.45	1.02
308.15	0.9018	1004.4	1

System: 1,4-dioxane + cycloheptanone; phases: Liquid
Fixed: Pressure, kPa = 100
Fixed: Frequency, MHz = 3
Property: Speed of sound, m/s (Liquid); method: Sing-around technique in a fixed-path interferometer
Temperature, K	Mole fraction of 1,4-dioxane	Speed of sound, m/s	uncertainty
293.15	0.0954	1466.3	1.6
293.15	0.1589	1459.2	1.6
293.15	0.2184	1452.6	1.6
293.15	0.2555	1448.6	1.6
293.15	0.3019	1443.6	1.6
293.15	0.3487	1438.6	1.6
293.15	0.3814	1435.1	1.6
293.15	0.4324	1429.7	1.6
293.15	0.4879	1423.8	1.6
293.15	0.5219	1420.3	1.6
293.15	0.5723	1415	1.5
293.15	0.6149	1410.5	1.5
293.15	0.6687	1404.8	1.5
293.15	0.7104	1400.4	1.5
293.15	0.7489	1396.3	1.5
293.15	0.7919	1391.6	1.5
293.15	0.8475	1385.4	1.5
293.15	0.9018	1379.3	1.5
298.15	0.0954	1444.4	1.6
298.15	0.1589	1437.4	1.6
298.15	0.2184	1430.9	1.6
298.15	0.2555	1426.9	1.6
298.15	0.3019	1421.9	1.6
298.15	0.3487	1416.9	1.6
298.15	0.3814	1413.4	1.6
298.15	0.4324	1408	1.6
298.15	0.4879	1402.2	1.6
298.15	0.5219	1398.7	1.6
298.15	0.5723	1393.4	1.5
298.15	0.6149	1388.9	1.5
298.15	0.6687	1383.3	1.5
298.15	0.7104	1378.9	1.5
298.15	0.7489	1374.7	1.5
298.15	0.7919	1370.1	1.5
298.15	0.8475	1363.9	1.5
298.15	0.9018	1357.8	1.5
303.15	0.0954	1422.1	1.6
303.15	0.1589	1415.3	1.6
303.15	0.2184	1408.9	1.6
303.15	0.2555	1404.9	1.6
303.15	0.3019	1400	1.6
303.15	0.3487	1395.1	1.6
303.15	0.3814	1391.6	1.6
303.15	0.4324	1386.3	1.6
303.15	0.4879	1380.5	1.6
303.15	0.5219	1377	1.5
303.15	0.5723	1371.8	1.5
303.15	0.6149	1367.4	1.5
303.15	0.6687	1361.7	1.5
303.15	0.7104	1357.4	1.5
303.15	0.7489	1353.3	1.5
303.15	0.7919	1348.6	1.5
303.15	0.8475	1342.5	1.5
303.15	0.9018	1336.3	1.5
308.15	0.0954	1399.7	1.6
308.15	0.1589	1393	1.6
308.15	0.2184	1386.7	1.6
308.15	0.2555	1382.8	1.6
308.15	0.3019	1377.9	1.6
308.15	0.3487	1373	1.6
308.15	0.3814	1369.6	1.6
308.15	0.4324	1364.3	1.6
308.15	0.4879	1358.5	1.6
308.15	0.5219	1355	1.5
308.15	0.5723	1349.9	1.5
308.15	0.6149	1345.5	1.5
308.15	0.6687	1339.9	1.5
308.15	0.7104	1335.6	1.5
308.15	0.7489	1331.5	1.5
308.15	0.7919	1326.9	1.5
308.15	0.8475	1320.7	1.5
308.15	0.9018	1314.5	1.5

System: 1,4-dioxane + cycloheptanone; phases: Liquid
Fixed: Pressure, kPa = 100
Fixed: Temperature, K = 308.15
Property: Excess molar enthalpy (molar enthalpy of mixing), kJ/mol (Liquid); method: Calvet calorimetry
Mole fraction of 1,4-dioxane	Excess molar enthalpy (molar enthalpy of mixing), kJ/mol	uncertainty
0.0726	0.0304	0.0011
0.1258	0.0496	0.0015
0.1769	0.0643	0.0017
0.2252	0.0783	0.002
0.2786	0.0891	0.0022
0.3286	0.0979	0.0024
0.3746	0.1032	0.0025
0.4282	0.1068	0.0026
0.4712	0.1078	0.0026
0.5232	0.1061	0.0026
0.5725	0.1032	0.0025
0.6235	0.0975	0.0024
0.6762	0.0889	0.0022
0.7256	0.0799	0.002
0.7716	0.0694	0.0018
0.8125	0.0589	0.0016
0.8682	0.0423	0.0013
0.9129	0.0293	0.0011

System: 1,4-dioxane + cycloheptanone; phases: Liquid
Fixed: Pressure, kPa = 100
Property: Molar heat capacity at constant pressure, J/K/mol (Liquid); method: Extra sensitive DSC
Temperature, K	Mole fraction of 1,4-dioxane	Molar heat capacity at constant pressure, J/K/mol	uncertainty
293.15	0.0943	199.36	7.74
293.15	0.1587	198.02	7.68
293.15	0.2016	197.04	7.65
293.15	0.2574	195.59	7.59
293.15	0.3025	194.28	7.54
293.15	0.3412	193.02	7.49
293.15	0.3986	190.94	7.41
293.15	0.4215	189.98	7.37
293.15	0.4796	187.51	7.28
293.15	0.5213	185.45	7.2
293.15	0.5743	182.67	7.09
293.15	0.6142	180.46	7
293.15	0.6687	177.12	6.87
293.15	0.7149	174.07	6.76
293.15	0.7623	170.7	6.6
293.15	0.8169	166.69	6.47
293.15	0.8654	162.9	6.3
293.15	0.9149	158.86	6.16
298.15	0.0943	200.68	7.79
298.15	0.1587	199.53	7.74
298.15	0.2016	198.63	7.71
298.15	0.2574	197.23	7.65
298.15	0.3025	196	8
298.15	0.3412	194.78	7.56
298.15	0.3986	192.67	7.48
298.15	0.4215	191.84	7.44
298.15	0.4796	189.28	7.35
298.15	0.5213	187.35	7.27
298.15	0.5743	184.52	7.16
298.15	0.6142	182.26	7.07
298.15	0.6687	178.92	6.94
298.15	0.7149	175.86	6.82
298.15	0.7623	172.51	6.69
298.15	0.8169	168.4	6.5
298.15	0.8654	164.56	6.39
298.15	0.9149	160.38	6.22
303.15	0.0943	202.21	7.85
303.15	0.1587	201.25	7.81
303.15	0.2016	200.42	7.78
303.15	0.2574	199.23	7.73
303.15	0.3025	197.99	7.68
303.15	0.3412	196.83	7.64
303.15	0.3986	194.91	7.56
303.15	0.4215	194.03	7.53
303.15	0.4796	191.5	7.4
303.15	0.5213	189.58	7.36
303.15	0.5743	186.79	7.25
303.15	0.6142	184.49	7.16
303.15	0.6687	181.02	7.02
303.15	0.7149	177.95	6.91
303.15	0.7623	174.5	6.8
303.15	0.8169	170.24	6.61
303.15	0.8654	166.21	6.45
303.15	0.9149	161.87	6.28
308.15	0.0943	203.95	7.91
308.15	0.1587	203.14	7.88
308.15	0.2016	202.4	7.9
308.15	0.2574	201.2	7.8
308.15	0.3025	200.03	7.76
308.15	0.3412	198.81	7.72
308.15	0.3986	196.9	7.6
308.15	0.4215	196.02	7.61
308.15	0.4796	193.56	7.51
308.15	0.5213	191.52	7.43
308.15	0.5743	188.83	7.33
308.15	0.6142	186.55	7.24
308.15	0.6687	183.16	7.11
308.15	0.7149	180.03	6.99
308.15	0.7623	176.57	6.85
308.15	0.8169	172.25	6.68
308.15	0.8654	168.11	6.52
308.15	0.9149	163.59	6.35
