Measured thermophysical data. Measurement and Correlation of the Viscosity of 1,1,1,2,2,4,5,5,5-Nonafluoro-4-(trifluoromethyl)-3-pentanone
Source: J. Chem. Eng. Data, 2017, 10.1021/acs.jced.7b00572
Compound 1: dodecafluoro-2-methylpentan-3-one, C6F12O, InChI=1S/C6F12O/c7-2(4(10,11)12,5(13,14)15)1(19)3(8,9)6(16,17)18, purity 99.5%

System: dodecafluoro-2-methylpentan-3-one; phases: Liquid
Property: Viscosity, Pa*s (Liquid); method: Vibrating wire viscometry
Temperature, K	Pressure, kPa	Viscosity, Pa*s	uncertainty
243.16	100	0.0015971	3.35e-05
243.16	1000	0.0016282	3.42e-05
243.16	5000	0.0017491	3.66e-05
243.15	10000	0.0019234	4.02e-05
243.15	20000	0.0023292	4.84e-05
243.16	30000	0.0027614	5.71e-05
243.15	40000	0.0032473	6.7e-05
253.15	100	0.0013066	2.74e-05
253.15	1000	0.0013394	2.89e-05
253.15	5000	0.0014513	3.05e-05
253.15	10000	0.0015801	3.31e-05
253.15	20000	0.001913	3.99e-05
253.15	30000	0.0022601	4.69e-05
253.16	40000	0.0026591	5.5e-05
263.15	100	0.0010822	2.29e-05
263.15	1000	0.001107	2.42e-05
263.14	5000	0.001197	2.54e-05
263.14	10000	0.001327	2.8e-05
263.14	20000	0.0015728	3.29e-05
263.14	30000	0.0018603	3.88e-05
263.14	40000	0.0021693	4.51e-05
273.14	100	0.0009209	1.97e-05
273.15	1000	0.0009395	2.03e-05
273.15	5000	0.0010141	2.16e-05
273.15	10000	0.0011172	2.37e-05
273.14	20000	0.0013321	2.81e-05
273.15	30000	0.0015657	3.28e-05
273.15	40000	0.0018175	3.79e-05
283.15	100	0.0007823	1.69e-05
283.15	1000	0.0007955	1.75e-05
283.15	5000	0.0008641	1.86e-05
283.15	10000	0.0009569	2.05e-05
283.15	20000	0.0011419	2.42e-05
283.15	30000	0.001345	2.83e-05
283.15	40000	0.0015668	3.28e-05
293.15	100	0.0006693	1.47e-05
293.15	1000	0.0006851	1.52e-05
293.15	5000	0.0007466	1.63e-05
293.14	10000	0.0008262	1.79e-05
293.16	20000	0.0009881	2.11e-05
293.16	30000	0.0011558	2.45e-05
293.15	40000	0.0013499	2.84e-05
303.15	100	0.0005776	1.29e-05
303.16	1000	0.0005906	1.33e-05
303.14	5000	0.0006463	1.43e-05
303.15	10000	0.0007173	1.57e-05
303.15	20000	0.000861	1.85e-05
303.16	30000	0.0010126	2.16e-05
303.15	40000	0.0011765	2.49e-05
313.15	100	0.0005006	1.14e-05
313.13	1000	0.0005123	1.18e-05
313.14	5000	0.0005621	1.26e-05
313.15	10000	0.0006263	1.39e-05
313.14	20000	0.0007566	1.65e-05
313.14	30000	0.0008908	1.91e-05
313.15	40000	0.0010335	2.2e-05
323.16	1000	0.0004465	1.04e-05
323.17	5000	0.0004933	1.13e-05
323.17	10000	0.0005514	1.24e-05
323.16	20000	0.000668	1.47e-05
323.16	30000	0.0007894	1.71e-05
323.16	40100	0.0009178	1.97e-05
333.16	1000	0.0003918	9.3e-06
333.16	5000	0.0004349	1.02e-05
333.16	10000	0.0004891	1.12e-05
333.16	20000	0.0005966	1.33e-05
333.16	30000	0.0007059	1.54e-05
333.16	40000	0.0008211	1.77e-05
343.16	1000	0.000342	8.4e-06
343.15	5000	0.0003849	9.2e-06
343.15	10000	0.0004348	1.01e-05
343.15	20000	0.0005345	1.21e-05
343.15	30000	0.0006351	1.4e-05
343.15	40000	0.0007373	1.6e-05
353.15	1000	0.0003011	7.7e-06
353.16	5000	0.0003426	8.4e-06
353.16	10000	0.0003892	9.3e-06
353.16	20000	0.0004822	1.1e-05
353.15	30000	0.0005739	1.28e-05
353.15	40000	0.0006681	1.47e-05
363.15	5000	0.0003044	7.7e-06
363.15	10000	0.0003496	8.5e-06
363.15	20000	0.000436	1.02e-05
363.15	30000	0.0005213	1.18e-05
363.15	40000	0.000608	1.35e-05
373.15	5000	0.0002711	7.1e-06
373.15	10000	0.0003155	7.9e-06
373.15	20000	0.000397	9.4e-06
373.15	30000	0.0004778	1.09e-05
373.15	40000	0.0005583	1.25e-05
