Measured thermophysical data. Deterpenation of Citrus Essential Oils Using Glycerol-Based Deep Eutectic Solvents
Source: J. Chem. Eng. Data, 2018, 10.1021/acs.jced.7b00944
Compound 1: (R)-1-methyl-4-(1-methylethenyl)cyclohexene, C10H16, InChI=1S/C10H16/c1-8(2)10-6-4-9(3)5-7-10/h4,10H,1,5-7H2,2-3H3/t10-/m0/s1
Compound 2: 3,7-dimethyl-1,6-octadien-3-ol, C10H18O, InChI=1S/C10H18O/c1-5-10(4,11)8-6-7-9(2)3/h5,7,11H,1,6,8H2,2-4H3
Compound 3: ethanol, C2H6O, InChI=1S/C2H6O/c1-2-3/h3H,2H2,1H3
Compound 4: glycerol, C3H8O3, InChI=1S/C3H8O3/c4-1-3(6)2-5/h3-6H,1-2H2

System: (R)-1-methyl-4-(1-methylethenyl)cyclohexene; phases: Liquid
Property: Mass density, kg/m3 (Liquid); method: Vibrating tube method
Temperature, K	Pressure, kPa	Mass density, kg/m3	uncertainty
298.2	101.325	840.73	6.03

System: (R)-1-methyl-4-(1-methylethenyl)cyclohexene; phases: Liquid
Property: Viscosity, Pa*s (Liquid); method: Falling or rolling sphere viscometry
Temperature, K	Pressure, kPa	Viscosity, Pa*s	uncertainty
298.2	101.325	0.000972	0.000117

System: 3,7-dimethyl-1,6-octadien-3-ol; phases: Liquid
Property: Mass density, kg/m3 (Liquid); method: Vibrating tube method
Temperature, K	Pressure, kPa	Mass density, kg/m3	uncertainty
298.2	101.325	856.25	6.14

System: 3,7-dimethyl-1,6-octadien-3-ol; phases: Liquid
Property: Viscosity, Pa*s (Liquid); method: Falling or rolling sphere viscometry
Temperature, K	Pressure, kPa	Viscosity, Pa*s	uncertainty
298.2	101.325	0.004238	0.000514

System: ethanol; phases: Liquid
Property: Mass density, kg/m3 (Liquid); method: Vibrating tube method
Temperature, K	Pressure, kPa	Mass density, kg/m3	uncertainty
298.2	101.325	786.1	6.03

System: ethanol; phases: Liquid
Property: Viscosity, Pa*s (Liquid); method: Falling or rolling sphere viscometry
Temperature, K	Pressure, kPa	Viscosity, Pa*s	uncertainty
298.2	101.325	0.00104	0.000125

System: glycerol; phases: Liquid
Property: Mass density, kg/m3 (Liquid); method: Vibrating tube method
Temperature, K	Pressure, kPa	Mass density, kg/m3	uncertainty
298.2	101.325	1257.7	6.14

System: glycerol; phases: Liquid
Property: Viscosity, Pa*s (Liquid); method: Falling or rolling sphere viscometry
Temperature, K	Pressure, kPa	Viscosity, Pa*s	uncertainty
298.2	101.325	0.8736	0.1355
