Measured thermophysical data. Physicochemical Properties of LiFSI Solutions II: LiFSI with Water, MTBE, and Anisole
Source: J. Chem. Eng. Data, 2019, 10.1021/acs.jced.8b00595
Compound 1: lithium bis(fluorosulfonyl)imide, F2LiNO4S2, InChI=1S/F2NO4S2.Li/c1-8(4,5)3-9(2,6)7;/q-1;+1, purity 99.99%
Compound 2: 2-methoxy-2-methylpropane, C5H12O, InChI=1S/C5H12O/c1-5(2,3)6-4/h1-4H3, purity 99.8%
Compound 3: anisole, C7H8O, InChI=1S/C7H8O/c1-8-7-5-3-2-4-6-7/h2-6H,1H3, purity 99.97%
Compound 4: water, H2O, InChI=1S/H2O/h1H2, purity 99.9%

System: 2-methoxy-2-methylpropane; phases: Liquid
Fixed: Pressure, kPa = 101.3
Property: Mass density, kg/m3 (Liquid); method: Vibrating tube method
Temperature, K	Mass density, kg/m3	uncertainty
273.15	761.3	2.3
288.15	745.9	2.3
298.15	735	2.2
308.15	724.6	2.2

System: 2-methoxy-2-methylpropane; phases: Liquid
Fixed: Pressure, kPa = 101.3
Property: Viscosity, Pa*s (Liquid); method: Concentric cylinders viscometry
Temperature, K	Viscosity, Pa*s	uncertainty
273.15	0.000495	2.5e-05
288.15	0.000421	2.2e-05
298.15	0.000381	2e-05
308.15	0.000328	1.7e-05

System: lithium bis(fluorosulfonyl)imide + 2-methoxy-2-methylpropane; phases: Liquid
Fixed: Pressure, kPa = 101.3
Property: Mass density, kg/m3 (Liquid); method: Vibrating tube method
Temperature, K	Mole fraction of lithium bis(fluorosulfonyl)imide	Mass density, kg/m3	uncertainty
273.15	0	761.3	2.3
273.15	0.1001	882.7	2.7
273.15	0.2	1011.1	3.1
273.15	0.2497	1075.9	3.2
273.15	0.3002	1144	3.5
273.15	0.3498	1215	3.7
273.15	0.3995	1271.1	3.8
288.15	0	745.9	2.3
288.15	0.0999	867.2	2.6
288.15	0.2	995.1	3
288.15	0.2498	1061.6	3.2
288.15	0.3001	1128.3	3.4
288.15	0.3498	1198.9	3.6
288.15	0.3995	1255.8	3.8
298.15	0	735	2.2
298.15	0.1	856.8	2.6
298.15	0.1996	983.3	3
298.15	0.2494	1051.1	3.2
298.15	0.3	1117.9	3.4
298.15	0.349	1182.8	3.6
298.15	0.3994	1246.5	3.8
308.15	0	724.6	2.2
308.15	0.1001	847	2.6
308.15	0.2	980.1	3
308.15	0.2498	1041.2	3.1
308.15	0.3001	1108.5	3.3
308.15	0.3498	1178.2	3.6
308.15	0.3995	1235.4	3.7

System: lithium bis(fluorosulfonyl)imide + 2-methoxy-2-methylpropane; phases: Liquid
Fixed: Pressure, kPa = 101.3
Property: Viscosity, Pa*s (Liquid); method: Concentric cylinders viscometry
Temperature, K	Mole fraction of lithium bis(fluorosulfonyl)imide	Viscosity, Pa*s	uncertainty
273.15	0	0.000495	2.5e-05
273.15	0.1001	0.001178	6.3e-05
273.15	0.2	0.005933	0.00013
273.15	0.2497	0.019889	0.00057
273.15	0.3002	0.109668	0.004213
273.15	0.3498	0.775583	0.029701
288.15	0	0.000421	2.2e-05
288.15	0.0999	0.0009	4.6e-05
288.15	0.2	0.003739	5.9e-05
288.15	0.2498	0.011365	0.0002
288.15	0.3001	0.043722	0.000965
288.15	0.3498	0.227539	0.007725
298.15	0	0.000381	2e-05
298.15	0.1	0.000769	3.9e-05
298.15	0.1996	0.002932	4.5e-05
298.15	0.2494	0.007928	0.000135
298.15	0.3	0.026899	0.000501
298.15	0.349	0.104899	0.002419
308.15	0	0.000328	1.7e-05
308.15	0.1001	0.000684	3.6e-05
308.15	0.2	0.002662	4.2e-05
308.15	0.2498	0.006002	9.4e-05
308.15	0.3001	0.018168	0.000297
308.15	0.3498	0.067266	0.001257

System: lithium bis(fluorosulfonyl)imide + 2-methoxy-2-methylpropane; phases: Liquid, Crystal
Fixed: Pressure, kPa = 101.3
Property: Mole fraction of lithium bis(fluorosulfonyl)imide (Liquid); method: Titration method
Temperature, K	Mole fraction of lithium bis(fluorosulfonyl)imide	uncertainty
283.15	0.433	0.0081
293.15	0.4533	0.0081
303.15	0.4705	0.0081

System: lithium bis(fluorosulfonyl)imide + 2-methoxy-2-methylpropane + anisole; phases: Liquid, Crystal
Fixed: Temperature, K = 293.15
Fixed: Pressure, kPa = 101.3
Property: Mole fraction of lithium bis(fluorosulfonyl)imide (Liquid); method: Titration method
Mole fraction of anisole	Mole fraction of lithium bis(fluorosulfonyl)imide	uncertainty
0.5219	0.2172	0.009
0.3467	0.3067	0.009
0.2075	0.3774	0.009

System: lithium bis(fluorosulfonyl)imide + water + 2-methoxy-2-methylpropane; phases: Liquid mixture 1, Liquid mixture 2
Fixed: Temperature, K = 293
Fixed: Pressure, kPa = 101.3
Property: Mass fraction of lithium bis(fluorosulfonyl)imide (Liquid mixture 1); method: NMR and titration
Property: Mass fraction of lithium bis(fluorosulfonyl)imide (Liquid mixture 2); method: NMR and titration
Property: Mass fraction of water (Liquid mixture 2); method: NMR and titration
Mass fraction of water	Mass fraction of lithium bis(fluorosulfonyl)imide	uncertainty	Mass fraction of lithium bis(fluorosulfonyl)imide	uncertainty	Mass fraction of water	uncertainty
0.0133	0		0		0.9704	
0.0335	0.0414	0.0025	0.088	0.0049	0.8829	
0.0868	0.0717	0.0039	0.1119	0.0061	0.8254	
0.1411	0.0946	0.0052	0.1484	0.0081	0.6803	
0.2832	0.1646	0.009	0.1901	0.0103	0.3994	

System: water + 2-methoxy-2-methylpropane; phases: Liquid mixture 2, Liquid mixture 1
Property: Mass fraction of water (Liquid mixture 2); method: NMR and titration
Temperature, K	Pressure, kPa	Mass fraction of water	uncertainty
293	101.3	0.9704	0.0014

System: water + 2-methoxy-2-methylpropane; phases: Liquid mixture 1, Liquid mixture 2
Property: Mass fraction of water (Liquid mixture 1); method: NMR and titration
Temperature, K	Pressure, kPa	Mass fraction of water	uncertainty
293	101.3	0.0133	0.0012
