Measured thermophysical data. Densities and Viscosities for the Ternary Mixtures of exo-Tetrahydrodicyclopentadiene (1) + Isopropylcyclohexane (2) + Methyl Laurate (3) and Corresponding Binaries
Source: J. Chem. Eng. Data, 2019, 10.1021/acs.jced.9b00397
Compound 1: exo-tetrahydrodicyclopentadiene, C10H16, InChI=1S/C10H16/c1-2-9-7-4-5-8(6-7)10(9)3-1/h7-10H,1-6H2/t7-,8+,9+,10-, purity 98%
Compound 2: (1-methylethyl)cyclohexane, C9H18, InChI=1S/C9H18/c1-8(2)9-6-4-3-5-7-9/h8-9H,3-7H2,1-2H3, purity 99%
Compound 3: methyl dodecanoate, C13H26O2, InChI=1S/C13H26O2/c1-3-4-5-6-7-8-9-10-11-12-13(14)15-2/h3-12H2,1-2H3, purity 99%

System: exo-tetrahydrodicyclopentadiene; phases: Liquid
Fixed: Pressure, kPa = 100
Property: Mass density, kg/m3 (Liquid); method: Vibrating tube method
Temperature, K	Mass density, kg/m3	uncertainty
293.15	935.85	0.7
298.15	931.95	0.69
303.15	928.06	0.69
308.15	924.17	0.69
313.15	920.26	0.68
318.15	916.33	0.68
323.15	912.4	0.68
328.15	908.46	0.68
333.15	904.52	0.67
338.15	900.56	0.67
343.15	896.61	0.67

System: exo-tetrahydrodicyclopentadiene; phases: Liquid
Fixed: Pressure, kPa = 100
Property: Viscosity, Pa*s (Liquid); method: Falling or rolling sphere viscometry
Temperature, K	Viscosity, Pa*s	uncertainty
293.15	0.002994	6.7e-05
298.15	0.002712	6.1e-05
303.15	0.00247	5.6e-05
308.15	0.002259	5.1e-05
313.15	0.002073	4.7e-05
318.15	0.001909	4.3e-05
323.15	0.001764	4e-05
328.15	0.001635	3.7e-05
333.15	0.001519	3.4e-05
338.15	0.001416	3.2e-05
343.15	0.001322	3e-05

System: (1-methylethyl)cyclohexane; phases: Liquid
Fixed: Pressure, kPa = 100
Property: Mass density, kg/m3 (Liquid); method: Vibrating tube method
Temperature, K	Mass density, kg/m3	uncertainty
293.15	802.11	0.49
298.15	798.22	0.49
303.15	794.32	0.49
308.15	790.41	0.49
313.15	786.5	0.48
318.15	782.57	0.48
323.15	778.64	0.48
328.15	774.69	0.48
333.15	770.73	0.48
338.15	766.76	0.47
343.15	762.78	0.47
298.15	798.224	0.491
303.15	794.323	0.489
308.15	790.414	0.487
313.15	786.498	0.485
318.15	782.571	0.483
323.15	778.635	0.481
328.15	774.689	0.479
333.15	770.731	0.477
343.15	762.777	0.473

System: (1-methylethyl)cyclohexane; phases: Liquid
Fixed: Pressure, kPa = 100
Property: Viscosity, Pa*s (Liquid); method: Falling or rolling sphere viscometry
Temperature, K	Viscosity, Pa*s	uncertainty
293.15	0.001098	2.3e-05
298.15	0.00102	2.2e-05
303.15	0.00095	2e-05
308.15	0.000889	1.9e-05
313.15	0.000833	1.8e-05
318.15	0.000783	1.7e-05
323.15	0.000738	1.6e-05
328.15	0.000697	1.5e-05
333.15	0.00066	1.4e-05
338.15	0.000626	1.3e-05
343.15	0.000596	1.3e-05

System: methyl dodecanoate; phases: Liquid
Fixed: Pressure, kPa = 100
Property: Mass density, kg/m3 (Liquid); method: Vibrating tube method
Temperature, K	Mass density, kg/m3	uncertainty
293.15	869.22	0.53
298.15	865.3	0.53
303.15	861.37	0.52
308.15	857.44	0.52
313.15	853.51	0.52
318.15	849.58	0.52
323.15	845.65	0.52
328.15	841.72	0.51
333.15	837.78	0.51
338.15	833.84	0.51
343.15	829.9	0.51

System: methyl dodecanoate; phases: Liquid
Fixed: Pressure, kPa = 100
Property: Viscosity, Pa*s (Liquid); method: Falling or rolling sphere viscometry
Temperature, K	Viscosity, Pa*s	uncertainty
293.15	0.00312	6.6e-05
298.15	0.002778	5.9e-05
303.15	0.002491	5.3e-05
308.15	0.00225	4.8e-05
313.15	0.002044	4.3e-05
318.15	0.001866	4e-05
323.15	0.001712	3.6e-05
328.15	0.001577	3.4e-05
333.15	0.001458	3.1e-05
338.15	0.001353	2.9e-05
343.15	0.00126	2.7e-05

System: exo-tetrahydrodicyclopentadiene + (1-methylethyl)cyclohexane; phases: Liquid
Fixed: Pressure, kPa = 100
Property: Mass density, kg/m3 (Liquid); method: Vibrating tube method
Temperature, K	Mole fraction of exo-tetrahydrodicyclopentadiene	Mass density, kg/m3	uncertainty
293.15	0	802.11	0.49
293.15	0.1002	814.95	0.5
293.15	0.1999	827.83	0.51
293.15	0.3001	840.92	0.52
293.15	0.4	854.1	0.53
293.15	0.5	867.42	0.55
293.15	0.5999	880.87	0.57
293.15	0.7001	894.45	0.59
293.15	0.8003	908.22	0.62
293.15	0.8999	921.93	0.65
293.15	1	935.85	0.7
298.15	0	798.22	0.49
298.15	0.1002	811.06	0.5
298.15	0.1999	823.93	0.51
298.15	0.3001	837.01	0.52
298.15	0.4	850.19	0.53
298.15	0.5	863.5	0.55
298.15	0.5999	876.95	0.57
298.15	0.7001	890.54	0.59
298.15	0.8003	904.31	0.62
298.15	0.8999	918.04	0.65
298.15	1	931.95	0.69
303.15	0	794.32	0.49
303.15	0.1002	807.15	0.5
303.15	0.1999	820.02	0.51
303.15	0.3001	833.09	0.52
303.15	0.4	846.27	0.53
303.15	0.5	859.59	0.55
303.15	0.5999	873.03	0.56
303.15	0.7001	886.63	0.59
303.15	0.8003	900.41	0.61
303.15	0.8999	914.14	0.65
303.15	1	928.06	0.69
308.15	0	790.41	0.49
308.15	0.1002	803.23	0.5
308.15	0.1999	816.1	0.5
308.15	0.3001	829.18	0.52
308.15	0.4	842.35	0.53
308.15	0.5	855.67	0.54
308.15	0.5999	869.11	0.56
308.15	0.7001	882.71	0.58
308.15	0.8003	896.5	0.61
308.15	0.8999	910.24	0.65
308.15	1	924.17	0.69
313.15	0	786.5	0.48
313.15	0.1002	799.31	0.49
313.15	0.1999	812.17	0.5
313.15	0.3001	825.24	0.51
313.15	0.4	838.42	0.53
313.15	0.5	851.74	0.54
313.15	0.5999	865.17	0.56
313.15	0.7001	878.78	0.58
313.15	0.8003	892.57	0.61
313.15	0.8999	906.31	0.64
313.15	1	920.26	0.68
318.15	0	782.57	0.48
318.15	0.1002	795.38	0.49
318.15	0.1999	808.23	0.5
318.15	0.3001	821.3	0.51
318.15	0.4	834.47	0.52
318.15	0.5	847.79	0.54
318.15	0.5999	861.23	0.56
318.15	0.7001	874.84	0.58
318.15	0.8003	888.63	0.61
318.15	0.8999	902.38	0.64
318.15	1	916.33	0.68
323.15	0	778.64	0.48
323.15	0.1002	791.44	0.49
323.15	0.1999	804.29	0.5
323.15	0.3001	817.35	0.51
323.15	0.4	830.52	0.52
323.15	0.5	843.84	0.54
323.15	0.5999	857.28	0.56
323.15	0.7001	870.89	0.58
323.15	0.8003	884.68	0.6
323.15	0.8999	898.44	0.64
323.15	1	912.4	0.68
328.15	0	774.69	0.48
328.15	0.1002	787.49	0.49
328.15	0.1999	800.33	0.5
328.15	0.3001	813.39	0.51
328.15	0.4	826.56	0.52
328.15	0.5	839.88	0.54
328.15	0.5999	853.32	0.55
328.15	0.7001	866.93	0.58
328.15	0.8003	880.73	0.6
328.15	0.8999	894.5	0.64
328.15	1	908.46	0.68
333.15	0	770.73	0.48
333.15	0.1002	783.53	0.49
333.15	0.1999	796.37	0.49
333.15	0.3001	809.42	0.51
333.15	0.4	822.59	0.52
333.15	0.5	835.91	0.53
333.15	0.5999	849.35	0.55
333.15	0.7001	862.97	0.57
333.15	0.8003	876.77	0.6
333.15	0.8999	890.54	0.63
333.15	1	904.52	0.67
338.15	0	766.76	0.47
338.15	0.1002	779.55	0.48
338.15	0.1999	792.39	0.49
338.15	0.3001	805.45	0.5
338.15	0.4	818.61	0.52
338.15	0.5	831.93	0.53
338.15	0.5999	845.37	0.55
338.15	0.7001	858.99	0.57
338.15	0.8003	872.8	0.6
338.15	0.8999	886.58	0.63
338.15	1	900.56	0.67
343.15	0	762.78	0.47
343.15	0.1002	775.57	0.48
343.15	0.1999	788.4	0.49
343.15	0.3001	801.45	0.5
343.15	0.4	814.62	0.51
343.15	0.5	827.94	0.53
343.15	0.5999	841.39	0.55
343.15	0.7001	855.01	0.57
343.15	0.8003	868.82	0.6
343.15	0.8999	882.61	0.63
343.15	1	896.61	0.67

System: exo-tetrahydrodicyclopentadiene + (1-methylethyl)cyclohexane; phases: Liquid
Fixed: Pressure, kPa = 100
Property: Viscosity, Pa*s (Liquid); method: Falling or rolling sphere viscometry
Temperature, K	Mole fraction of exo-tetrahydrodicyclopentadiene	Viscosity, Pa*s	uncertainty
293.15	0	0.001098	2.3e-05
293.15	0.1002	0.001194	2.5e-05
293.15	0.1999	0.001305	2.8e-05
293.15	0.3001	0.001431	3.1e-05
293.15	0.4	0.001578	3.4e-05
293.15	0.5	0.001741	3.8e-05
293.15	0.5999	0.001938	4.2e-05
293.15	0.7001	0.002165	4.8e-05
293.15	0.8003	0.002421	5.4e-05
293.15	0.8999	0.002706	6e-05
293.15	1	0.002994	6.7e-05
298.15	0	0.00102	2.2e-05
298.15	0.1002	0.001106	2.4e-05
298.15	0.1999	0.001206	2.6e-05
298.15	0.3001	0.00132	2.8e-05
298.15	0.4	0.001451	3.1e-05
298.15	0.5	0.001597	3.5e-05
298.15	0.5999	0.001775	3.9e-05
298.15	0.7001	0.001976	4.3e-05
298.15	0.8003	0.002205	4.9e-05
298.15	0.8999	0.002456	5.5e-05
298.15	1	0.002712	6.1e-05
303.15	0	0.00095	2e-05
303.15	0.1002	0.001029	2.2e-05
303.15	0.1999	0.001119	2.4e-05
303.15	0.3001	0.001222	2.6e-05
303.15	0.4	0.00134	2.9e-05
303.15	0.5	0.001471	3.2e-05
303.15	0.5999	0.001631	3.6e-05
303.15	0.7001	0.001812	4e-05
303.15	0.8003	0.002016	4.5e-05
303.15	0.8999	0.002241	5e-05
303.15	1	0.00247	5.6e-05
308.15	0	0.000889	1.9e-05
308.15	0.1002	0.00096	2e-05
308.15	0.1999	0.001042	2.2e-05
308.15	0.3001	0.001135	2.4e-05
308.15	0.4	0.001242	2.7e-05
308.15	0.5	0.001361	2.9e-05
308.15	0.5999	0.001506	3.3e-05
308.15	0.7001	0.00167	3.7e-05
308.15	0.8003	0.001853	4.1e-05
308.15	0.8999	0.002055	4.6e-05
308.15	1	0.002259	5.1e-05
313.15	0	0.000833	1.8e-05
313.15	0.1002	0.000898	1.9e-05
313.15	0.1999	0.000973	2.1e-05
313.15	0.3001	0.001058	2.3e-05
313.15	0.4	0.001156	2.5e-05
313.15	0.5	0.001265	2.7e-05
313.15	0.5999	0.001397	3e-05
313.15	0.7001	0.001543	3.4e-05
313.15	0.8003	0.001709	3.8e-05
313.15	0.8999	0.001891	4.2e-05
313.15	1	0.002073	4.7e-05
318.15	0	0.000783	1.7e-05
318.15	0.1002	0.000842	1.8e-05
318.15	0.1999	0.000911	1.9e-05
318.15	0.3001	0.000989	2.1e-05
318.15	0.4	0.001078	2.3e-05
318.15	0.5	0.001178	2.6e-05
318.15	0.5999	0.001298	2.8e-05
318.15	0.7001	0.001431	3.1e-05
318.15	0.8003	0.001581	3.5e-05
318.15	0.8999	0.001746	3.9e-05
318.15	1	0.001909	4.3e-05
323.15	0	0.000738	1.6e-05
323.15	0.1002	0.000793	1.7e-05
323.15	0.1999	0.000855	1.8e-05
323.15	0.3001	0.000927	2e-05
323.15	0.4	0.001009	2.2e-05
323.15	0.5	0.0011	2.4e-05
323.15	0.5999	0.00121	2.6e-05
323.15	0.7001	0.001331	2.9e-05
323.15	0.8003	0.001467	3.2e-05
323.15	0.8999	0.001616	3.6e-05
323.15	1	0.001764	4e-05
328.15	0	0.000697	1.5e-05
328.15	0.1002	0.000748	1.6e-05
328.15	0.1999	0.000805	1.7e-05
328.15	0.3001	0.000872	1.9e-05
328.15	0.4	0.000946	2e-05
328.15	0.5	0.001029	2.2e-05
328.15	0.5999	0.001131	2.5e-05
328.15	0.7001	0.001242	2.7e-05
328.15	0.8003	0.001367	3e-05
328.15	0.8999	0.001503	3.4e-05
328.15	1	0.001635	3.7e-05
333.15	0	0.00066	1.4e-05
333.15	0.1002	0.000708	1.5e-05
333.15	0.1999	0.00076	1.6e-05
333.15	0.3001	0.000821	1.8e-05
333.15	0.4	0.000889	1.9e-05
333.15	0.5	0.000966	2.1e-05
333.15	0.5999	0.00106	2.3e-05
333.15	0.7001	0.001161	2.5e-05
333.15	0.8003	0.001275	2.8e-05
333.15	0.8999	0.001402	3.1e-05
333.15	1	0.001519	3.4e-05
338.15	0	0.000626	1.3e-05
338.15	0.1002	0.00067	1.4e-05
338.15	0.1999	0.000719	1.5e-05
338.15	0.3001	0.000775	1.7e-05
338.15	0.4	0.000838	1.8e-05
338.15	0.5	0.000909	2e-05
338.15	0.5999	0.000995	2.2e-05
338.15	0.7001	0.001088	2.4e-05
338.15	0.8003	0.001193	2.6e-05
338.15	0.8999	0.001309	2.9e-05
338.15	1	0.001416	3.2e-05
343.15	0	0.000596	1.3e-05
343.15	0.1002	0.000636	1.4e-05
343.15	0.1999	0.000681	1.5e-05
343.15	0.3001	0.000733	1.6e-05
343.15	0.4	0.000791	1.7e-05
343.15	0.5	0.000856	1.9e-05
343.15	0.5999	0.000936	2e-05
343.15	0.7001	0.001022	2.2e-05
343.15	0.8003	0.001119	2.5e-05
343.15	0.8999	0.001225	2.7e-05
343.15	1	0.001322	3e-05

System: exo-tetrahydrodicyclopentadiene + methyl dodecanoate; phases: Liquid
Fixed: Pressure, kPa = 100
Property: Mass density, kg/m3 (Liquid); method: Vibrating tube method
Temperature, K	Mole fraction of exo-tetrahydrodicyclopentadiene	Mass density, kg/m3	uncertainty
293.15	0	869.22	0.53
293.15	0.1012	872.98	0.53
293.15	0.2004	877.03	0.54
293.15	0.3001	881.55	0.54
293.15	0.4004	886.65	0.55
293.15	0.5021	892.47	0.56
293.15	0.6003	898.83	0.58
293.15	0.7003	906.19	0.6
293.15	0.8001	914.62	0.62
293.15	0.8991	924.33	0.65
293.15	1	935.85	0.7
298.15	0	865.3	0.53
298.15	0.1012	869.06	0.53
298.15	0.2004	873.11	0.53
298.15	0.3001	877.64	0.54
298.15	0.4004	882.73	0.55
298.15	0.5021	888.55	0.56
298.15	0.6003	894.91	0.58
298.15	0.7003	902.27	0.59
298.15	0.8001	910.7	0.62
298.15	0.8991	920.41	0.65
298.15	1	931.95	0.69
303.15	0	861.37	0.52
303.15	0.1012	865.13	0.53
303.15	0.2004	869.19	0.53
303.15	0.3001	873.72	0.54
303.15	0.4004	878.82	0.55
303.15	0.5021	884.64	0.56
303.15	0.6003	890.99	0.57
303.15	0.7003	898.35	0.59
303.15	0.8001	906.78	0.62
303.15	0.8991	916.49	0.65
303.15	1	928.06	0.69
308.15	0	857.44	0.52
308.15	0.1012	861.2	0.53
308.15	0.2004	865.27	0.53
308.15	0.3001	869.8	0.54
308.15	0.4004	874.9	0.54
308.15	0.5021	880.72	0.56
308.15	0.6003	887.07	0.57
308.15	0.7003	894.42	0.59
308.15	0.8001	902.85	0.62
308.15	0.8991	912.57	0.65
308.15	1	924.17	0.69
313.15	0	853.51	0.52
313.15	0.1012	857.27	0.52
313.15	0.2004	861.34	0.53
313.15	0.3001	865.87	0.53
313.15	0.4004	870.97	0.54
313.15	0.5021	876.79	0.55
313.15	0.6003	883.14	0.57
313.15	0.7003	890.49	0.59
313.15	0.8001	898.92	0.61
313.15	0.8991	908.64	0.64
313.15	1	920.26	0.68
318.15	0	849.58	0.52
318.15	0.1012	853.34	0.52
318.15	0.2004	857.41	0.53
318.15	0.3001	861.95	0.53
318.15	0.4004	867.05	0.54
318.15	0.5021	872.86	0.55
318.15	0.6003	879.21	0.57
318.15	0.7003	886.56	0.59
318.15	0.8001	894.99	0.61
318.15	0.8991	904.7	0.64
318.15	1	916.33	0.68
323.15	0	845.65	0.52
323.15	0.1012	849.41	0.52
323.15	0.2004	853.48	0.52
323.15	0.3001	858.02	0.53
323.15	0.4004	863.12	0.54
323.15	0.5021	868.93	0.55
323.15	0.6003	875.27	0.56
323.15	0.7003	882.62	0.58
323.15	0.8001	891.05	0.61
323.15	0.8991	900.76	0.64
323.15	1	912.4	0.68
328.15	0	841.72	0.51
328.15	0.1012	845.48	0.52
328.15	0.2004	849.54	0.52
328.15	0.3001	854.09	0.53
328.15	0.4004	859.18	0.54
328.15	0.5021	864.99	0.55
328.15	0.6003	871.33	0.56
328.15	0.7003	878.67	0.58
328.15	0.8001	887.1	0.61
328.15	0.8991	896.82	0.64
328.15	1	908.46	0.68
333.15	0	837.78	0.51
333.15	0.1012	841.52	0.51
333.15	0.2004	845.61	0.52
333.15	0.3001	850.15	0.53
333.15	0.4004	855.24	0.53
333.15	0.5021	861.05	0.55
333.15	0.6003	867.38	0.56
333.15	0.7003	874.72	0.58
333.15	0.8001	883.15	0.6
333.15	0.8991	892.87	0.63
333.15	1	904.52	0.67
338.15	0	833.84	0.51
338.15	0.1012	837.61	0.51
338.15	0.2004	841.66	0.52
338.15	0.3001	846.21	0.52
338.15	0.4004	851.3	0.53
338.15	0.5021	857.1	0.54
338.15	0.6003	863.43	0.56
338.15	0.7003	870.77	0.58
338.15	0.8001	879.19	0.6
338.15	0.8991	888.91	0.63
338.15	1	900.56	0.67
343.15	0	829.9	0.51
343.15	0.1012	833.67	0.51
343.15	0.2004	837.72	0.52
343.15	0.3001	842.26	0.52
343.15	0.4004	847.35	0.53
343.15	0.5021	853.15	0.54
343.15	0.6003	859.48	0.56
343.15	0.7003	866.81	0.57
343.15	0.8001	875.23	0.6
343.15	0.8991	884.94	0.63
343.15	1	896.61	0.67

System: exo-tetrahydrodicyclopentadiene + methyl dodecanoate; phases: Liquid
Fixed: Pressure, kPa = 100
Property: Viscosity, Pa*s (Liquid); method: Falling or rolling sphere viscometry
Temperature, K	Mole fraction of exo-tetrahydrodicyclopentadiene	Viscosity, Pa*s	uncertainty
293.15	0	0.00312	6.6e-05
293.15	0.1012	0.003062	6.5e-05
293.15	0.2004	0.003012	6.4e-05
293.15	0.3001	0.002973	6.4e-05
293.15	0.4004	0.002927	6.3e-05
293.15	0.5021	0.002896	6.3e-05
293.15	0.6003	0.002874	6.3e-05
293.15	0.7003	0.002864	6.3e-05
293.15	0.8001	0.002877	6.4e-05
293.15	0.8991	0.002909	6.5e-05
293.15	1	0.002994	6.7e-05
298.15	0	0.002778	5.9e-05
298.15	0.1012	0.00273	5.8e-05
298.15	0.2004	0.00269	5.7e-05
298.15	0.3001	0.002659	5.7e-05
298.15	0.4004	0.002625	5.7e-05
298.15	0.5021	0.002599	5.6e-05
298.15	0.6003	0.002585	5.6e-05
298.15	0.7003	0.00258	5.7e-05
298.15	0.8001	0.002595	5.7e-05
298.15	0.8991	0.002628	5.9e-05
298.15	1	0.002712	6.1e-05
303.15	0	0.002491	5.3e-05
303.15	0.1012	0.002454	5.2e-05
303.15	0.2004	0.002419	5.2e-05
303.15	0.3001	0.002397	5.1e-05
303.15	0.4004	0.002369	5.1e-05
303.15	0.5021	0.002349	5.1e-05
303.15	0.6003	0.002339	5.1e-05
303.15	0.7003	0.002338	5.1e-05
303.15	0.8001	0.002356	5.2e-05
303.15	0.8991	0.002388	5.3e-05
303.15	1	0.00247	5.6e-05
308.15	0	0.00225	4.8e-05
308.15	0.1012	0.002218	4.7e-05
308.15	0.2004	0.002191	4.7e-05
308.15	0.3001	0.002173	4.7e-05
308.15	0.4004	0.002152	4.6e-05
308.15	0.5021	0.002134	4.6e-05
308.15	0.6003	0.002129	4.6e-05
308.15	0.7003	0.00213	4.7e-05
308.15	0.8001	0.002149	4.8e-05
308.15	0.8991	0.002183	4.9e-05
308.15	1	0.002259	5.1e-05
313.15	0	0.002044	4.3e-05
313.15	0.1012	0.002018	4.3e-05
313.15	0.2004	0.001994	4.3e-05
313.15	0.3001	0.00198	4.2e-05
313.15	0.4004	0.001963	4.2e-05
313.15	0.5021	0.001951	4.2e-05
313.15	0.6003	0.001946	4.2e-05
313.15	0.7003	0.001949	4.3e-05
313.15	0.8001	0.001969	4.4e-05
313.15	0.8991	0.002001	4.5e-05
313.15	1	0.002073	4.7e-05
318.15	0	0.001866	4e-05
318.15	0.1012	0.001844	3.9e-05
318.15	0.2004	0.001824	3.9e-05
318.15	0.3001	0.001813	3.9e-05
318.15	0.4004	0.001799	3.9e-05
318.15	0.5021	0.001789	3.9e-05
318.15	0.6003	0.001787	3.9e-05
318.15	0.7003	0.001791	3.9e-05
318.15	0.8001	0.001811	4e-05
318.15	0.8991	0.001841	4.1e-05
318.15	1	0.001909	4.3e-05
323.15	0	0.001712	3.6e-05
323.15	0.1012	0.001693	3.6e-05
323.15	0.2004	0.001676	3.6e-05
323.15	0.3001	0.001668	3.6e-05
323.15	0.4004	0.001656	3.6e-05
323.15	0.5021	0.001647	3.6e-05
323.15	0.6003	0.001647	3.6e-05
323.15	0.7003	0.001652	3.6e-05
323.15	0.8001	0.001672	3.7e-05
323.15	0.8991	0.001702	3.8e-05
323.15	1	0.001764	4e-05
328.15	0	0.001577	3.4e-05
328.15	0.1012	0.001561	3.3e-05
328.15	0.2004	0.001546	3.3e-05
328.15	0.3001	0.001539	3.3e-05
328.15	0.4004	0.001531	3.3e-05
328.15	0.5021	0.001523	3.3e-05
328.15	0.6003	0.001524	3.3e-05
328.15	0.7003	0.00153	3.4e-05
328.15	0.8001	0.001548	3.4e-05
328.15	0.8991	0.001577	3.5e-05
328.15	1	0.001635	3.7e-05
333.15	0	0.001458	3.1e-05
333.15	0.1012	0.001444	3.1e-05
333.15	0.2004	0.001432	3.1e-05
333.15	0.3001	0.001427	3.1e-05
333.15	0.4004	0.001419	3.1e-05
333.15	0.5021	0.001412	3.1e-05
333.15	0.6003	0.001414	3.1e-05
333.15	0.7003	0.00142	3.1e-05
333.15	0.8001	0.001438	3.2e-05
333.15	0.8991	0.001466	3.3e-05
333.15	1	0.001519	3.4e-05
338.15	0	0.001353	2.9e-05
338.15	0.1012	0.001341	2.9e-05
338.15	0.2004	0.00133	2.8e-05
338.15	0.3001	0.001326	2.8e-05
338.15	0.4004	0.001319	2.8e-05
338.15	0.5021	0.001314	2.8e-05
338.15	0.6003	0.001317	2.9e-05
338.15	0.7003	0.001323	2.9e-05
338.15	0.8001	0.00134	3e-05
338.15	0.8991	0.001367	3.1e-05
338.15	1	0.001416	3.2e-05
343.15	0	0.00126	2.7e-05
343.15	0.1012	0.001249	2.7e-05
343.15	0.2004	0.001239	2.6e-05
343.15	0.3001	0.001236	2.7e-05
343.15	0.4004	0.001231	2.7e-05
343.15	0.5021	0.001226	2.7e-05
343.15	0.6003	0.001229	2.7e-05
343.15	0.7003	0.001235	2.7e-05
343.15	0.8001	0.001252	2.8e-05
343.15	0.8991	0.001276	2.8e-05
343.15	1	0.001322	3e-05

System: (1-methylethyl)cyclohexane + methyl dodecanoate; phases: Liquid
Fixed: Pressure, kPa = 100
Property: Mass density, kg/m3 (Liquid); method: Vibrating tube method
Temperature, K	Mole fraction of (1-methylethyl)cyclohexane	Mass density, kg/m3	uncertainty
293.15	0	869.22	0.53
293.15	0.1008	864.42	0.53
293.15	0.2004	859.35	0.52
293.15	0.3006	853.91	0.52
293.15	0.4002	848.11	0.52
293.15	0.5004	841.82	0.51
293.15	0.6003	835.05	0.51
293.15	0.7001	827.73	0.51
293.15	0.8	819.83	0.5
293.15	0.9001	811.28	0.5
293.15	1	802.11	0.49
298.15	0	865.3	0.53
298.15	0.1008	860.5	0.52
298.15	0.2004	855.45	0.52
298.15	0.3006	850.02	0.52
298.15	0.4002	844.23	0.51
298.15	0.5004	837.95	0.51
298.15	0.6003	831.18	0.51
298.15	0.7001	823.86	0.5
298.15	0.8	815.96	0.5
298.15	0.9001	807.4	0.5
298.15	1	798.224	0.491
303.15	0	861.37	0.52
303.15	0.1008	856.59	0.52
303.15	0.2004	851.55	0.52
303.15	0.3006	846.13	0.52
303.15	0.4002	840.33	0.51
303.15	0.5004	834.06	0.51
303.15	0.6003	827.3	0.51
303.15	0.7001	819.98	0.5
303.15	0.8	812.08	0.5
303.15	0.9001	803.52	0.49
303.15	1	794.323	0.489
308.15	0	857.44	0.52
308.15	0.1008	852.67	0.52
308.15	0.2004	847.64	0.52
308.15	0.3006	842.23	0.51
308.15	0.4002	836.44	0.51
308.15	0.5004	830.17	0.51
308.15	0.6003	823.41	0.5
308.15	0.7001	816.09	0.5
308.15	0.8	808.19	0.5
308.15	0.9001	799.62	0.49
308.15	1	790.414	0.487
313.15	0	853.51	0.52
313.15	0.1008	848.76	0.52
313.15	0.2004	843.73	0.51
313.15	0.3006	838.33	0.51
313.15	0.4002	832.54	0.51
313.15	0.5004	826.28	0.51
313.15	0.6003	819.52	0.5
313.15	0.7001	812.2	0.5
313.15	0.8	804.29	0.49
313.15	0.9001	795.72	0.49
313.15	1	786.498	0.485
318.15	0	849.58	0.52
318.15	0.1008	844.84	0.51
318.15	0.2004	839.82	0.51
318.15	0.3006	834.42	0.51
318.15	0.4002	828.63	0.51
318.15	0.5004	822.38	0.5
318.15	0.6003	815.62	0.5
318.15	0.7001	808.3	0.5
318.15	0.8	800.39	0.49
318.15	0.9001	791.81	0.49
318.15	1	782.571	0.483
323.15	0	845.65	0.52
323.15	0.1008	840.91	0.51
323.15	0.2004	835.9	0.51
323.15	0.3006	830.51	0.51
323.15	0.4002	824.72	0.5
323.15	0.5004	818.48	0.5
323.15	0.6003	811.72	0.5
323.15	0.7001	804.39	0.49
323.15	0.8	796.47	0.49
323.15	0.9001	787.89	0.49
323.15	1	778.635	0.481
328.15	0	841.72	0.51
328.15	0.1008	836.99	0.51
328.15	0.2004	831.98	0.51
328.15	0.3006	826.59	0.51
328.15	0.4002	820.81	0.5
328.15	0.5004	814.56	0.5
328.15	0.6003	807.8	0.5
328.15	0.7001	800.48	0.49
328.15	0.8	792.55	0.49
328.15	0.9001	783.95	0.48
328.15	1	774.689	0.479
333.15	0	837.78	0.51
333.15	0.1008	833.06	0.51
333.15	0.2004	828.06	0.51
333.15	0.3006	822.67	0.5
333.15	0.4002	816.89	0.5
333.15	0.5004	810.64	0.5
333.15	0.6003	803.88	0.49
333.15	0.7001	796.55	0.49
333.15	0.8	788.62	0.49
333.15	0.9001	780.01	0.48
333.15	1	770.731	0.477
338.15	0	833.84	0.51
338.15	0.1008	829.13	0.51
338.15	0.2004	824.13	0.5
338.15	0.3006	818.74	0.5
338.15	0.4002	812.96	0.5
338.15	0.5004	806.71	0.5
338.15	0.6003	799.95	0.49
338.15	0.7001	792.62	0.49
338.15	0.8	784.68	0.48
338.15	0.9001	776.06	0.48
338.15	1	766.76	0.47
343.15	0	829.9	0.51
343.15	0.1008	825.19	0.5
343.15	0.2004	820.19	0.5
343.15	0.3006	814.81	0.5
343.15	0.4002	809.03	0.5
343.15	0.5004	802.78	0.49
343.15	0.6003	796.01	0.49
343.15	0.7001	788.67	0.49
343.15	0.8	780.73	0.48
343.15	0.9001	772.09	0.48
343.15	1	762.777	0.473

System: (1-methylethyl)cyclohexane + methyl dodecanoate; phases: Liquid
Fixed: Pressure, kPa = 100
Property: Viscosity, Pa*s (Liquid); method: Falling or rolling sphere viscometry
Temperature, K	Mole fraction of (1-methylethyl)cyclohexane	Viscosity, Pa*s	uncertainty
293.15	0	0.00312	6.6e-05
293.15	0.1008	0.002862	6.1e-05
293.15	0.2004	0.002608	5.5e-05
293.15	0.3006	0.002365	5e-05
293.15	0.4002	0.002139	4.5e-05
293.15	0.5004	0.00193	4.1e-05
293.15	0.6003	0.001728	3.7e-05
293.15	0.7001	0.001546	3.3e-05
293.15	0.8	0.001378	2.9e-05
293.15	0.9001	0.001229	2.6e-05
293.15	1	0.001098	2.3e-05
298.15	0	0.002778	5.9e-05
298.15	0.1008	0.002558	5.4e-05
298.15	0.2004	0.002342	5e-05
298.15	0.3006	0.002133	4.5e-05
298.15	0.4002	0.001937	4.1e-05
298.15	0.5004	0.001756	3.7e-05
298.15	0.6003	0.001579	3.4e-05
298.15	0.7001	0.001419	3e-05
298.15	0.8	0.001271	2.7e-05
298.15	0.9001	0.001137	2.4e-05
298.15	1	0.00102	2.2e-05
303.15	0	0.002491	5.3e-05
303.15	0.1008	0.002303	4.9e-05
303.15	0.2004	0.002117	4.5e-05
303.15	0.3006	0.001936	4.1e-05
303.15	0.4002	0.001765	3.8e-05
303.15	0.5004	0.001606	3.4e-05
303.15	0.6003	0.00145	3.1e-05
303.15	0.7001	0.001308	2.8e-05
303.15	0.8	0.001176	2.5e-05
303.15	0.9001	0.001056	2.2e-05
303.15	1	0.00095	2e-05
308.15	0	0.00225	4.8e-05
308.15	0.1008	0.002088	4.4e-05
308.15	0.2004	0.001926	4.1e-05
308.15	0.3006	0.001768	3.8e-05
308.15	0.4002	0.001617	3.4e-05
308.15	0.5004	0.001476	3.1e-05
308.15	0.6003	0.001338	2.8e-05
308.15	0.7001	0.001211	2.6e-05
308.15	0.8	0.001093	2.3e-05
308.15	0.9001	0.000984	2.1e-05
308.15	1	0.000889	1.9e-05
313.15	0	0.002044	4.3e-05
313.15	0.1008	0.001904	4e-05
313.15	0.2004	0.001759	3.7e-05
313.15	0.3006	0.001621	3.4e-05
313.15	0.4002	0.001488	3.2e-05
313.15	0.5004	0.001363	2.9e-05
313.15	0.6003	0.001239	2.6e-05
313.15	0.7001	0.001126	2.4e-05
313.15	0.8	0.001018	2.2e-05
313.15	0.9001	0.00092	2e-05
313.15	1	0.000833	1.8e-05
318.15	0	0.001866	4e-05
318.15	0.1008	0.001743	3.7e-05
318.15	0.2004	0.001616	3.4e-05
318.15	0.3006	0.001493	3.2e-05
318.15	0.4002	0.001375	2.9e-05
318.15	0.5004	0.001262	2.7e-05
318.15	0.6003	0.001152	2.4e-05
318.15	0.7001	0.00105	2.2e-05
318.15	0.8	0.000952	2e-05
318.15	0.9001	0.000863	1.8e-05
318.15	1	0.000783	1.7e-05
323.15	0	0.001712	3.6e-05
323.15	0.1008	0.001602	3.4e-05
323.15	0.2004	0.00149	3.2e-05
323.15	0.3006	0.00138	2.9e-05
323.15	0.4002	0.001274	2.7e-05
323.15	0.5004	0.001174	2.5e-05
323.15	0.6003	0.001074	2.3e-05
323.15	0.7001	0.000981	2.1e-05
323.15	0.8	0.000893	1.9e-05
323.15	0.9001	0.000812	1.7e-05
323.15	1	0.000738	1.6e-05
328.15	0	0.001577	3.4e-05
328.15	0.1008	0.001479	3.1e-05
328.15	0.2004	0.001379	2.9e-05
328.15	0.3006	0.001281	2.7e-05
328.15	0.4002	0.001185	2.5e-05
328.15	0.5004	0.001094	2.3e-05
328.15	0.6003	0.001004	2.1e-05
328.15	0.7001	0.00092	2e-05
328.15	0.8	0.00084	1.8e-05
328.15	0.9001	0.000765	1.6e-05
328.15	1	0.000697	1.5e-05
333.15	0	0.001458	3.1e-05
333.15	0.1008	0.001371	2.9e-05
333.15	0.2004	0.001281	2.7e-05
333.15	0.3006	0.001193	2.5e-05
333.15	0.4002	0.001106	2.4e-05
333.15	0.5004	0.001024	2.2e-05
333.15	0.6003	0.000941	2e-05
333.15	0.7001	0.000865	1.8e-05
333.15	0.8	0.000791	1.7e-05
333.15	0.9001	0.000723	1.5e-05
333.15	1	0.00066	1.4e-05
338.15	0	0.001353	2.9e-05
338.15	0.1008	0.001276	2.7e-05
338.15	0.2004	0.001193	2.5e-05
338.15	0.3006	0.001113	2.4e-05
338.15	0.4002	0.001035	2.2e-05
338.15	0.5004	0.00096	2e-05
338.15	0.6003	0.000885	1.9e-05
338.15	0.7001	0.000815	1.7e-05
338.15	0.8	0.000747	1.6e-05
338.15	0.9001	0.000685	1.5e-05
338.15	1	0.000626	1.3e-05
343.15	0	0.00126	2.7e-05
343.15	0.1008	0.001189	2.5e-05
343.15	0.2004	0.001115	2.4e-05
343.15	0.3006	0.001042	2.2e-05
343.15	0.4002	0.000971	2.1e-05
343.15	0.5004	0.000902	1.9e-05
343.15	0.6003	0.000833	1.8e-05
343.15	0.7001	0.000769	1.6e-05
343.15	0.8	0.000707	1.5e-05
343.15	0.9001	0.00065	1.4e-05
343.15	1	0.000596	1.3e-05

System: exo-tetrahydrodicyclopentadiene + (1-methylethyl)cyclohexane + methyl dodecanoate; phases: Liquid
Fixed: Pressure, kPa = 100
Property: Mass density, kg/m3 (Liquid); method: Vibrating tube method
Temperature, K	Mole fraction of exo-tetrahydrodicyclopentadiene	Mole fraction of (1-methylethyl)cyclohexane	Mass density, kg/m3	uncertainty
293.15	0.1003	0.0999	868.18	0.53
293.15	0.1004	0.2001	863.1	0.53
293.15	0.1007	0.2998	857.73	0.52
293.15	0.1014	0.3993	851.91	0.52
293.15	0.1008	0.4995	845.55	0.52
293.15	0.1014	0.5992	838.77	0.51
293.15	0.0999	0.6998	831.32	0.51
293.15	0.1001	0.8001	823.39	0.51
293.15	0.1999	0.1006	872.26	0.53
293.15	0.2004	0.1998	867.24	0.53
293.15	0.2064	0.2982	862.2	0.53
293.15	0.2008	0.4001	855.97	0.53
293.15	0.2005	0.4996	849.71	0.52
293.15	0.2004	0.5997	842.94	0.52
293.15	0.2008	0.699	835.73	0.51
293.15	0.3005	0.1002	876.87	0.54
293.15	0.3002	0.2	871.88	0.54
293.15	0.3002	0.3002	866.57	0.53
293.15	0.2999	0.4003	860.78	0.53
293.15	0.2996	0.5003	854.57	0.53
293.15	0.2988	0.6017	847.98	0.52
293.15	0.3997	0.1004	882.05	0.55
293.15	0.3996	0.201	877.16	0.55
293.15	0.4003	0.3002	872	0.54
293.15	0.3998	0.3994	866.59	0.54
293.15	0.4	0.5003	860.54	0.54
293.15	0.4998	0.1	887.93	0.56
293.15	0.4997	0.2007	883.2	0.56
293.15	0.5001	0.3005	878.24	0.55
293.15	0.4996	0.4007	872.9	0.55
293.15	0.5991	0.1005	894.57	0.57
293.15	0.5996	0.2003	890.21	0.57
293.15	0.6017	0.2985	885.86	0.57
293.15	0.6943	0.0992	901.92	0.59
293.15	0.6993	0.2008	898.35	0.59
293.15	0.7989	0.1004	911.24	0.62
298.15	0.1003	0.0999	864.28	0.53
298.15	0.1004	0.2001	859.21	0.52
298.15	0.1007	0.2998	853.84	0.52
298.15	0.1014	0.3993	848.03	0.52
298.15	0.1008	0.4995	841.67	0.52
298.15	0.1014	0.5992	834.89	0.51
298.15	0.0999	0.6998	827.45	0.51
298.15	0.1001	0.8001	819.51	0.5
298.15	0.1999	0.1006	868.35	0.53
298.15	0.2004	0.1998	863.34	0.53
298.15	0.2064	0.2982	858.31	0.53
298.15	0.2008	0.4001	852.09	0.52
298.15	0.2005	0.4996	845.82	0.52
298.15	0.2004	0.5997	839.06	0.52
298.15	0.2008	0.699	831.84	0.51
298.15	0.3005	0.1002	872.97	0.54
298.15	0.3002	0.2	867.98	0.54
298.15	0.3002	0.3002	862.67	0.53
298.15	0.2999	0.4003	856.89	0.53
298.15	0.2996	0.5003	850.68	0.53
298.15	0.2988	0.6017	844.08	0.52
298.15	0.3997	0.1004	878.14	0.55
298.15	0.3996	0.201	873.26	0.54
298.15	0.4003	0.3002	868.1	0.54
298.15	0.3998	0.3994	862.69	0.54
298.15	0.4	0.5003	856.64	0.54
298.15	0.4998	0.1	884.02	0.56
298.15	0.4997	0.2007	879.3	0.56
298.15	0.5001	0.3005	874.34	0.55
298.15	0.4996	0.4007	869	0.55
298.15	0.5991	0.1005	890.65	0.57
298.15	0.5996	0.2003	886.31	0.57
298.15	0.6017	0.2985	881.95	0.57
298.15	0.6943	0.0992	898.01	0.59
298.15	0.6993	0.2008	894.44	0.59
298.15	0.7989	0.1004	907.33	0.62
303.15	0.1003	0.0999	860.36	0.52
303.15	0.1004	0.2001	855.3	0.52
303.15	0.1007	0.2998	849.95	0.52
303.15	0.1014	0.3993	844.14	0.52
303.15	0.1008	0.4995	837.78	0.51
303.15	0.1014	0.5992	831	0.51
303.15	0.0999	0.6998	823.56	0.51
303.15	0.1001	0.8001	815.62	0.5
303.15	0.1999	0.1006	864.44	0.53
303.15	0.2004	0.1998	859.44	0.53
303.15	0.2064	0.2982	854.42	0.52
303.15	0.2008	0.4001	848.2	0.52
303.15	0.2005	0.4996	841.93	0.52
303.15	0.2004	0.5997	835.17	0.51
303.15	0.2008	0.699	827.93	0.51
303.15	0.3005	0.1002	869.06	0.54
303.15	0.3002	0.2	864.08	0.53
303.15	0.3002	0.3002	858.78	0.53
303.15	0.2999	0.4003	853	0.53
303.15	0.2996	0.5003	846.78	0.52
303.15	0.2988	0.6017	840.18	0.52
303.15	0.3997	0.1004	874.24	0.54
303.15	0.3996	0.201	869.36	0.54
303.15	0.4003	0.3002	864.2	0.54
303.15	0.3998	0.3994	858.79	0.54
303.15	0.4	0.5003	852.73	0.53
303.15	0.4998	0.1	880.11	0.56
303.15	0.4997	0.2007	875.39	0.55
303.15	0.5001	0.3005	870.44	0.55
303.15	0.4996	0.4007	865.09	0.55
303.15	0.5991	0.1005	886.74	0.57
303.15	0.5996	0.2003	882.4	0.57
303.15	0.6017	0.2985	878.05	0.57
303.15	0.6943	0.0992	894.1	0.59
303.15	0.6993	0.2008	890.53	0.59
303.15	0.7989	0.1004	903.42	0.62
308.15	0.1003	0.0999	856.45	0.52
308.15	0.1004	0.2001	851.4	0.52
308.15	0.1007	0.2998	846.05	0.52
308.15	0.1014	0.3993	840.24	0.51
308.15	0.1008	0.4995	833.89	0.51
308.15	0.1014	0.5992	827.11	0.51
308.15	0.0999	0.6998	819.67	0.5
308.15	0.1001	0.8001	811.71	0.5
308.15	0.1999	0.1006	860.52	0.53
308.15	0.2004	0.1998	855.53	0.52
308.15	0.2064	0.2982	850.51	0.52
308.15	0.2008	0.4001	844.3	0.52
308.15	0.2005	0.4996	838.03	0.52
308.15	0.2004	0.5997	831.27	0.51
308.15	0.2008	0.699	824.03	0.51
308.15	0.3005	0.1002	865.15	0.53
308.15	0.3002	0.2	860.18	0.53
308.15	0.3002	0.3002	854.87	0.53
308.15	0.2999	0.4003	849.1	0.53
308.15	0.2996	0.5003	842.88	0.52
308.15	0.2988	0.6017	836.26	0.52
308.15	0.3997	0.1004	870.33	0.54
308.15	0.3996	0.201	865.45	0.54
308.15	0.4003	0.3002	860.3	0.54
308.15	0.3998	0.3994	854.88	0.53
308.15	0.4	0.5003	848.82	0.53
308.15	0.4998	0.1	876.2	0.55
308.15	0.4997	0.2007	871.49	0.55
308.15	0.5001	0.3005	866.53	0.55
308.15	0.4996	0.4007	861.18	0.55
308.15	0.5991	0.1005	882.83	0.57
308.15	0.5996	0.2003	878.49	0.57
308.15	0.6017	0.2985	874.14	0.56
308.15	0.6943	0.0992	890.2	0.59
308.15	0.6993	0.2008	886.62	0.59
308.15	0.7989	0.1004	899.52	0.61
313.15	0.1003	0.0999	852.53	0.52
313.15	0.1004	0.2001	847.49	0.52
313.15	0.1007	0.2998	842.14	0.52
313.15	0.1014	0.3993	836.34	0.51
313.15	0.1008	0.4995	829.99	0.51
313.15	0.1014	0.5992	823.21	0.51
313.15	0.0999	0.6998	815.76	0.5
313.15	0.1001	0.8001	807.8	0.5
313.15	0.1999	0.1006	856.6	0.53
313.15	0.2004	0.1998	851.62	0.52
313.15	0.2064	0.2982	846.61	0.52
313.15	0.2008	0.4001	840.39	0.52
313.15	0.2005	0.4996	834.13	0.51
313.15	0.2004	0.5997	827.36	0.51
313.15	0.2008	0.699	820.11	0.51
313.15	0.3005	0.1002	861.23	0.53
313.15	0.3002	0.2	856.26	0.53
313.15	0.3002	0.3002	850.96	0.53
313.15	0.2999	0.4003	845.18	0.52
313.15	0.2996	0.5003	838.97	0.52
313.15	0.2988	0.6017	832.34	0.52
313.15	0.3997	0.1004	866.41	0.54
313.15	0.3996	0.201	861.53	0.54
313.15	0.4003	0.3002	856.38	0.54
313.15	0.3998	0.3994	850.96	0.53
313.15	0.4	0.5003	844.9	0.53
313.15	0.4998	0.1	872.27	0.55
313.15	0.4997	0.2007	867.57	0.55
313.15	0.5001	0.3005	862.6	0.55
313.15	0.4996	0.4007	857.25	0.54
313.15	0.5991	0.1005	878.9	0.57
313.15	0.5996	0.2003	874.56	0.56
313.15	0.6017	0.2985	870.2	0.56
313.15	0.6943	0.0992	886.27	0.58
313.15	0.6993	0.2008	882.7	0.58
313.15	0.7989	0.1004	895.59	0.61
318.15	0.1003	0.0999	848.61	0.52
318.15	0.1004	0.2001	843.57	0.52
318.15	0.1007	0.2998	838.23	0.51
318.15	0.1014	0.3993	832.43	0.51
318.15	0.1008	0.4995	826.08	0.51
318.15	0.1014	0.5992	819.3	0.5
318.15	0.0999	0.6998	811.85	0.5
318.15	0.1001	0.8001	803.88	0.5
318.15	0.1999	0.1006	852.68	0.52
318.15	0.2004	0.1998	847.71	0.52
318.15	0.2064	0.2982	842.69	0.52
318.15	0.2008	0.4001	836.48	0.51
318.15	0.2005	0.4996	830.21	0.51
318.15	0.2004	0.5997	823.44	0.51
318.15	0.2008	0.699	816.18	0.5
318.15	0.3005	0.1002	857.31	0.53
318.15	0.3002	0.2	852.35	0.53
318.15	0.3002	0.3002	847.04	0.52
318.15	0.2999	0.4003	841.26	0.52
318.15	0.2996	0.5003	835.04	0.52
318.15	0.2988	0.6017	828.41	0.51
318.15	0.3997	0.1004	862.48	0.54
318.15	0.3996	0.201	857.61	0.54
318.15	0.4003	0.3002	852.45	0.53
318.15	0.3998	0.3994	847.04	0.53
318.15	0.4	0.5003	840.96	0.53
318.15	0.4998	0.1	868.34	0.55
318.15	0.4997	0.2007	863.64	0.55
318.15	0.5001	0.3005	858.67	0.54
318.15	0.4996	0.4007	853.32	0.54
318.15	0.5991	0.1005	874.97	0.56
318.15	0.5996	0.2003	870.63	0.56
318.15	0.6017	0.2985	866.27	0.56
318.15	0.6943	0.0992	882.33	0.58
318.15	0.6993	0.2008	878.76	0.58
318.15	0.7989	0.1004	891.65	0.61
323.15	0.1003	0.0999	844.69	0.52
323.15	0.1004	0.2001	839.66	0.51
323.15	0.1007	0.2998	834.32	0.51
323.15	0.1014	0.3993	828.52	0.51
323.15	0.1008	0.4995	822.17	0.5
323.15	0.1014	0.5992	815.38	0.5
323.15	0.0999	0.6998	807.93	0.5
323.15	0.1001	0.8001	799.96	0.49
323.15	0.1999	0.1006	848.75	0.52
323.15	0.2004	0.1998	843.79	0.52
323.15	0.2064	0.2982	838.77	0.52
323.15	0.2008	0.4001	832.56	0.51
323.15	0.2005	0.4996	826.29	0.51
323.15	0.2004	0.5997	819.51	0.51
323.15	0.2008	0.699	812.25	0.5
323.15	0.3005	0.1002	853.39	0.53
323.15	0.3002	0.2	848.42	0.53
323.15	0.3002	0.3002	843.12	0.52
323.15	0.2999	0.4003	837.34	0.52
323.15	0.2996	0.5003	831.11	0.52
323.15	0.2988	0.6017	824.48	0.51
323.15	0.3997	0.1004	858.55	0.54
323.15	0.3996	0.201	853.68	0.53
323.15	0.4003	0.3002	848.52	0.53
323.15	0.3998	0.3994	843.1	0.53
323.15	0.4	0.5003	837.02	0.53
323.15	0.4998	0.1	864.4	0.55
323.15	0.4997	0.2007	859.7	0.54
323.15	0.5001	0.3005	854.74	0.54
323.15	0.4996	0.4007	849.37	0.54
323.15	0.5991	0.1005	871.03	0.56
323.15	0.5996	0.2003	866.69	0.56
323.15	0.6017	0.2985	862.32	0.56
323.15	0.6943	0.0992	878.39	0.58
323.15	0.6993	0.2008	874.81	0.58
323.15	0.7989	0.1004	887.71	0.61
328.15	0.1003	0.0999	840.76	0.51
328.15	0.1004	0.2001	835.73	0.51
328.15	0.1007	0.2998	830.4	0.51
328.15	0.1014	0.3993	824.6	0.51
328.15	0.1008	0.4995	818.25	0.5
328.15	0.1014	0.5992	811.46	0.5
328.15	0.0999	0.6998	804	0.5
328.15	0.1001	0.8001	796.02	0.49
328.15	0.1999	0.1006	844.83	0.52
328.15	0.2004	0.1998	839.86	0.52
328.15	0.2064	0.2982	834.85	0.51
328.15	0.2008	0.4001	828.63	0.51
328.15	0.2005	0.4996	822.36	0.51
328.15	0.2004	0.5997	815.58	0.5
328.15	0.2008	0.699	808.31	0.5
328.15	0.3005	0.1002	849.45	0.53
328.15	0.3002	0.2	844.49	0.52
328.15	0.3002	0.3002	839.19	0.52
328.15	0.2999	0.4003	833.4	0.52
328.15	0.2996	0.5003	827.17	0.51
328.15	0.2988	0.6017	820.53	0.51
328.15	0.3997	0.1004	854.61	0.53
328.15	0.3996	0.201	849.74	0.53
328.15	0.4003	0.3002	844.58	0.53
328.15	0.3998	0.3994	839.16	0.53
328.15	0.4	0.5003	833.07	0.52
328.15	0.4998	0.1	860.46	0.55
328.15	0.4997	0.2007	855.76	0.54
328.15	0.5001	0.3005	850.79	0.54
328.15	0.4996	0.4007	845.42	0.54
328.15	0.5991	0.1005	867.09	0.56
328.15	0.5996	0.2003	862.74	0.56
328.15	0.6017	0.2985	858.37	0.56
328.15	0.6943	0.0992	874.44	0.58
328.15	0.6993	0.2008	870.86	0.58
328.15	0.7989	0.1004	883.76	0.6
333.15	0.1003	0.0999	836.83	0.51
333.15	0.1004	0.2001	831.81	0.51
333.15	0.1007	0.2998	826.47	0.51
333.15	0.1014	0.3993	820.67	0.5
333.15	0.1008	0.4995	814.32	0.5
333.15	0.1014	0.5992	807.53	0.5
333.15	0.0999	0.6998	800.07	0.49
333.15	0.1001	0.8001	792.07	0.49
333.15	0.1999	0.1006	840.89	0.52
333.15	0.2004	0.1998	835.93	0.51
333.15	0.2064	0.2982	830.91	0.51
333.15	0.2008	0.4001	824.7	0.51
333.15	0.2005	0.4996	818.43	0.51
333.15	0.2004	0.5997	811.64	0.5
333.15	0.2008	0.699	804.36	0.5
333.15	0.3005	0.1002	845.52	0.52
333.15	0.3002	0.2	840.55	0.52
333.15	0.3002	0.3002	835.25	0.52
333.15	0.2999	0.4003	829.46	0.52
333.15	0.2996	0.5003	823.23	0.51
333.15	0.2988	0.6017	816.57	0.51
333.15	0.3997	0.1004	850.67	0.53
333.15	0.3996	0.201	845.8	0.53
333.15	0.4003	0.3002	840.64	0.53
333.15	0.3998	0.3994	835.21	0.52
333.15	0.4	0.5003	829.11	0.52
333.15	0.4998	0.1	856.52	0.54
333.15	0.4997	0.2007	851.81	0.54
333.15	0.5001	0.3005	846.84	0.54
333.15	0.4996	0.4007	841.46	0.54
333.15	0.5991	0.1005	863.14	0.56
333.15	0.5996	0.2003	858.79	0.56
333.15	0.6017	0.2985	854.41	0.55
333.15	0.6943	0.0992	870.49	0.58
333.15	0.6993	0.2008	866.9	0.57
333.15	0.7989	0.1004	879.8	0.6
338.15	0.1003	0.0999	832.89	0.51
338.15	0.1004	0.2001	827.87	0.51
338.15	0.1007	0.2998	822.54	0.51
338.15	0.1014	0.3993	816.74	0.5
338.15	0.1008	0.4995	810.38	0.5
338.15	0.1014	0.5992	803.59	0.5
338.15	0.0999	0.6998	796.12	0.49
338.15	0.1001	0.8001	788.11	0.49
338.15	0.1999	0.1006	836.95	0.52
338.15	0.2004	0.1998	831.99	0.51
338.15	0.2064	0.2982	826.97	0.51
338.15	0.2008	0.4001	820.76	0.51
338.15	0.2005	0.4996	814.48	0.5
338.15	0.2004	0.5997	807.69	0.5
338.15	0.2008	0.699	800.39	0.5
338.15	0.3005	0.1002	841.57	0.52
338.15	0.3002	0.2	836.61	0.52
338.15	0.3002	0.3002	831.31	0.52
338.15	0.2999	0.4003	825.52	0.51
338.15	0.2996	0.5003	819.27	0.51
338.15	0.2988	0.6017	812.61	0.51
338.15	0.3997	0.1004	846.73	0.53
338.15	0.3996	0.201	841.85	0.53
338.15	0.4003	0.3002	836.69	0.52
338.15	0.3998	0.3994	831.25	0.52
338.15	0.4	0.5003	825.15	0.52
338.15	0.4998	0.1	852.57	0.54
338.15	0.4997	0.2007	847.86	0.54
338.15	0.5001	0.3005	842.88	0.54
338.15	0.4996	0.4007	837.49	0.53
338.15	0.5991	0.1005	859.18	0.56
338.15	0.5996	0.2003	854.83	0.55
338.15	0.6017	0.2985	850.44	0.55
338.15	0.6943	0.0992	866.53	0.57
338.15	0.6993	0.2008	862.94	0.57
338.15	0.7989	0.1004	875.84	0.6
343.15	0.1003	0.0999	828.95	0.51
343.15	0.1004	0.2001	823.93	0.51
343.15	0.1007	0.2998	818.6	0.5
343.15	0.1014	0.3993	812.8	0.5
343.15	0.1008	0.4995	806.44	0.5
343.15	0.1014	0.5992	799.64	0.49
343.15	0.0999	0.6998	792.16	0.49
343.15	0.1001	0.8001	784.14	0.49
343.15	0.1999	0.1006	833.01	0.51
343.15	0.2004	0.1998	828.05	0.51
343.15	0.2064	0.2982	823.03	0.51
343.15	0.2008	0.4001	816.82	0.5
343.15	0.2005	0.4996	810.53	0.5
343.15	0.2004	0.5997	803.72	0.5
343.15	0.2008	0.699	796.42	0.49
343.15	0.3005	0.1002	837.62	0.52
343.15	0.3002	0.2	832.66	0.52
343.15	0.3002	0.3002	827.35	0.51
343.15	0.2999	0.4003	821.56	0.51
343.15	0.2996	0.5003	815.31	0.51
343.15	0.2988	0.6017	808.63	0.5
343.15	0.3997	0.1004	842.77	0.53
343.15	0.3996	0.201	837.9	0.53
343.15	0.4003	0.3002	832.73	0.52
343.15	0.3998	0.3994	827.29	0.52
343.15	0.4	0.5003	821.17	0.52
343.15	0.4998	0.1	848.61	0.54
343.15	0.4997	0.2007	843.9	0.54
343.15	0.5001	0.3005	838.92	0.53
343.15	0.4996	0.4007	833.52	0.53
343.15	0.5991	0.1005	855.22	0.55
343.15	0.5996	0.2003	850.86	0.55
343.15	0.6017	0.2985	846.47	0.55
343.15	0.6943	0.0992	862.56	0.57
343.15	0.6993	0.2008	858.96	0.57
343.15	0.7989	0.1004	871.87	0.6

System: exo-tetrahydrodicyclopentadiene + (1-methylethyl)cyclohexane + methyl dodecanoate; phases: Liquid
Fixed: Pressure, kPa = 100
Property: Viscosity, Pa*s (Liquid); method: Falling or rolling sphere viscometry
Temperature, K	Mole fraction of exo-tetrahydrodicyclopentadiene	Mole fraction of (1-methylethyl)cyclohexane	Viscosity, Pa*s	uncertainty
293.15	0.1003	0.0999	0.002818	6e-05
293.15	0.1004	0.2001	0.002565	5.5e-05
293.15	0.1007	0.2998	0.002318	4.9e-05
293.15	0.1014	0.3993	0.002099	4.5e-05
293.15	0.1008	0.4995	0.001884	4e-05
293.15	0.1014	0.5992	0.001682	3.6e-05
293.15	0.0999	0.6998	0.001501	3.2e-05
293.15	0.1001	0.8001	0.001336	2.8e-05
293.15	0.1999	0.1006	0.002756	5.9e-05
293.15	0.2004	0.1998	0.002504	5.3e-05
293.15	0.2064	0.2982	0.00227	4.8e-05
293.15	0.2008	0.4001	0.002043	4.4e-05
293.15	0.2005	0.4996	0.001843	3.9e-05
293.15	0.2004	0.5997	0.001641	3.5e-05
293.15	0.2008	0.699	0.001467	3.1e-05
293.15	0.3005	0.1002	0.002718	5.8e-05
293.15	0.3002	0.2	0.002462	5.3e-05
293.15	0.3002	0.3002	0.002218	4.8e-05
293.15	0.2999	0.4003	0.00199	4.3e-05
293.15	0.2996	0.5003	0.001792	3.8e-05
293.15	0.2988	0.6017	0.001601	3.4e-05
293.15	0.3997	0.1004	0.00268	5.8e-05
293.15	0.3996	0.201	0.002422	5.2e-05
293.15	0.4003	0.3002	0.002175	4.7e-05
293.15	0.3998	0.3994	0.001962	4.2e-05
293.15	0.4	0.5003	0.00176	3.8e-05
293.15	0.4998	0.1	0.002639	5.7e-05
293.15	0.4997	0.2007	0.00238	5.2e-05
293.15	0.5001	0.3005	0.002144	4.6e-05
293.15	0.4996	0.4007	0.001931	4.2e-05
293.15	0.5991	0.1005	0.002601	5.7e-05
293.15	0.5996	0.2003	0.002347	5.1e-05
293.15	0.6017	0.2985	0.002132	4.6e-05
293.15	0.6943	0.0992	0.002611	5.7e-05
293.15	0.6993	0.2008	0.002364	5.2e-05
293.15	0.7989	0.1004	0.002613	5.8e-05
298.15	0.1003	0.0999	0.00252	5.4e-05
298.15	0.1004	0.2001	0.002305	4.9e-05
298.15	0.1007	0.2998	0.002095	4.5e-05
298.15	0.1014	0.3993	0.001902	4.1e-05
298.15	0.1008	0.4995	0.001715	3.7e-05
298.15	0.1014	0.5992	0.001539	3.3e-05
298.15	0.0999	0.6998	0.001379	2.9e-05
298.15	0.1001	0.8001	0.001233	2.6e-05
298.15	0.1999	0.1006	0.00247	5.3e-05
298.15	0.2004	0.1998	0.002255	4.8e-05
298.15	0.2064	0.2982	0.002053	4.4e-05
298.15	0.2008	0.4001	0.001857	4e-05
298.15	0.2005	0.4996	0.001681	3.6e-05
298.15	0.2004	0.5997	0.001505	3.2e-05
298.15	0.2008	0.699	0.001351	2.9e-05
298.15	0.3005	0.1002	0.002439	5.2e-05
298.15	0.3002	0.2	0.00222	4.8e-05
298.15	0.3002	0.3002	0.00201	4.3e-05
298.15	0.2999	0.4003	0.001814	3.9e-05
298.15	0.2996	0.5003	0.001641	3.5e-05
298.15	0.2988	0.6017	0.001472	3.2e-05
298.15	0.3997	0.1004	0.002405	5.2e-05
298.15	0.3996	0.201	0.002187	4.7e-05
298.15	0.4003	0.3002	0.001975	4.3e-05
298.15	0.3998	0.3994	0.00179	3.9e-05
298.15	0.4	0.5003	0.001614	3.5e-05
298.15	0.4998	0.1	0.002377	5.1e-05
298.15	0.4997	0.2007	0.002154	4.7e-05
298.15	0.5001	0.3005	0.001952	4.2e-05
298.15	0.4996	0.4007	0.001764	3.8e-05
298.15	0.5991	0.1005	0.00235	5.1e-05
298.15	0.5996	0.2003	0.002131	4.6e-05
298.15	0.6017	0.2985	0.001944	4.2e-05
298.15	0.6943	0.0992	0.002364	5.2e-05
298.15	0.6993	0.2008	0.002147	4.7e-05
298.15	0.7989	0.1004	0.002371	5.2e-05
303.15	0.1003	0.0999	0.002267	4.8e-05
303.15	0.1004	0.2001	0.002083	4.4e-05
303.15	0.1007	0.2998	0.001905	4.1e-05
303.15	0.1014	0.3993	0.001734	3.7e-05
303.15	0.1008	0.4995	0.001569	3.3e-05
303.15	0.1014	0.5992	0.001414	3e-05
303.15	0.0999	0.6998	0.001272	2.7e-05
303.15	0.1001	0.8001	0.001142	2.4e-05
303.15	0.1999	0.1006	0.002227	4.8e-05
303.15	0.2004	0.1998	0.002043	4.4e-05
303.15	0.2064	0.2982	0.001864	4e-05
303.15	0.2008	0.4001	0.001696	3.6e-05
303.15	0.2005	0.4996	0.001542	3.3e-05
303.15	0.2004	0.5997	0.001388	3e-05
303.15	0.2008	0.699	0.00125	2.7e-05
303.15	0.3005	0.1002	0.002206	4.7e-05
303.15	0.3002	0.2	0.002016	4.3e-05
303.15	0.3002	0.3002	0.001832	3.9e-05
303.15	0.2999	0.4003	0.001661	3.6e-05
303.15	0.2996	0.5003	0.00151	3.2e-05
303.15	0.2988	0.6017	0.001359	2.9e-05
303.15	0.3997	0.1004	0.002177	4.7e-05
303.15	0.3996	0.201	0.001989	4.3e-05
303.15	0.4003	0.3002	0.001804	3.9e-05
303.15	0.3998	0.3994	0.001642	3.5e-05
303.15	0.4	0.5003	0.001488	3.2e-05
303.15	0.4998	0.1	0.002156	4.7e-05
303.15	0.4997	0.2007	0.001963	4.3e-05
303.15	0.5001	0.3005	0.001786	3.9e-05
303.15	0.4996	0.4007	0.001622	3.5e-05
303.15	0.5991	0.1005	0.002136	4.7e-05
303.15	0.5996	0.2003	0.001945	4.2e-05
303.15	0.6017	0.2985	0.001783	3.9e-05
303.15	0.6943	0.0992	0.002152	4.7e-05
303.15	0.6993	0.2008	0.001963	4.3e-05
303.15	0.7989	0.1004	0.002161	4.8e-05
308.15	0.1003	0.0999	0.002056	4.4e-05
308.15	0.1004	0.2001	0.001896	4e-05
308.15	0.1007	0.2998	0.00174	3.7e-05
308.15	0.1014	0.3993	0.001589	3.4e-05
308.15	0.1008	0.4995	0.001444	3.1e-05
308.15	0.1014	0.5992	0.001305	2.8e-05
308.15	0.0999	0.6998	0.001179	2.5e-05
308.15	0.1001	0.8001	0.001061	2.3e-05
308.15	0.1999	0.1006	0.002023	4.3e-05
308.15	0.2004	0.1998	0.001859	4e-05
308.15	0.2064	0.2982	0.001705	3.6e-05
308.15	0.2008	0.4001	0.001558	3.3e-05
308.15	0.2005	0.4996	0.001421	3e-05
308.15	0.2004	0.5997	0.001283	2.7e-05
308.15	0.2008	0.699	0.001161	2.5e-05
308.15	0.3005	0.1002	0.002007	4.3e-05
308.15	0.3002	0.2	0.00184	3.9e-05
308.15	0.3002	0.3002	0.001679	3.6e-05
308.15	0.2999	0.4003	0.001527	3.3e-05
308.15	0.2996	0.5003	0.001394	3e-05
308.15	0.2988	0.6017	0.00126	2.7e-05
308.15	0.3997	0.1004	0.001981	4.3e-05
308.15	0.3996	0.201	0.001818	3.9e-05
308.15	0.4003	0.3002	0.001655	3.6e-05
308.15	0.3998	0.3994	0.001512	3.3e-05
308.15	0.4	0.5003	0.001376	3e-05
308.15	0.4998	0.1	0.001967	4.3e-05
308.15	0.4997	0.2007	0.001797	3.9e-05
308.15	0.5001	0.3005	0.001642	3.6e-05
308.15	0.4996	0.4007	0.001495	3.2e-05
308.15	0.5991	0.1005	0.001951	4.3e-05
308.15	0.5996	0.2003	0.001785	3.9e-05
308.15	0.6017	0.2985	0.001638	3.6e-05
308.15	0.6943	0.0992	0.00197	4.3e-05
308.15	0.6993	0.2008	0.001803	4e-05
308.15	0.7989	0.1004	0.00198	4.4e-05
313.15	0.1003	0.0999	0.001875	4e-05
313.15	0.1004	0.2001	0.001734	3.7e-05
313.15	0.1007	0.2998	0.001598	3.4e-05
313.15	0.1014	0.3993	0.001463	3.1e-05
313.15	0.1008	0.4995	0.001334	2.8e-05
313.15	0.1014	0.5992	0.00121	2.6e-05
313.15	0.0999	0.6998	0.001096	2.3e-05
313.15	0.1001	0.8001	0.00099	2.1e-05
313.15	0.1999	0.1006	0.001846	3.9e-05
313.15	0.2004	0.1998	0.001702	3.6e-05
313.15	0.2064	0.2982	0.001566	3.3e-05
313.15	0.2008	0.4001	0.001437	3.1e-05
313.15	0.2005	0.4996	0.001316	2.8e-05
313.15	0.2004	0.5997	0.001192	2.5e-05
313.15	0.2008	0.699	0.001081	2.3e-05
313.15	0.3005	0.1002	0.001834	3.9e-05
313.15	0.3002	0.2	0.001688	3.6e-05
313.15	0.3002	0.3002	0.001545	3.3e-05
313.15	0.2999	0.4003	0.00141	3e-05
313.15	0.2996	0.5003	0.001292	2.8e-05
313.15	0.2988	0.6017	0.00117	2.5e-05
313.15	0.3997	0.1004	0.001813	3.9e-05
313.15	0.3996	0.201	0.001669	3.6e-05
313.15	0.4003	0.3002	0.001525	3.3e-05
313.15	0.3998	0.3994	0.001398	3e-05
313.15	0.4	0.5003	0.001276	2.7e-05
313.15	0.4998	0.1	0.001801	3.9e-05
313.15	0.4997	0.2007	0.001652	3.6e-05
313.15	0.5001	0.3005	0.001516	3.3e-05
313.15	0.4996	0.4007	0.001384	3e-05
313.15	0.5991	0.1005	0.001789	3.9e-05
313.15	0.5996	0.2003	0.001643	3.6e-05
313.15	0.6017	0.2985	0.001512	3.3e-05
313.15	0.6943	0.0992	0.001805	4e-05
313.15	0.6993	0.2008	0.001662	3.6e-05
313.15	0.7989	0.1004	0.001821	4e-05
318.15	0.1003	0.0999	0.001718	3.7e-05
318.15	0.1004	0.2001	0.001595	3.4e-05
318.15	0.1007	0.2998	0.001474	3.1e-05
318.15	0.1014	0.3993	0.001352	2.9e-05
318.15	0.1008	0.4995	0.001237	2.6e-05
318.15	0.1014	0.5992	0.001126	2.4e-05
318.15	0.0999	0.6998	0.001023	2.2e-05
318.15	0.1001	0.8001	0.000926	2e-05
318.15	0.1999	0.1006	0.001693	3.6e-05
318.15	0.2004	0.1998	0.001567	3.3e-05
318.15	0.2064	0.2982	0.001446	3.1e-05
318.15	0.2008	0.4001	0.001331	2.8e-05
318.15	0.2005	0.4996	0.001221	2.6e-05
318.15	0.2004	0.5997	0.00111	2.4e-05
318.15	0.2008	0.699	0.00101	2.2e-05
318.15	0.3005	0.1002	0.001685	3.6e-05
318.15	0.3002	0.2	0.001555	3.3e-05
318.15	0.3002	0.3002	0.001428	3.1e-05
318.15	0.2999	0.4003	0.001308	2.8e-05
318.15	0.2996	0.5003	0.001201	2.6e-05
318.15	0.2988	0.6017	0.001092	2.3e-05
318.15	0.3997	0.1004	0.001667	3.6e-05
318.15	0.3996	0.201	0.001539	3.3e-05
318.15	0.4003	0.3002	0.001411	3e-05
318.15	0.3998	0.3994	0.001298	2.8e-05
318.15	0.4	0.5003	0.001188	2.6e-05
318.15	0.4998	0.1	0.001658	3.6e-05
318.15	0.4997	0.2007	0.001526	3.3e-05
318.15	0.5001	0.3005	0.001403	3e-05
318.15	0.4996	0.4007	0.001286	2.8e-05
318.15	0.5991	0.1005	0.001649	3.6e-05
318.15	0.5996	0.2003	0.00152	3.3e-05
318.15	0.6017	0.2985	0.001401	3.1e-05
318.15	0.6943	0.0992	0.001665	3.7e-05
318.15	0.6993	0.2008	0.001538	3.4e-05
318.15	0.7989	0.1004	0.00168	3.7e-05
323.15	0.1003	0.0999	0.001581	3.4e-05
323.15	0.1004	0.2001	0.001473	3.1e-05
323.15	0.1007	0.2998	0.001365	2.9e-05
323.15	0.1014	0.3993	0.001256	2.7e-05
323.15	0.1008	0.4995	0.001152	2.5e-05
323.15	0.1014	0.5992	0.001051	2.2e-05
323.15	0.0999	0.6998	0.000958	2e-05
323.15	0.1001	0.8001	0.00087	1.9e-05
323.15	0.1999	0.1006	0.00156	3.3e-05
323.15	0.2004	0.1998	0.001448	3.1e-05
323.15	0.2064	0.2982	0.001339	2.9e-05
323.15	0.2008	0.4001	0.001236	2.6e-05
323.15	0.2005	0.4996	0.001139	2.4e-05
323.15	0.2004	0.5997	0.001038	2.2e-05
323.15	0.2008	0.699	0.000946	2e-05
323.15	0.3005	0.1002	0.001554	3.3e-05
323.15	0.3002	0.2	0.001438	3.1e-05
323.15	0.3002	0.3002	0.001325	2.8e-05
323.15	0.2999	0.4003	0.001217	2.6e-05
323.15	0.2996	0.5003	0.001121	2.4e-05
323.15	0.2988	0.6017	0.001021	2.2e-05
323.15	0.3997	0.1004	0.001538	3.3e-05
323.15	0.3996	0.201	0.001424	3.1e-05
323.15	0.4003	0.3002	0.00131	2.8e-05
323.15	0.3998	0.3994	0.001208	2.6e-05
323.15	0.4	0.5003	0.00111	2.4e-05
323.15	0.4998	0.1	0.001531	3.3e-05
323.15	0.4997	0.2007	0.001413	3.1e-05
323.15	0.5001	0.3005	0.001304	2.8e-05
323.15	0.4996	0.4007	0.001199	2.6e-05
323.15	0.5991	0.1005	0.001524	3.3e-05
323.15	0.5996	0.2003	0.001409	3.1e-05
323.15	0.6017	0.2985	0.001303	2.8e-05
323.15	0.6943	0.0992	0.001539	3.4e-05
323.15	0.6993	0.2008	0.001427	3.1e-05
323.15	0.7989	0.1004	0.001555	3.4e-05
328.15	0.1003	0.0999	0.001462	3.1e-05
328.15	0.1004	0.2001	0.001363	2.9e-05
328.15	0.1007	0.2998	0.001268	2.7e-05
328.15	0.1014	0.3993	0.001169	2.5e-05
328.15	0.1008	0.4995	0.001076	2.3e-05
328.15	0.1014	0.5992	0.000985	2.1e-05
328.15	0.0999	0.6998	0.000899	1.9e-05
328.15	0.1001	0.8001	0.000819	1.7e-05
328.15	0.1999	0.1006	0.001442	3.1e-05
328.15	0.2004	0.1998	0.001342	2.9e-05
328.15	0.2064	0.2982	0.001245	2.7e-05
328.15	0.2008	0.4001	0.001152	2.5e-05
328.15	0.2005	0.4996	0.001065	2.3e-05
328.15	0.2004	0.5997	0.000972	2.1e-05
328.15	0.2008	0.699	0.000889	1.9e-05
328.15	0.3005	0.1002	0.001437	3.1e-05
328.15	0.3002	0.2	0.001336	2.9e-05
328.15	0.3002	0.3002	0.001232	2.6e-05
328.15	0.2999	0.4003	0.001134	2.4e-05
328.15	0.2996	0.5003	0.001048	2.2e-05
328.15	0.2988	0.6017	0.000958	2.1e-05
328.15	0.3997	0.1004	0.001424	3.1e-05
328.15	0.3996	0.201	0.001322	2.8e-05
328.15	0.4003	0.3002	0.00122	2.6e-05
328.15	0.3998	0.3994	0.001128	2.4e-05
328.15	0.4	0.5003	0.001038	2.2e-05
328.15	0.4998	0.1	0.001419	3.1e-05
328.15	0.4997	0.2007	0.001313	2.8e-05
328.15	0.5001	0.3005	0.001214	2.6e-05
328.15	0.4996	0.4007	0.001119	2.4e-05
328.15	0.5991	0.1005	0.001413	3.1e-05
328.15	0.5996	0.2003	0.00131	2.9e-05
328.15	0.6017	0.2985	0.001214	2.6e-05
328.15	0.6943	0.0992	0.001428	3.1e-05
328.15	0.6993	0.2008	0.001328	2.9e-05
328.15	0.7989	0.1004	0.001443	3.2e-05
333.15	0.1003	0.0999	0.001356	2.9e-05
333.15	0.1004	0.2001	0.001268	2.7e-05
333.15	0.1007	0.2998	0.001182	2.5e-05
333.15	0.1014	0.3993	0.001092	2.3e-05
333.15	0.1008	0.4995	0.001007	2.1e-05
333.15	0.1014	0.5992	0.000924	2e-05
333.15	0.0999	0.6998	0.000846	1.8e-05
333.15	0.1001	0.8001	0.000772	1.6e-05
333.15	0.1999	0.1006	0.001339	2.9e-05
333.15	0.2004	0.1998	0.001249	2.7e-05
333.15	0.2064	0.2982	0.001161	2.5e-05
333.15	0.2008	0.4001	0.001077	2.3e-05
333.15	0.2005	0.4996	0.000997	2.1e-05
333.15	0.2004	0.5997	0.000913	2e-05
333.15	0.2008	0.699	0.000837	1.8e-05
333.15	0.3005	0.1002	0.001334	2.9e-05
333.15	0.3002	0.2	0.001242	2.7e-05
333.15	0.3002	0.3002	0.001149	2.5e-05
333.15	0.2999	0.4003	0.00106	2.3e-05
333.15	0.2996	0.5003	0.000982	2.1e-05
333.15	0.2988	0.6017	0.0009	1.9e-05
333.15	0.3997	0.1004	0.001324	2.9e-05
333.15	0.3996	0.201	0.001232	2.7e-05
333.15	0.4003	0.3002	0.001139	2.5e-05
333.15	0.3998	0.3994	0.001055	2.3e-05
333.15	0.4	0.5003	0.000974	2.1e-05
333.15	0.4998	0.1	0.00132	2.9e-05
333.15	0.4997	0.2007	0.001224	2.7e-05
333.15	0.5001	0.3005	0.001135	2.5e-05
333.15	0.4996	0.4007	0.001048	2.3e-05
333.15	0.5991	0.1005	0.001315	2.9e-05
333.15	0.5996	0.2003	0.001221	2.7e-05
333.15	0.6017	0.2985	0.001135	2.5e-05
333.15	0.6943	0.0992	0.00133	2.9e-05
333.15	0.6993	0.2008	0.001239	2.7e-05
333.15	0.7989	0.1004	0.001345	3e-05
338.15	0.1003	0.0999	0.001261	2.7e-05
338.15	0.1004	0.2001	0.001182	2.5e-05
338.15	0.1007	0.2998	0.001103	2.4e-05
338.15	0.1014	0.3993	0.001023	2.2e-05
338.15	0.1008	0.4995	0.000945	2e-05
338.15	0.1014	0.5992	0.000869	1.9e-05
338.15	0.0999	0.6998	0.000798	1.7e-05
338.15	0.1001	0.8001	0.000731	1.6e-05
338.15	0.1999	0.1006	0.001246	2.7e-05
338.15	0.2004	0.1998	0.001166	2.5e-05
338.15	0.2064	0.2982	0.001085	2.3e-05
338.15	0.2008	0.4001	0.001008	2.2e-05
338.15	0.2005	0.4996	0.000936	2e-05
338.15	0.2004	0.5997	0.000859	1.8e-05
338.15	0.2008	0.699	0.00079	1.7e-05
338.15	0.3005	0.1002	0.001243	2.7e-05
338.15	0.3002	0.2	0.001159	2.5e-05
338.15	0.3002	0.3002	0.001075	2.3e-05
338.15	0.2999	0.4003	0.000995	2.1e-05
338.15	0.2996	0.5003	0.000923	2e-05
338.15	0.2988	0.6017	0.000848	1.8e-05
338.15	0.3997	0.1004	0.001234	2.7e-05
338.15	0.3996	0.201	0.001151	2.5e-05
338.15	0.4003	0.3002	0.001066	2.3e-05
338.15	0.3998	0.3994	0.00099	2.1e-05
338.15	0.4	0.5003	0.000917	2e-05
338.15	0.4998	0.1	0.00123	2.7e-05
338.15	0.4997	0.2007	0.001144	2.5e-05
338.15	0.5001	0.3005	0.001063	2.3e-05
338.15	0.4996	0.4007	0.000985	2.1e-05
338.15	0.5991	0.1005	0.001227	2.7e-05
338.15	0.5996	0.2003	0.001142	2.5e-05
338.15	0.6017	0.2985	0.001064	2.3e-05
338.15	0.6943	0.0992	0.001241	2.7e-05
338.15	0.6993	0.2008	0.00116	2.5e-05
338.15	0.7989	0.1004	0.001257	2.8e-05
343.15	0.1003	0.0999	0.001177	2.5e-05
343.15	0.1004	0.2001	0.001105	2.4e-05
343.15	0.1007	0.2998	0.001034	2.2e-05
343.15	0.1014	0.3993	0.000961	2e-05
343.15	0.1008	0.4995	0.00089	1.9e-05
343.15	0.1014	0.5992	0.000821	1.8e-05
343.15	0.0999	0.6998	0.000755	1.6e-05
343.15	0.1001	0.8001	0.000692	1.5e-05
343.15	0.1999	0.1006	0.001163	2.5e-05
343.15	0.2004	0.1998	0.001091	2.3e-05
343.15	0.2064	0.2982	0.001018	2.2e-05
343.15	0.2008	0.4001	0.000947	2e-05
343.15	0.2005	0.4996	0.000881	1.9e-05
343.15	0.2004	0.5997	0.000811	1.7e-05
343.15	0.2008	0.699	0.000747	1.6e-05
343.15	0.3005	0.1002	0.001161	2.5e-05
343.15	0.3002	0.2	0.001085	2.3e-05
343.15	0.3002	0.3002	0.001008	2.2e-05
343.15	0.2999	0.4003	0.000936	2e-05
343.15	0.2996	0.5003	0.000869	1.9e-05
343.15	0.2988	0.6017	0.0008	1.7e-05
343.15	0.3997	0.1004	0.001152	2.5e-05
343.15	0.3996	0.201	0.001077	2.3e-05
343.15	0.4003	0.3002	0.001	2.2e-05
343.15	0.3998	0.3994	0.000931	2e-05
343.15	0.4	0.5003	0.000864	1.9e-05
343.15	0.4998	0.1	0.00115	2.5e-05
343.15	0.4997	0.2007	0.001071	2.3e-05
343.15	0.5001	0.3005	0.000998	2.2e-05
343.15	0.4996	0.4007	0.000926	2e-05
343.15	0.5991	0.1005	0.001147	2.5e-05
343.15	0.5996	0.2003	0.00107	2.3e-05
343.15	0.6017	0.2985	0.000999	2.2e-05
343.15	0.6943	0.0992	0.001162	2.5e-05
343.15	0.6993	0.2008	0.001088	2.4e-05
343.15	0.7989	0.1004	0.001175	2.6e-05
