Measured thermophysical data. Viscosity, Gibbs Free Energy, and Refractive Indices for Binary Mixtures of o-Cresol + Poly(ethylene glycols) at T = 288.15-308.15 K and 96.5 kPa
Source: J. Chem. Eng. Data, 2018, 10.1021/acs.jced.8b00135
Compound 1: 2-methylphenol, C7H8O, InChI=1S/C7H8O/c1-6-4-2-3-5-7(6)8/h2-5,8H,1H3, purity 99%

System: 2-methylphenol; phases: Liquid
Fixed: Pressure, kPa = 96.5
Property: Viscosity, Pa*s (Liquid); method: Capillary tube (Ostwald; Ubbelohde) method
Temperature, K	Viscosity, Pa*s	uncertainty
288.15	0.01328	0.000314
293.15	0.00968	0.000232
298.15	0.00776	0.000175
303.15	0.006575	0.000146
308.15	0.005566	0.000125

System: 2-methylphenol; phases: Liquid
Fixed: Pressure, kPa = 96.5
Property: Refractive index (Na D-line) (Liquid); method: Standard Abbe refractometry
Temperature, K	Refractive index (Na D-line)	uncertainty
288.15	1.5407	0.008
293.15	1.5392	0.008
298.15	1.5382	0.008
303.15	1.5362	0.008
308.15	1.5336	0.008
