Measured thermophysical data. Measurement and Correlation of the Solubility of Mifepristone in Eight Pure and Water + Methanol Mixed Solvents at Temperatures from 273.15 to 318.15 K
Source: J. Chem. Eng. Data, 2019, 10.1021/acs.jced.8b01062
Compound 1: mifepristone, C29H35NO2, InChI=1S/C29H35NO2/c1-5-15-29(32)16-14-26-24-12-8-20-17-22(31)11-13-23(20)27(24)25(18-28(26,29)2)19-6-9-21(10-7-19)30(3)4/h6-7,9-10,17,24-26,32H,8,11-14,16,18H2,1-4H3/t24-,25+,26-,28-,29-/m0/s1, purity 99%
Compound 2: methanol, CH4O, InChI=1S/CH4O/c1-2/h2H,1H3, purity 99.5%
Compound 3: ethanol, C2H6O, InChI=1S/C2H6O/c1-2-3/h3H,2H2,1H3, purity 99.5%
Compound 4: propan-1-ol, C3H8O, InChI=1S/C3H8O/c1-2-3-4/h4H,2-3H2,1H3, purity 99.5%
Compound 5: propan-2-ol, C3H8O, InChI=1S/C3H8O/c1-3(2)4/h3-4H,1-2H3, purity 99.5%
Compound 6: butan-1-ol, C4H10O, InChI=1S/C4H10O/c1-2-3-4-5/h5H,2-4H2,1H3, purity 99.5%
Compound 7: acetone, C3H6O, InChI=1S/C3H6O/c1-3(2)4/h1-2H3, purity 99.5%
Compound 8: ethyl acetate, C4H8O2, InChI=1S/C4H8O2/c1-3-6-4(2)5/h3H2,1-2H3, purity 99.5%
Compound 9: tetrahydrofuran, C4H8O, InChI=1S/C4H8O/c1-2-4-5-3-1/h1-4H2, purity 99.5%
Compound 10: water, H2O, InChI=1S/H2O/h1H2, purity 99.8%

System: mifepristone; phases: Crystal, Liquid, Air at 1 atmosphere
Property: Triple point temperature, K (Crystal); method: DSC
Triple point temperature, K	uncertainty
465.45	0.81

System: mifepristone; phases: Crystal, Liquid, Air at 1 atmosphere
Property: Molar enthalpy of transition or fusion, kJ/mol (Crystal); method: DSC
Molar enthalpy of transition or fusion, kJ/mol	uncertainty
19.417637048	0.880667167

System: mifepristone + methanol; phases: Liquid, Crystal
Fixed: Pressure, kPa = 100
Property: Mole fraction of mifepristone (Liquid); method: gravimetric
Temperature, K	Mole fraction of mifepristone	uncertainty
273.15	0.000445	1.9e-05
278.15	0.00058	2.4e-05
283.15	0.000756	3.1e-05
288.15	0.000982	4.1e-05
293.15	0.00128	5e-05
298.15	0.00164	7e-05
303.15	0.0021	9e-05
308.15	0.00266	0.00011
313.15	0.00333	0.00014
318.15	0.00414	0.00017

System: mifepristone + ethanol; phases: Liquid, Crystal
Fixed: Pressure, kPa = 100
Property: Mole fraction of mifepristone (Liquid); method: gravimetric
Temperature, K	Mole fraction of mifepristone	uncertainty
273.15	0.000122	5e-06
278.15	0.000146	6e-06
283.15	0.000174	7e-06
288.15	0.000206	8e-06
293.15	0.000244	1e-05
298.15	0.000289	1.2e-05
303.15	0.000341	1.4e-05
308.15	0.000401	1.6e-05
313.15	0.000472	1.9e-05
318.15	0.000552	2.2e-05

System: mifepristone + propan-1-ol; phases: Liquid, Crystal
Fixed: Pressure, kPa = 100
Property: Mole fraction of mifepristone (Liquid); method: gravimetric
Temperature, K	Mole fraction of mifepristone	uncertainty
273.15	0.000138	8.3e-05
278.15	0.000163	9.8e-05
283.15	0.000192	0.000115
288.15	0.000226	0.000136
293.15	0.000266	0.00016
298.15	0.00031	0.000186
303.15	0.000362	0.000217
308.15	0.000428	0.000257
313.15	0.000499	0.000299
318.15	0.000582	0.000349

System: mifepristone + propan-2-ol; phases: Liquid, Crystal
Fixed: Pressure, kPa = 100
Property: Mole fraction of mifepristone (Liquid); method: gravimetric
Temperature, K	Mole fraction of mifepristone	uncertainty
273.15	7.13e-05	3.2e-06
278.15	0.000109	5e-06
283.15	0.000164	7e-06
288.15	0.000244	1.1e-05
293.15	0.000358	1.5e-05
298.15	0.000518	2.2e-05
303.15	0.00074	3.1e-05
308.15	0.00105	4e-05
313.15	0.00146	6e-05
318.15	0.00202	8e-05

System: mifepristone + butan-1-ol; phases: Liquid, Crystal
Fixed: Pressure, kPa = 100
Property: Mole fraction of mifepristone (Liquid); method: gravimetric
Temperature, K	Mole fraction of mifepristone	uncertainty
273.15	0.000172	7e-06
278.15	0.000213	9e-06
283.15	0.000264	1.1e-05
288.15	0.000332	1.4e-05
293.15	0.000412	1.7e-05
298.15	0.000502	2.1e-05
303.15	0.000612	2.5e-05
308.15	0.000733	3e-05
313.15	0.000875	3.6e-05
318.15	0.00103	4e-05

System: mifepristone + acetone; phases: Liquid, Crystal
Fixed: Pressure, kPa = 100
Property: Mole fraction of mifepristone (Liquid); method: gravimetric
Temperature, K	Mole fraction of mifepristone	uncertainty
273.15	0.000149	6e-06
278.15	0.000184	8e-06
283.15	0.000226	9e-06
288.15	0.000281	1.2e-05
293.15	0.000345	1.4e-05
298.15	0.000422	1.7e-05
303.15	0.000516	2.1e-05
308.15	0.000628	2.6e-05
313.15	0.000762	3.1e-05
318.15	0.000922	3.7e-05

System: mifepristone + ethyl acetate; phases: Liquid, Crystal
Fixed: Pressure, kPa = 100
Property: Mole fraction of mifepristone (Liquid); method: gravimetric
Temperature, K	Mole fraction of mifepristone	uncertainty
273.15	0.000103	4e-06
278.15	0.000125	5e-06
283.15	0.000152	6e-06
288.15	0.000184	8e-06
293.15	0.000223	9e-06
298.15	0.00027	1.1e-05
303.15	0.000325	1.3e-05
308.15	0.000392	1.6e-05
313.15	0.000471	1.9e-05
318.15	0.000565	2.3e-05

System: mifepristone + tetrahydrofuran; phases: Liquid, Crystal
Fixed: Pressure, kPa = 100
Property: Mole fraction of mifepristone (Liquid); method: gravimetric
Temperature, K	Mole fraction of mifepristone	uncertainty
273.15	5.16e-05	2.1e-06
278.15	6e-05	2.4e-06
283.15	6.95e-05	2.8e-06
288.15	8.05e-05	3.3e-06
293.15	9.3e-05	3.8e-06
298.15	0.000107	4e-06
303.15	0.000123	5e-06
308.15	0.000142	6e-06
313.15	0.000163	7e-06
318.15	0.000188	8e-06

System: mifepristone + methanol + water; phases: Liquid, Crystal
Fixed: Pressure, kPa = 100
Property: Mole fraction of mifepristone (Liquid); method: gravimetric
Solvent: Mass fraction of water	Temperature, K	Mole fraction of mifepristone	uncertainty
0.1	273.15	0.000505	0.000303
0.1	278.15	0.000546	0.000328
0.1	283.15	0.000606	0.000364
0.1	288.15	0.000657	0.000394
0.1	293.15	0.000727	0.000436
0.1	298.15	0.000787	0.000472
0.1	303.15	0.000868	0.000521
0.1	308.15	0.00094	0.000564
0.1	313.15	0.00102	0.00061
0.1	318.15	0.00111	0.00067
0.2	273.15	0.000313	0.000188
0.2	278.15	0.000343	0.000206
0.2	283.15	0.000374	0.000224
0.2	288.15	0.000404	0.000242
0.2	293.15	0.000435	0.000261
0.2	298.15	0.000465	0.000279
0.2	303.15	0.000495	0.000297
0.2	308.15	0.000526	0.000316
0.2	313.15	0.000556	0.000334
0.2	318.15	0.000586	0.000352
0.3	273.15	0.000172	0.000103
0.3	278.15	0.000182	0.000109
0.3	283.15	0.000195	0.000117
0.3	288.15	0.00021	0.000126
0.3	293.15	0.000222	0.000133
0.3	298.15	0.000237	0.000142
0.3	303.15	0.000252	0.000151
0.3	308.15	0.000273	0.000164
0.3	313.15	0.000293	0.000176
0.3	318.15	0.000309	0.000185
0.4	273.15	6.24e-05	3.74e-05
0.4	278.15	6.95e-05	4.17e-05
0.4	283.15	7.68e-05	4.61e-05
0.4	288.15	8.45e-05	5.07e-05
0.4	293.15	9.24e-05	5.54e-05
0.4	298.15	0.0001	6e-05
0.4	303.15	0.000107	6.4e-05
0.4	308.15	0.000117	7e-05
0.4	313.15	0.000126	7.6e-05
0.4	318.15	0.000135	8.1e-05
0.5	273.15	1.32e-05	7.9e-06
0.5	278.15	1.58e-05	9.5e-06
0.5	283.15	1.83e-05	1.1e-05
0.5	288.15	2.16e-05	1.3e-05
0.5	293.15	2.55e-05	1.53e-05
0.5	298.15	3.03e-05	1.82e-05
0.5	303.15	3.53e-05	2.12e-05
0.5	308.15	4.15e-05	2.49e-05
0.5	313.15	4.85e-05	2.91e-05
0.5	318.15	5.66e-05	3.4e-05
0.6	273.15	7.68e-06	4.61e-06
0.6	278.15	7.88e-06	4.73e-06
0.6	283.15	8.05e-06	4.83e-06
0.6	288.15	8.22e-06	4.93e-06
0.6	293.15	8.38e-06	5.03e-06
0.6	298.15	8.52e-06	5.11e-06
0.6	303.15	8.69e-06	5.21e-06
0.6	308.15	8.79e-06	5.27e-06
0.6	313.15	8.91e-06	5.35e-06
0.6	318.15	9.03e-06	5.45e-06
0.7	273.15	3.23e-06	1.94e-06
0.7	278.15	3.53e-06	2.12e-06
0.7	283.15	3.89e-06	2.33e-06
0.7	288.15	4.25e-06	2.55e-06
0.7	293.15	4.55e-06	2.73e-06
0.7	298.15	4.95e-06	2.97e-06
0.7	303.15	5.32e-06	3.19e-06
0.7	308.15	5.71e-06	3.43e-06
0.7	313.15	6.11e-06	3.67e-06
0.7	318.15	6.53e-06	3.92e-06
0.8	273.15	5.56e-07	3.35e-07
0.8	278.15	6.31e-07	3.79e-07
0.8	283.15	7.17e-07	4.3e-07
0.8	288.15	8.19e-07	4.91e-07
0.8	293.15	9.36e-07	5.62e-07
0.8	298.15	1.06e-06	6.4e-07
0.8	303.15	1.23e-06	7.4e-07
0.8	308.15	1.43e-06	8.6e-07
0.8	313.15	1.68e-06	1.01e-06
0.8	318.15	1.96e-06	1.18e-06
0.9	273.15	2.55e-07	1.53e-07
0.9	278.15	2.96e-07	1.78e-07
0.9	283.15	3.46e-07	2.08e-07
0.9	288.15	4.14e-07	2.48e-07
0.9	293.15	4.82e-07	2.89e-07
0.9	298.15	5.66e-07	3.4e-07
0.9	303.15	6.58e-07	3.95e-07
0.9	308.15	7.61e-07	4.57e-07
0.9	313.15	8.79e-07	5.27e-07
0.9	318.15	1e-06	6e-07
0	273.15	0.000445	0.000267
0	278.15	0.00058	0.000348
0	283.15	0.000756	0.000454
0	288.15	0.000982	0.000589
0	293.15	0.00128	0.00077
0	298.15	0.00164	0.00098
0	303.15	0.0021	0.00126
0	308.15	0.00266	0.0016
0	313.15	0.00333	0.002
0	318.15	0.00414	0.00248
