Measured thermophysical data. Liquid-Liquid Equilibrium in the Ternary Systems Water + Cyclohexanone + Benzene or Methyl Isobutyl Carbinol at 303.15 and 323.15 K: Experimental Data and Correlation
Source: J. Chem. Eng. Data, 2017, 10.1021/acs.jced.7b00511
Compound 1: water, H2O, InChI=1S/H2O/h1H2, purity 99.9%
Compound 2: cyclohexanone, C6H10O, InChI=1S/C6H10O/c7-6-4-2-1-3-5-6/h1-5H2, purity 99.5%
Compound 3: benzene, C6H6, InChI=1S/C6H6/c1-2-4-6-5-3-1/h1-6H, purity 99%
Compound 4: 4-methyl-2-pentanol, C6H14O, InChI=1S/C6H14O/c1-5(2)4-6(3)7/h5-7H,4H2,1-3H3, purity 99%

System: water + cyclohexanone + benzene; phases: Liquid mixture 2, Liquid mixture 1
Fixed: Pressure, kPa = 101.3
Property: Mole fraction of cyclohexanone (Liquid mixture 2); method: Chromatography
Property: Mole fraction of water (Liquid mixture 1); method: Chromatography
Property: Mole fraction of cyclohexanone (Liquid mixture 1); method: Chromatography
Temperature, K	Mole fraction of water	Mole fraction of cyclohexanone	uncertainty	Mole fraction of water	uncertainty	Mole fraction of cyclohexanone	uncertainty
303.15	0.9988	0.0001	0.0001	0.0049	0.004	0.0082	
303.15	0.9985	0.0006	0.0006	0.0062	0.004	0.0498	
303.15	0.998	0.0008	0.0008	0.0075	0.004	0.0689	
303.15	0.9978	0.0012	0.0012	0.0088	0.004	0.0957	
303.15	0.9973	0.0016	0.0016	0.0133	0.004	0.1244	
303.15	0.9971	0.0018	0.0018	0.0145	0.004	0.1523	
303.15	0.9967	0.0022	0.0022	0.0155	0.004	0.1821	
323.15	0.9991	0.0001	0.0001	0.0076	0.004	0.007	
323.15	0.9983	0.0004	0.0004	0.009	0.004	0.0324	
323.15	0.998	0.0006	0.0006	0.0106	0.004	0.0506	
323.15	0.9978	0.0007	0.0007	0.0115	0.004	0.0659	
323.15	0.9975	0.0009	0.0009	0.0126	0.004	0.0885	
323.15	0.9965	0.0019	0.0019	0.0158	0.004	0.1208	
323.15	0.9958	0.002	0.002	0.0189	0.004	0.1535	
323.15	0.9959	0.0022	0.0022	0.0203	0.004	0.1825	
303.15	0.9985	0.0004	0.0004	0.0053	0.004	0.0338	

System: water + cyclohexanone + 4-methyl-2-pentanol; phases: Liquid mixture 2, Liquid mixture 1
Fixed: Pressure, kPa = 101.3
Property: Mole fraction of water (Liquid mixture 2); method: Chromatography
Property: Mole fraction of water (Liquid mixture 1); method: Chromatography
Property: Mole fraction of cyclohexanone (Liquid mixture 1); method: Chromatography
Temperature, K	Mole fraction of cyclohexanone	Mole fraction of water	uncertainty	Mole fraction of water	uncertainty	Mole fraction of cyclohexanone	uncertainty
303.15	0.0005	0.995	0.004	0.2271	0.0401	0.0228	
303.15	0.0019	0.9939	0.004	0.2467	0.04	0.0923	
303.15	0.0025	0.9934	0.004	0.2473	0.04	0.1165	
303.15	0.0035	0.9934	0.004	0.2591	0.0401	0.1612	
303.15	0.0039	0.9931	0.004	0.2653	0.0401	0.1824	
303.15	0.0045	0.9924	0.004	0.2686	0.0401	0.2042	
303.15	0.005	0.992	0.004	0.2783	0.0401	0.2239	
323.15	0.0004	0.9956	0.004	0.2541	0.0401	0.0235	
323.15	0.0008	0.9951	0.004	0.267	0.0401	0.0464	
323.15	0.0013	0.9946	0.004	0.2821	0.0401	0.0682	
323.15	0.0017	0.9949	0.004	0.2912	0.0401	0.0912	
323.15	0.0027	0.9932	0.004	0.2975	0.0401	0.1339	
323.15	0.0036	0.9931	0.004	0.3041	0.0401	0.1777	
323.15	0.0039	0.993	0.004	0.309	0.0401	0.1982	
323.15	0.0042	0.9932	0.004	0.3222	0.0402	0.2151	
303.15	0.001	0.9948	0.004	0.2406	0.0401	0.0467	
