Measured thermophysical data. Investigation of Ternary Phase Diagrams of (Water + Butyric Acid + Phenyl Acetate) at Different Temperatures
Source: J. Chem. Eng. Data, 2016, 10.1021/acs.jced.5b00950
Compound 1: water, H2O, InChI=1S/H2O/h1H2, purity 99.8%
Compound 2: butanoic acid, C4H8O2, InChI=1S/C4H8O2/c1-2-3-4(5)6/h2-3H2,1H3,(H,5,6), purity 99%
Compound 3: phenyl ethanoate, C8H8O2, InChI=1S/C8H8O2/c1-7(9)10-8-5-3-2-4-6-8/h2-6H,1H3, purity 99%

System: water; phases: Liquid
Property: Mass density, kg/m3 (Liquid); method: Vibrating tube method
Temperature, K	Pressure, kPa	Mass density, kg/m3	uncertainty
298.2	101.325	999.9	2.01

System: water; phases: Liquid
Property: Refractive index (Na D-line) (Liquid); method: Standard Abbe refractometry
Temperature, K	Pressure, kPa	Refractive index (Na D-line)	uncertainty
298.2	101.325	1.3324	0.002

System: butanoic acid; phases: Liquid
Property: Mass density, kg/m3 (Liquid); method: Vibrating tube method
Temperature, K	Pressure, kPa	Mass density, kg/m3	uncertainty
298.2	101.325	952.8	2.02

System: butanoic acid; phases: Liquid
Property: Refractive index (Na D-line) (Liquid); method: Standard Abbe refractometry
Temperature, K	Pressure, kPa	Refractive index (Na D-line)	uncertainty
298.2	101.325	1.3964	0.002

System: phenyl ethanoate; phases: Liquid
Property: Mass density, kg/m3 (Liquid); method: Vibrating tube method
Temperature, K	Pressure, kPa	Mass density, kg/m3	uncertainty
298.2	101.325	1073	2.03

System: phenyl ethanoate; phases: Liquid
Property: Refractive index (Na D-line) (Liquid); method: Standard Abbe refractometry
Temperature, K	Pressure, kPa	Refractive index (Na D-line)	uncertainty
298.2	101.325	1.5012	0.002

System: butanoic acid + phenyl ethanoate + water; phases: Liquid mixture 1, Liquid mixture 2
Fixed: Pressure, kPa = 101.3
Property: Mass fraction of butanoic acid (Liquid mixture 1); method: Titration method
Temperature, K	Mass fraction of water	Mass fraction of butanoic acid	uncertainty
298.15	0.9969	0	
298.15	0.887	0.1081	0.0555
298.15	0.7802	0.2078	0.0547
298.15	0.6883	0.291	0.0549
298.15	0.586	0.3862	0.0547
298.15	0.4771	0.4791	0.0522
298.15	0.365	0.5554	0.0464
298.15	0.2561	0.5881	0.0418
298.15	0.122	0.5343	0.0489
298.15	0.1043	0.5194	0.0542
298.15	0.0704	0.4624	0.1074
298.15	0.0352	0.3832	0.0808
298.15	0.0266	0.2955	0.1093
298.15	0.0145	0.1962	0.08
298.15	0.0088	0.1055	0.0649
298.15	0.0055	0	
308.15	0.9964	0	
308.15	0.8921	0.1002	0.0554
308.15	0.7904	0.197	0.0547
308.15	0.6878	0.2888	0.0543
308.15	0.577	0.388	0.0547
308.15	0.4806	0.4738	0.0523
308.15	0.3639	0.5526	0.0462
308.15	0.251	0.5856	0.0419
308.15	0.1189	0.5336	0.0474
308.15	0.1015	0.5186	0.0533
308.15	0.0662	0.4696	0.123
308.15	0.0332	0.3772	0.0786
308.15	0.0274	0.2906	0.0786
308.15	0.0124	0.2291	0.0662
308.15	0.0084	0.1054	0.0637
308.15	0.0044	0	
318.15	0.9964	0	
318.15	0.8894	0.1025	0.0555
318.15	0.792	0.1958	0.0546
318.15	0.6529	0.3198	0.0544
318.15	0.5727	0.3921	0.0543
318.15	0.4471	0.4999	0.052
318.15	0.3847	0.5303	0.045
318.15	0.2483	0.5791	0.0418
318.15	0.0993	0.5199	0.0535
318.15	0.0659	0.4674	0.0687
318.15	0.0311	0.3828	0.075
318.15	0.0274	0.2929	0.0957
318.15	0.0121	0.1984	0.0727
318.15	0.008	0.1038	0.0643
318.15	0.0039	0	

System: butanoic acid + phenyl ethanoate + water; phases: Liquid mixture 1, Liquid mixture 2
Fixed: Pressure, kPa = 101.3
Property: Mass fraction of water (Liquid mixture 1); method: Chromatography
Property: Mass fraction of water (Liquid mixture 2); method: Chromatography
Property: Mass fraction of butanoic acid (Liquid mixture 2); method: Chromatography
Temperature, K	Mass fraction of butanoic acid	Mass fraction of water	uncertainty	Mass fraction of water	uncertainty	Mass fraction of butanoic acid	uncertainty
298.15	0.0287	0.9675	0.0325	0.0094	0.0094	0.0874	
308.15	0.0864	0.9042	0.04	0.0565	0.0411	0.4407	
318.15	0.0296	0.9665	0.0335	0.0097	0.0097	0.0876	
318.15	0.0458	0.9483	0.04	0.0175	0.0175	0.1777	
318.15	0.0585	0.9343	0.04	0.0264	0.0264	0.2683	
318.15	0.0731	0.9184	0.04	0.0375	0.0375	0.3554	
318.15	0.0858	0.9045	0.04	0.0592	0.0412	0.4418	
298.15	0.0457	0.9482	0.04	0.0147	0.0147	0.1746	
298.15	0.0595	0.9331	0.04	0.0257	0.0257	0.2694	
298.15	0.0719	0.9192	0.04	0.0353	0.0353	0.354	
298.15	0.0846	0.9049	0.04	0.0581	0.0414	0.4402	
308.15	0.0296	0.9658	0.0342	0.0089	0.0089	0.0874	
308.15	0.0463	0.9475	0.04	0.0184	0.0184	0.1784	
308.15	0.0608	0.9317	0.04	0.0262	0.0262	0.2678	
308.15	0.0724	0.919	0.04	0.0369	0.0369	0.3535	

System: phenyl ethanoate + water; phases: Liquid mixture 1, Liquid mixture 2
Fixed: Pressure, kPa = 101.3
Property: Mass fraction of water (Liquid mixture 1); method: Titration method
Temperature, K	Mass fraction of water	uncertainty
298.15	0.9969	0.0031
298.15	0.0055	0.0055
308.15	0.9964	0.0036
308.15	0.0044	0.0044
318.15	0.9964	0.0036
318.15	0.0039	0.0039
