Measured thermophysical data. Solid-Liquid Equilibrium of Rebaudioside A in Pure and Binary Mixed Solvents at T = (288.15 to 328.15) K
Source: J. Chem. Eng. Data, 2018, 10.1021/acs.jced.8b00780
Compound 1: rebaudioside A, C44H70O23, InChI=1S/C44H70O23/c1-17-11-43-9-5-22-41(2,7-4-8-42(22,3)40(59)66-38-33(58)30(55)26(51)20(14-47)62-38)23(43)6-10-44(17,16-43)67-39-35(65-37-32(57)29(54)25(50)19(13-46)61-37)34(27(52)21(15-48)63-39)64-36-31(56)28(53)24(49)18(12-45)60-36/h18-39,45-58H,1,4-16H2,2-3H3/t18-,19-,20-,21-,22+,23+,24-,25-,26-,27-,28+,29+,30+,31-,32-,33-,34+,35-,36+,37+,38+,39+,41-,42-,43-,44+/m1/s1, purity 98%
Compound 2: methanol, CH4O, InChI=1S/CH4O/c1-2/h2H,1H3
Compound 3: ethanol, C2H6O, InChI=1S/C2H6O/c1-2-3/h3H,2H2,1H3
Compound 4: propan-1-ol, C3H8O, InChI=1S/C3H8O/c1-2-3-4/h4H,2-3H2,1H3
Compound 5: propan-2-ol, C3H8O, InChI=1S/C3H8O/c1-3(2)4/h3-4H,1-2H3
Compound 6: acetonitrile, C2H3N, InChI=1S/C2H3N/c1-2-3/h1H3
Compound 7: 2-methoxyethan-1-ol, C3H8O2, InChI=1S/C3H8O2/c1-5-3-2-4/h4H,2-3H2,1H3
Compound 8: 2-ethoxyethan-1-ol, C4H10O2, InChI=1S/C4H10O2/c1-2-6-4-3-5/h5H,2-4H2,1H3
Compound 9: 2-butoxyethan-1-ol, C6H14O2, InChI=1S/C6H14O2/c1-2-3-5-8-6-4-7/h7H,2-6H2,1H3
Compound 10: 1,2-ethanediol, C2H6O2, InChI=1S/C2H6O2/c3-1-2-4/h3-4H,1-2H2
Compound 11: 1,2-diphenylethanedione, C14H10O2, InChI=1S/C14H10O2/c15-13(11-7-3-1-4-8-11)14(16)12-9-5-2-6-10-12/h1-10H
Compound 12: methyl ethanoate, C3H6O2, InChI=1S/C3H6O2/c1-3(4)5-2/h1-2H3

System: rebaudioside A; phases: Crystal, Liquid, Air at 1 atmosphere
Property: Normal melting temperature, K (Crystal); method: DTA
Normal melting temperature, K	uncertainty
505.13	1.06

System: rebaudioside A + methanol; phases: Liquid, Crystal
Fixed: Pressure, kPa = 100
Property: Mole fraction of rebaudioside A (Liquid); method: Chromatography
Temperature, K	Mole fraction of rebaudioside A	uncertainty
288.15	0.000166	1e-05
298.15	0.000171	1e-05
308.15	0.000179	1.1e-05
318.15	0.000199	1.2e-05
328.15	0.000228	1.4e-05

System: rebaudioside A + ethanol; phases: Liquid, Crystal
Fixed: Pressure, kPa = 100
Property: Mole fraction of rebaudioside A (Liquid); method: Chromatography
Temperature, K	Mole fraction of rebaudioside A	uncertainty
288.15	8.5e-05	5e-06
298.15	8.7e-05	5e-06
308.15	8.9e-05	5e-06
318.15	9.1e-05	5e-06
328.15	9.3e-05	6e-06

System: rebaudioside A + propan-1-ol; phases: Liquid, Crystal
Fixed: Pressure, kPa = 100
Property: Mole fraction of rebaudioside A (Liquid); method: Chromatography
Temperature, K	Mole fraction of rebaudioside A	uncertainty
288.15	1.9e-05	1e-06
298.15	2.1e-05	1e-06
308.15	2.2e-05	1e-06
318.15	2.4e-05	2e-06
328.15	3.1e-05	2e-06

System: rebaudioside A + propan-2-ol; phases: Liquid, Crystal
Fixed: Pressure, kPa = 100
Property: Mole fraction of rebaudioside A (Liquid); method: Chromatography
Temperature, K	Mole fraction of rebaudioside A	uncertainty
288.15	1.8e-05	1e-06
298.15	2.1e-05	1e-06
308.15	2.1e-05	1e-06
318.15	2.4e-05	2e-06
328.15	3e-05	2e-06

System: rebaudioside A + acetonitrile; phases: Liquid, Crystal
Fixed: Pressure, kPa = 100
Property: Mole fraction of rebaudioside A (Liquid); method: Chromatography
Temperature, K	Mole fraction of rebaudioside A	uncertainty
288.15	4e-06	2e-07
298.15	4.1e-06	3e-07
308.15	4.1e-06	3e-07
318.15	4.2e-06	3e-07
328.15	4.3e-06	3e-07

System: rebaudioside A + 2-methoxyethan-1-ol; phases: Liquid, Crystal
Fixed: Pressure, kPa = 100
Property: Mole fraction of rebaudioside A (Liquid); method: Chromatography
Temperature, K	Mole fraction of rebaudioside A	uncertainty
288.15	0.002194	0.000132
298.15	0.002543	0.000153
308.15	0.002827	0.00017
318.15	0.002948	0.000177
328.15	0.002976	0.000179

System: rebaudioside A + 2-ethoxyethan-1-ol; phases: Liquid, Crystal
Fixed: Pressure, kPa = 100
Property: Mole fraction of rebaudioside A (Liquid); method: Chromatography
Temperature, K	Mole fraction of rebaudioside A	uncertainty
288.15	0.000593	3.6e-05
298.15	0.000617	3.7e-05
308.15	0.000633	3.8e-05
318.15	0.000645	3.9e-05
328.15	0.000651	3.9e-05

System: rebaudioside A + 2-butoxyethan-1-ol; phases: Liquid, Crystal
Fixed: Pressure, kPa = 100
Property: Mole fraction of rebaudioside A (Liquid); method: Chromatography
Temperature, K	Mole fraction of rebaudioside A	uncertainty
288.15	0.000158	1e-05
298.15	0.000161	1e-05
308.15	0.000168	1e-05
318.15	0.000172	1e-05
328.15	0.000178	1.1e-05

System: rebaudioside A + 1,2-ethanediol; phases: Liquid, Crystal
Fixed: Pressure, kPa = 100
Property: Mole fraction of rebaudioside A (Liquid); method: Chromatography
Temperature, K	Mole fraction of rebaudioside A	uncertainty
288.15	0.000886	5.3e-05
298.15	0.000926	5.6e-05
308.15	0.000972	5.8e-05
318.15	0.000998	6e-05
328.15	0.001008	6.1e-05

System: rebaudioside A + methanol + ethanol; phases: Liquid, Crystal
Fixed: Pressure, kPa = 100
Property: Mole fraction of rebaudioside A (Liquid); method: Chromatography
Solvent: Mole fraction of ethanol	Temperature, K	Mole fraction of rebaudioside A	uncertainty
0.101	288.15	0.000122	7e-06
0.101	298.15	0.000127	8e-06
0.101	308.15	0.000132	8e-06
0.101	318.15	0.000139	8e-06
0.101	328.15	0.000155	9e-06
0.201	288.15	0.000108	7e-06
0.201	298.15	0.000112	7e-06
0.201	308.15	0.000117	7e-06
0.201	318.15	0.000124	7e-06
0.201	328.15	0.000141	8e-06
0.309	288.15	9.3e-05	6e-06
0.309	298.15	9.6e-05	6e-06
0.309	308.15	0.000103	6e-06
0.309	318.15	0.000106	6e-06
0.309	328.15	0.00012	7e-06
0.406	288.15	8.7e-05	5e-06
0.406	298.15	8.8e-05	5e-06
0.406	308.15	9e-05	5e-06
0.406	318.15	9.6e-05	6e-06
0.406	328.15	0.000102	6e-06
0	288.15	0.000166	1e-05
0	298.15	0.000171	1e-05
0	308.15	0.000179	1.1e-05
0	318.15	0.000199	1.2e-05
0	328.15	0.000228	1.4e-05
1	288.15	8.5e-05	5e-06
1	298.15	8.7e-05	5e-06
1	308.15	8.9e-05	5e-06
1	318.15	9.1e-05	5e-06
1	328.15	9.3e-05	6e-06

System: rebaudioside A + 2-methoxyethan-1-ol + ethanol; phases: Liquid, Crystal
Fixed: Pressure, kPa = 100
Property: Mole fraction of rebaudioside A (Liquid); method: Chromatography
Solvent: Mole fraction of ethanol	Temperature, K	Mole fraction of rebaudioside A	uncertainty
0.101	288.15	0.002061	0.000124
0.101	298.15	0.002336	0.00014
0.101	308.15	0.002525	0.000152
0.101	318.15	0.002601	0.000156
0.101	328.15	0.002645	0.000159
0.201	288.15	0.001954	0.000117
0.201	298.15	0.002134	0.000128
0.201	308.15	0.002221	0.000133
0.201	318.15	0.002302	0.000138
0.201	328.15	0.002326	0.00014
0.301	288.15	0.00193	0.000116
0.301	298.15	0.002059	0.000124
0.301	308.15	0.002096	0.000126
0.301	318.15	0.002137	0.000128
0.301	328.15	0.002165	0.00013
0.405	288.15	0.001897	0.000114
0.405	298.15	0.001942	0.000117
0.405	308.15	0.001973	0.000119
0.405	318.15	0.002008	0.000121
0.405	328.15	0.002018	0.000121
1	288.15	8.5e-05	5e-06
1	298.15	8.7e-05	5e-06
1	308.15	8.9e-05	5e-06
1	318.15	9.1e-05	5e-06
1	328.15	9.3e-05	6e-06
0	288.15	0.002194	0.000132
0	298.15	0.002543	0.000153
0	308.15	0.002827	0.00017
0	318.15	0.002948	0.000177
0	328.15	0.002976	0.000179

System: 1,2-diphenylethanedione + acetonitrile; phases: Liquid, Crystal
Property: Mole fraction of 1,2-diphenylethanedione (Liquid); method: Chromatography
Temperature, K	Pressure, kPa	Mole fraction of 1,2-diphenylethanedione	uncertainty
298.15	100	0.0639	0.0038

System: 1,2-diphenylethanedione + methyl ethanoate; phases: Liquid, Crystal
Property: Mole fraction of 1,2-diphenylethanedione (Liquid); method: Chromatography
Temperature, K	Pressure, kPa	Mole fraction of 1,2-diphenylethanedione	uncertainty
298.15	100	0.149	0.009
