Measured thermophysical data. Viscosity and Density of Binary Mixtures of Ethanol + Igepal (CO-520, CO-630, CO-720, and CA-720)
Source: J. Chem. Eng. Data, 2019, 10.1021/acs.jced.8b00793
Compound 1: ethanol, C2H6O, InChI=1S/C2H6O/c1-2-3/h3H,2H2,1H3, purity 99.5%

System: ethanol; phases: Liquid
Fixed: Pressure, kPa = 100
Property: Mass density, kg/m3 (Liquid); method: Vibrating tube method
Temperature, K	Mass density, kg/m3	uncertainty
293.15	790.7	3
303.15	782.2	3
313.15	773.4	3
323.15	760.1	3

System: ethanol; phases: Liquid
Fixed: Pressure, kPa = 100
Property: Viscosity, Pa*s (Liquid); method: Concentric cylinders viscometry
Temperature, K	Viscosity, Pa*s	uncertainty
293.15	0.00123	5e-05
303.15	0.00102	4e-05
313.15	0.00085	4e-05
323.15	0.00071	3e-05
