Measured thermophysical data. Densities and Viscosities for Binary Liquid Mixtures of Biodiesel + 1-Pentanol, 2-Pentanol, or 2-Methyl-1-Butanol from (288.15 to 338.15) K at 0.1 MPa
Source: J. Chem. Eng. Data, 2018, 10.1021/acs.jced.7b00996
Compound 1: pentan-1-ol, C5H12O, InChI=1S/C5H12O/c1-2-3-4-5-6/h6H,2-5H2,1H3, purity 99.8%
Compound 2: pentan-2-ol, C5H12O, InChI=1S/C5H12O/c1-3-4-5(2)6/h5-6H,3-4H2,1-2H3, purity 99.7%
Compound 3: 2-methyl-1-butanol, C5H12O, InChI=1S/C5H12O/c1-3-5(2)4-6/h5-6H,3-4H2,1-2H3, purity 99.9%

System: pentan-1-ol; phases: Liquid
Fixed: Pressure, kPa = 100
Property: Mass density, kg/m3 (Liquid); method: Vibrating tube method
Temperature, K	Mass density, kg/m3	uncertainty
288.15	818.59	0.61
293.15	814.89	0.61
298.15	811.23	0.61
303.15	807.55	0.61
308.15	803.83	0.61
313.15	800.08	0.61
318.15	796.29	0.61
323.15	792.46	0.61
328.15	788.56	0.61
333.15	784.66	0.61
338.15	780.7	0.61

System: pentan-1-ol; phases: Liquid
Fixed: Pressure, kPa = 100
Property: Viscosity, Pa*s (Liquid); method: Capillary tube (Ostwald; Ubbelohde) method
Temperature, K	Viscosity, Pa*s	uncertainty
288.15	0.0047	9.7e-05
293.15	0.004045	8.4e-05
298.15	0.00349	7.2e-05
303.15	0.003034	6.3e-05
308.15	0.002674	5.5e-05
313.15	0.002356	4.9e-05
318.15	0.002052	4.3e-05
323.15	0.001811	3.8e-05
328.15	0.001609	3.3e-05
333.15	0.001433	3e-05
338.15	0.001284	2.7e-05

System: pentan-2-ol; phases: Liquid
Fixed: Pressure, kPa = 100
Property: Mass density, kg/m3 (Liquid); method: Vibrating tube method
Temperature, K	Mass density, kg/m3	uncertainty
288.15	813.55	0.61
293.15	809.59	0.61
298.15	805.55	0.61
303.15	801.44	0.61
308.15	797.25	0.61
313.15	792.98	0.61
318.15	788.63	0.61
323.15	784.19	0.61
328.15	779.67	0.61
333.15	775.07	0.61
338.15	770.37	0.61

System: pentan-2-ol; phases: Liquid
Fixed: Pressure, kPa = 100
Property: Viscosity, Pa*s (Liquid); method: Capillary tube (Ostwald; Ubbelohde) method
Temperature, K	Viscosity, Pa*s	uncertainty
288.15	0.005063	0.000105
293.15	0.004172	8.7e-05
298.15	0.003412	7.1e-05
303.15	0.002825	5.9e-05
308.15	0.00234	4.9e-05
313.15	0.001993	4.1e-05
318.15	0.001704	3.5e-05
323.15	0.001475	3.1e-05
328.15	0.001303	2.7e-05
333.15	0.001135	2.4e-05
338.15	0.001012	2.1e-05

System: 2-methyl-1-butanol; phases: Liquid
Fixed: Pressure, kPa = 100
Property: Mass density, kg/m3 (Liquid); method: Vibrating tube method
Temperature, K	Mass density, kg/m3	uncertainty
288.15	823.02	0.61
293.15	819.56	0.61
298.15	815.82	0.61
303.15	812.03	0.61
308.15	808.2	0.61
313.15	804.33	0.61
318.15	800.39	0.61
323.15	796.39	0.61
328.15	792.34	0.61
333.15	788.2	0.61
338.15	783.84	0.61

System: 2-methyl-1-butanol; phases: Liquid
Fixed: Pressure, kPa = 100
Property: Viscosity, Pa*s (Liquid); method: Capillary tube (Ostwald; Ubbelohde) method
Temperature, K	Viscosity, Pa*s	uncertainty
288.15	0.006451	0.000133
293.15	0.005285	0.000109
298.15	0.004492	9.3e-05
303.15	0.003813	7.9e-05
308.15	0.003258	6.8e-05
313.15	0.002777	5.8e-05
318.15	0.002375	4.9e-05
323.15	0.002057	4.3e-05
328.15	0.001791	3.7e-05
333.15	0.001573	3.3e-05
338.15	0.001377	2.9e-05
