Measured thermophysical data. Solubility Determination and Modeling of EGCG Peracetate in 12 Pure Solvents at Temperatures from 278.15 to 318.15 K
Source: J. Chem. Eng. Data, 2019, 10.1021/acs.jced.9b00428
Compound 1: (-)-epigallocatechin gallate octaacetate, C38H34O19, InChI=1S/C38H34O19/c1-16(39)48-26-13-28(49-17(2)40)27-15-34(57-38(47)25-11-32(52-20(5)43)37(55-23(8)46)33(12-25)53-21(6)44)35(56-29(27)14-26)24-9-30(50-18(3)41)36(54-22(7)45)31(10-24)51-19(4)42/h9-14,34-35H,15H2,1-8H3/t34-,35-/m1/s1, purity 99%
Compound 2: methanol, CH4O, InChI=1S/CH4O/c1-2/h2H,1H3, purity 99.5%
Compound 3: ethanol, C2H6O, InChI=1S/C2H6O/c1-2-3/h3H,2H2,1H3, purity 99.7%
Compound 4: propan-1-ol, C3H8O, InChI=1S/C3H8O/c1-2-3-4/h4H,2-3H2,1H3, purity 99%
Compound 5: butan-1-ol, C4H10O, InChI=1S/C4H10O/c1-2-3-4-5/h5H,2-4H2,1H3, purity 99.5%
Compound 6: propan-2-ol, C3H8O, InChI=1S/C3H8O/c1-3(2)4/h3-4H,1-2H3, purity 99.7%
Compound 7: butan-2-ol, C4H10O, InChI=1S/C4H10O/c1-3-4(2)5/h4-5H,3H2,1-2H3, purity 98%
Compound 8: pentan-1-ol, C5H12O, InChI=1S/C5H12O/c1-2-3-4-5-6/h6H,2-5H2,1H3, purity 98.5%
Compound 9: hexan-1-ol, C6H14O, InChI=1S/C6H14O/c1-2-3-4-5-6-7/h7H,2-6H2,1H3, purity 98%
Compound 10: 2-methoxyethan-1-ol, C3H8O2, InChI=1S/C3H8O2/c1-5-3-2-4/h4H,2-3H2,1H3, purity 99%
Compound 11: 2-ethoxyethan-1-ol, C4H10O2, InChI=1S/C4H10O2/c1-2-6-4-3-5/h5H,2-4H2,1H3, purity 99%
Compound 12: 2-propoxyethanol, C5H12O2, InChI=1S/C5H12O2/c1-2-4-7-5-3-6/h6H,2-5H2,1H3, purity 99.4%
Compound 13: 2-butoxyethan-1-ol, C6H14O2, InChI=1S/C6H14O2/c1-2-3-5-8-6-4-7/h7H,2-6H2,1H3, purity 99%

System: (-)-epigallocatechin gallate octaacetate + methanol; phases: Liquid, Glass
Fixed: Pressure, kPa = 100
Property: Mole fraction of (-)-epigallocatechin gallate octaacetate (Liquid); method: Chromatography
Temperature, K	Mole fraction of (-)-epigallocatechin gallate octaacetate	uncertainty
278.15	2.05e-06	8.2e-07
288.15	1.65e-05	6.6e-06
298.15	5.8e-05	2.32e-05
308.15	0.0001839	7.37e-05
318.15	0.000612	0.0002451

System: (-)-epigallocatechin gallate octaacetate + ethanol; phases: Liquid, Glass
Fixed: Pressure, kPa = 100
Property: Mole fraction of (-)-epigallocatechin gallate octaacetate (Liquid); method: Chromatography
Temperature, K	Mole fraction of (-)-epigallocatechin gallate octaacetate	uncertainty
278.15	5.41e-05	2.17e-05
288.15	9.24e-05	3.7e-05
298.15	0.000175	7.01e-05
308.15	0.0003874	0.0001552
318.15	0.0007137	0.0002859

System: (-)-epigallocatechin gallate octaacetate + propan-1-ol; phases: Liquid, Glass
Fixed: Pressure, kPa = 100
Property: Mole fraction of (-)-epigallocatechin gallate octaacetate (Liquid); method: Chromatography
Temperature, K	Mole fraction of (-)-epigallocatechin gallate octaacetate	uncertainty
278.15	1.22e-05	4.9e-06
288.15	3.79e-05	1.52e-05
298.15	9.06e-05	3.63e-05
308.15	0.0001947	7.8e-05
318.15	0.0006563	0.0002629

System: (-)-epigallocatechin gallate octaacetate + butan-1-ol; phases: Liquid, Glass
Fixed: Pressure, kPa = 100
Property: Mole fraction of (-)-epigallocatechin gallate octaacetate (Liquid); method: Chromatography
Temperature, K	Mole fraction of (-)-epigallocatechin gallate octaacetate	uncertainty
278.15	3.9e-06	1.56e-06
288.15	1.95e-05	7.8e-06
298.15	5.41e-05	2.17e-05
308.15	0.0001356	5.43e-05
318.15	0.0003487	0.0001397

System: (-)-epigallocatechin gallate octaacetate + propan-2-ol; phases: Liquid, Glass
Fixed: Pressure, kPa = 100
Property: Mole fraction of (-)-epigallocatechin gallate octaacetate (Liquid); method: Chromatography
Temperature, K	Mole fraction of (-)-epigallocatechin gallate octaacetate	uncertainty
278.15	6e-06	2.4e-06
288.15	1.67e-05	6.7e-06
298.15	5.53e-05	2.22e-05
308.15	0.0001939	7.77e-05
318.15	0.0004807	0.0001926

System: (-)-epigallocatechin gallate octaacetate + butan-2-ol; phases: Liquid, Glass
Fixed: Pressure, kPa = 100
Property: Mole fraction of (-)-epigallocatechin gallate octaacetate (Liquid); method: Chromatography
Temperature, K	Mole fraction of (-)-epigallocatechin gallate octaacetate	uncertainty
278.15	5.04e-06	2.02e-06
288.15	2.12e-05	8.5e-06
298.15	4.97e-05	1.99e-05
308.15	0.0001399	5.61e-05
318.15	0.0006362	0.0002548

System: (-)-epigallocatechin gallate octaacetate + pentan-1-ol; phases: Liquid, Glass
Fixed: Pressure, kPa = 100
Property: Mole fraction of (-)-epigallocatechin gallate octaacetate (Liquid); method: Chromatography
Temperature, K	Mole fraction of (-)-epigallocatechin gallate octaacetate	uncertainty
278.15	9.85e-07	3.95e-07
288.15	5.7e-06	2.28e-06
298.15	3.01e-05	1.21e-05
308.15	8.6e-05	3.44e-05
318.15	0.0001867	7.48e-05

System: (-)-epigallocatechin gallate octaacetate + hexan-1-ol; phases: Liquid, Glass
Fixed: Pressure, kPa = 100
Property: Mole fraction of (-)-epigallocatechin gallate octaacetate (Liquid); method: Chromatography
Temperature, K	Mole fraction of (-)-epigallocatechin gallate octaacetate	uncertainty
278.15	6.8e-07	2.73e-07
288.15	3.87e-06	1.55e-06
298.15	1.79e-05	7.2e-06
308.15	5.35e-05	2.14e-05
318.15	0.0001379	5.52e-05

System: (-)-epigallocatechin gallate octaacetate + 2-methoxyethan-1-ol; phases: Liquid, Glass
Fixed: Pressure, kPa = 100
Property: Mole fraction of (-)-epigallocatechin gallate octaacetate (Liquid); method: Chromatography
Temperature, K	Mole fraction of (-)-epigallocatechin gallate octaacetate	uncertainty
278.15	0.01577	0.00632
288.15	0.02543	0.01019
298.15	0.03645	0.0146
308.15	0.05585	0.02237
318.15	0.0815	0.03265

System: (-)-epigallocatechin gallate octaacetate + 2-ethoxyethan-1-ol; phases: Liquid, Glass
Fixed: Pressure, kPa = 100
Property: Mole fraction of (-)-epigallocatechin gallate octaacetate (Liquid); method: Chromatography
Temperature, K	Mole fraction of (-)-epigallocatechin gallate octaacetate	uncertainty
278.15	0.009043	0.003622
288.15	0.01512	0.00606
298.15	0.0272	0.0109
308.15	0.04362	0.01747
318.15	0.07008	0.02807

System: (-)-epigallocatechin gallate octaacetate + 2-propoxyethanol; phases: Liquid, Glass
Fixed: Pressure, kPa = 100
Property: Mole fraction of (-)-epigallocatechin gallate octaacetate (Liquid); method: Chromatography
Temperature, K	Mole fraction of (-)-epigallocatechin gallate octaacetate	uncertainty
278.15	0.002754	0.001103
288.15	0.003518	0.001409
298.15	0.00456	0.001827
308.15	0.0059	0.002363
318.15	0.008093	0.003242

System: (-)-epigallocatechin gallate octaacetate + 2-butoxyethan-1-ol; phases: Liquid, Glass
Fixed: Pressure, kPa = 100
Property: Mole fraction of (-)-epigallocatechin gallate octaacetate (Liquid); method: Chromatography
Temperature, K	Mole fraction of (-)-epigallocatechin gallate octaacetate	uncertainty
278.15	0.001416	0.000567
288.15	0.001953	0.000782
298.15	0.002684	0.001075
308.15	0.003836	0.001537
318.15	0.005594	0.002241
