Measured thermophysical data. Densities and Viscosities for Aqueous Solutions of Sodium Chlorate and Potassium Chlorate + Methanol from (288.15 to 318.15) K at 0.1 MPa
Source: J. Chem. Eng. Data, 2019, 10.1021/acs.jced.8b01008
Compound 1: methanol, CH4O, InChI=1S/CH4O/c1-2/h2H,1H3, purity 99.97%
Compound 2: water, H2O, InChI=1S/H2O/h1H2, purity 99.97%
Compound 3: sodium chlorate, ClNaO3, InChI=1S/ClHO3.Na/c2-1(3)4;/h(H,2,3,4);/q;+1/p-1, purity 99.97%
Compound 4: potassium chlorate, ClKO3, InChI=1S/ClHO3.K/c2-1(3)4;/h(H,2,3,4);/q;+1/p-1, purity 99.96%

System: water; phases: Liquid
Fixed: Pressure, kPa = 100
Property: Mass density, kg/m3 (Liquid); method: Vibrating tube method
Temperature, K	Mass density, kg/m3	uncertainty
288.15	999.115	0.501
293.15	998.216	0.501
298.15	997.055	0.502
303.15	995.654	0.502
308.15	994.037	0.502
313.15	992.218	0.502
318.15	990.214	0.503

System: water; phases: Liquid
Fixed: Pressure, kPa = 100
Property: Viscosity, Pa*s (Liquid); method: Falling or rolling sphere viscometry
Temperature, K	Viscosity, Pa*s	uncertainty
288.15	0.001122	3.5e-05
293.15	0.00099	3.1e-05
298.15	0.000882	2.7e-05
303.15	0.000793	2.5e-05
308.15	0.000719	2.2e-05
313.15	0.000656	2e-05
318.15	0.000602	1.9e-05

System: sodium chlorate + water; phases: Liquid
Fixed: Pressure, kPa = 100
Property: Mass density, kg/m3 (Liquid); method: Vibrating tube method
Temperature, K	Molality, mol/kg of sodium chlorate	Mass density, kg/m3	uncertainty
288.15	0	999.115	0.515
288.15	0.1	1006.54	0.51
288.15	0.203	1013.73	0.51
288.15	0.301	1020.46	0.51
288.15	0.406	1027.69	0.51
288.15	0.501	1034.24	0.51
288.15	0.61	1041.64	0.51
288.15	0.709	1048.27	0.51
288.15	0.809	1055.01	0.51
288.15	0.892	1060.47	0.51
288.15	0.995	1067.22	0.51
293.15	0	998.216	0.515
293.15	0.1	1005.54	0.51
293.15	0.203	1012.6	0.51
293.15	0.301	1019.24	0.51
293.15	0.406	1026.4	0.51
293.15	0.501	1032.87	0.51
293.15	0.61	1040.18	0.51
293.15	0.709	1046.73	0.51
293.15	0.809	1053.39	0.51
293.15	0.892	1058.78	0.51
293.15	0.995	1065.47	0.51
298.15	0	997.055	0.515
298.15	0.1	1004.29	0.51
298.15	0.203	1011.24	0.51
298.15	0.301	1017.83	0.51
298.15	0.406	1024.9	0.51
298.15	0.501	1031.29	0.51
298.15	0.61	1038.52	0.51
298.15	0.709	1045	0.51
298.15	0.809	1051.59	0.51
298.15	0.892	1056.91	0.51
298.15	0.995	1063.55	0.51
303.15	0	995.654	0.515
303.15	0.1	1002.81	0.51
303.15	0.203	1009.67	0.51
303.15	0.301	1016.21	0.51
303.15	0.406	1023.2	0.51
303.15	0.501	1029.53	0.51
303.15	0.61	1036.69	0.51
303.15	0.709	1043.09	0.51
303.15	0.809	1049.62	0.51
303.15	0.892	1054.88	0.51
303.15	0.995	1061.46	0.51
308.15	0	994.037	0.515
308.15	0.1	1001.12	0.51
308.15	0.203	1007.92	0.51
308.15	0.301	1014.39	0.51
308.15	0.406	1021.31	0.51
308.15	0.501	1027.58	0.51
308.15	0.61	1034.68	0.51
308.15	0.709	1041.02	0.51
308.15	0.809	1047.49	0.51
308.15	0.892	1052.69	0.51
308.15	0.995	1059.23	0.51
313.15	0	992.218	0.515
313.15	0.1	999.24	0.51
313.15	0.203	1005.98	0.51
313.15	0.301	1012.38	0.51
313.15	0.406	1019.26	0.51
313.15	0.501	1025.47	0.51
313.15	0.61	1032.51	0.51
313.15	0.709	1038.8	0.51
313.15	0.809	1045.2	0.51
313.15	0.892	1050.36	0.51
313.15	0.995	1056.81	0.51
318.15	0	990.214	0.515
318.15	0.1	997.18	0.51
318.15	0.203	1003.88	0.51
318.15	0.301	1010.22	0.51
318.15	0.406	1017.04	0.51
318.15	0.501	1023.2	0.51
318.15	0.61	1030.19	0.51
318.15	0.709	1036.43	0.51
318.15	0.809	1042.78	0.51
318.15	0.892	1047.83	0.51
318.15	0.995	1054.22	0.51

System: sodium chlorate + water; phases: Liquid
Fixed: Pressure, kPa = 100
Property: Viscosity, Pa*s (Liquid); method: Falling or rolling sphere viscometry
Temperature, K	Molality, mol/kg of sodium chlorate	Viscosity, Pa*s	uncertainty
288.15	0	0.001122	3.5e-05
288.15	0.1	0.001126	3.5e-05
288.15	0.203	0.001134	3.5e-05
288.15	0.301	0.001142	3.5e-05
288.15	0.406	0.00115	3.6e-05
288.15	0.501	0.001157	3.6e-05
288.15	0.61	0.001165	3.6e-05
288.15	0.709	0.001177	3.6e-05
288.15	0.809	0.001189	3.7e-05
288.15	0.892	0.0012	3.7e-05
288.15	0.995	0.001208	3.7e-05
293.15	0	0.00099	3.1e-05
293.15	0.1	0.000996	3.1e-05
293.15	0.203	0.001007	3.1e-05
293.15	0.301	0.001017	3.1e-05
293.15	0.406	0.001025	3.2e-05
293.15	0.501	0.001033	3.2e-05
293.15	0.61	0.001042	3.2e-05
293.15	0.709	0.00105	3.2e-05
293.15	0.809	0.001058	3.3e-05
293.15	0.892	0.001067	3.3e-05
293.15	0.995	0.001076	3.3e-05
298.15	0	0.000882	2.7e-05
298.15	0.1	0.000889	2.7e-05
298.15	0.203	0.000897	2.8e-05
298.15	0.301	0.000908	2.8e-05
298.15	0.406	0.000918	2.8e-05
298.15	0.501	0.000926	2.9e-05
298.15	0.61	0.000933	2.9e-05
298.15	0.709	0.000942	2.9e-05
298.15	0.809	0.000949	2.9e-05
298.15	0.892	0.000957	3e-05
298.15	0.995	0.000965	3e-05
303.15	0	0.000793	2.5e-05
303.15	0.1	0.000801	2.5e-05
303.15	0.203	0.000809	2.5e-05
303.15	0.301	0.000817	2.5e-05
303.15	0.406	0.000827	2.6e-05
303.15	0.501	0.000835	2.6e-05
303.15	0.61	0.000841	2.6e-05
303.15	0.709	0.000849	2.6e-05
303.15	0.809	0.000857	2.6e-05
303.15	0.892	0.000865	2.7e-05
303.15	0.995	0.000873	2.7e-05
308.15	0	0.000719	2.2e-05
308.15	0.1	0.000726	2.2e-05
308.15	0.203	0.000734	2.3e-05
308.15	0.301	0.000742	2.3e-05
308.15	0.406	0.00075	2.3e-05
308.15	0.501	0.000758	2.3e-05
308.15	0.61	0.000765	2.4e-05
308.15	0.709	0.000774	2.4e-05
308.15	0.809	0.000781	2.4e-05
308.15	0.892	0.000788	2.4e-05
308.15	0.995	0.000796	2.5e-05
313.15	0	0.000656	2e-05
313.15	0.1	0.000663	2e-05
313.15	0.203	0.00067	2.1e-05
313.15	0.301	0.000678	2.1e-05
313.15	0.406	0.000685	2.1e-05
313.15	0.501	0.000693	2.1e-05
313.15	0.61	0.0007	2.2e-05
313.15	0.709	0.000708	2.2e-05
313.15	0.809	0.000716	2.2e-05
313.15	0.892	0.000723	2.2e-05
313.15	0.995	0.000729	2.3e-05
318.15	0	0.000602	1.9e-05
318.15	0.1	0.000609	1.9e-05
318.15	0.203	0.000616	1.9e-05
318.15	0.301	0.000623	1.9e-05
318.15	0.406	0.000631	2e-05
318.15	0.501	0.000637	2e-05
318.15	0.61	0.000643	2e-05
318.15	0.709	0.00065	2e-05
318.15	0.809	0.000657	2e-05
318.15	0.892	0.000665	2.1e-05
318.15	0.995	0.000672	2.1e-05

System: potassium chlorate + water; phases: Liquid
Fixed: Pressure, kPa = 100
Property: Mass density, kg/m3 (Liquid); method: Vibrating tube method
Temperature, K	Molality, mol/kg of potassium chlorate	Mass density, kg/m3	uncertainty
288.15	0	999.115	0.517
288.15	0.0101	999.92	0.52
288.15	0.1001	1006.89	0.52
288.15	0.201	1014.52	0.52
288.15	0.3021	1022.1	0.52
288.15	0.4009	1029.41	0.52
288.15	0.5008	1036.68	0.52
293.15	0	998.216	0.52
293.15	0.0101	999.01	0.51
293.15	0.1001	1005.89	0.52
293.15	0.201	1013.44	0.52
293.15	0.3021	1020.93	0.52
293.15	0.4009	1028.17	0.52
293.15	0.5008	1035.37	0.52
298.15	0	997.055	0.52
298.15	0.0101	997.84	0.51
298.15	0.1001	1004.65	0.52
298.15	0.201	1012.12	0.52
298.15	0.3021	1019.54	0.52
298.15	0.4009	1026.71	0.52
298.15	0.5008	1033.84	0.52
303.15	0	995.654	0.52
303.15	0.0101	996.44	0.51
303.15	0.1001	1003.18	0.52
303.15	0.201	1010.58	0.52
303.15	0.3021	1017.94	0.52
303.15	0.4009	1025.04	0.52
303.15	0.5008	1032.12	0.52
308.15	0	994.037	0.519
308.15	0.0101	994.81	0.51
308.15	0.1001	1001.5	0.52
308.15	0.201	1008.84	0.52
308.15	0.3021	1016.14	0.52
308.15	0.4009	1023.18	0.52
308.15	0.5008	1030.2	0.52
313.15	0	992.218	0.519
313.15	0.0101	992.99	0.51
313.15	0.1001	999.62	0.52
313.15	0.201	1006.91	0.52
313.15	0.3021	1014.15	0.52
313.15	0.4009	1021.15	0.52
313.15	0.5008	1028.13	0.52
318.15	0	990.214	0.517
318.15	0.0101	990.98	0.52
318.15	0.1001	997.57	0.52
318.15	0.201	1004.8	0.52
318.15	0.3021	1011.99	0.52
318.15	0.4009	1018.96	0.52
318.15	0.5008	1025.9	0.52

System: potassium chlorate + water; phases: Liquid
Fixed: Pressure, kPa = 100
Property: Viscosity, Pa*s (Liquid); method: Falling or rolling sphere viscometry
Temperature, K	Molality, mol/kg of potassium chlorate	Viscosity, Pa*s	uncertainty
288.15	0	0.001122	3.5e-05
288.15	0.0101	0.001127	3.5e-05
288.15	0.1001	0.001113	3.4e-05
288.15	0.201	0.001105	3.4e-05
288.15	0.3021	0.001101	3.4e-05
288.15	0.4009	0.0011	3.4e-05
288.15	0.5008	0.001105	3.4e-05
293.15	0	0.00099	3.1e-05
293.15	0.0101	0.000995	3.1e-05
293.15	0.1001	0.000984	3e-05
293.15	0.201	0.000979	3e-05
293.15	0.3021	0.000977	3e-05
293.15	0.4009	0.000977	3e-05
293.15	0.5008	0.000983	3e-05
298.15	0	0.000882	2.7e-05
298.15	0.0101	0.000888	2.8e-05
298.15	0.1001	0.000878	2.7e-05
298.15	0.201	0.000874	2.7e-05
298.15	0.3021	0.000873	2.7e-05
298.15	0.4009	0.000876	2.7e-05
298.15	0.5008	0.000881	2.7e-05
303.15	0	0.000793	2.5e-05
303.15	0.0101	0.000799	2.5e-05
303.15	0.1001	0.000789	2.4e-05
303.15	0.201	0.000788	2.4e-05
303.15	0.3021	0.000788	2.4e-05
303.15	0.4009	0.000791	2.4e-05
303.15	0.5008	0.000797	2.5e-05
308.15	0	0.000719	2.2e-05
308.15	0.0101	0.000725	2.2e-05
308.15	0.1001	0.000717	2.2e-05
308.15	0.201	0.000717	2.2e-05
308.15	0.3021	0.000718	2.2e-05
308.15	0.4009	0.00072	2.2e-05
308.15	0.5008	0.000725	2.2e-05
313.15	0	0.000656	2e-05
313.15	0.0101	0.000661	2e-05
313.15	0.1001	0.000655	2e-05
313.15	0.201	0.000656	2e-05
313.15	0.3021	0.000656	2e-05
313.15	0.4009	0.000659	2e-05
313.15	0.5008	0.000665	2.1e-05
318.15	0	0.000602	1.9e-05
318.15	0.0101	0.000607	1.9e-05
318.15	0.1001	0.000602	1.9e-05
318.15	0.201	0.000603	1.9e-05
318.15	0.3021	0.000604	1.9e-05
318.15	0.4009	0.000608	1.9e-05
318.15	0.5008	0.000613	1.9e-05

System: sodium chlorate + methanol + water; phases: Liquid
Fixed: Pressure, kPa = 100
Property: Mass density, kg/m3 (Liquid); method: Vibrating tube method
Temperature, K	Molality, mol/kg of sodium chlorate	Solvent: Mole fraction of methanol	Mass density, kg/m3	uncertainty
288.15	0.1	0.0044	1005	0.59
288.15	0.3	0.0045	1018.99	0.58
288.15	0.5085	0.0045	1033.44	0.59
288.15	0.8055	0.0045	1053.14	0.6
288.15	1.0054	0.0045	1065.91	0.6
293.15	0.1	0.0044	1003.9	0.59
293.15	0.3	0.0045	1017.79	0.58
293.15	0.5085	0.0045	1032.06	0.59
293.15	0.8055	0.0045	1051.52	0.6
293.15	1.0054	0.0045	1064.15	0.6
298.15	0.1	0.0044	1002.64	0.59
298.15	0.3	0.0045	1016.37	0.58
298.15	0.5085	0.0045	1030.47	0.59
298.15	0.8055	0.0045	1049.72	0.6
298.15	1.0054	0.0045	1062.22	0.6
303.15	0.1	0.0044	1001.16	0.59
303.15	0.3	0.0045	1014.74	0.58
303.15	0.5085	0.0045	1028.69	0.59
303.15	0.8055	0.0045	1047.75	0.6
303.15	1.0054	0.0045	1060.14	0.6
308.15	0.1	0.0044	999.47	0.59
308.15	0.3	0.0045	1012.91	0.58
308.15	0.5085	0.0045	1026.74	0.6
308.15	0.8055	0.0045	1045.62	0.61
308.15	1.0054	0.0045	1057.9	0.6
313.15	0.1	0.0044	997.59	0.6
313.15	0.3	0.0045	1010.91	0.58
313.15	0.5085	0.0045	1024.61	0.6
313.15	0.8055	0.0045	1043.34	0.61
313.15	1.0054	0.0045	1055.65	0.61
288.15	0.1009	0.0228	999.87	0.58
288.15	0.3018	0.0229	1014.28	0.58
288.15	0.5014	0.0232	1027.29	0.58
288.15	0.8014	0.0228	1047.01	0.59
288.15	1.0094	0.0229	1060.51	0.59
293.15	0.1009	0.0228	998.66	0.58
293.15	0.3018	0.0229	1013.04	0.58
293.15	0.5014	0.0232	1025.89	0.59
293.15	0.8014	0.0228	1045.38	0.59
293.15	1.0094	0.0229	1058.72	0.59
298.15	0.1009	0.0228	997.25	0.58
298.15	0.3018	0.0229	1011.57	0.59
298.15	0.5014	0.0232	1024.27	0.59
298.15	0.8014	0.0228	1043.55	0.59
298.15	1.0094	0.0229	1056.75	0.59
303.15	0.1009	0.0228	995.73	0.58
303.15	0.3018	0.0229	1009.89	0.59
303.15	0.5014	0.0232	1022.46	0.59
303.15	0.8014	0.0228	1041.55	0.59
303.15	1.0094	0.0229	1054.62	0.59
308.15	0.1009	0.0228	994	0.58
308.15	0.3018	0.0229	1008	0.59
308.15	0.5014	0.0232	1020.46	0.59
308.15	0.8014	0.0228	1039.38	0.59
308.15	1.0094	0.0229	1052.34	0.6
313.15	0.1009	0.0228	992.07	0.59
313.15	0.3018	0.0229	1006.06	0.59
313.15	0.5014	0.0232	1018.29	0.59
313.15	0.8014	0.0228	1037.06	0.6
313.15	1.0094	0.0229	1049.92	0.6
288.15	0.1029	0.0724	987.35	0.56
288.15	0.3001	0.0728	1000.31	0.58
288.15	0.5002	0.0729	1013.69	0.58
288.15	0.8007	0.0728	1033.35	0.58
288.15	1.0003	0.0725	1046.07	0.58
293.15	0.1029	0.0724	986.22	0.57
293.15	0.3001	0.0728	998.78	0.58
293.15	0.5002	0.0729	1012	0.58
293.15	0.8007	0.0728	1031.44	0.58
293.15	1.0003	0.0725	1044.03	0.58
298.15	0.1029	0.0724	984.44	0.57
298.15	0.3001	0.0728	997.04	0.58
298.15	0.5002	0.0729	1010.12	0.58
298.15	0.8007	0.0728	1029.36	0.58
298.15	1.0003	0.0725	1041.87	0.59
303.15	0.1029	0.0724	982.61	0.57
303.15	0.3001	0.0728	995.11	0.58
303.15	0.5002	0.0729	1008.06	0.58
303.15	0.8007	0.0728	1027.13	0.58
303.15	1.0003	0.0725	1039.54	0.59
308.15	0.1029	0.0724	980.6	0.57
308.15	0.3001	0.0728	993	0.59
308.15	0.5002	0.0729	1005.83	0.59
308.15	0.8007	0.0728	1024.74	0.59
308.15	1.0003	0.0725	1036.95	0.59
313.15	0.1029	0.0724	978.43	0.57
313.15	0.3001	0.0728	990.71	0.59
313.15	0.5002	0.0729	1003.44	0.59
313.15	0.8007	0.0728	1022.2	0.6
313.15	1.0003	0.0725	1034.51	0.59
288.15	0.1014	0.1	982.11	0.54
288.15	0.3005	0.1002	994.39	0.55
288.15	0.4998	0.1001	1007.29	0.56
288.15	0.8031	0.1	1027.55	0.57
288.15	1.0038	0.0992	1039.78	0.57
293.15	0.1014	0.1	980.56	0.55
293.15	0.3005	0.1002	992.62	0.56
293.15	0.4998	0.1001	1005.4	0.57
293.15	0.8031	0.1	1025.44	0.57
293.15	1.0038	0.0992	1037.56	0.57
298.15	0.1014	0.1	978.81	0.55
298.15	0.3005	0.1002	990.68	0.56
298.15	0.4998	0.1001	1003.34	0.57
298.15	0.8031	0.1	1023.12	0.57
298.15	1.0038	0.0992	1035.17	0.58
303.15	0.1014	0.1	976.86	0.55
303.15	0.3005	0.1002	988.55	0.56
303.15	0.4998	0.1001	1001.19	0.57
303.15	0.8031	0.1	1020.77	0.57
303.15	1.0038	0.0992	1032.66	0.58
308.15	0.1014	0.1	974.72	0.55
308.15	0.3005	0.1002	986.26	0.57
308.15	0.4998	0.1001	998.6	0.6
308.15	0.8031	0.1	1018.22	0.57
308.15	1.0038	0.0992	1029.98	0.58
313.15	0.1014	0.1	972.39	0.56
313.15	0.3005	0.1002	983.81	0.57
313.15	0.4998	0.1001	995.51	0.58
313.15	0.8031	0.1	1015.5	0.59
313.15	1.0038	0.0992	1027.13	0.59

System: sodium chlorate + methanol + water; phases: Liquid
Fixed: Pressure, kPa = 100
Property: Viscosity, Pa*s (Liquid); method: Capillary tube (Ostwald; Ubbelohde) method
Temperature, K	Molality, mol/kg of sodium chlorate	Solvent: Mole fraction of methanol	Viscosity, Pa*s	uncertainty
288.15	0.1	0.0044	0.001153	3.6e-05
288.15	0.3	0.0045	0.001164	3.6e-05
288.15	0.5085	0.0045	0.001188	3.7e-05
288.15	0.8055	0.0045	0.001221	3.8e-05
288.15	1.0054	0.0045	0.001217	3.8e-05
293.15	0.1	0.0044	0.001019	3.1e-05
293.15	0.3	0.0045	0.001029	3.2e-05
293.15	0.5085	0.0045	0.001052	3.3e-05
293.15	0.8055	0.0045	0.001083	3.4e-05
293.15	1.0054	0.0045	0.001082	3.3e-05
298.15	0.1	0.0044	0.000906	2.8e-05
298.15	0.3	0.0045	0.000919	2.8e-05
298.15	0.5085	0.0045	0.00094	2.9e-05
298.15	0.8055	0.0045	0.00097	3e-05
298.15	1.0054	0.0045	0.000969	3e-05
303.15	0.1	0.0044	0.000815	2.5e-05
303.15	0.3	0.0045	0.000827	2.6e-05
303.15	0.5085	0.0045	0.000847	2.6e-05
303.15	0.8055	0.0045	0.000875	2.7e-05
303.15	1.0054	0.0045	0.000875	2.7e-05
308.15	0.1	0.0044	0.000739	2.3e-05
308.15	0.3	0.0045	0.00075	2.3e-05
308.15	0.5085	0.0045	0.000769	2.4e-05
308.15	0.8055	0.0045	0.000794	2.5e-05
308.15	1.0054	0.0045	0.000795	2.4e-05
313.15	0.1	0.0044	0.000674	2.1e-05
313.15	0.3	0.0045	0.000685	2.1e-05
313.15	0.5085	0.0045	0.000703	2.2e-05
313.15	0.8055	0.0045	0.000727	2.3e-05
313.15	1.0054	0.0045	0.000728	2.2e-05
288.15	0.1009	0.0228	0.001257	3.9e-05
288.15	0.3018	0.0229	0.001277	4e-05
288.15	0.5014	0.0232	0.001299	4e-05
288.15	0.8014	0.0228	0.00133	4.1e-05
288.15	1.0094	0.0229	0.001325	4.1e-05
293.15	0.1009	0.0228	0.001101	3.4e-05
293.15	0.3018	0.0229	0.001122	3.5e-05
293.15	0.5014	0.0232	0.001144	3.5e-05
293.15	0.8014	0.0228	0.001173	3.6e-05
293.15	1.0094	0.0229	0.00117	3.6e-05
298.15	0.1009	0.0228	0.000975	3e-05
298.15	0.3018	0.0229	0.000995	3.1e-05
298.15	0.5014	0.0232	0.001016	3.1e-05
298.15	0.8014	0.0228	0.001045	3.2e-05
298.15	1.0094	0.0229	0.001043	3.2e-05
303.15	0.1009	0.0228	0.000872	2.7e-05
303.15	0.3018	0.0229	0.000891	2.7e-05
303.15	0.5014	0.0232	0.000912	2.8e-05
303.15	0.8014	0.0228	0.000938	2.9e-05
303.15	1.0094	0.0229	0.000937	2.9e-05
308.15	0.1009	0.0228	0.000786	2.4e-05
308.15	0.3018	0.0229	0.000803	2.5e-05
308.15	0.5014	0.0232	0.000823	2.5e-05
308.15	0.8014	0.0228	0.000848	2.6e-05
308.15	1.0094	0.0229	0.000848	2.6e-05
313.15	0.1009	0.0228	0.000713	2.2e-05
313.15	0.3018	0.0229	0.00073	2.3e-05
313.15	0.5014	0.0232	0.000749	2.3e-05
313.15	0.8014	0.0228	0.00078	2.4e-05
313.15	1.0094	0.0229	0.000773	2.4e-05
288.15	0.1029	0.0724	0.00156	4.8e-05
288.15	0.3001	0.0728	0.001585	4.9e-05
288.15	0.5002	0.0729	0.0016	4.9e-05
288.15	0.8007	0.0728	0.001618	5e-05
288.15	1.0003	0.0725	0.001611	5e-05
293.15	0.1029	0.0724	0.001346	4.2e-05
293.15	0.3001	0.0728	0.001373	4.2e-05
293.15	0.5002	0.0729	0.001391	4.3e-05
293.15	0.8007	0.0728	0.001409	4.3e-05
293.15	1.0003	0.0725	0.001409	4.3e-05
298.15	0.1029	0.0724	0.001177	3.6e-05
298.15	0.3001	0.0728	0.001203	3.7e-05
298.15	0.5002	0.0729	0.001219	3.8e-05
298.15	0.8007	0.0728	0.001239	3.8e-05
298.15	1.0003	0.0725	0.001239	3.8e-05
303.15	0.1029	0.0724	0.001039	3.2e-05
303.15	0.3001	0.0728	0.001063	3.3e-05
303.15	0.5002	0.0729	0.001082	3.3e-05
303.15	0.8007	0.0728	0.001101	3.4e-05
303.15	1.0003	0.0725	0.0011	3.4e-05
308.15	0.1029	0.0724	0.000926	2.8e-05
308.15	0.3001	0.0728	0.000949	2.9e-05
308.15	0.5002	0.0729	0.000967	3e-05
308.15	0.8007	0.0728	0.000985	3e-05
308.15	1.0003	0.0725	0.000986	3e-05
313.15	0.1029	0.0724	0.000831	2.6e-05
313.15	0.3001	0.0728	0.000853	2.6e-05
313.15	0.5002	0.0729	0.00087	2.7e-05
313.15	0.8007	0.0728	0.000889	2.7e-05
313.15	1.0003	0.0725	0.00089	2.7e-05
288.15	0.1014	0.1	0.001709	5.3e-05
288.15	0.3005	0.1002	0.001727	5.3e-05
288.15	0.4998	0.1001	0.001752	5.4e-05
288.15	0.8031	0.1	0.001764	5.4e-05
288.15	1.0038	0.0992	0.001765	5.4e-05
293.15	0.1014	0.1	0.001473	4.5e-05
293.15	0.3005	0.1002	0.001488	4.6e-05
293.15	0.4998	0.1001	0.001512	4.7e-05
293.15	0.8031	0.1	0.001542	4.7e-05
293.15	1.0038	0.0992	0.001534	4.7e-05
298.15	0.1014	0.1	0.001279	3.9e-05
298.15	0.3005	0.1002	0.001296	4e-05
298.15	0.4998	0.1001	0.001321	4.1e-05
298.15	0.8031	0.1	0.001337	4.1e-05
298.15	1.0038	0.0992	0.001344	4.1e-05
303.15	0.1014	0.1	0.0011248	3.46e-05
303.15	0.3005	0.1002	0.0011413	3.51e-05
303.15	0.4998	0.1001	0.0011647	3.58e-05
303.15	0.8031	0.1	0.0011825	3.63e-05
303.15	1.0038	0.0992	0.0011923	3.67e-05
308.15	0.1014	0.1	0.001	3.1e-05
308.15	0.3005	0.1002	0.001015	3.1e-05
308.15	0.4998	0.1001	0.001036	3.2e-05
308.15	0.8031	0.1	0.001054	3.2e-05
308.15	1.0038	0.0992	0.001064	3.3e-05
313.15	0.1014	0.1	0.000893	2.7e-05
313.15	0.3005	0.1002	0.000908	2.8e-05
313.15	0.4998	0.1001	0.000929	2.9e-05
313.15	0.8031	0.1	0.000947	2.9e-05
313.15	1.0038	0.0992	0.000957	2.9e-05

System: potassium chlorate + methanol + water; phases: Liquid
Fixed: Pressure, kPa = 100
Property: Mass density, kg/m3 (Liquid); method: Vibrating tube method
Temperature, K	Molality, mol/kg of potassium chlorate	Solvent: Mole fraction of methanol	Mass density, kg/m3	uncertainty
288.15	0.1009	0.0045	1005.48	0.6
288.15	0.2018	0.0045	1013.12	0.6
288.15	0.3057	0.0045	1020.92	0.6
293.15	0.1009	0.0045	1004.49	0.6
293.15	0.2018	0.0045	1012.02	0.6
293.15	0.3057	0.0045	1019.75	0.6
298.15	0.1009	0.0045	1003.24	0.6
298.15	0.2018	0.0045	1010.69	0.61
298.15	0.3057	0.0045	1018.35	0.6
303.15	0.1009	0.0045	1001.77	0.6
303.15	0.2018	0.0045	1009.14	0.61
303.15	0.3057	0.0045	1016.74	0.6
308.15	0.1009	0.0045	1000.08	0.6
308.15	0.2018	0.0045	1007.39	0.61
308.15	0.3057	0.0045	1014.93	0.6
313.15	0.1009	0.0045	997.68	0.59
313.15	0.2018	0.0045	1005.46	0.61
313.15	0.3057	0.0045	1012.94	0.6
288.15	0.1077	0.0229	1000.34	0.58
288.15	0.2006	0.0229	1007.25	0.58
288.15	0.3008	0.0226	1015.12	0.58
293.15	0.1077	0.0229	999.3	0.58
293.15	0.2006	0.0229	1006.08	0.58
293.15	0.3008	0.0226	1013.9	0.58
298.15	0.1077	0.0229	998.02	0.58
298.15	0.2006	0.0229	1004.69	0.59
298.15	0.3008	0.0226	1012.46	0.59
303.15	0.1077	0.0229	996.5	0.58
303.15	0.2006	0.0229	1003.07	0.59
303.15	0.3008	0.0226	1010.81	0.59
308.15	0.1077	0.0229	994.77	0.59
308.15	0.2006	0.0229	1001.27	0.59
308.15	0.3008	0.0226	1008.96	0.59
313.15	0.1077	0.0229	992.84	0.59
313.15	0.2006	0.0229	999.27	0.59
313.15	0.3008	0.0226	1006.93	0.59
288.15	0.1004	0.0728	987.15	0.57
288.15	0.2006	0.0728	994.42	0.57
288.15	0.3004	0.0729	1001.94	0.58
293.15	0.1004	0.0728	985.8	0.57
293.15	0.2006	0.0728	992.95	0.57
293.15	0.3004	0.0729	1000.41	0.58
298.15	0.1004	0.0728	984.24	0.58
298.15	0.2006	0.0728	991.27	0.58
298.15	0.3004	0.0729	998.69	0.58
303.15	0.1004	0.0728	982.46	0.58
303.15	0.2006	0.0728	989.4	0.58
303.15	0.3004	0.0729	996.78	0.58
308.15	0.1004	0.0728	980.48	0.58
308.15	0.2006	0.0728	987.34	0.58
308.15	0.3004	0.0729	994.68	0.59
313.15	0.1004	0.0728	978.32	0.58
313.15	0.2006	0.0728	985.11	0.58
313.15	0.3004	0.0729	992.42	0.59
288.15	0.1032	0.1001	981.38	0.56
288.15	0.201	0.1002	988.66	0.56
288.15	0.3006	0.0994	995.65	0.57
293.15	0.1032	0.1001	979.79	0.57
293.15	0.201	0.1002	986.96	0.56
293.15	0.3006	0.0994	993.92	0.57
298.15	0.1032	0.1001	977.99	0.57
298.15	0.201	0.1002	985.06	0.57
298.15	0.3006	0.0994	991.99	0.57
303.15	0.1032	0.1001	976	0.57
303.15	0.201	0.1002	982.99	0.57
303.15	0.3006	0.0994	989.88	0.58
308.15	0.1032	0.1001	973.84	0.57
308.15	0.201	0.1002	980.75	0.57
308.15	0.3006	0.0994	987.61	0.58
313.15	0.1032	0.1001	971.5	0.58
313.15	0.201	0.1002	978.35	0.57
313.15	0.3006	0.0994	985.18	0.58

System: potassium chlorate + methanol + water; phases: Liquid
Fixed: Pressure, kPa = 100
Property: Viscosity, Pa*s (Liquid); method: Capillary tube (Ostwald; Ubbelohde) method
Temperature, K	Molality, mol/kg of potassium chlorate	Solvent: Mole fraction of methanol	Viscosity, Pa*s	uncertainty
288.15	0.1009	0.0045	0.001135	3.5e-05
288.15	0.2018	0.0045	0.001151	3.6e-05
288.15	0.3057	0.0045	0.00114	3.5e-05
293.15	0.1009	0.0045	0.001002	3.1e-05
293.15	0.2018	0.0045	0.001017	3.2e-05
293.15	0.3057	0.0045	0.00101	3.1e-05
298.15	0.1009	0.0045	0.000893	2.8e-05
298.15	0.2018	0.0045	0.000907	2.8e-05
298.15	0.3057	0.0045	0.000904	2.8e-05
303.15	0.1009	0.0045	0.000803	2.5e-05
303.15	0.2018	0.0045	0.00082	2.5e-05
303.15	0.3057	0.0045	0.000813	2.5e-05
308.15	0.1009	0.0045	0.000728	2.3e-05
308.15	0.2018	0.0045	0.000741	2.3e-05
308.15	0.3057	0.0045	0.000739	2.3e-05
313.15	0.1009	0.0045	0.000664	2.1e-05
313.15	0.2018	0.0045	0.000676	2.1e-05
313.15	0.3057	0.0045	0.000675	2.1e-05
288.15	0.1077	0.0229	0.001263	3.9e-05
288.15	0.2006	0.0229	0.00126	3.9e-05
288.15	0.3008	0.0226	0.001248	3.9e-05
293.15	0.1077	0.0229	0.001108	3.4e-05
293.15	0.2006	0.0229	0.001107	3.4e-05
293.15	0.3008	0.0226	0.001096	3.4e-05
298.15	0.1077	0.0229	0.000982	3e-05
298.15	0.2006	0.0229	0.000982	3e-05
298.15	0.3008	0.0226	0.000975	3e-05
303.15	0.1077	0.0229	0.000877	2.7e-05
303.15	0.2006	0.0229	0.000879	2.7e-05
303.15	0.3008	0.0226	0.000875	2.7e-05
308.15	0.1077	0.0229	0.000792	2.4e-05
308.15	0.2006	0.0229	0.000792	2.4e-05
308.15	0.3008	0.0226	0.000788	2.4e-05
313.15	0.1077	0.0229	0.000719	2.2e-05
313.15	0.2006	0.0229	0.000721	2.2e-05
313.15	0.3008	0.0226	0.000719	2.2e-05
288.15	0.1004	0.0728	0.001585	4.9e-05
288.15	0.2006	0.0728	0.001566	4.8e-05
288.15	0.3004	0.0729	0.001579	4.9e-05
293.15	0.1004	0.0728	0.001369	4.2e-05
293.15	0.2006	0.0728	0.001355	4.2e-05
293.15	0.3004	0.0729	0.00137	4.2e-05
298.15	0.1004	0.0728	0.001198	3.7e-05
298.15	0.2006	0.0728	0.001187	3.7e-05
298.15	0.3004	0.0729	0.001202	3.7e-05
303.15	0.1004	0.0728	0.001058	3.3e-05
303.15	0.2006	0.0728	0.00105	3.2e-05
303.15	0.3004	0.0729	0.001064	3.3e-05
308.15	0.1004	0.0728	0.000942	2.9e-05
308.15	0.2006	0.0728	0.000936	2.9e-05
308.15	0.3004	0.0729	0.00095	2.9e-05
313.15	0.1004	0.0728	0.000846	2.6e-05
313.15	0.2006	0.0728	0.000842	2.6e-05
313.15	0.3004	0.0729	0.000856	2.6e-05
288.15	0.1032	0.1001	0.001723	5.3e-05
288.15	0.201	0.1002	0.001703	5.2e-05
288.15	0.3006	0.0994	0.001685	5.2e-05
293.15	0.1032	0.1001	0.001478	4.6e-05
293.15	0.201	0.1002	0.001469	4.5e-05
293.15	0.3006	0.0994	0.001455	4.5e-05
298.15	0.1032	0.1001	0.001286	4e-05
298.15	0.201	0.1002	0.001281	3.9e-05
298.15	0.3006	0.0994	0.001273	3.9e-05
303.15	0.1032	0.1001	0.001109	3.4e-05
303.15	0.201	0.1002	0.001127	3.5e-05
303.15	0.3006	0.0994	0.001123	3.4e-05
308.15	0.1032	0.1001	0.001003	3.1e-05
308.15	0.201	0.1002	0.001002	3.1e-05
308.15	0.3006	0.0994	0.001	3.1e-05
313.15	0.1032	0.1001	0.000897	2.8e-05
313.15	0.201	0.1002	0.000897	2.8e-05
313.15	0.3006	0.0994	0.000896	2.7e-05
