Measured thermophysical data. Propylthiouracil Solubility in Aqueous Solutions of Ethylene Glycol, N,N-Dimethylformamide, N-Methyl-2-pyrrolidone, and Dimethylsulfoxide: Measurement and Thermodynamic Modeling
Source: J. Chem. Eng. Data, 2019, 10.1021/acs.jced.9b00201
Compound 1: 6-propyl-2-thiouracil, C7H10N2OS, InChI=1S/C7H10N2OS/c1-2-3-5-4-6(10)9-7(11)8-5/h4H,2-3H2,1H3,(H2,8,9,10,11), purity 98.6%
Compound 2: dimethylformamide, C3H7NO, InChI=1S/C3H7NO/c1-4(2)3-5/h3H,1-2H3, purity 99.5%
Compound 3: N-methylpyrrolidone, C5H9NO, InChI=1S/C5H9NO/c1-6-4-2-3-5(6)7/h2-4H2,1H3, purity 99.4%
Compound 4: 1,2-ethanediol, C2H6O2, InChI=1S/C2H6O2/c3-1-2-4/h3-4H,1-2H2, purity 99.4%
Compound 5: dimethyl sulfoxide, C2H6OS, InChI=1S/C2H6OS/c1-4(2)3/h1-2H3, purity 99.5%
Compound 6: water, H2O, InChI=1S/H2O/h1H2, purity 99.9%

System: 6-propyl-2-thiouracil + dimethylformamide + water; phases: Liquid, Crystal
Fixed: Pressure, kPa = 101.1
Property: Mole fraction of 6-propyl-2-thiouracil (Liquid); method: Chromatography
Temperature, K	Solvent: Mass fraction of dimethylformamide	Mole fraction of 6-propyl-2-thiouracil	uncertainty
293.15	0.1	0.0002351	2.12e-05
298.15	0.1	0.0002866	2.58e-05
303.15	0.1	0.0003502	3.15e-05
308.15	0.1	0.0004298	3.87e-05
313.15	0.1	0.0005227	4.71e-05
318.15	0.1	0.0006396	5.76e-05
323.15	0.1	0.0007799	7.02e-05
328.15	0.1	0.0009553	8.6e-05
333.15	0.1	0.001151	0.000104
293.15	0.2	0.0004845	4.36e-05
298.15	0.2	0.0005965	5.37e-05
303.15	0.2	0.0007564	6.81e-05
308.15	0.2	0.0009303	8.38e-05
313.15	0.2	0.001135	0.000102
318.15	0.2	0.001356	0.000122
323.15	0.2	0.001628	0.000147
328.15	0.2	0.001947	0.000175
333.15	0.2	0.002334	0.00021
293.15	0.3	0.001076	9.7e-05
298.15	0.3	0.001311	0.000118
303.15	0.3	0.001607	0.000145
308.15	0.3	0.001953	0.000176
313.15	0.3	0.002417	0.000218
318.15	0.3	0.002922	0.000263
323.15	0.3	0.003486	0.000314
328.15	0.3	0.004168	0.000375
333.15	0.3	0.004962	0.000447
293.15	0.4	0.001937	0.000174
298.15	0.4	0.002354	0.000212
303.15	0.4	0.002891	0.00026
308.15	0.4	0.003525	0.000317
313.15	0.4	0.004286	0.000386
318.15	0.4	0.005215	0.00047
323.15	0.4	0.006224	0.00056
328.15	0.4	0.007385	0.000665
333.15	0.4	0.008722	0.000786
293.15	0.5	0.003869	0.000348
298.15	0.5	0.004715	0.000425
303.15	0.5	0.005747	0.000518
308.15	0.5	0.006993	0.00063
313.15	0.5	0.008416	0.000758
318.15	0.5	0.01018	0.00092
323.15	0.5	0.01211	0.00109
328.15	0.5	0.01438	0.00129
333.15	0.5	0.01716	0.00155
293.15	0.6	0.008795	0.000792
298.15	0.6	0.01056	0.00095
303.15	0.6	0.01263	0.00114
308.15	0.6	0.01496	0.00135
313.15	0.6	0.01783	0.00161
318.15	0.6	0.02153	0.00194
323.15	0.6	0.02614	0.00235
328.15	0.6	0.03152	0.00284
333.15	0.6	0.03737	0.00337
293.15	0.7	0.01899	0.00171
298.15	0.7	0.02282	0.00205
303.15	0.7	0.02758	0.00248
308.15	0.7	0.03359	0.00302
313.15	0.7	0.04016	0.00362
318.15	0.7	0.04781	0.0043
323.15	0.7	0.05662	0.0051
328.15	0.7	0.06685	0.00602
333.15	0.7	0.07808	0.00703
293.15	0.8	0.04178	0.00376
298.15	0.8	0.04979	0.00448
303.15	0.8	0.06017	0.00542
308.15	0.8	0.07218	0.0065
313.15	0.8	0.08586	0.00773
318.15	0.8	0.1028	0.0093
323.15	0.8	0.1224	0.011
328.15	0.8	0.1441	0.013
333.15	0.8	0.1701	0.0153
293.15	0.9	0.07807	0.00703
298.15	0.9	0.09383	0.00845
303.15	0.9	0.1144	0.0103
308.15	0.9	0.1375	0.0124
313.15	0.9	0.1641	0.0148
318.15	0.9	0.1952	0.0176
323.15	0.9	0.2297	0.0207
328.15	0.9	0.2691	0.0242
333.15	0.9	0.3141	0.0283
293.15	1	0.1236	0.0111
298.15	1	0.1503	0.0135
303.15	1	0.1796	0.0162
308.15	1	0.2144	0.0193
313.15	1	0.2554	0.023
318.15	1	0.3042	0.0274
323.15	1	0.3596	0.0324
328.15	1	0.4222	0.038
333.15	1	0.4936	0.0444

System: 6-propyl-2-thiouracil + N-methylpyrrolidone + water; phases: Liquid, Crystal
Fixed: Pressure, kPa = 101.1
Property: Mole fraction of 6-propyl-2-thiouracil (Liquid); method: Chromatography
Temperature, K	Solvent: Mass fraction of N-methylpyrrolidone	Mole fraction of 6-propyl-2-thiouracil	uncertainty
293.15	0.1	0.0002318	2.09e-05
298.15	0.1	0.0002721	2.45e-05
303.15	0.1	0.0003343	3.01e-05
308.15	0.1	0.0004203	3.78e-05
313.15	0.1	0.0005207	4.69e-05
318.15	0.1	0.0006339	5.71e-05
323.15	0.1	0.0007578	6.82e-05
328.15	0.1	0.0009091	8.19e-05
333.15	0.1	0.001093	9.8e-05
293.15	0.2	0.0005208	4.69e-05
298.15	0.2	0.0006194	5.58e-05
303.15	0.2	0.0007546	6.79e-05
308.15	0.2	0.0009278	8.35e-05
313.15	0.2	0.00114	0.000103
318.15	0.2	0.001397	0.000126
323.15	0.2	0.001687	0.000152
328.15	0.2	0.002032	0.000183
333.15	0.2	0.002424	0.000218
293.15	0.3	0.001035	9.3e-05
298.15	0.3	0.001212	0.000109
303.15	0.3	0.001489	0.000134
308.15	0.3	0.001819	0.000164
313.15	0.3	0.002235	0.000201
318.15	0.3	0.002703	0.000243
323.15	0.3	0.003227	0.000291
328.15	0.3	0.003829	0.000345
333.15	0.3	0.004519	0.000407
293.15	0.4	0.002176	0.000196
298.15	0.4	0.002503	0.000225
303.15	0.4	0.002961	0.000267
308.15	0.4	0.003539	0.000319
313.15	0.4	0.004282	0.000386
318.15	0.4	0.005062	0.000456
323.15	0.4	0.006033	0.000543
328.15	0.4	0.007162	0.000645
333.15	0.4	0.008481	0.000764
293.15	0.5	0.003825	0.000344
298.15	0.5	0.004673	0.000421
303.15	0.5	0.005617	0.000506
308.15	0.5	0.006594	0.000594
313.15	0.5	0.007826	0.000705
318.15	0.5	0.009304	0.000838
323.15	0.5	0.01093	0.00098
328.15	0.5	0.01274	0.00115
333.15	0.5	0.01495	0.00135
293.15	0.6	0.007553	0.00068
298.15	0.6	0.009071	0.000817
303.15	0.6	0.01091	0.00098
308.15	0.6	0.01275	0.00115
313.15	0.6	0.01512	0.00136
318.15	0.6	0.0177	0.00159
323.15	0.6	0.02076	0.00187
328.15	0.6	0.02406	0.00217
333.15	0.6	0.02826	0.00255
293.15	0.7	0.01551	0.0014
298.15	0.7	0.01853	0.00167
303.15	0.7	0.02183	0.00197
308.15	0.7	0.02559	0.0023
313.15	0.7	0.02989	0.00269
318.15	0.7	0.03491	0.00314
323.15	0.7	0.04079	0.00367
328.15	0.7	0.04712	0.00424
333.15	0.7	0.05481	0.00494
293.15	0.8	0.03123	0.00281
298.15	0.8	0.03663	0.0033
303.15	0.8	0.04315	0.00389
308.15	0.8	0.05025	0.00452
313.15	0.8	0.05859	0.00528
318.15	0.8	0.06863	0.00618
323.15	0.8	0.07937	0.00715
328.15	0.8	0.09191	0.00827
333.15	0.8	0.1052	0.0095
293.15	0.9	0.05427	0.00489
298.15	0.9	0.06322	0.00569
303.15	0.9	0.07418	0.00668
308.15	0.9	0.08652	0.00779
313.15	0.9	0.1005	0.009
318.15	0.9	0.1172	0.0106
323.15	0.9	0.1356	0.0122
328.15	0.9	0.1562	0.0141
333.15	0.9	0.1799	0.0162
293.15	1	0.08394	0.00756
298.15	1	0.09713	0.00874
303.15	1	0.1141	0.0103
308.15	1	0.1322	0.0119
313.15	1	0.1532	0.0138
318.15	1	0.1763	0.0159
323.15	1	0.2038	0.0183
328.15	1	0.2331	0.021
333.15	1	0.2677	0.0241

System: 6-propyl-2-thiouracil + 1,2-ethanediol + water; phases: Liquid, Crystal
Fixed: Pressure, kPa = 101.1
Property: Mole fraction of 6-propyl-2-thiouracil (Liquid); method: Chromatography
Temperature, K	Solvent: Mass fraction of 1,2-ethanediol	Mole fraction of 6-propyl-2-thiouracil	uncertainty
293.15	0.1	0.0001298	1.17e-05
298.15	0.1	0.0001539	1.39e-05
303.15	0.1	0.0001871	1.68e-05
308.15	0.1	0.0002339	2.11e-05
313.15	0.1	0.0002903	2.61e-05
318.15	0.1	0.0003546	3.19e-05
323.15	0.1	0.0004259	3.83e-05
328.15	0.1	0.0005073	4.57e-05
333.15	0.1	0.0006057	5.45e-05
293.15	0.2	0.0001794	1.62e-05
298.15	0.2	0.0002117	1.91e-05
303.15	0.2	0.0002563	2.31e-05
308.15	0.2	0.0003153	2.84e-05
313.15	0.2	0.0003848	3.46e-05
318.15	0.2	0.0004676	4.21e-05
323.15	0.2	0.0005656	5.09e-05
328.15	0.2	0.000677	6.1e-05
333.15	0.2	0.0008129	7.32e-05
293.15	0.3	0.0002709	2.44e-05
298.15	0.3	0.0003261	2.94e-05
303.15	0.3	0.0004002	3.6e-05
308.15	0.3	0.0004837	4.36e-05
313.15	0.3	0.0005872	5.29e-05
318.15	0.3	0.0007048	6.35e-05
323.15	0.3	0.0008441	7.6e-05
328.15	0.3	0.001002	9e-05
333.15	0.3	0.001211	0.000109
293.15	0.4	0.0004286	3.86e-05
298.15	0.4	0.0004984	4.49e-05
303.15	0.4	0.0006003	5.41e-05
308.15	0.4	0.0007331	6.6e-05
313.15	0.4	0.0009019	8.12e-05
318.15	0.4	0.001081	9.7e-05
323.15	0.4	0.00129	0.000116
328.15	0.4	0.001525	0.000137
333.15	0.4	0.001822	0.000164
293.15	0.5	0.0006351	5.72e-05
298.15	0.5	0.0007437	6.7e-05
303.15	0.5	0.0008959	8.07e-05
308.15	0.5	0.001076	9.7e-05
313.15	0.5	0.001298	0.000117
318.15	0.5	0.001555	0.00014
323.15	0.5	0.001859	0.000167
328.15	0.5	0.002232	0.000201
333.15	0.5	0.002676	0.000241
293.15	0.6	0.001055	9.5e-05
298.15	0.6	0.001207	0.000109
303.15	0.6	0.001411	0.000127
308.15	0.6	0.001681	0.000151
313.15	0.6	0.002025	0.000182
318.15	0.6	0.00244	0.00022
323.15	0.6	0.002961	0.000267
328.15	0.6	0.003584	0.000323
333.15	0.6	0.004302	0.000387
293.15	0.7	0.001792	0.000161
298.15	0.7	0.002058	0.000185
303.15	0.7	0.002365	0.000213
308.15	0.7	0.002823	0.000254
313.15	0.7	0.003367	0.000303
318.15	0.7	0.004041	0.000364
323.15	0.7	0.004905	0.000442
328.15	0.7	0.005989	0.000539
333.15	0.7	0.007283	0.000656
293.15	0.8	0.002982	0.000268
298.15	0.8	0.003375	0.000304
303.15	0.8	0.003871	0.000349
308.15	0.8	0.004605	0.000415
313.15	0.8	0.005569	0.000501
318.15	0.8	0.006808	0.000613
323.15	0.8	0.008191	0.000737
328.15	0.8	0.009755	0.000878
333.15	0.8	0.01165	0.00105
293.15	0.9	0.004637	0.000417
298.15	0.9	0.005326	0.00048
303.15	0.9	0.006219	0.00056
308.15	0.9	0.007376	0.000664
313.15	0.9	0.008784	0.000791
318.15	0.9	0.01056	0.00095
323.15	0.9	0.01264	0.00114
328.15	0.9	0.01507	0.00136
333.15	0.9	0.01782	0.0016
293.15	1	0.007264	0.000654
298.15	1	0.008431	0.000759
303.15	1	0.00996	0.000897
308.15	1	0.01179	0.00106
313.15	1	0.01377	0.00124
318.15	1	0.01606	0.00145
323.15	1	0.01868	0.00168
328.15	1	0.02185	0.00197
333.15	1	0.02548	0.00229

System: 6-propyl-2-thiouracil + dimethyl sulfoxide + water; phases: Liquid, Crystal
Fixed: Pressure, kPa = 101.1
Property: Mole fraction of 6-propyl-2-thiouracil (Liquid); method: Chromatography
Temperature, K	Solvent: Mass fraction of dimethyl sulfoxide	Mole fraction of 6-propyl-2-thiouracil	uncertainty
293.15	0.1	0.0001806	1.63e-05
298.15	0.1	0.0002181	1.96e-05
303.15	0.1	0.0002627	2.37e-05
308.15	0.1	0.0003248	2.92e-05
313.15	0.1	0.0004007	3.61e-05
318.15	0.1	0.0004878	4.39e-05
323.15	0.1	0.0005925	5.33e-05
328.15	0.1	0.0007126	6.42e-05
333.15	0.1	0.0008539	7.69e-05
293.15	0.2	0.0003333	3e-05
298.15	0.2	0.0004027	3.63e-05
303.15	0.2	0.0004961	4.47e-05
308.15	0.2	0.0006061	5.46e-05
313.15	0.2	0.0007329	6.6e-05
318.15	0.2	0.0008871	7.99e-05
323.15	0.2	0.001073	9.7e-05
328.15	0.2	0.001283	0.000116
333.15	0.2	0.001533	0.000138
293.15	0.3	0.0006208	5.59e-05
298.15	0.3	0.0007529	6.78e-05
303.15	0.3	0.0009113	8.21e-05
308.15	0.3	0.001091	9.8e-05
313.15	0.3	0.00132	0.000119
318.15	0.3	0.001579	0.000142
323.15	0.3	0.001903	0.000171
328.15	0.3	0.002271	0.000204
333.15	0.3	0.002698	0.000243
293.15	0.4	0.001202	0.000108
298.15	0.4	0.001461	0.000132
303.15	0.4	0.00177	0.000159
308.15	0.4	0.002121	0.000191
313.15	0.4	0.002532	0.000228
318.15	0.4	0.003038	0.000274
323.15	0.4	0.003603	0.000324
328.15	0.4	0.004219	0.00038
333.15	0.4	0.004991	0.00045
293.15	0.5	0.002432	0.000219
298.15	0.5	0.002988	0.000269
303.15	0.5	0.00358	0.000322
308.15	0.5	0.004231	0.000381
313.15	0.5	0.005034	0.000453
318.15	0.5	0.005961	0.000537
323.15	0.5	0.007012	0.000631
328.15	0.5	0.008181	0.000737
333.15	0.5	0.009603	0.000865
293.15	0.6	0.005681	0.000512
298.15	0.6	0.006829	0.000615
303.15	0.6	0.008149	0.000734
308.15	0.6	0.009547	0.00086
313.15	0.6	0.01126	0.00101
318.15	0.6	0.01323	0.00119
323.15	0.6	0.01533	0.00138
328.15	0.6	0.01774	0.0016
333.15	0.6	0.02075	0.00187
293.15	0.7	0.01509	0.00136
298.15	0.7	0.01771	0.00159
303.15	0.7	0.02098	0.00189
308.15	0.7	0.02427	0.00219
313.15	0.7	0.02833	0.00255
318.15	0.7	0.03289	0.00296
323.15	0.7	0.03791	0.00341
328.15	0.7	0.04348	0.00391
333.15	0.7	0.04959	0.00447
293.15	0.8	0.04077	0.00367
298.15	0.8	0.04617	0.00416
303.15	0.8	0.05314	0.00478
308.15	0.8	0.06186	0.00557
313.15	0.8	0.07102	0.00639
318.15	0.8	0.08183	0.00737
323.15	0.8	0.09369	0.00844
328.15	0.8	0.1077	0.0097
333.15	0.8	0.1224	0.011
293.15	0.9	0.09045	0.00814
298.15	0.9	0.1042	0.0094
303.15	0.9	0.1205	0.0108
308.15	0.9	0.1376	0.0124
313.15	0.9	0.1572	0.0142
318.15	0.9	0.1782	0.016
323.15	0.9	0.2016	0.0182
328.15	0.9	0.2277	0.0205
333.15	0.9	0.2565	0.0231
293.15	1	0.167	0.015
298.15	1	0.1908	0.0172
303.15	1	0.2188	0.0197
308.15	1	0.2487	0.0224
313.15	1	0.2833	0.0255
318.15	1	0.3191	0.0287
323.15	1	0.3594	0.0324
328.15	1	0.4034	0.0363
333.15	1	0.4519	0.0407

System: 6-propyl-2-thiouracil + dimethylformamide; phases: Liquid, Crystal
Fixed: Pressure, kPa = 101.1
Property: Mole fraction of 6-propyl-2-thiouracil (Liquid); method: Chromatography
Temperature, K	Mole fraction of 6-propyl-2-thiouracil	uncertainty
293.15	0.1236	0.0111
298.15	0.1503	0.0135
303.15	0.1796	0.0162
308.15	0.2144	0.0193
313.15	0.2554	0.023
318.15	0.3042	0.0274
323.15	0.3596	0.0324
328.15	0.4222	0.038
333.15	0.4936	0.0444

System: 6-propyl-2-thiouracil + N-methylpyrrolidone; phases: Liquid, Crystal
Fixed: Pressure, kPa = 101.1
Property: Mole fraction of 6-propyl-2-thiouracil (Liquid); method: Chromatography
Temperature, K	Mole fraction of 6-propyl-2-thiouracil	uncertainty
293.15	0.08394	0.00756
298.15	0.09713	0.00874
303.15	0.1141	0.0103
308.15	0.1322	0.0119
313.15	0.1532	0.0138
318.15	0.1763	0.0159
323.15	0.2038	0.0183
328.15	0.2331	0.021
333.15	0.2677	0.0241

System: 6-propyl-2-thiouracil + 1,2-ethanediol; phases: Liquid, Crystal
Fixed: Pressure, kPa = 101.1
Property: Mole fraction of 6-propyl-2-thiouracil (Liquid); method: Chromatography
Temperature, K	Mole fraction of 6-propyl-2-thiouracil	uncertainty
293.15	0.007264	0.000654
298.15	0.008431	0.000759
303.15	0.00996	0.000897
308.15	0.01179	0.00106
313.15	0.01377	0.00124
318.15	0.01606	0.00145
323.15	0.01868	0.00168
328.15	0.02185	0.00197
333.15	0.02548	0.00229

System: 6-propyl-2-thiouracil + dimethyl sulfoxide; phases: Liquid, Crystal
Fixed: Pressure, kPa = 101.1
Property: Mole fraction of 6-propyl-2-thiouracil (Liquid); method: Chromatography
Temperature, K	Mole fraction of 6-propyl-2-thiouracil	uncertainty
293.15	0.167	0.015
298.15	0.1908	0.0172
303.15	0.2188	0.0197
308.15	0.2487	0.0224
313.15	0.2833	0.0255
318.15	0.3191	0.0287
323.15	0.3594	0.0324
328.15	0.4034	0.0363
333.15	0.4519	0.0407
