Measured thermophysical data. New Static Apparatus for Vapor Pressure Measurements: Reconciled Thermophysical Data for Benzophenone
Source: J. Chem. Eng. Data, 2016, 10.1021/acs.jced.6b00523
Compound 1: naphthalene, C10H8, InChI=1S/C10H8/c1-2-6-10-8-4-3-7-9(10)5-1/h1-8H, purity 99%
Compound 2: decane, C10H22, InChI=1S/C10H22/c1-3-5-7-9-10-8-6-4-2/h3-10H2,1-2H3, purity 99.97%
Compound 3: ferrocene, C10H10Fe, InChI=1S/2C5H5.Fe/c2*1-2-4-5-3-1;/h2*1-5H;, purity 99.8%
Compound 4: benzophenone, C13H10O, InChI=1S/C13H10O/c14-13(11-7-3-1-4-8-11)12-9-5-2-6-10-12/h1-10H, purity 99.99%

System: naphthalene; phases: Crystal, Gas
Property: Vapor or sublimation pressure, kPa (Crystal); method: Closed cell (Static) method
Temperature, K	Vapor or sublimation pressure, kPa	uncertainty
293.36	0.006861	0.000291
293.4	0.006871	0.000291
293.38	0.006881	0.000291
296.91	0.009768	0.000395
296.91	0.009773	0.000395
296.92	0.009786	0.000396
302.6	0.01691	0.00057
302.6	0.01691	0.00057
302.6	0.01696	0.00057
308.22	0.02834	0.00076
308.22	0.02835	0.00076
308.22	0.02835	0.00076
313.85	0.04691	0.00108
313.85	0.04691	0.00108
313.85	0.04691	0.00108
319.43	0.07588	0.00158
319.43	0.07592	0.00158
319.43	0.07592	0.00158
324.99	0.12059	0.00236
325	0.12059	0.00236
325.01	0.12062	0.00236
330.59	0.18858	0.00299
330.6	0.18866	0.00299
330.6	0.18868	0.00299
336.07	0.28802	0.00419
336.07	0.28806	0.00419
336.07	0.28811	0.00419
341.45	0.43053	0.00593
341.46	0.43058	0.00593
341.46	0.43063	0.00593
346.83	0.63466	0.00841
346.84	0.63466	0.00841
346.84	0.63471	0.00841
352.18	0.9195	0.01191
352.18	0.91953	0.01191
352.18	0.91956	0.01191
292.04	0.005878	0.000257
292.05	0.005881	0.000257
292.05	0.005889	0.000258
303.67	0.01833	0.0006
303.67	0.01835	0.0006
303.67	0.01835	0.0006
315.09	0.05173	0.00116
315.09	0.05173	0.00116
315.09	0.05174	0.00116
326.36	0.13378	0.00234
326.37	0.1338	0.00234
326.37	0.1338	0.00234
337.45	0.31843	0.00456
337.46	0.31847	0.00456
337.46	0.31848	0.00456
348.58	0.71429	0.00941
348.58	0.71446	0.00941
348.58	0.71478	0.00942
276.72	0.001118	0.000119
276.74	0.001118	0.000119
276.73	0.001122	0.000119
280.12	0.001625	0.00013
280.15	0.001634	0.00013
280.17	0.001644	0.00013
283.27	0.002321	0.000147
283.27	0.002329	0.000147
283.27	0.002333	0.000147
286.33	0.003264	0.000174
286.33	0.003275	0.000174
286.34	0.003276	0.000174
289.39	0.004482	0.000211
289.39	0.004484	0.000211
289.39	0.004493	0.000212
292	0.005885	0.000257
292	0.005899	0.000258
292	0.005902	0.000258
294.94	0.007905	0.000327
294.91	0.007907	0.000327
294.96	0.007922	0.000327
297.67	0.01039	0.00042
297.67	0.0104	0.00042
297.68	0.01041	0.00042
300.93	0.01426	0.00053
300.95	0.01427	0.00053
300.95	0.01428	0.00053
306.52	0.02413	0.00069
306.6	0.02433	0.0007
306.65	0.02446	0.0007
312.83	0.04277	0.00101
312.84	0.04281	0.00101
312.85	0.04282	0.00101
317.19	0.06259	0.00135
317.19	0.06261	0.00135
317.19	0.06262	0.00135
324.1	0.11235	0.00221
324.1	0.11239	0.00221
324.1	0.1124	0.00221
328.22	0.15668	0.00261
328.22	0.15669	0.00261
328.22	0.15671	0.00261
335.27	0.27226	0.00399
335.28	0.27261	0.004
335.31	0.27323	0.004
339.09	0.36244	0.00509
339.09	0.36262	0.0051
339.09	0.36276	0.0051

System: naphthalene; phases: Liquid, Gas
Property: Vapor or sublimation pressure, kPa (Liquid); method: Closed cell (Static) method
Temperature, K	Vapor or sublimation pressure, kPa	uncertainty
355.35	1.098	0.0141
355.35	1.0981	0.0141
355.35	1.0982	0.0141
358.34	1.2662	0.0161
358.36	1.267	0.0162
358.38	1.2686	0.0162

System: decane; phases: Liquid, Gas
Property: Vapor or sublimation pressure, kPa (Liquid); method: Closed cell (Static) method
Temperature, K	Vapor or sublimation pressure, kPa	uncertainty
285.13	0.06951	0.00147
285.16	0.06967	0.00147
285.18	0.06981	0.00148
292.21	0.11876	0.00232
292.21	0.11878	0.00232
292.22	0.11881	0.00232
303.84	0.26589	0.00391
303.85	0.26598	0.00392
303.85	0.26607	0.00392
315.2	0.54657	0.00733
315.2	0.5466	0.00733
315.21	0.54666	0.00733
320.85	0.76456	0.01001
320.85	0.76492	0.01001
320.85	0.76497	0.01001
326.41	1.0489	0.0135
326.41	1.0489	0.0135
326.41	1.0491	0.0135
331.92	1.4142	0.0169
331.93	1.4145	0.0169
331.93	1.4145	0.0169
276.76	0.03526	0.00088
276.77	0.03527	0.00088
276.77	0.03532	0.00088
279.78	0.0452	0.00105
279.79	0.04525	0.00105
279.79	0.04525	0.00105
282.92	0.0583	0.00128
282.92	0.05835	0.00128
282.93	0.05835	0.00128
288.76	0.0915	0.00185
288.76	0.09155	0.00185
288.77	0.09159	0.00185
294.67	0.1405	0.00242
294.67	0.1405	0.00242
294.67	0.14054	0.00242
301.29	0.22294	0.00339
301.38	0.22424	0.00341
301.38	0.22426	0.00341
307.33	0.33274	0.00473
307.33	0.33275	0.00473
307.33	0.33279	0.00473
319.09	0.69013	0.00909
319.11	0.69067	0.00909
319.11	0.69087	0.0091
324.98	0.96831	0.01249
324.99	0.96869	0.0125
325	0.96872	0.0125
330.79	1.3297	0.0161
330.79	1.3308	0.0161
330.8	1.3319	0.0161

System: ferrocene; phases: Crystal, Gas
Property: Vapor or sublimation pressure, kPa (Crystal); method: Closed cell (Static) method
Temperature, K	Vapor or sublimation pressure, kPa	uncertainty
294.29	0.000646	0.000116
294.34	0.00065	0.000117
294.28	0.000652	0.000117
296.77	0.000841	0.000119
296.78	0.000848	0.000119
296.78	0.000858	0.00012
302.11	0.001417	0.000131
302.13	0.001428	0.000131
302.13	0.001429	0.000131
307.47	0.002384	0.000154
307.47	0.002395	0.000154
307.47	0.002397	0.000154
312.78	0.003906	0.000197
312.78	0.00391	0.000197
312.78	0.003916	0.000197
318.06	0.006287	0.000274
318.06	0.006293	0.000274
318.06	0.006304	0.000275
323.34	0.009923	0.000403
323.35	0.009927	0.000403
323.35	0.009932	0.000404
328.59	0.01539	0.00055
328.6	0.0154	0.00055
328.6	0.01541	0.00055
333.86	0.02352	0.00068
333.86	0.02352	0.00068
333.86	0.02352	0.00068
339.08	0.03533	0.00088
339.07	0.03535	0.00088
339.08	0.03537	0.00088
344.2	0.052	0.00117
344.21	0.05207	0.00117
344.21	0.0521	0.00117
349.36	0.07591	0.00158
349.37	0.07593	0.00158
349.37	0.07595	0.00158
354.37	0.10816	0.00214
354.37	0.10817	0.00214
354.37	0.10817	0.00214
359.5	0.15379	0.00257
359.51	0.15388	0.00257
359.51	0.15391	0.00257
362.73	0.19142	0.00302
362.73	0.19143	0.00302
362.73	0.19156	0.00302
366.77	0.24925	0.00371
366.77	0.24931	0.00371
366.77	0.24943	0.00371
286.31	0.000283	0.00011
286.29	0.000285	0.00011
286.28	0.000288	0.00011
292.29	0.000527	0.000114
292.29	0.000529	0.000114
292.28	0.000536	0.000114
303.25	0.001618	0.000135
303.24	0.00162	0.000135
303.24	0.00162	0.000135
314.08	0.00442	0.000213
314.08	0.004424	0.000213
314.09	0.004449	0.000214
324.89	0.01134	0.00046
324.89	0.01134	0.00046
324.89	0.01135	0.00046
335.51	0.02691	0.00074
335.51	0.02691	0.00074
335.51	0.02692	0.00074
346.02	0.0598	0.0013
346.02	0.05982	0.0013
346.02	0.05985	0.0013
351.22	0.08709	0.00178
351.22	0.08711	0.00178
351.22	0.08712	0.00178
356.27	0.12419	0.00242
356.27	0.1242	0.00242
356.27	0.12424	0.00242
276.97	9.4e-05	0.000106
276.97	9.7e-05	0.000106
276.98	0.000101	0.000106
282.75	0.000181	0.000108
282.75	0.000189	0.000108
282.76	0.000194	0.000108
288.24	0.000335	0.000111
288.24	0.000344	0.000111
293.76	0.000622	0.000116
293.76	0.000626	0.000116
293.76	0.000627	0.000116
299.19	0.001072	0.000124
299.19	0.001073	0.000124
299.19	0.001078	0.000124
304.61	0.001809	0.00014
304.61	0.001811	0.00014
304.61	0.001815	0.00014
310.03	0.003047	0.000172
310.03	0.003053	0.000172
310.04	0.003068	0.000173
315.43	0.004969	0.000231
315.43	0.004969	0.000231
315.43	0.004971	0.000231
320.77	0.007956	0.000331
320.77	0.007956	0.000331
320.77	0.007956	0.000331
326.09	0.01251	0.0005
326.09	0.01251	0.0005
326.09	0.01252	0.0005
331.35	0.01928	0.00061
331.36	0.01929	0.00061
331.36	0.0193	0.00061
336.59	0.02929	0.00078
336.59	0.02929	0.00078
336.6	0.02929	0.00078
341.81	0.04367	0.00103
341.81	0.04368	0.00103
341.81	0.04369	0.00103

System: benzophenone; phases: Crystal, Liquid, Air at 1 atmosphere
Property: Molar enthalpy of transition or fusion, kJ/mol (Crystal); method: DSC
Molar enthalpy of transition or fusion, kJ/mol	uncertainty
18.6	0.5

System: benzophenone; phases: Metastable crystal, Liquid, Air at 1 atmosphere
Property: Molar enthalpy of transition or fusion, kJ/mol (Metastable crystal); method: DSC
Molar enthalpy of transition or fusion, kJ/mol	uncertainty
14.5	0.4

System: benzophenone; phases: Crystal, Liquid
Property: Solid-liquid equilibrium temperature, K (Crystal); method: DTA
Pressure, kPa	Solid-liquid equilibrium temperature, K	uncertainty
100	321.3	0.3

System: benzophenone; phases: Metastable crystal, Liquid
Property: Solid-liquid equilibrium temperature, K (Metastable crystal); method: DTA
Pressure, kPa	Solid-liquid equilibrium temperature, K	uncertainty
100	298.3	0.3

System: benzophenone; phases: Glass, Liquid
Property: Boiling temperature at pressure P, K (Glass); method: DTA
Pressure, kPa	Boiling temperature at pressure P, K	uncertainty
100	212	1

System: benzophenone; phases: Metastable liquid, Gas
Property: Vapor or sublimation pressure, kPa (Metastable liquid); method: Closed cell (Static) method
Temperature, K	Vapor or sublimation pressure, kPa	uncertainty
293.11	8.1e-05	0.00011
293.11	8.4e-05	0.00011
293.11	8.5e-05	0.00011
298.48	0.000153	0.000112
298.48	0.000157	0.000112
298.48	0.000158	0.000112
302.13	0.000217	0.000114
302.13	0.000221	0.000114
302.14	0.000217	0.000114
307.46	0.000382	0.000117
307.48	0.000376	0.000117
307.48	0.00038	0.000117
312.77	0.000631	0.000121
312.78	0.000635	0.000121
312.78	0.000637	0.000121
318.05	0.001035	0.000128
318.05	0.001036	0.000128
318.05	0.001039	0.000129
323.33	0.001658	0.000141
323.33	0.00166	0.000141
323.33	0.001661	0.000141
328.52	0.002576	0.000163
328.52	0.00258	0.000164
328.52	0.002583	0.000164
333.79	0.003974	0.000203
333.79	0.003975	0.000203
333.79	0.003979	0.000203
338.9	0.005953	0.000266
338.9	0.005954	0.000266
338.9	0.005968	0.000266
344.09	0.008882	0.000367
344.09	0.00889	0.000367
344.09	0.008894	0.000367
349.19	0.0129	0.00052
349.19	0.01291	0.00052
349.19	0.01293	0.00052
354.35	0.01864	0.0006
354.35	0.01865	0.0006
354.35	0.01866	0.0006
359.4	0.02628	0.00073
359.4	0.02629	0.00073
359.4	0.02631	0.00073
364.47	0.03673	0.00091
364.47	0.03673	0.00091
364.48	0.03672	0.00091

System: benzophenone; phases: Crystal, Gas
Property: Vapor or sublimation pressure, kPa (Crystal); method: Closed cell (Static) method
Temperature, K	Vapor or sublimation pressure, kPa	uncertainty
293.08	4.2e-05	0.00011
293.09	4.6e-05	0.00011
293.1	4.1e-05	0.00011
296.29	6.8e-05	0.000111
296.29	6.9e-05	0.000111
296.3	6.7e-05	0.000111
298.44	9.2e-05	0.000112
298.44	9.3e-05	0.000112
298.45	9e-05	0.000112
300.55	0.000124	0.000113
300.56	0.000118	0.000113
300.56	0.000119	0.000113
303.2	0.000168	0.000114
303.22	0.000166	0.000114
303.25	0.000165	0.000114
306.93	0.000263	0.000116
306.93	0.000265	0.000116
306.93	0.000267	0.000116
309.05	0.000338	0.000117
309.05	0.00034	0.000117
309.05	0.000345	0.000117
311.1	0.000431	0.000119
311.1	0.000434	0.000119
311.1	0.000435	0.000119
314.3	0.000629	0.000122
314.3	0.000632	0.000122
314.3	0.000635	0.000122
317.33	0.000891	0.000126
317.34	0.000892	0.000126
317.34	0.000899	0.000126
319.4	0.00113	0.00013
319.41	0.001128	0.00013
319.41	0.001131	0.00013
320.42	0.001256	0.000133
320.42	0.001265	0.000133
320.42	0.001267	0.000133
320.95	0.001353	0.000135
320.95	0.001356	0.000135
320.95	0.001362	0.000135

System: benzophenone; phases: Metastable crystal
Fixed: Pressure, kPa = 101.325
Property: Molar heat capacity at constant pressure, J/K/mol (Metastable crystal); method: DSC
Temperature, K	Molar heat capacity at constant pressure, J/K/mol	uncertainty
214.2	168.8	6.9
218.1	171.5	7
222.1	174.4	7.1
226.1	176.9	7.2
230.1	179.8	7.3
234.1	181.4	7.4
238	183.6	7.5
242	187.8	7.7
246	191.3	7.8
250	193.4	7.9
254	196.9	8
258	198.8	8.1
262.1	201.9	8.2
266.1	204.7	8.3
270.1	207.6	8.4
274.1	209.9	8.5
278.1	213.5	8.7
282.1	215.6	8.8
286.1	218.8	8.9
290.1	221.5	9
294.1	224	9.1
