Measured thermophysical data. Domperidone Solubility in Aqueous Cosolvent Mixtures of N,N-Dimethylformamide, Isopropanol, Dimethyl Sulfoxide, and Ethanol: Thermodynamic Modeling and Preferential Solvation Analysis
Source: J. Chem. Eng. Data, 2019, 10.1021/acs.jced.9b00216
Compound 1: Domperidone, C22H24ClN5O2, InChI=1S/C22H24ClN5O2/c23-15-6-7-20-18(14-15)25-22(30)28(20)16-8-12-26(13-9-16)10-3-11-27-19-5-2-1-4-17(19)24-21(27)29/h1-2,4-7,14,16H,3,8-13H2,(H,24,29)(H,25,30), purity 98.5%
Compound 2: ethanol, C2H6O, InChI=1S/C2H6O/c1-2-3/h3H,2H2,1H3, purity 99.4%
Compound 3: propan-2-ol, C3H8O, InChI=1S/C3H8O/c1-3(2)4/h3-4H,1-2H3, purity 99.5%
Compound 4: dimethylformamide, C3H7NO, InChI=1S/C3H7NO/c1-4(2)3-5/h3H,1-2H3, purity 99.5%
Compound 5: dimethyl sulfoxide, C2H6OS, InChI=1S/C2H6OS/c1-4(2)3/h1-2H3, purity 99.4%
Compound 6: water, H2O, InChI=1S/H2O/h1H2

System: Domperidone + dimethylformamide + water; phases: Liquid, Crystal
Fixed: Pressure, kPa = 101.1
Property: Mole fraction of Domperidone (Liquid); method: Chromatography
Temperature, K	Solvent: Mass fraction of dimethylformamide	Mole fraction of Domperidone	uncertainty
293.15	0	1.748e-07	1.29e-08
298.15	0	2.219e-07	1.64e-08
303.15	0	2.762e-07	2.05e-08
308.15	0	3.352e-07	2.48e-08
313.15	0	4.157e-07	3.08e-08
318.15	0	5.11e-07	3.78e-08
323.15	0	6.384e-07	4.73e-08
328.15	0	7.727e-07	5.72e-08
333.15	0	9.341e-07	6.92e-08
293.15	0.1	1.143e-06	8.5e-08
298.15	0.1	1.412e-06	1.05e-07
303.15	0.1	1.733e-06	1.28e-07
308.15	0.1	2.114e-06	1.57e-07
313.15	0.1	2.566e-06	1.9e-07
318.15	0.1	3.098e-06	2.29e-07
323.15	0.1	3.721e-06	2.76e-07
328.15	0.1	4.448e-06	3.29e-07
333.15	0.1	5.292e-06	3.93e-07
293.15	0.2	4.324e-06	3.2e-07
298.15	0.2	5.313e-06	3.93e-07
303.15	0.2	6.478e-06	4.8e-07
308.15	0.2	7.841e-06	5.81e-07
313.15	0.2	9.426e-06	6.98e-07
318.15	0.2	1.126e-05	8.3e-07
323.15	0.2	1.336e-05	9.9e-07
328.15	0.2	1.576e-05	1.17e-06
333.15	0.2	1.849e-05	1.37e-06
293.15	0.3	1.328e-05	9.8e-07
298.15	0.3	1.629e-05	1.21e-06
303.15	0.3	1.979e-05	1.47e-06
308.15	0.3	2.384e-05	1.77e-06
313.15	0.3	2.848e-05	2.11e-06
318.15	0.3	3.376e-05	2.5e-06
323.15	0.3	3.97e-05	2.94e-06
328.15	0.3	4.637e-05	3.43e-06
333.15	0.3	5.378e-05	3.99e-06
293.15	0.4	4.06e-05	3.01e-06
298.15	0.4	4.974e-05	3.68e-06
303.15	0.4	6.026e-05	4.46e-06
308.15	0.4	7.224e-05	5.35e-06
313.15	0.4	8.576e-05	6.35e-06
318.15	0.4	0.0001009	7.5e-06
323.15	0.4	0.0001176	8.7e-06
328.15	0.4	0.0001359	1.01e-05
333.15	0.4	0.0001559	1.16e-05
293.15	0.5	0.000133	9.9e-06
298.15	0.5	0.0001625	1.2e-05
303.15	0.5	0.0001961	1.45e-05
308.15	0.5	0.0002337	1.73e-05
313.15	0.5	0.0002754	2.04e-05
318.15	0.5	0.0003211	2.38e-05
323.15	0.5	0.0003706	2.75e-05
328.15	0.5	0.0004237	3.14e-05
333.15	0.5	0.00048	3.56e-05
293.15	0.6	0.0004398	3.26e-05
298.15	0.6	0.0005358	3.97e-05
303.15	0.6	0.0006435	4.77e-05
308.15	0.6	0.0007625	5.65e-05
313.15	0.6	0.000892	6.61e-05
318.15	0.6	0.001031	7.6e-05
323.15	0.6	0.001178	8.7e-05
328.15	0.6	0.001332	9.9e-05
333.15	0.6	0.00149	0.00011
293.15	0.7	0.001211	9e-05
298.15	0.7	0.001476	0.000109
303.15	0.7	0.00177	0.000131
308.15	0.7	0.002091	0.000155
313.15	0.7	0.002434	0.00018
318.15	0.7	0.002796	0.000207
323.15	0.7	0.003171	0.000235
328.15	0.7	0.003554	0.000263
333.15	0.7	0.003937	0.000292
293.15	0.8	0.0022	0.000163
298.15	0.8	0.002572	0.00019
303.15	0.8	0.003071	0.000227
308.15	0.8	0.003528	0.000261
313.15	0.8	0.004081	0.000302
318.15	0.8	0.004746	0.000351
323.15	0.8	0.00543	0.000402
328.15	0.8	0.0061	0.000452
333.15	0.8	0.007071	0.000524
293.15	0.9	0.0009918	7.34e-05
298.15	0.9	0.001221	9e-05
303.15	0.9	0.001479	0.00011
308.15	0.9	0.001762	0.00013
313.15	0.9	0.002104	0.000156
318.15	0.9	0.002488	0.000184
323.15	0.9	0.002799	0.000207
328.15	0.9	0.003412	0.000253
333.15	0.9	0.003893	0.000288
293.15	1	0.0001704	1.26e-05
298.15	1	0.0002229	1.65e-05
303.15	1	0.0002822	2.09e-05
308.15	1	0.0003687	2.73e-05
313.15	1	0.0004712	3.49e-05
318.15	1	0.0005751	4.26e-05
323.15	1	0.0006787	5.03e-05
328.15	1	0.000791	5.86e-05
333.15	1	0.0009107	6.74e-05

System: Domperidone + dimethyl sulfoxide + water; phases: Liquid, Crystal
Fixed: Pressure, kPa = 101.1
Property: Mole fraction of Domperidone (Liquid); method: Chromatography
Temperature, K	Solvent: Mass fraction of dimethyl sulfoxide	Mole fraction of Domperidone	uncertainty
293.15	0	1.748e-07	1.29e-08
298.15	0	2.219e-07	1.64e-08
303.15	0	2.762e-07	2.05e-08
308.15	0	3.352e-07	2.48e-08
313.15	0	4.157e-07	3.08e-08
318.15	0	5.11e-07	3.78e-08
323.15	0	6.384e-07	4.73e-08
328.15	0	7.727e-07	5.72e-08
333.15	0	9.341e-07	6.92e-08
293.15	0.1	9.221e-07	6.83e-08
298.15	0.1	1.131e-06	8.4e-08
303.15	0.1	1.384e-06	1.02e-07
308.15	0.1	1.687e-06	1.25e-07
313.15	0.1	2.05e-06	1.52e-07
318.15	0.1	2.483e-06	1.84e-07
323.15	0.1	3e-06	2.22e-07
328.15	0.1	3.613e-06	2.68e-07
333.15	0.1	4.34e-06	3.22e-07
293.15	0.2	3.416e-06	2.53e-07
298.15	0.2	4.131e-06	3.06e-07
303.15	0.2	4.984e-06	3.69e-07
308.15	0.2	6.002e-06	4.44e-07
313.15	0.2	7.213e-06	5.34e-07
318.15	0.2	8.651e-06	6.41e-07
323.15	0.2	1.036e-05	7.7e-07
328.15	0.2	1.237e-05	9.2e-07
333.15	0.2	1.475e-05	1.09e-06
293.15	0.3	1.164e-05	8.6e-07
298.15	0.3	1.388e-05	1.03e-06
303.15	0.3	1.655e-05	1.23e-06
308.15	0.3	1.971e-05	1.46e-06
313.15	0.3	2.346e-05	1.74e-06
318.15	0.3	2.789e-05	2.07e-06
323.15	0.3	3.312e-05	2.45e-06
328.15	0.3	3.93e-05	2.91e-06
333.15	0.3	4.658e-05	3.46e-06
293.15	0.4	4.23e-05	3.14e-06
298.15	0.4	4.975e-05	3.69e-06
303.15	0.4	5.853e-05	4.34e-06
308.15	0.4	6.888e-05	5.1e-06
313.15	0.4	8.107e-05	6.01e-06
318.15	0.4	9.544e-05	7.07e-06
323.15	0.4	0.0001124	8.3e-06
328.15	0.4	0.0001323	9.8e-06
333.15	0.4	0.0001557	1.16e-05
293.15	0.5	0.0001691	1.26e-05
298.15	0.5	0.0001957	1.45e-05
303.15	0.5	0.0002268	1.68e-05
308.15	0.5	0.0002634	1.95e-05
313.15	0.5	0.0003062	2.27e-05
318.15	0.5	0.0003565	2.64e-05
323.15	0.5	0.0004154	3.08e-05
328.15	0.5	0.0004846	3.59e-05
333.15	0.5	0.0005657	4.21e-05
293.15	0.6	0.0006798	5.04e-05
298.15	0.6	0.0007742	5.74e-05
303.15	0.6	0.0008844	6.55e-05
308.15	0.6	0.001013	7.5e-05
313.15	0.6	0.001163	8.6e-05
318.15	0.6	0.001339	9.9e-05
323.15	0.6	0.001545	0.000114
328.15	0.6	0.001785	0.000132
333.15	0.6	0.002066	0.000153
293.15	0.7	0.002234	0.000165
298.15	0.7	0.002512	0.000186
303.15	0.7	0.002837	0.00021
308.15	0.7	0.003216	0.000238
313.15	0.7	0.003659	0.000271
318.15	0.7	0.004176	0.000309
323.15	0.7	0.004782	0.000354
328.15	0.7	0.005491	0.000407
333.15	0.7	0.006321	0.000468
293.15	0.8	0.004328	0.000321
298.15	0.8	0.004847	0.000359
303.15	0.8	0.005458	0.000404
308.15	0.8	0.006174	0.000457
313.15	0.8	0.007015	0.000519
318.15	0.8	0.008004	0.000593
323.15	0.8	0.009166	0.000679
328.15	0.8	0.01061	0.00079
333.15	0.8	0.012	0.00089
293.15	0.9	0.002442	0.000181
298.15	0.9	0.003018	0.000223
303.15	0.9	0.003437	0.000254
308.15	0.9	0.003932	0.000291
313.15	0.9	0.004487	0.000332
318.15	0.9	0.005161	0.000382
323.15	0.9	0.005824	0.000431
328.15	0.9	0.006447	0.000477
333.15	0.9	0.007039	0.000521
293.15	1	0.0004888	3.62e-05
298.15	1	0.0005845	4.33e-05
303.15	1	0.0006979	5.17e-05
308.15	1	0.000832	6.16e-05
313.15	1	0.0009902	7.33e-05
318.15	1	0.001181	8.7e-05
323.15	1	0.001419	0.000105
328.15	1	0.001712	0.000127
333.15	1	0.002093	0.000155

System: Domperidone + ethanol + water; phases: Liquid, Crystal
Fixed: Pressure, kPa = 101.1
Property: Mole fraction of Domperidone (Liquid); method: Chromatography
Temperature, K	Solvent: Mass fraction of ethanol	Mole fraction of Domperidone	uncertainty
293.15	0	1.748e-07	1.29e-08
298.15	0	2.219e-07	1.64e-08
303.15	0	2.762e-07	2.05e-08
308.15	0	3.352e-07	2.48e-08
313.15	0	4.157e-07	3.08e-08
318.15	0	5.11e-07	3.78e-08
323.15	0	6.384e-07	4.73e-08
328.15	0	7.727e-07	5.72e-08
333.15	0	9.341e-07	6.92e-08
293.15	0.1	1.228e-06	9.1e-08
298.15	0.1	1.501e-06	1.11e-07
303.15	0.1	1.827e-06	1.35e-07
308.15	0.1	2.214e-06	1.64e-07
313.15	0.1	2.674e-06	1.98e-07
318.15	0.1	3.217e-06	2.38e-07
323.15	0.1	3.856e-06	2.86e-07
328.15	0.1	4.607e-06	3.41e-07
333.15	0.1	5.486e-06	4.07e-07
293.15	0.2	4.572e-06	3.39e-07
298.15	0.2	5.51e-06	4.08e-07
303.15	0.2	6.614e-06	4.9e-07
308.15	0.2	7.91e-06	5.86e-07
313.15	0.2	9.426e-06	6.98e-07
318.15	0.2	1.119e-05	8.3e-07
323.15	0.2	1.325e-05	9.8e-07
328.15	0.2	1.564e-05	1.16e-06
333.15	0.2	1.839e-05	1.36e-06
293.15	0.3	1.25e-05	9.3e-07
298.15	0.3	1.493e-05	1.11e-06
303.15	0.3	1.777e-05	1.32e-06
308.15	0.3	2.107e-05	1.56e-06
313.15	0.3	2.489e-05	1.84e-06
318.15	0.3	2.932e-05	2.17e-06
323.15	0.3	3.442e-05	2.55e-06
328.15	0.3	4.028e-05	2.98e-06
333.15	0.3	4.7e-05	3.48e-06
293.15	0.4	3.079e-05	2.28e-06
298.15	0.4	3.652e-05	2.7e-06
303.15	0.4	4.316e-05	3.2e-06
308.15	0.4	5.082e-05	3.76e-06
313.15	0.4	5.963e-05	4.42e-06
318.15	0.4	6.975e-05	5.17e-06
323.15	0.4	8.133e-05	6.02e-06
328.15	0.4	9.455e-05	7e-06
333.15	0.4	0.0001096	8.1e-06
293.15	0.5	7.44e-05	5.5e-06
298.15	0.5	8.76e-05	6.5e-06
303.15	0.5	0.0001028	7.6e-06
308.15	0.5	0.0001203	8.9e-06
313.15	0.5	0.0001402	1.04e-05
318.15	0.5	0.0001629	1.21e-05
323.15	0.5	0.0001888	1.4e-05
328.15	0.5	0.000218	1.61e-05
333.15	0.5	0.0002511	1.86e-05
293.15	0.6	0.0001697	1.26e-05
298.15	0.6	0.0001988	1.47e-05
303.15	0.6	0.000232	1.72e-05
308.15	0.6	0.0002698	2e-05
313.15	0.6	0.0003127	2.32e-05
318.15	0.6	0.0003614	2.68e-05
323.15	0.6	0.0004162	3.08e-05
328.15	0.6	0.0004619	3.42e-05
333.15	0.6	0.0005302	3.93e-05
293.15	0.7	0.0002626	1.94e-05
298.15	0.7	0.0003072	2.27e-05
303.15	0.7	0.0003611	2.67e-05
308.15	0.7	0.0004151	3.07e-05
313.15	0.7	0.0004811	3.56e-05
318.15	0.7	0.0005531	4.1e-05
323.15	0.7	0.0006243	4.62e-05
328.15	0.7	0.0007248	5.37e-05
333.15	0.7	0.0008255	6.11e-05
293.15	0.8	0.0003964	2.94e-05
298.15	0.8	0.0004677	3.46e-05
303.15	0.8	0.0005344	3.96e-05
308.15	0.8	0.0006164	4.56e-05
313.15	0.8	0.0007015	5.19e-05
318.15	0.8	0.0007868	5.83e-05
323.15	0.8	0.0008971	6.64e-05
328.15	0.8	0.001031	7.6e-05
333.15	0.8	0.001176	8.7e-05
293.15	0.9	0.0001848	1.37e-05
298.15	0.9	0.0002215	1.64e-05
303.15	0.9	0.0002641	1.96e-05
308.15	0.9	0.0003134	2.32e-05
313.15	0.9	0.0003532	2.62e-05
318.15	0.9	0.000402	2.98e-05
323.15	0.9	0.0004549	3.37e-05
328.15	0.9	0.0005009	3.71e-05
333.15	0.9	0.000558	4.13e-05
293.15	1	1.863e-05	1.38e-06
298.15	1	2.278e-05	1.69e-06
303.15	1	2.933e-05	2.17e-06
308.15	1	3.604e-05	2.67e-06
313.15	1	4.533e-05	3.36e-06
318.15	1	5.35e-05	3.96e-06
323.15	1	6.565e-05	4.86e-06
328.15	1	8.058e-05	5.97e-06
333.15	1	9.651e-05	7.15e-06

System: Domperidone + propan-2-ol + water; phases: Liquid, Crystal
Fixed: Pressure, kPa = 101.1
Property: Mole fraction of Domperidone (Liquid); method: Chromatography
Temperature, K	Solvent: Mass fraction of propan-2-ol	Mole fraction of Domperidone	uncertainty
293.15	0	1.748e-07	1.29e-08
298.15	0	2.219e-07	1.64e-08
303.15	0	2.762e-07	2.05e-08
308.15	0	3.352e-07	2.48e-08
313.15	0	4.157e-07	3.08e-08
318.15	0	5.11e-07	3.78e-08
323.15	0	6.384e-07	4.73e-08
328.15	0	7.727e-07	5.72e-08
333.15	0	9.341e-07	6.92e-08
293.15	0.1	1.533e-06	1.14e-07
298.15	0.1	1.87e-06	1.38e-07
303.15	0.1	2.27e-06	1.68e-07
308.15	0.1	2.742e-06	2.03e-07
313.15	0.1	3.297e-06	2.44e-07
318.15	0.1	3.946e-06	2.92e-07
323.15	0.1	4.704e-06	3.48e-07
328.15	0.1	5.585e-06	4.14e-07
333.15	0.1	6.605e-06	4.9e-07
293.15	0.2	5.878e-06	4.35e-07
298.15	0.2	7.081e-06	5.24e-07
303.15	0.2	8.48e-06	6.28e-07
308.15	0.2	1.01e-05	7.5e-07
313.15	0.2	1.197e-05	8.9e-07
318.15	0.2	1.411e-05	1.04e-06
323.15	0.2	1.656e-05	1.23e-06
328.15	0.2	1.935e-05	1.43e-06
333.15	0.2	2.251e-05	1.67e-06
293.15	0.3	1.588e-05	1.18e-06
298.15	0.3	1.9e-05	1.41e-06
303.15	0.3	2.258e-05	1.67e-06
308.15	0.3	2.667e-05	1.98e-06
313.15	0.3	3.131e-05	2.32e-06
318.15	0.3	3.655e-05	2.71e-06
323.15	0.3	4.245e-05	3.14e-06
328.15	0.3	4.903e-05	3.63e-06
333.15	0.3	5.637e-05	4.18e-06
293.15	0.4	4.075e-05	3.02e-06
298.15	0.4	4.847e-05	3.59e-06
303.15	0.4	5.723e-05	4.24e-06
308.15	0.4	6.708e-05	4.97e-06
313.15	0.4	7.81e-05	5.78e-06
318.15	0.4	9.034e-05	6.69e-06
323.15	0.4	0.0001039	7.7e-06
328.15	0.4	0.0001187	8.8e-06
333.15	0.4	0.000135	1e-05
293.15	0.5	0.0001125	8.3e-06
298.15	0.5	0.0001328	9.8e-06
303.15	0.5	0.0001556	1.15e-05
308.15	0.5	0.0001808	1.34e-05
313.15	0.5	0.0002085	1.54e-05
318.15	0.5	0.0002387	1.77e-05
323.15	0.5	0.0002715	2.01e-05
328.15	0.5	0.0003068	2.27e-05
333.15	0.5	0.0003445	2.55e-05
293.15	0.6	0.0003166	2.34e-05
298.15	0.6	0.0003712	2.75e-05
303.15	0.6	0.0004311	3.19e-05
308.15	0.6	0.0004964	3.68e-05
313.15	0.6	0.0005669	4.2e-05
318.15	0.6	0.0006422	4.76e-05
323.15	0.6	0.0007222	5.35e-05
328.15	0.6	0.0008065	5.97e-05
333.15	0.6	0.0008947	6.62e-05
293.15	0.7	0.0005838	4.32e-05
298.15	0.7	0.0006717	4.97e-05
303.15	0.7	0.0007809	5.78e-05
308.15	0.7	0.0008768	6.49e-05
313.15	0.7	0.0009834	7.28e-05
318.15	0.7	0.00112	8.3e-05
323.15	0.7	0.00127	9.4e-05
328.15	0.7	0.00141	0.000104
333.15	0.7	0.00154	0.000114
293.15	0.8	0.001061	7.9e-05
298.15	0.8	0.001143	8.5e-05
303.15	0.8	0.001252	9.3e-05
308.15	0.8	0.001376	0.000102
313.15	0.8	0.001521	0.000113
318.15	0.8	0.001734	0.000128
323.15	0.8	0.001982	0.000147
328.15	0.8	0.002293	0.00017
333.15	0.8	0.002587	0.000192
293.15	0.9	0.000424	3.14e-05
298.15	0.9	0.0005012	3.71e-05
303.15	0.9	0.0005785	4.28e-05
308.15	0.9	0.0006824	5.05e-05
313.15	0.9	0.0007623	5.64e-05
318.15	0.9	0.0008635	6.39e-05
323.15	0.9	0.0009727	7.2e-05
328.15	0.9	0.00109	8.1e-05
333.15	0.9	0.00118	8.7e-05
293.15	1	1.852e-05	1.37e-06
298.15	1	2.295e-05	1.7e-06
303.15	1	2.743e-05	2.03e-06
308.15	1	3.454e-05	2.56e-06
313.15	1	4.334e-05	3.21e-06
318.15	1	5.415e-05	4.01e-06
323.15	1	6.477e-05	4.8e-06
328.15	1	7.702e-05	5.7e-06
333.15	1	8.985e-05	6.65e-06

System: Domperidone + water; phases: Liquid, Crystal
Fixed: Pressure, kPa = 101.1
Property: Mole fraction of Domperidone (Liquid); method: Chromatography
Temperature, K	Mole fraction of Domperidone	uncertainty
293.15	1.748e-07	1.29e-08
298.15	2.219e-07	1.64e-08
303.15	2.762e-07	2.05e-08
308.15	3.352e-07	2.48e-08
313.15	4.157e-07	3.08e-08
318.15	5.11e-07	3.78e-08
323.15	6.384e-07	4.73e-08
328.15	7.727e-07	5.72e-08
333.15	9.341e-07	6.92e-08

System: Domperidone + dimethylformamide; phases: Liquid, Crystal
Fixed: Pressure, kPa = 101.1
Property: Mole fraction of Domperidone (Liquid); method: Chromatography
Temperature, K	Mole fraction of Domperidone	uncertainty
293.15	0.0001704	1.26e-05
298.15	0.0002229	1.65e-05
303.15	0.0002822	2.09e-05
308.15	0.0003687	2.73e-05
313.15	0.0004712	3.49e-05
318.15	0.0005751	4.26e-05
323.15	0.0006787	5.03e-05
328.15	0.000791	5.86e-05
333.15	0.0009107	6.74e-05

System: Domperidone + dimethyl sulfoxide; phases: Liquid, Crystal
Fixed: Pressure, kPa = 101.1
Property: Mole fraction of Domperidone (Liquid); method: Chromatography
Temperature, K	Mole fraction of Domperidone	uncertainty
293.15	0.0004888	3.62e-05
298.15	0.0005845	4.33e-05
303.15	0.0006979	5.17e-05
308.15	0.000832	6.16e-05
313.15	0.0009902	7.33e-05
318.15	0.001181	8.7e-05
323.15	0.001419	0.000105
328.15	0.001712	0.000127
333.15	0.002093	0.000155

System: Domperidone + ethanol; phases: Liquid, Crystal
Fixed: Pressure, kPa = 101.1
Property: Mole fraction of Domperidone (Liquid); method: Chromatography
Temperature, K	Mole fraction of Domperidone	uncertainty
293.15	1.863e-05	1.38e-06
298.15	2.278e-05	1.69e-06
303.15	2.933e-05	2.17e-06
308.15	3.604e-05	2.67e-06
313.15	4.533e-05	3.36e-06
318.15	5.35e-05	3.96e-06
323.15	6.565e-05	4.86e-06
328.15	8.058e-05	5.97e-06
333.15	9.651e-05	7.15e-06

System: Domperidone + propan-2-ol; phases: Liquid, Crystal
Fixed: Pressure, kPa = 101.1
Property: Mole fraction of Domperidone (Liquid); method: Chromatography
Temperature, K	Mole fraction of Domperidone	uncertainty
293.15	1.852e-05	1.37e-06
298.15	2.295e-05	1.7e-06
303.15	2.743e-05	2.03e-06
308.15	3.454e-05	2.56e-06
313.15	4.334e-05	3.21e-06
318.15	5.415e-05	4.01e-06
323.15	6.477e-05	4.8e-06
328.15	7.702e-05	5.7e-06
333.15	8.985e-05	6.65e-06
