Measured thermophysical data. The Viscosity of Dilute Water Vapor Revisited: New Reference Values from Experiment and Theory for Temperatures between (250 and 2500) K
Source: J. Chem. Eng. Data, 2015, 10.1021/acs.jced.5b00599
Compound 1: water, H2O, InChI=1S/H2O/h1H2, purity 99.9%

System: water; phases: Gas
Property: Viscosity, Pa*s (Gas); method: Oscillating disk viscometry
Temperature, K	Mass density, kg/m3	Viscosity, Pa*s	uncertainty
299.38	0.018	9.722e-06	3.81e-07
300.35	0.018	9.746e-06	3.81e-07
311.52	0.018	1.0132e-05	3.9e-07
327.19	0.018	1.0671e-05	4.03e-07
339.05	0.018	1.109e-05	4.13e-07
352.69	0.018	1.1576e-05	4.24e-07
366.97	0.018	1.2079e-05	4.36e-07
380.86	0.018	1.2599e-05	4.48e-07
384.22	0.018	1.2726e-05	4.51e-07
394.87	0.018	1.3127e-05	4.6e-07
410.22	0.018	1.3699e-05	4.73e-07
423.87	0.018	1.4231e-05	4.86e-07
438.75	0.018	1.4816e-05	4.99e-07
468.21	0.018	1.6009e-05	5.78e-07
497.08	0.018	1.7229e-05	6.14e-07
338.47	0.023	1.1067e-05	4.12e-07
352.84	0.023	1.1575e-05	4.24e-07
297.76	0.023	9.649e-06	3.79e-07
367.44	0.023	1.2101e-05	4.36e-07
301.55	0.023	9.792e-06	3.82e-07
381.03	0.023	1.2605e-05	4.48e-07
382.98	0.023	1.2673e-05	4.49e-07
311.12	0.023	1.0108e-05	3.9e-07
395.16	0.023	1.3118e-05	4.6e-07
409.25	0.023	1.3649e-05	4.72e-07
423.35	0.023	1.4191e-05	4.85e-07
438.48	0.023	1.4782e-05	4.99e-07
325.62	0.023	1.0628e-05	4.02e-07
468.74	0.023	1.5983e-05	5.77e-07
496.27	0.023	1.7105e-05	6.11e-07
380.61	0.129	1.2568e-05	4.47e-07
380.91	0.129	1.2596e-05	4.48e-07
310.44	0.129	1.0076e-05	3.89e-07
394.75	0.129	1.3096e-05	4.59e-07
352.79	0.129	1.1558e-05	4.24e-07
338.27	0.129	1.1045e-05	4.12e-07
408.69	0.129	1.3654e-05	4.72e-07
423.17	0.129	1.4208e-05	4.85e-07
366.46	0.129	1.2052e-05	4.35e-07
437.93	0.129	1.4791e-05	4.99e-07
298.69	0.129	9.676e-06	3.8e-07
466.96	0.129	1.5983e-05	5.77e-07
298.99	0.129	9.697e-06	3.8e-07
497.01	0.129	1.7273e-05	6.14e-07
326.81	0.129	1.064e-05	4.02e-07
352.03	0.092	1.1536e-05	4.23e-07
297.33	0.092	9.63e-06	3.79e-07
298.16	0.092	9.654e-06	3.79e-07
437.65	0.092	1.4786e-05	4.99e-07
339.49	0.092	1.1091e-05	4.13e-07
408.37	0.092	1.363e-05	4.72e-07
325.16	0.092	1.0587e-05	4.01e-07
466.44	0.092	1.5959e-05	5.76e-07
394.56	0.092	1.3105e-05	4.59e-07
365.89	0.092	1.204e-05	4.35e-07
380.14	0.092	1.2565e-05	4.47e-07
380.24	0.092	1.2573e-05	4.47e-07
496.94	0.092	1.7227e-05	6.13e-07
311.13	0.092	1.0098e-05	3.9e-07
422.63	0.092	1.4185e-05	4.85e-07
