Measured thermophysical data. Solubility Measurement of the Systems MF2 (M = Ca, Mg, Zn) + ZnSO4 + H2O and MF2 (M = Ca, Mg) + ZnF2 + H2O at 298.15 K
Source: J. Chem. Eng. Data, 2019, 10.1021/acs.jced.9b00195
Compound 1: zinc sulfate, O4SZn, InChI=1S/H2O4S.Zn/c1-5(2,3)4;/h(H2,1,2,3,4);/q;+2/p-2
Compound 2: magnesium difluoride, F2Mg, InChI=1S/2FH.Mg/h2*1H;/q;;+2/p-2, purity 99%
Compound 3: calcium fluoride, CaF2, InChI=1S/Ca.2FH/h;2*1H/q+2;;/p-2, purity 98.5%
Compound 4: zinc fluoride, F2Zn, InChI=1S/2FH.Zn/h2*1H;/q;;+2/p-2, purity 99%
Compound 5: water, H2O, InChI=1S/H2O/h1H2, purity 99.9%

System: calcium fluoride + zinc sulfate + water; phases: Liquid, Crystal
Fixed: Temperature, K = 298.15
Fixed: Pressure, kPa = 101
Property: Molality, mol/kg of calcium fluoride (Liquid); method: chemical analysis
Solvent: Molality, mol/kg of zinc sulfate	Molality, mol/kg of calcium fluoride	uncertainty
0	0.00023	4.6e-05
0.0213	0.000398	8e-05
0.1278	0.000547	0.000109
0.4143	0.000817	0.000164
0.6927	0.00101	0.0002
0.8868	0.00116	0.00023
1.554	0.00151	0.0003
2.067	0.00176	0.00035
3.305	0.00197	0.00039

System: magnesium difluoride + zinc sulfate + water; phases: Liquid, Crystal
Fixed: Temperature, K = 298.15
Fixed: Pressure, kPa = 101
Property: Molality, mol/kg of magnesium difluoride (Liquid); method: chemical analysis
Solvent: Molality, mol/kg of zinc sulfate	Molality, mol/kg of magnesium difluoride	uncertainty
0	0.00132	0.000264
0.0714	0.002525	0.000505
0.1313	0.002955	0.000591
0.4179	0.004315	0.000863
0.8964	0.00547	0.0011
1.438	0.00688	0.00138
2.121	0.00772	0.00154
3.568	0.00844	0.00169

System: zinc fluoride + zinc sulfate + water; phases: Liquid, Crystal of intercomponent compound 1
Fixed: Temperature, K = 298.15
Fixed: Pressure, kPa = 101
Property: Molality, mol/kg of zinc fluoride (Liquid); method: chemical analysis
Solvent: Molality, mol/kg of zinc sulfate	Molality, mol/kg of zinc fluoride	uncertainty
0	0.156	0.003
0.0104	0.155	0.003
0.0811	0.13	0.003
0.203	0.152	0.003
0.803	0.189	0.004
1.304	0.213	0.004
1.775	0.221	0.005
2.32	0.236	0.005
2.821	0.243	0.005
3.324	0.25	0.005

System: calcium fluoride + zinc fluoride + water; phases: Liquid, Crystal
Fixed: Temperature, K = 298.15
Fixed: Pressure, kPa = 101
Property: Molality, mol/kg of calcium fluoride (Liquid); method: chemical analysis
Solvent: Molality, mol/kg of zinc fluoride	Molality, mol/kg of calcium fluoride	uncertainty
0	0.000254	0.000254
0.00029	0.000102	0.000102
0.000903	2.6e-05	2.6e-05
0.00267	9e-06	9e-06
0.00592	4e-06	4e-06
0.0149	3e-06	3e-06
0.0362	5e-06	5e-06
0.0595	6e-06	6e-06
0.0829	7e-06	7e-06
0.129	1.6e-05	1.6e-05
0.156	2.1e-05	2.1e-05

System: calcium fluoride + zinc fluoride + water; phases: Liquid, Crystal of intercomponent compound 1
Property: Molality, mol/kg of calcium fluoride (Liquid); method: chemical analysis
Temperature, K	Solvent: Molality, mol/kg of zinc fluoride	Pressure, kPa	Molality, mol/kg of calcium fluoride	uncertainty
298.15	0.156	101	2.1e-05	2.1e-05

System: magnesium difluoride + zinc fluoride + water; phases: Liquid, Crystal
Fixed: Temperature, K = 298.15
Fixed: Pressure, kPa = 101
Property: Molality, mol/kg of magnesium difluoride (Liquid); method: chemical analysis
Solvent: Molality, mol/kg of zinc fluoride	Molality, mol/kg of magnesium difluoride	uncertainty
0	0.001462	0.001462
0.00038	0.000991	0.000991
0.00123	0.000595	0.000595
0.00314	0.000282	0.000282
0.00504	0.000134	0.000134
0.0162	3.4e-05	3.4e-05
0.0588	1.5e-05	1.5e-05
0.0909	1e-05	1e-05
0.137	6e-06	6e-06
0.155	7e-06	7e-06

System: magnesium difluoride + zinc fluoride + water; phases: Liquid, Crystal of intercomponent compound 1
Property: Molality, mol/kg of magnesium difluoride (Liquid); method: chemical analysis
Temperature, K	Solvent: Molality, mol/kg of zinc fluoride	Pressure, kPa	Molality, mol/kg of magnesium difluoride	uncertainty
298.15	0.155	101	7e-06	7e-06

System: calcium fluoride + water; phases: Liquid, Crystal
Fixed: Temperature, K = 298.15
Fixed: Pressure, kPa = 101
Property: Molality, mol/kg of calcium fluoride (Liquid); method: chemical analysis
Molality, mol/kg of calcium fluoride	uncertainty
0.00023	4.6e-05
0.000254	5.1e-05

System: magnesium difluoride + water; phases: Liquid, Crystal
Fixed: Temperature, K = 298.15
Fixed: Pressure, kPa = 101
Property: Molality, mol/kg of magnesium difluoride (Liquid); method: chemical analysis
Molality, mol/kg of magnesium difluoride	uncertainty
0.00132	0.000264
0.001462	0.000292

System: zinc fluoride + water; phases: Liquid, Crystal of intercomponent compound 1
Property: Molality, mol/kg of zinc fluoride (Liquid); method: chemical analysis
Temperature, K	Pressure, kPa	Molality, mol/kg of zinc fluoride	uncertainty
298.15	101	0.156	0.003
