Measured thermophysical data. Solubility of Bifonazole in Four Binary Solvent Mixtures: Experimental Measurement and Thermodynamic Modeling
Source: J. Chem. Eng. Data, 2019, 10.1021/acs.jced.9b00097
Compound 1: 1-([1,1'-biphenyl]-4-yl(phenyl)methyl)-1H-imidazole, C22H18N2, InChI=1S/C22H18N2/c1-3-7-18(8-4-1)19-11-13-21(14-12-19)22(24-16-15-23-17-24)20-9-5-2-6-10-20/h1-17,22H, purity 98.3%
Compound 2: methanol, CH4O, InChI=1S/CH4O/c1-2/h2H,1H3, purity 99.5%
Compound 3: water, H2O, InChI=1S/H2O/h1H2, purity 99.9%
Compound 4: propan-1-ol, C3H8O, InChI=1S/C3H8O/c1-2-3-4/h4H,2-3H2,1H3, purity 99.5%
Compound 5: propan-2-ol, C3H8O, InChI=1S/C3H8O/c1-3(2)4/h3-4H,1-2H3, purity 99.5%
Compound 6: 1,2-propanediol, C3H8O2, InChI=1S/C3H8O2/c1-3(5)2-4/h3-5H,2H2,1H3, purity 99.5%

System: 1-([1,1'-biphenyl]-4-yl(phenyl)methyl)-1H-imidazole + methanol + water; phases: Liquid, Crystal
Fixed: Pressure, kPa = 101.1
Property: Mole fraction of 1-([1,1'-biphenyl]-4-yl(phenyl)methyl)-1H-imidazole (Liquid); method: Chromatography
Temperature, K	Solvent: Mass fraction of methanol	Mole fraction of 1-([1,1'-biphenyl]-4-yl(phenyl)methyl)-1H-imidazole	uncertainty
278.15	1	0.002284	0.000457
283.15	1	0.003043	0.000609
288.15	1	0.003948	0.00079
293.15	1	0.005165	0.001033
298.15	1	0.0066	0.00132
303.15	1	0.008438	0.001688
308.15	1	0.01064	0.00213
313.15	1	0.0135	0.0027
318.15	1	0.01657	0.00331
278.15	0.9	0.00199	0.000398
283.15	0.9	0.002749	0.00055
288.15	0.9	0.003639	0.000728
293.15	0.9	0.004721	0.000944
298.15	0.9	0.005944	0.001189
303.15	0.9	0.007471	0.001494
308.15	0.9	0.009241	0.001848
313.15	0.9	0.01153	0.00231
318.15	0.9	0.01398	0.0028
278.15	0.8	0.001649	0.00033
283.15	0.8	0.002185	0.000437
288.15	0.8	0.00283	0.000566
293.15	0.8	0.003664	0.000733
298.15	0.8	0.00457	0.000914
303.15	0.8	0.005875	0.001175
308.15	0.8	0.00741	0.001482
313.15	0.8	0.009253	0.001851
318.15	0.8	0.0113	0.00226
278.15	0.7	0.001363	0.000273
283.15	0.7	0.001803	0.000361
288.15	0.7	0.002334	0.000467
293.15	0.7	0.003081	0.000616
298.15	0.7	0.003816	0.000763
303.15	0.7	0.004891	0.000978
308.15	0.7	0.006142	0.001229
313.15	0.7	0.007587	0.001518
318.15	0.7	0.009109	0.001822
278.15	0.6	0.001136	0.000227
283.15	0.6	0.001499	0.0003
288.15	0.6	0.00194	0.000388
293.15	0.6	0.002487	0.000497
298.15	0.6	0.00303	0.000606
303.15	0.6	0.00392	0.000784
308.15	0.6	0.004948	0.00099
313.15	0.6	0.006086	0.001217
318.15	0.6	0.007395	0.001479
278.15	0.5	0.0009282	0.0001857
283.15	0.5	0.001267	0.000253
288.15	0.5	0.00165	0.00033
293.15	0.5	0.002086	0.000417
298.15	0.5	0.002568	0.000514
303.15	0.5	0.003224	0.000645
308.15	0.5	0.004055	0.000811
313.15	0.5	0.004912	0.000982
318.15	0.5	0.0059	0.00118
278.15	0.4	0.0006958	0.0001392
283.15	0.4	0.0009157	0.0001832
288.15	0.4	0.001186	0.000237
293.15	0.4	0.001509	0.000302
298.15	0.4	0.001799	0.00036
303.15	0.4	0.002346	0.000469
308.15	0.4	0.00297	0.000594
313.15	0.4	0.003604	0.000721
318.15	0.4	0.004366	0.000873
278.15	0.3	0.0004314	8.63e-05
283.15	0.3	0.0005694	0.0001139
288.15	0.3	0.0007409	0.0001482
293.15	0.3	0.0009423	0.0001885
298.15	0.3	0.001185	0.000237
303.15	0.3	0.001512	0.000302
308.15	0.3	0.001911	0.000382
313.15	0.3	0.002313	0.000463
318.15	0.3	0.002737	0.000547
278.15	0.2	0.000192	3.84e-05
283.15	0.2	0.0002557	5.11e-05
288.15	0.2	0.0003361	6.72e-05
293.15	0.2	0.0004297	8.59e-05
298.15	0.2	0.0005079	0.0001016
303.15	0.2	0.000676	0.0001352
308.15	0.2	0.0008683	0.0001737
313.15	0.2	0.001051	0.00021
318.15	0.2	0.001284	0.000257
278.15	0.1	5.125e-05	1.025e-05
283.15	0.1	6.946e-05	1.389e-05
288.15	0.1	9.306e-05	1.861e-05
293.15	0.1	0.0001206	2.41e-05
298.15	0.1	0.0001435	2.87e-05
303.15	0.1	0.000195	3.9e-05
308.15	0.1	0.0002548	5.1e-05
313.15	0.1	0.0003113	6.23e-05
318.15	0.1	0.0003853	7.71e-05
278.15	0	6.6e-06	1.32e-06
283.15	0	9.22e-06	1.844e-06
288.15	0	1.275e-05	2.55e-06
293.15	0	1.696e-05	3.39e-06
298.15	0	2.054e-05	4.11e-06
303.15	0	2.881e-05	5.76e-06
308.15	0	3.873e-05	7.75e-06
313.15	0	4.823e-05	9.65e-06
318.15	0	6.113e-05	1.223e-05

System: 1-([1,1'-biphenyl]-4-yl(phenyl)methyl)-1H-imidazole + propan-1-ol + water; phases: Liquid, Crystal
Fixed: Pressure, kPa = 101.1
Property: Mole fraction of 1-([1,1'-biphenyl]-4-yl(phenyl)methyl)-1H-imidazole (Liquid); method: Chromatography
Temperature, K	Solvent: Mass fraction of propan-1-ol	Mole fraction of 1-([1,1'-biphenyl]-4-yl(phenyl)methyl)-1H-imidazole	uncertainty
278.15	1	0.001416	0.000283
283.15	1	0.001955	0.000391
288.15	1	0.002661	0.000532
293.15	1	0.003554	0.000711
298.15	1	0.004682	0.000937
303.15	1	0.006124	0.001225
308.15	1	0.007988	0.001598
313.15	1	0.01058	0.00212
318.15	1	0.01336	0.00267
278.15	0.9	0.001214	0.000243
283.15	0.9	0.001757	0.000351
288.15	0.9	0.002488	0.000498
293.15	0.9	0.003317	0.000663
298.15	0.9	0.004301	0.00086
303.15	0.9	0.005596	0.001119
308.15	0.9	0.007036	0.001407
313.15	0.9	0.008807	0.001762
318.15	0.9	0.01089	0.00218
278.15	0.8	0.001029	0.000206
283.15	0.8	0.001405	0.000281
288.15	0.8	0.001894	0.000379
293.15	0.8	0.002496	0.000499
298.15	0.8	0.003195	0.000639
303.15	0.8	0.004189	0.000838
308.15	0.8	0.005435	0.001087
313.15	0.8	0.007034	0.001407
318.15	0.8	0.008796	0.001759
278.15	0.7	0.000688	0.0001376
283.15	0.7	0.001045	0.000209
288.15	0.7	0.001462	0.000292
293.15	0.7	0.002046	0.000409
298.15	0.7	0.002798	0.00056
303.15	0.7	0.003588	0.000718
308.15	0.7	0.004563	0.000913
313.15	0.7	0.005674	0.001135
318.15	0.7	0.006816	0.001363
278.15	0.6	0.0006224	0.0001245
283.15	0.6	0.0008435	0.0001687
288.15	0.6	0.001129	0.000226
293.15	0.6	0.001473	0.000295
298.15	0.6	0.001838	0.000368
303.15	0.6	0.002422	0.000484
308.15	0.6	0.003135	0.000627
313.15	0.6	0.003974	0.000795
318.15	0.6	0.004934	0.000987
278.15	0.5	0.0004194	8.39e-05
283.15	0.5	0.0005146	0.0001029
288.15	0.5	0.000706	0.0001412
293.15	0.5	0.0009612	0.0001923
298.15	0.5	0.001179	0.000236
303.15	0.5	0.001575	0.000315
308.15	0.5	0.002025	0.000405
313.15	0.5	0.00259	0.000518
318.15	0.5	0.00326	0.000652
278.15	0.4	0.0002491	4.98e-05
283.15	0.4	0.0003375	6.75e-05
288.15	0.4	0.0004521	9.04e-05
293.15	0.4	0.0005877	0.0001176
298.15	0.4	0.000719	0.0001438
303.15	0.4	0.0009586	0.0001917
308.15	0.4	0.001245	0.000249
313.15	0.4	0.001556	0.000311
318.15	0.4	0.001929	0.000386
278.15	0.3	0.0001281	2.56e-05
283.15	0.3	0.0001617	3.23e-05
288.15	0.3	0.0002173	4.35e-05
293.15	0.3	0.0002966	5.93e-05
298.15	0.3	0.0004043	8.09e-05
303.15	0.3	0.0005324	0.0001065
308.15	0.3	0.0006805	0.0001361
313.15	0.3	0.0008393	0.0001679
318.15	0.3	0.001006	0.000201
278.15	0.2	5.632e-05	1.126e-05
283.15	0.2	7.705e-05	1.541e-05
288.15	0.2	0.0001043	2.09e-05
293.15	0.2	0.0001364	2.73e-05
298.15	0.2	0.0001651	3.3e-05
303.15	0.2	0.0002247	4.49e-05
308.15	0.2	0.0002955	5.91e-05
313.15	0.2	0.0003668	7.34e-05
318.15	0.2	0.0004577	9.16e-05
278.15	0.1	2.098e-05	4.2e-06
283.15	0.1	2.897e-05	5.79e-06
288.15	0.1	3.957e-05	7.92e-06
293.15	0.1	5.212e-05	1.043e-05
298.15	0.1	6.303e-05	1.261e-05
303.15	0.1	8.696e-05	1.739e-05
308.15	0.1	0.0001155	2.31e-05
313.15	0.1	0.0001434	2.87e-05
318.15	0.1	0.0001801	3.6e-05
278.15	0	6.6e-06	1.32e-06
283.15	0	9.22e-06	1.844e-06
288.15	0	1.275e-05	2.55e-06
293.15	0	1.696e-05	3.39e-06
298.15	0	2.054e-05	4.11e-06
303.15	0	2.881e-05	5.76e-06
308.15	0	3.873e-05	7.75e-06
313.15	0	4.823e-05	9.65e-06
318.15	0	6.113e-05	1.223e-05

System: 1-([1,1'-biphenyl]-4-yl(phenyl)methyl)-1H-imidazole + propan-2-ol + water; phases: Liquid, Crystal
Fixed: Pressure, kPa = 101.1
Property: Mole fraction of 1-([1,1'-biphenyl]-4-yl(phenyl)methyl)-1H-imidazole (Liquid); method: Chromatography
Temperature, K	Solvent: Mass fraction of propan-2-ol	Mole fraction of 1-([1,1'-biphenyl]-4-yl(phenyl)methyl)-1H-imidazole	uncertainty
278.15	1	0.001184	0.000237
283.15	1	0.001649	0.00033
288.15	1	0.002218	0.000444
293.15	1	0.003086	0.000617
298.15	1	0.004104	0.000821
303.15	1	0.005541	0.001108
308.15	1	0.007218	0.001444
313.15	1	0.009512	0.001903
318.15	1	0.01227	0.00245
278.15	0.9	0.001028	0.000206
283.15	0.9	0.001422	0.000284
288.15	0.9	0.001989	0.000398
293.15	0.9	0.002791	0.000558
298.15	0.9	0.003603	0.000721
303.15	0.9	0.0048	0.00096
308.15	0.9	0.006268	0.001254
313.15	0.9	0.008134	0.001627
318.15	0.9	0.01013	0.00203
278.15	0.8	0.0008794	0.0001759
283.15	0.8	0.001244	0.000249
288.15	0.8	0.001823	0.000365
293.15	0.8	0.002408	0.000482
298.15	0.8	0.003218	0.000644
303.15	0.8	0.004025	0.000805
308.15	0.8	0.004951	0.00099
313.15	0.8	0.006382	0.001277
318.15	0.8	0.008119	0.001624
278.15	0.7	0.0007207	0.0001442
283.15	0.7	0.001066	0.000213
288.15	0.7	0.001447	0.000289
293.15	0.7	0.001959	0.000392
298.15	0.7	0.002546	0.000509
303.15	0.7	0.003186	0.000637
308.15	0.7	0.003917	0.000783
313.15	0.7	0.004999	0.001
318.15	0.7	0.00632	0.001264
278.15	0.6	0.0005504	0.0001101
283.15	0.6	0.00075	0.00015
288.15	0.6	0.0009974	0.0001995
293.15	0.6	0.001334	0.000267
298.15	0.6	0.001674	0.000335
303.15	0.6	0.002248	0.00045
308.15	0.6	0.002909	0.000582
313.15	0.6	0.003677	0.000735
318.15	0.6	0.004625	0.000925
278.15	0.5	0.0003817	7.64e-05
283.15	0.5	0.000519	0.0001038
288.15	0.5	0.0006903	0.0001381
293.15	0.5	0.0009437	0.0001888
298.15	0.5	0.001243	0.000249
303.15	0.5	0.00161	0.000322
308.15	0.5	0.002047	0.000409
313.15	0.5	0.002577	0.000515
318.15	0.5	0.003112	0.000622
278.15	0.4	0.0002348	4.7e-05
283.15	0.4	0.0003191	6.38e-05
288.15	0.4	0.0004254	8.51e-05
293.15	0.4	0.000562	0.0001124
298.15	0.4	0.00069	0.000138
303.15	0.4	0.0009315	0.0001863
308.15	0.4	0.001209	0.000242
313.15	0.4	0.001508	0.000302
318.15	0.4	0.001885	0.000377
278.15	0.3	0.0001252	2.5e-05
283.15	0.3	0.0001706	3.41e-05
288.15	0.3	0.0002284	4.57e-05
293.15	0.3	0.000301	6.02e-05
298.15	0.3	0.0003667	7.33e-05
303.15	0.3	0.0004978	9.96e-05
308.15	0.3	0.0006493	0.0001299
313.15	0.3	0.0008062	0.0001613
318.15	0.3	0.001008	0.000202
278.15	0.2	5.669e-05	1.134e-05
283.15	0.2	7.763e-05	1.553e-05
288.15	0.2	0.0001047	2.09e-05
293.15	0.2	0.000138	2.76e-05
298.15	0.2	0.0001673	3.35e-05
303.15	0.2	0.0002289	4.58e-05
308.15	0.2	0.0003008	6.02e-05
313.15	0.2	0.0003728	7.46e-05
318.15	0.2	0.0004669	9.34e-05
278.15	0.1	2.138e-05	4.28e-06
283.15	0.1	2.953e-05	5.91e-06
288.15	0.1	4.025e-05	8.05e-06
293.15	0.1	5.32e-05	1.064e-05
298.15	0.1	6.436e-05	1.287e-05
303.15	0.1	8.903e-05	1.781e-05
308.15	0.1	0.0001182	2.36e-05
313.15	0.1	0.0001466	2.93e-05
318.15	0.1	0.0001844	3.69e-05
278.15	0	6.6e-06	1.32e-06
283.15	0	9.22e-06	1.844e-06
288.15	0	1.275e-05	2.55e-06
293.15	0	1.696e-05	3.39e-06
298.15	0	2.054e-05	4.11e-06
303.15	0	2.881e-05	5.76e-06
308.15	0	3.873e-05	7.75e-06
313.15	0	4.823e-05	9.65e-06
318.15	0	6.113e-05	1.223e-05

System: 1-([1,1'-biphenyl]-4-yl(phenyl)methyl)-1H-imidazole + 1,2-propanediol + water; phases: Liquid, Crystal
Fixed: Pressure, kPa = 101.1
Property: Mole fraction of 1-([1,1'-biphenyl]-4-yl(phenyl)methyl)-1H-imidazole (Liquid); method: Chromatography
Temperature, K	Solvent: Mass fraction of 1,2-propanediol	Mole fraction of 1-([1,1'-biphenyl]-4-yl(phenyl)methyl)-1H-imidazole	uncertainty
278.15	1	0.001703	0.000341
283.15	1	0.002332	0.000466
288.15	1	0.003164	0.000633
293.15	1	0.004176	0.000835
298.15	1	0.005469	0.001094
303.15	1	0.007073	0.001415
308.15	1	0.009164	0.001833
313.15	1	0.01169	0.00234
318.15	1	0.01494	0.00299
278.15	0.9	0.001449	0.00029
283.15	0.9	0.001975	0.000395
288.15	0.9	0.002667	0.000533
293.15	0.9	0.00366	0.000732
298.15	0.9	0.004894	0.000979
303.15	0.9	0.006339	0.001268
308.15	0.9	0.008159	0.001632
313.15	0.9	0.01006	0.00201
318.15	0.9	0.01217	0.00243
278.15	0.8	0.001291	0.000258
283.15	0.8	0.001805	0.000361
288.15	0.8	0.002413	0.000483
293.15	0.8	0.003082	0.000616
298.15	0.8	0.003952	0.00079
303.15	0.8	0.004965	0.000993
308.15	0.8	0.006134	0.001227
313.15	0.8	0.007702	0.001541
318.15	0.8	0.009722	0.001945
278.15	0.7	0.00108	0.000216
283.15	0.7	0.001435	0.000287
288.15	0.7	0.001897	0.000379
293.15	0.7	0.002442	0.000488
298.15	0.7	0.003084	0.000617
303.15	0.7	0.004019	0.000804
308.15	0.7	0.005168	0.001034
313.15	0.7	0.006368	0.001274
318.15	0.7	0.007825	0.001565
278.15	0.6	0.0008572	0.0001715
283.15	0.6	0.001152	0.00023
288.15	0.6	0.001534	0.000307
293.15	0.6	0.00198	0.000396
298.15	0.6	0.002452	0.00049
303.15	0.6	0.0032	0.00064
308.15	0.6	0.004112	0.000822
313.15	0.6	0.005082	0.001016
318.15	0.6	0.006336	0.001267
278.15	0.5	0.0007064	0.0001413
283.15	0.5	0.0009451	0.000189
288.15	0.5	0.001253	0.000251
293.15	0.5	0.001651	0.00033
298.15	0.5	0.002072	0.000414
303.15	0.5	0.002636	0.000527
308.15	0.5	0.003364	0.000673
313.15	0.5	0.004111	0.000822
318.15	0.5	0.005059	0.001012
278.15	0.4	0.0005324	0.0001065
283.15	0.4	0.0007103	0.0001421
288.15	0.4	0.0009392	0.0001879
293.15	0.4	0.001202	0.00024
298.15	0.4	0.001451	0.00029
303.15	0.4	0.001905	0.000381
308.15	0.4	0.002443	0.000489
313.15	0.4	0.002978	0.000596
318.15	0.4	0.003674	0.000735
278.15	0.3	0.0003337	6.67e-05
283.15	0.3	0.0004455	8.91e-05
288.15	0.3	0.0005892	0.0001179
293.15	0.3	0.0007534	0.0001507
298.15	0.3	0.0009011	0.0001802
303.15	0.3	0.001191	0.000238
308.15	0.3	0.001532	0.000306
313.15	0.3	0.00186	0.000372
318.15	0.3	0.00229	0.000458
278.15	0.2	0.0001534	3.07e-05
283.15	0.2	0.0002059	4.12e-05
288.15	0.2	0.000274	5.48e-05
293.15	0.2	0.0003519	7.04e-05
298.15	0.2	0.0004191	8.38e-05
303.15	0.2	0.0005605	0.0001121
308.15	0.2	0.0007256	0.0001451
313.15	0.2	0.0008817	0.0001764
318.15	0.2	0.001088	0.000218
278.15	0.1	4.417e-05	8.83e-06
283.15	0.1	6.015e-05	1.203e-05
288.15	0.1	8.111e-05	1.622e-05
293.15	0.1	0.0001055	2.11e-05
298.15	0.1	0.000126	2.52e-05
303.15	0.1	0.0001717	3.43e-05
308.15	0.1	0.0002254	4.51e-05
313.15	0.1	0.000276	5.52e-05
318.15	0.1	0.0003435	6.87e-05
278.15	0	6.6e-06	1.32e-06
283.15	0	9.22e-06	1.844e-06
288.15	0	1.275e-05	2.55e-06
293.15	0	1.696e-05	3.39e-06
298.15	0	2.054e-05	4.11e-06
303.15	0	2.881e-05	5.76e-06
308.15	0	3.873e-05	7.75e-06
313.15	0	4.823e-05	9.65e-06
318.15	0	6.113e-05	1.223e-05

System: 1-([1,1'-biphenyl]-4-yl(phenyl)methyl)-1H-imidazole + methanol; phases: Liquid, Crystal
Fixed: Pressure, kPa = 101.1
Property: Mole fraction of 1-([1,1'-biphenyl]-4-yl(phenyl)methyl)-1H-imidazole (Liquid); method: Chromatography
Temperature, K	Mole fraction of 1-([1,1'-biphenyl]-4-yl(phenyl)methyl)-1H-imidazole	uncertainty
278.15	0.002284	0.000457
283.15	0.003043	0.000609
288.15	0.003948	0.00079
293.15	0.005165	0.001033
298.15	0.0066	0.00132
303.15	0.008438	0.001688
308.15	0.01064	0.00213
313.15	0.0135	0.0027
318.15	0.01657	0.00331

System: 1-([1,1'-biphenyl]-4-yl(phenyl)methyl)-1H-imidazole + water; phases: Liquid, Crystal
Fixed: Pressure, kPa = 101.1
Property: Mole fraction of 1-([1,1'-biphenyl]-4-yl(phenyl)methyl)-1H-imidazole (Liquid); method: Chromatography
Temperature, K	Mole fraction of 1-([1,1'-biphenyl]-4-yl(phenyl)methyl)-1H-imidazole	uncertainty
278.15	6.6e-06	1.32e-06
283.15	9.22e-06	1.844e-06
288.15	1.275e-05	2.55e-06
293.15	1.696e-05	3.39e-06
298.15	2.054e-05	4.11e-06
303.15	2.881e-05	5.76e-06
308.15	3.873e-05	7.75e-06
313.15	4.823e-05	9.65e-06
318.15	6.113e-05	1.223e-05

System: 1-([1,1'-biphenyl]-4-yl(phenyl)methyl)-1H-imidazole + propan-1-ol; phases: Liquid, Crystal
Fixed: Pressure, kPa = 101.1
Property: Mole fraction of 1-([1,1'-biphenyl]-4-yl(phenyl)methyl)-1H-imidazole (Liquid); method: Chromatography
Temperature, K	Mole fraction of 1-([1,1'-biphenyl]-4-yl(phenyl)methyl)-1H-imidazole	uncertainty
278.15	0.001416	0.000283
283.15	0.001955	0.000391
288.15	0.002661	0.000532
293.15	0.003554	0.000711
298.15	0.004682	0.000937
303.15	0.006124	0.001225
308.15	0.007988	0.001598
313.15	0.01058	0.00212
318.15	0.01336	0.00267

System: 1-([1,1'-biphenyl]-4-yl(phenyl)methyl)-1H-imidazole + propan-2-ol; phases: Liquid, Crystal
Fixed: Pressure, kPa = 101.1
Property: Mole fraction of 1-([1,1'-biphenyl]-4-yl(phenyl)methyl)-1H-imidazole (Liquid); method: Chromatography
Temperature, K	Mole fraction of 1-([1,1'-biphenyl]-4-yl(phenyl)methyl)-1H-imidazole	uncertainty
278.15	0.001184	0.000237
283.15	0.001649	0.00033
288.15	0.002218	0.000444
293.15	0.003086	0.000617
298.15	0.004104	0.000821
303.15	0.005541	0.001108
308.15	0.007218	0.001444
313.15	0.009512	0.001903
318.15	0.01227	0.00245

System: 1-([1,1'-biphenyl]-4-yl(phenyl)methyl)-1H-imidazole + 1,2-propanediol; phases: Liquid, Crystal
Fixed: Pressure, kPa = 101.1
Property: Mole fraction of 1-([1,1'-biphenyl]-4-yl(phenyl)methyl)-1H-imidazole (Liquid); method: Chromatography
Temperature, K	Mole fraction of 1-([1,1'-biphenyl]-4-yl(phenyl)methyl)-1H-imidazole	uncertainty
278.15	0.001703	0.000341
283.15	0.002332	0.000466
288.15	0.003164	0.000633
293.15	0.004176	0.000835
298.15	0.005469	0.001094
303.15	0.007073	0.001415
308.15	0.009164	0.001833
313.15	0.01169	0.00234
318.15	0.01494	0.00299
