Measured thermophysical data. Estimation of CO2 Absorption Capacity via Correlating Measured Electrical Conductivity in a Diethanolamine Solvent System Compared to Monoethanolamine Solvent Systems
Source: J. Chem. Eng. Data, 2017, 10.1021/acs.jced.6b00862
Compound 1: diethanolamine, C4H11NO2, InChI=1S/C4H11NO2/c6-3-1-5-2-4-7/h5-7H,1-4H2, purity 98%
Compound 2: carbon dioxide, CO2, InChI=1S/CO2/c2-1-3, purity 99.9%
Compound 3: water, H2O, InChI=1S/H2O/h1H2, purity 99.8%

System: diethanolamine + water; phases: Liquid
Fixed: Pressure, kPa = 100
Fixed: Temperature, K = 298
Property: Electrical conductivity, S/m (Liquid); method: Alternating current cell with electrodes
Mass fraction of diethanolamine	Electrical conductivity, S/m	uncertainty
0.0105	0.01944	0.00039
0.021	0.02623	0.00052
0.0315	0.0318	0.00064
0.0419	0.03457	0.00069
0.0523	0.03733	0.00075

System: diethanolamine + carbon dioxide + water; phases: Liquid, Gas
Fixed: Temperature, K = 298
Fixed: Pressure, kPa = 100
Property: Electrical conductivity, S/m (Liquid); method: Alternating current cell with electrodes
Mass fraction of diethanolamine	Electrical conductivity, S/m	uncertainty
0.0105	0.574	0.0115
0.021	0.9985	0.02
0.0315	1.343	0.0269
0.0419	1.6143	0.0323
0.0523	1.8043	0.0361

System: diethanolamine + carbon dioxide + water; phases: Liquid, Gas
Fixed: Pressure, kPa = 100
Fixed: Temperature, K = 298
Property: Mass ratio of solute to solvent of carbon dioxide (Liquid); method: mass balance
Mass fraction of diethanolamine	Mass ratio of solute to solvent of carbon dioxide	uncertainty
0.0105	6.43	0.64
0.021	10.56	1.06
0.0315	14.54	1.45
0.0419	19.07	1.91
0.0523	20.63	2.06
0.1042	39.47	3.95
0.2067	64.02	6.4
0.3074	75.09	7.51
0.4064	89.08	8.91
0.5038	91.67	9.17
