Measured thermophysical data. Vapor Pressure of HFE 7100
Source: J. Chem. Eng. Data, 2015, 10.1021/acs.jced.5b00089
Compound 1: methyl nonafluoroisobutyl ether, C5H3F9O, InChI=1S/C5H3F9O/c1-15-5(13,14)2(6,3(7,8)9)4(10,11)12/h1H3, purity 99.5%
Compound 2: 1-methoxy-nonafluorobutane, C5H3F9O, InChI=1S/C5H3F9O/c1-15-5(13,14)3(8,9)2(6,7)4(10,11)12/h1H3, purity 99.5%

System: 1-methoxy-nonafluorobutane + methyl nonafluoroisobutyl ether; phases: Liquid, Gas
Fixed: Mole fraction of 1-methoxy-nonafluorobutane = 0.377
Property: Vapor or sublimation pressure, kPa (Liquid); method: Closed cell (Static) method
Temperature, K	Vapor or sublimation pressure, kPa	uncertainty
305.643	36.42	0.61
307.087	38.62	0.61
308.249	40.53	0.62
308.268	40.56	0.62
311.228	45.68	0.62
311.532	46.24	0.62
312.429	47.9	0.62
313.474	49.94	0.62
314.558	52.05	0.62
314.628	52.19	0.62
316.794	56.73	0.63
317.504	58.32	0.63
318.231	59.91	0.63
320.872	66.13	0.64
321.374	67.42	0.64
321.483	67.6	0.64
321.569	67.85	0.64
321.689	68.09	0.64
322.463	70.04	0.64
322.52	70.23	0.64
323.462	72.74	0.64
324.429	75.21	0.65
324.435	75.32	0.65
324.455	75.29	0.65
325.69	78.71	0.65
326.345	80.53	0.65
326.553	81.17	0.65
327.454	83.73	0.66
327.519	83.98	0.66
327.77	84.76	0.66
328.573	87.12	0.66
329.521	90.03	0.66
329.819	90.94	0.67
330.291	92.4	0.67
330.427	92.92	0.67
330.663	93.65	0.67
331.487	96.31	0.67
331.557	96.47	0.67
332.088	98.27	0.68
333.282	102.31	0.68
333.525	103.05	0.68
333.685	103.73	0.68
334.05	105.01	0.68
334.067	105.13	0.69
334.148	105.31	0.69
335.856	111.47	0.69
335.879	111.58	0.69
336.04	112.14	0.7
336.583	114.13	0.7
336.71	114.54	0.7
337.499	117.64	0.7
338.054	119.68	0.71
338.957	123.42	0.71
339.045	123.69	0.71
339.121	123.95	0.71
339.719	126.29	0.72
339.855	126.92	0.72
341.038	131.78	0.73
341.557	133.95	0.73
341.834	135.15	0.73
341.982	135.78	0.73
342.509	137.99	0.74
342.641	138.65	0.74
342.882	139.71	0.74
343.04	140.41	0.74
343.655	143.23	0.75
345.138	149.87	0.76
345.786	152.85	0.76
346.605	156.72	0.77
346.622	156.8	0.77
346.764	157.5	0.77
347.425	160.74	0.78
348.383	165.52	0.79
348.686	166.94	0.79
349.431	170.77	0.8
350.773	177.75	0.81
350.778	177.73	0.81
351.593	182.18	0.82
351.606	182.21	0.82
351.662	182.34	0.82
352.395	186.52	0.83
353.637	193.37	0.85
353.884	194.7	0.85
354.046	195.75	0.85
354.639	199.1	0.86
355.056	201.62	0.86
355.71	205.31	0.87
356.843	211.98	0.89
357.508	216.06	0.9
357.768	217.74	0.9
358.624	223.06	0.91
359.189	226.65	0.92
359.84	230.81	0.93
360.327	233.87	0.94
361.627	242.47	0.96
362.099	245.71	0.96
362.123	246.02	0.96
363.198	253.18	0.98
364.181	260.19	1
365.229	267.45	1.02
365.338	268.2	1.02
366.078	273.72	1.03
366.5	277.02	1.04
367.489	284.52	1.06
367.76	286.41	1.06
369.084	296.66	1.09
369.146	296.98	1.09
370.028	304.09	1.11
370.511	307.96	1.12
370.707	309.61	1.12
371.511	316.39	1.14
372.001	319.97	1.15
372.097	320.91	1.15
372.757	326.45	1.16
373.87	335.92	1.19
374.151	338.45	1.19
374.184	338.61	1.19
375.169	347.02	1.22
375.533	350.37	1.23
375.586	351.21	1.23
375.587	350.7	1.23
376.163	356.03	1.24
376.771	361.52	1.25
377.302	366.36	1.27
378.139	374.54	1.29
378.253	375.69	1.29
378.298	375.65	1.29
378.928	381.71	1.31
379.558	387.87	1.32
380.369	395.39	1.34
380.931	401.26	1.36
381.317	404.84	1.37
382.331	414.81	1.4
382.337	414.88	1.4
383.747	429.59	1.44
383.898	431.21	1.44
384.301	434.82	1.45
384.45	436.63	1.46
385.328	446.2	1.48
386.343	456.9	1.51
386.499	458.53	1.52
387.128	465.69	1.54
387.347	467.56	1.54
388.082	475.89	1.57
388.231	477.94	1.57
388.38	479.36	1.58
388.61	482.07	1.59
389.335	490.35	1.62
390.211	500.51	1.65
390.253	500.75	1.65
390.346	501.59	1.65
391.339	513.55	1.69
391.364	514.13	1.69
392.054	522.17	1.72
392.382	525.77	1.73
393.075	534.26	1.76
393.556	540.03	1.78
394.434	551.49	1.81
394.436	551.29	1.81
395.437	563.81	1.86
395.568	565.75	1.86
396.397	576.45	1.9
396.426	576.56	1.9
397.542	591.39	1.94
397.688	593.37	1.95
397.928	596.04	1.96
398.531	604.29	1.99
399.238	613.74	2.02
399.612	618.69	2.03
400.484	631.09	2.07
400.571	632.19	2.08
401.321	642.55	2.11
401.722	648.18	2.13
401.837	649.58	2.13
402.796	663.64	2.18
403.065	667.16	2.19
403.155	669.01	2.2
403.594	674.8	2.22
403.697	676.55	2.22
404.649	690.79	2.27
404.753	691.97	2.27
404.895	694.45	2.28
405.817	707.79	2.33
405.931	709.87	2.33
406.007	711.24	2.34
406.632	720.54	2.37
406.783	722.52	2.37
407.376	732.46	2.4
407.585	734.93	2.41
407.665	736.17	2.42
408.583	751.03	2.47
408.866	755.23	2.48
409.783	769.76	2.53
410.611	783.48	2.57
410.683	784.4	2.57
411.494	797.57	2.62
411.534	798.29	2.62
411.734	802.26	2.63
413.432	830.33	2.72
413.583	832.74	2.73
414.545	849.81	2.79
414.701	852.49	2.8
415.147	859.81	2.82
415.616	867.96	2.85
416.336	881.07	2.89
416.342	881.13	2.89
417.274	897.58	2.94
417.638	904.49	2.97
418.852	926.87	3.04
419.302	934.93	3.06
419.32	935.53	3.07
419.341	936.17	3.07
421.299	972.71	3.19
421.77	982.15	3.22
423.158	1009.33	3.31
423.197	1009.71	3.31
424.396	1034.37	3.39
424.662	1039.55	3.4
424.666	1039.64	3.41
427.187	1091.68	3.58
427.212	1092.21	3.58
427.226	1092.89	3.58
429.291	1136.85	3.72
430.117	1154.7	3.78
430.431	1161.45	3.8
431.275	1180.31	3.86
