Measured thermophysical data. Thermodynamic Properties and Intermolecular Interactions of a Series of N-Butylammonium Carboxylate Ionic Liquids
Source: J. Chem. Eng. Data, 2018, 10.1021/acs.jced.8b00583
Compound 1: butylammonium formate, C5H13NO2, InChI=1S/C4H11N.CH2O2/c1-2-3-4-5;2-1-3/h2-5H2,1H3;1H,(H,2,3), purity 99%
Compound 2: butylammonium acetate, C6H15NO2, InChI=1S/C4H11N.C2H4O2/c1-2-3-4-5;1-2(3)4/h2-5H2,1H3;1H3,(H,3,4), purity 99%
Compound 3: butylammonium propanoate, C7H17NO2, InChI=1S/C4H11N.C3H6O2/c1-2-3-4-5;1-2-3(4)5/h2-5H2,1H3;2H2,1H3,(H,4,5), purity 99%
Compound 4: n-butylammonium butanoate, C8H19NO2, InChI=1S/C4H11N.C4H8O2/c1-2-3-4-5;1-2-3-4(5)6/h2-5H2,1H3;2-3H2,1H3,(H,5,6), purity 99%

System: butylammonium formate; phases: Glass, Liquid, Air at 1 atmosphere
Property: Triple point temperature, K (Glass); method: DSC
Triple point temperature, K	uncertainty
164.65	2.1

System: butylammonium formate; phases: Liquid
Fixed: Pressure, kPa = 100
Property: Mass density, kg/m3 (Liquid); method: Vibrating tube method
Temperature, K	Mass density, kg/m3	uncertainty
293.15	976.96	1.97
298.15	973.8	2
303.15	970.66	1.95
308.15	967.48	1.95
313.15	964.4	1.9
318.15	961.21	1.93
323.15	958.02	1.93
328.15	954.95	1.92
333.15	951.82	1.92

System: butylammonium formate; phases: Liquid, Gas
Property: Surface tension liquid-gas, N/m (Liquid); method: Maximal bubble pressure
Temperature, K	Surface tension liquid-gas, N/m	uncertainty
293.15	0.0338	0.0003
298.15	0.0333	0.0003
303.15	0.0329	0.0003
308.15	0.0324	0.0003
313.15	0.032	0.0003
318.15	0.0315	0.0003
323.15	0.0311	0.0003
328.15	0.0306	0.0003
333.15	0.0302	0.0003

System: butylammonium formate; phases: Liquid
Fixed: Pressure, kPa = 100
Property: Viscosity, Pa*s (Liquid); method: Capillary tube (Ostwald; Ubbelohde) method
Temperature, K	Viscosity, Pa*s	uncertainty
293.15	0.160195	0.0163
298.15	0.120822	0.012212
303.15	0.092679	0.009323
308.15	0.072008	0.007222
313.15	0.057066	0.005715
318.15	0.045607	0.00457
323.15	0.037219	0.003729
328.15	0.030619	0.003068
333.15	0.025394	0.002545

System: butylammonium formate; phases: Liquid
Fixed: Pressure, kPa = 100
Property: Electrical conductivity, S/m (Liquid); method: Alternating current cell with electrodes
Temperature, K	Electrical conductivity, S/m	uncertainty
293.15	0.287	0.029
298.15	0.332	0.033
303.15	0.384	0.038
308.15	0.443	0.044
313.15	0.511	0.051
318.15	0.588	0.059
323.15	0.67	0.07
328.15	0.761	0.076
333.15	0.873	0.087

System: butylammonium acetate; phases: Glass, Liquid, Air at 1 atmosphere
Property: Triple point temperature, K (Glass); method: DSC
Triple point temperature, K	uncertainty
174.25	2.1

System: butylammonium acetate; phases: Liquid
Fixed: Pressure, kPa = 100
Property: Mass density, kg/m3 (Liquid); method: Vibrating tube method
Temperature, K	Mass density, kg/m3	uncertainty
293.15	959.02	1.93
298.15	955.95	1.92
303.15	952.87	1.92
308.15	949.87	1.91
313.15	946.81	1.91
318.15	943.73	1.9
323.15	940.83	1.89
328.15	937.8	1.9
333.15	934.68	1.88

System: butylammonium acetate; phases: Liquid, Gas
Property: Surface tension liquid-gas, N/m (Liquid); method: Maximal bubble pressure
Temperature, K	Surface tension liquid-gas, N/m	uncertainty
293.15	0.0315	0.0003
298.15	0.0311	0.0003
303.15	0.0308	0.0003
308.15	0.0305	0.0003
313.15	0.0301	0.0003
318.15	0.0298	0.0003
323.15	0.0295	0.0003
328.15	0.0291	0.0003
333.15	0.0288	0.0003

System: butylammonium acetate; phases: Liquid
Fixed: Pressure, kPa = 100
Property: Viscosity, Pa*s (Liquid); method: Capillary tube (Ostwald; Ubbelohde) method
Temperature, K	Viscosity, Pa*s	uncertainty
293.15	0.771598	0.083821
298.15	0.546326	0.058293
303.15	0.39717	0.04175
308.15	0.294586	0.030583
313.15	0.222259	0.02284
318.15	0.163911	0.016689
323.15	0.126146	0.012762
328.15	0.095032	0.009564
333.15	0.077931	0.007822

System: butylammonium acetate; phases: Liquid
Fixed: Pressure, kPa = 100
Property: Electrical conductivity, S/m (Liquid); method: Alternating current cell with electrodes
Temperature, K	Electrical conductivity, S/m	uncertainty
293.15	0.051	0.005
298.15	0.065	0.007
303.15	0.082	0.008
308.15	0.103	0.01
313.15	0.128	0.013
318.15	0.159	0.016
323.15	0.197	0.02
328.15	0.244	0.024
333.15	0.299	0.03

System: butylammonium propanoate; phases: Glass, Liquid, Air at 1 atmosphere
Property: Triple point temperature, K (Glass); method: DSC
Triple point temperature, K	uncertainty
183.75	2.1

System: butylammonium propanoate; phases: Liquid
Fixed: Pressure, kPa = 100
Property: Mass density, kg/m3 (Liquid); method: Vibrating tube method
Temperature, K	Mass density, kg/m3	uncertainty
293.15	933.95	1.88
298.15	930.84	1.87
303.15	927.79	1.87
308.15	924.86	1.86
313.15	921.76	1.86
318.15	918.77	1.85
323.15	915.69	1.84
328.15	912.7	1.8
333.15	909.66	1.83

System: butylammonium propanoate; phases: Liquid, Gas
Property: Surface tension liquid-gas, N/m (Liquid); method: Maximal bubble pressure
Temperature, K	Surface tension liquid-gas, N/m	uncertainty
293.15	0.0281	0.0003
298.15	0.0278	0.0003
303.15	0.0275	0.0003
308.15	0.0271	0.0003
313.15	0.0268	0.0003
318.15	0.0265	0.0003
323.15	0.0262	0.0003
328.15	0.0259	0.0003
333.15	0.0256	0.0003

System: butylammonium propanoate; phases: Liquid
Fixed: Pressure, kPa = 100
Property: Viscosity, Pa*s (Liquid); method: Capillary tube (Ostwald; Ubbelohde) method
Temperature, K	Viscosity, Pa*s	uncertainty
293.15	0.916563	0.100528
298.15	0.669238	0.07215
303.15	0.494639	0.052522
308.15	0.371061	0.038888
313.15	0.280471	0.029063
318.15	0.211757	0.021726
323.15	0.162676	0.01656
328.15	0.128401	0.012995
333.15	0.099347	0.010005

System: butylammonium propanoate; phases: Liquid
Fixed: Pressure, kPa = 100
Property: Electrical conductivity, S/m (Liquid); method: Alternating current cell with electrodes
Temperature, K	Electrical conductivity, S/m	uncertainty
293.15	0.049	0.005
298.15	0.06	0.006
303.15	0.074	0.007
308.15	0.091	0.009
313.15	0.111	0.011
318.15	0.135	0.014
323.15	0.164	0.016
328.15	0.196	0.02
333.15	0.234	0.023

System: n-butylammonium butanoate; phases: Glass, Liquid, Air at 1 atmosphere
Property: Triple point temperature, K (Glass); method: DSC
Triple point temperature, K	uncertainty
191.35	2.1

System: n-butylammonium butanoate; phases: Liquid
Fixed: Pressure, kPa = 100
Property: Mass density, kg/m3 (Liquid); method: Vibrating tube method
Temperature, K	Mass density, kg/m3	uncertainty
293.15	907.81	1.83
298.15	904.94	1.82
303.15	902.06	1.82
308.15	899.18	1.81
313.15	896.28	1.8
318.15	893.32	1.8
323.15	890.57	1.79
328.15	887.56	1.79
333.15	884.61	1.78

System: n-butylammonium butanoate; phases: Liquid, Gas
Property: Surface tension liquid-gas, N/m (Liquid); method: Maximal bubble pressure
Temperature, K	Surface tension liquid-gas, N/m	uncertainty
293.15	0.0257	0.0003
298.15	0.0254	0.0003
303.15	0.0251	0.0003
308.15	0.0248	0.0003
313.15	0.0245	0.0003
318.15	0.0242	0.0003
323.15	0.0239	0.0003
328.15	0.0236	0.0003
333.15	0.0234	0.0003

System: n-butylammonium butanoate; phases: Liquid
Fixed: Pressure, kPa = 100
Property: Viscosity, Pa*s (Liquid); method: Capillary tube (Ostwald; Ubbelohde) method
Temperature, K	Viscosity, Pa*s	uncertainty
293.15	1.111989	0.12334
298.15	0.812599	0.088527
303.15	0.599375	0.06425
308.15	0.448369	0.047389
313.15	0.338471	0.035335
318.15	0.262049	0.027085
323.15	0.199158	0.020394
328.15	0.154428	0.015698
333.15	0.126177	0.012765

System: n-butylammonium butanoate; phases: Liquid
Fixed: Pressure, kPa = 100
Property: Electrical conductivity, S/m (Liquid); method: Alternating current cell with electrodes
Temperature, K	Electrical conductivity, S/m	uncertainty
293.15	0.031	0.003
298.15	0.038	0.004
303.15	0.047	0.005
308.15	0.059	0.006
313.15	0.073	0.007
318.15	0.089	0.009
323.15	0.109	0.011
328.15	0.132	0.013
333.15	0.159	0.016
