Measured thermophysical data. Solubility of 2,5-Furandicarboxylic Acid in Eight Pure Solvents and Two Binary Solvent Systems at 313.15-363.15 K
Source: J. Chem. Eng. Data, 2018, 10.1021/acs.jced.7b00927
Compound 1: 2,5-furandicarboxylic acid, C6H4O5, InChI=1S/C6H4O5/c7-5(8)3-1-2-4(11-3)6(9)10/h1-2H,(H,7,8)(H,9,10), purity 95%
Compound 2: 2-methyl-1-propanol, C4H10O, InChI=1S/C4H10O/c1-4(2)3-5/h4-5H,3H2,1-2H3, purity 99%
Compound 3: methanol, CH4O, InChI=1S/CH4O/c1-2/h2H,1H3, purity 99%
Compound 4: butan-1-ol, C4H10O, InChI=1S/C4H10O/c1-2-3-4-5/h5H,2-4H2,1H3, purity 99%
Compound 5: acetic acid, C2H4O2, InChI=1S/C2H4O2/c1-2(3)4/h1H3,(H,3,4), purity 99%
Compound 6: ethyl acetate, C4H8O2, InChI=1S/C4H8O2/c1-3-6-4(2)5/h3H2,1-2H3, purity 99%
Compound 7: acetonitrile, C2H3N, InChI=1S/C2H3N/c1-2-3/h1H3, purity 99.9%
Compound 8: 4-methylpentan-2-one, C6H12O, InChI=1S/C6H12O/c1-5(2)4-6(3)7/h5H,4H2,1-3H3, purity 99%
Compound 9: water, H2O, InChI=1S/H2O/h1H2, purity 99.8%
Compound 10: 1,4-benzenedicarboxylic acid, C8H6O4, InChI=1S/C8H6O4/c9-7(10)5-1-2-6(4-3-5)8(11)12/h1-4H,(H,9,10)(H,11,12), purity 99%

System: 2,5-furandicarboxylic acid + 2-methyl-1-propanol; phases: Liquid, Crystal
Fixed: Pressure, kPa = 100
Property: Mole fraction of 2,5-furandicarboxylic acid (Liquid); method: Chromatography
Temperature, K	Mole fraction of 2,5-furandicarboxylic acid	uncertainty
313.15	0.0016834	0.0003368
318.15	0.001984	0.0003969
323.15	0.0022975	0.0004596
328.15	0.0026959	0.0005393
333.15	0.0032271	0.0006455
338.15	0.0037176	0.0007436
343.15	0.0041219	0.0008245
348.15	0.0048187	0.0009639
353.15	0.0054801	0.0010962
358.15	0.0060689	0.0012139
363.15	0.0068216	0.0013645

System: 2,5-furandicarboxylic acid + methanol; phases: Liquid, Crystal
Fixed: Pressure, kPa = 100
Property: Mole fraction of 2,5-furandicarboxylic acid (Liquid); method: Chromatography
Temperature, K	Mole fraction of 2,5-furandicarboxylic acid	uncertainty
313.15	0.0042816	0.0008565
318.15	0.0048886	0.0009778
323.15	0.005396	0.0010794
328.15	0.0068017	0.0013607
333.15	0.0080088	0.001602
338.15	0.0086856	0.0017372
343.15	0.008942	0.0017885

System: 2,5-furandicarboxylic acid + butan-1-ol; phases: Liquid, Crystal
Fixed: Pressure, kPa = 100
Property: Mole fraction of 2,5-furandicarboxylic acid (Liquid); method: Chromatography
Temperature, K	Mole fraction of 2,5-furandicarboxylic acid	uncertainty
313.15	0.0026633	0.0005327
318.15	0.0030206	0.0006042
323.15	0.0034631	0.0006927
328.15	0.0040763	0.0008154
333.15	0.0046876	0.0009376
338.15	0.0052407	0.0010482
343.15	0.0057177	0.0011437
348.15	0.0066311	0.0013264
353.15	0.0074077	0.0014817
358.15	0.0081953	0.0016392
363.15	0.0091623	0.0018327

System: 2,5-furandicarboxylic acid + acetic acid; phases: Liquid, Crystal
Fixed: Pressure, kPa = 100
Property: Mole fraction of 2,5-furandicarboxylic acid (Liquid); method: Chromatography
Temperature, K	Mole fraction of 2,5-furandicarboxylic acid	uncertainty
313.15	0.0002353	4.71e-05
318.15	0.0002724	5.45e-05
323.15	0.0003305	6.61e-05
328.15	0.000404	8.08e-05
333.15	0.0004775	9.55e-05
338.15	0.0005546	0.000111
343.15	0.0007166	0.0001434
348.15	0.0008202	0.0001641
353.15	0.0009652	0.0001931
358.15	0.0011454	0.0002291
363.15	0.0013369	0.0002674

System: 2,5-furandicarboxylic acid + ethyl acetate; phases: Liquid, Crystal
Fixed: Pressure, kPa = 100
Property: Mole fraction of 2,5-furandicarboxylic acid (Liquid); method: Chromatography
Temperature, K	Mole fraction of 2,5-furandicarboxylic acid	uncertainty
313.15	7.78e-05	1.56e-05
318.15	0.0001133	2.27e-05
323.15	0.000164	3.3e-05
328.15	0.0002379	4.76e-05
333.15	0.0002846	5.69e-05
338.15	0.0003768	7.54e-05
343.15	0.000464	9.3e-05
348.15	0.0005493	0.0001099
353.15	0.0006195	0.0001239
358.15	0.0006586	0.0001317
363.15	0.0007207	0.0001442

System: 2,5-furandicarboxylic acid + acetonitrile; phases: Liquid, Crystal
Fixed: Pressure, kPa = 100
Property: Mole fraction of 2,5-furandicarboxylic acid (Liquid); method: Chromatography
Temperature, K	Mole fraction of 2,5-furandicarboxylic acid	uncertainty
313.15	6.11e-05	1.22e-05
318.15	9.15e-05	1.83e-05
323.15	0.000112	2.24e-05
328.15	0.0001359	2.72e-05
333.15	0.0001662	3.33e-05
338.15	0.0002118	4.24e-05
343.15	0.0002481	4.96e-05
348.15	0.000278	5.56e-05
353.15	0.0003408	6.82e-05
358.15	0.0004093	8.19e-05
363.15	0.0004875	9.75e-05

System: 2,5-furandicarboxylic acid + 4-methylpentan-2-one; phases: Liquid, Crystal
Fixed: Pressure, kPa = 100
Property: Mole fraction of 2,5-furandicarboxylic acid (Liquid); method: Chromatography
Temperature, K	Mole fraction of 2,5-furandicarboxylic acid	uncertainty
313.15	0.0001363	2.73e-05
318.15	0.0001843	3.69e-05
323.15	0.000253	5.06e-05
328.15	0.000296	5.92e-05
333.15	0.0003383	6.77e-05
338.15	0.0004291	8.58e-05
343.15	0.0005356	0.0001071
348.15	0.0006314	0.0001263
353.15	0.0006659	0.0001332
358.15	0.0007209	0.0001442
363.15	0.0008626	0.0001726

System: 2,5-furandicarboxylic acid + water; phases: Liquid, Crystal
Fixed: Pressure, kPa = 100
Property: Mole fraction of 2,5-furandicarboxylic acid (Liquid); method: Chromatography
Temperature, K	Mole fraction of 2,5-furandicarboxylic acid	uncertainty
313.15	0.0002027	4.05e-05
318.15	0.0002253	4.51e-05
323.15	0.0002827	5.66e-05
328.15	0.0003698	7.4e-05
333.15	0.0004206	8.41e-05
338.15	0.0004646	9.29e-05
343.15	0.0005984	0.0001197
348.15	0.0006408	0.0001282
353.15	0.0007808	0.0001562
358.15	0.0009084	0.0001817
363.15	0.0011002	0.0002201

System: 2,5-furandicarboxylic acid + water + acetic acid; phases: Liquid, Crystal
Fixed: Pressure, kPa = 100
Property: Mole fraction of 2,5-furandicarboxylic acid (Liquid); method: Chromatography
Temperature, K	Solvent: Mole fraction of water	Mole fraction of 2,5-furandicarboxylic acid	uncertainty
313.15	0.083	0.0002727	5.46e-05
313.15	0.162	0.0003546	7.09e-05
313.15	0.226	0.0003813	7.63e-05
313.15	0.286	0.0004496	8.99e-05
313.15	0.343	0.0005015	0.0001003
313.15	0.392	0.0005584	0.0001117
313.15	0.455	0.0006506	0.0001301
313.15	0.69	0.0011797	0.000236
313.15	0.834	0.0007338	0.0001468
313.15	0.926	0.000516	0.0001032
343.15	0.083	0.000892	0.0001784
343.15	0.161	0.0010796	0.000216
343.15	0.226	0.0011749	0.000235
343.15	0.285	0.0013028	0.0002606
343.15	0.342	0.0015463	0.0003093
343.15	0.392	0.0017664	0.0003534
343.15	0.455	0.0020802	0.0004161
343.15	0.689	0.0027073	0.0005416
343.15	0.832	0.0021875	0.0004376
343.15	0.926	0.0014661	0.0002933
323.15	0.085	0.000365	7.3e-05
323.15	0.16	0.0004216	8.43e-05
323.15	0.226	0.0004375	8.75e-05
323.15	0.286	0.0005062	0.0001013
323.15	0.343	0.0005892	0.0001179
323.15	0.397	0.0006992	0.0001399
323.15	0.476	0.0008372	0.0001675
323.15	0.69	0.0013824	0.0002765
323.15	0.832	0.0009366	0.0001874
323.15	0.929	0.0005903	0.0001181
353.15	0.085	0.0011371	0.0002275
353.15	0.16	0.0012861	0.0002573
353.15	0.225	0.0013501	0.0002701
353.15	0.286	0.0015359	0.0003072
353.15	0.342	0.0018758	0.0003752
353.15	0.396	0.002081	0.0004163
353.15	0.455	0.0023533	0.0004708
353.15	0.688	0.003686	0.0007373
353.15	0.832	0.0030929	0.0006187
353.15	0.925	0.0016862	0.0003373
333.15	0.085	0.0006027	0.0001206
333.15	0.161	0.0006842	0.0001369
333.15	0.229	0.000759	0.0001519
333.15	0.29	0.0008508	0.0001702
333.15	0.346	0.0008941	0.0001789
333.15	0.392	0.0010474	0.0002096
333.15	0.472	0.0013017	0.0002604
333.15	0.689	0.0016521	0.0003305
333.15	0.838	0.0013479	0.0002697
333.15	0.929	0.0010368	0.0002074
363.15	0.085	0.001678	0.0003357
363.15	0.161	0.001877	0.0003755
363.15	0.229	0.0020761	0.0004153
363.15	0.29	0.0023051	0.0004611
363.15	0.346	0.0025065	0.0005014
363.15	0.391	0.0027147	0.0005431
363.15	0.454	0.003319	0.0006639
363.15	0.688	0.0042918	0.0008584
363.15	0.831	0.0036659	0.0007332
363.15	0.924	0.0026047	0.0005211

System: 2,5-furandicarboxylic acid + water + acetonitrile; phases: Liquid, Crystal
Fixed: Pressure, kPa = 100
Property: Mole fraction of 2,5-furandicarboxylic acid (Liquid); method: Chromatography
Temperature, K	Solvent: Mole fraction of water	Mole fraction of 2,5-furandicarboxylic acid	uncertainty
313.15	0.077	0.0003214	6.43e-05
313.15	0.148	0.0008548	0.000171
313.15	0.207	0.0014361	0.0002873
313.15	0.267	0.0018293	0.0003659
313.15	0.319	0.0023372	0.0004675
313.15	0.368	0.002589	0.0005179
313.15	0.589	0.0038386	0.0007679
313.15	0.772	0.0024399	0.0004881
313.15	0.9	0.0008575	0.0001715
343.15	0.078	0.0007363	0.0001473
343.15	0.147	0.0017423	0.0003485
343.15	0.211	0.0029061	0.0005813
343.15	0.266	0.0039424	0.0007886
343.15	0.317	0.0047164	0.0009434
343.15	0.366	0.0052684	0.0010538
343.15	0.587	0.0076627	0.0015327
343.15	0.77	0.0054317	0.0010865
343.15	0.899	0.002329	0.0004659
323.15	0.078	0.0005205	0.0001041
323.15	0.146	0.0011747	0.000235
323.15	0.209	0.002065	0.0004131
323.15	0.266	0.0023988	0.0004798
323.15	0.316	0.0028627	0.0005726
323.15	0.366	0.0032499	0.0006501
323.15	0.594	0.0043898	0.0008781
323.15	0.767	0.0028461	0.0005693
323.15	0.9	0.0010538	0.0002108
353.15	0.077	0.0008228	0.0001646
353.15	0.148	0.0021221	0.0004245
353.15	0.206	0.0031049	0.0006211
353.15	0.266	0.0044849	0.0008971
353.15	0.318	0.0055678	0.0011137
353.15	0.367	0.0060739	0.0012149
353.15	0.594	0.008655	0.0017311
353.15	0.765	0.0060184	0.0012038
353.15	0.899	0.0022883	0.0004578
333.15	0.078	0.0006567	0.0001314
333.15	0.147	0.0013503	0.0002701
333.15	0.211	0.002278	0.0004557
333.15	0.266	0.002646	0.0005293
333.15	0.317	0.0035723	0.0007146
333.15	0.367	0.0040977	0.0008197
333.15	0.61	0.0056878	0.0011377
333.15	0.751	0.0042961	0.0008594
333.15	0.903	0.0015348	0.0003071
363.15	0.078	0.0011292	0.0002259
363.15	0.146	0.0022778	0.0004556
363.15	0.209	0.0035993	0.00072
363.15	0.266	0.0051908	0.0010383
363.15	0.315	0.0061559	0.0012313
363.15	0.364	0.0072737	0.001455
363.15	0.607	0.0102483	0.0020498
363.15	0.748	0.0083462	0.0016694
363.15	0.901	0.0034925	0.0006987

System: 1,4-benzenedicarboxylic acid + acetic acid; phases: Liquid, Crystal
Fixed: Pressure, kPa = 100
Property: Mole fraction of 1,4-benzenedicarboxylic acid (Liquid); method: Chromatography
Temperature, K	Mole fraction of 1,4-benzenedicarboxylic acid	uncertainty
315.15	5.532e-05	1.107e-05
325.15	7.998e-05	1.6e-05
334.15	0.00011023	2.205e-05
343.15	0.0001421	2.843e-05
354.15	0.00020895	4.18e-05
363.15	0.0002801	5.603e-05
