Measured thermophysical data. Isobaric Heat Capacity of Solid and Liquid Thorium Tetrafluoride
Source: J. Chem. Eng. Data, 2019, 10.1021/acs.jced.9b00348
Compound 1: thorium tetraluoride, F4Th, InChI=1S/4FH.Th/h4*1H;/q;;;;+4/p-4, purity 99%

System: thorium tetraluoride; phases: Crystal
Fixed: Pressure, kPa = 100
Property: Molar enthalpy, kJ/mol (Crystal); method: Drop calorimetry
Temperature, K	Molar enthalpy, kJ/mol	uncertainty
430.4	17.1	5.2
482.8	27	8.2
534.1	33.5	12
585.4	37.3	11.2
636.7	47.3	14.2
685.9	51.7	17
787.7	62.8	26.4
888.6	73.4	23.9
990.6	95.4	24.7
1091.3	107.5	29.9
1193.4	114.7	16.6
1295.1	131.6	23.6

System: thorium tetraluoride; phases: Liquid
Fixed: Pressure, kPa = 100
Property: Molar enthalpy, kJ/mol (Liquid); method: Drop calorimetry
Temperature, K	Molar enthalpy, kJ/mol	uncertainty
1499	199.9	17.5
1601.4	216.6	34.9

System: thorium tetraluoride; phases: Crystal
Property: Molar heat capacity at constant pressure, J/K/mol (Crystal); method: DSC
Temperature, K	Pressure, kPa	Molar heat capacity at constant pressure, J/K/mol	uncertainty
1278	100	145	21

System: thorium tetraluoride; phases: Liquid
Property: Molar heat capacity at constant pressure, J/K/mol (Liquid); method: DSC
Temperature, K	Pressure, kPa	Molar heat capacity at constant pressure, J/K/mol	uncertainty
1478	100	168	21
