Measured thermophysical data. Thermodynamic Behaviour of Binary Mixtures of 1-Butyl-1- methylpyrrolidinium Iodide and Alcohols
Source: J. Chem. Eng. Data, 2015, 10.1021/acs.jced.5b00184
Compound 1: 1-butyl-1-methylpyrrolidinium iodide, C9H20IN, InChI=1S/C9H20N.HI/c1-3-4-7-10(2)8-5-6-9-10;/h3-9H2,1-2H3;1H/q+1;/p-1, purity 98.3%
Compound 2: propan-2-ol, C3H8O, InChI=1S/C3H8O/c1-3(2)4/h3-4H,1-2H3, purity 99.8%
Compound 3: butan-1-ol, C4H10O, InChI=1S/C4H10O/c1-2-3-4-5/h5H,2-4H2,1H3, purity 99%

System: propan-2-ol + 1-butyl-1-methylpyrrolidinium iodide; phases: Liquid
Fixed: Pressure, kPa = 101
Fixed: Temperature, K = 323.15
Property: Osmotic coefficient (Liquid); method: Knauer K-7000 vapour pressure osmometer
Molality, mol/kg of 1-butyl-1-methylpyrrolidinium iodide	Osmotic coefficient	uncertainty
0.0529	0.728	0.013
0.1022	0.641	0.014
0.1978	0.584	0.016
0.3344	0.543	0.018
0.5053	0.491	0.02
0.7375	0.452	0.021
1.004	0.427	0.022
1.2316	0.402	0.023
1.5529	0.353	0.025
1.839	0.341	0.026
2.2383	0.34	0.026

System: butan-1-ol + 1-butyl-1-methylpyrrolidinium iodide; phases: Liquid
Fixed: Pressure, kPa = 101
Fixed: Temperature, K = 323.15
Property: Osmotic coefficient (Liquid); method: Knauer K-7000 vapour pressure osmometer
Molality, mol/kg of 1-butyl-1-methylpyrrolidinium iodide	Osmotic coefficient	uncertainty
0.0483	0.714	0.013
0.104	0.64	0.014
0.2081	0.56	0.017
0.2954	0.511	0.019
0.5164	0.458	0.021
0.77	0.402	0.023
0.9771	0.384	0.024
1.2427	0.336	0.026
1.5288	0.33	0.026
1.8715	0.327	0.026
2.2662	0.314	0.027
