Measured thermophysical data. Effect of the Alkyl Chain on the Physical Properties of Imidazolium-Based Ionic Liquids with 1-Propanol, 1-Butanol, and 1-Pentanol Binary Mixtures
Source: J. Chem. Eng. Data, 2019, 10.1021/acs.jced.8b00948
Compound 1: 1-ethyl-3-methylimidazolium methylsulfate, C7H14N2O4S, InChI=1S/C6H11N2.CH4O4S/c1-3-8-5-4-7(2)6-8;1-5-6(2,3)4/h4-6H,3H2,1-2H3;1H3,(H,2,3,4)/q+1;/p-1, purity 98%
Compound 2: 1,3-dimethylimidazolium methylsulfate, C6H12N2O4S, InChI=1S/C5H9N2.CH4O4S/c1-6-3-4-7(2)5-6;1-5-6(2,3)4/h3-5H,1-2H3;1H3,(H,2,3,4)/q+1;/p-1, purity 99%
Compound 3: propan-1-ol, C3H8O, InChI=1S/C3H8O/c1-2-3-4/h4H,2-3H2,1H3, purity 99.7%
Compound 4: butan-1-ol, C4H10O, InChI=1S/C4H10O/c1-2-3-4-5/h5H,2-4H2,1H3, purity 99.8%
Compound 5: pentan-1-ol, C5H12O, InChI=1S/C5H12O/c1-2-3-4-5-6/h6H,2-5H2,1H3, purity 99.8%

System: 1-ethyl-3-methylimidazolium methylsulfate + propan-1-ol; phases: Liquid
Fixed: Pressure, kPa = 101
Property: Viscosity, Pa*s (Liquid); method: Concentric cylinders viscometry
Temperature, K	Mole fraction of 1-ethyl-3-methylimidazolium methylsulfate	Viscosity, Pa*s	uncertainty
298.15	0	0.00194	0.00012
298.15	0.059	0.00371	0.00023
298.15	0.228	0.00994	0.0006
298.15	0.375	0.017	0.001
298.15	0.524	0.0247	0.0015
298.15	0.72	0.0389	0.0024
298.15	0.874	0.0527	0.0032
298.15	1	0.0685	0.0042
303.15	0	0.00172	0.0001
303.15	0.059	0.00314	0.0002
303.15	0.228	0.00807	0.00049
303.15	0.375	0.0137	0.0008
303.15	0.524	0.0198	0.0012
303.15	0.72	0.0313	0.0019
303.15	0.874	0.0425	0.0026
303.15	1	0.0554	0.0034
308.15	0	0.00154	9e-05
308.15	0.059	0.00272	0.00017
308.15	0.228	0.0068	0.00041
308.15	0.375	0.0116	0.0007
308.15	0.524	0.0166	0.001
308.15	0.72	0.0259	0.0016
308.15	0.874	0.0351	0.0021
308.15	1	0.0455	0.0028
313.15	0	0.00138	8e-05
313.15	0.059	0.00236	0.00015
313.15	0.228	0.00575	0.00035
313.15	0.375	0.00972	0.00059
313.15	0.524	0.0139	0.0008
313.15	0.72	0.0216	0.0013
313.15	0.874	0.0292	0.0018
313.15	1	0.0379	0.0023

System: 1-ethyl-3-methylimidazolium methylsulfate + propan-1-ol; phases: Liquid, Gas
Property: Surface tension liquid-gas, N/m (Liquid); method: Pendant drop shape
Temperature, K	Mole fraction of 1-ethyl-3-methylimidazolium methylsulfate	Surface tension liquid-gas, N/m	uncertainty
298.15	0	0.0232	0.0005
298.15	0.059	0.0248	0.0006
298.15	0.228	0.0295	0.0007
298.15	0.375	0.0336	0.0008
298.15	0.524	0.038	0.0009
298.15	0.72	0.0438	0.001
298.15	0.874	0.0486	0.0011
298.15	1	0.0525	0.0013
303.15	0	0.0228	0.0005
303.15	0.059	0.0244	0.0006
303.15	0.228	0.0291	0.0007
303.15	0.375	0.0334	0.0008
303.15	0.524	0.0377	0.0009
303.15	0.72	0.0436	0.001
303.15	0.874	0.0483	0.0011
303.15	1	0.0522	0.0012
308.15	0	0.0223	0.0005
308.15	0.059	0.024	0.0005
308.15	0.228	0.0288	0.0007
308.15	0.375	0.0331	0.0007
308.15	0.524	0.0374	0.0009
308.15	0.72	0.0433	0.001
308.15	0.874	0.048	0.0011
308.15	1	0.0519	0.0012
313.15	0	0.0219	0.0005
313.15	0.059	0.0236	0.0005
313.15	0.228	0.0285	0.0006
313.15	0.375	0.0328	0.0007
313.15	0.524	0.0372	0.0008
313.15	0.72	0.043	0.001
313.15	0.874	0.0477	0.0011
313.15	1	0.0516	0.0012

System: 1-ethyl-3-methylimidazolium methylsulfate + butan-1-ol; phases: Liquid
Fixed: Pressure, kPa = 101
Property: Viscosity, Pa*s (Liquid); method: Concentric cylinders viscometry
Temperature, K	Mole fraction of 1-ethyl-3-methylimidazolium methylsulfate	Viscosity, Pa*s	uncertainty
298.15	0	0.00257	0.00015
298.15	0.041	0.00384	0.00024
298.15	0.219	0.0107	0.0007
298.15	0.417	0.0203	0.0012
298.15	0.571	0.029	0.0018
298.15	0.731	0.0411	0.0025
298.15	0.909	0.0582	0.0035
298.15	1	0.0685	0.0042
303.15	0	0.00228	0.00014
303.15	0.041	0.0033	0.00021
303.15	0.219	0.00875	0.00053
303.15	0.417	0.0164	0.001
303.15	0.571	0.0234	0.0014
303.15	0.731	0.0331	0.002
303.15	0.909	0.0468	0.0028
303.15	1	0.0554	0.0034
308.15	0	0.00201	0.00012
308.15	0.041	0.00286	0.00018
308.15	0.219	0.00738	0.00045
308.15	0.417	0.0138	0.0008
308.15	0.571	0.0195	0.0012
308.15	0.731	0.0275	0.0017
308.15	0.909	0.0384	0.0023
308.15	1	0.0455	0.0028
313.15	0	0.00175	0.00011
313.15	0.041	0.00245	0.00015
313.15	0.219	0.00622	0.00038
313.15	0.417	0.0114	0.0007
313.15	0.571	0.0162	0.001
313.15	0.731	0.0228	0.0014
313.15	0.909	0.0318	0.0019
313.15	1	0.0379	0.0023

System: 1-ethyl-3-methylimidazolium methylsulfate + butan-1-ol; phases: Liquid, Gas
Property: Surface tension liquid-gas, N/m (Liquid); method: Pendant drop shape
Temperature, K	Mole fraction of 1-ethyl-3-methylimidazolium methylsulfate	Surface tension liquid-gas, N/m	uncertainty
298.15	0	0.0239	0.0005
298.15	0.041	0.025	0.0006
298.15	0.219	0.0299	0.0007
298.15	0.417	0.0353	0.0008
298.15	0.571	0.0398	0.0009
298.15	0.731	0.0444	0.001
298.15	0.909	0.0498	0.0012
298.15	1	0.0525	0.0013
303.15	0	0.0235	0.0005
303.15	0.041	0.0247	0.0006
303.15	0.219	0.0295	0.0007
303.15	0.417	0.0351	0.0008
303.15	0.571	0.0395	0.0009
303.15	0.731	0.0442	0.001
303.15	0.909	0.0495	0.0012
303.15	1	0.0522	0.0012
308.15	0	0.0231	0.0005
308.15	0.041	0.0243	0.0006
308.15	0.219	0.0292	0.0007
308.15	0.417	0.0347	0.0008
308.15	0.571	0.0392	0.0009
308.15	0.731	0.0439	0.001
308.15	0.909	0.0492	0.0012
308.15	1	0.0519	0.0012
313.15	0	0.0227	0.0005
313.15	0.041	0.0239	0.0005
313.15	0.219	0.0289	0.0007
313.15	0.417	0.0345	0.0008
313.15	0.571	0.0389	0.0009
313.15	0.731	0.0436	0.001
313.15	0.909	0.0489	0.0012
313.15	1	0.0516	0.0012

System: 1-ethyl-3-methylimidazolium methylsulfate + pentan-1-ol; phases: Liquid
Fixed: Pressure, kPa = 101
Property: Viscosity, Pa*s (Liquid); method: Concentric cylinders viscometry
Temperature, K	Mole fraction of 1-ethyl-3-methylimidazolium methylsulfate	Viscosity, Pa*s	uncertainty
298.15	0	0.00351	0.00021
298.15	0.05	0.00515	0.00032
298.15	0.284	0.0148	0.0009
298.15	0.459	0.0244	0.0015
298.15	0.613	0.0347	0.0021
298.15	0.768	0.0469	0.0028
298.15	0.922	0.0609	0.0037
298.15	1	0.0685	0.0042
303.15	0	0.00284	0.00017
303.15	0.05	0.00407	0.00025
303.15	0.284	0.0119	0.0007
303.15	0.459	0.0194	0.0012
303.15	0.613	0.0273	0.0017
303.15	0.768	0.037	0.0022
303.15	0.922	0.0488	0.003
303.15	1	0.0554	0.0034
308.15	0	0.00264	0.00016
308.15	0.05	0.00374	0.00023
308.15	0.284	0.0102	0.0006
308.15	0.459	0.0163	0.001
308.15	0.613	0.0225	0.0014
308.15	0.768	0.0305	0.0019
308.15	0.922	0.0401	0.0024
308.15	1	0.0455	0.0028
313.15	0	0.00234	0.00014
313.15	0.05	0.00324	0.0002
313.15	0.284	0.00852	0.00052
313.15	0.459	0.0136	0.0008
313.15	0.613	0.0187	0.0011
313.15	0.768	0.0252	0.0015
313.15	0.922	0.0333	0.002
313.15	1	0.0379	0.0023

System: 1-ethyl-3-methylimidazolium methylsulfate + pentan-1-ol; phases: Liquid, Gas
Property: Surface tension liquid-gas, N/m (Liquid); method: Pendant drop shape
Temperature, K	Mole fraction of 1-ethyl-3-methylimidazolium methylsulfate	Surface tension liquid-gas, N/m	uncertainty
298.15	0	0.0247	0.0006
298.15	0.05	0.0261	0.0006
298.15	0.284	0.0323	0.0007
298.15	0.459	0.0371	0.0008
298.15	0.613	0.0414	0.0009
298.15	0.768	0.0458	0.0011
298.15	0.922	0.0503	0.0012
298.15	1	0.0525	0.0013
303.15	0	0.0243	0.0005
303.15	0.05	0.0257	0.0006
303.15	0.284	0.032	0.0007
303.15	0.459	0.0368	0.0008
303.15	0.613	0.0411	0.0009
303.15	0.768	0.0455	0.0011
303.15	0.922	0.05	0.0012
303.15	1	0.0522	0.0012
308.15	0	0.0239	0.0005
308.15	0.05	0.0253	0.0006
308.15	0.284	0.0316	0.0007
308.15	0.459	0.0365	0.0008
308.15	0.613	0.0408	0.0009
308.15	0.768	0.0452	0.0011
308.15	0.922	0.0497	0.0012
308.15	1	0.0519	0.0012
313.15	0	0.0235	0.0005
313.15	0.05	0.0249	0.0006
313.15	0.284	0.0313	0.0007
313.15	0.459	0.0362	0.0008
313.15	0.613	0.0405	0.0009
313.15	0.768	0.0449	0.001
313.15	0.922	0.0494	0.0012
313.15	1	0.0516	0.0012

System: 1,3-dimethylimidazolium methylsulfate + propan-1-ol; phases: Liquid
Fixed: Pressure, kPa = 101
Property: Viscosity, Pa*s (Liquid); method: Concentric cylinders viscometry
Temperature, K	Mole fraction of 1,3-dimethylimidazolium methylsulfate	Viscosity, Pa*s	uncertainty
298.15	0	0.00194	0.00012
298.15	0.039	0.00315	0.0002
298.15	0.208	0.0107	0.0007
298.15	0.382	0.0196	0.0012
298.15	0.561	0.0313	0.0019
298.15	0.702	0.0425	0.0026
298.15	0.912	0.0652	0.0039
298.15	1	0.078	0.0047
303.15	0	0.00172	0.0001
303.15	0.039	0.00297	0.00019
303.15	0.208	0.00855	0.00052
303.15	0.382	0.0154	0.0009
303.15	0.561	0.0251	0.0015
303.15	0.702	0.0347	0.0021
303.15	0.912	0.0529	0.0032
303.15	1	0.0619	0.0037
308.15	0	0.00154	9e-05
308.15	0.039	0.00253	0.00016
308.15	0.208	0.00676	0.00041
308.15	0.382	0.0122	0.0007
308.15	0.561	0.0201	0.0012
308.15	0.702	0.0281	0.0017
308.15	0.912	0.0427	0.0026
308.15	1	0.0499	0.003
313.15	0	0.00138	8e-05
313.15	0.039	0.0022	0.00014
313.15	0.208	0.00605	0.00037
313.15	0.382	0.0105	0.0006
313.15	0.561	0.0168	0.001
313.15	0.702	0.0232	0.0014
313.15	0.912	0.0353	0.0021
313.15	1	0.0409	0.0025

System: 1,3-dimethylimidazolium methylsulfate + propan-1-ol; phases: Liquid, Gas
Property: Surface tension liquid-gas, N/m (Liquid); method: Pendant drop shape
Temperature, K	Mole fraction of 1,3-dimethylimidazolium methylsulfate	Surface tension liquid-gas, N/m	uncertainty
298.15	0	0.0232	0.0005
298.15	0.039	0.0245	0.0006
298.15	0.208	0.0301	0.0007
298.15	0.382	0.0361	0.0008
298.15	0.561	0.0423	0.0009
298.15	0.702	0.0474	0.0011
298.15	0.912	0.0551	0.0012
298.15	1	0.0585	0.0013
303.15	0	0.0228	0.0005
303.15	0.039	0.024	0.0005
303.15	0.208	0.0298	0.0007
303.15	0.382	0.0358	0.0008
303.15	0.561	0.0421	0.0009
303.15	0.702	0.0472	0.001
303.15	0.912	0.0549	0.0012
303.15	1	0.0582	0.0013
308.15	0	0.0223	0.0005
308.15	0.039	0.0236	0.0005
308.15	0.208	0.0294	0.0007
308.15	0.382	0.0355	0.0008
308.15	0.561	0.0418	0.0009
308.15	0.702	0.0469	0.001
308.15	0.912	0.0546	0.0012
308.15	1	0.0579	0.0013
313.15	0	0.0219	0.0005
313.15	0.039	0.0232	0.0005
313.15	0.208	0.0291	0.0007
313.15	0.382	0.0352	0.0008
313.15	0.561	0.0416	0.0009
313.15	0.702	0.0466	0.001
313.15	0.912	0.0543	0.0012
313.15	1	0.0576	0.0013

System: 1,3-dimethylimidazolium methylsulfate + butan-1-ol; phases: Liquid
Fixed: Pressure, kPa = 101
Property: Viscosity, Pa*s (Liquid); method: Concentric cylinders viscometry
Temperature, K	Mole fraction of 1,3-dimethylimidazolium methylsulfate	Viscosity, Pa*s	uncertainty
298.15	0	0.00257	0.00015
298.15	0.063	0.00534	0.00034
298.15	0.221	0.0135	0.0008
298.15	0.432	0.0263	0.0016
298.15	0.64	0.0414	0.0025
298.15	0.781	0.054	0.0033
298.15	0.927	0.0697	0.0042
298.15	1	0.078	0.0047
303.15	0	0.00228	0.00014
303.15	0.063	0.00458	0.00029
303.15	0.221	0.0105	0.0006
303.15	0.432	0.0202	0.0012
303.15	0.64	0.0326	0.002
303.15	0.781	0.0433	0.0026
303.15	0.927	0.0555	0.0033
303.15	1	0.0619	0.0037
308.15	0	0.00201	0.00012
308.15	0.063	0.00386	0.00024
308.15	0.221	0.00853	0.00052
308.15	0.432	0.0161	0.001
308.15	0.64	0.0261	0.0016
308.15	0.781	0.0348	0.0021
308.15	0.927	0.045	0.0027
308.15	1	0.0499	0.003
313.15	0	0.00175	0.00011
313.15	0.063	0.0032	0.0002
313.15	0.221	0.00718	0.00044
313.15	0.432	0.0136	0.0008
313.15	0.64	0.0219	0.0013
313.15	0.781	0.029	0.0018
313.15	0.927	0.037	0.0022
313.15	1	0.0409	0.0025

System: 1,3-dimethylimidazolium methylsulfate + butan-1-ol; phases: Liquid, Gas
Property: Surface tension liquid-gas, N/m (Liquid); method: Pendant drop shape
Temperature, K	Mole fraction of 1,3-dimethylimidazolium methylsulfate	Surface tension liquid-gas, N/m	uncertainty
298.15	0	0.0239	0.0005
298.15	0.063	0.026	0.0006
298.15	0.221	0.0312	0.0007
298.15	0.432	0.0383	0.0008
298.15	0.64	0.0455	0.001
298.15	0.781	0.0505	0.0011
298.15	0.927	0.0558	0.0012
298.15	1	0.0585	0.0013
303.15	0	0.0235	0.0005
303.15	0.063	0.0256	0.0006
303.15	0.221	0.0309	0.0007
303.15	0.432	0.0381	0.0008
303.15	0.64	0.0453	0.001
303.15	0.781	0.0503	0.0011
303.15	0.927	0.0555	0.0012
303.15	1	0.0582	0.0013
308.15	0	0.0231	0.0005
308.15	0.063	0.0252	0.0006
308.15	0.221	0.0306	0.0007
308.15	0.432	0.0378	0.0008
308.15	0.64	0.045	0.001
308.15	0.781	0.05	0.0011
308.15	0.927	0.0552	0.0012
308.15	1	0.0579	0.0013
313.15	0	0.0227	0.0005
313.15	0.063	0.0248	0.0006
313.15	0.221	0.0302	0.0007
313.15	0.432	0.0375	0.0008
313.15	0.64	0.0447	0.001
313.15	0.781	0.0497	0.0011
313.15	0.927	0.055	0.0012
313.15	1	0.0576	0.0013

System: 1,3-dimethylimidazolium methylsulfate + pentan-1-ol; phases: Liquid
Fixed: Pressure, kPa = 101
Property: Viscosity, Pa*s (Liquid); method: Concentric cylinders viscometry
Temperature, K	Mole fraction of 1,3-dimethylimidazolium methylsulfate	Viscosity, Pa*s	uncertainty
298.15	0	0.00351	0.00021
298.15	0.1	0.00923	0.00057
298.15	0.35	0.0247	0.0015
298.15	0.54	0.0382	0.0023
298.15	0.661	0.0477	0.0029
298.15	0.79	0.0589	0.0035
298.15	0.931	0.0718	0.0043
298.15	1	0.078	0.0047
303.15	0	0.00284	0.00017
303.15	0.1	0.00719	0.00044
303.15	0.35	0.0194	0.0012
303.15	0.54	0.0299	0.0018
303.15	0.661	0.0373	0.0022
303.15	0.79	0.0465	0.0028
303.15	0.931	0.0571	0.0034
303.15	1	0.0619	0.0037
308.15	0	0.00264	0.00016
308.15	0.1	0.0062	0.00038
308.15	0.35	0.0157	0.0009
308.15	0.54	0.0241	0.0015
308.15	0.661	0.03	0.0018
308.15	0.79	0.0375	0.0023
308.15	0.931	0.046	0.0028
308.15	1	0.0499	0.003
313.15	0	0.00234	0.00014
313.15	0.1	0.00525	0.00032
313.15	0.35	0.0127	0.0008
313.15	0.54	0.0198	0.0012
313.15	0.661	0.0247	0.0015
313.15	0.79	0.0308	0.0019
313.15	0.931	0.0378	0.0023
313.15	1	0.0409	0.0025

System: 1,3-dimethylimidazolium methylsulfate + pentan-1-ol; phases: Liquid, Gas
Property: Surface tension liquid-gas, N/m (Liquid); method: Pendant drop shape
Temperature, K	Mole fraction of 1,3-dimethylimidazolium methylsulfate	Surface tension liquid-gas, N/m	uncertainty
298.15	0	0.0247	0.0006
298.15	0.1	0.028	0.0006
298.15	0.35	0.0362	0.0008
298.15	0.54	0.0426	0.0009
298.15	0.661	0.0467	0.001
298.15	0.79	0.0511	0.0011
298.15	0.931	0.0561	0.0012
298.15	1	0.0585	0.0013
303.15	0	0.0243	0.0005
303.15	0.1	0.0276	0.0006
303.15	0.35	0.0359	0.0008
303.15	0.54	0.0423	0.0009
303.15	0.661	0.0464	0.001
303.15	0.79	0.0508	0.0011
303.15	0.931	0.0558	0.0012
303.15	1	0.0582	0.0013
308.15	0	0.0239	0.0005
308.15	0.1	0.0272	0.0006
308.15	0.35	0.0356	0.0008
308.15	0.54	0.042	0.0009
308.15	0.661	0.0461	0.001
308.15	0.79	0.0505	0.0011
308.15	0.931	0.0555	0.0012
308.15	1	0.0579	0.0013
313.15	0	0.0235	0.0005
313.15	0.1	0.0269	0.0006
313.15	0.35	0.0353	0.0008
313.15	0.54	0.0417	0.0009
313.15	0.661	0.0458	0.001
313.15	0.79	0.0503	0.0011
313.15	0.931	0.0552	0.0012
313.15	1	0.0576	0.0013
