Measured thermophysical data. Liquid-Liquid Equilibria for 2-Phenylethan-1-ol + Alkane Systems
Source: J. Chem. Eng. Data, 2018, 10.1021/acs.jced.7b00869
Compound 1: 2-phenylethanol, C8H10O, InChI=1S/C8H10O/c9-7-6-8-4-2-1-3-5-8/h1-5,9H,6-7H2, purity 99.9%
Compound 2: octane, C8H18, InChI=1S/C8H18/c1-3-5-7-8-6-4-2/h3-8H2,1-2H3, purity 99.4%
Compound 3: decane, C10H22, InChI=1S/C10H22/c1-3-5-7-9-10-8-6-4-2/h3-10H2,1-2H3, purity 99.8%
Compound 4: dodecane, C12H26, InChI=1S/C12H26/c1-3-5-7-9-11-12-10-8-6-4-2/h3-12H2,1-2H3, purity 99.7%
Compound 5: tetradecane, C14H30, InChI=1S/C14H30/c1-3-5-7-9-11-13-14-12-10-8-6-4-2/h3-14H2,1-2H3, purity 99.5%
Compound 6: 2,2,4-trimethylpentane, C8H18, InChI=1S/C8H18/c1-7(2)6-8(3,4)5/h7H,6H2,1-5H3, purity 99.9%

System: 2-phenylethanol; phases: Liquid
Property: Mass density, kg/m3 (Liquid); method: Vibrating tube method
Temperature, K	Pressure, kPa	Mass density, kg/m3	uncertainty
298.15	101.325	1016.2	2

System: octane; phases: Liquid
Property: Mass density, kg/m3 (Liquid); method: Vibrating tube method
Temperature, K	Pressure, kPa	Mass density, kg/m3	uncertainty
298.15	101.325	698.71	1.41

System: decane; phases: Liquid
Property: Mass density, kg/m3 (Liquid); method: Vibrating tube method
Temperature, K	Pressure, kPa	Mass density, kg/m3	uncertainty
298.15	101.325	726.35	1.46

System: dodecane; phases: Liquid
Property: Mass density, kg/m3 (Liquid); method: Vibrating tube method
Temperature, K	Pressure, kPa	Mass density, kg/m3	uncertainty
298.15	101.325	745.51	1.5

System: tetradecane; phases: Liquid
Property: Mass density, kg/m3 (Liquid); method: Vibrating tube method
Temperature, K	Pressure, kPa	Mass density, kg/m3	uncertainty
298.15	101.325	759.27	1.53

System: 2,2,4-trimethylpentane; phases: Liquid
Property: Mass density, kg/m3 (Liquid); method: Vibrating tube method
Temperature, K	Pressure, kPa	Mass density, kg/m3	uncertainty
298.15	101.325	687.32	1.38

System: 2-phenylethanol + octane; phases: Liquid mixture 1, Liquid mixture 2
Fixed: Pressure, kPa = 100
Property: Liquid-liquid equilibrium temperature, K (Liquid mixture 1); method: VISOBS
Mole fraction of 2-phenylethanol	Liquid-liquid equilibrium temperature, K	uncertainty
0.1544	295.7	1
0.173	298.5	0.9
0.1918	300.3	0.7
0.2248	303.2	0.6
0.2407	304	0.5
0.2745	305.9	0.5
0.3044	306.9	0.5
0.3355	307.7	0.4
0.3626	308.1	0.4
0.3956	308.4	0.4
0.424	308.5	0.4
0.4362	308.5	0.4
0.4595	308.5	0.4
0.4835	308.5	0.4
0.5223	308.5	0.4
0.5485	308.4	0.4
0.5742	308.3	0.4
0.6019	307.9	0.4
0.6281	307.7	0.4
0.6487	306.9	0.5
0.6684	306.3	0.6
0.6943	304.3	0.7
0.7165	301.6	1.2
0.7502	293.9	1.8
0.773	285	2.4

System: 2-phenylethanol + decane; phases: Liquid mixture 1, Liquid mixture 2
Fixed: Pressure, kPa = 100
Property: Liquid-liquid equilibrium temperature, K (Liquid mixture 1); method: VISOBS
Mole fraction of 2-phenylethanol	Liquid-liquid equilibrium temperature, K	uncertainty
0.1822	303	0.8
0.2007	305.1	0.7
0.2318	308.1	0.7
0.2471	309.6	0.6
0.2708	311.3	0.6
0.2942	312.8	0.5
0.3365	314.7	0.5
0.3617	315.3	0.4
0.3807	315.7	0.4
0.4197	316.6	0.4
0.4466	316.6	0.4
0.4692	316.8	0.4
0.4991	317	0.4
0.5145	317	0.4
0.5445	317	0.4
0.5751	316.9	0.4
0.594	316.7	0.4
0.6172	316.7	0.4
0.6653	316	0.4
0.666	316.2	0.4
0.6872	315.6	0.5
0.7177	314.4	0.5
0.7433	312.6	0.7
0.7659	310.2	0.9
0.7871	306.7	1.1
0.802	303.8	1.2

System: 2-phenylethanol + dodecane; phases: Liquid mixture 1, Liquid mixture 2
Fixed: Pressure, kPa = 100
Property: Liquid-liquid equilibrium temperature, K (Liquid mixture 1); method: VISOBS
Mole fraction of 2-phenylethanol	Liquid-liquid equilibrium temperature, K	uncertainty
0.1908	309.4	0.7
0.2483	314.8	0.7
0.2676	316.4	0.6
0.2923	318.3	0.6
0.3352	321.1	0.6
0.357	322.3	0.5
0.396	323.7	0.5
0.4303	324.9	0.5
0.4524	325.1	0.4
0.4779	325.4	0.4
0.5052	325.7	0.4
0.5271	325.8	0.4
0.5573	325.9	0.4
0.584	325.9	0.4
0.5996	326	0.4
0.6247	326	0.4
0.6405	325.8	0.4
0.6733	325.7	0.4
0.7062	325.4	0.4
0.7251	325.1	0.5
0.7486	324.2	0.5
0.7728	322.7	0.6
0.797	320.7	0.7
0.8277	317.5	0.9
0.8463	314.2	1.2
0.8657	310.2	1.4
0.8968	303.1	1.4

System: 2-phenylethanol + tetradecane; phases: Liquid mixture 1, Liquid mixture 2
Fixed: Pressure, kPa = 100
Property: Liquid-liquid equilibrium temperature, K (Liquid mixture 1); method: VISOBS
Mole fraction of 2-phenylethanol	Liquid-liquid equilibrium temperature, K	uncertainty
0.2155	317.8	0.6
0.2833	322.7	0.6
0.3312	326.6	0.6
0.3652	328.7	0.5
0.4002	330.5	0.5
0.4317	331.9	0.5
0.4672	333.1	0.5
0.5104	334	0.4
0.5225	334.3	0.4
0.5527	334.7	0.4
0.5771	334.9	0.4
0.6028	334.8	0.4
0.6128	335	0.4
0.6223	335	0.4
0.625	334.8	0.4
0.6499	334.9	0.4
0.6632	334.7	0.4
0.6721	334.8	0.4
0.705	334.9	0.4
0.722	334.7	0.4
0.7396	334.4	0.4
0.7631	334.2	0.4
0.7852	333.4	0.5
0.8024	332.2	0.6
0.8195	331	0.7
0.839	328.5	1
0.8541	326	1.1

System: 2-phenylethanol + 2,2,4-trimethylpentane; phases: Liquid mixture 1, Liquid mixture 2
Fixed: Pressure, kPa = 100
Property: Liquid-liquid equilibrium temperature, K (Liquid mixture 1); method: VISOBS
Mole fraction of 2-phenylethanol	Liquid-liquid equilibrium temperature, K	uncertainty
0.1608	310.3	0.9
0.18	312.9	0.8
0.2048	315.6	0.7
0.2275	317.3	0.6
0.2609	319	0.5
0.2771	319.8	0.5
0.3072	320.8	0.5
0.3137	321	0.4
0.3361	321.4	0.5
0.3512	321.9	0.4
0.3771	322.1	0.4
0.4044	322.3	0.4
0.4214	322.2	0.4
0.4532	322.4	0.4
0.4805	322.5	0.4
0.5021	322.4	0.4
0.5298	322.2	0.4
0.5457	322.3	0.4
0.5793	322.1	0.4
0.6009	321.6	0.5
0.6317	320.7	0.5
0.6464	320.1	0.6
0.6742	317.7	0.9
0.7534	306.7	1
0.7742	302	1.4
