Measured thermophysical data. Phase Equilibrium on Extraction Methylphenols from Aqueous Solution with 3,3-Dimethyl-2-butanone at 333.2 K and 353.2 K
Source: J. Chem. Eng. Data, 2018, 10.1021/acs.jced.7b00932
Compound 1: 3,3-dimethyl-2-butanone, C6H12O, InChI=1S/C6H12O/c1-5(7)6(2,3)4/h1-4H3, purity 98%
Compound 2: 2-methylphenol, C7H8O, InChI=1S/C7H8O/c1-6-4-2-3-5-7(6)8/h2-5,8H,1H3, purity 99%
Compound 3: 3-methylphenol, C7H8O, InChI=1S/C7H8O/c1-6-3-2-4-7(8)5-6/h2-5,8H,1H3, purity 99.5%
Compound 4: 4-methylphenol, C7H8O, InChI=1S/C7H8O/c1-6-2-4-7(8)5-3-6/h2-5,8H,1H3, purity 99%
Compound 5: water, H2O, InChI=1S/H2O/h1H2, purity 99.8%

System: water + 2-methylphenol + 3,3-dimethyl-2-butanone; phases: Liquid mixture 1, Liquid mixture 2
Fixed: Pressure, kPa = 101.3
Property: Mole fraction of 3,3-dimethyl-2-butanone (Liquid mixture 1); method: Chromatography
Property: Mole fraction of 2-methylphenol (Liquid mixture 2); method: Chromatography
Property: Mole fraction of 3,3-dimethyl-2-butanone (Liquid mixture 2); method: Chromatography
Temperature, K	Mole fraction of 2-methylphenol	Mole fraction of 3,3-dimethyl-2-butanone	uncertainty	Mole fraction of 2-methylphenol	uncertainty	Mole fraction of 3,3-dimethyl-2-butanone	uncertainty
333.2	5e-05	0.00213	0.0004	0.05179	0.05179	0.80323	
353.2	0.00025	0.00222	0.0004	0.15811	0.08252	0.59912	
353.2	0.00043	0.00216	0.00041	0.21741	0.08289	0.51967	
353.2	0.00073	0.00212	0.0004	0.27699	0.07566	0.39157	
353.2	0.00108	0.00206	0.0004	0.30052	0.07573	0.34263	
353.2	0.00185	0.00198	0.00041	0.32915	0.07562	0.27907	
353.2	0.00257	0.00182	0.00041	0.34876	0.0752	0.23715	
333.2	9e-05	0.00211	0.00041	0.08706	0.08452	0.72954	
333.2	0.00022	0.00202	0.00044	0.1744	0.08501	0.58133	
333.2	0.00031	0.00196	0.00047	0.22794	0.08415	0.49209	
333.2	0.00052	0.00178	0.00046	0.29027	0.08404	0.38828	
333.2	0.00081	0.00155	0.00045	0.31898	0.08314	0.33207	
333.2	0.00159	0.00126	0.00042	0.36532	0.08198	0.25294	
333.2	0.00199	0.00115	0.00042	0.39659	0.0833	0.19649	
353.2	5e-05	0.00227	0.0004	0.04661	0.04661	0.80286	
353.2	0.00011	0.00225	0.0004	0.08548	0.08115	0.73271	

System: water + 3-methylphenol + 3,3-dimethyl-2-butanone; phases: Liquid mixture 2, Liquid mixture 1
Fixed: Pressure, kPa = 101.3
Property: Mole fraction of 3-methylphenol (Liquid mixture 2); method: Chromatography
Property: Mole fraction of 3,3-dimethyl-2-butanone (Liquid mixture 1); method: Chromatography
Property: Mole fraction of 3-methylphenol (Liquid mixture 1); method: Chromatography
Temperature, K	Mole fraction of 3,3-dimethyl-2-butanone	Mole fraction of 3-methylphenol	uncertainty	Mole fraction of 3,3-dimethyl-2-butanone	uncertainty	Mole fraction of 3-methylphenol	uncertainty
333.2	0.81842	0.05067	0.05067	0.00222	0.0004	5e-05	
333.2	0.612	0.17749	0.07888	0.00216	0.0004	0.00023	
333.2	0.52544	0.22824	0.07801	0.00213	0.00041	0.00032	
333.2	0.44831	0.27044	0.07684	0.00207	0.0004	0.00053	
333.2	0.38358	0.30142	0.07459	0.00203	0.0004	0.0007	
333.2	0.33024	0.33686	0.07663	0.00193	0.0004	0.001	
333.2	0.23321	0.38397	0.0757	0.00181	0.0004	0.00166	
353.2	0.80919	0.03989	0.03989	0.00223	0.0004	5e-05	
353.2	0.70274	0.10448	0.07599	0.0022	0.00041	0.00014	
353.2	0.60095	0.15514	0.07475	0.00215	0.00041	0.00026	
353.2	0.51968	0.20954	0.07484	0.00208	0.00041	0.00041	
353.2	0.4047	0.26343	0.06883	0.00201	0.0004	0.00066	
353.2	0.34159	0.29107	0.06945	0.00193	0.0004	0.0011	
353.2	0.28145	0.31552	0.06751	0.00185	0.0004	0.00177	
353.2	0.23987	0.33658	0.06902	0.00171	0.0004	0.00257	
333.2	0.70787	0.1133	0.07987	0.00218	0.0004	0.00014	

System: water + 4-methylphenol + 3,3-dimethyl-2-butanone; phases: Liquid mixture 2, Liquid mixture 1
Fixed: Pressure, kPa = 101.3
Property: Mole fraction of 4-methylphenol (Liquid mixture 2); method: Chromatography
Property: Mole fraction of 3,3-dimethyl-2-butanone (Liquid mixture 1); method: Chromatography
Property: Mole fraction of 4-methylphenol (Liquid mixture 1); method: Chromatography
Temperature, K	Mole fraction of 3,3-dimethyl-2-butanone	Mole fraction of 4-methylphenol	uncertainty	Mole fraction of 3,3-dimethyl-2-butanone	uncertainty	Mole fraction of 4-methylphenol	uncertainty
333.2	0.79418	0.05248	0.05248	0.00213	0.0004	5e-05	
333.2	0.59735	0.16198	0.07659	0.00204	0.00042	0.00023	
333.2	0.52534	0.20786	0.07761	0.00197	0.00041	0.00034	
333.2	0.42057	0.26265	0.07552	0.0019	0.00041	0.00048	
333.2	0.37117	0.28969	0.07615	0.00181	0.00041	0.00073	
333.2	0.31858	0.32094	0.07725	0.00166	0.0004	0.00096	
333.2	0.25669	0.35758	0.07879	0.00156	0.0004	0.00151	
353.2	0.78967	0.03961	0.03961	0.00221	0.0004	4e-05	
353.2	0.70696	0.09062	0.07781	0.00219	0.0004	0.00012	
353.2	0.59996	0.15266	0.07672	0.00216	0.0004	0.00024	
353.2	0.49698	0.20909	0.07284	0.00212	0.0004	0.00039	
353.2	0.39744	0.25537	0.0706	0.00205	0.0004	0.00065	
353.2	0.32606	0.28632	0.07072	0.00195	0.0004	0.00098	
353.2	0.26746	0.31754	0.07096	0.00187	0.0004	0.00168	
353.2	0.21675	0.34269	0.07342	0.0017	0.0004	0.00247	
333.2	0.67259	0.11789	0.07776	0.00208	0.00041	0.00014	
