Measured thermophysical data. Thermodynamic Properties of Aqueous-Mixed Electrolyte Solutions of {y Na2SO4 + (1 - y) K2SO4}(aq)
Source: J. Chem. Eng. Data, 2018, 10.1021/acs.jced.8b00418
Compound 1: sodium sulfate, Na2O4S, InChI=1S/2Na.H2O4S/c;;1-5(2,3)4/h;;(H2,1,2,3,4)/q2*+1;/p-2
Compound 2: potassium sulfate, K2O4S, InChI=1S/2K.H2O4S/c;;1-5(2,3)4/h;;(H2,1,2,3,4)/q2*+1;/p-2
Compound 3: water, H2O, InChI=1S/H2O/h1H2, purity 99.9%

System: sodium sulfate + potassium sulfate + water; phases: Liquid
Fixed: Temperature, K = 298.15
Fixed: Pressure, kPa = 100
Property: (Relative) activity of water (Liquid); method: ISOPIE
Molality, mol/kg of sodium sulfate	Molality, mol/kg of potassium sulfate	(Relative) activity of water	uncertainty
0.1	0.4	0.9815	0.0387
0.11	0.44	0.9798	0.0387
0.12	0.48	0.9782	0.0387
0.13	0.52	0.9766	0.0387
0.14	0.56	0.975	0.0387
0.15	0.6	0.9736	0.0387
0.16	0.64	0.972	0.0387
0.17	0.68	0.9705	0.0387
0.1	0.1	0.992	0.0387
0.15	0.15	0.9884	0.0387
0.2	0.2	0.985	0.0387
0.25	0.25	0.9817	0.0387
0.3	0.3	0.9785	0.0387
0.35	0.35	0.9754	0.0387
0.4	0.4	0.9723	0.0387
0.45	0.45	0.9698	0.0387
0.5	0.5	0.9665	0.0387
0.55	0.55	0.9636	0.0387
0.6	0.6	0.9607	0.0387
0.4	0.1	0.9816	0.0387
0.6	0.15	0.9737	0.0387
0.8	0.2	0.9661	0.0387
1	0.25	0.9585	0.0387
1.2	0.3	0.951	0.0387
1.4	0.35	0.943	0.039
1.6	0.4	0.936	0.039
1.8	0.45	0.928	0.039
2	0.5	0.92	0.039
