Measured thermophysical data. Solubility of 4-Chloro-2,5-dimethoxynitrobenzene, 4-Chloro-2,5-dimethoxyaniline, and 2,5-Dimethoxyaniline in Binary and Pure Solvents: Determination and Modeling
Source: J. Chem. Eng. Data, 2019, 10.1021/acs.jced.9b00011
Compound 1: 4-chloro-2,5-dimethoxyaniline, C8H10ClNO2, InChI=1S/C8H10ClNO2/c1-11-7-4-6(10)8(12-2)3-5(7)9/h3-4H,10H2,1-2H3, purity 98%
Compound 2: 1-chloro-2,5-dimethoxy-4-nitrobenzene, C8H8ClNO4, InChI=1S/C8H8ClNO4/c1-13-7-4-6(10(11)12)8(14-2)3-5(7)9/h3-4H,1-2H3, purity 99%
Compound 3: 2,5-dimethoxyaniline, C8H11NO2, InChI=1S/C8H11NO2/c1-10-6-3-4-8(11-2)7(9)5-6/h3-5H,9H2,1-2H3, purity 99%
Compound 4: methanol, CH4O, InChI=1S/CH4O/c1-2/h2H,1H3, purity 99%
Compound 5: ethanol, C2H6O, InChI=1S/C2H6O/c1-2-3/h3H,2H2,1H3, purity 99%
Compound 6: 2-methoxyethan-1-ol, C3H8O2, InChI=1S/C3H8O2/c1-5-3-2-4/h4H,2-3H2,1H3, purity 99%
Compound 7: 2-ethoxyethan-1-ol, C4H10O2, InChI=1S/C4H10O2/c1-2-6-4-3-5/h5H,2-4H2,1H3, purity 99%
Compound 8: 1-methoxy-2-propanol, C4H10O2, InChI=1S/C4H10O2/c1-4(5)3-6-2/h4-5H,3H2,1-2H3, purity 99%
Compound 9: diethylene glycol, C4H10O3, InChI=1S/C4H10O3/c5-1-3-7-4-2-6/h5-6H,1-4H2, purity 99%
Compound 10: water, H2O, InChI=1S/H2O/h1H2, purity 99.9%

System: 4-chloro-2,5-dimethoxyaniline; phases: Crystal, Liquid, Air at 1 atmosphere
Property: Triple point temperature, K (Crystal); method: DSC
Triple point temperature, K	uncertainty
389.38	3.67

System: 4-chloro-2,5-dimethoxyaniline; phases: Crystal, Liquid, Air at 1 atmosphere
Property: Molar enthalpy of transition or fusion, kJ/mol (Crystal); method: DSC
Molar enthalpy of transition or fusion, kJ/mol	uncertainty
24.61	3.83

System: 1-chloro-2,5-dimethoxy-4-nitrobenzene; phases: Crystal, Liquid, Air at 1 atmosphere
Property: Triple point temperature, K (Crystal); method: DSC
Triple point temperature, K	uncertainty
414.87	1.32

System: 1-chloro-2,5-dimethoxy-4-nitrobenzene; phases: Crystal, Liquid, Air at 1 atmosphere
Property: Molar enthalpy of transition or fusion, kJ/mol (Crystal); method: DSC
Molar enthalpy of transition or fusion, kJ/mol	uncertainty
28.19	3.37

System: 2,5-dimethoxyaniline; phases: Crystal, Liquid, Air at 1 atmosphere
Property: Triple point temperature, K (Crystal); method: DSC
Triple point temperature, K	uncertainty
352.56	2.27

System: 2,5-dimethoxyaniline; phases: Crystal, Liquid, Air at 1 atmosphere
Property: Molar enthalpy of transition or fusion, kJ/mol (Crystal); method: DSC
Molar enthalpy of transition or fusion, kJ/mol	uncertainty
23.22	4.59

System: 1-chloro-2,5-dimethoxy-4-nitrobenzene + ethanol + water; phases: Liquid, Crystal
Fixed: Pressure, kPa = 100
Property: Solid-liquid equilibrium temperature, K (Liquid); method: VISOBS
Mole fraction of 1-chloro-2,5-dimethoxy-4-nitrobenzene	Solvent: Mass fraction of ethanol	Solid-liquid equilibrium temperature, K	uncertainty
6.8e-06	0.4	278.3	3
1.07e-05	0.4	282.1	2.9
1.58e-05	0.4	285.6	2.9
2.16e-05	0.4	289	2.7
2.86e-05	0.4	292.5	2.6
3.67e-05	0.4	295.9	2.6
4.71e-05	0.4	299.7	2.7
6.18e-05	0.4	303.8	2.9
8.15e-05	0.4	308.4	3.1
0.0001082	0.4	313.1	3.1
0.0001367	0.4	316.7	3.1
0.0001591	0.4	319.2	3.2
0.0001914	0.4	322.3	3.2
0.000237	0.4	326.1	3.2
0.0002857	0.4	329.8	3.2
0.0003385	0.4	333.3	3.2
0.0003999	0.4	336.8	3.3
3.82e-05	0.6	279.3	2.6
6.29e-05	0.6	283	2.9
9.1e-05	0.6	286.9	3
0.0001251	0.6	291.1	2.9
0.0001642	0.6	295.1	2.9
0.000201	0.6	298.7	3
0.0002399	0.6	301.8	3
0.0002867	0.6	305.1	3
0.0003418	0.6	308	3
0.0004129	0.6	310.9	3
0.0005291	0.6	314.9	2.9
0.0006931	0.6	319.8	2.9
0.000869	0.6	324.1	2.7
0.0010705	0.6	328.2	2.7
0.0012875	0.6	331.5	2.7
0.0015687	0.6	335.3	2.7
0.0018762	0.6	338.7	2.7
0.0001648	0.8	277.6	2.7
0.0002182	0.8	280.7	2.7
0.0002507	0.8	283.6	2.8
0.0003056	0.8	286.5	2.8
0.0003591	0.8	289.9	2.8
0.000435	0.8	293.6	2.7
0.0005335	0.8	297.3	2.7
0.0006664	0.8	301	2.7
0.0008309	0.8	305.4	2.7
0.0010197	0.8	309.2	2.7
0.0012351	0.8	312.8	2.7
0.0014759	0.8	316.5	2.7
0.0017562	0.8	319.8	2.7
0.0020933	0.8	323.6	2.7
0.0024799	0.8	326.9	2.6
0.0029632	0.8	330.2	2.5
0.0035147	0.8	333.3	2.5
0.0042605	0.8	337	2.7

System: 1-chloro-2,5-dimethoxy-4-nitrobenzene + 2-methoxyethan-1-ol; phases: Liquid, Crystal
Fixed: Pressure, kPa = 100
Property: Solid-liquid equilibrium temperature, K (Liquid); method: VISOBS
Mole fraction of 1-chloro-2,5-dimethoxy-4-nitrobenzene	Solid-liquid equilibrium temperature, K	uncertainty
0.006215	283.2	2
0.008384	290.9	2
0.009529	295.3	2
0.010716	299.4	2
0.011916	303.1	2
0.014553	306.8	2
0.017747	313	2
0.020144	317.9	2
0.022647	321.7	2
0.028173	325.8	2
0.033468	329.8	2

System: 1-chloro-2,5-dimethoxy-4-nitrobenzene + 2-ethoxyethan-1-ol; phases: Liquid, Crystal
Fixed: Pressure, kPa = 100
Property: Solid-liquid equilibrium temperature, K (Liquid); method: VISOBS
Mole fraction of 1-chloro-2,5-dimethoxy-4-nitrobenzene	Solid-liquid equilibrium temperature, K	uncertainty
0.001871	276.7	2
0.002259	280.8	2
0.002657	284.9	2
0.003068	289.1	2
0.003475	293.2	2
0.003887	297.3	2
0.00502	301.4	2
0.006381	305.5	2
0.008741	309.6	2
0.013892	314	2
0.019295	320.6	2
0.023731	327.1	2

System: 1-chloro-2,5-dimethoxy-4-nitrobenzene + 1-methoxy-2-propanol; phases: Liquid, Crystal
Fixed: Pressure, kPa = 100
Property: Solid-liquid equilibrium temperature, K (Liquid); method: VISOBS
Mole fraction of 1-chloro-2,5-dimethoxy-4-nitrobenzene	Solid-liquid equilibrium temperature, K	uncertainty
0.00313	282.2	2
0.003536	287.1	2
0.003921	291.6	2
0.004279	296	2
0.004662	300.3	2
0.006477	304.6	2
0.009365	309	2
0.012338	313.1	2
0.015413	317.2	2
0.019081	321.3	2
0.025798	325.7	2

System: 1-chloro-2,5-dimethoxy-4-nitrobenzene + diethylene glycol; phases: Liquid, Crystal
Fixed: Pressure, kPa = 100
Property: Solid-liquid equilibrium temperature, K (Liquid); method: VISOBS
Mole fraction of 1-chloro-2,5-dimethoxy-4-nitrobenzene	Solid-liquid equilibrium temperature, K	uncertainty
0.0239	282.1	2
0.0275	286.5	2
0.0321	290.8	2
0.0364	296.1	2
0.0402	301.6	2
0.048	306.2	2
0.0573	310.7	2
0.0717	315.2	2
0.0876	319.5	2
0.1092	323.6	2
0.1362	327.7	2

System: 4-chloro-2,5-dimethoxyaniline + 2-methoxyethan-1-ol; phases: Liquid, Crystal
Fixed: Pressure, kPa = 100
Property: Solid-liquid equilibrium temperature, K (Liquid); method: VISOBS
Mole fraction of 4-chloro-2,5-dimethoxyaniline	Solid-liquid equilibrium temperature, K	uncertainty
0.02818	277.2	2
0.034033	281.1	2
0.04269	285.5	2
0.049668	291.2	2
0.054871	295.3	2
0.060009	299.4	2
0.066494	303.6	2
0.076769	307.7	2
0.088421	312.1	2
0.098608	315.7	2
0.111911	319.6	2
0.128754	324.2	2

System: 4-chloro-2,5-dimethoxyaniline + 2-ethoxyethan-1-ol; phases: Liquid, Crystal
Fixed: Pressure, kPa = 100
Property: Solid-liquid equilibrium temperature, K (Liquid); method: VISOBS
Mole fraction of 4-chloro-2,5-dimethoxyaniline	Solid-liquid equilibrium temperature, K	uncertainty
0.028223	278.6	2
0.032194	283.5	2
0.036128	287.6	2
0.040045	291.7	2
0.045275	295.8	2
0.055855	300.3	2
0.067238	306.7	2
0.078533	310.9	2
0.089438	315	2
0.100121	319.7	2
0.11726	323.9	2
0.137686	328	2

System: 4-chloro-2,5-dimethoxyaniline + 1-methoxy-2-propanol; phases: Liquid, Crystal
Fixed: Pressure, kPa = 100
Property: Solid-liquid equilibrium temperature, K (Liquid); method: VISOBS
Mole fraction of 4-chloro-2,5-dimethoxyaniline	Solid-liquid equilibrium temperature, K	uncertainty
0.020767	277.4	2
0.026696	281.6	2
0.032747	289.4	2
0.036945	294.3	2
0.045004	298.5	2
0.053642	302.6	2
0.064897	307.6	2
0.07717	312.6	2
0.088996	316.8	2
0.100693	320.9	2
0.125229	326.3	2

System: 4-chloro-2,5-dimethoxyaniline + diethylene glycol; phases: Liquid, Crystal
Fixed: Pressure, kPa = 100
Property: Solid-liquid equilibrium temperature, K (Liquid); method: VISOBS
Mole fraction of 4-chloro-2,5-dimethoxyaniline	Solid-liquid equilibrium temperature, K	uncertainty
0.016692	276.7	2
0.01879	280.9	2
0.020959	285.1	2
0.023311	289.4	2
0.027851	295.5	2
0.031152	299.6	2
0.034642	303.8	2
0.03958	307.9	2
0.044685	312	2
0.051244	316.5	2
0.058373	320.8	2
0.067504	325.3	2

System: 2,5-dimethoxyaniline + 2-methoxyethan-1-ol; phases: Liquid, Crystal
Fixed: Pressure, kPa = 100
Property: Solid-liquid equilibrium temperature, K (Liquid); method: VISOBS
Mole fraction of 2,5-dimethoxyaniline	Solid-liquid equilibrium temperature, K	uncertainty
0.033103	276.4	2
0.046021	280.5	2
0.061701	284.6	2
0.081907	288.7	2
0.102179	292.8	2
0.122595	296.9	2
0.150146	301	2
0.184752	305.1	2
0.217346	309.2	2
0.254037	313.4	2
0.292369	316.6	2

System: 2,5-dimethoxyaniline + 2-ethoxyethan-1-ol; phases: Liquid, Crystal
Fixed: Pressure, kPa = 100
Property: Solid-liquid equilibrium temperature, K (Liquid); method: VISOBS
Mole fraction of 2,5-dimethoxyaniline	Solid-liquid equilibrium temperature, K	uncertainty
0.01857	276.7	2
0.023814	279.8	2
0.029008	282.9	2
0.036938	286	2
0.048078	289.1	2
0.063495	292.2	2
0.083441	295.3	2
0.106261	298.4	2
0.135268	301.6	2
0.164686	304.7	2
0.198759	308.9	2
0.231076	313	2
0.261947	317.1	2
0.310644	321.4	2
0.370956	325.5	2

System: 2,5-dimethoxyaniline + 1-methoxy-2-propanol; phases: Liquid, Crystal
Fixed: Pressure, kPa = 100
Property: Solid-liquid equilibrium temperature, K (Liquid); method: VISOBS
Mole fraction of 2,5-dimethoxyaniline	Solid-liquid equilibrium temperature, K	uncertainty
0.020424	276.6	2
0.025541	279.7	2
0.030634	282.8	2
0.038204	285.9	2
0.051203	289	2
0.067549	292.1	2
0.086702	295.2	2
0.110081	298.3	2
0.140112	301.6	2
0.173518	305.1	2
0.211056	310.4	2
0.238745	314.7	2
0.28133	318.8	2
0.323251	322.9	2

System: 2,5-dimethoxyaniline + diethylene glycol; phases: Liquid, Crystal
Fixed: Pressure, kPa = 100
Property: Solid-liquid equilibrium temperature, K (Liquid); method: VISOBS
Mole fraction of 2,5-dimethoxyaniline	Solid-liquid equilibrium temperature, K	uncertainty
0.00015	276.7	2
0.000379	280.9	2
0.000611	285	2
0.000885	289.1	2
0.001192	293.2	2
0.001652	297.3	2
0.003254	301.4	2
0.00532	303.5	2
0.007509	305.6	2
0.015035	307.7	2
0.02479	309.8	2
0.045765	311.9	2
0.070406	314	2
0.103515	316.1	2
0.140047	318.2	2
0.176509	320.7	2
0.215592	323.7	2

System: 1-chloro-2,5-dimethoxy-4-nitrobenzene + methanol + water; phases: Liquid, Crystal
Fixed: Pressure, kPa = 100
Property: Solid-liquid equilibrium temperature, K (Liquid); method: VISOBS
Mole fraction of 1-chloro-2,5-dimethoxy-4-nitrobenzene	Solvent: Mass fraction of methanol	Solid-liquid equilibrium temperature, K	uncertainty
5.1e-06	0.4	278.6	3.5
7.6e-06	0.4	283.8	3.6
9.8e-06	0.4	287.5	3.3
1.2e-05	0.4	292.7	3.3
1.55e-05	0.4	296.7	3.1
1.96e-05	0.4	301.6	3
2.67e-05	0.4	306.3	3.1
3.28e-05	0.4	310	3.3
4.08e-05	0.4	313.6	3.3
4.94e-05	0.4	316.7	3.3
6.35e-05	0.4	320.3	3.2
8.63e-05	0.4	324.2	3.2
0.0001102	0.4	327.8	3.1
1.74e-05	0.6	278.1	2.7
2.47e-05	0.6	281.5	3.2
3.57e-05	0.6	285.3	3.3
4.6e-05	0.6	289.8	3.4
5.54e-05	0.6	293.6	3.3
7.34e-05	0.6	297.1	3.2
9.24e-05	0.6	300.7	3.2
0.0001137	0.6	304.6	3.2
0.0001415	0.6	308.4	3.2
0.0001784	0.6	312	3.1
0.0002199	0.6	315.4	3.1
0.00027	0.6	318.7	3
0.0003415	0.6	322.3	3
0.0004398	0.6	326.4	3
0.0001077	0.8	277.7	3.3
0.000131	0.8	280.9	3.3
0.0001673	0.8	286	3.2
0.000201	0.8	289.7	3.1
0.0002427	0.8	293.8	3.1
0.0002882	0.8	297.2	3.1
0.0003436	0.8	300.3	3
0.0004189	0.8	303.7	3
0.0005267	0.8	307.4	3
0.000656	0.8	310.8	2.9
0.0008548	0.8	315.5	2.8
0.0010432	0.8	319.3	2.8
0.0012448	0.8	323.1	2.3
0.0014875	0.8	326.7	2.4

System: 4-chloro-2,5-dimethoxyaniline + methanol + water; phases: Liquid, Crystal
Fixed: Pressure, kPa = 100
Property: Solid-liquid equilibrium temperature, K (Liquid); method: VISOBS
Mole fraction of 4-chloro-2,5-dimethoxyaniline	Solvent: Mass fraction of methanol	Solid-liquid equilibrium temperature, K	uncertainty
5.5e-06	0.2	280.1	3
9.5e-06	0.2	283.6	3
1.18e-05	0.2	286.8	2.9
1.87e-05	0.2	292	2.9
2.29e-05	0.2	295.9	2.9
3.22e-05	0.2	300.1	2.8
4.29e-05	0.2	304.4	2.8
5.47e-05	0.2	308.1	3.1
7.06e-05	0.2	311.5	3.2
9.99e-05	0.2	315.1	3.3
0.0001443	0.2	319.7	3.4
0.0001772	0.2	323.3	3.4
0.0002122	0.2	326.9	3.4
3.48e-05	0.4	277.5	3
5.6e-05	0.4	281.4	3.4
8.66e-05	0.4	285.8	3.5
0.0001205	0.4	289.9	3.4
0.0001594	0.4	293.9	3.4
0.0002001	0.4	297.6	3.4
0.0002487	0.4	301.4	3.3
0.0002926	0.4	304.5	3.3
0.0003518	0.4	308.3	3.3
0.0003992	0.4	310.9	3.4
0.0004758	0.4	314.5	3.4
0.0005824	0.4	318.6	3.4
0.0006969	0.4	322.4	3.4
0.0008735	0.4	327.1	3.6
0.0002546	0.6	277.4	3.1
0.0003193	0.6	280.3	3.2
0.0003962	0.6	283.3	3.4
0.0005008	0.6	287.5	3.5
0.0006173	0.6	291.3	3.4
0.0007599	0.6	295	3.3
0.0009533	0.6	299.1	3.3
0.0011821	0.6	303	3.2
0.0014356	0.6	306.9	3.1
0.0016869	0.6	309.8	2.9
0.0020424	0.6	313.1	2.9
0.0024239	0.6	316.5	2.9
0.0028615	0.6	319.9	2.9
0.0034105	0.6	323.6	2.9
0.0040635	0.6	327.3	2.9
0.0010324	0.8	278.4	3
0.0012627	0.8	282.5	3
0.0014442	0.8	285.6	3
0.0017949	0.8	289.6	2.9
0.0022405	0.8	293.8	2.9
0.002766	0.8	298.1	2.9
0.0033372	0.8	301.7	2.9
0.0039922	0.8	305.6	3
0.0047473	0.8	308.7	2.9
0.0056521	0.8	312	2.9
0.0068294	0.8	315.8	2.8
0.0082806	0.8	319.9	2.7
0.0100312	0.8	323.6	2.2
0.0122254	0.8	327.7	2.2

System: 4-chloro-2,5-dimethoxyaniline + ethanol + water; phases: Liquid, Crystal
Fixed: Pressure, kPa = 100
Property: Solid-liquid equilibrium temperature, K (Liquid); method: VISOBS
Mole fraction of 4-chloro-2,5-dimethoxyaniline	Solvent: Mass fraction of ethanol	Solid-liquid equilibrium temperature, K	uncertainty
8.7e-06	0.2	278.9	4.6
1.72e-05	0.2	283	4.2
2.65e-05	0.2	287.7	4.1
3.56e-05	0.2	292	4.3
4.78e-05	0.2	296	4
6.75e-05	0.2	300.3	3.8
8.47e-05	0.2	303.7	3.8
0.0001032	0.2	306.9	3.5
0.0001268	0.2	310.1	3.6
0.0001543	0.2	313.4	3.5
0.0001999	0.2	316.7	3.7
0.0002681	0.2	320.3	3.6
0.0003652	0.2	325	3.6
0.0004816	0.2	330.4	3.7
0.000601	0.2	335.5	3.9
0.0006967	0.2	339.3	4.2
0.0001361	0.4	279.4	3.7
0.000179	0.4	283.4	3.8
0.0002289	0.4	288.1	3.8
0.0002912	0.4	291.4	3.6
0.0003959	0.4	295.9	3.5
0.0004567	0.4	298.2	3.5
0.000579	0.4	300.9	3.5
0.0007648	0.4	305.3	3.6
0.0009496	0.4	308.6	3.5
0.0011533	0.4	312.5	3.4
0.0013572	0.4	315	3.3
0.0016832	0.4	319	3.2
0.0021004	0.4	322.8	3
0.0024192	0.4	325.5	3
0.0028097	0.4	328	3
0.0032464	0.4	330.5	3
0.0037574	0.4	333	3
0.0043149	0.4	335.2	3
0.0049124	0.4	337.6	3
0.0005735	0.6	277.8	3
0.0006693	0.6	280.5	3
0.0008598	0.6	283.8	3
0.0010425	0.6	287.2	2.9
0.0012815	0.6	290.7	2.8
0.0015297	0.6	293.7	2.8
0.0018459	0.6	297.3	2.8
0.0021727	0.6	300.5	2.8
0.0024401	0.6	302.8	2.8
0.0027958	0.6	305	2.8
0.0032788	0.6	307.9	2.8
0.0038144	0.6	310.7	2.8
0.0044829	0.6	313.7	2.7
0.0051778	0.6	316.4	2.7
0.0060097	0.6	319.5	2.6
0.006846	0.6	322.1	2.4
0.0078848	0.6	324.7	2.4
0.0089411	0.6	327.4	2.4
0.0097808	0.6	329.4	2.4
0.0108851	0.6	331.8	2.4
0.0123597	0.6	334.5	2.4
0.0137666	0.6	337	2.4
0.0015255	0.8	277.7	2.6
0.0017977	0.8	280.9	2.6
0.0021377	0.8	284.5	2.6
0.0025203	0.8	287.9	2.6
0.0029057	0.8	290.2	2.5
0.00337	0.8	293.1	2.5
0.0037205	0.8	295.2	2.5
0.0041903	0.8	297.8	2.5
0.004537	0.8	299.7	2.5
0.0053231	0.8	302.8	2.5
0.0063982	0.8	306.9	2.5
0.0075888	0.8	310.4	2.4
0.0084326	0.8	312.9	2.4
0.0100485	0.8	316.5	2.4
0.011688	0.8	319.8	2.4
0.0130263	0.8	322.1	2.4
0.0145782	0.8	324.7	2.4
0.0161036	0.8	327	2.4
0.0176777	0.8	329.3	2.4
0.0192392	0.8	331.3	2.4
0.021537	0.8	334.1	2.3
0.0249835	0.8	337.7	2.3
