Measured thermophysical data. Influence of Additives (Isoamyl Laurate or Isoamyl Nonanoate) in the Solid-Liquid Equilibrium of Fatty Acid Ethyl Esters
Source: J. Chem. Eng. Data, 2019, 10.1021/acs.jced.8b01019
Compound 1: ethyl dodecanoate, C14H28O2, InChI=1S/C14H28O2/c1-3-5-6-7-8-9-10-11-12-13-14(15)16-4-2/h3-13H2,1-2H3, purity 98%
Compound 2: ethyl hexadecanoate, C18H36O2, InChI=1S/C18H36O2/c1-3-5-6-7-8-9-10-11-12-13-14-15-16-17-18(19)20-4-2/h3-17H2,1-2H3, purity 99%
Compound 3: ethyl tetradecanoate, C16H32O2, InChI=1S/C16H32O2/c1-3-5-6-7-8-9-10-11-12-13-14-15-16(17)18-4-2/h3-15H2,1-2H3, purity 99%
Compound 4: ethyl octadecanoate, C20H40O2, InChI=1S/C20H40O2/c1-3-5-6-7-8-9-10-11-12-13-14-15-16-17-18-19-20(21)22-4-2/h3-19H2,1-2H3, purity 99%
Compound 5: ethyl (Z)-9-octadeceneoate, C20H38O2, InChI=1S/C20H38O2/c1-3-5-6-7-8-9-10-11-12-13-14-15-16-17-18-19-20(21)22-4-2/h11-12H,3-10,13-19H2,1-2H3/b12-11-, purity 98%
Compound 6: isopentyl nonanoate, C14H28O2, InChI=1S/C14H28O2/c1-4-5-6-7-8-9-10-14(15)16-12-11-13(2)3/h13H,4-12H2,1-3H3, purity 96%
Compound 7: isopentyl dodecanoate, C17H34O2, InChI=1S/C17H34O2/c1-4-5-6-7-8-9-10-11-12-13-17(18)19-15-14-16(2)3/h16H,4-15H2,1-3H3, purity 97%

System: ethyl dodecanoate; phases: Crystal, Liquid, Air at 1 atmosphere
Property: Triple point temperature, K (Crystal); method: DSC
Triple point temperature, K	uncertainty
273	2.1

System: ethyl hexadecanoate; phases: Crystal, Liquid, Air at 1 atmosphere
Property: Normal melting temperature, K (Crystal); method: DTA
Normal melting temperature, K	uncertainty
297.7	2

System: ethyl tetradecanoate; phases: Crystal, Liquid, Air at 1 atmosphere
Property: Normal melting temperature, K (Crystal); method: DTA
Normal melting temperature, K	uncertainty
287.5	2

System: ethyl octadecanoate; phases: Crystal, Liquid, Air at 1 atmosphere
Property: Normal melting temperature, K (Crystal); method: DTA
Normal melting temperature, K	uncertainty
307.4	2

System: ethyl (Z)-9-octadeceneoate; phases: Crystal, Liquid, Air at 1 atmosphere
Property: Normal melting temperature, K (Crystal); method: DTA
Normal melting temperature, K	uncertainty
254	2

System: isopentyl nonanoate; phases: Crystal, Liquid, Air at 1 atmosphere
Property: Triple point temperature, K (Crystal); method: DSC
Triple point temperature, K	uncertainty
233.2	2.1

System: isopentyl dodecanoate; phases: Crystal, Liquid, Air at 1 atmosphere
Property: Triple point temperature, K (Crystal); method: DSC
Triple point temperature, K	uncertainty
258	2.1

System: isopentyl dodecanoate; phases: Crystal, Liquid, Air at 1 atmosphere
Property: Molar enthalpy of transition or fusion, kJ/mol (Crystal); method: DSC
Molar enthalpy of transition or fusion, kJ/mol	uncertainty
36.67	2.32

System: ethyl dodecanoate + isopentyl nonanoate; phases: Liquid, Crystal
Fixed: Pressure, kPa = 100
Property: Solid-liquid equilibrium temperature, K (Liquid); method: DTA
Mole fraction of ethyl dodecanoate	Solid-liquid equilibrium temperature, K	uncertainty
0.11	242.9	2
0.2	249.2	2
0.3	253.3	2
0.4	256.9	2
0.5	261.4	2
0.6	264.3	2
0.69	266.1	2
0.8	268.8	2
0.9	272.8	2
1	273	2

System: ethyl dodecanoate + isopentyl nonanoate; phases: Liquid, Crystal, Crystal
Property: Eutectic temperature, K (Liquid); method: DTA
Pressure, kPa	Eutectic temperature, K	uncertainty
100	232.4	2

System: ethyl dodecanoate + isopentyl dodecanoate; phases: Liquid, Crystal of intercomponent compound 1, Crystal
Property: Eutectic temperature, K (Liquid); method: DTA
Pressure, kPa	Eutectic temperature, K	uncertainty
100	252.3	2

System: ethyl dodecanoate + isopentyl dodecanoate; phases: Liquid, Crystal
Fixed: Pressure, kPa = 100
Property: Solid-liquid equilibrium temperature, K (Liquid); method: DTA
Mole fraction of ethyl dodecanoate	Solid-liquid equilibrium temperature, K	uncertainty
0.59	259.2	2
0.71	266.2	2
0.84	269	2
1	273	2

System: ethyl dodecanoate + isopentyl dodecanoate; phases: Liquid, Crystal of intercomponent compound 1, Crystal
Property: Peritectic temperature, K (Liquid); method: DTA
Pressure, kPa	Peritectic temperature, K	uncertainty
100	256.6	2

System: ethyl dodecanoate + isopentyl dodecanoate; phases: Liquid, Crystal of intercomponent compound 1
Fixed: Pressure, kPa = 100
Property: Solid-liquid equilibrium temperature, K (Liquid); method: DTA
Mole fraction of ethyl dodecanoate	Solid-liquid equilibrium temperature, K	uncertainty
0.39	254.5	2
0.49	255.8	2

System: ethyl dodecanoate + isopentyl dodecanoate; phases: Liquid, Crystal
Fixed: Pressure, kPa = 100
Property: Solid-liquid equilibrium temperature, K (Liquid); method: DTA
Mole fraction of ethyl dodecanoate	Solid-liquid equilibrium temperature, K	uncertainty
0	258	2
0.07	256.2	2
0.14	254.6	2
0.21	253.3	2

System: ethyl tetradecanoate + isopentyl nonanoate; phases: Liquid, Crystal, Crystal
Property: Eutectic temperature, K (Liquid); method: DTA
Pressure, kPa	Eutectic temperature, K	uncertainty
100	232.7	2

System: ethyl tetradecanoate + isopentyl nonanoate; phases: Liquid, Crystal
Fixed: Pressure, kPa = 100
Property: Solid-liquid equilibrium temperature, K (Liquid); method: DTA
Mole fraction of ethyl tetradecanoate	Solid-liquid equilibrium temperature, K	uncertainty
0.06	246.4	2
0.11	254.3	2
0.2	265.5	2
0.31	269	2
0.4	273.7	2
0.51	276.4	2
0.59	278	2
0.69	280.5	2
0.8	282.6	2
0.89	285.3	2
1	287.5	2

System: ethyl tetradecanoate + isopentyl dodecanoate; phases: Liquid, Crystal, Crystal
Property: Eutectic temperature, K (Liquid); method: DTA
Pressure, kPa	Eutectic temperature, K	uncertainty
100	255.3	2

System: ethyl tetradecanoate + isopentyl dodecanoate; phases: Liquid, Crystal
Fixed: Pressure, kPa = 100
Property: Solid-liquid equilibrium temperature, K (Liquid); method: DTA
Mole fraction of ethyl tetradecanoate	Solid-liquid equilibrium temperature, K	uncertainty
0.19	264.3	2
0.27	268.2	2
0.36	271.8	2
0.47	275	2
0.55	277.6	2
0.66	280.9	2
0.75	283.7	2
0.88	285.4	2
1	287.5	2

System: ethyl hexadecanoate + isopentyl nonanoate; phases: Liquid, Crystal, Crystal
Property: Eutectic temperature, K (Liquid); method: DTA
Pressure, kPa	Eutectic temperature, K	uncertainty
100	232.9	2

System: ethyl hexadecanoate + isopentyl nonanoate; phases: Liquid, Crystal
Fixed: Pressure, kPa = 100
Property: Solid-liquid equilibrium temperature, K (Liquid); method: DTA
Mole fraction of ethyl hexadecanoate	Solid-liquid equilibrium temperature, K	uncertainty
0.06	264.6	2
0.11	270.6	2
0.21	276.4	2
0.32	282.8	2
0.42	287.8	2
0.52	289.5	2
0.6	292	2
0.71	294.7	2
0.8	295.7	2
0.89	296.7	2
1	297.7	2

System: ethyl hexadecanoate + isopentyl dodecanoate; phases: Liquid, Crystal, Crystal
Property: Eutectic temperature, K (Liquid); method: DTA
Pressure, kPa	Eutectic temperature, K	uncertainty
100	256.2	2

System: ethyl hexadecanoate + isopentyl dodecanoate; phases: Liquid, Crystal
Fixed: Pressure, kPa = 100
Property: Solid-liquid equilibrium temperature, K (Liquid); method: DTA
Mole fraction of ethyl hexadecanoate	Solid-liquid equilibrium temperature, K	uncertainty
0.11	269.1	2
0.19	276.5	2
0.28	281.3	2
0.36	284.6	2
0.49	288.6	2
0.58	290.6	2
0.68	292.7	2
0.76	294.1	2
0.89	296.5	2
1	297.7	2

System: ethyl octadecanoate + isopentyl nonanoate; phases: Liquid, Crystal, Crystal
Property: Eutectic temperature, K (Liquid); method: DTA
Pressure, kPa	Eutectic temperature, K	uncertainty
100	233.1	2

System: ethyl octadecanoate + isopentyl nonanoate; phases: Liquid, Crystal
Fixed: Pressure, kPa = 100
Property: Solid-liquid equilibrium temperature, K (Liquid); method: DTA
Mole fraction of ethyl octadecanoate	Solid-liquid equilibrium temperature, K	uncertainty
0.11	282.5	2
0.19	288.5	2
0.29	292.6	2
0.37	294.7	2
0.48	297.5	2
0.58	302.1	2
0.66	302.9	2
0.76	303.8	2
0.89	306.2	2
1	307.4	2

System: ethyl octadecanoate + isopentyl dodecanoate; phases: Liquid, Crystal, Crystal
Property: Eutectic temperature, K (Liquid); method: DTA
Pressure, kPa	Eutectic temperature, K	uncertainty
100	257.4	2

System: ethyl octadecanoate + isopentyl dodecanoate; phases: Liquid, Crystal
Fixed: Pressure, kPa = 100
Property: Solid-liquid equilibrium temperature, K (Liquid); method: DTA
Mole fraction of ethyl octadecanoate	Solid-liquid equilibrium temperature, K	uncertainty
0.05	274.2	2
0.09	279.4	2
0.13	285.1	2
0.18	288.6	2
0.26	292	2
0.35	295.9	2
0.45	297.6	2
0.57	300.6	2
0.75	303.9	2
1	307.4	2

System: ethyl (Z)-9-octadeceneoate + isopentyl nonanoate; phases: Liquid, Crystal, Crystal
Property: Eutectic temperature, K (Liquid); method: DTA
Pressure, kPa	Eutectic temperature, K	uncertainty
100	230.8	2

System: ethyl (Z)-9-octadeceneoate + isopentyl nonanoate; phases: Liquid, Crystal
Fixed: Pressure, kPa = 100
Property: Solid-liquid equilibrium temperature, K (Liquid); method: DTA
Mole fraction of ethyl (Z)-9-octadeceneoate	Solid-liquid equilibrium temperature, K	uncertainty
0.2	236.3	2
0.31	242.2	2
0.4	243	2
0.5	245.9	2
0.58	247.4	2
0.7	249.8	2
0.79	251.2	2
0.89	252.8	2
1	254	2

System: ethyl (Z)-9-octadeceneoate + isopentyl dodecanoate; phases: Liquid, Crystal, Crystal
Property: Eutectic temperature, K (Liquid); method: DTA
Pressure, kPa	Eutectic temperature, K	uncertainty
100	246.4	2

System: ethyl (Z)-9-octadeceneoate + isopentyl dodecanoate; phases: Liquid, Crystal
Fixed: Pressure, kPa = 100
Property: Solid-liquid equilibrium temperature, K (Liquid); method: DTA
Mole fraction of ethyl (Z)-9-octadeceneoate	Solid-liquid equilibrium temperature, K	uncertainty
0.62	248.4	2
0.69	249.7	2
0.79	251.2	2
0.87	252.5	2
1	254	2

System: ethyl (Z)-9-octadeceneoate + isopentyl dodecanoate; phases: Liquid, Crystal
Fixed: Pressure, kPa = 100
Property: Solid-liquid equilibrium temperature, K (Liquid); method: DTA
Mole fraction of ethyl (Z)-9-octadeceneoate	Solid-liquid equilibrium temperature, K	uncertainty
0	258	2
0.11	255.4	2
0.21	253.7	2
0.3	251.9	2
0.41	250.8	2
