Measured thermophysical data. Liquid Liquid Equilibria for the Ternary Systems Dodecane + Toluene or Thiophene or Pyridine + 1-Ethyl-3-methylimidazolium Methyl Sulfate
Source: J. Chem. Eng. Data, 2017, 10.1021/acs.jced.6b00437
Compound 1: toluene, C7H8, InChI=1S/C7H8/c1-7-5-3-2-4-6-7/h2-6H,1H3
Compound 2: thiophene, C4H4S, InChI=1S/C4H4S/c1-2-4-5-3-1/h1-4H
Compound 3: pyridine, C5H5N, InChI=1S/C5H5N/c1-2-4-6-5-3-1/h1-5H
Compound 4: dodecane, C12H26, InChI=1S/C12H26/c1-3-5-7-9-11-12-10-8-6-4-2/h3-12H2,1-2H3
Compound 5: 1-ethyl-3-methylimidazolium methylsulfate, C7H14N2O4S, InChI=1S/C6H11N2.CH4O4S/c1-3-8-5-4-7(2)6-8;1-5-6(2,3)4/h4-6H,3H2,1-2H3;1H3,(H,2,3,4)/q+1;/p-1

System: toluene + dodecane + 1-ethyl-3-methylimidazolium methylsulfate; phases: Liquid mixture 1, Liquid mixture 2
Fixed: Temperature, K = 298.15
Fixed: Pressure, kPa = 100
Property: Mole fraction of dodecane (Liquid mixture 1); method: Chromatography
Property: Mole fraction of dodecane (Liquid mixture 2); method: Chromatography
Property: Mole fraction of toluene (Liquid mixture 2); method: Chromatography
Mole fraction of toluene	Mole fraction of dodecane	uncertainty	Mole fraction of dodecane	uncertainty	Mole fraction of toluene	uncertainty
0.152	0.82	0.015	0.014	0.01	0.034	
0.547	0.439	0.015	0.006	0.006	0.095	
0.578	0.415	0.013	0.006	0.006	0.1	
0.599	0.395	0.014	0.006	0.006	0.11	
0.25	0.711	0.013	0.011	0.01	0.049	
0.272	0.695	0.013	0.011	0.01	0.051	
0.398	0.595	0.013	0.009	0.009	0.067	
0.441	0.559	0.014	0.009	0.009	0.076	
0.476	0.523	0.015	0.008	0.008	0.081	
0.507	0.492	0.016	0.007	0.007	0.087	

System: thiophene + dodecane + 1-ethyl-3-methylimidazolium methylsulfate; phases: Liquid mixture 2, Liquid mixture 1
Fixed: Temperature, K = 298.15
Fixed: Pressure, kPa = 100
Property: Mole fraction of dodecane (Liquid mixture 2); method: Chromatography
Property: Mole fraction of dodecane (Liquid mixture 1); method: Chromatography
Property: Mole fraction of thiophene (Liquid mixture 1); method: Chromatography
Mole fraction of thiophene	Mole fraction of dodecane	uncertainty	Mole fraction of dodecane	uncertainty	Mole fraction of thiophene	uncertainty
0.103	0.001	0.001	0.86	0.014	0.137	
0.379	0.002	0.002	0.307	0.017	0.647	
0.382	0.002	0.002	0.288	0.022	0.655	
0.187	0		0.738	0.014	0.255	
0.23	0.011	0.01	0.663	0.014	0.335	
0.297	0.008	0.008	0.552	0.015	0.438	
0.314	0.007	0.007	0.497	0.015	0.492	
0.351	0		0.422	0.016	0.56	
0.371	0.003	0.003	0.367	0.017	0.602	
0.372	0.003	0.003	0.314	0.018	0.642	

System: pyridine + dodecane + 1-ethyl-3-methylimidazolium methylsulfate; phases: Liquid mixture 2, Liquid mixture 1
Fixed: Temperature, K = 298.15
Fixed: Pressure, kPa = 100
Property: Mole fraction of dodecane (Liquid mixture 2); method: Chromatography
Property: Mole fraction of pyridine (Liquid mixture 1); method: Chromatography
Property: Mole fraction of dodecane (Liquid mixture 1); method: Chromatography
Mole fraction of pyridine	Mole fraction of dodecane	uncertainty	Mole fraction of pyridine	uncertainty	Mole fraction of dodecane	uncertainty
0.126	0.045	0.01	0.038	0.015	0.954	
0.64	0.009	0.009	0.341	0.015	0.65	
0.651	0.008	0.008	0.353	0.014	0.637	
0.211	0.038	0.01	0.08	0.015	0.917	
0.295	0.03	0.01	0.11	0.014	0.887	
0.402	0.019	0.01	0.171	0.014	0.828	
0.539	0.013	0.01	0.257	0.014	0.73	
0.573	0.012	0.01	0.285	0.015	0.703	
0.583	0.012	0.01	0.289	0.015	0.694	
0.609	0.009	0.009	0.344	0.016	0.654	
