Measured thermophysical data. Density, Viscosity, and Electrical Conductivity of Protic Amidium Bis(trifluoromethanesulfonyl)amide Ionic Liquids
Source: J. Chem. Eng. Data, 2016, 10.1021/acs.jced.6b00575
Compound 1: N,N-dimethylformamide bis 1,1,1-trifluoro-N-((trifluoromethyl)sulfonyl)methanesulfonamide (1:1), C5H8F6N2O5S2, InChI=1S/C3H7NO.C2F6NO4S2/c1-4(2)3-5;3-1(4,5)14(10,11)9-15(12,13)2(6,7)8/h3H,1-2H3;/q;-1/p+1
Compound 2: N,N-dimethylacetamidium bis(trifluoromethanesulfonyl)amide, C6H10F6N2O5S2, InChI=1S/C4H9NO.C2F6NO4S2/c1-4(6)5(2)3;3-1(4,5)14(10,11)9-15(12,13)2(6,7)8/h1-3H3;/q;-1/p+1
Compound 3: N,N-dimethylpropionamidium bis(trifluoromethanesulfonyl)amide, C7H12F6N2O5S2, InChI=1S/C5H11NO.C2F6NO4S2/c1-4-5(7)6(2)3;3-1(4,5)14(10,11)9-15(12,13)2(6,7)8/h4H2,1-3H3;/q;-1/p+1
Compound 4: dimethylformamide, C3H7NO, InChI=1S/C3H7NO/c1-4(2)3-5/h3H,1-2H3
Compound 5: N,N-dimethylethanamide, C4H9NO, InChI=1S/C4H9NO/c1-4(6)5(2)3/h1-3H3
Compound 6: N,N-dimethylpropionamide, C5H11NO, InChI=1S/C5H11NO/c1-4-5(7)6(2)3/h4H2,1-3H3

System: N,N-dimethylformamide bis 1,1,1-trifluoro-N-((trifluoromethyl)sulfonyl)methanesulfonamide (1:1); phases: Liquid
Fixed: Pressure, kPa = 101.325
Property: Mass density, kg/m3 (Liquid); method: Vibrating tube method
Temperature, K	Mass density, kg/m3	uncertainty
273.15	1517.5	6.36
278.15	1512.05	6.34
283.15	1506.63	6.31
288.15	1501.25	6.29
293.15	1495.89	6.26
298.15	1490.56	6.24
303.15	1485.25	6.22
313.15	1474.71	6.17
323.15	1464.25	6.12
333.15	1453.87	6.07
343.15	1443.57	6.03
353.15	1433.33	5.98
363.15	1423.15	5.93

System: N,N-dimethylformamide bis 1,1,1-trifluoro-N-((trifluoromethyl)sulfonyl)methanesulfonamide (1:1); phases: Liquid
Fixed: Pressure, kPa = 101.325
Property: Viscosity, Pa*s (Liquid); method: Concentric cylinders viscometry
Temperature, K	Viscosity, Pa*s	uncertainty
273.15	0.1072	0.0026
278.15	0.07951	0.00184
283.15	0.06061	0.00136
288.15	0.04745	0.00107
293.15	0.03793	0.00086
298.15	0.03071	0.00069
303.15	0.02532	0.00057
313.15	0.01799	0.00041
323.15	0.01334	0.0003
333.15	0.01027	0.00023
343.15	0.00813	0.00018
353.15	0.0066	0.00015
363.15	0.00547	0.00012

System: N,N-dimethylformamide bis 1,1,1-trifluoro-N-((trifluoromethyl)sulfonyl)methanesulfonamide (1:1); phases: Liquid
Fixed: Pressure, kPa = 101.325
Property: Electrical conductivity, S/m (Liquid); method: Alternating current cell with electrodes
Temperature, K	Electrical conductivity, S/m	uncertainty
273.15	0.224	0.005
278.15	0.293	0.006
283.15	0.373	0.007
288.15	0.465	0.009
293.15	0.57	0.011
298.15	0.687	0.014
303.15	0.815	0.016
313.15	1.108	0.022
323.15	1.441	0.029
333.15	1.808	0.036
343.15	2.21	0.044
353.15	2.645	0.053

System: N,N-dimethylacetamidium bis(trifluoromethanesulfonyl)amide; phases: Liquid
Fixed: Pressure, kPa = 101.325
Property: Mass density, kg/m3 (Liquid); method: Vibrating tube method
Temperature, K	Mass density, kg/m3	uncertainty
313.15	1549.8	1.7
323.15	1539.4	1.7
333.15	1529.1	1.7
343.15	1518.6	1.6
353.15	1508.1	1.6
363.15	1497.8	1.6

System: N,N-dimethylacetamidium bis(trifluoromethanesulfonyl)amide; phases: Liquid
Fixed: Pressure, kPa = 101.325
Property: Viscosity, Pa*s (Liquid); method: Concentric cylinders viscometry
Temperature, K	Viscosity, Pa*s	uncertainty
313.15	0.06783	0.00142
323.15	0.04471	0.00093
333.15	0.03131	0.00065
343.15	0.02285	0.00048
353.15	0.01735	0.00036
363.15	0.01351	0.00028

System: N,N-dimethylacetamidium bis(trifluoromethanesulfonyl)amide; phases: Liquid
Fixed: Pressure, kPa = 101.325
Property: Electrical conductivity, S/m (Liquid); method: Alternating current cell with electrodes
Temperature, K	Electrical conductivity, S/m	uncertainty
313.15	0.403	0.008
323.15	0.574	0.011
333.15	0.782	0.016
343.15	1.024	0.02
353.15	1.295	0.026

System: N,N-dimethylpropionamidium bis(trifluoromethanesulfonyl)amide; phases: Liquid
Fixed: Pressure, kPa = 101.325
Property: Mass density, kg/m3 (Liquid); method: Vibrating tube method
Temperature, K	Mass density, kg/m3	uncertainty
273.15	1546.8	1.68
278.15	1541.52	1.67
283.15	1536.2	1.67
288.15	1530.91	1.66
293.15	1525.62	1.65
298.15	1520.35	1.65
303.15	1515.12	1.64
313.15	1504.73	1.63
323.15	1494.43	1.61
333.15	1484.21	1.6
343.15	1474.06	1.59
353.15	1463.98	1.58
363.15	1453.97	1.56

System: N,N-dimethylpropionamidium bis(trifluoromethanesulfonyl)amide; phases: Liquid
Fixed: Pressure, kPa = 101.325
Property: Viscosity, Pa*s (Liquid); method: Concentric cylinders viscometry
Temperature, K	Viscosity, Pa*s	uncertainty
273.15	0.5836	0.0214
278.15	0.4013	0.0132
283.15	0.2842	0.0085
288.15	0.2072	0.0056
293.15	0.1549	0.0039
298.15	0.1177	0.0027
303.15	0.09133	0.00201
313.15	0.05792	0.0012
323.15	0.03933	0.00082
333.15	0.02784	0.00058
343.15	0.02058	0.00043
353.15	0.01567	0.00033
363.15	0.01228	0.00026

System: N,N-dimethylpropionamidium bis(trifluoromethanesulfonyl)amide; phases: Liquid
Fixed: Pressure, kPa = 101.325
Property: Electrical conductivity, S/m (Liquid); method: Alternating current cell with electrodes
Temperature, K	Electrical conductivity, S/m	uncertainty
273.15	0.053	0.001
278.15	0.075	0.002
283.15	0.103	0.002
288.15	0.136	0.003
293.15	0.177	0.004
298.15	0.225	0.005
303.15	0.28	0.006
313.15	0.415	0.008
323.15	0.585	0.012
333.15	0.787	0.016
343.15	1.014	0.02
353.15	1.277	0.026

System: dimethylformamide; phases: Liquid
Fixed: Pressure, kPa = 101.325
Property: Mass density, kg/m3 (Liquid); method: Vibrating tube method
Temperature, K	Mass density, kg/m3	uncertainty
273.15	967.56	0.12
278.15	962.83	0.12
283.15	958.1	0.12
288.15	953.37	0.12
293.15	948.61	0.12
298.15	943.85	0.13
303.15	939.07	0.13
313.15	929.5	0.13
323.15	919.86	0.14
333.15	910.17	0.14
343.15	900.41	0.14
353.15	890.57	0.15
363.15	880.65	0.15

System: dimethylformamide; phases: Liquid
Fixed: Pressure, kPa = 101.325
Property: Viscosity, Pa*s (Liquid); method: Concentric cylinders viscometry
Temperature, K	Viscosity, Pa*s	uncertainty
273.15	0.00114	2e-05
278.15	0.00106	2e-05
283.15	0.000979	2.1e-05
288.15	0.000891	1.9e-05
293.15	0.000845	1.8e-05
298.15	0.00081	1.7e-05
303.15	0.000765	1.6e-05
313.15	0.000684	1.5e-05
323.15	0.000615	1.3e-05
333.15	0.000535	1.2e-05
343.15	0.000484	1.1e-05
353.15	0.000436	1e-05
363.15	0.000398	9e-06

System: N,N-dimethylethanamide; phases: Liquid
Fixed: Pressure, kPa = 101.325
Property: Mass density, kg/m3 (Liquid); method: Vibrating tube method
Temperature, K	Mass density, kg/m3	uncertainty
273.15	959.16	0.98
278.15	954.56	0.98
283.15	949.95	0.97
288.15	945.35	0.97
293.15	940.74	0.96
298.15	936.13	0.96
303.15	931.51	0.96
313.15	922.26	0.95
323.15	912.99	0.94
333.15	903.68	0.93
343.15	894.31	0.92
353.15	884.9	0.91
363.15	875.43	0.9

System: N,N-dimethylethanamide; phases: Liquid
Fixed: Pressure, kPa = 101.325
Property: Viscosity, Pa*s (Liquid); method: Concentric cylinders viscometry
Temperature, K	Viscosity, Pa*s	uncertainty
273.15	0.00141	3e-05
278.15	0.00129	3e-05
283.15	0.00119	3e-05
288.15	0.00109	2e-05
293.15	0.001	2e-05
298.15	0.000946	2e-05
303.15	0.000883	1.9e-05
313.15	0.000772	1.7e-05
323.15	0.000692	1.5e-05
333.15	0.000614	1.4e-05
343.15	0.000553	1.3e-05
353.15	0.000502	1.1e-05
363.15	0.000459	1.1e-05

System: N,N-dimethylpropionamide; phases: Liquid
Fixed: Pressure, kPa = 101.325
Property: Mass density, kg/m3 (Liquid); method: Vibrating tube method
Temperature, K	Mass density, kg/m3	uncertainty
273.15	942.45	3.83
278.15	938.02	3.82
283.15	933.6	3.8
288.15	929.18	3.78
293.15	924.75	3.76
298.15	920.32	3.74
303.15	915.93	3.73
313.15	907.04	3.69
323.15	898.13	3.65
333.15	889.17	3.62
343.15	880.17	3.58
353.15	871.11	3.54
363.15	861.99	3.5

System: N,N-dimethylpropionamide; phases: Liquid
Fixed: Pressure, kPa = 101.325
Property: Viscosity, Pa*s (Liquid); method: Concentric cylinders viscometry
Temperature, K	Viscosity, Pa*s	uncertainty
273.15	0.00144	3e-05
278.15	0.00132	3e-05
283.15	0.00121	3e-05
288.15	0.00111	3e-05
293.15	0.00102	2e-05
298.15	0.000958	2.2e-05
303.15	0.000892	2.1e-05
313.15	0.000778	1.8e-05
323.15	0.000696	1.7e-05
333.15	0.000618	1.5e-05
343.15	0.000556	1.3e-05
353.15	0.000504	1.2e-05
363.15	0.00046	1.1e-05
