Measured thermophysical data. Solid-Liquid Phase Equilibrium and Thermodynamic Analysis of N,N'-Diethylthiourea in Different Solvent Systems
Source: J. Chem. Eng. Data, 2019, 10.1021/acs.jced.9b00854
Compound 1: N,N'-diethylthiourea, C5H12N2S, InChI=1S/C5H12N2S/c1-3-6-5(8)7-4-2/h3-4H2,1-2H3,(H2,6,7,8), purity 98%
Compound 2: methanol, CH4O, InChI=1S/CH4O/c1-2/h2H,1H3, purity 99.5%
Compound 3: ethanol, C2H6O, InChI=1S/C2H6O/c1-2-3/h3H,2H2,1H3, purity 99.5%
Compound 4: propan-1-ol, C3H8O, InChI=1S/C3H8O/c1-2-3-4/h4H,2-3H2,1H3, purity 99.5%
Compound 5: propan-2-ol, C3H8O, InChI=1S/C3H8O/c1-3(2)4/h3-4H,1-2H3, purity 99.5%
Compound 6: butan-1-ol, C4H10O, InChI=1S/C4H10O/c1-2-3-4-5/h5H,2-4H2,1H3, purity 99.5%
Compound 7: butan-2-ol, C4H10O, InChI=1S/C4H10O/c1-3-4(2)5/h4-5H,3H2,1-2H3, purity 99.5%
Compound 8: pentan-1-ol, C5H12O, InChI=1S/C5H12O/c1-2-3-4-5-6/h6H,2-5H2,1H3, purity 99.5%
Compound 9: acetone, C3H6O, InChI=1S/C3H6O/c1-3(2)4/h1-2H3, purity 99.5%
Compound 10: butanone, C4H8O, InChI=1S/C4H8O/c1-3-4(2)5/h3H2,1-2H3, purity 99.5%
Compound 11: methyl ethanoate, C3H6O2, InChI=1S/C3H6O2/c1-3(4)5-2/h1-2H3, purity 99.5%
Compound 12: ethyl acetate, C4H8O2, InChI=1S/C4H8O2/c1-3-6-4(2)5/h3H2,1-2H3, purity 99.5%
Compound 13: acetonitrile, C2H3N, InChI=1S/C2H3N/c1-2-3/h1H3, purity 99.5%

System: N,N'-diethylthiourea; phases: Crystal
Property: Mass density, kg/m3 (Crystal); method: X-ray diffraction
Temperature, K	Pressure, kPa	Mass density, kg/m3	uncertainty
293	101.325	1120	5.8

System: N,N'-diethylthiourea; phases: Crystal, Liquid, Air at 1 atmosphere
Property: Triple point temperature, K (Crystal); method: DSC
Triple point temperature, K	uncertainty
351.28	0.87

System: N,N'-diethylthiourea; phases: Crystal, Liquid, Air at 1 atmosphere
Property: Molar enthalpy of transition or fusion, kJ/mol (Crystal); method: DSC
Molar enthalpy of transition or fusion, kJ/mol	uncertainty
15.67	0.86

System: N,N'-diethylthiourea + methanol; phases: Liquid, Crystal
Fixed: Pressure, kPa = 100
Property: Mole fraction of N,N'-diethylthiourea (Liquid); method: gravimetric
Temperature, K	Mole fraction of N,N'-diethylthiourea	uncertainty
283.15	0.2323	0.014
288.15	0.2693	0.0163
293.15	0.3274	0.0198
298.15	0.3669	0.0221
303.15	0.4062	0.0245
308.15	0.4599	0.0278
313.15	0.5518	0.0271
318.15	0.5942	0.0245
323.15	0.6934	0.0189

System: N,N'-diethylthiourea + ethanol; phases: Liquid, Crystal
Fixed: Pressure, kPa = 100
Property: Mole fraction of N,N'-diethylthiourea (Liquid); method: gravimetric
Temperature, K	Mole fraction of N,N'-diethylthiourea	uncertainty
283.15	0.1997	0.0121
288.15	0.2424	0.0147
293.15	0.2887	0.0174
298.15	0.3224	0.0195
303.15	0.3865	0.0233
308.15	0.4125	0.0249
313.15	0.494	0.0298
318.15	0.5491	0.0272
323.15	0.6319	0.0224

System: N,N'-diethylthiourea + propan-1-ol; phases: Liquid, Crystal
Fixed: Pressure, kPa = 100
Property: Mole fraction of N,N'-diethylthiourea (Liquid); method: gravimetric
Temperature, K	Mole fraction of N,N'-diethylthiourea	uncertainty
283.15	0.2057	0.0124
288.15	0.2353	0.0142
293.15	0.2947	0.0178
298.15	0.3233	0.0195
303.15	0.3743	0.0225
308.15	0.3986	0.024
313.15	0.489	0.0295
318.15	0.531	0.0283
323.15	0.6272	0.0227

System: N,N'-diethylthiourea + propan-2-ol; phases: Liquid, Crystal
Fixed: Pressure, kPa = 100
Property: Mole fraction of N,N'-diethylthiourea (Liquid); method: gravimetric
Temperature, K	Mole fraction of N,N'-diethylthiourea	uncertainty
283.15	0.1717	0.0105
288.15	0.215	0.013
293.15	0.2477	0.0149
298.15	0.2907	0.0176
303.15	0.3408	0.0206
308.15	0.3892	0.0235
313.15	0.4701	0.0283
318.15	0.5205	0.0289
323.15	0.5965	0.0244

System: N,N'-diethylthiourea + butan-1-ol; phases: Liquid, Crystal
Fixed: Pressure, kPa = 100
Property: Mole fraction of N,N'-diethylthiourea (Liquid); method: gravimetric
Temperature, K	Mole fraction of N,N'-diethylthiourea	uncertainty
283.15	0.1754	0.0106
288.15	0.2104	0.0127
293.15	0.2523	0.0152
298.15	0.2943	0.0177
303.15	0.335	0.0202
308.15	0.3867	0.0234
313.15	0.4716	0.0284
318.15	0.5205	0.0289
323.15	0.5683	0.026

System: N,N'-diethylthiourea + butan-2-ol; phases: Liquid, Crystal
Fixed: Pressure, kPa = 100
Property: Mole fraction of N,N'-diethylthiourea (Liquid); method: gravimetric
Temperature, K	Mole fraction of N,N'-diethylthiourea	uncertainty
283.15	0.1713	0.0104
288.15	0.2082	0.0126
293.15	0.2519	0.0152
298.15	0.2842	0.0171
303.15	0.3335	0.0201
308.15	0.3829	0.0232
313.15	0.474	0.0286
318.15	0.5246	0.0286
323.15	0.5767	0.0255

System: N,N'-diethylthiourea + pentan-1-ol; phases: Liquid, Crystal
Fixed: Pressure, kPa = 100
Property: Mole fraction of N,N'-diethylthiourea (Liquid); method: gravimetric
Temperature, K	Mole fraction of N,N'-diethylthiourea	uncertainty
283.15	0.1522	0.0093
288.15	0.2003	0.0121
293.15	0.2286	0.0138
298.15	0.2792	0.0168
303.15	0.309	0.0187
308.15	0.3761	0.0227
313.15	0.4399	0.0265
318.15	0.4826	0.0291
323.15	0.5662	0.0263

System: N,N'-diethylthiourea + acetone; phases: Liquid, Crystal
Fixed: Pressure, kPa = 100
Property: Mole fraction of N,N'-diethylthiourea (Liquid); method: gravimetric
Temperature, K	Mole fraction of N,N'-diethylthiourea	uncertainty
283.15	0.2559	0.0155
288.15	0.3115	0.0188
293.15	0.3449	0.0207
298.15	0.3751	0.0226
303.15	0.411	0.0247
308.15	0.4584	0.0276
313.15	0.5299	0.0283
318.15	0.5788	0.0254
323.15	0.6655	0.0204

System: N,N'-diethylthiourea + butanone; phases: Liquid, Crystal
Fixed: Pressure, kPa = 100
Property: Mole fraction of N,N'-diethylthiourea (Liquid); method: gravimetric
Temperature, K	Mole fraction of N,N'-diethylthiourea	uncertainty
283.15	0.2669	0.0161
288.15	0.3107	0.0187
293.15	0.3555	0.0214
298.15	0.3958	0.0238
303.15	0.4214	0.0253
308.15	0.4662	0.0281
313.15	0.535	0.028
318.15	0.5739	0.0257
323.15	0.6245	0.0227

System: N,N'-diethylthiourea + methyl ethanoate; phases: Liquid, Crystal
Fixed: Pressure, kPa = 100
Property: Mole fraction of N,N'-diethylthiourea (Liquid); method: gravimetric
Temperature, K	Mole fraction of N,N'-diethylthiourea	uncertainty
283.15	0.1182	0.0073
288.15	0.1566	0.0095
293.15	0.1976	0.012
298.15	0.2485	0.0151
303.15	0.3015	0.0183
308.15	0.3676	0.0223
313.15	0.4531	0.0273
318.15	0.4917	0.0297
323.15	0.5918	0.0248

System: N,N'-diethylthiourea + ethyl acetate; phases: Liquid, Crystal
Fixed: Pressure, kPa = 100
Property: Mole fraction of N,N'-diethylthiourea (Liquid); method: gravimetric
Temperature, K	Mole fraction of N,N'-diethylthiourea	uncertainty
283.15	0.1142	0.007
288.15	0.148	0.009
293.15	0.1832	0.0111
298.15	0.2292	0.0139
303.15	0.2751	0.0166
308.15	0.3282	0.0199
313.15	0.4251	0.0257
318.15	0.4734	0.0285
323.15	0.5348	0.028

System: N,N'-diethylthiourea + acetonitrile; phases: Liquid, Crystal
Fixed: Pressure, kPa = 100
Property: Mole fraction of N,N'-diethylthiourea (Liquid); method: gravimetric
Temperature, K	Mole fraction of N,N'-diethylthiourea	uncertainty
283.15	0.129	0.008
288.15	0.1826	0.0111
293.15	0.217	0.0132
298.15	0.2763	0.0167
303.15	0.3234	0.0195
308.15	0.3876	0.0235
313.15	0.4812	0.029
318.15	0.5307	0.0283
323.15	0.6138	0.0234
