Measured thermophysical data. Measurement and Correlation for Solubilities of Adipic Acid, Glutaric Acid, and Succinic Acid in Dimethyl Adipate + Methanol Mixtures
Source: J. Chem. Eng. Data, 2017, 10.1021/acs.jced.7b00255
Compound 1: 1,6-hexanedioic acid, C6H10O4, InChI=1S/C6H10O4/c7-5(8)3-1-2-4-6(9)10/h1-4H2,(H,7,8)(H,9,10), purity 99%
Compound 2: 1,5-pentanedioic acid, C5H8O4, InChI=1S/C5H8O4/c6-4(7)2-1-3-5(8)9/h1-3H2,(H,6,7)(H,8,9), purity 99%
Compound 3: butanedioic acid, C4H6O4, InChI=1S/C4H6O4/c5-3(6)1-2-4(7)8/h1-2H2,(H,5,6)(H,7,8), purity 99%
Compound 4: dimethyl 1,6-hexanedioate, C8H14O4, InChI=1S/C8H14O4/c1-11-7(9)5-3-4-6-8(10)12-2/h3-6H2,1-2H3, purity 99%
Compound 5: methanol, CH4O, InChI=1S/CH4O/c1-2/h2H,1H3, purity 99.9%
Compound 6: cyclohexanone, C6H10O, InChI=1S/C6H10O/c7-6-4-2-1-3-5-6/h1-5H2, purity 99.5%

System: 1,6-hexanedioic acid + methanol; phases: Liquid, Crystal
Fixed: Pressure, kPa = 101.3
Property: Mole fraction of 1,6-hexanedioic acid (Liquid); method: OTHER:sssMethod:visual
Temperature, K	Mole fraction of 1,6-hexanedioic acid	uncertainty
284.85	0.0298	0.006
288.95	0.0339	0.0068
291.45	0.038	0.0076
296.45	0.044	0.0088
299.45	0.0488	0.0098
302.95	0.054	0.0108
306.95	0.061	0.0122
309.55	0.0668	0.0134
313.55	0.0752	0.0151
318.65	0.0866	0.0173

System: 1,6-hexanedioic acid + cyclohexanone; phases: Liquid, Crystal
Fixed: Pressure, kPa = 101.3
Property: Mole fraction of 1,6-hexanedioic acid (Liquid); method: OTHER:sssMethod:visual
Temperature, K	Mole fraction of 1,6-hexanedioic acid	uncertainty
301.25	0.0147	0.003
305.45	0.0185	0.0037
309.95	0.0227	0.0045
314.45	0.0274	0.0055
318.25	0.0321	0.0064
321.15	0.0369	0.0074
324.35	0.0422	0.0085
327.65	0.0478	0.0096
331.65	0.0542	0.0109
334.75	0.0616	0.0123

System: 1,5-pentanedioic acid + cyclohexanone; phases: Liquid, Crystal
Fixed: Pressure, kPa = 101.3
Property: Mole fraction of 1,5-pentanedioic acid (Liquid); method: OTHER:sssMethod:visual
Temperature, K	Mole fraction of 1,5-pentanedioic acid	uncertainty
303.55	0.2	0.0401
306.25	0.2213	0.0443
309.35	0.245	0.049
311.55	0.2611	0.0523
314.35	0.2801	0.0561
317.95	0.3067	0.0614
320.65	0.3278	0.0656
325.35	0.3678	0.0736
329.15	0.4143	0.0829
334.05	0.4692	0.0939

System: butanedioic acid + cyclohexanone; phases: Liquid, Crystal
Fixed: Pressure, kPa = 101.3
Property: Mole fraction of butanedioic acid (Liquid); method: OTHER:ssMethod:visual
Temperature, K	Mole fraction of butanedioic acid	uncertainty
298.55	0.012	0.0024
303.95	0.0144	0.0029
309.75	0.0174	0.0035
316.05	0.0215	0.0043
319.35	0.024	0.0048
323.85	0.0279	0.0056
328.55	0.0326	0.0065
333.75	0.0377	0.0075
337.15	0.0422	0.0084
340.85	0.0469	0.0094

System: 1,6-hexanedioic acid + dimethyl 1,6-hexanedioate + methanol; phases: Liquid, Crystal
Fixed: Pressure, kPa = 101.3
Property: Mole fraction of 1,6-hexanedioic acid (Liquid); method: OTHER:sssMethod:visual
Temperature, K	Solvent: Mass fraction of dimethyl 1,6-hexanedioate	Mole fraction of 1,6-hexanedioic acid	uncertainty
284.85	0	0.0298	0.006
288.95	0	0.0339	0.0068
291.45	0	0.038	0.0076
296.45	0	0.044	0.0088
299.45	0	0.0488	0.0098
302.95	0	0.054	0.0108
306.95	0	0.061	0.0122
309.55	0	0.0668	0.0134
313.55	0	0.0752	0.0151
318.65	0	0.0866	0.0173
285.15	0.1	0.0323	0.0065
289.15	0.1	0.0368	0.0074
292.65	0.1	0.0412	0.0082
297.35	0.1	0.0477	0.0095
300.65	0.1	0.0529	0.0106
304.45	0.1	0.0588	0.0118
308.85	0.1	0.0668	0.0134
311.15	0.1	0.0722	0.0145
315.35	0.1	0.0809	0.0162
320.15	0.1	0.0923	0.0185
285.25	0.2	0.0349	0.007
290.95	0.2	0.0402	0.008
293.75	0.2	0.045	0.009
297.65	0.2	0.0506	0.0101
301.45	0.2	0.0553	0.0111
304.55	0.2	0.0612	0.0123
308.45	0.2	0.0681	0.0136
312.35	0.2	0.0748	0.015
316.45	0.2	0.0828	0.0166
320.65	0.2	0.0925	0.0185
286.25	0.3	0.0323	0.0065
290.95	0.3	0.0368	0.0074
293.55	0.3	0.0412	0.0083
297.55	0.3	0.0477	0.0096
300.65	0.3	0.0529	0.0106
304.65	0.3	0.0588	0.0118
308.95	0.3	0.0704	0.0141
311.65	0.3	0.0722	0.0144
315.65	0.3	0.0809	0.0162
320.25	0.3	0.0923	0.0185
287.05	0.4	0.0394	0.0079
290.25	0.4	0.0429	0.0086
292.55	0.4	0.0471	0.0094
297.85	0.4	0.0528	0.0106
302.15	0.4	0.0587	0.0117
306.55	0.4	0.065	0.013
309.55	0.4	0.0727	0.0146
312.35	0.4	0.0786	0.0157
316.55	0.4	0.0869	0.0174
321.55	0.4	0.0972	0.0194
287.85	0.5	0.0391	0.0078
290.75	0.5	0.0427	0.0085
294.55	0.5	0.0475	0.0095
298.35	0.5	0.0528	0.0106
302.35	0.5	0.0588	0.0118
306.25	0.5	0.0655	0.0131
311.15	0.5	0.0736	0.0147
314.35	0.5	0.0802	0.016
317.75	0.5	0.0866	0.0173
321.95	0.5	0.0958	0.0192
289.65	0.6	0.0412	0.0083
294.25	0.6	0.0459	0.0092
297.55	0.6	0.0498	0.01
300.85	0.6	0.0538	0.0108
304.85	0.6	0.0603	0.0121
308.65	0.6	0.0668	0.0134
312.55	0.6	0.0732	0.0147
315.85	0.6	0.0791	0.0158
319.05	0.6	0.0858	0.0172
322.95	0.6	0.0951	0.019
291.45	0.7	0.0394	0.0079
296.15	0.7	0.0429	0.0086
299.35	0.7	0.0463	0.0093
302.45	0.7	0.0507	0.0102
305.35	0.7	0.0552	0.0111
309.05	0.7	0.0605	0.0121
312.25	0.7	0.0663	0.0133
315.45	0.7	0.0727	0.0146
318.75	0.7	0.0797	0.016
323.05	0.7	0.0892	0.0179
283.95	0.8	0.027	0.0054
288.45	0.8	0.0303	0.0061
293.25	0.8	0.0341	0.0069
298.75	0.8	0.0394	0.0079
302.75	0.8	0.0442	0.0089
308.05	0.8	0.0504	0.0101
311.35	0.8	0.0555	0.0111
316.35	0.8	0.0616	0.0124
320.95	0.8	0.0684	0.0137
325.15	0.8	0.0771	0.0155
284.65	0.9	0.0131	0.0026
288.95	0.9	0.0159	0.0032
294.75	0.9	0.0192	0.0039
299.75	0.9	0.0223	0.0045
303.95	0.9	0.0254	0.0051
307.35	0.9	0.0295	0.0059
311.75	0.9	0.0335	0.0067
315.45	0.9	0.0376	0.0075
319.75	0.9	0.0423	0.0085
323.85	0.9	0.047	0.0094
293.15	1	0.0045	0.0009
298.15	1	0.0053	0.0011
303.15	1	0.0063	0.0013
308.15	1	0.0072	0.0014
313.15	1	0.0092	0.0018
318.15	1	0.0115	0.0023
323.15	1	0.014	0.0028

System: 1,5-pentanedioic acid + dimethyl 1,6-hexanedioate + methanol; phases: Liquid, Crystal
Fixed: Pressure, kPa = 101.3
Property: Mole fraction of 1,5-pentanedioic acid (Liquid); method: OTHER:sssMethod:visual
Temperature, K	Solvent: Mass fraction of dimethyl 1,6-hexanedioate	Mole fraction of 1,5-pentanedioic acid	uncertainty
293.55	0	0.2225	0.0445
295.25	0	0.2283	0.0457
297.25	0	0.2369	0.0474
299.55	0	0.2481	0.0496
302.95	0	0.2641	0.0528
308.05	0	0.2895	0.0579
312.35	0	0.3132	0.0627
317.55	0	0.3459	0.0692
321.55	0	0.3756	0.0751
292.45	0.1	0.2251	0.045
295.85	0.1	0.2383	0.0477
299.35	0.1	0.2545	0.0509
302.95	0.1	0.2723	0.0545
306.55	0.1	0.2927	0.0586
310.35	0.1	0.3135	0.0627
313.95	0.1	0.3353	0.0671
317.15	0.1	0.3592	0.0719
320.55	0.1	0.3862	0.0773
290.65	0.2	0.2177	0.0436
295.75	0.2	0.2384	0.0477
299.85	0.2	0.258	0.0516
305.85	0.2	0.287	0.0574
310.65	0.2	0.3087	0.0618
315.15	0.2	0.3328	0.0666
318.15	0.2	0.3494	0.0699
321.35	0.2	0.3743	0.0749
322.55	0.2	0.3883	0.0777
289.95	0.3	0.2203	0.0441
296.35	0.3	0.2426	0.0485
300.65	0.3	0.2601	0.052
304.35	0.3	0.2764	0.0553
307.65	0.3	0.2931	0.0586
310.65	0.3	0.3099	0.062
314.15	0.3	0.3295	0.0659
317.75	0.3	0.3526	0.0705
321.15	0.3	0.3763	0.0753
289.15	0.4	0.2193	0.0439
294.45	0.4	0.2364	0.0473
298.15	0.4	0.2529	0.0506
303.55	0.4	0.2762	0.0553
307.45	0.4	0.2982	0.0597
310.95	0.4	0.3188	0.0638
315.65	0.4	0.3455	0.0691
319.15	0.4	0.3693	0.0739
322.35	0.4	0.3952	0.0791
293.05	0.5	0.233	0.0466
298.35	0.5	0.2488	0.0498
301.35	0.5	0.2578	0.0516
303.25	0.5	0.2667	0.0534
306.25	0.5	0.2821	0.0564
309.95	0.5	0.3018	0.0604
313.45	0.5	0.3233	0.0647
316.75	0.5	0.3458	0.0692
320.55	0.5	0.3747	0.075
290.15	0.6	0.2219	0.0444
296.65	0.6	0.241	0.0482
301.55	0.6	0.2591	0.0518
304.65	0.6	0.2794	0.0559
308.45	0.6	0.302	0.0604
312.35	0.6	0.325	0.065
316.35	0.6	0.3509	0.0702
319.65	0.6	0.3748	0.075
323.75	0.6	0.4071	0.0815
289.45	0.7	0.2094	0.0419
293.85	0.7	0.2269	0.0454
297.75	0.7	0.2407	0.0482
301.15	0.7	0.2543	0.0509
304.45	0.7	0.27	0.054
308.35	0.7	0.2899	0.058
312.75	0.7	0.312	0.0624
317.25	0.7	0.3363	0.0673
321.35	0.7	0.3651	0.073
289.25	0.8	0.1873	0.0375
292.75	0.8	0.206	0.0413
296.35	0.8	0.2237	0.0448
301.35	0.8	0.2418	0.0484
303.95	0.8	0.2581	0.0517
307.35	0.8	0.2768	0.0554
312.05	0.8	0.2987	0.0598
314.75	0.8	0.3144	0.063
316.35	0.8	0.3333	0.0668
291.95	0.9	0.1546	0.031
293.65	0.9	0.1684	0.0337
296.55	0.9	0.1881	0.0377
299.85	0.9	0.2052	0.0411
302.75	0.9	0.2229	0.0446
308.05	0.9	0.2432	0.0487
312.55	0.9	0.2656	0.0532
316.45	0.9	0.2906	0.0582
320.85	0.9	0.3275	0.0655
294.85	1	0.0542	0.011
297.15	1	0.0686	0.0138
300.85	1	0.0853	0.0171
304.55	1	0.1015	0.0203
306.35	1	0.1139	0.0228
309.05	1	0.1294	0.0259
310.75	1	0.1443	0.0289
312.95	1	0.1632	0.0327
315.25	1	0.1853	0.0371

System: butanedioic acid + dimethyl 1,6-hexanedioate + methanol; phases: Liquid, Crystal
Fixed: Pressure, kPa = 101.3
Property: Mole fraction of butanedioic acid (Liquid); method: OTHER:sssMethod:visual
Temperature, K	Solvent: Mass fraction of dimethyl 1,6-hexanedioate	Mole fraction of butanedioic acid	uncertainty
285.75	0	0.0366	0.0073
290.95	0	0.0417	0.0083
295.85	0	0.0462	0.0092
298.15	0	0.051	0.0102
302.55	0	0.0568	0.0114
307.85	0	0.0633	0.0127
314.35	0	0.0746	0.0149
319.85	0	0.0832	0.0166
324.45	0	0.0904	0.0181
286.15	0.1	0.0368	0.0074
290.35	0.1	0.0414	0.0083
294.15	0.1	0.0458	0.0092
301.15	0.1	0.0554	0.0111
305.35	0.1	0.0614	0.0123
309.35	0.1	0.0674	0.0135
313.75	0.1	0.0733	0.0147
317.55	0.1	0.0798	0.016
322.35	0.1	0.0873	0.0175
286.85	0.2	0.0402	0.008
291.05	0.2	0.0446	0.0089
295.05	0.2	0.0493	0.0099
298.85	0.2	0.0545	0.0109
302.45	0.2	0.0592	0.0118
309.85	0.2	0.0695	0.0139
314.35	0.2	0.0753	0.0151
318.65	0.2	0.0828	0.0166
323.55	0.2	0.0905	0.0181
287.35	0.3	0.0427	0.0085
291.65	0.3	0.0471	0.0094
295.95	0.3	0.0517	0.0103
299.65	0.3	0.0558	0.0112
303.05	0.3	0.0597	0.0119
309.85	0.3	0.0691	0.0138
314.05	0.3	0.0752	0.015
318.75	0.3	0.0849	0.017
323.05	0.3	0.0954	0.0191
288.75	0.4	0.0461	0.0092
293.45	0.4	0.0506	0.0101
297.65	0.4	0.0544	0.0109
301.45	0.4	0.0582	0.0116
307.35	0.4	0.0654	0.0131
310.15	0.4	0.07	0.014
313.55	0.4	0.0759	0.0152
319.95	0.4	0.086	0.0172
325.95	0.4	0.0961	0.0192
290.95	0.5	0.048	0.0096
295.05	0.5	0.0516	0.0103
298.15	0.5	0.0554	0.0111
301.35	0.5	0.0594	0.0119
304.55	0.5	0.0631	0.0126
308.35	0.5	0.0681	0.0136
312.25	0.5	0.0745	0.0149
318.45	0.5	0.0836	0.0167
323.95	0.5	0.0923	0.0185
289.35	0.6	0.0427	0.0086
294.55	0.6	0.0468	0.0094
299.15	0.6	0.0502	0.0101
303.15	0.6	0.0563	0.0113
306.15	0.6	0.0598	0.012
309.65	0.6	0.065	0.013
314.05	0.6	0.0707	0.0142
320.25	0.6	0.0797	0.0159
325.45	0.6	0.0882	0.0177
290.95	0.7	0.043	0.0086
297.15	0.7	0.0475	0.0095
302.45	0.7	0.0518	0.0104
307.45	0.7	0.0578	0.0116
311.85	0.7	0.0623	0.0125
315.65	0.7	0.0678	0.0136
319.45	0.7	0.0752	0.0151
325.95	0.7	0.0837	0.0168
289.45	0.8	0.0332	0.0067
296.35	0.8	0.0384	0.0077
301.45	0.8	0.0421	0.0084
306.55	0.8	0.0468	0.0094
308.65	0.8	0.0496	0.01
312.85	0.8	0.054	0.0108
318.95	0.8	0.062	0.0124
326.35	0.8	0.0722	0.0145
289.05	0.9	0.02	0.004
296.65	0.9	0.0246	0.0049
303.35	0.9	0.0278	0.0056
309.15	0.9	0.0302	0.0061
313.75	0.9	0.0327	0.0066
317.75	0.9	0.0366	0.0073
324.55	0.9	0.0446	0.0089
293.15	1	0.0049	0.001
298.15	1	0.006	0.0012
303.15	1	0.0071	0.0014
308.15	1	0.009	0.0018
313.15	1	0.0099	0.002
318.15	1	0.0109	0.0022
323.15	1	0.0127	0.0025
328.15	1	0.0145	0.0029

System: 1,6-hexanedioic acid + dimethyl 1,6-hexanedioate; phases: Liquid, Crystal
Fixed: Pressure, kPa = 101.3
Property: Mole fraction of 1,6-hexanedioic acid (Liquid); method: OTHER:sssMethod:visual
Temperature, K	Mole fraction of 1,6-hexanedioic acid	uncertainty
293.15	0.0045	0.0009
298.15	0.0053	0.0011
303.15	0.0063	0.0013
308.15	0.0072	0.0014
313.15	0.0092	0.0018
318.15	0.0115	0.0023
323.15	0.014	0.0028

System: 1,5-pentanedioic acid + methanol; phases: Liquid, Crystal
Fixed: Pressure, kPa = 101.3
Property: Mole fraction of 1,5-pentanedioic acid (Liquid); method: OTHER:sssMethod:visual
Temperature, K	Mole fraction of 1,5-pentanedioic acid	uncertainty
293.55	0.2225	0.0445
295.25	0.2283	0.0457
297.25	0.2369	0.0474
299.55	0.2481	0.0496
302.95	0.2641	0.0528
308.05	0.2895	0.0579
312.35	0.3132	0.0627
317.55	0.3459	0.0692
321.55	0.3756	0.0751

System: 1,5-pentanedioic acid + dimethyl 1,6-hexanedioate; phases: Liquid, Crystal
Fixed: Pressure, kPa = 101.3
Property: Mole fraction of 1,5-pentanedioic acid (Liquid); method: OTHER:sssMethod:visual
Temperature, K	Mole fraction of 1,5-pentanedioic acid	uncertainty
294.85	0.0542	0.011
297.15	0.0686	0.0138
300.85	0.0853	0.0171
304.55	0.1015	0.0203
306.35	0.1139	0.0228
309.05	0.1294	0.0259
310.75	0.1443	0.0289
312.95	0.1632	0.0327
315.25	0.1853	0.0371

System: butanedioic acid + methanol; phases: Liquid, Crystal
Fixed: Pressure, kPa = 101.3
Property: Mole fraction of butanedioic acid (Liquid); method: OTHER:sssMethod:visual
Temperature, K	Mole fraction of butanedioic acid	uncertainty
285.75	0.0366	0.0073
290.95	0.0417	0.0083
295.85	0.0462	0.0092
298.15	0.051	0.0102
302.55	0.0568	0.0114
307.85	0.0633	0.0127
314.35	0.0746	0.0149
319.85	0.0832	0.0166
324.45	0.0904	0.0181

System: butanedioic acid + dimethyl 1,6-hexanedioate; phases: Liquid, Crystal
Fixed: Pressure, kPa = 101.3
Property: Mole fraction of butanedioic acid (Liquid); method: OTHER:sssMethod:visual
Temperature, K	Mole fraction of butanedioic acid	uncertainty
293.15	0.0049	0.001
298.15	0.006	0.0012
303.15	0.0071	0.0014
308.15	0.009	0.0018
313.15	0.0099	0.002
318.15	0.0109	0.0022
323.15	0.0127	0.0025
328.15	0.0145	0.0029
