Measured thermophysical data. Liquid Liquid Equilibria, Equilibrium Phase Densities, and Refractive Indices for the Quaternary Mixtures Containing 2-Propanol or 2-Methyl-2-Propanol of Fuel Oxygenate at T = 298.15 and 318.15 K
Source: J. Chem. Eng. Data, 2016, 10.1021/acs.jced.6b00019
Compound 1: water, H2O, InChI=1S/H2O/h1H2, purity 99.9%
Compound 2: propan-2-ol, C3H8O, InChI=1S/C3H8O/c1-3(2)4/h3-4H,1-2H3, purity 99.8%
Compound 3: 2-methylpropan-2-ol, C4H10O, InChI=1S/C4H10O/c1-4(2,3)5/h5H,1-3H3, purity 99%
Compound 4: methylcyclohexane, C7H14, InChI=1S/C7H14/c1-7-5-3-2-4-6-7/h7H,2-6H2,1H3, purity 99.5%
Compound 5: 1,4-dimethylbenzene, C8H10, InChI=1S/C8H10/c1-7-3-5-8(2)6-4-7/h3-6H,1-2H3, purity 99%
Compound 6: 2,2,4-trimethylpentane, C8H18, InChI=1S/C8H18/c1-7(2)6-8(3,4)5/h7H,6H2,1-5H3, purity 99.5%

System: water; phases: Liquid
Property: Mass density, kg/m3 (Liquid); method: Vibrating tube method
Temperature, K	Pressure, kPa	Mass density, kg/m3	uncertainty
298.15	101.325	997.05	16

System: water; phases: Liquid
Property: Refractive index (Na D-line) (Liquid); method: Standard Abbe refractometry
Temperature, K	Pressure, kPa	Refractive index (Na D-line)	uncertainty
298.15	101.325	1.33254	0.00202

System: propan-2-ol; phases: Liquid
Property: Mass density, kg/m3 (Liquid); method: Vibrating tube method
Temperature, K	Pressure, kPa	Mass density, kg/m3	uncertainty
298.15	101.325	781.18	16

System: propan-2-ol; phases: Liquid
Property: Refractive index (Na D-line) (Liquid); method: Standard Abbe refractometry
Temperature, K	Pressure, kPa	Refractive index (Na D-line)	uncertainty
298.15	101.325	1.3752	0.00202

System: 2-methylpropan-2-ol; phases: Liquid
Property: Mass density, kg/m3 (Liquid); method: Vibrating tube method
Temperature, K	Pressure, kPa	Mass density, kg/m3	uncertainty
298.15	101.325	780.86	16

System: 2-methylpropan-2-ol; phases: Liquid
Property: Refractive index (Na D-line) (Liquid); method: Standard Abbe refractometry
Temperature, K	Pressure, kPa	Refractive index (Na D-line)	uncertainty
298.15	101.325	1.38507	0.00203

System: methylcyclohexane; phases: Liquid
Property: Mass density, kg/m3 (Liquid); method: Vibrating tube method
Temperature, K	Pressure, kPa	Mass density, kg/m3	uncertainty
298.15	101.325	764.95	16

System: methylcyclohexane; phases: Liquid
Property: Refractive index (Na D-line) (Liquid); method: Standard Abbe refractometry
Temperature, K	Pressure, kPa	Refractive index (Na D-line)	uncertainty
298.15	101.325	1.42047	0.00202

System: 1,4-dimethylbenzene; phases: Liquid
Property: Mass density, kg/m3 (Liquid); method: Vibrating tube method
Temperature, K	Pressure, kPa	Mass density, kg/m3	uncertainty
298.15	101.325	856.63	16

System: 1,4-dimethylbenzene; phases: Liquid
Property: Refractive index (Na D-line) (Liquid); method: Standard Abbe refractometry
Temperature, K	Pressure, kPa	Refractive index (Na D-line)	uncertainty
298.15	101.325	1.49301	0.00203

System: 2,2,4-trimethylpentane; phases: Liquid
Property: Mass density, kg/m3 (Liquid); method: Vibrating tube method
Temperature, K	Pressure, kPa	Mass density, kg/m3	uncertainty
298.15	101.325	687.81	16

System: 2,2,4-trimethylpentane; phases: Liquid
Property: Refractive index (Na D-line) (Liquid); method: Standard Abbe refractometry
Temperature, K	Pressure, kPa	Refractive index (Na D-line)	uncertainty
298.15	101.325	1.38901	0.00202

System: propan-2-ol + water; phases: Liquid
Fixed: Pressure, kPa = 100
Property: Mass density, kg/m3 (Liquid); method: Vibrating tube method
Temperature, K	Mole fraction of water	Mass density, kg/m3	uncertainty
298.15	0.943	969.9	16
298.15	0.912	961.1	16
298.15	0.8688	943.2	16
318.15	0.9519	962	16
318.15	0.9256	951.5	16
318.15	0.9081	936.3	16

System: propan-2-ol + water; phases: Liquid
Fixed: Pressure, kPa = 100
Property: Refractive index (Na D-line) (Liquid); method: Standard Abbe refractometry
Temperature, K	Mole fraction of water	Refractive index (Na D-line)	uncertainty
298.15	0.943	1.35	0.002
298.15	0.912	1.3532	0.002
298.15	0.8688	1.3588	0.002
318.15	0.9519	1.3422	0.002
318.15	0.9256	1.3465	0.002
318.15	0.9081	1.3512	0.002

System: 2-methylpropan-2-ol + water; phases: Liquid
Fixed: Pressure, kPa = 100
Property: Mass density, kg/m3 (Liquid); method: Vibrating tube method
Temperature, K	Mole fraction of water	Mass density, kg/m3	uncertainty
298.15	0.943	969.9	16
298.15	0.912	961.1	16
298.15	0.8688	943.2	16
298.15	0.8331	923.6	16
298.15	0.7836	904.3	16
298.15	0.7292	883.3	16
298.15	0.6697	863.2	16
298.15	0.5993	845	16
318.15	0.9519	962	16
318.15	0.9256	951.5	16
318.15	0.9081	936.3	16
318.15	0.8816	921.2	16
318.15	0.8439	900.8	16
318.15	0.7986	879.3	16
318.15	0.717	860.8	16
318.15	0.6462	842.1	16

System: 2-methylpropan-2-ol + water; phases: Liquid
Fixed: Pressure, kPa = 100
Property: Refractive index (Na D-line) (Liquid); method: Standard Abbe refractometry
Temperature, K	Mole fraction of water	Refractive index (Na D-line)	uncertainty
298.15	0.9799	1.3411	0.0021
298.15	0.975	1.3431	0.0021
298.15	0.9699	1.345	0.0021
298.15	0.9684	1.3456	0.0021
298.15	0.9664	1.3465	0.0021
298.15	0.962	1.3479	0.002
298.15	0.9594	1.3487	0.002
298.15	0.958	1.3492	0.0021
318.15	0.9777	1.3387	0.002
318.15	0.9709	1.341	0.002
318.15	0.9662	1.3422	0.002
318.15	0.9628	1.343	0.002
318.15	0.9602	1.3442	0.0021
318.15	0.9574	1.3449	0.002
318.15	0.9544	1.3458	0.002
318.15	0.9508	1.3466	0.002
