Measured thermophysical data. Isobaric Vapor-Liquid Equilibrium for Binary and Ternary Systems of 2-Methoxyethanol, Ethylbenzene, and Dimethyl Sulfoxide at 100.00 kPa
Source: J. Chem. Eng. Data, 2018, 10.1021/acs.jced.8b00225
Compound 1: ethylbenzene, C8H10, InChI=1S/C8H10/c1-2-8-6-4-3-5-7-8/h3-7H,2H2,1H3, purity 99.5%
Compound 2: 2-methoxyethan-1-ol, C3H8O2, InChI=1S/C3H8O2/c1-5-3-2-4/h4H,2-3H2,1H3, purity 99.5%
Compound 3: dimethyl sulfoxide, C2H6OS, InChI=1S/C2H6OS/c1-4(2)3/h1-2H3, purity 99.5%

System: ethylbenzene; phases: Liquid
Property: Mass density, kg/m3 (Liquid); method: Vibrating tube method
Temperature, K	Pressure, kPa	Mass density, kg/m3	uncertainty
298.15	101.325	862.7	0.3

System: ethylbenzene; phases: Liquid, Gas
Property: Normal boiling temperature, K (Liquid); method: Ebulliometric method (Recirculating still)
Normal boiling temperature, K	uncertainty
409.27	2

System: 2-methoxyethan-1-ol; phases: Liquid
Property: Mass density, kg/m3 (Liquid); method: Vibrating tube method
Temperature, K	Pressure, kPa	Mass density, kg/m3	uncertainty
298.15	101.325	960.2	0.3

System: 2-methoxyethan-1-ol; phases: Liquid, Gas
Property: Normal boiling temperature, K (Liquid); method: Ebulliometric method (Recirculating still)
Normal boiling temperature, K	uncertainty
397.6	2

System: dimethyl sulfoxide; phases: Liquid
Property: Mass density, kg/m3 (Liquid); method: Vibrating tube method
Temperature, K	Pressure, kPa	Mass density, kg/m3	uncertainty
298.15	101.325	1095.4	0.3

System: dimethyl sulfoxide; phases: Liquid, Gas
Property: Normal boiling temperature, K (Liquid); method: Ebulliometric method (Recirculating still)
Normal boiling temperature, K	uncertainty
462.16	2

System: 2-methoxyethan-1-ol + ethylbenzene; phases: Liquid, Gas
Fixed: Pressure, kPa = 100
Property: Boiling temperature at pressure P, K (Liquid); method: Ebulliometric method (Recirculating still)
Mole fraction of 2-methoxyethan-1-ol	Boiling temperature at pressure P, K	uncertainty
0.9806	396.2	2
0.9538	395.05	2
0.9187	393.91	2
0.8999	393.43	2
0.8239	392.09	2
0.7533	391.41	2
0.6974	391.12	2
0.654	391.09	2
0.5751	391.08	2
0.5069	391.12	2
0.4298	391.32	2
0.2749	392.5	2
0.1755	394.38	2
0.1094	397.02	2
0.0803	398.7	2.01
0.0421	402.18	2.01

System: 2-methoxyethan-1-ol + ethylbenzene; phases: Gas, Liquid
Fixed: Pressure, kPa = 100
Property: Mole fraction of 2-methoxyethan-1-ol (Gas); method: Chromatography
Mole fraction of 2-methoxyethan-1-ol	Mole fraction of 2-methoxyethan-1-ol	uncertainty
0.9806	0.9499	0.0137
0.9538	0.8951	0.012
0.9187	0.8419	0.0106
0.8999	0.8187	0.0097
0.8239	0.7379	0.0084
0.7533	0.6878	0.0077
0.6974	0.6543	0.0073
0.654	0.6418	0.0073
0.5751	0.5998	0.0075
0.5069	0.5712	0.0074
0.4298	0.5426	0.0075
0.2749	0.4821	0.0078
0.1755	0.4167	0.0086
0.1094	0.3412	0.0102
0.0803	0.2913	0.0148
0.0421	0.1938	0.0165

System: 2-methoxyethan-1-ol + dimethyl sulfoxide; phases: Liquid, Gas
Fixed: Pressure, kPa = 100
Property: Boiling temperature at pressure P, K (Liquid); method: Ebulliometric method (Recirculating still)
Mole fraction of 2-methoxyethan-1-ol	Boiling temperature at pressure P, K	uncertainty
0.7687	405.1	2
0.7214	407.21	2
0.6095	413.27	2
0.5425	416.69	2.01
0.4915	420.23	2.01
0.4023	427.12	2.01
0.3008	434.25	2.01
0.2484	438.77	2.01
0.2024	443.81	2.01
0.1441	449.05	2.01
0.1044	452.55	2.01
0.0579	457.02	2.01
0.0398	459.61	2.02

System: 2-methoxyethan-1-ol + dimethyl sulfoxide; phases: Gas, Liquid
Fixed: Pressure, kPa = 100
Property: Mole fraction of 2-methoxyethan-1-ol (Gas); method: Chromatography
Mole fraction of 2-methoxyethan-1-ol	Mole fraction of 2-methoxyethan-1-ol	uncertainty
0.7687	0.9747	0.0061
0.7214	0.9654	0.0062
0.6095	0.9365	0.0063
0.5425	0.9117	0.0066
0.4915	0.8834	0.0074
0.4023	0.8135	0.0082
0.3008	0.7142	0.0093
0.2484	0.6407	0.0124
0.2024	0.5422	0.0143
0.1441	0.4256	0.0144
0.1044	0.3356	0.0168
0.0579	0.2041	0.0196
0.0398	0.1307	0.0251

System: ethylbenzene + dimethyl sulfoxide; phases: Liquid, Gas
Fixed: Pressure, kPa = 100
Property: Boiling temperature at pressure P, K (Liquid); method: Ebulliometric method (Recirculating still)
Mole fraction of ethylbenzene	Boiling temperature at pressure P, K	uncertainty
0.8768	408.78	2
0.7874	409.34	2
0.7052	409.81	2
0.4943	411.76	2
0.3497	414.95	2
0.2155	420.45	2
0.167	423.72	2.01
0.1293	427.06	2.02
0.0648	436.65	2.03
0.0322	444.19	2.07
0.0215	448.33	2.21
0.008	455.56	2.38
0.0011	461.8	2.24

System: ethylbenzene + dimethyl sulfoxide; phases: Gas, Liquid
Fixed: Pressure, kPa = 100
Property: Mole fraction of ethylbenzene (Gas); method: Chromatography
Mole fraction of ethylbenzene	Mole fraction of ethylbenzene	uncertainty
0.8768	0.9216	0.0062
0.7874	0.9002	0.0062
0.7052	0.8898	0.0061
0.4943	0.8612	0.0062
0.3497	0.8258	0.0065
0.2155	0.7646	0.0071
0.167	0.7272	0.0084
0.1293	0.6868	0.0125
0.0648	0.5501	0.0174
0.0322	0.4209	0.0285
0.0215	0.3423	0.0588
0.008	0.187	0.0876
0.0011	0.0354	0.0249

System: 2-methoxyethan-1-ol + ethylbenzene + dimethyl sulfoxide; phases: Liquid, Gas
Fixed: Pressure, kPa = 100
Property: Mole fraction of ethylbenzene (Liquid); method: Chromatography
Property: Mole fraction of ethylbenzene (Gas); method: Chromatography
Property: Mole fraction of 2-methoxyethan-1-ol (Gas); method: Chromatography
Temperature, K	Mole fraction of 2-methoxyethan-1-ol	Mole fraction of ethylbenzene	uncertainty	Mole fraction of ethylbenzene	uncertainty	Mole fraction of 2-methoxyethan-1-ol	uncertainty
425.73	0.3899	0.0096	0.006	0.0457	0.006	0.7699	
418.67	0.2905	0.1064	0.006	0.4076	0.0069	0.4429	
417.94	0.2712	0.1253	0.0061	0.4491	0.0071	0.4031	
416.89	0.2488	0.1499	0.0061	0.4933	0.0073	0.3653	
416.71	0.2276	0.1703	0.0061	0.526	0.007	0.3227	
416.63	0.2131	0.1844	0.0061	0.5481	0.0071	0.3069	
415.97	0.1831	0.2132	0.0062	0.6006	0.0069	0.2544	
415.75	0.1603	0.2365	0.0062	0.642	0.007	0.2098	
414.56	0.1371	0.2615	0.0063	0.6872	0.0066	0.1602	
414.21	0.1126	0.2866	0.0063	0.7242	0.0065	0.1261	
413.78	0.0767	0.323	0.006	0.7685	0.0063	0.0889	
413.52	0.0464	0.3538	0.0065	0.7891	0.0063	0.0603	
413.37	0.0159	0.3826	0.0066	0.8158	0.0062	0.0313	
423.35	0.3653	0.0335	0.006	0.1614	0.0062	0.6739	
421.01	0.3369	0.0613	0.006	0.2612	0.0064	0.5765	
