Measured thermophysical data. Investigation of CO2 Capture in Nonaqueous Ethylethanolamine Solution Mixed with Porous Solids
Source: J. Chem. Eng. Data, 2018, 10.1021/acs.jced.7b00761
Compound 1: 2-(ethylamino)ethanol, C4H11NO, InChI=1S/C4H11NO/c1-2-5-3-4-6/h5-6H,2-4H2,1H3, purity 98%
Compound 2: (diethylamino)ethanol, C6H15NO, InChI=1S/C6H15NO/c1-3-7(4-2)5-6-8/h8H,3-6H2,1-2H3, purity 99%
Compound 3: carbon dioxide, CO2, InChI=1S/CO2/c2-1-3

System: 2-(ethylamino)ethanol + (diethylamino)ethanol + carbon dioxide; phases: Liquid, Gas
Property: Mole fraction of carbon dioxide (Liquid); method: Titration method
Solvent: Mass fraction of 2-(ethylamino)ethanol	Temperature, K	Pressure, kPa	Mole fraction of carbon dioxide	uncertainty
0.3	313	101.3	0.733	0.008

System: 2-(ethylamino)ethanol + (diethylamino)ethanol; phases: Liquid
Property: Mass density, kg/m3 (Liquid); method: petroleum hydrometers
Mass fraction of 2-(ethylamino)ethanol	Temperature, K	Pressure, kPa	Mass density, kg/m3	uncertainty
0.3	313	101.3	879	3

System: 2-(ethylamino)ethanol + (diethylamino)ethanol; phases: Liquid
Property: Viscosity, Pa*s (Liquid); method: Vibrating wire viscometry
Mass fraction of 2-(ethylamino)ethanol	Temperature, K	Pressure, kPa	Viscosity, Pa*s	uncertainty
0.3	313	101.3	0.00383	0.000215
