Measured thermophysical data. Phase Equilibria in the Aqueous Ternary System (NH4)2SO4 + Na2SO4 + H2O at T = (303.15 and 313.15) K and p = 0.1 MPa
Source: J. Chem. Eng. Data, 2018, 10.1021/acs.jced.7b00847
Compound 1: ammonium sulfate, H8N2O4S, InChI=1S/2H3N.H2O4S/c;;1-5(2,3)4/h2*1H3;(H2,1,2,3,4)
Compound 2: sodium sulfate, Na2O4S, InChI=1S/2Na.H2O4S/c;;1-5(2,3)4/h;;(H2,1,2,3,4)/q2*+1;/p-2
Compound 3: water, H2O, InChI=1S/H2O/h1H2

System: ammonium sulfate + sodium sulfate + water; phases: Liquid, Crystal of intercomponent compound 1
Fixed: Temperature, K = 303.15
Fixed: Pressure, kPa = 100
Property: Mass fraction of sodium sulfate (Liquid); method: Titration method
Mass fraction of ammonium sulfate	Mass fraction of sodium sulfate	uncertainty
0	0.2928	0.006
0.0232	0.2991	0.0062
0.0491	0.3038	0.0062
0.0649	0.3076	0.0062

System: ammonium sulfate + sodium sulfate + water; phases: Liquid, Crystal
Fixed: Pressure, kPa = 100
Property: Mass fraction of sodium sulfate (Liquid); method: Titration method
Temperature, K	Mass fraction of ammonium sulfate	Mass fraction of sodium sulfate	uncertainty
303.15	0.0649	0.3076	0.0071
303.15	0.0994	0.2858	0.0076
303.15	0.129	0.2578	0.0074
303.15	0.1464	0.2535	0.0062
313.15	0	0.3252	0.006
313.15	0.0441	0.3188	0.0062
313.15	0.0738	0.3056	0.0068
313.15	0.1055	0.2869	0.0069
313.15	0.1237	0.2776	0.007
313.15	0.1466	0.263	0.007
313.15	0.1589	0.2569	0.0069
313.15	0.1701	0.2496	0.0074
313.15	0.1958	0.2308	0.0075

System: ammonium sulfate + sodium sulfate + water; phases: Liquid, Crystal of intercomponent compound 2
Fixed: Pressure, kPa = 100
Property: Mass fraction of sodium sulfate (Liquid); method: Titration method
Temperature, K	Mass fraction of ammonium sulfate	Mass fraction of sodium sulfate	uncertainty
313.15	0.1958	0.2308	0.0073
313.15	0.2341	0.2044	0.0073
313.15	0.2584	0.1882	0.0072
313.15	0.2889	0.1684	0.0072
313.15	0.3284	0.1428	0.0072
313.15	0.3473	0.1288	0.0076
313.15	0.3571	0.12	0.0074
313.15	0.3841	0.1023	0.0072
303.15	0.1464	0.2535	0.0074
303.15	0.1649	0.24	0.0084
303.15	0.182	0.2184	0.0088
303.15	0.2012	0.2008	0.0077
303.15	0.2212	0.1872	0.0074
303.15	0.2564	0.1614	0.0072
303.15	0.2765	0.1508	0.0071
303.15	0.3015	0.1328	0.0071
303.15	0.3153	0.1263	0.0069
303.15	0.3384	0.1123	0.0066
303.15	0.3558	0.1074	0.0072
303.15	0.3827	0.0836	0.008

System: ammonium sulfate + sodium sulfate + water; phases: Liquid, Crystal
Fixed: Pressure, kPa = 100
Property: Mass fraction of sodium sulfate (Liquid); method: Titration method
Temperature, K	Mass fraction of ammonium sulfate	Mass fraction of sodium sulfate	uncertainty
303.15	0.3827	0.0836	0.0103
303.15	0.3962	0.0647	0.0115
303.15	0.4148	0.0317	0.011
303.15	0.4382	0	
313.15	0.3841	0.1023	0.0119
313.15	0.39	0.0944	0.0131
313.15	0.3996	0.0757	0.0105
313.15	0.4237	0.0449	0.0104
313.15	0.4366	0.0228	0.0128
313.15	0.4475	0	

System: sodium sulfate + water; phases: Liquid, Crystal of intercomponent compound 1
Property: Mass fraction of sodium sulfate (Liquid); method: Titration method
Temperature, K	Pressure, kPa	Mass fraction of sodium sulfate	uncertainty
303.15	100	0.2928	0.006

System: sodium sulfate + water; phases: Liquid, Crystal
Property: Mass fraction of sodium sulfate (Liquid); method: Titration method
Temperature, K	Pressure, kPa	Mass fraction of sodium sulfate	uncertainty
313.15	100	0.3252	0.006

System: ammonium sulfate + water; phases: Liquid, Crystal
Fixed: Pressure, kPa = 100
Property: Solid-liquid equilibrium temperature, K (Liquid); method: Titration method
Mass fraction of ammonium sulfate	Solid-liquid equilibrium temperature, K	uncertainty
0.4382	303.15	0.39
0.4475	313.15	0.39
