Measured thermophysical data. Thermodynamic Properties of Ternary Solutions in the Water Nitric Acid Rare Earth Nitrate (Pr, Nd, Sm) Systems at 298.15 K
Source: J. Chem. Eng. Data, 2016, 10.1021/acs.jced.6b00357
Compound 1: nitric acid, HNO3, InChI=1S/HNO3/c2-1(3)4/h(H,2,3,4), purity 99.99%
Compound 2: praseodymium nitrate, N3O9Pr, InChI=1S/3NO3.Pr/c3*2-1(3)4;/q3*-1;+3, purity 99.99%
Compound 3: neodymium(III) nitrate, N3NdO9, InChI=1S/3NO3.Nd/c3*2-1(3)4;/q3*-1;+3, purity 99.99%
Compound 4: samarium(III) nitrate, N3O9Sm, InChI=1S/3NO3.Sm/c3*2-1(3)4;/q3*-1;+3, purity 99.99%
Compound 5: water, H2O, InChI=1S/H2O/h1H2, purity 99.9%

System: water; phases: Liquid, Gas
Property: Vapor or sublimation pressure, kPa (Liquid); method: Transpiration method
Temperature, K	Vapor or sublimation pressure, kPa	uncertainty
293.15	2.319	0.094
293.15	2.32	0.094
293.15	2.315	0.094
298.15	3.178	0.129

System: nitric acid + water; phases: Liquid, Gas
Fixed: Temperature, K = 298.15
Property: Vapor or sublimation pressure, kPa (Liquid); method: Transpiration method
Mole fraction of water	Vapor or sublimation pressure, kPa	uncertainty
0.9823	3.049	0.124
0.9798	3.044	0.124
0.9607	2.919	0.119
0.9606	2.88	0.117
0.9605	2.887	0.117
0.9603	2.908	0.118
0.9191	2.55	0.104
0.9196	2.538	0.103
0.9193	2.564	0.104
0.8748	2.133	0.087
0.8747	2.11	0.086
0.8729	2.107	0.086
0.8725	2.114	0.086
0.8732	2.121	0.086
0.8294	1.686	0.069
0.8293	1.673	0.068
0.8009	1.454	0.059

System: nitric acid + water + praseodymium nitrate; phases: Liquid, Gas
Fixed: Temperature, K = 298.15
Property: Mass density, kg/m3 (Liquid); method: Vibrating tube method
Mole fraction of praseodymium nitrate	Mole fraction of nitric acid	Mass density, kg/m3	uncertainty
0.0107	0.159	1364.3	11.1
0.0077	0.1134	1262.2	6.6
0.0042	0.0617	1163.6	3.4
0.0303	0.1411	1519.5	11.8
0.0222	0.1034	1414.5	11
0.0105	0.0488	1224.8	5.5
0.0419	0.0497	1555.4	16.9
0.0281	0.0333	1403.1	13.2
0.015	0.0178	1232.4	6.9

System: nitric acid + water + praseodymium nitrate; phases: Liquid, Gas
Fixed: Temperature, K = 298.15
Property: Vapor or sublimation pressure, kPa (Liquid); method: Transpiration method
Mole fraction of praseodymium nitrate	Mole fraction of nitric acid	Vapor or sublimation pressure, kPa	uncertainty
0.0107	0.159	1.566	0.089
0.0077	0.1134	2.045	0.094
0.0042	0.0617	2.626	0.11
0.0303	0.1411	1.482	0.082
0.0222	0.1034	1.944	0.089
0.0105	0.0488	2.646	0.11
0.0419	0.0497	2.101	0.094
0.0281	0.0333	2.541	0.105
0.015	0.0178	2.871	0.117

System: nitric acid + water + neodymium(III) nitrate; phases: Liquid, Gas
Fixed: Temperature, K = 298.15
Property: Mass density, kg/m3 (Liquid); method: Vibrating tube method
Mole fraction of neodymium(III) nitrate	Mole fraction of nitric acid	Mass density, kg/m3	uncertainty
0.0133	0.2017	1417.2	13
0.0081	0.1229	1290.7	7.7
0.0026	0.0454	1119	2.8
0.024	0.132	1467.3	11.5
0.0157	0.0833	1325.3	7.4
0.0057	0.0323	1137.7	3.5
0.0444	0.0506	1584.1	17.2
0.0294	0.0316	1421.2	13.7
0.016	0.019	1252.6	8.2

System: nitric acid + water + neodymium(III) nitrate; phases: Liquid, Gas
Fixed: Temperature, K = 298.15
Property: Vapor or sublimation pressure, kPa (Liquid); method: Transpiration method
Mole fraction of neodymium(III) nitrate	Mole fraction of nitric acid	Vapor or sublimation pressure, kPa	uncertainty
0.0133	0.2017	1.241	0.091
0.0081	0.1229	1.98	0.092
0.0026	0.0454	2.825	0.116
0.024	0.132	1.617	0.083
0.0157	0.0833	2.213	0.095
0.0057	0.0323	2.847	0.116
0.0444	0.0506	2.006	0.089
0.0294	0.0316	2.448	0.102
0.016	0.019	2.791	0.114

System: nitric acid + water + samarium(III) nitrate; phases: Liquid, Gas
Fixed: Temperature, K = 298.15
Property: Mass density, kg/m3 (Liquid); method: Vibrating tube method
Mole fraction of samarium(III) nitrate	Mole fraction of nitric acid	Mass density, kg/m3	uncertainty
0.0132	0.1916	1413.1	9
0.0088	0.1276	1307.6	8
0.0044	0.0638	1171.7	4
0.0245	0.1261	1476	11.6
0.0161	0.0837	1337.3	8.4
0.008	0.0416	1188.8	4.5
0.0463	0.049	1619.3	21.2
0.0307	0.0325	1456.6	16.2
0.0153	0.0161	1236.9	7.9

System: nitric acid + water + samarium(III) nitrate; phases: Liquid, Gas
Fixed: Temperature, K = 298.15
Property: Vapor or sublimation pressure, kPa (Liquid); method: Transpiration method
Mole fraction of samarium(III) nitrate	Mole fraction of nitric acid	Vapor or sublimation pressure, kPa	uncertainty
0.0132	0.1916	1.351	0.081
0.0088	0.1276	1.92	0.091
0.0044	0.0638	2.579	0.107
0.0245	0.1261	1.66	0.085
0.0161	0.0837	2.163	0.093
0.008	0.0416	2.744	0.113
0.0463	0.049	1.918	0.09
0.0307	0.0325	2.445	0.102
0.0153	0.0161	2.836	0.116
