Measured thermophysical data. Viscosities of 1-Hexyl-3-methylimidazolium Tetrafluoroborate and Its Binary Mixtures with Dimethyl Sulfoxide and Acetonitrile
Source: J. Chem. Eng. Data, 2018, 10.1021/acs.jced.8b00684
Compound 1: 1-hexyl-3-methylimidazolium tetrafluoroborate, C10H19BF4N2, InChI=1S/C10H19N2.BF4/c1-3-4-5-6-7-12-9-8-11(2)10-12;2-1(3,4)5/h8-10H,3-7H2,1-2H3;/q+1;-1, purity 99.5%
Compound 2: dimethyl sulfoxide, C2H6OS, InChI=1S/C2H6OS/c1-4(2)3/h1-2H3, purity 99.9%
Compound 3: acetonitrile, C2H3N, InChI=1S/C2H3N/c1-2-3/h1H3, purity 99.5%

System: 1-hexyl-3-methylimidazolium tetrafluoroborate; phases: Liquid
Fixed: Pressure, kPa = 100
Property: Viscosity, Pa*s (Liquid); method: Falling or rolling sphere viscometry
Temperature, K	Viscosity, Pa*s	uncertainty
293.15	0.293	0.02
298.15	0.216	0.013
303.15	0.163	0.009
313.15	0.0967	0.0043
323.15	0.0618	0.0025
333.15	0.0419	0.0017
343.15	0.0295	0.0012
353.15	0.0217	0.0009

System: dimethyl sulfoxide; phases: Liquid
Fixed: Pressure, kPa = 100
Property: Viscosity, Pa*s (Liquid); method: Falling or rolling sphere viscometry
Temperature, K	Viscosity, Pa*s	uncertainty
293.15	0.00221	9e-05
298.15	0.00201	8e-05
303.15	0.00184	7e-05
313.15	0.00156	6e-05
323.15	0.00134	5e-05
333.15	0.00117	5e-05
343.15	0.00103	4e-05
353.15	0.00092	4e-05

System: acetonitrile; phases: Liquid
Fixed: Pressure, kPa = 100
Property: Viscosity, Pa*s (Liquid); method: Falling or rolling sphere viscometry
Temperature, K	Viscosity, Pa*s	uncertainty
293.15	0.00039	2e-05
298.15	0.00037	2e-05
303.15	0.00035	2e-05
313.15	0.00033	1e-05
323.15	0.0003	1e-05
333.15	0.00028	1e-05
343.15	0.00026	1e-05

System: 1-hexyl-3-methylimidazolium tetrafluoroborate + acetonitrile; phases: Liquid
Fixed: Pressure, kPa = 100
Property: Viscosity, Pa*s (Liquid); method: Falling or rolling sphere viscometry
Temperature, K	Mole fraction of 1-hexyl-3-methylimidazolium tetrafluoroborate	Viscosity, Pa*s	uncertainty
293.15	0	0.00039	2e-05
293.15	0.104	0.00115	5e-05
293.15	0.2049	0.00243	0.0001
293.15	0.2948	0.00479	0.0002
293.15	0.4066	0.0105	0.0004
293.15	0.4616	0.0149	0.0006
293.15	0.5697	0.0291	0.0012
293.15	0.6626	0.05	0.002
293.15	0.8083	0.112	0.005
293.15	0.9044	0.184	0.01
293.15	1	0.293	0.02
298.15	0	0.00037	2e-05
298.15	0.104	0.00105	4e-05
298.15	0.2049	0.00226	9e-05
298.15	0.2948	0.00432	0.00018
298.15	0.4066	0.00904	0.00037
298.15	0.4616	0.0127	0.0005
298.15	0.5697	0.024	0.001
298.15	0.6626	0.0403	0.0016
298.15	0.8083	0.0864	0.0038
298.15	0.9044	0.139	0.007
298.15	1	0.216	0.013
303.15	0	0.00035	2e-05
303.15	0.104	0.00099	4e-05
303.15	0.2049	0.00208	9e-05
303.15	0.2948	0.00389	0.00016
303.15	0.4066	0.00792	0.00032
303.15	0.4616	0.011	0.0005
303.15	0.5697	0.0201	0.0008
303.15	0.6626	0.0328	0.0013
303.15	0.8083	0.0677	0.0028
303.15	0.9044	0.106	0.005
303.15	1	0.163	0.009
313.15	0	0.00033	1e-05
313.15	0.104	0.00087	4e-05
313.15	0.2049	0.00179	7e-05
313.15	0.2948	0.00321	0.00013
313.15	0.4066	0.00619	0.00025
313.15	0.4616	0.00836	0.00034
313.15	0.5697	0.0146	0.0006
313.15	0.6626	0.0228	0.0009
313.15	0.8083	0.0439	0.0018
313.15	0.9044	0.0659	0.0027
313.15	1	0.0967	0.0043
323.15	0	0.0003	1e-05
323.15	0.104	0.00078	3e-05
323.15	0.2049	0.00156	6e-05
323.15	0.2948	0.00269	0.00011
323.15	0.4066	0.00498	0.0002
323.15	0.4616	0.00658	0.00027
323.15	0.5697	0.011	0.0005
323.15	0.6626	0.0166	0.0007
323.15	0.8083	0.0301	0.0012
323.15	0.9044	0.0435	0.0018
323.15	1	0.0618	0.0025
333.15	0	0.00028	1e-05
333.15	0.104	0.00071	3e-05
333.15	0.2049	0.00137	6e-05
333.15	0.2948	0.0023	9e-05
333.15	0.4066	0.0041	0.00017
333.15	0.4616	0.00532	0.00022
333.15	0.5697	0.00858	0.00035
333.15	0.6626	0.0125	0.0005
333.15	0.8083	0.0217	0.0009
333.15	0.9044	0.0304	0.0012
333.15	1	0.0419	0.0017
343.15	0	0.00026	1e-05
343.15	0.104	0.00065	3e-05
343.15	0.2049	0.00122	5e-05
343.15	0.2948	0.00199	8e-05
343.15	0.4066	0.00343	0.00014
343.15	0.4616	0.00438	0.00018
343.15	0.5697	0.00685	0.00028
343.15	0.6626	0.00975	0.0004
343.15	0.8083	0.0162	0.0007
343.15	0.9044	0.0221	0.0009
343.15	1	0.0295	0.0012

System: 1-hexyl-3-methylimidazolium tetrafluoroborate + dimethyl sulfoxide; phases: Liquid
Fixed: Pressure, kPa = 100
Property: Viscosity, Pa*s (Liquid); method: Falling or rolling sphere viscometry
Temperature, K	Mole fraction of 1-hexyl-3-methylimidazolium tetrafluoroborate	Viscosity, Pa*s	uncertainty
293.15	0	0.00221	9e-05
293.15	0.116	0.00493	0.0002
293.15	0.2495	0.011	0.0005
293.15	0.2831	0.0137	0.0006
293.15	0.3857	0.025	0.001
293.15	0.5036	0.0442	0.0018
293.15	0.5714	0.0584	0.0024
293.15	0.6702	0.0848	0.0037
293.15	0.7517	0.114	0.005
293.15	0.7883	0.13	0.006
293.15	0.8976	0.196	0.011
293.15	1	0.293	0.02
298.15	0	0.00201	8e-05
298.15	0.116	0.00418	0.00017
298.15	0.2495	0.00967	0.00039
298.15	0.2831	0.0118	0.0005
298.15	0.3857	0.0206	0.0008
298.15	0.5036	0.0349	0.0014
298.15	0.5714	0.0456	0.0019
298.15	0.6702	0.0656	0.0027
298.15	0.7517	0.0876	0.0038
298.15	0.7883	0.0997	0.0045
298.15	0.8976	0.148	0.008
298.15	1	0.216	0.013
303.15	0	0.00184	7e-05
303.15	0.116	0.0037	0.00015
303.15	0.2495	0.00837	0.00034
303.15	0.2831	0.0101	0.0004
303.15	0.3857	0.0171	0.0007
303.15	0.5036	0.0284	0.0012
303.15	0.5714	0.0366	0.0015
303.15	0.6702	0.0518	0.0021
303.15	0.7517	0.0684	0.0028
303.15	0.7883	0.0775	0.0033
303.15	0.8976	0.113	0.005
303.15	1	0.163	0.009
313.15	0	0.00156	6e-05
313.15	0.116	0.00296	0.00012
313.15	0.2495	0.00647	0.00026
313.15	0.2831	0.00771	0.00031
313.15	0.3857	0.0124	0.0005
313.15	0.5036	0.0196	0.0008
313.15	0.5714	0.0248	0.001
313.15	0.6702	0.0341	0.0014
313.15	0.7517	0.044	0.0018
313.15	0.7883	0.0492	0.002
313.15	0.8976	0.0694	0.0029
313.15	1	0.0967	0.0043
323.15	0	0.00134	5e-05
323.15	0.116	0.00243	0.0001
323.15	0.2495	0.00511	0.00021
323.15	0.2831	0.00601	0.00024
323.15	0.3857	0.00935	0.00038
323.15	0.5036	0.0143	0.0006
323.15	0.5714	0.0177	0.0007
323.15	0.6702	0.0237	0.001
323.15	0.7517	0.03	0.0012
323.15	0.7883	0.0333	0.0014
323.15	0.8976	0.0456	0.0019
323.15	1	0.0618	0.0025
333.15	0	0.00117	5e-05
333.15	0.116	0.00194	8e-05
333.15	0.2495	0.00402	0.00016
333.15	0.2831	0.00474	0.00019
333.15	0.3857	0.00728	0.0003
333.15	0.5036	0.0108	0.0004
333.15	0.5714	0.0132	0.0005
333.15	0.6702	0.0172	0.0007
333.15	0.7517	0.0214	0.0009
333.15	0.7883	0.0236	0.001
333.15	0.8976	0.0316	0.0013
333.15	1	0.0419	0.0017
343.15	0	0.00103	4e-05
343.15	0.116	0.00168	7e-05
343.15	0.2495	0.00314	0.00013
343.15	0.2831	0.00368	0.00015
343.15	0.3857	0.00575	0.00023
343.15	0.5036	0.00872	0.00035
343.15	0.5714	0.0106	0.0004
343.15	0.6702	0.0135	0.0006
343.15	0.7517	0.0162	0.0007
343.15	0.7883	0.0176	0.0007
343.15	0.8976	0.0225	0.0009
343.15	1	0.0295	0.0012
353.15	0	0.00092	4e-05
353.15	0.116	0.00137	6e-05
353.15	0.2495	0.00277	0.00011
353.15	0.2831	0.00321	0.00013
353.15	0.3857	0.00472	0.00019
353.15	0.5036	0.0067	0.00027
353.15	0.5714	0.00799	0.00033
353.15	0.6702	0.0102	0.0004
353.15	0.7517	0.0123	0.0005
353.15	0.7883	0.0134	0.0005
353.15	0.8976	0.0172	0.0007
353.15	1	0.0217	0.0009
