Measured thermophysical data. Solubility and Liquid-Liquid Equilibria for the Isopropyl Acetate + Isopropanol + Acetic Acid + Water Quaternary System at 313.15 K and 101.3 kPa
Source: J. Chem. Eng. Data, 2019, 10.1021/acs.jced.9b00595
Compound 1: water, H2O, InChI=1S/H2O/h1H2, purity 99.92%
Compound 2: acetic acid, C2H4O2, InChI=1S/C2H4O2/c1-2(3)4/h1H3,(H,3,4), purity 99.58%
Compound 3: 1-methylethyl ethanoate, C5H10O2, InChI=1S/C5H10O2/c1-4(2)7-5(3)6/h4H,1-3H3, purity 99.52%
Compound 4: propan-2-ol, C3H8O, InChI=1S/C3H8O/c1-3(2)4/h3-4H,1-2H3, purity 99.82%

System: 1-methylethyl ethanoate + propan-2-ol + water; phases: Liquid mixture 1, Liquid mixture 2
Fixed: Temperature, K = 313.15
Fixed: Pressure, kPa = 100
Property: Mole fraction of propan-2-ol (Liquid mixture 1); method: Titration method
Mole fraction of 1-methylethyl ethanoate	Mole fraction of propan-2-ol	uncertainty
0.0052	0.043	0.02
0.0161	0.0869	0.0155
0.0259	0.1055	0.0097
0.0359	0.1192	0.0089
0.0459	0.1335	0.009
0.0616	0.1546	0.0088
0.0777	0.173	0.0086
0.104	0.1997	0.0083
0.0963	0.1923	0.0088
0.1284	0.218	0.0083
0.1905	0.2498	0.0086
0.2753	0.2588	0.0088

System: 1-methylethyl ethanoate + propan-2-ol + water; phases: Liquid mixture 2, Liquid mixture 1
Fixed: Temperature, K = 313.15
Fixed: Pressure, kPa = 100
Property: Mole fraction of 1-methylethyl ethanoate (Liquid mixture 2); method: Chromatography
Property: Mole fraction of propan-2-ol (Liquid mixture 1); method: Chromatography
Property: Mole fraction of 1-methylethyl ethanoate (Liquid mixture 1); method: Chromatography
Mole fraction of propan-2-ol	Mole fraction of 1-methylethyl ethanoate	uncertainty	Mole fraction of propan-2-ol	uncertainty	Mole fraction of 1-methylethyl ethanoate	uncertainty
0	0.0031	0.0031	0		0.8822	
0.0157	0.0031	0.0031	0.1044	0.0051	0.7072	
0.0327	0.0035	0.0035	0.194	0.0051	0.5456	
0.032	0.0042	0.0042	0.2161	0.0048	0.4881	
0.0396	0.0056	0.0045	0.2364	0.0047	0.407	
0.0446	0.0058	0.0044	0.2363	0.0047	0.327	

System: 1-methylethyl ethanoate + acetic acid + water; phases: Liquid mixture 1, Liquid mixture 2
Fixed: Temperature, K = 313.15
Fixed: Pressure, kPa = 100
Property: Mole fraction of acetic acid (Liquid mixture 1); method: Titration method
Mole fraction of 1-methylethyl ethanoate	Mole fraction of acetic acid	uncertainty
0.0123	0.0775	0.0179
0.0174	0.0957	0.016
0.0253	0.1186	0.0119
0.0362	0.1368	0.0083
0.0579	0.157	0.0074
0.0876	0.1749	0.0074
0.111	0.1863	0.0075
0.1388	0.1996	0.0077
0.1523	0.2034	0.0076
0.2096	0.2185	0.0079
0.2716	0.2191	0.0078
0.3629	0.2199	0.0079
0.4402	0.1945	0.0074
0.5459	0.168	0.007
0.6868	0.1064	0.006

System: 1-methylethyl ethanoate + acetic acid + water; phases: Liquid mixture 1, Liquid mixture 2
Fixed: Temperature, K = 313.15
Fixed: Pressure, kPa = 100
Property: Mole fraction of 1-methylethyl ethanoate (Liquid mixture 1); method: Chromatography
Property: Mole fraction of acetic acid (Liquid mixture 2); method: Chromatography
Property: Mole fraction of 1-methylethyl ethanoate (Liquid mixture 2); method: Chromatography
Mole fraction of acetic acid	Mole fraction of 1-methylethyl ethanoate	uncertainty	Mole fraction of acetic acid	uncertainty	Mole fraction of 1-methylethyl ethanoate	uncertainty
0.0314	0.0067	0.0044	0.0423	0.005	0.795	
0.0537	0.0077	0.0059	0.1312	0.0045	0.6264	
0.0548	0.0086	0.0045	0.1328	0.0047	0.6016	
0.0581	0.0116	0.0059	0.1555	0.0047	0.5429	
0.0863	0.0152	0.0046	0.1901	0.0047	0.4038	
0.114	0.0271	0.0048	0.2068	0.0047	0.289	

System: 1-methylethyl ethanoate + water; phases: Liquid mixture 2, Liquid mixture 1
Property: Mole fraction of 1-methylethyl ethanoate (Liquid mixture 2); method: Chromatography
Temperature, K	Pressure, kPa	Mole fraction of 1-methylethyl ethanoate	uncertainty
313.15	100	0.0031	0.0031

System: 1-methylethyl ethanoate + water; phases: Liquid mixture 1, Liquid mixture 2
Property: Mole fraction of 1-methylethyl ethanoate (Liquid mixture 1); method: Chromatography
Temperature, K	Pressure, kPa	Mole fraction of 1-methylethyl ethanoate	uncertainty
313.15	100	0.8822	0.0045
