Measured thermophysical data. Thermodynamic Studies of Solubility for Naphthalene in 12 Solvents from 279 to 330 K
Source: J. Chem. Eng. Data, 2019, 10.1021/acs.jced.9b00064
Compound 1: naphthalene, C10H8, InChI=1S/C10H8/c1-2-6-10-8-4-3-7-9(10)5-1/h1-8H, purity 99%
Compound 2: octane, C8H18, InChI=1S/C8H18/c1-3-5-7-8-6-4-2/h3-8H2,1-2H3, purity 99%
Compound 3: dodecane, C12H26, InChI=1S/C12H26/c1-3-5-7-9-11-12-10-8-6-4-2/h3-12H2,1-2H3, purity 99%
Compound 4: dichloromethane, CH2Cl2, InChI=1S/CH2Cl2/c2-1-3/h1H2, purity 99%
Compound 5: trichloromethane, CHCl3, InChI=1S/CHCl3/c2-1(3)4/h1H, purity 99%
Compound 6: tetrachloromethane, CCl4, InChI=1S/CCl4/c2-1(3,4)5, purity 99%
Compound 7: 1,2-dichloroethane, C2H4Cl2, InChI=1S/C2H4Cl2/c3-1-2-4/h1-2H2, purity 99%
Compound 8: 1,2-dichlorobenzene, C6H4Cl2, InChI=1S/C6H4Cl2/c7-5-3-1-2-4-6(5)8/h1-4H, purity 99%
Compound 9: octan-1-ol, C8H18O, InChI=1S/C8H18O/c1-2-3-4-5-6-7-8-9/h9H,2-8H2,1H3, purity 99%
Compound 10: 2-octanone, C8H16O, InChI=1S/C8H16O/c1-3-4-5-6-7-8(2)9/h3-7H2,1-2H3, purity 98%
Compound 11: 4-methylpentan-2-one, C6H12O, InChI=1S/C6H12O/c1-5(2)4-6(3)7/h5H,4H2,1-3H3, purity 99%
Compound 12: benzene, C6H6, InChI=1S/C6H6/c1-2-4-6-5-3-1/h1-6H, purity 99%
Compound 13: cis-decahydronaphthalene, C10H18, InChI=1S/C10H18/c1-2-6-10-8-4-3-7-9(10)5-1/h9-10H,1-8H2/t9-,10+, purity 99%
Compound 14: trans-decahydronaphthalene, C10H18, InChI=1S/C10H18/c1-2-6-10-8-4-3-7-9(10)5-1/h9-10H,1-8H2/t9-,10-, purity 99%

System: naphthalene; phases: Crystal, Liquid, Air at 1 atmosphere
Property: Triple point temperature, K (Crystal); method: DSC
Triple point temperature, K	uncertainty
355.04	2.12

System: naphthalene; phases: Crystal, Liquid, Air at 1 atmosphere
Property: Molar enthalpy of transition or fusion, kJ/mol (Crystal); method: DSC
Molar enthalpy of transition or fusion, kJ/mol	uncertainty
20.87	2.05

System: naphthalene + cis-decahydronaphthalene + trans-decahydronaphthalene; phases: Liquid, Crystal
Fixed: Pressure, kPa = 100
Fixed: Solvent: Mole fraction of cis-decahydronaphthalene = 0.5
Property: Solid-liquid equilibrium temperature, K (Liquid); method: VISOBS
Molality, mol/kg of naphthalene	Solid-liquid equilibrium temperature, K	uncertainty
0.83051	284.2	1.01
0.99818	288.4	1.01
1.17647	292.5	1.01
1.5429	298.2	1.01
1.87771	302.3	1.01
2.31335	306.5	1.01
2.83877	310.7	1.01
3.58572	315.2	1.01
4.52796	319.4	1.01
5.77806	323.5	1.01
7.76006	328.2	1.01

System: naphthalene + octane; phases: Liquid, Crystal
Fixed: Pressure, kPa = 100
Property: Solid-liquid equilibrium temperature, K (Liquid); method: VISOBS
Molality, mol/kg of naphthalene	Solid-liquid equilibrium temperature, K	uncertainty
0.87525	287.8	1.01
1.10186	292.7	1.01
1.32174	296.6	1.01
1.55838	299.6	1.01
1.9176	304	1.01
2.38487	308.3	1.01
2.97626	312.4	1.01
3.76926	316.5	1.01
5.11253	321.1	1.01
7.15932	325.5	1.01
10.03073	329.7	1.01

System: naphthalene + dodecane; phases: Liquid, Crystal
Fixed: Pressure, kPa = 100
Property: Solid-liquid equilibrium temperature, K (Liquid); method: VISOBS
Molality, mol/kg of naphthalene	Solid-liquid equilibrium temperature, K	uncertainty
0.64564	284	1.01
0.83252	289.6	1.01
0.97674	293.7	1.01
1.15853	297.8	1.01
1.39312	301.9	1.01
1.78879	306.7	1.01
2.21756	311	1.01
2.71526	315.1	1.01
3.52409	319.5	1.01
4.48176	323.6	1.01
5.61846	327.8	1.01

System: naphthalene + dichloromethane; phases: Liquid, Crystal
Fixed: Pressure, kPa = 100
Property: Solid-liquid equilibrium temperature, K (Liquid); method: VISOBS
Molality, mol/kg of naphthalene	Solid-liquid equilibrium temperature, K	uncertainty
2.88658	279.7	1.01
3.43995	284.4	1.01
4.02848	288.5	1.01
4.67159	292.6	1.01
5.47534	296.8	1.01
6.51744	301.6	1.01
7.49573	305.7	1.01
9.13298	310.3	1.01
11.04007	314.9	1.01
13.4238	319.5	1.01
16.33257	324	1.01

System: naphthalene + trichloromethane; phases: Liquid, Crystal
Fixed: Pressure, kPa = 100
Property: Solid-liquid equilibrium temperature, K (Liquid); method: VISOBS
Molality, mol/kg of naphthalene	Solid-liquid equilibrium temperature, K	uncertainty
2.27066	280.5	1.01
2.66984	285.2	1.01
3.10269	289.6	1.01
3.70003	294.5	1.01
4.41513	299.7	1.01
5.19448	304.1	1.01
6.13329	308.4	1.01
7.22724	313.1	1.01
8.59744	317.4	1.01
10.52664	321.7	1.01
12.86751	325.8	1.01

System: naphthalene + tetrachloromethane; phases: Liquid, Crystal
Fixed: Pressure, kPa = 100
Property: Solid-liquid equilibrium temperature, K (Liquid); method: VISOBS
Molality, mol/kg of naphthalene	Solid-liquid equilibrium temperature, K	uncertainty
1.2616	285.8	1.01
1.5982	290.9	1.01
2.00666	295.9	1.01
2.42519	300.3	1.01
2.98591	305	1.01
3.79286	310.1	1.01
4.70056	314.5	1.01
5.776	318.6	1.01
7.3472	322.9	1.01
9.61573	327.4	1.01

System: naphthalene + 1,2-dichloroethane; phases: Liquid, Crystal
Fixed: Pressure, kPa = 100
Property: Solid-liquid equilibrium temperature, K (Liquid); method: VISOBS
Molality, mol/kg of naphthalene	Solid-liquid equilibrium temperature, K	uncertainty
2.91481	286.3	1.01
3.349	290.4	1.01
4.17606	295.3	1.01
4.94828	299.5	1.01
5.80807	303.6	1.01
6.90806	307.7	1.01
8.29133	311.8	1.01
9.96807	315.9	1.01
12.24294	320.3	1.01
14.98404	324.4	1.01
18.68989	328.5	1.01

System: naphthalene + 1,2-dichlorobenzene; phases: Liquid, Crystal
Fixed: Pressure, kPa = 100
Property: Solid-liquid equilibrium temperature, K (Liquid); method: VISOBS
Molality, mol/kg of naphthalene	Solid-liquid equilibrium temperature, K	uncertainty
1.61403	282.1	1.01
1.86777	286.2	1.01
2.20252	290.3	1.01
2.65174	294.4	1.01
3.29287	299.5	1.01
4.05679	304.9	1.01
4.82395	309.1	1.01
5.7119	313.2	1.01
6.964	317.4	1.01
8.90711	322.3	1.01
11.24745	326.7	1.01

System: naphthalene + octan-1-ol; phases: Liquid, Crystal
Fixed: Pressure, kPa = 100
Property: Solid-liquid equilibrium temperature, K (Liquid); method: VISOBS
Molality, mol/kg of naphthalene	Solid-liquid equilibrium temperature, K	uncertainty
0.60184	283.3	1.01
0.81031	291.3	1.01
0.96611	296	1.01
1.14051	299.2	1.01
1.30576	303.3	1.01
1.51628	307.4	1.01
1.87147	311.5	1.01
2.51885	317	1.01
3.29332	322.1	1.01
4.08024	326.2	1.01

System: naphthalene + 2-octanone; phases: Liquid, Crystal
Fixed: Pressure, kPa = 100
Property: Solid-liquid equilibrium temperature, K (Liquid); method: VISOBS
Molality, mol/kg of naphthalene	Solid-liquid equilibrium temperature, K	uncertainty
2.13392	280.7	1.01
2.60416	286.1	1.01
3.01822	290.4	1.01
3.50696	294.6	1.01
4.13576	299.2	1.01
4.85411	303.7	1.01
5.74399	308.2	1.01
6.8838	312.3	1.01
8.21926	316.4	1.01
10.03998	320.5	1.01
12.44634	324.8	1.01

System: naphthalene + 4-methylpentan-2-one; phases: Liquid, Crystal
Fixed: Pressure, kPa = 100
Property: Solid-liquid equilibrium temperature, K (Liquid); method: VISOBS
Molality, mol/kg of naphthalene	Solid-liquid equilibrium temperature, K	uncertainty
2.98846	289.3	1.01
3.52178	293.7	1.01
4.37995	299.3	1.01
5.15043	303.4	1.01
6.16132	307.6	1.01
7.52918	312	1.01
9.23646	316.6	1.01
11.31741	320.7	1.01
14.22954	325.1	1.01
18.09267	329.4	1.01

System: naphthalene + benzene; phases: Liquid, Crystal
Fixed: Pressure, kPa = 100
Property: Solid-liquid equilibrium temperature, K (Liquid); method: VISOBS
Molality, mol/kg of naphthalene	Solid-liquid equilibrium temperature, K	uncertainty
3.31333	285.7	1.01
3.90306	290.3	1.01
4.52262	294.5	1.01
5.43333	299.5	1.01
6.36683	303.7	1.01
7.4257	307.9	1.01
8.8264	312.1	1.01
11.04207	317.4	1.01
13.18871	321.5	1.01
16.32354	325.8	1.01
