Measured thermophysical data. Liquid-Liquid Phase Equilibria for Quinary, Quaternary, and Ternary Systems {Water + Furfural + Acetic Acid + Cyclopentyl Methyl Ether + CaCl2}: Measurement, Effect of Salt ,and Comparative Study
Source: J. Chem. Eng. Data, 2018, 10.1021/acs.jced.8b00222
Compound 1: water, H2O, InChI=1S/H2O/h1H2, purity 99.9%
Compound 2: 2-furaldehyde, C5H4O2, InChI=1S/C5H4O2/c6-4-5-2-1-3-7-5/h1-4H, purity 99%
Compound 3: methoxycyclopentane, C6H12O, InChI=1S/C6H12O/c1-7-6-4-2-3-5-6/h6H,2-5H2,1H3, purity 99.9%
Compound 4: acetic acid, C2H4O2, InChI=1S/C2H4O2/c1-2(3)4/h1H3,(H,3,4), purity 99.8%

System: water; phases: Liquid
Property: Mass density, kg/m3 (Liquid); method: Vibrating tube method
Temperature, K	Pressure, kPa	Mass density, kg/m3	uncertainty
293.15	101.325	998.25	2

System: water; phases: Liquid
Property: Refractive index (Na D-line) (Liquid); method: Standard Abbe refractometry
Temperature, K	Pressure, kPa	Refractive index (Na D-line)	uncertainty
293.15	101.325	1.3334	0.0005

System: 2-furaldehyde; phases: Liquid
Property: Mass density, kg/m3 (Liquid); method: Pycnometric method
Temperature, K	Pressure, kPa	Mass density, kg/m3	uncertainty
293.15	101.325	1159.16	2.24

System: 2-furaldehyde; phases: Liquid
Property: Refractive index (Na D-line) (Liquid); method: Standard Abbe refractometry
Temperature, K	Pressure, kPa	Refractive index (Na D-line)	uncertainty
293.15	101.325	1.5259	0.0008

System: methoxycyclopentane; phases: Liquid
Property: Mass density, kg/m3 (Liquid); method: Pycnometric method
Temperature, K	Pressure, kPa	Mass density, kg/m3	uncertainty
293.15	101.325	860.13	2.14

System: methoxycyclopentane; phases: Liquid
Property: Refractive index (Na D-line) (Liquid); method: Standard Abbe refractometry
Temperature, K	Pressure, kPa	Refractive index (Na D-line)	uncertainty
293.15	101.325	1.4187	0.0008

System: acetic acid; phases: Liquid
Property: Mass density, kg/m3 (Liquid); method: Pycnometric method
Temperature, K	Pressure, kPa	Mass density, kg/m3	uncertainty
293.15	101.325	1048.93	2.2

System: acetic acid; phases: Liquid
Property: Refractive index (Na D-line) (Liquid); method: Standard Abbe refractometry
Temperature, K	Pressure, kPa	Refractive index (Na D-line)	uncertainty
293.15	101.325	1.3717	0.0008

System: water + 2-furaldehyde + methoxycyclopentane; phases: Liquid mixture 2, Liquid mixture 1
Fixed: Pressure, kPa = 100.25
Property: Mass fraction of water (Liquid mixture 2); method: Chromatography
Property: Mass fraction of 2-furaldehyde (Liquid mixture 1); method: Chromatography
Property: Mass fraction of water (Liquid mixture 1); method: Chromatography
Temperature, K	Mass fraction of 2-furaldehyde	Mass fraction of water	uncertainty	Mass fraction of 2-furaldehyde	uncertainty	Mass fraction of water	uncertainty
293.15	0.11	0.0081	0.004	0.0166	0.0058	0.9752	
293.15	0.1923	0.0103	0.004	0.0244	0.0059	0.9678	
293.15	0.2729	0.0126	0.004	0.0296	0.0059	0.9631	
293.15	0.3658	0.0153	0.004	0.0359	0.0057	0.9571	
293.15	0.4262	0.0172	0.004	0.0395	0.0057	0.9532	
293.15	0.4812	0.0201	0.004	0.0419	0.0056	0.9509	
293.15	0.5432	0.0222	0.004	0.0461	0.0057	0.9469	
293.15	0.6315	0.0259	0.004	0.0505	0.0055	0.9422	
303.15	0.1093	0.0093	0.004	0.0169	0.0058	0.9753	
303.15	0.1895	0.0123	0.004	0.0251	0.0059	0.9677	
303.15	0.2688	0.0146	0.004	0.0305	0.0058	0.9626	
303.15	0.3587	0.0181	0.004	0.0365	0.0058	0.9569	
303.15	0.4179	0.0203	0.004	0.0405	0.0058	0.9532	
303.15	0.4705	0.0236	0.004	0.0433	0.0057	0.9505	
303.15	0.5327	0.0262	0.004	0.0472	0.0057	0.9467	
303.15	0.6201	0.0306	0.004	0.0521	0.0056	0.9416	
313.15	0.1081	0.0103	0.004	0.0177	0.0058	0.9752	
313.15	0.1876	0.0135	0.004	0.0256	0.0057	0.9676	
313.15	0.2661	0.0161	0.004	0.0311	0.0057	0.9621	
313.15	0.3551	0.0199	0.004	0.0372	0.0058	0.9562	
313.15	0.4137	0.0223	0.004	0.0413	0.0058	0.9523	
313.15	0.4658	0.0256	0.004	0.0441	0.0059	0.9495	
313.15	0.5235	0.0288	0.004	0.0481	0.0059	0.9458	
313.15	0.6123	0.0337	0.004	0.0539	0.0061	0.9408	
