Measured thermophysical data. Equilibrium Study in the KNO3 + NH4NO3 + H2O System at Temperatures from 293.15 to 323.15 K
Source: J. Chem. Eng. Data, 2019, 10.1021/acs.jced.8b01052
Compound 1: ammonium nitrate, H4N2O3, InChI=1S/NO3.H3N/c2-1(3)4;/h;1H3/q-1;/p+1, purity 99%
Compound 2: potassium nitrate, KNO3, InChI=1S/K.NO3/c;2-1(3)4/q+1;-1, purity 99%
Compound 3: water, H2O, InChI=1S/H2O/h1H2, purity 99.9%

System: potassium nitrate + ammonium nitrate + water; phases: Liquid, Crystal
Fixed: Pressure, kPa = 100
Property: Molality, mol/kg of ammonium nitrate (Liquid); method: chemical analysis and spectroscopy
Temperature, K	Molality, mol/kg of potassium nitrate	Molality, mol/kg of ammonium nitrate	uncertainty
293.15	0	22.7	0.91
293.15	0.628	22.67	0.91
293.15	1.065	22.61	0.91
293.15	1.786	22.48	0.9
303.15	0	27.81	1.11
303.15	0.804	27.39	1.1
303.15	1.466	27.14	1.09
303.15	2.35	26.71	1.07
303.15	2.938	26.19	1.05
303.15	3.947	25.75	1.04
303.15	4.911	24.95	1.01
303.15	6.335	24.27	0.98
313.15	0	34.37	1.38
313.15	0.676	33.96	1.36
313.15	1.478	33.25	1.33
313.15	2.132	32.78	1.32
313.15	2.886	32.13	1.29
313.15	3.73	31.39	1.26
313.15	4.736	30.48	1.22
313.15	5.999	30.51	1.23
313.15	8	28.67	1.19
323.15	0	39.56	1.58
323.15	1.518	38.09	1.53
323.15	3.132	37.91	1.52
323.15	4.718	36.15	1.46
323.15	6.409	35.33	1.42
323.15	8.069	34.52	1.4
323.15	9.951	32.73	1.36

System: potassium nitrate + ammonium nitrate + water; phases: Liquid, Crystal
Fixed: Pressure, kPa = 100
Property: Molality, mol/kg of ammonium nitrate (Liquid); method: chemical analysis and spectroscopy
Temperature, K	Molality, mol/kg of potassium nitrate	Molality, mol/kg of ammonium nitrate	uncertainty
293.15	4.917	19.3	2.11
293.15	4.614	16.27	1.84
293.15	4.199	12.6	1.45
293.15	3.542	7.544	1.953
293.15	3.405	5.679	4.52
293.15	3.226	3.915	3.449
293.15	3.204	3.328	10.844
293.15	3.148	2.615	1.246
293.15	3.105	1.728	2.565
293.15	3.195	0.88	1.575
293.15	3.333	0	0.838
303.15	6.335	24.27	2.68
303.15	5.422	15.28	3.95
303.15	4.649	7.574	0.732
303.15	4.431	4.974	2.514
303.15	4.326	3.416	10.695
303.15	4.341	2.489	10.731
303.15	4.406	0.812	2.977
303.15	4.464	0.389	24.809
303.15	5.189	0	1.195
313.15	8	28.67	3.88
313.15	7.351	21.16	3.38
313.15	7.026	17.9	8.29
313.15	6.512	10.68	2.67
313.15	6.252	6.095	20.258
313.15	6.191	1.154	20.059
313.15	6.615	0	5.945
323.15	9.951	32.73	4.78
323.15	8.801	19.45	6.85
323.15	8.358	15.59	48.71
323.15	7.917	10.46	6.97
323.15	7.719	7.066	7.716
323.15	7.54	0.992	10.235
323.15	7.723	0.292	7.843
323.15	8.465	0	6.947

System: potassium nitrate + ammonium nitrate + water; phases: Liquid, Crystal
Fixed: Temperature, K = 293.15
Fixed: Pressure, kPa = 100
Property: Molality, mol/kg of ammonium nitrate (Liquid); method: chemical analysis and spectroscopy
Molality, mol/kg of potassium nitrate	Molality, mol/kg of ammonium nitrate	uncertainty
1.786	22.48	0.9
3.165	21.49	0.87
3.854	20.36	0.84
4.917	19.3	0.8

System: potassium nitrate + ammonium nitrate + water; phases: Liquid
Fixed: Pressure, kPa = 100
Property: Mass density, kg/m3 (Liquid); method: Pycnometric method
Temperature, K	Molality, mol/kg of potassium nitrate	Molality, mol/kg of ammonium nitrate	Mass density, kg/m3	uncertainty
293.15	0	22.7	1307	8
293.15	0.628	22.67	1314	8
293.15	1.065	22.61	1322	9
293.15	1.786	22.48	1338	8
293.15	3.165	21.49	1348	7
293.15	3.854	20.36	1352	6
293.15	4.917	19.3	1367	6
293.15	4.614	16.27	1350	6
293.15	4.199	12.6	1322	6
293.15	3.542	7.544	1277	8
293.15	3.405	5.679	1250	9
293.15	3.226	3.915	1222	9
293.15	3.204	3.328	1212	10
293.15	3.148	2.615	1198	6
293.15	3.105	1.728	1188	5
293.15	3.195	0.88	1170	11
293.15	3.333	0	1157	13
303.15	0	27.81	1324	8
303.15	0.804	27.39	1333	8
303.15	1.466	27.14	1346	8
303.15	2.35	26.71	1356	8
303.15	2.938	26.19	1367	7
303.15	3.947	25.75	1377	6
303.15	4.911	24.95	1384	4
303.15	6.335	24.27	1380	4
303.15	5.422	15.28	1366	7
303.15	4.649	7.574	1302	5
303.15	4.431	4.974	1288	12
303.15	4.326	3.416	1257	6
303.15	4.341	2.489	1242	5
303.15	4.406	0.812	1220	4
303.15	4.464	0.389	1216	4
303.15	5.189	0	1217	4
313.15	0	34.37	1338	7
313.15	0.676	33.96	1352	15
313.15	1.478	33.25	1355	7
313.15	2.132	32.78	1363	8
313.15	2.886	32.13	1371	5
313.15	3.73	31.39	1382	5
313.15	4.736	30.48	1395	4
313.15	5.999	30.51	1392	4
313.15	8	28.67	1406	5
313.15	7.351	21.16	1421	7
313.15	7.026	17.9	1405	8
313.15	6.512	10.68	1399	12
313.15	6.252	6.095	1353	8
313.15	6.191	1.154	1324	28
313.15	6.615	0	1269	29
323.15	0	39.56	1356	7
323.15	1.518	38.09	1372	6
323.15	3.132	37.91	1385	14
323.15	4.718	36.15	1400	5
323.15	6.409	35.33	1413	5
323.15	8.069	34.52	1432	6
323.15	9.951	32.73	1436	4
323.15	8.801	19.45	1433	6
323.15	8.358	15.59	1424	6
323.15	7.917	10.46	1410	13
323.15	7.719	7.066	1383	6
323.15	7.54	0.992	1368	11
323.15	7.723	0.292	1340	5
323.15	8.465	0	1332	5

System: ammonium nitrate + water; phases: Liquid, Crystal
Fixed: Pressure, kPa = 100
Property: Molality, mol/kg of ammonium nitrate (Liquid); method: chemical analysis and spectroscopy
Temperature, K	Molality, mol/kg of ammonium nitrate	uncertainty
293.15	22.7	0.91
303.15	27.81	1.11
313.15	34.37	1.38
323.15	39.56	1.58

System: ammonium nitrate + water; phases: Liquid
Fixed: Pressure, kPa = 100
Property: Mass density, kg/m3 (Liquid); method: Pycnometric method
Temperature, K	Molality, mol/kg of ammonium nitrate	Mass density, kg/m3	uncertainty
293.15	22.7	1307	13
303.15	27.81	1324	5
313.15	34.37	1338	6
323.15	39.56	1356	22

System: potassium nitrate + water; phases: Liquid, Crystal
Fixed: Pressure, kPa = 100
Property: Solid-liquid equilibrium temperature, K (Liquid); method: chemical analysis and spectroscopy
Molality, mol/kg of potassium nitrate	Solid-liquid equilibrium temperature, K	uncertainty
3.333	293.15	0.82
5.189	303.15	1.32
6.615	313.15	1.65
8.465	323.15	1.87

System: potassium nitrate + water; phases: Liquid
Fixed: Pressure, kPa = 100
Property: Mass density, kg/m3 (Liquid); method: Pycnometric method
Temperature, K	Molality, mol/kg of potassium nitrate	Mass density, kg/m3	uncertainty
293.15	3.333	1157	4
303.15	5.189	1217	6
313.15	6.615	1269	8
323.15	8.465	1332	6
