Measured thermophysical data. Ternary Liquid Liquid Equilibrium for Mixtures of Water + (+-)alpha-Phenylethylamine + n-Hexane at T = 298.2, 318.2, and 333.2 K
Source: J. Chem. Eng. Data, 2017, 10.1021/acs.jced.6b01064
Compound 1: hexane, C6H14, InChI=1S/C6H14/c1-3-5-6-4-2/h3-6H2,1-2H3, purity 99.7%
Compound 2: water, H2O, InChI=1S/H2O/h1H2, purity 99.8%
Compound 3: 1-phenylethanamine, C8H11N, InChI=1S/C8H11N/c1-7(9)8-5-3-2-4-6-8/h2-7H,9H2,1H3, purity 98.5%

System: hexane + 1-phenylethanamine + water; phases: Liquid mixture 1, Liquid mixture 2
Fixed: Pressure, kPa = 100
Property: Mass fraction of hexane (Liquid mixture 1); method: Titration method
Mass fraction of 1-phenylethanamine	Temperature, K	Mass fraction of hexane	uncertainty
0.0908	332.2	0.9092	0.0652
0.2238	332.2	0.7668	0.0299
0.2427	332.2	0.7483	0.03
0.2711	332.2	0.7182	0.0303
0.3168	332.2	0.6693	0.0313
0.3673	332.2	0.6116	0.0327
0.4204	332.2	0.5482	0.0333
0.4678	332.2	0.4943	0.0345
0.5365	332.2	0.4071	0.0338
0.5885	332.2	0.3453	0.034
0.6419	332.2	0.2719	0.0344
0.6987	332.2	0.1988	0.0342
0.7378	332.2	0.1413	0.0561
0.7787	332.2	0.0784	0.0368
0.7917	332.2	0.0406	0.0271
0.7816	332.2	0.0343	0.0343
0.7662	332.2	0.0174	0.0174
0.00104	332.2	0	
0.0009	332.2	0.0005	0.0005
0.0008	332.2	0.0004	0.0004
0.001	332.2	0.0009	0.0009
0.0002	332.2	0.0006	0.0006
0.0003	332.2	0.0009	0.0009
0	332.2	0.0001	0.0001
0.632	318.2	0	
0.7089	318.2	0.0216	0.0216
0.7379	318.2	0.0806	0.0448
0.71	318.2	0.1775	0.0409
0.2981	318.2	0.6938	0.0425
0.6421	318.2	0.2752	0.0536
0.564	318.2	0.376	0.0667
0.4805	318.2	0.4805	0.0345
0.3917	318.2	0.5875	0.0329
0.0006	318.2	0.0007	0.0007
0.0005	318.2	0	
0	318.2	0.9999	0.0001
0	318.2	0.0001	0.0001
0.6706	298.2	0.0523	0.0358
0.6603	298.2	0.0078	0.0078
0.5676	298.2	0	
0.7529	298.2	0.1226	0.0597
0.7314	298.2	0.1829	0.0307
0.6621	298.2	0.2838	0.0336
0.5759	298.2	0.3839	0.0593
0.4864	298.2	0.4864	0.0708
0.3931	298.2	0.5896	0.032
0.2978	298.2	0.6949	0.0307
0.1996	298.2	0.7983	0.0294
0.1299	298.2	0.8687	0.0892
0	298.2	0.9999	0.0001
0	298.2	0.0007	0.0007
0.0001	298.2	0.0007	0.0007
0.0002	298.2	0	

System: hexane + 1-phenylethanamine + water; phases: Liquid mixture 3, Liquid mixture 2
Fixed: Pressure, kPa = 100
Property: Mass fraction of 1-phenylethanamine (Liquid mixture 3); method: Chromatography
Property: Mass fraction of hexane (Liquid mixture 2); method: Chromatography
Property: Mass fraction of 1-phenylethanamine (Liquid mixture 2); method: Chromatography
Temperature, K	Mass fraction of hexane	Mass fraction of 1-phenylethanamine	uncertainty	Mass fraction of hexane	uncertainty	Mass fraction of 1-phenylethanamine	uncertainty
318.2	0.0006	0.0003	0.0001	0.7925	0.0285	0.2068	
318.2	0.0005	0.0002	0.0001	0.8342	0.0285	0.1656	
298.2	0.0002	0.0001	0.0001	0.9059	0.02	0.0938	

System: hexane + 1-phenylethanamine + water; phases: Liquid mixture 3, Liquid mixture 1
Fixed: Temperature, K = 333.2
Fixed: Pressure, kPa = 100
Property: Mass fraction of hexane (Liquid mixture 3); method: Chromatography
Property: Mass fraction of hexane (Liquid mixture 1); method: Chromatography
Property: Mass fraction of 1-phenylethanamine (Liquid mixture 1); method: Chromatography
Mass fraction of 1-phenylethanamine	Mass fraction of hexane	uncertainty	Mass fraction of hexane	uncertainty	Mass fraction of 1-phenylethanamine	uncertainty
0.0007	0.001	0.0001	0.812	0.0289	0.1812	
0.0021	0.0022	0.0001	0.7194	0.0293	0.2702	
0.0011	0.0016	0.0001	0.5991	0.0298	0.3815	
0.0008	0.0012	0.0001	0.4849	0.0322	0.4837	
0.0006	0.0009	0.0001	0.3002	0.0325	0.6222	
0.0005	0.0008	0.0001	0.2362	0.033	0.6805	
0.0005	0.0008	0.0001	0.227	0.0329	0.6863	
0.0004	0.0007	0.0001	0.1718	0.0378	0.719	
0.0003	0.0007	0.0001	0.114	0.0407	0.7567	
0.0003	0.0005	0.0001	0.0265	0.0265	0.7697	
0.0003	0.0006	0.0001	0.0597	0.0483	0.7814	
0.0003	0.0005	0.0001	0.0445	0.0445	0.7872	
0.0003	0.0005	0.0001	0.0593	0.0376	0.7903	

System: hexane + 1-phenylethanamine + water; phases: Liquid mixture 1, Liquid mixture 2
Fixed: Pressure, kPa = 100
Property: Mass fraction of hexane (Liquid mixture 1); method: Chromatography
Property: Mass fraction of hexane (Liquid mixture 2); method: Chromatography
Property: Mass fraction of 1-phenylethanamine (Liquid mixture 2); method: Chromatography
Temperature, K	Mass fraction of 1-phenylethanamine	Mass fraction of hexane	uncertainty	Mass fraction of hexane	uncertainty	Mass fraction of 1-phenylethanamine	uncertainty
318.2	0.7301	0.1139	0.02	0.4027	0.0202	0.5412	
298.2	0.7017	0.0809	0.02	0.5008	0.0307	0.4743	
298.2	0.7147	0.0924	0.02	0.3195	0.0306	0.6318	
298.2	0.7017	0.0809	0.02	0.4703	0.0309	0.5004	

System: hexane + 1-phenylethanamine + water; phases: Liquid mixture 1, Liquid mixture 3
Fixed: Pressure, kPa = 100
Property: Mass fraction of hexane (Liquid mixture 1); method: Chromatography
Property: Mass fraction of hexane (Liquid mixture 3); method: Chromatography
Property: Mass fraction of 1-phenylethanamine (Liquid mixture 3); method: Chromatography
Temperature, K	Mass fraction of 1-phenylethanamine	Mass fraction of hexane	uncertainty	Mass fraction of hexane	uncertainty	Mass fraction of 1-phenylethanamine	uncertainty
318.2	0.7248	0.0407	0.02	0.0002	0.0002	0.0005	
298.2	0.6579	0.0203	0.02	0.0002	0.0002	0.0002	

System: hexane + 1-phenylethanamine + water; phases: Liquid mixture 1, Liquid mixture 3, Liquid mixture 2
Fixed: Pressure, kPa = 100
Property: Mass fraction of 1-phenylethanamine (Liquid mixture 1); method: Chromatography
Property: Mass fraction of hexane (Liquid mixture 1); method: Chromatography
Property: Mass fraction of 1-phenylethanamine (Liquid mixture 2); method: Chromatography
Property: Mass fraction of hexane (Liquid mixture 2); method: Chromatography
Property: Mass fraction of 1-phenylethanamine (Liquid mixture 3); method: Chromatography
Property: Mass fraction of hexane (Liquid mixture 3); method: Chromatography
Temperature, K	Mass fraction of 1-phenylethanamine	uncertainty	Mass fraction of hexane	uncertainty	Mass fraction of 1-phenylethanamine	uncertainty	Mass fraction of hexane	uncertainty	Mass fraction of 1-phenylethanamine	uncertainty	Mass fraction of hexane	uncertainty
318.2	0.7379	0.0201	0.0806	0.02	0.2981	0.0202	0.6938	0.0202	0.0006	0.0006	0.0007	0.0007
298.2	0.6706	0.0201	0.0523	0.02	0.1299	0.0201	0.8687	0.0201	0.0001	0.0001	0.0007	0.0007

System: hexane + 1-phenylethanamine; phases: Liquid mixture 1, Liquid mixture 2
Property: Mass fraction of hexane (Liquid mixture 1); method: Titration method
Temperature, K	Pressure, kPa	Mass fraction of hexane	uncertainty
332.2	100	0.9092	0.02

System: 1-phenylethanamine + water; phases: Liquid mixture 1, Liquid mixture 2
Fixed: Pressure, kPa = 100
Property: Mass fraction of 1-phenylethanamine (Liquid mixture 1); method: Titration method
Temperature, K	Mass fraction of 1-phenylethanamine	uncertainty
332.2	0.00104	0.00104
318.2	0.632	0.0209
318.2	0.0005	0.0005
298.2	0.5676	0.0209
298.2	0.0002	0.0002

System: hexane + water; phases: Liquid mixture 1, Liquid mixture 2
Fixed: Pressure, kPa = 100
Property: Mass fraction of hexane (Liquid mixture 1); method: Titration method
Temperature, K	Mass fraction of hexane	uncertainty
332.2	0.0001	0.0001
318.2	0.9999	0.0001
318.2	0.0001	0.0001
298.2	0.9999	0.0001
298.2	0.0007	0.0007
