Measured thermophysical data. Experiment and Application of the Solid-Liquid Phase Equilibrium for Ternary 2-Nitro-p-phenylenediamine + Ethyl Acetate + Isopropanol and 2-Nitro-p-phenylenediamine + 4-Nitro-o-phenylenediamine + N-Methyl-2-pyrrolidone systems
Source: J. Chem. Eng. Data, 2019, 10.1021/acs.jced.8b00952
Compound 1: 4-nitro-1,2-benzenediamine, C6H7N3O2, InChI=1S/C6H7N3O2/c7-5-2-1-4(9(10)11)3-6(5)8/h1-3H,7-8H2, purity 99.3%
Compound 2: 2-nitro-1,4-benzenediamine, C6H7N3O2, InChI=1S/C6H7N3O2/c7-4-1-2-5(8)6(3-4)9(10)11/h1-3H,7-8H2, purity 99.6%
Compound 3: N-methylpyrrolidone, C5H9NO, InChI=1S/C5H9NO/c1-6-4-2-3-5(6)7/h2-4H2,1H3, purity 99.5%
Compound 4: ethyl acetate, C4H8O2, InChI=1S/C4H8O2/c1-3-6-4(2)5/h3H2,1-2H3, purity 99.6%
Compound 5: propan-2-ol, C3H8O, InChI=1S/C3H8O/c1-3(2)4/h3-4H,1-2H3, purity 99.7%
Compound 6: benzoic acid, C7H6O2, InChI=1S/C7H6O2/c8-7(9)6-4-2-1-3-5-6/h1-5H,(H,8,9), purity 99.7%
Compound 7: toluene, C7H8, InChI=1S/C7H8/c1-7-5-3-2-4-6-7/h2-6H,1H3, purity 99.5%

System: benzoic acid + toluene; phases: Liquid, Crystal
Fixed: Pressure, kPa = 101.2
Property: Mole fraction of benzoic acid (Liquid); method: Chromatography
Temperature, K	Mole fraction of benzoic acid	uncertainty
293.15	0.0619	0.0022
303.15	0.0889	0.0032
313.15	0.128	0.0046
323.15	0.177	0.0064

System: 2-nitro-1,4-benzenediamine + N-methylpyrrolidone; phases: Liquid, Crystal
Fixed: Pressure, kPa = 101.2
Property: Mole fraction of 2-nitro-1,4-benzenediamine (Liquid); method: Chromatography
Temperature, K	Mole fraction of 2-nitro-1,4-benzenediamine	uncertainty
298.15	0.0539	0.00385
308.15	0.0831	0.00594
318.15	0.1242	0.00887

System: 4-nitro-1,2-benzenediamine + N-methylpyrrolidone; phases: Liquid, Crystal
Fixed: Pressure, kPa = 101.2
Property: Mole fraction of 4-nitro-1,2-benzenediamine (Liquid); method: Chromatography
Temperature, K	Mole fraction of 4-nitro-1,2-benzenediamine	uncertainty
283.15	0.1103	0.0079
288.15	0.1177	0.0084
293.15	0.127	0.0091
298.15	0.1387	0.0099
303.15	0.1507	0.0108
308.15	0.1636	0.0117
313.15	0.1774	0.0127
318.15	0.1932	0.0138

System: 4-nitro-1,2-benzenediamine + N-methylpyrrolidone; phases: Liquid, Crystal
Fixed: Pressure, kPa = 101.2
Property: Mass fraction of 4-nitro-1,2-benzenediamine (Liquid); method: Chromatography
Temperature, K	Mass fraction of 4-nitro-1,2-benzenediamine	uncertainty
298.15	0.1992	0.0106
308.15	0.232	0.0124
318.15	0.2701	0.0144

System: 2-nitro-1,4-benzenediamine + ethyl acetate + propan-2-ol; phases: Liquid, Crystal
Fixed: Pressure, kPa = 101.2
Property: Mole fraction of 2-nitro-1,4-benzenediamine (Liquid); method: Chromatography
Solvent: Mass fraction of ethyl acetate	Temperature, K	Mole fraction of 2-nitro-1,4-benzenediamine	uncertainty
0.1	278.15	0.005356	0.000493
0.1	283.15	0.005808	0.000534
0.1	288.15	0.006239	0.000574
0.1	293.15	0.006689	0.000616
0.1	298.15	0.007219	0.000664
0.1	303.15	0.007743	0.000713
0.1	308.15	0.008297	0.000764
0.1	313.15	0.008867	0.000816
0.1	318.15	0.00948	0.000872
0.2	278.15	0.007474	0.000688
0.2	283.15	0.008015	0.000738
0.2	288.15	0.00863	0.000794
0.2	293.15	0.009313	0.000857
0.2	298.15	0.01004	0.00092
0.2	303.15	0.01078	0.00099
0.2	308.15	0.01163	0.00107
0.2	313.15	0.01261	0.00116
0.2	318.15	0.0137	0.00126
0.3	278.15	0.008731	0.000803
0.3	283.15	0.009616	0.000885
0.3	288.15	0.01055	0.00097
0.3	293.15	0.01156	0.00106
0.3	298.15	0.01278	0.00118
0.3	303.15	0.0141	0.0013
0.3	308.15	0.01547	0.00142
0.3	313.15	0.01691	0.00156
0.3	318.15	0.01853	0.00171
0.4	278.15	0.01025	0.00094
0.4	283.15	0.01142	0.00105
0.4	288.15	0.01275	0.00117
0.4	293.15	0.01421	0.00131
0.4	298.15	0.01578	0.00145
0.4	303.15	0.0175	0.00161
0.4	308.15	0.01931	0.00178
0.4	313.15	0.02116	0.00195
0.4	318.15	0.02311	0.00213
0.5	278.15	0.01132	0.00104
0.5	283.15	0.01296	0.00119
0.5	288.15	0.01461	0.00134
0.5	293.15	0.01639	0.00151
0.5	298.15	0.01864	0.00172
0.5	303.15	0.02072	0.00191
0.5	308.15	0.02301	0.00212
0.5	313.15	0.02553	0.00235
0.5	318.15	0.0281	0.00259
0.6	278.15	0.01208	0.00111
0.6	283.15	0.01393	0.00128
0.6	288.15	0.01613	0.00148
0.6	293.15	0.01855	0.00171
0.6	298.15	0.02132	0.00196
0.6	303.15	0.02398	0.00221
0.6	308.15	0.02691	0.00248
0.6	313.15	0.03019	0.00278
0.6	318.15	0.03351	0.00308
0.7	278.15	0.01365	0.00126
0.7	283.15	0.01579	0.00145
0.7	288.15	0.01825	0.00168
0.7	293.15	0.0212	0.00195
0.7	298.15	0.02441	0.00225
0.7	303.15	0.02775	0.00255
0.7	308.15	0.03149	0.0029
0.7	313.15	0.03572	0.00329
0.7	318.15	0.03999	0.00368
0.8	278.15	0.0146	0.00134
0.8	283.15	0.01747	0.00161
0.8	288.15	0.02045	0.00188
0.8	293.15	0.02365	0.00218
0.8	298.15	0.02747	0.00253
0.8	303.15	0.0321	0.00295
0.8	308.15	0.03682	0.00339
0.8	313.15	0.04223	0.00389
0.8	318.15	0.04768	0.00439
0.9	278.15	0.01549	0.00143
0.9	283.15	0.01866	0.00172
0.9	288.15	0.02224	0.00205
0.9	293.15	0.02666	0.00245
0.9	298.15	0.03149	0.0029
0.9	303.15	0.03663	0.00337
0.9	308.15	0.04248	0.00391
0.9	313.15	0.04926	0.00453
0.9	318.15	0.05611	0.00516
0	278.15	0.003427	0.000315
1	278.15	0.01702	0.00157

System: 2-nitro-1,4-benzenediamine + 4-nitro-1,2-benzenediamine + N-methylpyrrolidone; phases: Liquid, Crystal
Fixed: Pressure, kPa = 101.2
Property: Mass fraction of 4-nitro-1,2-benzenediamine (Liquid); method: Chromatography
Mass fraction of 2-nitro-1,4-benzenediamine	Temperature, K	Mass fraction of 4-nitro-1,2-benzenediamine	uncertainty
0	298.15	0.1992	0.0106
0.009887	298.15	0.1956	0.0105
0.02013	298.15	0.191	0.0102
0.02779	298.15	0.1895	0.0101
0.04627	298.15	0.186	0.0099
0.06259	298.15	0.1839	0.0098
0	308.15	0.232	0.0124
0.02265	308.15	0.224	0.012
0.03867	308.15	0.2182	0.0117
0.05404	308.15	0.214	0.0115
0.0803	308.15	0.206	0.0111
0.089	308.15	0.2042	0.011
0	318.15	0.2701	0.0144
0.02745	318.15	0.253	0.0135
0.04582	318.15	0.2441	0.0131
0.05704	318.15	0.2389	0.0128
0.0758	318.15	0.233	0.0125
0.1121	318.15	0.2282	0.0122

System: 2-nitro-1,4-benzenediamine + 4-nitro-1,2-benzenediamine + N-methylpyrrolidone; phases: Liquid, Crystal
Fixed: Pressure, kPa = 101.2
Property: Mass fraction of 4-nitro-1,2-benzenediamine (Liquid); method: Chromatography
Mass fraction of 2-nitro-1,4-benzenediamine	Temperature, K	Mass fraction of 4-nitro-1,2-benzenediamine	uncertainty
0.06259	298.15	0.1839	0.0373
0.06621	298.15	0.1449	0.0376
0.06852	298.15	0.1224	0.0341
0.0726	298.15	0.08618	0.04177
0.07617	298.15	0.04017	0.04017
0.089	308.15	0.2042	0.1051
0.0911	308.15	0.158	0.0649
0.0948	308.15	0.1244	0.0349
0.1004	308.15	0.09404	0.02854
0.1089	308.15	0.05041	0.02998
0.1121	318.15	0.2282	0.0382
0.1215	318.15	0.1713	0.0363
0.1295	318.15	0.1344	0.0311
0.1346	318.15	0.1144	0.0235
0.1465	318.15	0.07991	0.02308

System: 2-nitro-1,4-benzenediamine + propan-2-ol; phases: Liquid, Crystal
Property: Mole fraction of 2-nitro-1,4-benzenediamine (Liquid); method: Chromatography
Temperature, K	Pressure, kPa	Mole fraction of 2-nitro-1,4-benzenediamine	uncertainty
278.15	101.2	0.003427	0.000315

System: 2-nitro-1,4-benzenediamine + ethyl acetate; phases: Liquid, Crystal
Property: Mole fraction of 2-nitro-1,4-benzenediamine (Liquid); method: Chromatography
Temperature, K	Pressure, kPa	Mole fraction of 2-nitro-1,4-benzenediamine	uncertainty
278.15	101.2	0.01702	0.00157
