Measured thermophysical data. Solubilities and Thermodynamic Properties of CO2 in Four Azole-Based Deep Eutectic Solvents
Source: J. Chem. Eng. Data, 2018, 10.1021/acs.jced.8b00098
Compound 1: carbon dioxide, CO2, InChI=1S/CO2/c2-1-3, purity 99.95%
Compound 2: acetylcholine chloride, C7H16ClNO2, InChI=1S/C7H16NO2.ClH/c1-7(9)10-6-5-8(2,3)4;/h5-6H2,1-4H3;1H/q+1;/p-1, purity 99%
Compound 3: 1H-imidazole, C3H4N2, InChI=1S/C3H4N2/c1-2-5-3-4-1/h1-3H,(H,4,5), purity 99%
Compound 4: 1H-1,2,4-triazole, C2H3N3, InChI=1S/C2H3N3/c1-3-2-5-4-1/h1-2H,(H,3,4,5), purity 99.5%

System: carbon dioxide + acetylcholine chloride + 1H-1,2,4-triazole; phases: Liquid, Gas
Fixed: Solvent: Amount ratio of component to other component of binary solvent of acetylcholine chloride = 1
Property: Molality, mol/kg of carbon dioxide (Liquid); method: phase equilibration
Temperature, K	Pressure, kPa	Molality, mol/kg of carbon dioxide	uncertainty
303.15	63.7	0.0266	0.0012
303.15	107.6	0.0424	0.0018
303.15	192.5	0.0746	0.0031
303.15	288.3	0.1097	0.0045
303.15	382.9	0.1443	0.0059
303.15	496.8	0.1859	0.0075
303.15	587.7	0.219	0.0089
313.15	56.3	0.0188	0.0008
313.15	101.6	0.0321	0.0014
313.15	219.6	0.0696	0.0028
313.15	366.6	0.1158	0.0047
313.15	444.5	0.1407	0.0057
313.15	523.9	0.1658	0.0067
313.15	572.2	0.1834	0.0075
323.15	58.4	0.0153	0.0007
323.15	147.7	0.0386	0.0016
323.15	251.5	0.0614	0.0025
323.15	340.7	0.0858	0.0035
323.15	439	0.1101	0.0045
323.15	542	0.1376	0.0056
323.15	593.2	0.1508	0.0061
333.15	56.3	0.0131	0.0006
333.15	116.3	0.0273	0.0011
333.15	186.5	0.0408	0.0017
333.15	290.9	0.0632	0.0026
333.15	396.1	0.0845	0.0034
333.15	487.4	0.1065	0.0043
333.15	581	0.1276	0.0052

System: carbon dioxide + acetylcholine chloride + 1H-imidazole; phases: Liquid, Gas
Property: Molality, mol/kg of carbon dioxide (Liquid); method: phase equilibration
Temperature, K	Pressure, kPa	Solvent: Amount ratio of component to other component of binary solvent of acetylcholine chloride	Molality, mol/kg of carbon dioxide	uncertainty
303.15	30.2	0.6667	0.0068	0.0007
303.15	86.7	0.6667	0.0376	0.0016
303.15	198.4	0.6667	0.0854	0.0035
303.15	300.3	0.6667	0.1226	0.005
303.15	388.1	0.6667	0.1558	0.0064
303.15	486.8	0.6667	0.1939	0.0079
303.15	572.6	0.6667	0.2282	0.0093
313.15	65.21	0.6667	0.0233	0.001
313.15	147.7	0.6667	0.0461	0.0019
313.15	201.4	0.6667	0.0622	0.0026
313.15	295.9	0.6667	0.0917	0.0037
313.15	427.6	0.6667	0.1381	0.0056
313.15	547.6	0.6667	0.1806	0.0073
323.15	29.8	0.6667	0.0131	0.0006
323.15	111	0.6667	0.0354	0.0015
323.15	148.6	0.6667	0.0433	0.0018
323.15	238.5	0.6667	0.0669	0.0027
323.15	329.1	0.6667	0.09	0.0037
323.15	425.7	0.6667	0.1161	0.0047
323.15	529.8	0.6667	0.1433	0.0058
323.15	589.2	0.6667	0.1584	0.0064
333.15	33	0.6667	0.0096	0.0005
333.15	92.3	0.6667	0.0217	0.0009
333.15	141.7	0.6667	0.032	0.0013
333.15	235.4	0.6667	0.0533	0.0022
333.15	346.1	0.6667	0.077	0.0031
333.15	441.6	0.6667	0.0983	0.004
333.15	536.3	0.6667	0.1199	0.0049
333.15	594	0.6667	0.1338	0.0054
303.15	26.6	0.5	0.0183	0.0009
303.15	57.2	0.5	0.0326	0.0015
303.15	93.2	0.5	0.0473	0.002
303.15	141.4	0.5	0.0707	0.0029
303.15	240	0.5	0.1175	0.0048
303.15	331.4	0.5	0.1571	0.0064
303.15	422	0.5	0.1964	0.008
303.15	525.7	0.5	0.2385	0.0097
303.15	578.5	0.5	0.2607	0.0106
313.15	29.6	0.5	0.009	0.0006
313.15	59.9	0.5	0.0228	0.0011
313.15	100	0.5	0.0367	0.0015
313.15	149.8	0.5	0.0546	0.0023
313.15	242.3	0.5	0.0871	0.0036
313.15	335.8	0.5	0.1194	0.0049
313.15	426.5	0.5	0.1518	0.0062
313.15	529.8	0.5	0.1872	0.0076
313.15	588.2	0.5	0.2079	0.0085
323.15	27.5	0.5	0.0082	0.0005
323.15	88.3	0.5	0.0284	0.0012
323.15	142.6	0.5	0.0445	0.0018
323.15	232.3	0.5	0.0706	0.0029
323.15	331.6	0.5	0.099	0.004
323.15	424.1	0.5	0.1267	0.0052
323.15	526.8	0.5	0.1584	0.0064
323.15	587.1	0.5	0.1747	0.0071
333.15	30.6	0.5	0.0086	0.0004
333.15	60.2	0.5	0.0157	0.0007
333.15	99	0.5	0.0253	0.0011
333.15	148.6	0.5	0.0373	0.0015
333.15	235.9	0.5	0.0584	0.0024
333.15	339.2	0.5	0.0847	0.0035
333.15	429.2	0.5	0.1074	0.0044
333.15	536.5	0.5	0.1339	0.0054
333.15	589.9	0.5	0.1476	0.006
303.15	52.8	0.3333	0.0276	0.0014
303.15	91	0.3333	0.0561	0.0024
303.15	200.3	0.3333	0.109	0.0045
303.15	291.4	0.3333	0.158	0.0064
303.15	385.4	0.3333	0.1981	0.0081
303.15	478.6	0.3333	0.249	0.0101
303.15	567.6	0.3333	0.294	0.012
313.15	29.2	0.3333	0.0249	0.0011
313.15	59.9	0.3333	0.0349	0.0015
313.15	87.8	0.3333	0.05	0.0021
313.15	140.2	0.3333	0.071	0.0029
313.15	233.6	0.3333	0.1091	0.0045
313.15	337	0.3333	0.1465	0.006
313.15	424.5	0.3333	0.1825	0.0074
313.15	522.8	0.3333	0.2198	0.0089
313.15	583.6	0.3333	0.2432	0.0099
323.15	26.3	0.3333	0.0144	0.0008
323.15	58	0.3333	0.0293	0.0013
323.15	87.5	0.3333	0.0379	0.0016
323.15	139.1	0.3333	0.0566	0.0023
323.15	238.7	0.3333	0.0862	0.0035
323.15	337.1	0.3333	0.1197	0.0049
323.15	426	0.3333	0.1483	0.006
323.15	531	0.3333	0.1815	0.0074
323.15	587.3	0.3333	0.2007	0.0082
333.15	28.6	0.3333	0.0084	0.0005
333.15	58.3	0.3333	0.0169	0.0008
333.15	87.1	0.3333	0.0243	0.0011
333.15	146.1	0.3333	0.0401	0.0017
333.15	239.7	0.3333	0.0646	0.0027
333.15	354.3	0.3333	0.0956	0.0039
333.15	432.2	0.3333	0.1172	0.0048
333.15	525.8	0.3333	0.1424	0.0058
333.15	591.6	0.3333	0.16	0.0065
