Measured thermophysical data. Liquid-Liquid Equilibria of Lactic Acid/Water Solutions in Tri-iso-octylamine/Dodecane/1-Dodecanol at 306.1, 310.1, and 316.1 K. Experimental Data and Prediction
Source: J. Chem. Eng. Data, 2019, 10.1021/acs.jced.8b00794
Compound 1: dodecane, C12H26, InChI=1S/C12H26/c1-3-5-7-9-11-12-10-8-6-4-2/h3-12H2,1-2H3, purity 99%
Compound 2: dodecan-1-ol, C12H26O, InChI=1S/C12H26O/c1-2-3-4-5-6-7-8-9-10-11-12-13/h13H,2-12H2,1H3, purity 98%
Compound 3: (S)-2-hydroxypropanoic acid, C3H6O3, InChI=1S/C3H6O3/c1-2(4)3(5)6/h2,4H,1H3,(H,5,6)/t2-/m0/s1, purity 90%
Compound 4: water, H2O, InChI=1S/H2O/h1H2, purity 99.9%

System: dodecane + (S)-2-hydroxypropanoic acid + water; phases: Liquid mixture 1, Liquid mixture 2
Fixed: Pressure, kPa = 100
Property: Mass fraction of water (Liquid mixture 1); method: Titration method
Temperature, K	Amount concentration (molarity), mol/dm3 of (S)-2-hydroxypropanoic acid	Mass fraction of water	uncertainty
306.1	0.011	0.0013	0.0001
310.1	0.011	0.0015	0.0001
316.1	0.011	0.0015	0.0001
306.1	0.411	0.0015	0.0001
310.1	0.411	0.0016	0.0001
316.1	0.411	0.0015	0.0001

System: dodecane + (S)-2-hydroxypropanoic acid + water; phases: Liquid mixture 1, Liquid mixture 2
Fixed: Pressure, kPa = 77.9
Property: Mole fraction of (S)-2-hydroxypropanoic acid (Liquid mixture 1); method: Chromatography
Temperature, K	Mole fraction of (S)-2-hydroxypropanoic acid	Mole fraction of (S)-2-hydroxypropanoic acid	uncertainty
310.15	2e-06	0.0026	0.0004
310.15	2.6e-05	0.0467	0.0062
310.15	3.5e-05	0.0867	0.0143
316.15	9.9e-06	0.0025	0.0014
316.15	3.6e-05	0.0465	0.0054
316.15	7.2e-05	0.0863	0.0094

System: dodecan-1-ol + (S)-2-hydroxypropanoic acid + water; phases: Liquid mixture 1, Liquid mixture 2
Fixed: Pressure, kPa = 100
Property: Mass fraction of water (Liquid mixture 1); method: Titration method
Temperature, K	Amount concentration (molarity), mol/dm3 of (S)-2-hydroxypropanoic acid	Mass fraction of water	uncertainty
306.1	0.011	0.0322	0.0017
310.1	0.011	0.036	0.0027
316.1	0.011	0.0148	0.0043
306.1	0.411	0.037	0.0016
310.1	0.411	0.0394	0.002
316.1	0.411	0.0275	0.0026

System: dodecan-1-ol + (S)-2-hydroxypropanoic acid + water; phases: Liquid mixture 1, Liquid mixture 2
Fixed: Pressure, kPa = 77.9
Property: Mole fraction of (S)-2-hydroxypropanoic acid (Liquid mixture 1); method: Chromatography
Temperature, K	Mole fraction of (S)-2-hydroxypropanoic acid	Mole fraction of (S)-2-hydroxypropanoic acid	uncertainty
306.15	1.3e-05	0.0018	0.0002
306.15	0.00025	0.0305	0.0034
306.15	0.00059	0.0598	0.0063
310.15	1.3e-05	0.0018	0.0002
310.15	0.00024	0.0306	0.0032
310.15	0.00057	0.06	0.0063
316.15	1.5e-05	0.0018	0.0002
316.15	0.00031	0.03	0.0036
316.15	0.00068	0.0592	0.0067
