Measured thermophysical data. Compressed Liquid Densities of Binary Mixtures of 1-Butanol and Diethylene Glycol Dimethyl Ether from (283 to 363) K at Pressures up to 100 MPa
Source: J. Chem. Eng. Data, 2017, 10.1021/acs.jced.7b00176
Compound 1: butan-1-ol, C4H10O, InChI=1S/C4H10O/c1-2-3-4-5/h5H,2-4H2,1H3, purity 99.5%
Compound 2: 2,5,8-trioxanonane, C6H14O3, InChI=1S/C6H14O3/c1-7-3-5-9-6-4-8-2/h3-6H2,1-2H3, purity 99.5%

System: butan-1-ol; phases: Liquid
Property: Mass density, kg/m3 (Liquid); method: Vibrating tube method
Temperature, K	Pressure, kPa	Mass density, kg/m3	uncertainty
283.63	80	817.19	0.61
283.64	1000	817.88	0.62
283.63	5000	820.7	0.62
283.66	10000	824.01	0.63
283.66	20000	830.39	0.65
283.65	30000	836.43	0.67
283.64	40000	842.03	0.69
283.64	60000	852.39	0.74
283.65	80000	861.72	0.79
283.64	100000	870.33	0.83
303.45	100	801.81	0.62
303.45	1000	802.54	0.62
303.46	5000	805.65	0.62
303.46	10000	809.35	0.63
303.47	20000	816.29	0.65
303.47	30000	822.84	0.68
303.47	40000	828.87	0.7
303.47	60000	839.95	0.76
303.48	80010	849.82	0.81
303.48	100000	858.94	0.86
323.26	100	786.36	0.62
323.25	1000	787.19	0.62
323.26	5000	790.63	0.63
323.27	10000	794.68	0.64
323.27	20000	802.33	0.66
323.27	30000	809.41	0.68
323.28	40000	816	0.71
323.28	60000	827.77	0.78
323.28	80000	838.31	0.84
323.28	100000	847.65	0.89
343.03	100	769.54	0.62
343.03	1000	770.45	0.62
343.04	5000	774.32	0.63
343.04	10000	778.88	0.64
343.05	20000	787.37	0.66
343.05	30000	795.06	0.69
343.05	40000	802.13	0.73
343.05	60000	814.83	0.8
343.05	80000	826.08	0.86
343.05	100000	836.2	0.92
362.68	100	752.67	0.62
362.68	1000	753.64	0.62
362.69	5000	758.03	0.63
362.69	10000	763.16	0.64
362.69	20000	772.56	0.67
362.68	30000	781.04	0.7
362.7	40000	788.67	0.74
362.7	60000	802.36	0.82
362.71	80000	814.44	0.89
362.71	100000	825.18	0.96

System: 2,5,8-trioxanonane; phases: Liquid
Property: Mass density, kg/m3 (Liquid); method: Vibrating tube method
Temperature, K	Pressure, kPa	Mass density, kg/m3	uncertainty
283.69	100	953.48	0.61
283.69	1000	954.15	0.61
283.69	5000	956.94	0.61
283.68	10000	960.29	0.61
283.68	20000	966.68	0.61
283.68	30000	972.8	0.61
283.67	40000	978.49	0.61
283.67	60000	989.12	0.62
283.67	80000	998.75	0.61
283.67	100000	1007.71	0.62
303.47	100	933.69	0.61
303.47	1000	934.43	0.61
303.48	5000	937.55	0.61
303.48	10000	941.31	0.61
322.62	30000	938.31	0.62
322.62	40000	945.16	0.62
322.62	60000	957.74	0.64
322.62	80000	968.98	0.63
322.62	100000	979.2	0.63
342.49	100	894.03	0.61
342.49	1000	894.98	0.61
342.49	5000	898.96	0.61
342.5	10000	903.66	0.62
342.5	20000	912.57	0.62
342.51	30000	920.68	0.63
342.51	40000	928.18	0.63
342.51	60000	941.77	0.65
342.51	80000	953.82	0.65
303.49	20000	948.42	0.63
303.49	30000	955.17	0.63
303.49	40000	961.41	0.63
303.49	60000	973.02	0.62
303.5	80000	983.33	0.62
303.5	100000	992.97	0.62
322.62	100	914.41	0.61
322.62	1000	915.3	0.61
322.62	5000	918.77	0.61
322.62	10000	923.02	0.61
322.62	20000	930.99	0.62
342.52	100000	964.68	0.64
362.51	100	873.45	0.61
362.51	1000	874.46	0.61
362.51	5000	879.02	0.62
362.52	10000	884.41	0.62
362.52	20000	894.33	0.63
362.52	30000	903.29	0.64
362.52	40000	911.53	0.64
362.53	60000	926.3	0.66
362.53	80000	939.26	0.67
362.53	100000	950.89	0.66

System: butan-1-ol + 2,5,8-trioxanonane; phases: Liquid
Property: Mass density, kg/m3 (Liquid); method: Vibrating tube method
Temperature, K	Pressure, kPa	Mole fraction of butan-1-ol	Mass density, kg/m3	uncertainty
283.69	100	0	953.48	0.61
283.69	1000	0	954.15	0.61
283.69	5000	0	956.94	0.61
283.68	10000	0	960.29	0.61
283.68	20000	0	966.68	0.61
283.68	30000	0	972.8	0.61
283.67	40000	0	978.49	0.61
283.67	60000	0	989.12	0.62
283.67	80000	0	998.75	0.61
283.67	100000	0	1007.71	0.62
303.47	100	0	933.69	0.61
303.47	1000	0	934.43	0.61
303.48	5000	0	937.55	0.61
303.48	10000	0	941.31	0.61
322.62	30000	0	938.31	0.62
322.62	40000	0	945.16	0.62
322.62	60000	0	957.74	0.64
322.62	80000	0	968.98	0.63
322.62	100000	0	979.2	0.63
342.49	100	0	894.03	0.61
342.49	1000	0	894.98	0.61
342.49	5000	0	898.96	0.61
342.5	10000	0	903.66	0.62
342.5	20000	0	912.57	0.62
342.51	30000	0	920.68	0.63
342.51	40000	0	928.18	0.63
342.51	60000	0	941.77	0.65
342.51	80000	0	953.82	0.65
303.49	20000	0	948.42	0.63
303.49	30000	0	955.17	0.63
303.49	40000	0	961.41	0.63
303.49	60000	0	973.02	0.62
303.5	80000	0	983.33	0.62
303.5	100000	0	992.97	0.62
322.62	100	0	914.41	0.61
322.62	1000	0	915.3	0.61
322.62	5000	0	918.77	0.61
322.62	10000	0	923.02	0.61
322.62	20000	0	930.99	0.62
342.52	100000	0	964.68	0.64
362.51	100	0	873.45	0.61
362.51	1000	0	874.46	0.61
362.51	5000	0	879.02	0.62
362.52	10000	0	884.41	0.62
362.52	20000	0	894.33	0.63
362.52	30000	0	903.29	0.64
362.52	40000	0	911.53	0.64
362.53	60000	0	926.3	0.66
362.53	80000	0	939.26	0.67
362.53	100000	0	950.89	0.66
283.65	100	0.3116	922.56	0.64
283.66	1000	0.3116	923.21	0.62
283.65	5000	0.3116	926	0.61
283.66	10000	0.3116	929.34	0.61
283.65	20000	0.3116	935.72	0.62
283.65	30000	0.3116	941.81	0.62
283.65	40000	0.3116	947.48	0.62
283.65	60000	0.3116	958.06	0.63
283.65	80000	0.3116	967.62	0.63
283.65	100000	0.3116	976.51	0.63
303.57	100	0.3116	903.4	0.62
303.57	1000	0.3116	904.14	0.61
303.57	5000	0.3116	907.29	0.61
303.56	10000	0.3116	911.05	0.62
303.56	20000	0.3116	918.17	0.62
303.56	30000	0.3116	924.8	0.63
303.56	40000	0.3116	931.1	0.63
303.56	60000	0.3116	942.54	0.65
303.56	80000	0.3116	952.82	0.65
303.55	100000	0.3116	962.26	0.64
323.27	100	0.3116	884.02	0.62
323.28	1000	0.3116	884.84	0.61
323.27	5000	0.3116	888.39	0.62
323.28	10000	0.3116	892.57	0.62
323.28	20000	0.3116	900.61	0.63
323.28	30000	0.3116	907.85	0.63
323.28	40000	0.3116	914.76	0.64
323.29	60000	0.3116	927.16	0.66
323.28	80000	0.3116	938.32	0.66
323.29	100000	0.3116	948.49	0.66
343.04	100	0.3116	864.74	0.63
343.04	1000	0.3116	865.7	0.61
343.05	5000	0.3116	869.66	0.62
343.05	10000	0.3116	874.4	0.62
343.06	20000	0.3116	883.26	0.63
343.06	30000	0.3116	891.31	0.64
343.06	40000	0.3116	898.79	0.65
343.06	60000	0.3116	912.24	0.68
343.07	80000	0.3116	924.13	0.68
343.08	100000	0.3116	934.89	0.69
362.71	100	0.3116	845.12	0.64
362.71	1000	0.3116	846.14	0.61
362.7	5000	0.3116	850.69	0.62
362.71	10000	0.3116	856.03	0.63
362.71	20000	0.3116	865.91	0.64
362.71	30000	0.3116	874.79	0.65
362.72	40000	0.3116	882.96	0.66
362.72	60000	0.3116	897.55	0.69
362.72	80000	0.3116	910.38	0.71
362.72	100000	0.3116	921.84	0.71
283.59	100	0.5469	893.58	0.63
283.59	1000	0.5469	894.22	0.62
283.58	5000	0.5469	897.03	0.62
283.58	10000	0.5469	900.4	0.62
283.58	20000	0.5469	906.81	0.63
283.58	30000	0.5469	912.81	0.63
283.56	40000	0.5469	918.49	0.64
283.56	60000	0.5469	928.98	0.66
283.56	80000	0.5469	938.59	0.66
283.55	100000	0.5469	947.45	0.67
303.51	100	0.5469	875.36	0.62
303.51	1000	0.5469	876.1	0.61
303.52	5000	0.5469	879.25	0.62
303.51	10000	0.5469	883.02	0.62
303.51	20000	0.5469	890.1	0.63
303.51	30000	0.5469	896.73	0.64
303.5	40000	0.5469	902.93	0.65
303.5	60000	0.5469	914.29	0.67
303.5	80000	0.5469	924.52	0.68
303.5	100000	0.5469	933.93	0.69
323.22	100	0.5469	857.29	0.63
323.22	1000	0.5469	858.13	0.61
323.22	5000	0.5469	861.6	0.62
323.23	10000	0.5469	865.79	0.62
323.23	20000	0.5469	873.63	0.64
323.23	30000	0.5469	880.92	0.65
323.23	40000	0.5469	887.67	0.66
323.23	60000	0.5469	899.96	0.69
323.24	80000	0.5469	911.05	0.7
323.24	100000	0.5469	920.96	0.71
342.99	100	0.5469	838.63	0.63
343	1000	0.5469	839.58	0.61
343	5000	0.5469	843.51	0.62
343	10000	0.5469	848.2	0.63
343.01	20000	0.5469	856.98	0.64
343.01	30000	0.5469	864.93	0.66
343.01	40000	0.5469	872.29	0.67
343.01	60000	0.5469	885.57	0.71
343.01	80000	0.5469	897.36	0.73
343.02	100000	0.5469	907.94	0.74
362.67	100	0.5469	819.52	0.64
362.68	1000	0.5469	820.52	0.62
362.68	5000	0.5469	825.03	0.63
362.68	10000	0.5469	830.34	0.63
362.69	20000	0.5469	840.09	0.65
362.69	30000	0.5469	848.85	0.66
362.69	40000	0.5469	856.9	0.68
362.69	60000	0.5469	871.26	0.72
362.69	80000	0.5469	883.92	0.75
362.7	100000	0.5469	895.2	0.77
283.62	100	0.7308	866.59	0.62
283.62	1000	0.7308	867.24	0.61
283.62	5000	0.7308	870.06	0.62
283.62	10000	0.7308	873.45	0.62
283.62	20000	0.7308	879.83	0.63
283.62	30000	0.7308	885.83	0.64
283.62	40000	0.7308	891.47	0.65
283.62	60000	0.7308	901.94	0.68
283.62	80000	0.7308	911.46	0.7
283.62	100000	0.7308	920.22	0.71
303.51	100	0.7308	849.42	0.62
303.5	1000	0.7308	850.15	0.61
323.26	30000	0.7308	855.36	0.66
323.27	40000	0.7308	862.01	0.68
323.27	60000	0.7308	874.24	0.72
323.27	80000	0.7308	885.1	0.75
323.27	100000	0.7308	894.94	0.77
343.02	100	0.7308	814.17	0.62
343.03	1000	0.7308	815.11	0.62
343.03	5000	0.7308	819.06	0.62
343.04	10000	0.7308	823.7	0.63
343.04	20000	0.7308	832.39	0.65
343.04	30000	0.7308	840.28	0.67
343.04	40000	0.7308	847.55	0.69
303.5	5000	0.7308	853.29	0.62
303.5	10000	0.7308	857.01	0.62
303.5	20000	0.7308	864.06	0.64
303.5	30000	0.7308	870.65	0.65
303.5	40000	0.7308	876.8	0.66
303.5	60000	0.7308	888.07	0.7
303.5	79990	0.7308	898.18	0.72
303.5	100000	0.7308	907.47	0.74
323.26	100	0.7308	831.9	0.62
323.26	1000	0.7308	832.7	0.61
323.26	5000	0.7308	836.19	0.62
323.26	10000	0.7308	840.37	0.63
323.26	20000	0.7308	848.19	0.64
343.04	60000	0.7308	860.64	0.74
343.04	80000	0.7308	872.22	0.77
343.04	100000	0.7308	882.62	0.8
362.71	100	0.7308	795.72	0.63
362.72	1000	0.7308	796.73	0.62
362.72	5000	0.7308	801.19	0.63
362.72	10000	0.7308	806.44	0.64
362.72	20000	0.7308	816.08	0.65
362.72	30000	0.7308	824.74	0.68
362.72	40000	0.7308	832.66	0.7
362.73	60000	0.7308	846.83	0.76
362.73	80000	0.7308	859.23	0.8
362.73	100000	0.7308	870.28	0.83
283.67	100	0.8787	841.93	0.63
283.67	1000	0.8787	842.59	0.62
283.67	5000	0.8787	845.4	0.62
283.67	10000	0.8787	848.78	0.62
283.66	20000	0.8787	855.19	0.64
283.66	30000	0.8787	861.18	0.65
283.66	40000	0.8787	866.81	0.67
283.66	60000	0.8787	877.23	0.71
283.66	80000	0.8787	886.62	0.74
283.66	100000	0.8787	895.34	0.77
303.49	100	0.8787	825.51	0.62
303.5	1000	0.8787	826.23	0.61
303.49	5000	0.8787	829.38	0.62
303.48	10000	0.8787	833.12	0.63
303.48	20000	0.8787	840.14	0.64
303.47	30000	0.8787	846.7	0.66
303.48	40000	0.8787	852.78	0.68
303.47	60000	0.8787	863.93	0.73
303.46	80000	0.8787	874	0.76
303.46	100000	0.8787	883.23	0.8
323.29	100	0.8787	809.04	0.63
323.29	1000	0.8787	809.88	0.61
323.29	5000	0.8787	813.32	0.62
323.29	10000	0.8787	817.49	0.63
323.29	30000	0.8787	832.38	0.67
323.29	40000	0.8787	838.96	0.69
323.29	60000	0.8787	850.97	0.75
323.29	80000	0.8787	861.63	0.79
323.29	100010	0.8787	871.34	0.83
343.04	100	0.8787	792.02	0.63
343.04	1000	0.8787	792.98	0.62
343.04	5000	0.8787	796.88	0.63
343.04	10000	0.8787	801.5	0.63
343.04	20000	0.8787	810.09	0.66
343.04	30000	0.8787	817.86	0.68
343.04	40000	0.8787	825.03	0.71
343.04	60000	0.8787	837.96	0.77
343.03	80000	0.8787	849.39	0.81
343.04	100000	0.8787	859.63	0.86
362.69	100	0.8787	774.25	0.64
362.69	1000	0.8787	775.26	0.62
362.69	5000	0.8787	779.7	0.63
362.7	10000	0.8787	784.88	0.64
362.7	20000	0.8787	794.41	0.66
362.7	30000	0.8787	802.93	0.69
362.7	40000	0.8787	810.75	0.72
362.7	60000	0.8787	824.68	0.79
362.71	80000	0.8787	836.92	0.84
323.29	20000	0.8787	825.25	0.65
362.71	100000	0.8787	847.79	0.89
283.63	80	1	817.19	0.61
283.64	1000	1	817.88	0.62
283.63	5000	1	820.7	0.62
283.66	10000	1	824.01	0.63
283.66	20000	1	830.39	0.65
283.65	30000	1	836.43	0.67
283.64	40000	1	842.03	0.69
283.64	60000	1	852.39	0.74
283.65	80000	1	861.72	0.79
283.64	100000	1	870.33	0.83
303.45	100	1	801.81	0.62
303.45	1000	1	802.54	0.62
303.46	5000	1	805.65	0.62
303.46	10000	1	809.35	0.63
303.47	20000	1	816.29	0.65
303.47	30000	1	822.84	0.68
303.47	40000	1	828.87	0.7
303.47	60000	1	839.95	0.76
303.48	80010	1	849.82	0.81
303.48	100000	1	858.94	0.86
323.26	100	1	786.36	0.62
323.25	1000	1	787.19	0.62
323.26	5000	1	790.63	0.63
323.27	10000	1	794.68	0.64
323.27	20000	1	802.33	0.66
323.27	30000	1	809.41	0.68
323.28	40000	1	816	0.71
323.28	60000	1	827.77	0.78
323.28	80000	1	838.31	0.84
323.28	100000	1	847.65	0.89
343.03	100	1	769.54	0.62
343.03	1000	1	770.45	0.62
343.04	5000	1	774.32	0.63
343.04	10000	1	778.88	0.64
343.05	20000	1	787.37	0.66
343.05	30000	1	795.06	0.69
343.05	40000	1	802.13	0.73
343.05	60000	1	814.83	0.8
343.05	80000	1	826.08	0.86
343.05	100000	1	836.2	0.92
362.68	100	1	752.67	0.62
362.68	1000	1	753.64	0.62
362.69	5000	1	758.03	0.63
362.69	10000	1	763.16	0.64
362.69	20000	1	772.56	0.67
362.68	30000	1	781.04	0.7
362.7	40000	1	788.67	0.74
362.7	60000	1	802.36	0.82
362.71	80000	1	814.44	0.89
362.71	100000	1	825.18	0.96
