Measured thermophysical data. Excess Molar Volumes, Excess Molar Isentropic Compressibilities, Viscosity Deviations, and Activation Parameters for 1-Ethyl-3-methyl-imidazolium Trifluoro-methanesulfonate + Dimethyl Sulfoxide and/or Acetonitrile at T = 298.15 to 323.15 K and P = 0.1 MPa
Source: J. Chem. Eng. Data, 2018, 10.1021/acs.jced.7b00429
Compound 1: 1-ethyl-3-methylimidazolium trifluoromethanesulfonate, C7H11F3N2O3S, InChI=1S/C6H11N2.CHF3O3S/c1-3-8-5-4-7(2)6-8;2-1(3,4)8(5,6)7/h4-6H,3H2,1-2H3;(H,5,6,7)/q+1;/p-1, purity 98%
Compound 2: dimethyl sulfoxide, C2H6OS, InChI=1S/C2H6OS/c1-4(2)3/h1-2H3, purity 99%
Compound 3: acetonitrile, C2H3N, InChI=1S/C2H3N/c1-2-3/h1H3, purity 99%

System: 1-ethyl-3-methylimidazolium trifluoromethanesulfonate; phases: Liquid
Fixed: Pressure, kPa = 100
Property: Mass density, kg/m3 (Liquid); method: Vibrating tube method
Temperature, K	Mass density, kg/m3	uncertainty
298.15	1379.91	2.54
303.15	1375.71	2.53
308.15	1371.51	2.53
313.15	1367.36	2.52
318.15	1363.21	2.52
323.15	1359.07	2.51

System: 1-ethyl-3-methylimidazolium trifluoromethanesulfonate; phases: Liquid
Fixed: Pressure, kPa = 100
Property: Viscosity, Pa*s (Liquid); method: Falling or rolling sphere viscometry
Temperature, K	Viscosity, Pa*s	uncertainty
298.15	0.04567	0.01371
303.15	0.03831	0.0115
308.15	0.03238	0.00972
313.15	0.02768	0.00831
318.15	0.02386	0.00716
323.15	0.02075	0.00623

System: 1-ethyl-3-methylimidazolium trifluoromethanesulfonate; phases: Liquid
Fixed: Pressure, kPa = 100
Fixed: Frequency, MHz = 3
Property: Speed of sound, m/s (Liquid); method: Single path-length method
Temperature, K	Speed of sound, m/s	uncertainty
298.15	1436.02	10.2
303.15	1425.43	10.2
308.15	1414.34	10.2
313.15	1402.98	10.2
318.15	1392.73	10.2
323.15	1381.66	10.2

System: acetonitrile; phases: Liquid
Fixed: Pressure, kPa = 100
Property: Mass density, kg/m3 (Liquid); method: Vibrating tube method
Temperature, K	Mass density, kg/m3	uncertainty
298.15	776.71	2.01
303.15	771.29	2.01
308.15	765.83	2.01
313.15	760.34	2.01
318.15	754.82	2.01
323.15	749.25	2.01

System: acetonitrile; phases: Liquid
Fixed: Pressure, kPa = 100
Property: Viscosity, Pa*s (Liquid); method: Falling or rolling sphere viscometry
Temperature, K	Viscosity, Pa*s	uncertainty
298.15	0.00034	0.0001
303.15	0.00032	0.0001
308.15	0.00031	9e-05
313.15	0.0003	9e-05
318.15	0.00029	9e-05
323.15	0.00028	8e-05

System: acetonitrile; phases: Liquid
Fixed: Pressure, kPa = 100
Fixed: Frequency, MHz = 3
Property: Speed of sound, m/s (Liquid); method: Single path-length method
Temperature, K	Speed of sound, m/s	uncertainty
298.15	1278.53	10.05
303.15	1258.37	10.05
308.15	1238.17	10.05
313.15	1218.03	10.05
318.15	1197.87	10.05
323.15	1177.76	10.05

System: 1-ethyl-3-methylimidazolium trifluoromethanesulfonate + dimethyl sulfoxide; phases: Liquid
Fixed: Pressure, kPa = 100
Property: Mass density, kg/m3 (Liquid); method: Vibrating tube method
Temperature, K	Mole fraction of 1-ethyl-3-methylimidazolium trifluoromethanesulfonate	Mass density, kg/m3	uncertainty
298.15	0.1068	1168.75	2.05
303.15	0.1068	1164	2.05
308.15	0.1068	1159.28	2.05
313.15	0.1068	1154.49	2.05
318.15	0.1068	1149.74	2.05
323.15	0.1068	1144.99	2.04
303.15	0.2015	1211.78	2.07
298.15	0.2015	1216.25	2.07
308.15	0.2015	1207.5	2.07
313.15	0.2015	1203.23	2.06
318.15	0.2015	1198.95	2.06
323.15	0.2015	1194.68	2.06
303.15	0.3077	1252.35	2.09
308.15	0.3077	1248.17	2.09
298.15	0.3077	1256.63	2.1
313.15	0.3077	1243.91	2.09
318.15	0.3077	1239.74	2.09
323.15	0.3077	1235.66	2.09
308.15	0.4023	1276.4	2.12
303.15	0.4023	1280.52	2.13
313.15	0.4023	1272.21	2.12
298.15	0.4023	1284.76	2.13
318.15	0.4023	1268.06	2.12
323.15	0.4023	1263.96	2.12
313.15	0.4933	1294.19	2.16
308.15	0.4933	1298.26	2.16
303.15	0.4933	1302.34	2.17
318.15	0.4933	1290.23	2.16
298.15	0.4933	1306.53	2.17
323.15	0.4933	1286.19	2.16
313.15	0.6022	1315.98	2.22
308.15	0.6022	1319.96	2.22
318.15	0.6022	1312.02	2.21
298.15	0.6022	1328.03	2.22
303.15	0.6022	1323.93	2.22
323.15	0.6022	1307.97	2.21
298.15	0.6993	1344	2.29
303.15	0.6993	1339.92	2.28
318.15	0.6993	1327.93	2.27
313.15	0.6993	1331.89	2.28
308.15	0.6993	1335.83	2.28
323.15	0.6993	1323.95	2.27
308.15	0.7929	1349.06	2.35
318.15	0.7929	1341	2.34
298.15	0.7929	1357.15	2.35
303.15	0.7929	1353.08	2.35
313.15	0.7929	1345.04	2.34
323.15	0.7929	1337.02	2.33
298.15	0.9008	1370.28	2.45
308.15	0.9008	1362.09	2.44
303.15	0.9008	1366.19	2.44
313.15	0.9008	1358.06	2.43
318.15	0.9008	1353.95	2.43
323.15	0.9008	1349.9	2.42
318.15	1	1363.21	2.52
303.15	1	1375.71	2.53
298.15	1	1379.91	2.54
313.15	1	1367.36	2.52
308.15	1	1371.51	2.53
323.15	1	1359.07	2.51

System: 1-ethyl-3-methylimidazolium trifluoromethanesulfonate + dimethyl sulfoxide; phases: Liquid
Fixed: Pressure, kPa = 100
Property: Viscosity, Pa*s (Liquid); method: Falling or rolling sphere viscometry
Temperature, K	Mole fraction of 1-ethyl-3-methylimidazolium trifluoromethanesulfonate	Viscosity, Pa*s	uncertainty
298.15	0.1068	0.00365	0.0011
303.15	0.1068	0.00326	0.00098
308.15	0.1068	0.00294	0.00088
313.15	0.1068	0.00266	0.0008
318.15	0.1068	0.00242	0.00073
323.15	0.1068	0.00222	0.00067
303.15	0.2015	0.00472	0.00142
298.15	0.2015	0.00535	0.00161
308.15	0.2015	0.0042	0.00126
313.15	0.2015	0.00376	0.00113
318.15	0.2015	0.00339	0.00102
323.15	0.2015	0.00308	0.00092
303.15	0.3077	0.0069	0.00207
308.15	0.3077	0.00608	0.00183
298.15	0.3077	0.00789	0.00237
313.15	0.3077	0.00542	0.00163
318.15	0.3077	0.00485	0.00146
323.15	0.3077	0.00437	0.00131
308.15	0.4023	0.00891	0.00268
303.15	0.4023	0.0102	0.00306
313.15	0.4023	0.00785	0.00236
298.15	0.4023	0.01182	0.00355
318.15	0.4023	0.00696	0.00209
323.15	0.4023	0.00622	0.00187
313.15	0.4933	0.01052	0.00316
308.15	0.4933	0.01206	0.00362
303.15	0.4933	0.01393	0.00418
318.15	0.4933	0.00926	0.00278
298.15	0.4933	0.01626	0.00488
323.15	0.4933	0.00823	0.00247
313.15	0.6022	0.01347	0.00404
308.15	0.6022	0.01548	0.00465
318.15	0.6022	0.01182	0.00355
298.15	0.6022	0.02105	0.00632
303.15	0.6022	0.01795	0.00539
323.15	0.6022	0.01045	0.00314
298.15	0.6993	0.02612	0.00784
303.15	0.6993	0.02218	0.00666
318.15	0.6993	0.01445	0.00434
313.15	0.6993	0.01652	0.00496
308.15	0.6993	0.01905	0.00572
323.15	0.6993	0.01272	0.00382
308.15	0.7929	0.02308	0.00693
318.15	0.7929	0.01732	0.0052
298.15	0.7929	0.03196	0.0096
303.15	0.7929	0.02703	0.00812
313.15	0.7929	0.01991	0.00598
323.15	0.7929	0.01519	0.00456
298.15	0.9008	0.03888	0.01167
308.15	0.9008	0.02781	0.00835
303.15	0.9008	0.03274	0.00983
313.15	0.9008	0.02388	0.00717
318.15	0.9008	0.02068	0.00621
323.15	0.9008	0.01805	0.00542
318.15	1	0.02386	0.00716
303.15	1	0.03831	0.0115
298.15	1	0.04567	0.01371
313.15	1	0.02768	0.00831
308.15	1	0.03238	0.00972
323.15	1	0.02075	0.00623

System: 1-ethyl-3-methylimidazolium trifluoromethanesulfonate + dimethyl sulfoxide; phases: Liquid
Fixed: Pressure, kPa = 100
Fixed: Frequency, MHz = 3
Property: Speed of sound, m/s (Liquid); method: Single path-length method
Temperature, K	Mole fraction of 1-ethyl-3-methylimidazolium trifluoromethanesulfonate	Speed of sound, m/s	uncertainty
298.15	0.1068	1487.98	10.06
303.15	0.1068	1472.73	10.06
308.15	0.1068	1457.51	10.06
313.15	0.1068	1442.37	10.06
318.15	0.1068	1425.54	10.06
323.15	0.1068	1410.42	10.06
303.15	0.2015	1462.73	10.07
298.15	0.2015	1477.13	10.07
308.15	0.2015	1448.32	10.07
313.15	0.2015	1433.96	10.07
318.15	0.2015	1419.82	10.07
323.15	0.2015	1405.66	10.07
303.15	0.3077	1454.86	10.09
308.15	0.3077	1441.23	10.09
298.15	0.3077	1468.56	10.09
313.15	0.3077	1427.71	10.09
318.15	0.3077	1414.28	10.09
323.15	0.3077	1400.96	10.09
308.15	0.4023	1436.41	10.1
303.15	0.4023	1449.41	10.1
313.15	0.4023	1423.54	10.1
298.15	0.4023	1462.51	10.1
318.15	0.4023	1410.75	10.1
323.15	0.4023	1398.08	10.1
313.15	0.4933	1418.84	10.11
308.15	0.4933	1431.26	10.11
303.15	0.4933	1443.81	10.11
318.15	0.4933	1406.5	10.11
298.15	0.4933	1456.49	10.11
323.15	0.4933	1394.28	10.11
313.15	0.6022	1416.47	10.13
308.15	0.6022	1428.44	10.13
318.15	0.6022	1404.45	10.13
298.15	0.6022	1452.96	10.13
303.15	0.6022	1440.61	10.13
323.15	0.6022	1392.68	10.13
298.15	0.6993	1449.88	10.14
303.15	0.6993	1437.83	10.14
318.15	0.6993	1401.87	10.14
313.15	0.6993	1414	10.14
308.15	0.6993	1425.83	10.14
323.15	0.6993	1390.68	10.14
308.15	0.7929	1422.31	10.16
318.15	0.7929	1399.46	10.16
298.15	0.7929	1445.64	10.16
303.15	0.7929	1433.93	10.16
313.15	0.7929	1410.83	10.16
323.15	0.7929	1388.2	10.16
298.15	0.9008	1441.22	10.18
308.15	0.9008	1418.7	10.18
303.15	0.9008	1430.02	10.18
313.15	0.9008	1407.4	10.18
318.15	0.9008	1396.53	10.18
323.15	0.9008	1385.46	10.18
318.15	1	1392.73	10.2
303.15	1	1425.43	10.2
298.15	1	1436.02	10.2
313.15	1	1402.98	10.2
308.15	1	1414.34	10.2
323.15	1	1381.66	10.2

System: 1-ethyl-3-methylimidazolium trifluoromethanesulfonate + acetonitrile; phases: Liquid
Fixed: Pressure, kPa = 100
Property: Mass density, kg/m3 (Liquid); method: Vibrating tube method
Temperature, K	Mole fraction of 1-ethyl-3-methylimidazolium trifluoromethanesulfonate	Mass density, kg/m3	uncertainty
298.15	0	776.71	2.01
298.15	0.1026	964.8	2.1
298.15	0.2053	1080.98	2.07
298.15	0.3044	1158.48	2.08
298.15	0.3948	1210.19	2.1
298.15	0.498	1256.19	2.15
298.15	0.595	1289.82	2.2
298.15	0.6936	1317.8	2.26
298.15	0.801	1342.54	2.35
298.15	0.9005	1362.36	2.44
298.15	1	1379.91	2.54
303.15	0	771.29	2.01
303.15	0.1026	959.72	2.1
303.15	0.2053	1076.24	2.07
303.15	0.3044	1153.77	2.08
303.15	0.3948	1205.75	2.1
303.15	0.498	1251.68	2.15
303.15	0.595	1285.38	2.2
303.15	0.6936	1313.46	2.26
303.15	0.801	1338.3	2.34
303.15	0.9005	1358.19	2.43
303.15	1	1375.71	2.53
308.15	0	765.83	2.01
308.15	0.1026	954.64	2.1
308.15	0.2053	1071.2	2.07
308.15	0.3044	1149.07	2.08
308.15	0.3948	1200.93	2.1
308.15	0.498	1247.19	2.14
308.15	0.595	1280.97	2.19
308.15	0.6936	1309.13	2.26
308.15	0.801	1334.18	2.34
308.15	0.9005	1354.05	2.43
308.15	1	1371.51	2.53
313.15	0	760.34	2.01
313.15	0.1026	949.54	2.1
313.15	0.2053	1066.32	2.07
313.15	0.3044	1144.37	2.08
313.15	0.3948	1196.39	2.1
313.15	0.498	1242.71	2.14
313.15	0.595	1276.68	2.19
313.15	0.6936	1304.82	2.25
313.15	0.801	1330.05	2.33
313.15	0.9005	1349.89	2.42
313.15	1	1367.36	2.52
318.15	0	754.82	2.01
318.15	0.1026	944.58	2.1
318.15	0.2053	1061.52	2.07
318.15	0.3044	1139.57	2.08
318.15	0.3948	1191.77	2.1
318.15	0.498	1238.2	2.14
318.15	0.595	1272.32	2.19
318.15	0.6936	1300.45	2.25
318.15	0.801	1325.89	2.33
318.15	0.9005	1345.74	2.42
318.15	1	1363.21	2.52
323.15	0	749.25	2.01
323.15	0.1026	939.47	2.11
323.15	0.2053	1056.45	2.07
323.15	0.3044	1134.77	2.07
323.15	0.3948	1187.31	2.1
323.15	0.498	1233.78	2.14
323.15	0.595	1267.96	2.19
323.15	0.6936	1296.17	2.25
323.15	0.801	1321.8	2.32
323.15	0.9005	1341.58	2.41
323.15	1	1359.07	2.51

System: 1-ethyl-3-methylimidazolium trifluoromethanesulfonate + acetonitrile; phases: Liquid
Fixed: Pressure, kPa = 100
Property: Viscosity, Pa*s (Liquid); method: Falling or rolling sphere viscometry
Temperature, K	Mole fraction of 1-ethyl-3-methylimidazolium trifluoromethanesulfonate	Viscosity, Pa*s	uncertainty
298.15	0	0.00034	0.0001
298.15	0.1026	0.00085	0.00026
298.15	0.2053	0.00188	0.00056
298.15	0.3044	0.00299	0.0009
298.15	0.3948	0.00451	0.00135
298.15	0.498	0.00744	0.00223
298.15	0.595	0.0109	0.00327
298.15	0.6936	0.01592	0.00478
298.15	0.801	0.02405	0.00722
298.15	0.9005	0.03372	0.01013
298.15	1	0.04567	0.01371
303.15	0	0.00032	0.0001
303.15	0.1026	0.0008	0.00024
303.15	0.2053	0.00182	0.00055
303.15	0.3044	0.00274	0.00082
303.15	0.3948	0.00413	0.00124
303.15	0.498	0.00664	0.00199
303.15	0.595	0.00946	0.00284
303.15	0.6936	0.0138	0.00414
303.15	0.801	0.02032	0.0061
303.15	0.9005	0.02794	0.00839
303.15	1	0.03831	0.0115
308.15	0	0.00031	9e-05
308.15	0.1026	0.00075	0.00023
308.15	0.2053	0.00165	0.0005
308.15	0.3044	0.00252	0.00076
308.15	0.3948	0.00376	0.00113
308.15	0.498	0.00595	0.00179
308.15	0.595	0.00841	0.00253
308.15	0.6936	0.01208	0.00363
308.15	0.801	0.01754	0.00527
308.15	0.9005	0.02387	0.00717
308.15	1	0.03238	0.00972
313.15	0	0.0003	9e-05
313.15	0.1026	0.00072	0.00022
313.15	0.2053	0.00154	0.00046
313.15	0.3044	0.00234	0.0007
313.15	0.3948	0.00346	0.00104
313.15	0.498	0.00537	0.00161
313.15	0.595	0.00751	0.00226
313.15	0.6936	0.01066	0.0032
313.15	0.801	0.01527	0.00459
313.15	0.9005	0.02058	0.00618
313.15	1	0.02768	0.00831
318.15	0	0.00029	9e-05
318.15	0.1026	0.00068	0.0002
318.15	0.2053	0.00142	0.00043
318.15	0.3044	0.00216	0.00065
318.15	0.3948	0.00317	0.00095
318.15	0.498	0.00487	0.00146
318.15	0.595	0.00675	0.00203
318.15	0.6936	0.00946	0.00284
318.15	0.801	0.01339	0.00402
318.15	0.9005	0.01789	0.00537
318.15	1	0.02386	0.00716
323.15	0	0.00028	8e-05
323.15	0.1026	0.00065	0.0002
323.15	0.2053	0.00138	0.00041
323.15	0.3044	0.00201	0.0006
323.15	0.3948	0.00291	0.00087
323.15	0.498	0.00443	0.00133
323.15	0.595	0.00596	0.00179
323.15	0.6936	0.00827	0.00248
323.15	0.801	0.01166	0.0035
323.15	0.9005	0.01549	0.00465
323.15	1	0.02075	0.00623

System: 1-ethyl-3-methylimidazolium trifluoromethanesulfonate + acetonitrile; phases: Liquid
Fixed: Pressure, kPa = 100
Fixed: Frequency, MHz = 3
Property: Speed of sound, m/s (Liquid); method: Single path-length method
Temperature, K	Mole fraction of 1-ethyl-3-methylimidazolium trifluoromethanesulfonate	Speed of sound, m/s	uncertainty
298.15	0	1278.53	10.05
298.15	0.1026	1309.16	10.06
298.15	0.2053	1337.37	10.07
298.15	0.3044	1360.92	10.09
298.15	0.3948	1377.94	10.1
298.15	0.498	1394.44	10.11
298.15	0.595	1407.97	10.13
298.15	0.6936	1418.61	10.14
298.15	0.801	1427.07	10.16
298.15	0.9005	1432.59	10.18
298.15	1	1436.02	10.2
303.15	0	1258.37	10.05
303.15	0.1026	1292.02	10.06
303.15	0.2053	1321.89	10.07
303.15	0.3044	1346.66	10.09
303.15	0.3948	1364.55	10.1
303.15	0.498	1381.53	10.11
303.15	0.595	1395.54	10.13
303.15	0.6936	1406.6	10.14
303.15	0.801	1415.25	10.16
303.15	0.9005	1421.27	10.18
303.15	1	1425.43	10.2
308.15	0	1238.17	10.05
308.15	0.1026	1274.94	10.06
308.15	0.2053	1306.47	10.07
308.15	0.3044	1332.46	10.09
308.15	0.3948	1351.3	10.1
308.15	0.498	1368.72	10.11
308.15	0.595	1383.24	10.13
308.15	0.6936	1394.68	10.14
308.15	0.801	1403.4	10.16
308.15	0.9005	1409.71	10.18
308.15	1	1414.34	10.2
313.15	0	1218.03	10.05
313.15	0.1026	1257.93	10.06
313.15	0.2053	1291.09	10.07
313.15	0.3044	1318.35	10.09
313.15	0.3948	1338.16	10.1
313.15	0.498	1356.02	10.11
313.15	0.595	1371.1	10.13
313.15	0.6936	1382.94	10.14
313.15	0.801	1391.62	10.16
313.15	0.9005	1398.1	10.18
313.15	1	1402.98	10.2
318.15	0	1197.87	10.05
318.15	0.1026	1241	10.06
318.15	0.2053	1275.83	10.07
318.15	0.3044	1304.33	10.09
318.15	0.3948	1325.08	10.1
318.15	0.498	1343.41	10.11
318.15	0.595	1359.02	10.13
318.15	0.6936	1371.33	10.14
318.15	0.801	1380.18	10.16
318.15	0.9005	1387.13	10.18
318.15	1	1392.73	10.2
323.15	0	1177.76	10.05
323.15	0.1026	1224.13	10.06
323.15	0.2053	1260.68	10.07
323.15	0.3044	1290.45	10.09
323.15	0.3948	1312.18	10.1
323.15	0.498	1330.94	10.11
323.15	0.595	1347.07	10.13
323.15	0.6936	1359.73	10.14
323.15	0.801	1368.57	10.16
323.15	0.9005	1375.71	10.18
323.15	1	1381.66	10.2

System: dimethyl sulfoxide + acetonitrile; phases: Liquid
Fixed: Pressure, kPa = 100
Property: Mass density, kg/m3 (Liquid); method: Vibrating tube method
Temperature, K	Mole fraction of dimethyl sulfoxide	Mass density, kg/m3	uncertainty
298.15	0.0995	820.43	2.02
303.15	0.0995	815.06	2.02
308.15	0.0995	809.67	2.02
313.15	0.0995	804.26	2.02
318.15	0.0995	798.81	2.02
323.15	0.0995	793.34	2.02
303.15	0.2061	857.6	2
298.15	0.2061	862.88	2.02
308.15	0.2061	852.28	2.02
313.15	0.2061	846.95	2.02
318.15	0.2061	841.59	2.02
323.15	0.2061	836.19	2.02
303.15	0.2936	891.05	2.02
308.15	0.2936	885.81	2.02
298.15	0.2936	896.29	2.02
313.15	0.2936	880.52	2.02
318.15	0.2936	875.23	2.02
323.15	0.2936	869.91	2.02
308.15	0.4055	924.82	2.02
303.15	0.4055	929.99	2.02
313.15	0.4055	919.62	2.02
298.15	0.4055	935.15	2.02
318.15	0.4055	914.41	2.02
323.15	0.4055	909.18	2.02
313.15	0.5051	951.43	2.01
308.15	0.5051	956.58	2.01
303.15	0.5051	961.71	2.01
318.15	0.5051	946.27	2.01
298.15	0.5051	966.82	2.01
323.15	0.5051	941.1	2.01
313.15	0.6001	979.59	2.01
308.15	0.6001	984.67	2.01
318.15	0.6001	974.52	2.01
298.15	0.6001	994.77	2.01
303.15	0.6001	989.72	2.01
323.15	0.6001	969.42	2.01
298.15	0.7006	1022.53	2.02
303.15	0.7006	1017.55	2.02
318.15	0.7006	1002.73	2.01
313.15	0.7006	1007.58	2.01
308.15	0.7006	1012.57	2.01
323.15	0.7006	997.71	2.01
308.15	0.8072	1040.36	2.02
318.15	0.8072	1030.38	2.02
298.15	0.8072	1050.32	2.02
303.15	0.8072	1045.34	2.02
313.15	0.8072	1035.36	2.02
323.15	0.8072	1025.37	2.02
298.15	0.8947	1071.95	2.02
308.15	0.8947	1062.01	2.02
303.15	0.8947	1066.98	2.02
313.15	0.8947	1057.03	2.02
318.15	0.8947	1052.04	2.02
323.15	0.8947	1047.05	2.02
318.15	1	1075.6	2.02
303.15	1	1090.62	2.02
298.15	1	1095.62	2.02
313.15	1	1080.6	2.02
308.15	1	1085.61	2.02
323.15	1	1070.66	2.02

System: dimethyl sulfoxide + acetonitrile; phases: Liquid
Fixed: Pressure, kPa = 100
Fixed: Frequency, MHz = 3
Property: Speed of sound, m/s (Liquid); method: Single path-length method
Temperature, K	Mole fraction of dimethyl sulfoxide	Speed of sound, m/s	uncertainty
298.15	0.0995	1299.53	10.05
303.15	0.0995	1280.08	10.05
308.15	0.0995	1260.6	10.05
313.15	0.0995	1241.15	10.05
318.15	0.0995	1221.75	10.05
323.15	0.0995	1202.37	10.05
303.15	0.2061	1303.77	10.05
298.15	0.2061	1322.57	10.05
308.15	0.2061	1284.95	10.05
313.15	0.2061	1266.14	10.05
318.15	0.2061	1247.36	10.05
323.15	0.2061	1228.62	10.05
303.15	0.2936	1327.8	10.05
308.15	0.2936	1309.93	10.05
298.15	0.2936	1346.2	10.05
313.15	0.2936	1290.99	10.05
318.15	0.2936	1272.67	10.05
323.15	0.2936	1254.35	10.05
308.15	0.4055	1336.21	10.05
303.15	0.4055	1354.11	10.05
313.15	0.4055	1318.82	10.05
298.15	0.4055	1372.01	10.05
318.15	0.4055	1300.48	10.05
323.15	0.4055	1282.68	10.05
313.15	0.5051	1342.48	10.05
308.15	0.5051	1359.99	10.05
303.15	0.5051	1377.53	10.05
318.15	0.5051	1325.02	10.05
298.15	0.5051	1395.1	10.05
323.15	0.5051	1307.59	10.05
313.15	0.6001	1364.06	10.05
308.15	0.6001	1381.26	10.05
318.15	0.6001	1346.87	10.05
298.15	0.6001	1415.77	10.05
303.15	0.6001	1398.51	10.05
323.15	0.6001	1329.74	10.05
298.15	0.7006	1439.25	10.05
303.15	0.7006	1422.21	10.05
318.15	0.7006	1371.16	10.05
313.15	0.7006	1388	10.05
308.15	0.7006	1405.15	10.05
323.15	0.7006	1354.25	10.05
308.15	0.8072	1427.02	10.05
318.15	0.8072	1393.45	10.05
298.15	0.8072	1460.77	10.05
303.15	0.8072	1443.88	10.05
313.15	0.8072	1410.29	10.05
323.15	0.8072	1376.76	10.05
298.15	0.8947	1480.86	10.05
308.15	0.8947	1447.24	10.05
303.15	0.8947	1464.04	10.05
313.15	0.8947	1431	10.05
318.15	0.8947	1413.84	10.05
323.15	0.8947	1397.24	10.05
318.15	1	1423.3	10.05
303.15	1	1473.57	10.05
298.15	1	1490.47	10.05
313.15	1	1439.99	10.05
308.15	1	1456.77	10.05
323.15	1	1406.7	10.05

System: dimethyl sulfoxide + acetonitrile; phases: Liquid
Fixed: Pressure, kPa = 100
Property: Viscosity, Pa*s (Liquid); method: Falling or rolling sphere viscometry
Temperature, K	Mole fraction of dimethyl sulfoxide	Viscosity, Pa*s	uncertainty
298.15	0.0995	0.00042	0.00013
298.15	0.2061	0.00052	0.00016
298.15	0.2936	0.00057	0.00017
298.15	0.4055	0.00072	0.00022
298.15	0.5051	0.00086	0.00026
298.15	0.6001	0.00106	0.00032
298.15	0.7006	0.00127	0.00038
298.15	0.8072	0.00154	0.00046
298.15	0.8947	0.00176	0.00053
298.15	1	0.00203	0.00061
303.15	0.2936	0.00053	0.00016
303.15	0.4055	0.00067	0.0002
303.15	0.5051	0.00081	0.00024
303.15	0.6001	0.00097	0.00029
303.15	0.2061	0.00049	0.00015
303.15	0.7006	0.00117	0.00035
303.15	0.0995	0.0004	0.00012
303.15	0.8072	0.00142	0.00043
303.15	0.8947	0.0016	0.00048
303.15	1	0.00184	0.00055
308.15	0.5051	0.00075	0.00023
308.15	0.6001	0.00091	0.00027
308.15	0.2936	0.00052	0.00016
308.15	0.0995	0.00039	0.00012
308.15	0.7006	0.00108	0.00032
308.15	0.8072	0.00129	0.00039
308.15	0.2061	0.00046	0.00014
308.15	0.8947	0.00147	0.00044
308.15	0.4055	0.00064	0.00019
308.15	1	0.00167	0.0005
313.15	0.6001	0.00085	0.00026
313.15	0.0995	0.00037	0.00011
313.15	0.2936	0.00049	0.00015
313.15	0.7006	0.001	0.0003
313.15	0.5051	0.00071	0.00021
313.15	0.4055	0.0006	0.00018
313.15	0.8072	0.00119	0.00036
313.15	0.8947	0.00135	0.00041
313.15	0.2061	0.00044	0.00013
313.15	1	0.00153	0.00046
318.15	0.4055	0.00057	0.00017
318.15	0.8072	0.0011	0.00033
318.15	0.2936	0.00047	0.00014
318.15	0.2061	0.00042	0.00013
318.15	0.5051	0.00067	0.0002
318.15	0.0995	0.00035	0.00011
318.15	0.6001	0.00079	0.00024
318.15	0.8947	0.00124	0.00037
318.15	1	0.00141	0.00042
318.15	0.7006	0.00094	0.00028
323.15	0.2936	0.00045	0.00014
323.15	0.4055	0.00054	0.00016
323.15	0.8072	0.00103	0.00031
323.15	0.8947	0.00115	0.00035
323.15	0.7006	0.00087	0.00026
323.15	0.2061	0.0004	0.00012
323.15	0.6001	0.00075	0.00023
323.15	0.0995	0.00034	0.0001
323.15	0.5051	0.00063	0.00019
323.15	1	0.0013	0.00039

System: 1-ethyl-3-methylimidazolium trifluoromethanesulfonate + dimethyl sulfoxide + acetonitrile; phases: Liquid
Fixed: Pressure, kPa = 100
Property: Mass density, kg/m3 (Liquid); method: Vibrating tube method
Temperature, K	Mole fraction of 1-ethyl-3-methylimidazolium trifluoromethanesulfonate	Mole fraction of dimethyl sulfoxide	Mass density, kg/m3	uncertainty
298.15	0.0313	0.8985	1109.45	2.06
298.15	0.0628	0.8526	1128.67	2.04
298.15	0.0996	0.8035	1149.23	2.06
298.15	0.1328	0.7578	1166.97	2.08
298.15	0.1693	0.7074	1184.45	2.08
298.15	0.2065	0.6555	1200.43	2.07
298.15	0.2333	0.6152	1211.06	2.09
298.15	0.2695	0.5629	1224.13	2.1
298.15	0.3091	0.5059	1236.8	2.11
298.15	0.3343	0.4656	1243.67	2.11
298.15	0.361	0.4229	1250.62	2.12
298.15	0.4096	0.3523	1263.16	2.14
298.15	0.4353	0.3096	1268.27	2.15
298.15	0.4741	0.2498	1276.36	2.17
298.15	0.5094	0.1935	1283	2.19
298.15	0.5368	0.1703	1289.68	2.2
298.15	0.5656	0.1458	1296.24	2.21
298.15	0.5961	0.12	1302.81	2.23
298.15	0.6284	0.0927	1309.67	2.23
298.15	0.6565	0.0845	1316.34	2.24
298.15	0.686	0.076	1323.36	2.26
298.15	0.7058	0.0663	1327.39	2.28
298.15	0.7476	0.0458	1335.69	2.31
303.15	0.0313	0.8985	1104.47	2.06
303.15	0.0628	0.8526	1124.09	2.04
303.15	0.0996	0.8035	1144.76	2.06
303.15	0.1328	0.7578	1162.46	2.08
303.15	0.1693	0.7074	1180.04	2.07
303.15	0.2065	0.6555	1196.03	2.07
303.15	0.2333	0.6152	1206.66	2.08
303.15	0.2695	0.5629	1219.61	2.09
303.15	0.3091	0.5059	1232.28	2.11
303.15	0.3343	0.4656	1239.38	2.11
303.15	0.361	0.4229	1246.2	2.12
303.15	0.4096	0.3523	1258.76	2.14
303.15	0.4353	0.3096	1263.96	2.14
303.15	0.4741	0.2498	1271.94	2.16
303.15	0.5094	0.1935	1278.45	2.17
303.15	0.5368	0.1703	1285.24	2.19
303.15	0.5656	0.1458	1291.81	2.2
303.15	0.5961	0.12	1298.48	2.22
303.15	0.6284	0.0927	1305.16	2.22
303.15	0.6565	0.0845	1311.94	2.24
303.15	0.686	0.076	1318.96	2.26
303.15	0.7058	0.0663	1322.99	2.27
303.15	0.7476	0.0458	1331.32	2.3
308.15	0.0313	0.8985	1099.61	2.06
308.15	0.0628	0.8526	1119.34	2.04
308.15	0.0996	0.8035	1140.4	2.06
308.15	0.1328	0.7578	1158.09	2.08
308.15	0.1693	0.7074	1175.59	2.07
308.15	0.2065	0.6555	1191.59	2.07
308.15	0.2333	0.6152	1202.19	2.08
308.15	0.2695	0.5629	1215.27	2.09
308.15	0.3091	0.5059	1227.83	2.1
308.15	0.3343	0.4656	1234.92	2.11
308.15	0.361	0.4229	1241.86	2.12
308.15	0.4096	0.3523	1254.44	2.13
308.15	0.4353	0.3096	1259.54	2.14
308.15	0.4741	0.2498	1267.55	2.16
308.15	0.5094	0.1935	1274.03	2.17
308.15	0.5368	0.1703	1280.8	2.19
308.15	0.5656	0.1458	1287.54	2.2
308.15	0.5961	0.12	1293.99	2.22
308.15	0.6284	0.0927	1300.66	2.22
308.15	0.6565	0.0845	1307.5	2.24
308.15	0.686	0.076	1314.51	2.26
308.15	0.7058	0.0663	1318.63	2.27
308.15	0.7476	0.0458	1326.97	2.3
313.15	0.0313	0.8985	1094.78	2.06
313.15	0.0628	0.8526	1114.83	2.04
313.15	0.0996	0.8035	1135.77	2.06
313.15	0.1328	0.7578	1153.61	2.08
313.15	0.1693	0.7074	1171.24	2.07
313.15	0.2065	0.6555	1187.12	2.06
313.15	0.2333	0.6152	1197.73	2.08
313.15	0.2695	0.5629	1210.81	2.09
313.15	0.3091	0.5059	1223.37	2.1
313.15	0.3343	0.4656	1230.45	2.11
313.15	0.361	0.4229	1237.49	2.12
313.15	0.4096	0.3523	1250.05	2.13
313.15	0.4353	0.3096	1255.13	2.14
313.15	0.4741	0.2498	1263.12	2.16
313.15	0.5094	0.1935	1269.56	2.17
313.15	0.5368	0.1703	1276.47	2.18
313.15	0.5656	0.1458	1283.17	2.2
313.15	0.5961	0.12	1289.68	2.22
313.15	0.6284	0.0927	1296.3	2.22
313.15	0.6565	0.0845	1303.09	2.23
313.15	0.686	0.076	1310.14	2.25
313.15	0.7058	0.0663	1314.29	2.27
313.15	0.7476	0.0458	1322.58	2.3
318.15	0.0313	0.8985	1089.88	2.06
318.15	0.0628	0.8526	1110.07	2.04
318.15	0.0996	0.8035	1131.28	2.06
318.15	0.1328	0.7578	1149.11	2.07
318.15	0.1693	0.7074	1166.77	2.07
318.15	0.2065	0.6555	1182.53	2.06
318.15	0.2333	0.6152	1193.02	2.08
318.15	0.2695	0.5629	1206.35	2.09
318.15	0.3091	0.5059	1218.92	2.1
318.15	0.3343	0.4656	1225.99	2.11
318.15	0.361	0.4229	1233.24	2.11
318.15	0.4096	0.3523	1245.78	2.13
318.15	0.4353	0.3096	1250.83	2.14
318.15	0.4741	0.2498	1258.88	2.16
318.15	0.5094	0.1935	1265.24	2.17
318.15	0.5368	0.1703	1272.08	2.18
318.15	0.5656	0.1458	1278.62	2.2
318.15	0.5961	0.12	1285.26	2.22
318.15	0.6284	0.0927	1291.93	2.21
318.15	0.6565	0.0845	1298.66	2.23
318.15	0.686	0.076	1305.82	2.25
318.15	0.7058	0.0663	1309.99	2.26
318.15	0.7476	0.0458	1318.23	2.29
323.15	0.0313	0.8985	1084.86	2.06
323.15	0.0628	0.8526	1105.31	2.04
323.15	0.0996	0.8035	1126.79	2.06
323.15	0.1328	0.7578	1144.73	2.07
323.15	0.1693	0.7074	1162.39	2.07
323.15	0.2065	0.6555	1178.04	2.06
323.15	0.2333	0.6152	1188.4	2.08
323.15	0.2695	0.5629	1201.85	2.09
323.15	0.3091	0.5059	1214.54	2.1
323.15	0.3343	0.4656	1221.71	2.11
323.15	0.361	0.4229	1228.72	2.12
323.15	0.4096	0.3523	1241.47	2.13
323.15	0.4353	0.3096	1246.39	2.14
323.15	0.4741	0.2498	1254.45	2.16
323.15	0.5094	0.1935	1260.79	2.18
323.15	0.5368	0.1703	1267.56	2.19
323.15	0.5656	0.1458	1274.22	2.2
323.15	0.5961	0.12	1280.89	2.21
323.15	0.6284	0.0927	1287.5	2.21
323.15	0.6565	0.0845	1294.25	2.23
323.15	0.686	0.076	1301.43	2.25
323.15	0.7058	0.0663	1305.61	2.26
323.15	0.7476	0.0458	1313.88	2.29
298.15	0	1	1095.62	2.02
298.15	0.1068	0.8932	1168.75	2.06
298.15	0.2015	0.7985	1216.25	2.08
298.15	0.3077	0.6923	1256.63	2.1
298.15	0.4023	0.5977	1284.76	2.13
298.15	0.4933	0.5067	1306.53	2.17
298.15	0.6022	0.3978	1328.03	2.23
298.15	0.6993	0.3007	1344	2.29
298.15	0.7929	0.2071	1357.15	2.36
298.15	0.9008	0.0992	1370.28	2.45
298.15	1	0	1379.91	2.54
303.15	0	1	1090.62	2.02
303.15	0.1068	0.8932	1164	2.06
303.15	0.2015	0.7985	1211.78	2.08
303.15	0.3077	0.6923	1252.35	2.1
303.15	0.4023	0.5977	1280.52	2.13
303.15	0.4933	0.5067	1302.34	2.17
303.15	0.6022	0.3978	1323.93	2.22
303.15	0.6993	0.3007	1339.92	2.28
303.15	0.7929	0.2071	1353.08	2.35
303.15	0.9008	0.0992	1366.19	2.44
303.15	1	0	1375.71	2.53
308.15	0	1	1085.61	2.02
308.15	0.1068	0.8932	1159.28	2.06
308.15	0.2015	0.7985	1207.5	2.08
308.15	0.3077	0.6923	1248.17	2.1
308.15	0.4023	0.5977	1276.4	2.13
308.15	0.4933	0.5067	1298.26	2.17
308.15	0.6022	0.3978	1319.96	2.22
308.15	0.6993	0.3007	1335.83	2.28
308.15	0.7929	0.2071	1349.06	2.35
308.15	0.9008	0.0992	1362.09	2.44
308.15	1	0	1371.51	2.53
313.15	0	1	1080.6	2.02
313.15	0.1068	0.8932	1154.49	2.06
313.15	0.2015	0.7985	1203.23	2.07
313.15	0.3077	0.6923	1243.91	2.1
313.15	0.4023	0.5977	1272.21	2.13
313.15	0.4933	0.5067	1294.19	2.17
313.15	0.6022	0.3978	1315.98	2.22
313.15	0.6993	0.3007	1331.89	2.28
313.15	0.7929	0.2071	1345.04	2.34
313.15	0.9008	0.0992	1358.06	2.43
313.15	1	0	1367.36	2.52
318.15	0	1	1075.6	2.02
318.15	0.1068	0.8932	1149.74	2.06
318.15	0.2015	0.7985	1198.95	2.07
318.15	0.3077	0.6923	1239.74	2.1
318.15	0.4023	0.5977	1268.06	2.13
318.15	0.4933	0.5067	1290.23	2.16
318.15	0.6022	0.3978	1312.02	2.22
318.15	0.6993	0.3007	1327.93	2.27
318.15	0.7929	0.2071	1341	2.34
318.15	0.9008	0.0992	1353.95	2.43
318.15	1	0	1363.21	2.52
323.15	0	1	1070.66	2.02
323.15	0.1068	0.8932	1144.99	2.06
323.15	0.2015	0.7985	1194.68	2.07
323.15	0.3077	0.6923	1235.66	2.1
323.15	0.4023	0.5977	1263.96	2.12
323.15	0.4933	0.5067	1286.19	2.16
323.15	0.6022	0.3978	1307.97	2.21
323.15	0.6993	0.3007	1323.95	2.27
323.15	0.7929	0.2071	1337.02	2.34
323.15	0.9008	0.0992	1349.9	2.42
323.15	1	0	1359.07	2.51
298.15	0	0	776.71	2.01
298.15	0.1026	0	964.8	2.1
298.15	0.2053	0	1080.98	2.07
298.15	0.3044	0	1158.48	2.08
298.15	0.3948	0	1210.19	2.1
298.15	0.498	0	1256.19	2.15
298.15	0.595	0	1289.82	2.2
298.15	0.6936	0	1317.8	2.26
298.15	0.801	0	1342.54	2.35
298.15	0.9005	0	1362.36	2.44
298.15	1	0	1379.91	2.54
303.15	0	0	771.29	2.01
303.15	0.1026	0	959.72	2.1
303.15	0.2053	0	1076.24	2.07
303.15	0.3044	0	1153.77	2.08
303.15	0.3948	0	1205.75	2.1
303.15	0.498	0	1251.68	2.15
303.15	0.595	0	1285.38	2.2
303.15	0.6936	0	1313.46	2.26
303.15	0.801	0	1338.3	2.34
303.15	0.9005	0	1358.19	2.43
303.15	1	0	1375.71	2.53
308.15	0	0	765.83	2.01
308.15	0.1026	0	954.64	2.1
308.15	0.2053	0	1071.2	2.07
308.15	0.3044	0	1149.07	2.08
308.15	0.3948	0	1200.93	2.1
308.15	0.498	0	1247.19	2.14
308.15	0.595	0	1280.97	2.19
308.15	0.6936	0	1309.13	2.26
308.15	0.801	0	1334.18	2.34
308.15	0.9005	0	1354.05	2.43
308.15	1	0	1371.51	2.53
313.15	0	0	760.34	2.01
313.15	0.1026	0	949.54	2.1
313.15	0.2053	0	1066.32	2.07
313.15	0.3044	0	1144.37	2.08
313.15	0.3948	0	1196.39	2.1
313.15	0.498	0	1242.71	2.14
313.15	0.595	0	1276.68	2.19
313.15	0.6936	0	1304.82	2.25
313.15	0.801	0	1330.05	2.33
313.15	0.9005	0	1349.89	2.42
313.15	1	0	1367.36	2.52
318.15	0	0	754.82	2.01
318.15	0.1026	0	944.58	2.1
318.15	0.2053	0	1061.52	2.07
318.15	0.3044	0	1139.57	2.08
318.15	0.3948	0	1191.77	2.1
318.15	0.498	0	1238.2	2.14
318.15	0.595	0	1272.32	2.19
318.15	0.6936	0	1300.45	2.25
318.15	0.801	0	1325.89	2.33
318.15	0.9005	0	1345.74	2.42
318.15	1	0	1363.21	2.52
323.15	0	0	749.25	2.01
323.15	0.1026	0	939.47	2.11
323.15	0.2053	0	1056.45	2.07
323.15	0.3044	0	1134.77	2.07
323.15	0.3948	0	1187.31	2.1
323.15	0.498	0	1233.78	2.14
323.15	0.595	0	1267.96	2.19
323.15	0.6936	0	1296.17	2.25
323.15	0.801	0	1321.8	2.32
323.15	0.9005	0	1341.58	2.41
323.15	1	0	1359.07	2.51
298.15	0	0	776.71	2.01
298.15	0	0.0995	820.43	2.02
298.15	0	0.2061	862.88	2.02
298.15	0	0.2936	896.29	2.02
298.15	0	0.4055	935.15	2.02
298.15	0	0.5051	966.82	2.01
298.15	0	0.6001	994.77	2.01
298.15	0	0.7006	1022.53	2.02
298.15	0	0.8072	1050.32	2.02
298.15	0	0.8947	1071.95	2.02
298.15	0	1	1095.62	2.02
303.15	0	0	771.29	2.01
303.15	0	0.0995	815.06	2.02
303.15	0	0.2061	857.6	2
303.15	0	0.2936	891.05	2.02
303.15	0	0.4055	929.99	2.02
303.15	0	0.5051	961.71	2.01
303.15	0	0.6001	989.72	2.01
303.15	0	0.7006	1017.55	2.02
303.15	0	0.8072	1045.34	2.02
303.15	0	0.8947	1066.98	2.02
303.15	0	1	1090.62	2.02
308.15	0	0	765.83	2.01
308.15	0	0.0995	809.67	2.02
308.15	0	0.2061	852.28	2.02
308.15	0	0.2936	885.81	2.02
308.15	0	0.4055	924.82	2.02
308.15	0	0.5051	956.58	2.01
308.15	0	0.6001	984.67	2.01
308.15	0	0.7006	1012.57	2.01
308.15	0	0.8072	1040.36	2.02
308.15	0	0.8947	1062.01	2.02
308.15	0	1	1085.61	2.02
313.15	0	0	760.34	2.01
313.15	0	0.0995	804.26	2.02
313.15	0	0.2061	846.95	2.02
313.15	0	0.2936	880.52	2.02
313.15	0	0.4055	919.62	2.02
313.15	0	0.5051	951.43	2.01
313.15	0	0.6001	979.59	2.01
313.15	0	0.7006	1007.58	2.01
313.15	0	0.8072	1035.36	2.02
313.15	0	0.8947	1057.03	2.02
313.15	0	1	1080.6	2.02
318.15	0	0	754.82	2.01
318.15	0	0.0995	798.81	2.02
318.15	0	0.2061	841.59	2.02
318.15	0	0.2936	875.23	2.02
318.15	0	0.4055	914.41	2.02
318.15	0	0.5051	946.27	2.01
318.15	0	0.6001	974.52	2.01
318.15	0	0.7006	1002.73	2.01
318.15	0	0.8072	1030.38	2.02
318.15	0	0.8947	1052.04	2.02
318.15	0	1	1075.6	2.02
323.15	0	0	749.25	2.01
323.15	0	0.0995	793.34	2.02
323.15	0	0.2061	836.19	2.02
323.15	0	0.2936	869.91	2.02
323.15	0	0.4055	909.18	2.02
323.15	0	0.5051	941.1	2.01
323.15	0	0.6001	969.42	2.01
323.15	0	0.7006	997.71	2.01
323.15	0	0.8072	1025.37	2.02
323.15	0	0.8947	1047.05	2.02
323.15	0	1	1070.66	2.02

System: 1-ethyl-3-methylimidazolium trifluoromethanesulfonate + dimethyl sulfoxide + acetonitrile; phases: Liquid
Fixed: Pressure, kPa = 100
Fixed: Frequency, MHz = 3
Property: Speed of sound, m/s (Liquid); method: Single path-length method
Temperature, K	Mole fraction of 1-ethyl-3-methylimidazolium trifluoromethanesulfonate	Mole fraction of dimethyl sulfoxide	Speed of sound, m/s	uncertainty
298.15	0.0313	0.8985	1496.3	10.05
298.15	0.0628	0.8526	1484.52	10.06
298.15	0.0996	0.8035	1472.03	10.06
298.15	0.1328	0.7578	1461.96	10.07
298.15	0.1693	0.7074	1452.15	10.07
298.15	0.2065	0.6555	1443.52	10.07
298.15	0.2333	0.6152	1438.15	10.08
298.15	0.2695	0.5629	1431.97	10.08
298.15	0.3091	0.5059	1426.59	10.09
298.15	0.3343	0.4656	1423.88	10.09
298.15	0.361	0.4229	1421.59	10.09
298.15	0.4096	0.3523	1418.87	10.1
298.15	0.4353	0.3096	1418.13	10.1
298.15	0.4741	0.2498	1417.85	10.11
298.15	0.5094	0.1935	1418.36	10.11
298.15	0.5368	0.1703	1419.2	10.12
298.15	0.5656	0.1458	1420.45	10.12
298.15	0.5961	0.12	1422.1	10.13
298.15	0.6284	0.0927	1424.13	10.13
298.15	0.6565	0.0845	1426.06	10.14
298.15	0.686	0.076	1428.17	10.14
298.15	0.7058	0.0663	1429.6	10.15
298.15	0.7476	0.0458	1432.5	10.15
303.15	0.0313	0.8985	1480.31	10.05
303.15	0.0628	0.8526	1468.82	10.06
303.15	0.0996	0.8035	1456.66	10.06
303.15	0.1328	0.7578	1446.88	10.07
303.15	0.1693	0.7074	1437.38	10.07
303.15	0.2065	0.6555	1429.05	10.07
303.15	0.2333	0.6152	1423.89	10.08
303.15	0.2695	0.5629	1417.96	10.08
303.15	0.3091	0.5059	1412.84	10.09
303.15	0.3343	0.4656	1410.28	10.09
303.15	0.361	0.4229	1408.15	10.09
303.15	0.4096	0.3523	1405.67	10.1
303.15	0.4353	0.3096	1405.05	10.1
303.15	0.4741	0.2498	1404.92	10.11
303.15	0.5094	0.1935	1405.56	10.11
303.15	0.5368	0.1703	1406.49	10.12
303.15	0.5656	0.1458	1407.82	10.12
303.15	0.5961	0.12	1409.55	10.13
303.15	0.6284	0.0927	1411.67	10.13
303.15	0.6565	0.0845	1413.66	10.14
303.15	0.686	0.076	1415.85	10.14
303.15	0.7058	0.0663	1417.33	10.15
303.15	0.7476	0.0458	1420.35	10.15
308.15	0.0313	0.8985	1464.38	10.05
308.15	0.0628	0.8526	1453.19	10.06
308.15	0.0996	0.8035	1441.37	10.06
308.15	0.1328	0.7578	1431.88	10.07
308.15	0.1693	0.7074	1422.67	10.07
308.15	0.2065	0.6555	1414.63	10.07
308.15	0.2333	0.6152	1409.66	10.08
308.15	0.2695	0.5629	1403.98	10.08
308.15	0.3091	0.5059	1399.12	10.09
308.15	0.3343	0.4656	1396.71	10.09
308.15	0.361	0.4229	1394.73	10.09
308.15	0.4096	0.3523	1392.53	10.1
308.15	0.4353	0.3096	1392.04	10.1
308.15	0.4741	0.2498	1392.1	10.11
308.15	0.5094	0.1935	1392.91	10.11
308.15	0.5368	0.1703	1393.96	10.12
308.15	0.5656	0.1458	1395.41	10.12
308.15	0.5961	0.12	1397.27	10.13
308.15	0.6284	0.0927	1399.5	10.13
308.15	0.6565	0.0845	1401.6	10.14
308.15	0.686	0.076	1403.89	10.14
308.15	0.7058	0.0663	1405.44	10.15
308.15	0.7476	0.0458	1408.59	10.15
313.15	0.0313	0.8985	1448.54	10.05
313.15	0.0628	0.8526	1437.66	10.06
313.15	0.0996	0.8035	1426.18	10.06
313.15	0.1328	0.7578	1416.97	10.07
313.15	0.1693	0.7074	1408.06	10.07
313.15	0.2065	0.6555	1400.3	10.07
313.15	0.2333	0.6152	1395.52	10.08
313.15	0.2695	0.5629	1390.09	10.08
313.15	0.3091	0.5059	1385.48	10.09
313.15	0.3343	0.4656	1383.23	10.09
313.15	0.361	0.4229	1381.4	10.09
313.15	0.4096	0.3523	1379.46	10.1
313.15	0.4353	0.3096	1379.11	10.1
313.15	0.4741	0.2498	1379.36	10.11
313.15	0.5094	0.1935	1380.33	10.11
313.15	0.5368	0.1703	1381.5	10.12
313.15	0.5656	0.1458	1383.08	10.12
313.15	0.5961	0.12	1385.06	10.13
313.15	0.6284	0.0927	1387.43	10.13
313.15	0.6565	0.0845	1389.63	10.14
313.15	0.686	0.076	1392.02	10.14
313.15	0.7058	0.0663	1393.64	10.15
313.15	0.7476	0.0458	1396.92	10.15
318.15	0.0313	0.8985	1432.21	10.05
318.15	0.0628	0.8526	1421.91	10.06
318.15	0.0996	0.8035	1411.01	10.06
318.15	0.1328	0.7578	1402.26	10.07
318.15	0.1693	0.7074	1393.78	10.07
318.15	0.2065	0.6555	1386.39	10.07
318.15	0.2333	0.6152	1381.83	10.08
318.15	0.2695	0.5629	1376.67	10.08
318.15	0.3091	0.5059	1372.31	10.09
318.15	0.3343	0.4656	1370.19	10.09
318.15	0.361	0.4229	1368.49	10.09
318.15	0.4096	0.3523	1366.75	10.1
318.15	0.4353	0.3096	1366.49	10.1
318.15	0.4741	0.2498	1366.87	10.11
318.15	0.5094	0.1935	1367.95	10.11
318.15	0.5368	0.1703	1369.21	10.12
318.15	0.5656	0.1458	1370.87	10.12
318.15	0.5961	0.12	1372.94	10.13
318.15	0.6284	0.0927	1375.4	10.13
318.15	0.6565	0.0845	1377.68	10.14
318.15	0.686	0.076	1380.17	10.14
318.15	0.7058	0.0663	1381.85	10.15
318.15	0.7476	0.0458	1385.26	10.15
323.15	0.0313	0.8985	1417.15	10.05
323.15	0.0628	0.8526	1406.85	10.06
323.15	0.0996	0.8035	1396.02	10.06
323.15	0.1328	0.7578	1387.39	10.07
323.15	0.1693	0.7074	1379.09	10.07
323.15	0.2065	0.6555	1371.93	10.07
323.15	0.2333	0.6152	1367.56	10.08
323.15	0.2695	0.5629	1362.66	10.08
323.15	0.3091	0.5059	1358.59	10.09
323.15	0.3343	0.4656	1356.67	10.09
323.15	0.361	0.4229	1355.18	10.09
323.15	0.4096	0.3523	1353.8	10.1
323.15	0.4353	0.3096	1353.72	10.1
323.15	0.4741	0.2498	1354.36	10.11
323.15	0.5094	0.1935	1355.65	10.11
323.15	0.5368	0.1703	1357.06	10.12
323.15	0.5656	0.1458	1358.87	10.12
323.15	0.5961	0.12	1361.08	10.13
323.15	0.6284	0.0927	1363.67	10.13
323.15	0.6565	0.0845	1366.05	10.14
323.15	0.686	0.076	1368.63	10.14
323.15	0.7058	0.0663	1370.36	10.15
323.15	0.7476	0.0458	1373.88	10.15
298.15	0	1	1490.47	10.05
298.15	0.1068	0.8932	1487.98	10.06
298.15	0.2015	0.7985	1477.13	10.07
298.15	0.3077	0.6923	1468.56	10.09
298.15	0.4023	0.5977	1462.51	10.1
298.15	0.4933	0.5067	1456.49	10.11
298.15	0.6022	0.3978	1452.96	10.13
298.15	0.6993	0.3007	1449.88	10.14
298.15	0.7929	0.2071	1445.64	10.16
298.15	0.9008	0.0992	1441.22	10.18
298.15	1	0	1436.02	10.2
303.15	0	1	1473.57	10.05
303.15	0.1068	0.8932	1472.73	10.06
303.15	0.2015	0.7985	1462.73	10.07
303.15	0.3077	0.6923	1454.86	10.09
303.15	0.4023	0.5977	1449.41	10.1
303.15	0.4933	0.5067	1443.81	10.11
303.15	0.6022	0.3978	1440.61	10.13
303.15	0.6993	0.3007	1437.83	10.14
303.15	0.7929	0.2071	1433.93	10.16
303.15	0.9008	0.0992	1430.02	10.18
303.15	1	0	1425.43	10.2
308.15	0	1	1456.77	10.05
308.15	0.1068	0.8932	1457.51	10.06
308.15	0.2015	0.7985	1448.32	10.07
308.15	0.3077	0.6923	1441.23	10.09
308.15	0.4023	0.5977	1436.41	10.1
308.15	0.4933	0.5067	1431.26	10.11
308.15	0.6022	0.3978	1428.44	10.13
308.15	0.6993	0.3007	1425.83	10.14
308.15	0.7929	0.2071	1422.31	10.16
308.15	0.9008	0.0992	1418.7	10.18
308.15	1	0	1414.34	10.2
313.15	0	1	1439.99	10.05
313.15	0.1068	0.8932	1442.37	10.06
313.15	0.2015	0.7985	1433.96	10.07
313.15	0.3077	0.6923	1427.71	10.09
313.15	0.4023	0.5977	1423.54	10.1
313.15	0.4933	0.5067	1418.84	10.11
313.15	0.6022	0.3978	1416.47	10.13
313.15	0.6993	0.3007	1414	10.14
313.15	0.7929	0.2071	1410.83	10.16
313.15	0.9008	0.0992	1407.4	10.18
313.15	1	0	1402.98	10.2
318.15	0	1	1423.3	10.05
318.15	0.1068	0.8932	1425.54	10.06
318.15	0.2015	0.7985	1419.82	10.07
318.15	0.3077	0.6923	1414.28	10.09
318.15	0.4023	0.5977	1410.75	10.1
318.15	0.4933	0.5067	1406.5	10.11
318.15	0.6022	0.3978	1404.45	10.13
318.15	0.6993	0.3007	1401.87	10.14
318.15	0.7929	0.2071	1399.46	10.16
318.15	0.9008	0.0992	1396.53	10.18
318.15	1	0	1392.73	10.2
323.15	0	1	1406.7	10.05
323.15	0.1068	0.8932	1410.42	10.06
323.15	0.2015	0.7985	1405.66	10.07
323.15	0.3077	0.6923	1400.96	10.09
323.15	0.4023	0.5977	1398.08	10.1
323.15	0.4933	0.5067	1394.28	10.11
323.15	0.6022	0.3978	1392.68	10.13
323.15	0.6993	0.3007	1390.68	10.14
323.15	0.7929	0.2071	1388.2	10.16
323.15	0.9008	0.0992	1385.46	10.18
323.15	1	0	1381.66	10.2
298.15	0	0	1278.53	10.05
298.15	0.1026	0	1309.16	10.06
298.15	0.2053	0	1337.37	10.07
298.15	0.3044	0	1360.92	10.09
298.15	0.3948	0	1377.94	10.1
298.15	0.498	0	1394.44	10.11
298.15	0.595	0	1407.97	10.13
298.15	0.6936	0	1418.61	10.14
298.15	0.801	0	1427.07	10.16
298.15	0.9005	0	1432.59	10.18
298.15	1	0	1436.02	10.2
303.15	0	0	1258.37	10.05
303.15	0.1026	0	1292.02	10.06
303.15	0.2053	0	1321.89	10.07
303.15	0.3044	0	1346.66	10.09
303.15	0.3948	0	1364.55	10.1
303.15	0.498	0	1381.53	10.11
303.15	0.595	0	1395.54	10.13
303.15	0.6936	0	1406.6	10.14
303.15	0.801	0	1415.25	10.16
303.15	0.9005	0	1421.27	10.18
303.15	1	0	1425.43	10.2
308.15	0	0	1238.17	10.05
308.15	0.1026	0	1274.94	10.06
308.15	0.2053	0	1306.47	10.07
308.15	0.3044	0	1332.46	10.09
308.15	0.3948	0	1351.3	10.1
308.15	0.498	0	1368.72	10.11
308.15	0.595	0	1383.24	10.13
308.15	0.6936	0	1394.68	10.14
308.15	0.801	0	1403.4	10.16
308.15	0.9005	0	1409.71	10.18
308.15	1	0	1414.34	10.2
313.15	0	0	1218.03	10.05
313.15	0.1026	0	1257.93	10.06
313.15	0.2053	0	1291.09	10.07
313.15	0.3044	0	1318.35	10.09
313.15	0.3948	0	1338.16	10.1
313.15	0.498	0	1356.02	10.11
313.15	0.595	0	1371.1	10.13
313.15	0.6936	0	1382.94	10.14
313.15	0.801	0	1391.62	10.16
313.15	0.9005	0	1398.1	10.18
313.15	1	0	1402.98	10.2
318.15	0	0	1197.87	10.05
318.15	0.1026	0	1241	10.06
318.15	0.2053	0	1275.83	10.07
318.15	0.3044	0	1304.33	10.09
318.15	0.3948	0	1325.08	10.1
318.15	0.498	0	1343.41	10.11
318.15	0.595	0	1359.02	10.13
318.15	0.6936	0	1371.33	10.14
318.15	0.801	0	1380.18	10.16
318.15	0.9005	0	1387.13	10.18
318.15	1	0	1392.73	10.2
323.15	0	0	1177.76	10.05
323.15	0.1026	0	1224.13	10.06
323.15	0.2053	0	1260.68	10.07
323.15	0.3044	0	1290.45	10.09
323.15	0.3948	0	1312.18	10.1
323.15	0.498	0	1330.94	10.11
323.15	0.595	0	1347.07	10.13
323.15	0.6936	0	1359.73	10.14
323.15	0.801	0	1368.57	10.16
323.15	0.9005	0	1375.71	10.18
323.15	1	0	1381.66	10.2
298.15	0	0	1278.53	10.05
298.15	0	0.0995	1299.53	10.05
298.15	0	0.2061	1322.57	10.05
298.15	0	0.2936	1346.2	10.05
298.15	0	0.4055	1372.01	10.05
298.15	0	0.5051	1395.1	10.05
298.15	0	0.6001	1415.77	10.05
298.15	0	0.7006	1439.25	10.05
298.15	0	0.8072	1460.77	10.05
298.15	0	0.8947	1480.86	10.05
298.15	0	1	1490.47	10.05
303.15	0	0	1258.37	10.05
303.15	0	0.0995	1280.08	10.05
303.15	0	0.2061	1303.77	10.05
303.15	0	0.2936	1327.8	10.05
303.15	0	0.4055	1354.11	10.05
303.15	0	0.5051	1377.53	10.05
303.15	0	0.6001	1398.51	10.05
303.15	0	0.7006	1422.21	10.05
303.15	0	0.8072	1443.88	10.05
303.15	0	0.8947	1464.04	10.05
303.15	0	1	1473.57	10.05
308.15	0	0	1238.17	10.05
308.15	0	0.0995	1260.6	10.05
308.15	0	0.2061	1284.95	10.05
308.15	0	0.2936	1309.93	10.05
308.15	0	0.4055	1336.21	10.05
308.15	0	0.5051	1359.99	10.05
308.15	0	0.6001	1381.26	10.05
308.15	0	0.7006	1405.15	10.05
308.15	0	0.8072	1427.02	10.05
308.15	0	0.8947	1447.24	10.05
308.15	0	1	1456.77	10.05
313.15	0	0	1218.03	10.05
313.15	0	0.0995	1241.15	10.05
313.15	0	0.2061	1266.14	10.05
313.15	0	0.2936	1290.99	10.05
313.15	0	0.4055	1318.82	10.05
313.15	0	0.5051	1342.48	10.05
313.15	0	0.6001	1364.06	10.05
313.15	0	0.7006	1388	10.05
313.15	0	0.8072	1410.29	10.05
313.15	0	0.8947	1431	10.05
313.15	0	1	1439.99	10.05
318.15	0	0	1197.87	10.05
318.15	0	0.0995	1221.75	10.05
318.15	0	0.2061	1247.36	10.05
318.15	0	0.2936	1272.67	10.05
318.15	0	0.4055	1300.48	10.05
318.15	0	0.5051	1325.02	10.05
318.15	0	0.6001	1346.87	10.05
318.15	0	0.7006	1371.16	10.05
318.15	0	0.8072	1393.45	10.05
318.15	0	0.8947	1413.84	10.05
318.15	0	1	1423.3	10.05
323.15	0	0	1177.76	10.05
323.15	0	0.0995	1202.37	10.05
323.15	0	0.2061	1228.62	10.05
323.15	0	0.2936	1254.35	10.05
323.15	0	0.4055	1282.68	10.05
323.15	0	0.5051	1307.59	10.05
323.15	0	0.6001	1329.74	10.05
323.15	0	0.7006	1354.25	10.05
323.15	0	0.8072	1376.76	10.05
323.15	0	0.8947	1397.24	10.05
323.15	0	1	1406.7	10.05

System: 1-ethyl-3-methylimidazolium trifluoromethanesulfonate + dimethyl sulfoxide + acetonitrile; phases: Liquid
Fixed: Pressure, kPa = 100
Property: Viscosity, Pa*s (Liquid); method: Falling or rolling sphere viscometry
Temperature, K	Mole fraction of 1-ethyl-3-methylimidazolium trifluoromethanesulfonate	Mole fraction of dimethyl sulfoxide	Viscosity, Pa*s	uncertainty
298.15	0.0313	0.8985	0.0031	0.00093
298.15	0.0628	0.8526	0.00313	0.00094
298.15	0.0996	0.8035	0.00315	0.00095
298.15	0.1328	0.7578	0.00318	0.00095
298.15	0.1693	0.7074	0.0033	0.00099
298.15	0.2065	0.6555	0.00352	0.00106
298.15	0.2333	0.6152	0.00373	0.00112
298.15	0.2695	0.5629	0.00411	0.00123
298.15	0.3091	0.5059	0.00465	0.0014
298.15	0.3343	0.4656	0.00507	0.00152
298.15	0.361	0.4229	0.00558	0.00168
298.15	0.4096	0.3523	0.00668	0.00201
298.15	0.4353	0.3096	0.00736	0.00221
298.15	0.4741	0.2498	0.00853	0.00256
298.15	0.5094	0.1935	0.00974	0.00293
298.15	0.5368	0.1703	0.01078	0.00324
298.15	0.5656	0.1458	0.01198	0.0036
298.15	0.5961	0.12	0.01337	0.00401
298.15	0.6284	0.0927	0.01497	0.0045
298.15	0.6565	0.0845	0.01648	0.00495
298.15	0.686	0.076	0.01819	0.00546
298.15	0.7058	0.0663	0.01941	0.00583
298.15	0.7476	0.0458	0.02228	0.00669
303.15	0.0313	0.8985	0.00276	0.00083
303.15	0.0628	0.8526	0.00279	0.00084
303.15	0.0996	0.8035	0.00282	0.00085
303.15	0.1328	0.7578	0.00287	0.00086
303.15	0.1693	0.7074	0.003	0.0009
303.15	0.2065	0.6555	0.0032	0.00096
303.15	0.2333	0.6152	0.0034	0.00102
303.15	0.2695	0.5629	0.00375	0.00113
303.15	0.3091	0.5059	0.00423	0.00127
303.15	0.3343	0.4656	0.00459	0.00138
303.15	0.361	0.4229	0.00503	0.00151
303.15	0.4096	0.3523	0.00598	0.0018
303.15	0.4353	0.3096	0.00657	0.00197
303.15	0.4741	0.2498	0.00756	0.00227
303.15	0.5094	0.1935	0.00859	0.00258
303.15	0.5368	0.1703	0.00947	0.00284
303.15	0.5656	0.1458	0.0105	0.00315
303.15	0.5961	0.12	0.0116	0.00348
303.15	0.6284	0.0927	0.013	0.0039
303.15	0.6565	0.0845	0.0142	0.00426
303.15	0.686	0.076	0.0157	0.00471
303.15	0.7058	0.0663	0.0167	0.00502
303.15	0.7476	0.0458	0.019	0.00571
308.15	0.0313	0.8985	0.00253	0.00076
308.15	0.0628	0.8526	0.00255	0.00077
308.15	0.0996	0.8035	0.00256	0.00077
308.15	0.1328	0.7578	0.00263	0.00079
308.15	0.1693	0.7074	0.00275	0.00083
308.15	0.2065	0.6555	0.00295	0.00089
308.15	0.2333	0.6152	0.00313	0.00094
308.15	0.2695	0.5629	0.00344	0.00103
308.15	0.3091	0.5059	0.00387	0.00116
308.15	0.3343	0.4656	0.00419	0.00126
308.15	0.361	0.4229	0.00457	0.00137
308.15	0.4096	0.3523	0.00539	0.00162
308.15	0.4353	0.3096	0.0059	0.00177
308.15	0.4741	0.2498	0.00675	0.00203
308.15	0.5094	0.1935	0.00763	0.00229
308.15	0.5368	0.1703	0.00837	0.00251
308.15	0.5656	0.1458	0.00923	0.00277
308.15	0.5961	0.12	0.0102	0.00306
308.15	0.6284	0.0927	0.0114	0.00342
308.15	0.6565	0.0845	0.0124	0.00372
308.15	0.686	0.076	0.0136	0.00408
308.15	0.7058	0.0663	0.0145	0.00436
308.15	0.7476	0.0458	0.0164	0.00493
313.15	0.0313	0.8985	0.00229	0.00069
313.15	0.0628	0.8526	0.00231	0.00069
313.15	0.0996	0.8035	0.00234	0.0007
313.15	0.1328	0.7578	0.0024	0.00072
313.15	0.1693	0.7074	0.00252	0.00076
313.15	0.2065	0.6555	0.0027	0.00081
313.15	0.2333	0.6152	0.00287	0.00086
313.15	0.2695	0.5629	0.00315	0.00095
313.15	0.3091	0.5059	0.00353	0.00106
313.15	0.3343	0.4656	0.00382	0.00115
313.15	0.361	0.4229	0.00415	0.00125
313.15	0.4096	0.3523	0.00488	0.00147
313.15	0.4353	0.3096	0.00531	0.00159
313.15	0.4741	0.2498	0.00605	0.00182
313.15	0.5094	0.1935	0.00681	0.00205
313.15	0.5368	0.1703	0.00745	0.00224
313.15	0.5656	0.1458	0.00819	0.00246
313.15	0.5961	0.12	0.00903	0.00271
313.15	0.6284	0.0927	0.01	0.003
313.15	0.6565	0.0845	0.0109	0.00327
313.15	0.686	0.076	0.0119	0.00357
313.15	0.7058	0.0663	0.0127	0.00381
313.15	0.7476	0.0458	0.0143	0.00429
318.15	0.0313	0.8985	0.00208	0.00062
318.15	0.0628	0.8526	0.0021	0.00063
318.15	0.0996	0.8035	0.00214	0.00064
318.15	0.1328	0.7578	0.00221	0.00066
318.15	0.1693	0.7074	0.00233	0.0007
318.15	0.2065	0.6555	0.0025	0.00075
318.15	0.2333	0.6152	0.00266	0.0008
318.15	0.2695	0.5629	0.00291	0.00087
318.15	0.3091	0.5059	0.00325	0.00098
318.15	0.3343	0.4656	0.00351	0.00105
318.15	0.361	0.4229	0.00381	0.00114
318.15	0.4096	0.3523	0.00444	0.00133
318.15	0.4353	0.3096	0.00482	0.00145
318.15	0.4741	0.2498	0.00546	0.00164
318.15	0.5094	0.1935	0.00612	0.00184
318.15	0.5368	0.1703	0.00668	0.00201
318.15	0.5656	0.1458	0.00732	0.0022
318.15	0.5961	0.12	0.00804	0.00241
318.15	0.6284	0.0927	0.00888	0.00267
318.15	0.6565	0.0845	0.00965	0.0029
318.15	0.686	0.076	0.0105	0.00315
318.15	0.7058	0.0663	0.0112	0.00336
318.15	0.7476	0.0458	0.0126	0.00378
323.15	0.0313	0.8985	0.00188	0.00056
323.15	0.0628	0.8526	0.00191	0.00057
323.15	0.0996	0.8035	0.00196	0.00059
323.15	0.1328	0.7578	0.00203	0.00061
323.15	0.1693	0.7074	0.00215	0.00065
323.15	0.2065	0.6555	0.00232	0.0007
323.15	0.2333	0.6152	0.00246	0.00074
323.15	0.2695	0.5629	0.00269	0.00081
323.15	0.3091	0.5059	0.003	0.0009
323.15	0.3343	0.4656	0.00323	0.00097
323.15	0.361	0.4229	0.0035	0.00105
323.15	0.4096	0.3523	0.00406	0.00122
323.15	0.4353	0.3096	0.0044	0.00132
323.15	0.4741	0.2498	0.00496	0.00149
323.15	0.5094	0.1935	0.00554	0.00166
323.15	0.5368	0.1703	0.00603	0.00181
323.15	0.5656	0.1458	0.00658	0.00198
323.15	0.5961	0.12	0.00722	0.00217
323.15	0.6284	0.0927	0.00794	0.00238
323.15	0.6565	0.0845	0.00861	0.00259
323.15	0.686	0.076	0.00937	0.00281
323.15	0.7058	0.0663	0.00991	0.00298
323.15	0.7476	0.0458	0.0111	0.00333
298.15	0	1	0.00203	0.00061
298.15	0.1068	0.8932	0.00365	0.0011
298.15	0.2015	0.7985	0.00535	0.00161
298.15	0.3077	0.6923	0.00789	0.00237
298.15	0.4023	0.5977	0.01182	0.00355
298.15	0.4933	0.5067	0.01626	0.00488
298.15	0.6022	0.3978	0.02105	0.00632
298.15	0.6993	0.3007	0.02612	0.00784
298.15	0.7929	0.2071	0.03196	0.0096
298.15	0.9008	0.0992	0.03888	0.01168
298.15	1	0	0.04567	0.01371
303.15	0	1	0.00184	0.00055
303.15	0.1068	0.8932	0.00326	0.00098
303.15	0.2015	0.7985	0.00472	0.00142
303.15	0.3077	0.6923	0.0069	0.00207
303.15	0.4023	0.5977	0.0102	0.00306
303.15	0.4933	0.5067	0.01393	0.00418
303.15	0.6022	0.3978	0.01795	0.00539
303.15	0.6993	0.3007	0.02218	0.00666
303.15	0.7929	0.2071	0.02703	0.00812
303.15	0.9008	0.0992	0.03274	0.00983
303.15	1	0	0.03831	0.0115
308.15	0	1	0.00167	0.0005
308.15	0.1068	0.8932	0.00294	0.00088
308.15	0.2015	0.7985	0.0042	0.00126
308.15	0.3077	0.6923	0.00608	0.00183
308.15	0.4023	0.5977	0.00891	0.00268
308.15	0.4933	0.5067	0.01206	0.00362
308.15	0.6022	0.3978	0.01548	0.00465
308.15	0.6993	0.3007	0.01905	0.00572
308.15	0.7929	0.2071	0.02308	0.00693
308.15	0.9008	0.0992	0.02781	0.00835
308.15	1	0	0.03238	0.00972
313.15	0	1	0.00153	0.00046
313.15	0.1068	0.8932	0.00266	0.0008
313.15	0.2015	0.7985	0.00376	0.00113
313.15	0.3077	0.6923	0.00542	0.00163
313.15	0.4023	0.5977	0.00785	0.00236
313.15	0.4933	0.5067	0.01052	0.00316
313.15	0.6022	0.3978	0.01347	0.00404
313.15	0.6993	0.3007	0.01652	0.00496
313.15	0.7929	0.2071	0.01991	0.00598
313.15	0.9008	0.0992	0.02388	0.00717
313.15	1	0	0.02768	0.00831
318.15	0	1	0.00141	0.00042
318.15	0.1068	0.8932	0.00242	0.00073
318.15	0.2015	0.7985	0.00339	0.00102
318.15	0.3077	0.6923	0.00485	0.00146
318.15	0.4023	0.5977	0.00696	0.00209
318.15	0.4933	0.5067	0.00926	0.00278
318.15	0.6022	0.3978	0.01182	0.00355
318.15	0.6993	0.3007	0.01445	0.00434
318.15	0.7929	0.2071	0.01732	0.0052
318.15	0.9008	0.0992	0.02068	0.00621
318.15	1	0	0.02386	0.00716
323.15	0	1	0.0013	0.00039
323.15	0.1068	0.8932	0.00222	0.00067
323.15	0.2015	0.7985	0.00308	0.00092
323.15	0.3077	0.6923	0.00437	0.00131
323.15	0.4023	0.5977	0.00622	0.00187
323.15	0.4933	0.5067	0.00823	0.00247
323.15	0.6022	0.3978	0.01045	0.00314
323.15	0.6993	0.3007	0.01272	0.00382
323.15	0.7929	0.2071	0.01519	0.00456
323.15	0.9008	0.0992	0.01805	0.00542
323.15	1	0	0.02075	0.00623
298.15	0	0	0.00034	0.0001
298.15	0.1026	0	0.00085	0.00026
298.15	0.2053	0	0.00188	0.00056
298.15	0.3044	0	0.00299	0.0009
298.15	0.3948	0	0.00451	0.00135
298.15	0.498	0	0.00744	0.00223
298.15	0.595	0	0.0109	0.00327
298.15	0.6936	0	0.01592	0.00478
298.15	0.801	0	0.02405	0.00722
298.15	0.9005	0	0.03372	0.01013
298.15	1	0	0.04567	0.01371
303.15	0	0	0.00032	0.0001
303.15	0.1026	0	0.0008	0.00024
303.15	0.2053	0	0.00182	0.00055
303.15	0.3044	0	0.00274	0.00082
303.15	0.3948	0	0.00413	0.00124
303.15	0.498	0	0.00664	0.00199
303.15	0.595	0	0.00946	0.00284
303.15	0.6936	0	0.0138	0.00414
303.15	0.801	0	0.02032	0.0061
303.15	0.9005	0	0.02794	0.00839
303.15	1	0	0.03831	0.0115
308.15	0	0	0.00031	9e-05
308.15	0.1026	0	0.00075	0.00023
308.15	0.2053	0	0.00165	0.0005
308.15	0.3044	0	0.00252	0.00076
308.15	0.3948	0	0.00376	0.00113
308.15	0.498	0	0.00595	0.00179
308.15	0.595	0	0.00841	0.00253
308.15	0.6936	0	0.01208	0.00363
308.15	0.801	0	0.01754	0.00527
308.15	0.9005	0	0.02387	0.00717
308.15	1	0	0.03238	0.00972
313.15	0	0	0.0003	9e-05
313.15	0.1026	0	0.00072	0.00022
313.15	0.2053	0	0.00154	0.00046
313.15	0.3044	0	0.00234	0.0007
313.15	0.3948	0	0.00346	0.00104
313.15	0.498	0	0.00537	0.00161
313.15	0.595	0	0.00751	0.00226
313.15	0.6936	0	0.01066	0.0032
313.15	0.801	0	0.01527	0.00459
313.15	0.9005	0	0.02058	0.00618
313.15	1	0	0.02768	0.00831
318.15	0	0	0.00029	9e-05
318.15	0.1026	0	0.00068	0.0002
318.15	0.2053	0	0.00142	0.00043
318.15	0.3044	0	0.00216	0.00065
318.15	0.3948	0	0.00317	0.00095
318.15	0.498	0	0.00487	0.00146
318.15	0.595	0	0.00675	0.00203
318.15	0.6936	0	0.00946	0.00284
318.15	0.801	0	0.01339	0.00402
318.15	0.9005	0	0.01789	0.00537
318.15	1	0	0.02386	0.00716
323.15	0	0	0.00028	8e-05
323.15	0.1026	0	0.00065	0.0002
323.15	0.2053	0	0.00138	0.00041
323.15	0.3044	0	0.00201	0.0006
323.15	0.3948	0	0.00291	0.00087
323.15	0.498	0	0.00443	0.00133
323.15	0.595	0	0.00596	0.00179
323.15	0.6936	0	0.00827	0.00248
323.15	0.801	0	0.01166	0.0035
323.15	0.9005	0	0.01549	0.00465
323.15	1	0	0.02075	0.00623
298.15	0	0	0.00034	0.0001
298.15	0	0.0995	0.00042	0.00013
298.15	0	0.2061	0.00052	0.00016
298.15	0	0.2936	0.00057	0.00017
298.15	0	0.4055	0.00072	0.00022
298.15	0	0.5051	0.00086	0.00026
298.15	0	0.6001	0.00106	0.00032
298.15	0	0.7006	0.00127	0.00038
298.15	0	0.8072	0.00154	0.00046
298.15	0	0.8947	0.00176	0.00053
298.15	0	1	0.00203	0.00061
303.15	0	0	0.00032	0.0001
303.15	0	0.0995	0.0004	0.00012
303.15	0	0.2061	0.00049	0.00015
303.15	0	0.2936	0.00053	0.00016
303.15	0	0.4055	0.00067	0.0002
303.15	0	0.5051	0.00081	0.00024
303.15	0	0.6001	0.00097	0.00029
303.15	0	0.7006	0.00117	0.00035
303.15	0	0.8072	0.00142	0.00043
303.15	0	0.8947	0.0016	0.00048
303.15	0	1	0.00184	0.00055
308.15	0	0	0.00031	9e-05
308.15	0	0.0995	0.00039	0.00012
308.15	0	0.2061	0.00046	0.00014
308.15	0	0.2936	0.00052	0.00016
308.15	0	0.4055	0.00064	0.00019
308.15	0	0.5051	0.00075	0.00023
308.15	0	0.6001	0.00091	0.00027
308.15	0	0.7006	0.00108	0.00032
308.15	0	0.8072	0.00129	0.00039
308.15	0	0.8947	0.00147	0.00044
308.15	0	1	0.00167	0.0005
313.15	0	0	0.0003	9e-05
313.15	0	0.0995	0.00037	0.00011
313.15	0	0.2061	0.00044	0.00013
313.15	0	0.2936	0.00049	0.00015
313.15	0	0.4055	0.0006	0.00018
313.15	0	0.5051	0.00071	0.00021
313.15	0	0.6001	0.00085	0.00026
313.15	0	0.7006	0.001	0.0003
313.15	0	0.8072	0.00119	0.00036
313.15	0	0.8947	0.00135	0.00041
313.15	0	1	0.00153	0.00046
318.15	0	0	0.00029	9e-05
318.15	0	0.0995	0.00035	0.00011
318.15	0	0.2061	0.00042	0.00013
318.15	0	0.2936	0.00047	0.00014
318.15	0	0.4055	0.00057	0.00017
318.15	0	0.5051	0.00067	0.0002
318.15	0	0.6001	0.00079	0.00024
318.15	0	0.7006	0.00094	0.00028
318.15	0	0.8072	0.0011	0.00033
318.15	0	0.8947	0.00124	0.00037
318.15	0	1	0.00141	0.00042
323.15	0	0	0.00028	8e-05
323.15	0	0.0995	0.00034	0.0001
323.15	0	0.2061	0.0004	0.00012
323.15	0	0.2936	0.00045	0.00014
323.15	0	0.4055	0.00054	0.00016
323.15	0	0.5051	0.00063	0.00019
323.15	0	0.6001	0.00075	0.00023
323.15	0	0.7006	0.00087	0.00026
323.15	0	0.8072	0.00103	0.00031
323.15	0	0.8947	0.00115	0.00035
323.15	0	1	0.0013	0.00039
