Measured thermophysical data. Measurement and Correlation of the Solubilities of Azoxystrobin, Flutriafol, and Tebuconazole in Subcritical 1,1,1,2-Tetrafluoroethane
Source: J. Chem. Eng. Data, 2018, 10.1021/acs.jced.8b00240
Compound 1: 1,1,1,2-tetrafluoroethane, C2H2F4, InChI=1S/C2H2F4/c3-1-2(4,5)6/h1H2
Compound 2: carbon dioxide, CO2, InChI=1S/CO2/c2-1-3
Compound 3: naphthalene, C10H8, InChI=1S/C10H8/c1-2-6-10-8-4-3-7-9(10)5-1/h1-8H
Compound 4: azoxystrobin, C22H17N3O5, InChI=1S/C22H17N3O5/c1-27-13-17(22(26)28-2)16-8-4-6-10-19(16)30-21-11-20(24-14-25-21)29-18-9-5-3-7-15(18)12-23/h3-11,13-14H,1-2H3/b17-13+
Compound 5: flutriafol, C16H13F2N3O, InChI=1S/C16H13F2N3O/c17-13-7-5-12(6-8-13)16(22,9-21-11-19-10-20-21)14-3-1-2-4-15(14)18/h1-8,10-11,22H,9H2
Compound 6: tebuconazole, C16H22ClN3O, InChI=1S/C16H22ClN3O/c1-15(2,3)16(21,10-20-12-18-11-19-20)9-8-13-4-6-14(17)7-5-13/h4-7,11-12,21H,8-10H2,1-3H3

System: naphthalene + carbon dioxide; phases: Gas, Crystal
Property: Mole fraction of naphthalene (Gas); method: Chromatography
Temperature, K	Pressure, kPa	Mole fraction of naphthalene	uncertainty
308.15	8000	0.00738	0.00091
308.15	10000	0.01017	0.0006
308.15	14000	0.01338	0.00116
318.15	8000	0.00098	0.00066
318.15	10000	0.00726	0.00181

System: azoxystrobin + 1,1,1,2-tetrafluoroethane; phases: Liquid, Crystal
Property: Mole fraction of azoxystrobin (Liquid); method: Chromatography
Temperature, K	Pressure, kPa	Mole fraction of azoxystrobin	uncertainty
298.15	6000	0.000457	9.1e-05
298.15	8000	0.000473	9.5e-05
298.15	10000	0.000513	0.000103
298.15	12000	0.00055	0.00011
298.15	14000	0.000631	0.000126
298.15	16000	0.000648	0.00013
313.15	10000	0.000911	0.000183
313.15	12000	0.001063	0.000213
313.15	6000	0.000695	0.00014
313.15	8000	0.000805	0.000161
313.15	14000	0.001127	0.000225
313.15	16000	0.001164	0.000233
333.15	6000	0.000893	0.000179
333.15	10000	0.001013	0.000203
333.15	14000	0.001144	0.000229
333.15	12000	0.001083	0.000217
333.15	8000	0.000916	0.000183
333.15	16000	0.001159	0.000232

System: flutriafol + 1,1,1,2-tetrafluoroethane; phases: Liquid, Crystal
Property: Mole fraction of flutriafol (Liquid); method: Chromatography
Temperature, K	Pressure, kPa	Mole fraction of flutriafol	uncertainty
298.15	6000	0.00025	5e-05
298.15	8000	0.000298	6e-05
298.15	10000	0.000304	6.1e-05
298.15	12000	0.000318	6.4e-05
298.15	14000	0.000332	6.6e-05
298.15	16000	0.000351	7e-05
313.15	6000	0.000483	9.7e-05
313.15	8000	0.000578	0.000116
313.15	10000	0.000616	0.000123
313.15	12000	0.000731	0.000146
313.15	14000	0.00074	0.000148
313.15	16000	0.000755	0.000151
333.15	6000	0.001072	0.000214
333.15	8000	0.001109	0.000222
333.15	10000	0.00119	0.000238
333.15	12000	0.001261	0.000252
333.15	14000	0.00134	0.000268
333.15	16000	0.001496	0.0003

System: tebuconazole + 1,1,1,2-tetrafluoroethane; phases: Liquid, Crystal
Property: Mole fraction of tebuconazole (Liquid); method: Chromatography
Temperature, K	Pressure, kPa	Mole fraction of tebuconazole	uncertainty
298.15	6000	0.000335	6.7e-05
298.15	8000	0.000368	7.4e-05
298.15	10000	0.000385	7.7e-05
298.15	12000	0.000403	8.1e-05
298.15	14000	0.000438	8.8e-05
298.15	16000	0.000445	8.9e-05
313.15	6000	0.000517	0.000104
313.15	8000	0.000682	0.000137
313.15	10000	0.000699	0.00014
313.15	12000	0.000728	0.000146
313.15	14000	0.000783	0.000157
313.15	16000	0.000878	0.000176
333.15	6000	0.000911	0.000182
333.15	8000	0.000895	0.000179
333.15	10000	0.00089	0.000178
333.15	12000	0.000959	0.000192
333.15	14000	0.001026	0.000205
333.15	16000	0.001083	0.000217
