Measured thermophysical data. Experimental and Computational Thermodynamic Properties  of (Benzyl alcohol + Alkanols) Mixtures
Source: J. Chem. Eng. Data, 2015, 10.1021/acs.jced.5b00162
Compound 1: benzenemethanol, C7H8O, InChI=1S/C7H8O/c8-6-7-4-2-1-3-5-7/h1-5,8H,6H2, purity 99.5%
Compound 2: methanol, CH4O, InChI=1S/CH4O/c1-2/h2H,1H3, purity 99.8%
Compound 3: ethanol, C2H6O, InChI=1S/C2H6O/c1-2-3/h3H,2H2,1H3, purity 99.8%
Compound 4: propan-1-ol, C3H8O, InChI=1S/C3H8O/c1-2-3-4/h4H,2-3H2,1H3, purity 99.8%
Compound 5: propan-2-ol, C3H8O, InChI=1S/C3H8O/c1-3(2)4/h3-4H,1-2H3, purity 99.5%
Compound 6: butan-1-ol, C4H10O, InChI=1S/C4H10O/c1-2-3-4-5/h5H,2-4H2,1H3, purity 99.8%
Compound 7: butan-2-ol, C4H10O, InChI=1S/C4H10O/c1-3-4(2)5/h4-5H,3H2,1-2H3, purity 99%

System: benzenemethanol; phases: Liquid
Property: Mass density, kg/m3 (Liquid); method: VIBTUB:UFactor:8
Temperature, K	Pressure, kPa	Mass density, kg/m3	uncertainty
298.15	81.5	1042.1	0.43

System: benzenemethanol; phases: Liquid
Property: Viscosity, Pa*s (Liquid); method: Capillary tube (Ostwald; Ubbelohde) method
Temperature, K	Pressure, kPa	Viscosity, Pa*s	uncertainty
298.15	81.5	0.005438	4.9e-05

System: benzenemethanol; phases: Liquid
Property: Refractive index (Na D-line) (Liquid); method: Standard Abbe refractometry
Temperature, K	Pressure, kPa	Refractive index (Na D-line)	uncertainty
298.15	81.5	1.5381	0.0005

System: methanol; phases: Liquid
Property: Mass density, kg/m3 (Liquid); method: VIBTUB:UFactor:8
Temperature, K	Pressure, kPa	Mass density, kg/m3	uncertainty
298.15	81.5	786.55	0.92

System: methanol; phases: Liquid
Property: Viscosity, Pa*s (Liquid); method: Capillary tube (Ostwald; Ubbelohde) method
Temperature, K	Pressure, kPa	Viscosity, Pa*s	uncertainty
298.15	81.5	0.000571	7e-06

System: methanol; phases: Liquid
Property: Refractive index (Na D-line) (Liquid); method: Standard Abbe refractometry
Temperature, K	Pressure, kPa	Refractive index (Na D-line)	uncertainty
298.15	81.5	1.3281	0.0005

System: ethanol; phases: Liquid
Property: Mass density, kg/m3 (Liquid); method: VIBTUB:UFactor:8
Temperature, K	Pressure, kPa	Mass density, kg/m3	uncertainty
298.15	81.5	785.12	0.92

System: ethanol; phases: Liquid
Property: Viscosity, Pa*s (Liquid); method: Capillary tube (Ostwald; Ubbelohde) method
Temperature, K	Pressure, kPa	Viscosity, Pa*s	uncertainty
298.15	81.5	0.001103	9e-06

System: ethanol; phases: Liquid
Property: Refractive index (Na D-line) (Liquid); method: Standard Abbe refractometry
Temperature, K	Pressure, kPa	Refractive index (Na D-line)	uncertainty
298.15	81.5	1.3594	0.0005

System: propan-1-ol; phases: Liquid
Property: Mass density, kg/m3 (Liquid); method: VIBTUB:UFactor:8
Temperature, K	Pressure, kPa	Mass density, kg/m3	uncertainty
298.15	81.5	799.54	0.88

System: propan-1-ol; phases: Liquid
Property: Viscosity, Pa*s (Liquid); method: Capillary tube (Ostwald; Ubbelohde) method
Temperature, K	Pressure, kPa	Viscosity, Pa*s	uncertainty
298.15	81.5	0.001943	1.4e-05

System: propan-1-ol; phases: Liquid
Property: Refractive index (Na D-line) (Liquid); method: Standard Abbe refractometry
Temperature, K	Pressure, kPa	Refractive index (Na D-line)	uncertainty
298.15	81.5	1.3824	0.0005

System: propan-2-ol; phases: Liquid
Property: Mass density, kg/m3 (Liquid); method: VIBTUB:UFactor:8
Temperature, K	Pressure, kPa	Mass density, kg/m3	uncertainty
298.15	81.5	780.99	0.96

System: propan-2-ol; phases: Liquid
Property: Viscosity, Pa*s (Liquid); method: Capillary tube (Ostwald; Ubbelohde) method
Temperature, K	Pressure, kPa	Viscosity, Pa*s	uncertainty
298.15	81.5	0.002071	1.6e-05

System: propan-2-ol; phases: Liquid
Property: Refractive index (Na D-line) (Liquid); method: Standard Abbe refractometry
Temperature, K	Pressure, kPa	Refractive index (Na D-line)	uncertainty
298.15	81.5	1.3749	0.0005

System: butan-1-ol; phases: Liquid
Property: Mass density, kg/m3 (Liquid); method: VIBTUB:UFactor:8
Temperature, K	Pressure, kPa	Mass density, kg/m3	uncertainty
298.15	81.5	806.07	0.86

System: butan-1-ol; phases: Liquid
Property: Viscosity, Pa*s (Liquid); method: Capillary tube (Ostwald; Ubbelohde) method
Temperature, K	Pressure, kPa	Viscosity, Pa*s	uncertainty
298.15	81.5	0.002565	1.9e-05

System: butan-1-ol; phases: Liquid
Property: Refractive index (Na D-line) (Liquid); method: Standard Abbe refractometry
Temperature, K	Pressure, kPa	Refractive index (Na D-line)	uncertainty
298.15	81.5	1.3969	0.0005

System: butan-2-ol; phases: Liquid
Property: Mass density, kg/m3 (Liquid); method: VIBTUB:UFactor:8
Temperature, K	Pressure, kPa	Mass density, kg/m3	uncertainty
298.15	81.5	802.5	0.99

System: butan-2-ol; phases: Liquid
Property: Viscosity, Pa*s (Liquid); method: Capillary tube (Ostwald; Ubbelohde) method
Temperature, K	Pressure, kPa	Viscosity, Pa*s	uncertainty
298.15	81.5	0.003027	2.7e-05

System: butan-2-ol; phases: Liquid
Property: Refractive index (Na D-line) (Liquid); method: Standard Abbe refractometry
Temperature, K	Pressure, kPa	Refractive index (Na D-line)	uncertainty
298.15	81.5	1.3946	0.0005

System: methanol + benzenemethanol; phases: Liquid
Fixed: Temperature, K = 298.15
Fixed: Pressure, kPa = 81.5
Property: Mass density, kg/m3 (Liquid); method: VIBTUB:UFactor:8
Mole fraction of benzenemethanol	Mass density, kg/m3	uncertainty
0	786.55	0.92
0.0799	837.57	0.8
0.1599	877.29	0.66
0.2389	908.27	0.56
0.3216	934.94	0.48
0.4004	955.75	0.42
0.4803	973.48	0.36
0.5592	988.25	0.32
0.64	1001.42	0.29
0.7193	1012.54	0.33
0.7983	1022.21	0.36
0.8738	1030.37	0.39
0.9559	1038.22	0.42
1	1042.1	0.43

System: methanol + benzenemethanol; phases: Liquid
Fixed: Temperature, K = 298.15
Fixed: Pressure, kPa = 81.5
Property: Viscosity, Pa*s (Liquid); method: Capillary tube (Ostwald; Ubbelohde) method
Mole fraction of benzenemethanol	Viscosity, Pa*s	uncertainty
0	0.000571	7e-06
0.0799	0.000768	8e-06
0.1601	0.000995	9e-06
0.2403	0.00127	1e-05
0.3162	0.00156	1.2e-05
0.399	0.001923	1.5e-05
0.4797	0.002311	1.7e-05
0.5592	0.002713	2.1e-05
0.6409	0.003173	2.5e-05
0.7199	0.003647	3e-05
0.8005	0.004148	3.5e-05
0.8804	0.004657	4e-05
0.9599	0.005171	4.6e-05
1	0.005438	4.9e-05

System: methanol + benzenemethanol; phases: Liquid
Fixed: Temperature, K = 298.15
Fixed: Pressure, kPa = 81.5
Property: Refractive index (Na D-line) (Liquid); method: Standard Abbe refractometry
Mole fraction of benzenemethanol	Refractive index (Na D-line)	uncertainty
0	1.3281	0.0005
0.0799	1.3668	0.0005
0.1601	1.4	0.0005
0.2403	1.4262	0.0005
0.3162	1.4469	0.0005
0.399	1.4668	0.0005
0.4797	1.4819	0.0005
0.5592	1.4939	0.0005
0.6409	1.5041	0.0005
0.7199	1.5135	0.0005
0.8005	1.5221	0.0005
0.8804	1.5295	0.0005
0.9599	1.5353	0.0005
1	1.5381	0.0005

System: ethanol + benzenemethanol; phases: Liquid
Fixed: Temperature, K = 298.15
Fixed: Pressure, kPa = 81.5
Property: Mass density, kg/m3 (Liquid); method: VIBTUB:UFactor:8
Mole fraction of benzenemethanol	Mass density, kg/m3	uncertainty
0	785.12	0.92
0.0807	823.11	0.83
0.1619	855.6	0.72
0.2423	884.57	0.63
0.3212	909.77	0.56
0.3998	931.73	0.49
0.4808	951.84	0.43
0.5542	968.38	0.38
0.6358	984.93	0.33
0.7217	1000.67	0.29
0.7985	1013.39	0.34
0.8782	1025.49	0.38
0.954	1036.86	0.42
1	1042.1	0.43

System: ethanol + benzenemethanol; phases: Liquid
Fixed: Temperature, K = 298.15
Fixed: Pressure, kPa = 81.5
Property: Viscosity, Pa*s (Liquid); method: Capillary tube (Ostwald; Ubbelohde) method
Mole fraction of benzenemethanol	Viscosity, Pa*s	uncertainty
0	0.001103	9e-06
0.0815	0.001299	1e-05
0.1604	0.001509	1.2e-05
0.2408	0.001759	1.3e-05
0.3194	0.002033	1.5e-05
0.3989	0.002333	1.8e-05
0.48	0.002666	2e-05
0.5598	0.003025	2.4e-05
0.6392	0.003408	2.7e-05
0.7105	0.003775	3.1e-05
0.7995	0.004267	3.6e-05
0.8795	0.004732	4.1e-05
0.9583	0.00519	4.6e-05
1	0.005438	4.9e-05

System: ethanol + benzenemethanol; phases: Liquid
Fixed: Temperature, K = 298.15
Fixed: Pressure, kPa = 81.5
Property: Refractive index (Na D-line) (Liquid); method: Standard Abbe refractometry
Mole fraction of benzenemethanol	Refractive index (Na D-line)	uncertainty
0	1.3594	0.0005
0.0815	1.3852	0.0005
0.1604	1.4073	0.0005
0.2408	1.4272	0.0005
0.3194	1.4457	0.0005
0.3989	1.4616	0.0005
0.48	1.476	0.0005
0.5598	1.489	0.0005
0.6392	1.5	0.0005
0.7105	1.5083	0.0005
0.7995	1.5182	0.0005
0.8795	1.5266	0.0005
0.9583	1.5344	0.0005
1	1.5381	0.0005

System: propan-1-ol + benzenemethanol; phases: Liquid
Fixed: Temperature, K = 298.15
Fixed: Pressure, kPa = 81.5
Property: Mass density, kg/m3 (Liquid); method: VIBTUB:UFactor:8
Mole fraction of benzenemethanol	Mass density, kg/m3	uncertainty
0	799.54	0.88
0.0794	827.12	0.81
0.1588	852.72	0.73
0.2407	877.46	0.65
0.3192	899.36	0.59
0.4006	920.71	0.52
0.4799	940.19	0.47
0.5591	958.41	0.41
0.6396	975.82	0.36
0.72	992.09	0.32
0.8011	1007.73	0.32
0.8803	1022.02	0.37
0.9583	1035.3	0.41
1	1042.1	0.43

System: propan-1-ol + benzenemethanol; phases: Liquid
Fixed: Temperature, K = 298.15
Fixed: Pressure, kPa = 81.5
Property: Viscosity, Pa*s (Liquid); method: Capillary tube (Ostwald; Ubbelohde) method
Mole fraction of benzenemethanol	Viscosity, Pa*s	uncertainty
0	0.001943	1.4e-05
0.0799	0.002111	1.6e-05
0.1596	0.002288	1.7e-05
0.2399	0.002485	1.9e-05
0.3202	0.002705	2e-05
0.399	0.00295	2.3e-05
0.48	0.003223	2.5e-05
0.5598	0.003509	2.8e-05
0.6388	0.003806	3.1e-05
0.7189	0.004128	3.4e-05
0.7995	0.004476	3.8e-05
0.88	0.004842	4.2e-05
0.9601	0.005239	4.7e-05
1	0.005438	4.9e-05

System: propan-1-ol + benzenemethanol; phases: Liquid
Fixed: Temperature, K = 298.15
Fixed: Pressure, kPa = 81.5
Property: Refractive index (Na D-line) (Liquid); method: Standard Abbe refractometry
Mole fraction of benzenemethanol	Refractive index (Na D-line)	uncertainty
0	1.3824	0.0005
0.0799	1.3998	0.0005
0.1596	1.416	0.0005
0.2399	1.4315	0.0005
0.3202	1.4462	0.0005
0.399	1.4596	0.0005
0.48	1.4722	0.0005
0.5598	1.4841	0.0005
0.6388	1.4953	0.0005
0.7189	1.5058	0.0005
0.7995	1.5158	0.0005
0.88	1.5255	0.0005
0.9601	1.5342	0.0005
1	1.5381	0.0005

System: propan-2-ol + benzenemethanol; phases: Liquid
Fixed: Temperature, K = 298.15
Fixed: Pressure, kPa = 81.5
Property: Mass density, kg/m3 (Liquid); method: VIBTUB:UFactor:8
Mole fraction of benzenemethanol	Mass density, kg/m3	uncertainty
0	780.99	0.96
0.0824	811.38	0.88
0.1615	838.14	0.8
0.2401	864.12	0.72
0.3185	887.76	0.65
0.3962	909.76	0.58
0.4802	932.09	0.51
0.5611	952.13	0.45
0.6373	970.47	0.4
0.6887	981.33	0.36
0.7971	1004.12	0.32
0.8745	1019.22	0.37
0.9526	1033.65	0.41
1	1042.1	0.43

System: propan-2-ol + benzenemethanol; phases: Liquid
Fixed: Temperature, K = 298.15
Fixed: Pressure, kPa = 81.5
Property: Viscosity, Pa*s (Liquid); method: Capillary tube (Ostwald; Ubbelohde) method
Mole fraction of benzenemethanol	Viscosity, Pa*s	uncertainty
0	0.002071	1.6e-05
0.0813	0.002189	1.7e-05
0.16	0.002343	1.8e-05
0.2395	0.002528	2e-05
0.3213	0.002735	2.1e-05
0.4006	0.00297	2.4e-05
0.48	0.003227	2.6e-05
0.5597	0.003507	2.9e-05
0.6412	0.003822	3.2e-05
0.7178	0.004137	3.5e-05
0.8003	0.0045	3.9e-05
0.876	0.004852	4.3e-05
0.959	0.005243	4.7e-05
1	0.005438	4.9e-05

System: propan-2-ol + benzenemethanol; phases: Liquid
Fixed: Temperature, K = 298.15
Fixed: Pressure, kPa = 81.5
Property: Refractive index (Na D-line) (Liquid); method: Standard Abbe refractometry
Mole fraction of benzenemethanol	Refractive index (Na D-line)	uncertainty
0	1.3749	0.0005
0.0813	1.3931	0.0005
0.16	1.4103	0.0005
0.2395	1.4273	0.0005
0.3213	1.443	0.0005
0.4006	1.457	0.0005
0.48	1.4705	0.0005
0.5597	1.483	0.0005
0.6412	1.4952	0.0005
0.7178	1.5057	0.0005
0.8003	1.516	0.0005
0.876	1.5247	0.0005
0.959	1.5338	0.0005
1	1.5381	0.0005

System: butan-1-ol + benzenemethanol; phases: Liquid
Fixed: Temperature, K = 298.15
Fixed: Pressure, kPa = 81.5
Property: Mass density, kg/m3 (Liquid); method: VIBTUB:UFactor:8
Mole fraction of benzenemethanol	Mass density, kg/m3	uncertainty
0	806.07	0.86
0.0824	828.7	0.8
0.1602	849.52	0.73
0.2392	870.06	0.67
0.3206	890.78	0.61
0.399	910.07	0.55
0.4803	929.52	0.5
0.5586	947.83	0.44
0.6394	966.22	0.39
0.7198	983.97	0.34
0.7993	1001.09	0.3
0.8813	1018.24	0.36
0.9604	1034.25	0.41
1	1042.1	0.43

System: butan-1-ol + benzenemethanol; phases: Liquid
Fixed: Temperature, K = 298.15
Fixed: Pressure, kPa = 81.5
Property: Viscosity, Pa*s (Liquid); method: Capillary tube (Ostwald; Ubbelohde) method
Mole fraction of benzenemethanol	Viscosity, Pa*s	uncertainty
0	0.002565	1.9e-05
0.0799	0.002653	2e-05
0.1607	0.00278	2.1e-05
0.239	0.002913	2.2e-05
0.3199	0.003065	2.4e-05
0.3995	0.003238	2.5e-05
0.4799	0.003434	2.7e-05
0.5597	0.003653	2.9e-05
0.6396	0.003908	3.2e-05
0.7205	0.004196	3.5e-05
0.8005	0.004514	3.9e-05
0.88	0.004866	4.3e-05
0.9594	0.00524	4.7e-05
1	0.005438	4.9e-05

System: butan-1-ol + benzenemethanol; phases: Liquid
Fixed: Temperature, K = 298.15
Fixed: Pressure, kPa = 81.5
Property: Refractive index (Na D-line) (Liquid); method: Standard Abbe refractometry
Mole fraction of benzenemethanol	Refractive index (Na D-line)	uncertainty
0	1.3969	0.0005
0.0799	1.4097	0.0005
0.1607	1.4224	0.0005
0.239	1.4346	0.0005
0.3199	1.4469	0.0005
0.3995	1.4588	0.0005
0.4799	1.4705	0.0005
0.5597	1.4816	0.0005
0.6396	1.4924	0.0005
0.7205	1.5032	0.0005
0.8005	1.5137	0.0005
0.88	1.5238	0.0005
0.9594	1.5333	0.0005
1	1.5381	0.0005

System: butan-2-ol + benzenemethanol; phases: Liquid
Fixed: Temperature, K = 298.15
Fixed: Pressure, kPa = 81.5
Property: Mass density, kg/m3 (Liquid); method: VIBTUB:UFactor:8
Mole fraction of benzenemethanol	Mass density, kg/m3	uncertainty
0	802.5	0.99
0.0844	825.84	0.92
0.1766	850.73	0.84
0.2382	866.99	0.79
0.3241	888.47	0.71
0.4057	909.84	0.64
0.4807	927.64	0.58
0.5595	946.39	0.52
0.641	965.22	0.45
0.7261	984.15	0.39
0.7997	1000.45	0.33
0.88	1017.54	0.38
0.9595	1033.95	0.42
1	1042.1	0.43

System: butan-2-ol + benzenemethanol; phases: Liquid
Fixed: Temperature, K = 298.15
Fixed: Pressure, kPa = 81.5
Property: Viscosity, Pa*s (Liquid); method: Capillary tube (Ostwald; Ubbelohde) method
Mole fraction of benzenemethanol	Viscosity, Pa*s	uncertainty
0	0.003027	2.7e-05
0.0804	0.003	2.7e-05
0.159	0.003038	2.7e-05
0.2366	0.003114	2.7e-05
0.3196	0.003229	2.8e-05
0.3995	0.003379	2.9e-05
0.4795	0.003564	3.1e-05
0.5605	0.003778	3.3e-05
0.6456	0.004031	3.5e-05
0.7182	0.004282	3.8e-05
0.7998	0.004592	4.1e-05
0.8793	0.004923	4.4e-05
0.9593	0.00526	4.7e-05
1	0.005438	4.9e-05

System: butan-2-ol + benzenemethanol; phases: Liquid
Fixed: Temperature, K = 298.15
Fixed: Pressure, kPa = 81.5
Property: Refractive index (Na D-line) (Liquid); method: Standard Abbe refractometry
Mole fraction of benzenemethanol	Refractive index (Na D-line)	uncertainty
0	1.3946	0.0005
0.0804	1.408	0.0005
0.159	1.4207	0.0005
0.2366	1.4332	0.0005
0.3196	1.4463	0.0005
0.3995	1.4585	0.0005
0.4795	1.47	0.0005
0.5605	1.4812	0.0005
0.6456	1.4928	0.0005
0.7182	1.5023	0.0005
0.7998	1.513	0.0005
0.8793	1.5233	0.0005
0.9593	1.5333	0.0005
1	1.5381	0.0005
