Measured thermophysical data. Experimental Study of PVTx Properties in the Gas Phase for Binary Mixtures of DME and HFC-134a
Source: J. Chem. Eng. Data, 2016, 10.1021/acs.jced.5b00973
Compound 1: dimethyl ether, C2H6O, InChI=1S/C2H6O/c1-3-2/h1-2H3, purity 99.5%
Compound 2: 1,1,1,2-tetrafluoroethane, C2H2F4, InChI=1S/C2H2F4/c3-1-2(4,5)6/h1H2, purity 99.96%

System: dimethyl ether + 1,1,1,2-tetrafluoroethane; phases: Fluid (supercritical or subcritical phases)
Property: Amount density, mol/m3 (Fluid (supercritical or subcritical phases)); method: ISOCHOR
Temperature, K	Pressure, kPa	Mole fraction of dimethyl ether	Amount density, mol/m3	uncertainty
338.37	1582.1	0.6348	772.4	1.9
343.36	1632.8	0.6348	772.2	1.8
348.34	1680	0.6348	772	1.7
353.33	1726	0.6348	771.8	1.7
358.44	1772	0.6348	771.6	1.6
363.56	1817.9	0.6348	771.4	1.6
368.4	1859.9	0.6348	771.2	1.5
373.38	1903	0.6348	771	1.5
378.49	1946	0.6348	770.8	1.4
383.42	1987	0.6348	770.6	1.4
338.37	1245.1	0.5152	551.7	1.3
343.49	1278.1	0.5152	551.5	1.3
348.48	1309	0.5152	551.4	1.3
353.46	1339.9	0.5152	551.2	1.3
358.44	1370	0.5152	551.1	1.2
363.43	1400.1	0.5152	551	1.2
368.41	1429.5	0.5152	550.8	1.2
373.39	1458.8	0.5152	550.7	1.2
378.5	1488	0.5152	550.5	1.6
383.34	1516.2	0.5152	550.4	1.6
333.39	1480.5	0.7353	729.2	2.4
339.58	1540.3	0.7353	729	2.4
343.49	1575.4	0.7353	728.8	2.4
348.33	1618.2	0.7353	728.7	2.4
353.45	1662.1	0.7353	728.5	2.3
358.44	1704.6	0.7353	728.3	2.3
363.56	1747.3	0.7353	728.1	2.2
368.53	1788.2	0.7353	727.9	2.1
373.52	1828.8	0.7353	727.7	2
378.49	1869.1	0.7353	727.5	1.9
383.46	1909.5	0.7353	727.4	1.8
358.57	2670.4	0.8258	1483.1	2.6
363.56	2774.7	0.8258	1482.7	2.5
368.54	2876.4	0.8258	1482.3	2.3
373.52	2975.8	0.8258	1482	2.2
378.5	3073.6	0.8258	1481.6	2.1
383.48	3170.2	0.8258	1481.2	1.9
333.52	1041.1	0.4096	451.8	1.5
338.5	1066.3	0.4096	451.6	1.3
343.49	1090.7	0.4096	451.5	1.3
348.47	1115.3	0.4096	451.4	1.3
353.45	1139.3	0.4096	451.3	1.3
358.44	1163	0.4096	451.2	1.2
363.55	1187	0.4096	451.1	1.2
368.4	1210.1	0.4096	451	1.2
373.51	1233.8	0.4096	450.8	1.2
378.49	1256.5	0.4096	450.7	1.2
383.47	1279.3	0.4096	450.6	1.2
343.49	1793.6	0.8105	879.6	2.6
348.47	1849.6	0.8105	879.4	2.6
353.46	1903.3	0.8105	879.2	2.6
358.58	1958.7	0.8105	879	2.6
363.43	2009.4	0.8105	878.8	2.4
368.4	2061.3	0.8105	878.5	2.3
373.39	2112.2	0.8105	878.3	2.1
378.5	2163.4	0.8105	878.1	2
383.47	2213.7	0.8105	877.9	1.9
318.47	957	0.6185	451.8	1.9
323.57	986.2	0.6185	451.7	1.9
328.49	1012.5	0.6185	451.6	1.9
333.54	1038.7	0.6185	451.4	1.9
338.52	1064	0.6185	451.3	1.9
343.5	1088.7	0.6185	451.2	1.8
348.48	1113	0.6185	451.1	1.7
353.4	1136.6	0.6185	451	1.6
358.44	1160.7	0.6185	450.9	1.6
363.43	1184.1	0.6185	450.8	1.5
368.42	1207.6	0.6185	450.6	1.5
373.53	1231.5	0.6185	450.5	1.4
378.43	1254	0.6185	450.4	1.4
383.48	1277.3	0.6185	450.3	1.4
313.67	541.8	0.3305	231.9	1.6
318.6	554	0.3305	231.9	1.5
323.47	565.7	0.3305	231.8	1.5
328.48	577.9	0.3305	231.7	1.5
333.48	589.6	0.3305	231.7	1.5
338.38	600.9	0.3305	231.6	1.4
343.49	612.5	0.3305	231.6	1.4
348.48	624	0.3305	231.5	1.3
353.5	635.2	0.3305	231.4	1.3
358.44	646.1	0.3305	231.4	1.3
363.56	657.5	0.3305	231.3	1.2
368.54	668.5	0.3305	231.3	1.2
373.52	679.4	0.3305	231.2	1.2
378.5	690.3	0.3305	231.2	1.2
383.48	701	0.3305	231.1	1.1
313.53	742.1	0.2326	336.1	1.6
318.48	762.2	0.2326	336	0.6
323.44	781.3	0.2326	335.9	0.6
328.47	799.5	0.2326	335.8	0.6
333.44	817.6	0.2326	335.7	0.6
338.42	835.1	0.2326	335.7	0.6
343.5	851.6	0.2326	335.6	1.5
348.48	869.6	0.2326	335.5	1.5
353.46	886.1	0.2326	335.4	1.5
358.45	902.7	0.2326	335.3	1.4
363.43	919.2	0.2326	335.2	1.4
368.45	935.6	0.2326	335.1	1.4
373.53	952.3	0.2326	335.1	1.4
378.51	968.3	0.2326	335	1
383.49	984.6	0.2326	334.9	0.9
