Measured thermophysical data. Volumetric Properties of Local Anesthetical Drug Lidocaine Hydrochloride in Aqueous and in Aqueous NaCl Solutions at Different Temperatures
Source: J. Chem. Eng. Data, 2018, 10.1021/acs.jced.7b01059
Compound 1: lidocaine hydrochloride, C14H23ClN2O, InChI=1S/C14H22N2O.ClH/c1-5-16(6-2)10-13(17)15-14-11(3)8-7-9-12(14)4;/h7-9H,5-6,10H2,1-4H3,(H,15,17);1H, purity 97%
Compound 2: sodium chloride, ClNa, InChI=1S/ClH.Na/h1H;/q;+1/p-1
Compound 3: water, H2O, InChI=1S/H2O/h1H2, purity 99.8%

System: water; phases: Liquid
Fixed: Pressure, kPa = 101.325
Property: Mass density, kg/m3 (Liquid); method: Vibrating tube method
Temperature, K	Mass density, kg/m3	uncertainty
288.15	999.106	0.051
293.15	998.205	0.051
298.15	997.044	0.052
303.15	995.647	0.053
308.15	994.033	0.053

System: lidocaine hydrochloride + water; phases: Liquid
Fixed: Pressure, kPa = 101.325
Property: Mass density, kg/m3 (Liquid); method: Vibrating tube method
Temperature, K	Molality, mol/kg of lidocaine hydrochloride	Mass density, kg/m3	uncertainty
288.15	0	999.106	0.203
288.15	0.00978	999.468	0.203
288.15	0.02058	999.847	0.203
288.15	0.02578	1000.061	0.203
288.15	0.0303	1000.218	0.203
288.15	0.05111	1000.918	0.204
288.15	0.08179	1002.031	0.204
288.15	0.10291	1002.554	0.205
288.15	0.12242	1003.278	0.205
288.15	0.15323	1004.211	0.206
288.15	0.20386	1005.863	0.207
288.15	0.25412	1007.582	0.208
293.15	0	998.205	0.203
293.15	0.00978	998.553	0.203
293.15	0.02058	998.901	0.203
293.15	0.02578	999.048	0.203
293.15	0.0303	999.252	0.204
293.15	0.05111	999.998	0.204
293.15	0.08179	1001.002	0.204
293.15	0.10291	1001.677	0.205
293.15	0.12242	1002.36	0.205
293.15	0.15323	1003.36	0.205
293.15	0.20386	1004.974	0.207
293.15	0.25412	1006.39	0.208
298.15	0	997.044	0.203
298.15	0.00978	997.352	0.203
298.15	0.02058	997.702	0.204
298.15	0.02578	997.944	0.204
298.15	0.0303	998.086	0.204
298.15	0.05111	998.825	0.204
298.15	0.08179	999.742	0.204
298.15	0.10291	1000.37	0.204
298.15	0.12242	1001.062	0.205
298.15	0.15323	1001.898	0.205
298.15	0.20386	1003.609	0.207
298.15	0.25412	1005.03	0.208
303.15	0	995.647	0.203
303.15	0.00978	995.926	0.204
303.15	0.02058	996.337	0.204
303.15	0.02578	996.533	0.204
303.15	0.0303	996.601	0.204
303.15	0.05111	997.309	0.204
303.15	0.08179	998.223	0.204
303.15	0.10291	998.932	0.205
303.15	0.12242	999.555	0.205
303.15	0.15323	1000.473	0.205
303.15	0.20386	1002.041	0.206
303.15	0.25412	1003.607	0.208
308.15	0	994.033	0.204
308.15	0.00978	994.343	0.204
308.15	0.02058	994.638	0.204
308.15	0.02578	994.837	0.204
308.15	0.0303	995.002	0.204
308.15	0.05111	995.626	0.204
308.15	0.08179	996.644	0.204
308.15	0.10291	997.216	0.205
308.15	0.12242	997.848	0.205
308.15	0.15323	998.799	0.205
308.15	0.20386	1000.385	0.206
308.15	0.25412	1001.946	0.208

System: lidocaine hydrochloride + water + sodium chloride; phases: Liquid
Fixed: Pressure, kPa = 101.325
Property: Mass density, kg/m3 (Liquid); method: Vibrating tube method
Temperature, K	Solvent: Molality, mol/kg of sodium chloride	Molality, mol/kg of lidocaine hydrochloride	Mass density, kg/m3	uncertainty
288.15	0.09787	0	1003.08	0.437
288.15	0.09787	0.02046	1003.851	0.438
288.15	0.09787	0.02578	1004.091	0.438
288.15	0.09787	0.03002	1004.198	0.438
288.15	0.09787	0.0504	1004.791	0.439
288.15	0.09787	0.08093	1005.778	0.44
288.15	0.09787	0.10018	1006.546	0.441
288.15	0.09787	0.12186	1007.353	0.441
288.15	0.09787	0.15498	1008.235	0.442
288.15	0.09787	0.19883	1009.521	0.443
288.15	0.09787	0.24929	1011.197	0.445
298.15	0.09787	0	1001.075	0.435
298.15	0.09787	0.02046	1001.551	0.436
298.15	0.09787	0.02578	1001.776	0.436
298.15	0.09787	0.03002	1001.847	0.436
298.15	0.09787	0.0504	1002.45	0.437
298.15	0.09787	0.08093	1003.452	0.438
298.15	0.09787	0.10018	1003.892	0.438
298.15	0.09787	0.12186	1004.761	0.439
298.15	0.09787	0.15498	1005.423	0.44
298.15	0.09787	0.19883	1006.902	0.441
298.15	0.09787	0.24929	1008.836	0.443
308.15	0.09787	0	997.934	0.434
308.15	0.09787	0.02046	998.504	0.434
308.15	0.09787	0.02578	998.611	0.434
308.15	0.09787	0.03002	998.832	0.434
308.15	0.09787	0.0504	999.375	0.434
308.15	0.09787	0.08093	1000.351	0.435
308.15	0.09787	0.10018	1000.759	0.435
308.15	0.09787	0.12186	1001.574	0.436
308.15	0.09787	0.15498	1002.644	0.437
308.15	0.09787	0.19883	1003.869	0.438
308.15	0.09787	0.24929	1005.423	0.44
293.15	0.09787	0	1001.961	0.436
293.15	0.09787	0.02046	1002.676	0.437
293.15	0.09787	0.02578	1002.812	0.437
293.15	0.09787	0.03002	1003.053	0.437
293.15	0.09787	0.0504	1003.674	0.438
293.15	0.09787	0.08093	1004.545	0.439
293.15	0.09787	0.10018	1005.176	0.439
293.15	0.09787	0.12186	1005.869	0.44
293.15	0.09787	0.15498	1006.917	0.441
293.15	0.09787	0.19883	1008.492	0.442
293.15	0.09787	0.24929	1009.712	0.444
303.15	0.09787	0	999.55	0.434
303.15	0.09787	0.02046	1000.226	0.435
303.15	0.09787	0.02578	1000.307	0.435
303.15	0.09787	0.03002	1000.387	0.435
303.15	0.09787	0.0504	1001.129	0.435
303.15	0.09787	0.08093	1002.161	0.436
303.15	0.09787	0.10018	1002.532	0.437
303.15	0.09787	0.12186	1003.292	0.437
303.15	0.09787	0.15498	1004.085	0.438
303.15	0.09787	0.19883	1005.449	0.44
303.15	0.09787	0.24929	1006.524	0.441
288.15	1.00764	0	1039.897	0.473
288.15	1.00764	0.0194	1040.292	0.474
288.15	1.00764	0.02487	1040.447	0.474
288.15	1.00764	0.02769	1040.499	0.474
288.15	1.00764	0.04839	1041.042	0.474
288.15	1.00764	0.07771	1041.686	0.475
288.15	1.00764	0.0979	1042.198	0.475
288.15	1.00764	0.11604	1042.685	0.476
288.15	1.00764	0.14535	1043.381	0.477
288.15	1.00764	0.20495	1044.736	0.478
298.15	1.00764	0	1036.927	0.47
298.15	1.00764	0.0194	1037.262	0.471
298.15	1.00764	0.02487	1037.338	0.471
298.15	1.00764	0.02769	1037.505	0.471
298.15	1.00764	0.04839	1037.95	0.471
298.15	1.00764	0.07771	1038.663	0.472
298.15	1.00764	0.0979	1039.108	0.472
298.15	1.00764	0.11604	1039.37	0.473
298.15	1.00764	0.14535	1040.19	0.473
298.15	1.00764	0.20495	1041.492	0.475
308.15	1.00764	0	1033.312	0.467
308.15	1.00764	0.0194	1033.512	0.467
308.15	1.00764	0.02487	1033.595	0.467
308.15	1.00764	0.02769	1033.742	0.467
308.15	1.00764	0.04839	1034.226	0.468
308.15	1.00764	0.07771	1034.855	0.468
308.15	1.00764	0.0979	1035.316	0.469
308.15	1.00764	0.11604	1035.712	0.469
308.15	1.00764	0.14535	1036.342	0.47
308.15	1.00764	0.20495	1037.549	0.471
293.15	1.00764	0	1038.641	0.472
293.15	1.00764	0.0194	1038.561	0.472
293.15	1.00764	0.02487	1038.935	0.472
293.15	1.00764	0.02769	1039.05	0.472
293.15	1.00764	0.04839	1039.6	0.473
293.15	1.00764	0.07771	1040.27	0.474
293.15	1.00764	0.0979	1040.712	0.474
293.15	1.00764	0.11604	1041.073	0.474
293.15	1.00764	0.14535	1041.779	0.475
293.15	1.00764	0.20495	1043.205	0.476
303.15	1.00764	0	1035.183	0.468
303.15	1.00764	0.0194	1035.421	0.469
303.15	1.00764	0.02487	1035.602	0.469
303.15	1.00764	0.02769	1035.671	0.469
303.15	1.00764	0.04839	1036.205	0.469
303.15	1.00764	0.07771	1036.85	0.47
303.15	1.00764	0.0979	1037.268	0.471
303.15	1.00764	0.11604	1037.648	0.471
303.15	1.00764	0.14535	1038.357	0.472
303.15	1.00764	0.20495	1039.701	0.473

System: water + sodium chloride; phases: Liquid
Fixed: Pressure, kPa = 101.325
Property: Mass density, kg/m3 (Liquid); method: Vibrating tube method
Temperature, K	Molality, mol/kg of sodium chloride	Mass density, kg/m3	uncertainty
288.15	0.09787	1003.08	0.207
298.15	0.09787	1001.075	0.207
308.15	0.09787	997.934	0.207
293.15	0.09787	1001.961	0.207
303.15	0.09787	999.55	0.207
288.15	1.00764	1039.897	0.211
298.15	1.00764	1036.927	0.211
308.15	1.00764	1033.312	0.21
293.15	1.00764	1038.641	0.211
303.15	1.00764	1035.183	0.211
