Measured thermophysical data. Phase Equilibrium Measurements of the Methacrolein-Methacrylic Acid-Water Ternary System at 101.3 kPa
Source: J. Chem. Eng. Data, 2019, 10.1021/acs.jced.9b00649
Compound 1: 2-methyl-2-propenal, C4H6O, InChI=1S/C4H6O/c1-4(2)3-5/h3H,1H2,2H3, purity 99.5%
Compound 2: 2-methyl-2-propenoic acid, C4H6O2, InChI=1S/C4H6O2/c1-3(2)4(5)6/h1H2,2H3,(H,5,6), purity 99%
Compound 3: water, H2O, InChI=1S/H2O/h1H2, purity 99.8%

System: 2-methyl-2-propenal + 2-methyl-2-propenoic acid + water; phases: Liquid mixture 2, Liquid mixture 1
Fixed: Pressure, kPa = 101.3
Property: Mole fraction of 2-methyl-2-propenoic acid (Liquid mixture 2); method: Chromatography
Property: Mole fraction of 2-methyl-2-propenoic acid (Liquid mixture 1); method: Chromatography
Property: Mole fraction of 2-methyl-2-propenal (Liquid mixture 1); method: Chromatography
Temperature, K	Mole fraction of 2-methyl-2-propenal	Mole fraction of 2-methyl-2-propenoic acid	uncertainty	Mole fraction of 2-methyl-2-propenoic acid	uncertainty	Mole fraction of 2-methyl-2-propenal	uncertainty
293.15	0.0206	0.0013	0.0013	0.0329	0.0104	0.8037	
313.15	0.0171	0.0047	0.003	0.129	0.011	0.5793	
293.15	0.0204	0.0015	0.0015	0.0376	0.011	0.7868	
293.15	0.0198	0.0021	0.0021	0.0629	0.0114	0.7356	
293.15	0.0201	0.0024	0.0024	0.0698	0.0114	0.723	
293.15	0.0191	0.0038	0.003	0.1136	0.0112	0.6355	
293.15	0.0188	0.0052	0.003	0.148	0.011	0.5635	
293.15	0.0155	0.0084	0.003	0.2089	0.011	0.4243	
293.15	0.0145	0.0102	0.003	0.234	0.0108	0.3584	
303.15	0.0182	0.0022	0.0022	0.0965	0.0116	0.6574	
303.15	0.017	0.0031	0.0031	0.1156	0.0111	0.6242	
303.15	0.0173	0.0043	0.003	0.1487	0.0112	0.5487	
303.15	0.0165	0.0063	0.003	0.1767	0.0114	0.502	
303.15	0.0159	0.0088	0.003	0.2136	0.0106	0.4206	
313.15	0.0179	0.0024	0.0024	0.0612	0.0112	0.7166	
313.15	0.0171	0.0047	0.003	0.128	0.011	0.5802	
313.15	0.0161	0.0068	0.003	0.1623	0.0109	0.4886	
313.15	0.0148	0.0094	0.003	0.1972	0.0111	0.3929	

System: 2-methyl-2-propenal + 2-methyl-2-propenoic acid + water; phases: Liquid, Gas
Fixed: Pressure, kPa = 101.3
Property: Mole fraction of 2-methyl-2-propenal (Liquid); method: Chromatography
Property: Mole fraction of 2-methyl-2-propenoic acid (Gas); method: Chromatography
Property: Mole fraction of 2-methyl-2-propenal (Gas); method: Chromatography
Temperature, K	Mole fraction of 2-methyl-2-propenoic acid	Mole fraction of 2-methyl-2-propenal	uncertainty	Mole fraction of 2-methyl-2-propenoic acid	uncertainty	Mole fraction of 2-methyl-2-propenal	uncertainty
342.2	0.0056	0.0189	0.002	0.002	0.002	0.7081	
342.65	0.0055	0.0185	0.002	0.002	0.002	0.7045	
351.05	0.0284	0.0252	0.002	0.007	0.0028	0.5917	
356.9	0.0562	0.0285	0.002	0.0109	0.0028	0.4801	
359.4	0.1248	0.0487	0.002	0.0157	0.0028	0.406	
361.25	0.1119	0.0347	0.002	0.0184	0.0028	0.3861	
361.55	0.1406	0.0401	0.002	0.0187	0.0028	0.359	
348.95	0.0186	0.021	0.002	0.004	0.0028	0.6236	
352.55	0.0213	0.0164	0.002	0.0074	0.0028	0.5508	
347.95	0.0141	0.0161	0.002	0.0061	0.0028	0.6027	
362.75	0.2706	0.0759	0.0021	0.0186	0.0028	0.3826	
366.95	0.3272	0.0481	0.002	0.0297	0.0028	0.3034	
367.55	0.3146	0.0407	0.002	0.0256	0.0028	0.2785	
