Measured thermophysical data. Viscosity Measurement and Correlation of Unloaded and CO2-Loaded Aqueous Solutions of N-Methyldiethanolamine-Piperazine
Source: J. Chem. Eng. Data, 2019, 10.1021/acs.jced.9b00021
Compound 1: water, H2O, InChI=1S/H2O/h1H2, purity 99.9%
Compound 2: piperazine, C4H10N2, InChI=1S/C4H10N2/c1-2-6-4-3-5-1/h5-6H,1-4H2, purity 99%
Compound 3: N-methyldiethanolamine, C5H13NO2, InChI=1S/C5H13NO2/c1-6(2-4-7)3-5-8/h7-8H,2-5H2,1H3, purity 99%

System: N-methyldiethanolamine; phases: Liquid
Fixed: Pressure, kPa = 400
Property: Viscosity, Pa*s (Liquid); method: Concentric cylinders viscometry
Temperature, K	Viscosity, Pa*s	uncertainty
298.15	0.0731	0.00058
303.15	0.05589	0.00039
308.15	0.04345	0.00035
313.15	0.03415	0.0003
318.15	0.02715	0.00027
323.15	0.02182	0.00024
328.15	0.01779	0.00023
333.15	0.01463	0.00022
338.15	0.0122	0.00021
343.15	0.01021	0.00021
348.15	0.00861	0.00021
353.15	0.00731	0.00021
358.15	0.00628	0.0002
363.15	0.00543	0.0002
368.15	0.00472	0.0002
373.15	0.00412	0.0002
298.15	0.073103	0.00058
348.15	0.0086	0.00021
358.15	0.00629	0.0002

System: N-methyldiethanolamine + water; phases: Liquid
Fixed: Pressure, kPa = 400
Property: Viscosity, Pa*s (Liquid); method: Concentric cylinders viscometry
Temperature, K	Mass fraction of N-methyldiethanolamine	Viscosity, Pa*s	uncertainty
298.15	0.3	0.00302	0.00048
303.15	0.3	0.00264	0.00041
308.15	0.3	0.00228	0.00035
313.15	0.3	0.00197	0.00031
318.15	0.3	0.00175	0.00028
323.15	0.3	0.00154	0.00026
328.15	0.3	0.00138	0.00024
333.15	0.3	0.00124	0.00023
338.15	0.3	0.00115	0.00022
343.15	0.3	0.00106	0.00022
348.15	0.3	0.00097	0.00021
353.15	0.3	0.00089	0.00021
358.15	0.3	0.00084	0.00021
363.15	0.3	0.00081	0.00021
368.15	0.3	0.00079	0.0002
373.15	0.3	0.00076	0.0002
298.15	0.4	0.00521	0.00064
303.15	0.4	0.00441	0.00053
308.15	0.4	0.00371	0.00044
313.15	0.4	0.00315	0.00037
318.15	0.4	0.00273	0.00033
323.15	0.4	0.00236	0.00029
328.15	0.4	0.00207	0.00027
333.15	0.4	0.00183	0.00025
338.15	0.4	0.00165	0.00024
343.15	0.4	0.00149	0.00023
348.15	0.4	0.00135	0.00022
353.15	0.4	0.00122	0.00022
358.15	0.4	0.00113	0.00021
363.15	0.4	0.00105	0.00021
368.15	0.4	0.00097	0.00021
373.15	0.4	0.00091	0.00021
298.15	0.5	0.00913	0.00119
303.15	0.5	0.00751	0.00092
308.15	0.5	0.00617	0.00073
313.15	0.5	0.00513	0.00059
318.15	0.5	0.00434	0.00049
323.15	0.5	0.00368	0.00041
328.15	0.5	0.00318	0.00035
333.15	0.5	0.00276	0.00031
338.15	0.5	0.00243	0.00028
343.15	0.5	0.00216	0.00026
348.15	0.5	0.00192	0.00025
353.15	0.5	0.00172	0.00023
358.15	0.5	0.00158	0.00023
363.15	0.5	0.00145	0.00022
368.15	0.5	0.00133	0.00022
373.15	0.5	0.00123	0.00021
298.15	0.6	0.01691	0.00211
303.15	0.6	0.0134	0.00157
308.15	0.6	0.01073	0.0012
313.15	0.6	0.00868	0.00093
318.15	0.6	0.00715	0.00074
323.15	0.6	0.00592	0.00059
328.15	0.6	0.00499	0.00049
333.15	0.6	0.00423	0.00041
338.15	0.6	0.00366	0.00036
343.15	0.6	0.00318	0.00032
348.15	0.6	0.00277	0.00028
353.15	0.6	0.00243	0.00026
358.15	0.6	0.00218	0.00025
363.15	0.6	0.00197	0.00023
368.15	0.6	0.00177	0.00023
373.15	0.6	0.00161	0.00022
298.15	0.7	0.03009	0.00366
303.15	0.7	0.02311	0.00267
308.15	0.7	0.01801	0.00198
313.15	0.7	0.01422	0.00149
318.15	0.7	0.01142	0.00115
323.15	0.7	0.00926	0.0009
328.15	0.7	0.00764	0.00071
333.15	0.7	0.00636	0.00058
338.15	0.7	0.00538	0.00048
343.15	0.7	0.00459	0.00041
348.15	0.7	0.00394	0.00035
353.15	0.7	0.00341	0.00031
358.15	0.7	0.003	0.00028
363.15	0.7	0.00265	0.00026
368.15	0.7	0.00237	0.00025
373.15	0.7	0.00212	0.00023
298.15	0.8	0.05342	0.00452
303.15	0.8	0.04003	0.00331
308.15	0.8	0.03042	0.00245
313.15	0.8	0.02347	0.00185
318.15	0.8	0.01844	0.00142
323.15	0.8	0.01467	0.00111
328.15	0.8	0.01184	0.00088
333.15	0.8	0.00967	0.00071
338.15	0.8	0.00802	0.00058
343.15	0.8	0.00671	0.00048
348.15	0.8	0.00566	0.00041
353.15	0.8	0.00481	0.00036
358.15	0.8	0.00416	0.00032
363.15	0.8	0.00363	0.00029
368.15	0.8	0.00318	0.00026
373.15	0.8	0.00282	0.00025
298.15	0.9	0.07512	0.00326
303.15	0.9	0.05605	0.00267
308.15	0.9	0.04237	0.00207
313.15	0.9	0.03256	0.00161
318.15	0.9	0.02545	0.00127
323.15	0.9	0.02013	0.00101
328.15	0.9	0.01618	0.00082
333.15	0.9	0.01316	0.00067
338.15	0.9	0.01081	0.00055
343.15	0.9	0.00898	0.00046
348.15	0.9	0.00752	0.0004
353.15	0.9	0.00635	0.00035
358.15	0.9	0.00544	0.00031
363.15	0.9	0.00469	0.00028
368.15	0.9	0.00409	0.00026
373.15	0.9	0.00358	0.00024
298.15	0.95	0.07607	0.00073
303.15	0.95	0.05755	0.0004
308.15	0.95	0.04418	0.00041
313.15	0.95	0.0343	0.00043
318.15	0.95	0.02704	0.00043
323.15	0.95	0.02155	0.00042
328.15	0.95	0.01738	0.00039
333.15	0.95	0.01414	0.00037
338.15	0.95	0.01164	0.00035
343.15	0.95	0.00966	0.00032
348.15	0.95	0.00809	0.0003
353.15	0.95	0.00682	0.00028
358.15	0.95	0.00583	0.00026
363.15	0.95	0.00501	0.00025
368.15	0.95	0.00433	0.00024
373.15	0.95	0.00377	0.00023
298.15	1	0.073103	0.00058
303.15	1	0.05589	0.00039
308.15	1	0.04345	0.00035
313.15	1	0.03415	0.0003
318.15	1	0.02715	0.00027
323.15	1	0.02182	0.00024
328.15	1	0.01779	0.00023
333.15	1	0.01463	0.00022
338.15	1	0.0122	0.00021
343.15	1	0.01021	0.00021
348.15	1	0.0086	0.00021
353.15	1	0.00731	0.00021
358.15	1	0.00629	0.0002
363.15	1	0.00543	0.0002
368.15	1	0.00472	0.0002
373.15	1	0.00412	0.0002

System: piperazine + N-methyldiethanolamine + water; phases: Liquid
Fixed: Pressure, kPa = 400
Property: Viscosity, Pa*s (Liquid); method: Concentric cylinders viscometry
Temperature, K	Mass fraction of piperazine	Mass fraction of N-methyldiethanolamine	Viscosity, Pa*s	uncertainty
303.15	0.05	0.2	0.0023	0.00034
308.15	0.05	0.2	0.00198	0.0003
313.15	0.05	0.2	0.00171	0.00027
318.15	0.05	0.2	0.00151	0.00025
323.15	0.05	0.2	0.00133	0.00024
328.15	0.05	0.2	0.00119	0.00023
333.15	0.05	0.2	0.00106	0.00022
338.15	0.05	0.2	0.00097	0.00022
343.15	0.05	0.2	0.00089	0.00021
348.15	0.05	0.2	0.00082	0.00021
353.15	0.05	0.2	0.00074	0.00021
358.15	0.05	0.2	0.00073	0.00021
363.15	0.05	0.2	0.00072	0.00021
368.15	0.05	0.2	0.00071	0.0002
373.15	0.05	0.2	0.00067	0.0002
303.15	0.05	0.3	0.00369	0.00045
308.15	0.05	0.3	0.00312	0.00038
313.15	0.05	0.3	0.00264	0.00034
318.15	0.05	0.3	0.00229	0.0003
323.15	0.05	0.3	0.00198	0.00027
328.15	0.05	0.3	0.00175	0.00026
333.15	0.05	0.3	0.00154	0.00024
338.15	0.05	0.3	0.0014	0.00023
343.15	0.05	0.3	0.00127	0.00023
348.15	0.05	0.3	0.00116	0.00022
353.15	0.05	0.3	0.00105	0.00022
358.15	0.05	0.3	0.00099	0.00022
363.15	0.05	0.3	0.00095	0.00021
368.15	0.05	0.3	0.00089	0.00021
373.15	0.05	0.3	0.00084	0.00021
303.15	0.05	0.4	0.00633	0.00057
308.15	0.05	0.4	0.00526	0.00049
313.15	0.05	0.4	0.00443	0.00042
318.15	0.05	0.4	0.00377	0.00036
323.15	0.05	0.4	0.0032	0.00032
328.15	0.05	0.4	0.00278	0.00029
333.15	0.05	0.4	0.00244	0.00027
338.15	0.05	0.4	0.00219	0.00026
343.15	0.05	0.4	0.00196	0.00024
348.15	0.05	0.4	0.00174	0.00024
353.15	0.05	0.4	0.00163	0.00023
358.15	0.05	0.4	0.00162	0.00023
363.15	0.05	0.4	0.00149	0.00022
368.15	0.05	0.4	0.00126	0.00022
373.15	0.05	0.4	0.00118	0.00021
303.15	0.1	0.2	0.00328	0.00049
308.15	0.1	0.2	0.00281	0.00041
313.15	0.1	0.2	0.00239	0.00035
318.15	0.1	0.2	0.00209	0.00032
323.15	0.1	0.2	0.00181	0.00028
328.15	0.1	0.2	0.00162	0.00027
333.15	0.1	0.2	0.00143	0.00025
338.15	0.1	0.2	0.0013	0.00024
343.15	0.1	0.2	0.00117	0.00023
348.15	0.1	0.2	0.00106	0.00023
353.15	0.1	0.2	0.00095	0.00022
358.15	0.1	0.2	0.00089	0.00022
363.15	0.1	0.2	0.00082	0.00021
368.15	0.1	0.2	0.00077	0.00021
373.15	0.1	0.2	0.00076	0.00021
303.15	0.1	0.3	0.00549	0.00066
308.15	0.1	0.3	0.00462	0.00053
313.15	0.1	0.3	0.00387	0.00044
318.15	0.1	0.3	0.00332	0.00038
323.15	0.1	0.3	0.00284	0.00033
328.15	0.1	0.3	0.0025	0.00029
333.15	0.1	0.3	0.00219	0.00027
338.15	0.1	0.3	0.00196	0.00025
343.15	0.1	0.3	0.00176	0.00024
348.15	0.1	0.3	0.00158	0.00023
353.15	0.1	0.3	0.00142	0.00023
358.15	0.1	0.3	0.0013	0.00022
363.15	0.1	0.3	0.00118	0.00021
368.15	0.1	0.3	0.00113	0.00021
373.15	0.1	0.3	0.00101	0.00021
303.15	0.1	0.4	0.00954	0.00084
308.15	0.1	0.4	0.00769	0.00067
313.15	0.1	0.4	0.00628	0.00055
318.15	0.1	0.4	0.00526	0.00045
323.15	0.1	0.4	0.00439	0.00038
328.15	0.1	0.4	0.00375	0.00033
333.15	0.1	0.4	0.00324	0.0003
338.15	0.1	0.4	0.00283	0.00027
343.15	0.1	0.4	0.00251	0.00025
348.15	0.1	0.4	0.00223	0.00024
353.15	0.1	0.4	0.00201	0.00023
358.15	0.1	0.4	0.00185	0.00023
363.15	0.1	0.4	0.0016	0.00022
368.15	0.1	0.4	0.0015	0.00021
373.15	0.1	0.4	0.00138	0.00021
