Measured thermophysical data. Green Synthesis, Surface Activity, Micellar Aggregation, and Corrosion Inhibition Properties of New Gemini Quaternary Ammonium Surfactants
Source: J. Chem. Eng. Data, 2018, 10.1021/acs.jced.7b00911
Compound 1: N1,N2-bis(2-dodecanamidoethyl)-N1,N1,N2,N2-tetramethylethane-1,2-diaminium methyl carbonate, C38H78N4O8, InChI=1S/C34H70N4O2.2C2H4O3/c1-7-9-11-13-15-17-19-21-23-25-33(39)35-27-29-37(3,4)31-32-38(5,6)30-28-36-34(40)26-24-22-20-18-16-14-12-10-8-2;2*1-5-2(3)4/h7-32H2,1-6H3;2*1H3,(H,3,4), purity 98%
Compound 2: N1,N1,N2,N2-tetramethyl-N1,N2-bis(2-tetradecanamidoethyl)ethane-1,2-diaminium methyl carbonate, C42H86N4O8, InChI=1S/C38H78N4O2.2C2H4O3/c1-7-9-11-13-15-17-19-21-23-25-27-29-37(43)39-31-33-41(3,4)35-36-42(5,6)34-32-40-38(44)30-28-26-24-22-20-18-16-14-12-10-8-2;2*1-5-2(3)4/h7-36H2,1-6H3;2*1H3,(H,3,4), purity 98%
Compound 3: N1,N1,N2,N2-tetramethyl-N1,N2-bis(2-palmitamidoethyl)ethane-1,2-diaminium methyl carbonate, C46H94N4O8, InChI=1S/C42H86N4O2.2C2H4O3/c1-7-9-11-13-15-17-19-21-23-25-27-29-31-33-41(47)43-35-37-45(3,4)39-40-46(5,6)38-36-44-42(48)34-32-30-28-26-24-22-20-18-16-14-12-10-8-2;2*1-5-2(3)4/h7-40H2,1-6H3;2*1H3,(H,3,4), purity 98%
Compound 4: N1,N1,N2,N2-tetramethyl-N1,N2-bis(2-stearamidoethyl)ethane-1,2-diaminium methyl carbonate, C50H102N4O8, InChI=1S/C46H94N4O2.2C2H4O3/c1-7-9-11-13-15-17-19-21-23-25-27-29-31-33-35-37-45(51)47-39-41-49(3,4)43-44-50(5,6)42-40-48-46(52)38-36-34-32-30-28-26-24-22-20-18-16-14-12-10-8-2;2*1-5-2(3)4/h7-44H2,1-6H3;2*1H3,(H,3,4), purity 98%
Compound 5: water, H2O, InChI=1S/H2O/h1H2, purity 99.9%

System: N1,N2-bis(2-dodecanamidoethyl)-N1,N1,N2,N2-tetramethylethane-1,2-diaminium methyl carbonate + water; phases: Liquid, Gas
Fixed: Temperature, K = 298.15
Property: Surface tension liquid-gas, N/m (Liquid); method: Wilhelmy plate
Molality, mol/kg of N1,N2-bis(2-dodecanamidoethyl)-N1,N1,N2,N2-tetramethylethane-1,2-diaminium methyl carbonate	Surface tension liquid-gas, N/m	uncertainty
5e-06	0.06625	0.00241
1e-05	0.06167	0.00216
3e-05	0.04944	0.00222
5e-05	0.04511	0.00209
8e-05	0.04037	0.00203
0.0001	0.03701	0.00203
0.0003	0.02902	0.002
0.0005	0.02826	0.002
0.0008	0.02767	0.002
0.001	0.02737	0.002
0.01	0.02679	0.002

System: N1,N2-bis(2-dodecanamidoethyl)-N1,N1,N2,N2-tetramethylethane-1,2-diaminium methyl carbonate + water; phases: Liquid
Fixed: Temperature, K = 298.15
Fixed: Pressure, kPa = 100
Property: Electrical conductivity, S/m (Liquid); method: Alternating current cell with electrodes
Molality, mol/kg of N1,N2-bis(2-dodecanamidoethyl)-N1,N1,N2,N2-tetramethylethane-1,2-diaminium methyl carbonate	Electrical conductivity, S/m	uncertainty
0.001	0.006235	0.000315
0.00090909	0.005795	0.000318
0.00083333	0.00535	0.000315
0.00076923	0.005132	0.000314
0.00071429	0.004797	0.000321
0.00066667	0.004553	0.000315
0.000625	0.004375	0.000316
0.00058824	0.004165	0.000319
0.00055556	0.003994	0.000312
0.00052632	0.003902	0.000308
0.0005	0.003795	0.000315
0.00047619	0.003663	0.000322
0.00045455	0.00353	0.000314
0.00043478	0.003451	0.000315
0.00041667	0.003377	0.000312
0.0004	0.0033	0.000312
0.00038462	0.003227	0.000312
0.00037037	0.003179	0.000313
0.00035714	0.003125	0.000313
0.00033333	0.003	0.000317
0.00031864	0.002905	0.000317
0.0002965	0.002815	0.000311
0.00027273	0.00272	0.000313
0.00025187	0.002617	0.000319
0.00023077	0.00249	0.000339
0.00021789	0.00238	0.000341
0.0002	0.00221	0.000347
0.00018943	0.00211	0.00035
0.00017647	0.00202	0.000351
0.00015789	0.00184	0.000353
0.00014286	0.00169	0.000356
0.00013043	0.00156	0.000357
0.00012	0.00148	0.000357
0.00010909	0.00137	0.000359
0.0001	0.001275	0.000368
9.231e-05	0.001205	0.000371
8.571e-05	0.00112	0.000368
8e-05	0.001055	0.000374
7.5e-05	0.00098	0.000221
7.059e-05	0.00094	0.000229
6.667e-05	0.00092	0.000229
6.316e-05	0.00088	0.000226
6e-05	0.00083	0.000229
5.714e-05	0.00081	0.000231
5.455e-05	0.00078	0.000223
5.217e-05	0.00076	0.000227
5e-05	0.000725	0.000233
4.8e-05	0.0007	0.000215
4.615e-05	0.00068	0.000236
4.444e-05	0.00065	0.000245
4.286e-05	0.00064	0.000238
4.138e-05	0.000615	0.000245
4e-05	0.0006	0.000232
3.871e-05	0.00059	0.000227
3.75e-05	0.00057	0.000233
3.636e-05	0.000555	0.000247
3.529e-05	0.00054	0.000249
3.429e-05	0.00053	0.000249
3.333e-05	0.00051	0.000256
3.243e-05	0.0005	0.000255
3.158e-05	0.00049	0.000264
3.077e-05	0.00048	0.000263
3e-05	0.00047	0.000257

System: N1,N1,N2,N2-tetramethyl-N1,N2-bis(2-tetradecanamidoethyl)ethane-1,2-diaminium methyl carbonate + water; phases: Liquid, Gas
Fixed: Temperature, K = 298.15
Property: Surface tension liquid-gas, N/m (Liquid); method: Wilhelmy plate
Molality, mol/kg of N1,N1,N2,N2-tetramethyl-N1,N2-bis(2-tetradecanamidoethyl)ethane-1,2-diaminium methyl carbonate	Surface tension liquid-gas, N/m	uncertainty
5e-06	0.06583	0.00257
1e-05	0.05856	0.00223
2e-05	0.05086	0.00231
3e-05	0.04568	0.00234
5e-05	0.0387	0.0021
8e-05	0.0316	0.00204
0.0001	0.0289	0.00202
0.0005	0.02767	0.002
0.001	0.02766	0.002
0.01	0.02704	0.002

System: N1,N1,N2,N2-tetramethyl-N1,N2-bis(2-tetradecanamidoethyl)ethane-1,2-diaminium methyl carbonate + water; phases: Liquid
Fixed: Temperature, K = 298.15
Fixed: Pressure, kPa = 100
Property: Electrical conductivity, S/m (Liquid); method: Alternating current cell with electrodes
Molality, mol/kg of N1,N1,N2,N2-tetramethyl-N1,N2-bis(2-tetradecanamidoethyl)ethane-1,2-diaminium methyl carbonate	Electrical conductivity, S/m	uncertainty
0.00042857	0.00486	0.000348
0.00033333	0.00402	0.00035
0.00027273	0.00345	0.000358
0.00023077	0.00302	0.000365
0.0002	0.00269	0.00037
0.00017647	0.00243	0.000377
0.00015789	0.00222	0.000374
0.00014286	0.00204	0.000371
0.00013043	0.00191	0.000374
0.00011858	0.0018	0.000399
0.0001087	0.00167	0.000414
0.00010033	0.00151	0.000434
9.317e-05	0.001387	0.000464
8.696e-05	0.00129	0.0005
8.152e-05	0.00117	0.000497
7.673e-05	0.00106	0.000497
7.246e-05	0.00098	0.000404
6.865e-05	0.00087	0.000413
6.522e-05	0.0008	0.000452
6.211e-05	0.000744	0.00044
5.929e-05	0.00069	0.000433
5.671e-05	0.000645	0.000416
5.435e-05	0.000581	0.000429
5.217e-05	0.00056	0.000415
5.017e-05	0.000516	0.000417
4.831e-05	0.000464	0.0004
4.658e-05	0.000426	0.000403

System: N1,N1,N2,N2-tetramethyl-N1,N2-bis(2-palmitamidoethyl)ethane-1,2-diaminium methyl carbonate + water; phases: Liquid, Gas
Fixed: Temperature, K = 298.15
Property: Surface tension liquid-gas, N/m (Liquid); method: Wilhelmy plate
Molality, mol/kg of N1,N1,N2,N2-tetramethyl-N1,N2-bis(2-palmitamidoethyl)ethane-1,2-diaminium methyl carbonate	Surface tension liquid-gas, N/m	uncertainty
5e-06	0.06089	0.00298
1e-05	0.05004	0.00221
2e-05	0.04079	0.00234
3e-05	0.03321	0.00241
5e-05	0.03147	0.00204
8e-05	0.02904	0.00201
0.0005	0.0283	0.002
0.001	0.0275	0.002
0.01	0.02722	0.002

System: N1,N1,N2,N2-tetramethyl-N1,N2-bis(2-palmitamidoethyl)ethane-1,2-diaminium methyl carbonate + water; phases: Liquid
Fixed: Temperature, K = 298.15
Fixed: Pressure, kPa = 100
Property: Electrical conductivity, S/m (Liquid); method: Alternating current cell with electrodes
Molality, mol/kg of N1,N1,N2,N2-tetramethyl-N1,N2-bis(2-palmitamidoethyl)ethane-1,2-diaminium methyl carbonate	Electrical conductivity, S/m	uncertainty
0.0001	0.00562	0.0003
8.571e-05	0.00499	0.0003
7.5e-05	0.00464	0.0003
6.667e-05	0.004275	0.0003
6e-05	0.004085	0.0003
5.455e-05	0.00388	0.0003
5e-05	0.00369	0.0003
4.615e-05	0.00352	0.0003
4.286e-05	0.003365	0.0003
4e-05	0.003225	0.0003
3.75e-05	0.00309	0.0003
3.529e-05	0.002965	0.0003
3.333e-05	0.00285	0.0003
3.158e-05	0.002745	0.0003
3e-05	0.002645	0.0003
2.857e-05	0.00255	0.0003
2.727e-05	0.002465	0.0003
2.609e-05	0.002385	0.0003
2.5e-05	0.002305	0.0003
2.4e-05	0.002205	0.0003
2.308e-05	0.002145	0.0003
2.222e-05	0.00209	0.0003
2.143e-05	0.00203	0.0003
2.069e-05	0.001981	0.0003
2e-05	0.001931	0.0003
1.936e-05	0.001879	0.0003
1.875e-05	0.001829	0.0003
1.818e-05	0.00178	0.0003
1.765e-05	0.001736	0.0003
1.714e-05	0.001697	0.0003
1.667e-05	0.001663	0.0003
1.622e-05	0.001631	0.0003
1.579e-05	0.0016	0.0003
1.538e-05	0.001569	0.0003
1.5e-05	0.001539	0.0003
1.463e-05	0.001512	0.0003
1.429e-05	0.001483	0.0003
1.395e-05	0.001456	0.0003
1.364e-05	0.001438	0.0003
1.333e-05	0.001415	0.0003
1.304e-05	0.001388	0.0003
1.277e-05	0.001384	0.0003
1.25e-05	0.001378	0.0003
1.225e-05	0.001359	0.0003
1.2e-05	0.001338	0.0003
1.176e-05	0.00132	0.0003
1.154e-05	0.001299	0.0003
1.049e-05	0.001225	0.0003
9.62e-06	0.001153	0.0003
8.88e-06	0.001085	0.0003
8.24e-06	0.00102	0.0003
7.69e-06	0.000965	3e-05
7.21e-06	0.000915	3e-05
6.79e-06	0.000873	3e-05
6.41e-06	0.000836	3e-05
6.07e-06	0.000805	3e-05
5.77e-06	0.000763	3e-05
5.49e-06	0.000712	3e-05
5.24e-06	0.000662	3e-05
5.02e-06	0.000629	3e-05
4.81e-06	0.00059	3e-05
4.62e-06	0.000556	3e-05
4.44e-06	0.000532	3e-05
4.27e-06	0.000508	3e-05
4.12e-06	0.000486	3e-05
3.98e-06	0.000466	3e-05
3.85e-06	0.000447	3e-05
3.72e-06	0.000432	3e-05
3.61e-06	0.000418	3e-05
3.5e-06	0.000403	3e-05
3.39e-06	0.000394	3e-05
3.3e-06	0.000382	3e-05
2.75e-06	0.000315	3e-05
2.35e-06	0.000286	3e-05
2.06e-06	0.000264	3e-05
1.83e-06	0.000246	3e-05

System: N1,N1,N2,N2-tetramethyl-N1,N2-bis(2-stearamidoethyl)ethane-1,2-diaminium methyl carbonate + water; phases: Liquid, Gas
Fixed: Temperature, K = 298.15
Property: Surface tension liquid-gas, N/m (Liquid); method: Wilhelmy plate
Molality, mol/kg of N1,N1,N2,N2-tetramethyl-N1,N2-bis(2-stearamidoethyl)ethane-1,2-diaminium methyl carbonate	Surface tension liquid-gas, N/m	uncertainty
1e-06	0.06705	0.00909
2e-06	0.05921	0.00689
3e-06	0.05398	0.00711
5e-06	0.04932	0.00598
7e-06	0.04532	0.00426
1e-05	0.04093	0.00265
2e-05	0.0335	0.00206
5e-05	0.02941	0.002
0.0001	0.02898	0.002
0.0005	0.0288	0.002
0.001	0.02849	0.002

System: N1,N1,N2,N2-tetramethyl-N1,N2-bis(2-stearamidoethyl)ethane-1,2-diaminium methyl carbonate + water; phases: Liquid
Fixed: Temperature, K = 298.15
Fixed: Pressure, kPa = 100
Property: Electrical conductivity, S/m (Liquid); method: Alternating current cell with electrodes
Molality, mol/kg of N1,N1,N2,N2-tetramethyl-N1,N2-bis(2-stearamidoethyl)ethane-1,2-diaminium methyl carbonate	Electrical conductivity, S/m	uncertainty
5.286e-05	0.006245	0.0003
4.333e-05	0.005198	0.0003
4e-05	0.004925	0.0003
3.727e-05	0.00455	0.0003
3.308e-05	0.004075	0.0003
3e-05	0.00376	0.0003
2.765e-05	0.00345	0.0003
2.579e-05	0.00312	0.0003
2.429e-05	0.00279	0.0003
2e-05	0.001976	0.0003
1.75e-05	0.00161	0.0003
1.6e-05	0.001296	0.0003
1.5e-05	0.00112	0.0003
1.429e-05	0.000955	3e-05
1.375e-05	0.000872	3e-05
1.333e-05	0.000801	3e-05
1.3e-05	0.000743	3e-05
1.273e-05	0.000694	3e-05
1.25e-05	0.000652	3e-05
1.231e-05	0.000616	3e-05
1.214e-05	0.000584	3e-05
1.2e-05	0.000555	3e-05
1.187e-05	0.00053	3e-05
1.177e-05	0.000507	3e-05
1.167e-05	0.000486	3e-05
1.158e-05	0.000469	3e-05
1.15e-05	0.000453	3e-05
1.143e-05	0.000438	3e-05
1.136e-05	0.000424	3e-05
1.124e-05	0.000396	3e-05
1.114e-05	0.000374	3e-05
1.105e-05	0.000355	3e-05
1.097e-05	0.000339	3e-05
1.091e-05	0.000326	3e-05
1.085e-05	0.000312	3e-05
1.08e-05	0.000301	3e-05
1.076e-05	0.000292	3e-05
1.072e-05	0.000283	3e-05
1.068e-05	0.000275	3e-05
1.065e-05	0.000268	3e-05
1.062e-05	0.000261	3e-05
1.059e-05	0.000255	3e-05
1.057e-05	0.000249	3e-05
1.055e-05	0.000244	3e-05
1.052e-05	0.000239	3e-05
1.051e-05	0.000234	3e-05
1.049e-05	0.00023	3e-05
1.047e-05	0.000226	3e-05
1.046e-05	0.000222	3e-05
1.044e-05	0.000218	3e-05
1.043e-05	0.000215	3e-05
1.041e-05	0.000212	3e-05
1.04e-05	0.000209	3e-05
1.039e-05	0.000207	3e-05
1.038e-05	0.000204	3e-05
1.037e-05	0.000202	3e-05
1.036e-05	0.000199	3e-05
1.035e-05	0.000197	3e-05
1.034e-05	0.000195	3e-05
1.033e-05	0.000193	3e-05
1.032e-05	0.000189	3e-05
1.031e-05	0.000188	3e-05
1.028e-05	0.000182	3e-05
1.026e-05	0.000176	3e-05
1.024e-05	0.000171	3e-05
1.022e-05	0.00017	3e-05
1.021e-05	0.000163	3e-05
1.019e-05	0.00016	3e-05
1.018e-05	0.000157	3e-05
1.017e-05	0.000155	3e-05
1.016e-05	0.000152	3e-05
1.015e-05	0.000148	3e-05
1.014e-05	0.000147	3e-05
1.013e-05	0.000144	3e-05
1.012e-05	0.000143	3e-05
1.011e-05	0.00014	3e-05
1.01e-05	0.000138	3e-05
1.009e-05	0.000135	3e-05
