Measured thermophysical data. Thermodynamic Study of a Complex System for Carbon Capture: Butyltriacetonediamine + Water + Carbon Dioxide
Source: J. Chem. Eng. Data, 2016, 10.1021/acs.jced.6b00451
Compound 1: N-butyl-2,2,6,6-tetramethylpiperidin-4-amine, C13H28N2, InChI=1S/C13H28N2/c1-6-7-8-14-11-9-12(2,3)15-13(4,5)10-11/h11,14-15H,6-10H2,1-5H3, purity 99.3%
Compound 2: carbon dioxide, CO2, InChI=1S/CO2/c2-1-3, purity 99.995%
Compound 3: water, H2O, InChI=1S/H2O/h1H2, purity 99.999%

System: N-butyl-2,2,6,6-tetramethylpiperidin-4-amine; phases: Liquid, Gas
Property: Vapor or sublimation pressure, kPa (Liquid); method: Ebulliometric method (Recirculating still)
Temperature, K	Vapor or sublimation pressure, kPa	uncertainty
398.7	1.9	0.2
418.2	4.5	0.4
429.7	6.7	0.6
445.6	11.4	1
462.1	19.4	1.6
479.5	31.9	2.4
525.3	99.8	2

System: water + N-butyl-2,2,6,6-tetramethylpiperidin-4-amine; phases: Liquid mixture 1, Liquid mixture 2
Fixed: Pressure, kPa = 99
Property: Mass fraction of N-butyl-2,2,6,6-tetramethylpiperidin-4-amine (Liquid mixture 1); method: Titration method
Temperature, K	Mass fraction of N-butyl-2,2,6,6-tetramethylpiperidin-4-amine	uncertainty
318	0.136	0.013
323.2	0.071	0.023
328.3	0.052	0.017
333.4	0.022	0.007
343.6	0.015	0.005
353.8	0.011	0.003

System: water + N-butyl-2,2,6,6-tetramethylpiperidin-4-amine; phases: Liquid mixture 2, Liquid mixture 1
Fixed: Pressure, kPa = 99
Property: Mass fraction of N-butyl-2,2,6,6-tetramethylpiperidin-4-amine (Liquid mixture 2); method: Titration method
Temperature, K	Mass fraction of N-butyl-2,2,6,6-tetramethylpiperidin-4-amine	uncertainty
318	0.456	0.014
323.2	0.667	0.009
328.3	0.755	0.006
333.4	0.812	0.005
343.6	0.865	0.004
353.8	0.906	0.002

System: carbon dioxide + water + N-butyl-2,2,6,6-tetramethylpiperidin-4-amine; phases: Liquid, Gas
Fixed: Temperature, K = 313
Fixed: Molality, mol/kg of N-butyl-2,2,6,6-tetramethylpiperidin-4-amine = 2.02
Property: Molality, mol/kg of carbon dioxide (Liquid); method: chromatography
Pressure, kPa of carbon dioxide	Molality, mol/kg of carbon dioxide	uncertainty
5.52	2	0.087
6.52	2.05	0.089
7.52	2.079	0.091
8.52	2.119	0.093
11.52	2.234	0.098
13.52	2.313	0.101

System: carbon dioxide + water + N-butyl-2,2,6,6-tetramethylpiperidin-4-amine; phases: Liquid, Gas
Fixed: Molality, mol/kg of N-butyl-2,2,6,6-tetramethylpiperidin-4-amine = 2.02
Property: Molality, mol/kg of carbon dioxide (Liquid); method: headspace GC
Temperature, K	Pressure, kPa of carbon dioxide	Molality, mol/kg of carbon dioxide	uncertainty
313.15	3.64	1.684	0.011
313.15	7.09	1.989	0.013
313.15	11.27	2.186	0.014
313.15	14.11	2.314	0.014
313.15	17.56	2.412	0.013
313.15	34.66	2.838	0.014
313.15	62.1	3.096	0.015
323.15	3.46	1.16	0.012
323.15	6.87	1.61	0.015
323.15	12.3	1.914	0.018
323.15	14.05	2.005	0.01
323.15	23.77	2.27	0.016
323.15	26.68	2.349	0.012
323.15	35.55	2.455	0.046
323.15	35.95	2.48	0.046
323.15	50.23	2.67	0.015
323.15	54.69	2.716	0.014
333.15	6.64	0.802	0.041
333.15	7.69	1.1	0.023
333.15	10.29	1.312	0.016
333.15	14.99	1.592	0.016
333.15	20.07	1.76	0.014
333.15	32.04	2.06	0.014
333.15	33.24	2.077	0.07
333.15	32.96	2.106	0.014
333.15	43.12	2.276	0.018
333.15	48.82	2.351	0.011
333.15	66.24	2.476	0.043
333.15	68.17	2.537	0.044
393.15	5.88	0.021	0.002
393.15	13.98	0.058	0.003
393.15	23.58	0.091	0.003
393.15	31.54	0.106	0.004
393.15	56.78	0.142	0.004

System: carbon dioxide + water + N-butyl-2,2,6,6-tetramethylpiperidin-4-amine; phases: Liquid, Gas
Fixed: Molality, mol/kg of N-butyl-2,2,6,6-tetramethylpiperidin-4-amine = 2.018
Property: Vapor or sublimation pressure, kPa (Liquid); method: Closed cell (Static) method
Temperature, K	Molality, mol/kg of carbon dioxide	Vapor or sublimation pressure, kPa	uncertainty
333.15	3.334	441	20
333.15	3.369	467	21
333.15	3.537	942	61
393.15	0.519	557	13
393.15	0.707	755	14
393.15	0.822	886	13
393.15	1.126	1097	15
393.15	1.482	1615	21
393.15	2.49	3301	38
393.15	2.792	4409	90
393.15	2.975	5577	177
393.15	2.984	5656	177
