Measured thermophysical data. Design of a Salt-Free Aqueous Two-Phase System Containing Butanol, n-Butylpyridine Dicyanamide, and Water: Equilibrium Data and Correlation
Source: J. Chem. Eng. Data, 2019, 10.1021/acs.jced.9b00305
Compound 1: 1-butylpyridinium dicyanamide, C11H14N4, InChI=1S/C9H14N.C2N3/c1-2-3-7-10-8-5-4-6-9-10;3-1-5-2-4/h4-6,8-9H,2-3,7H2,1H3;/q+1;-1, purity 98%
Compound 2: butan-1-ol, C4H10O, InChI=1S/C4H10O/c1-2-3-4-5/h5H,2-4H2,1H3, purity 99.5%
Compound 3: water, H2O, InChI=1S/H2O/h1H2, purity 99.9%
Compound 4: 2-methyl-1-propanol, C4H10O, InChI=1S/C4H10O/c1-4(2)3-5/h4-5H,3H2,1-2H3, purity 99.5%

System: 1-butylpyridinium dicyanamide + butan-1-ol + water; phases: Liquid mixture 1, Liquid mixture 2
Fixed: Pressure, kPa = 97
Property: Mass fraction of butan-1-ol (Liquid mixture 1); method: Titration method
Temperature, K	Mass fraction of water	Mass fraction of butan-1-ol	uncertainty
303.15	0.3309	0.583	0.0361
303.15	0.3415	0.5674	0.0347
303.15	0.3545	0.5504	0.0364
303.15	0.3679	0.5336	0.0353
303.15	0.3748	0.5223	0.035
303.15	0.3906	0.5039	0.0352
303.15	0.4037	0.4878	0.0338
303.15	0.4165	0.4719	0.0333
303.15	0.4323	0.4547	0.0326
303.15	0.4504	0.4349	0.0321
303.15	0.4664	0.4176	0.0318
303.15	0.4826	0.3998	0.0313
303.15	0.4826	0.3998	0.0313
303.15	0.4961	0.3855	0.0307
303.15	0.511	0.3705	0.0301
303.15	0.5277	0.3545	0.0295
303.15	0.5427	0.3399	0.0292
303.15	0.5607	0.3234	0.029
303.15	0.5891	0.2965	0.0287
303.15	0.6004	0.2853	0.0285
303.15	0.6135	0.2736	0.0282
303.15	0.6268	0.2622	0.0278
303.15	0.6404	0.2495	0.0278
303.15	0.6516	0.2396	0.0279
303.15	0.6631	0.2289	0.0278
303.15	0.673	0.2202	0.0272
303.15	0.6833	0.2106	0.027
303.15	0.7026	0.1951	0.0268
303.15	0.7118	0.1872	0.0264
303.15	0.72	0.1801	0.0264
303.15	0.729	0.1728	0.0262
303.15	0.7381	0.1658	0.026
303.15	0.7463	0.159	0.0259
303.15	0.7564	0.1513	0.0256
303.15	0.7668	0.1432	0.0256
303.15	0.7777	0.1352	0.0254
308.15	0.2554	0.7127	0.0378
308.15	0.2672	0.694	0.0421
308.15	0.2784	0.677	0.0396
308.15	0.2909	0.6513	0.0402
308.15	0.303	0.6343	0.0395
308.15	0.3122	0.6188	0.0362
308.15	0.3252	0.6011	0.0394
308.15	0.3401	0.5826	0.0342
308.15	0.2554	0.7127	0.0378
308.15	0.2672	0.694	0.0421
308.15	0.2784	0.677	0.0396
308.15	0.2909	0.6513	0.0402
308.15	0.303	0.6343	0.0395
308.15	0.3122	0.6188	0.0362
308.15	0.3252	0.6011	0.0394
308.15	0.3401	0.5826	0.0342
308.15	0.4486	0.4446	0.0342
308.15	0.4631	0.4326	0.0299
308.15	0.4796	0.4152	0.0307
308.15	0.4934	0.4007	0.0309
308.15	0.5076	0.3854	0.0303
308.15	0.5234	0.37	0.03
308.15	0.5407	0.3537	0.0296
308.15	0.5571	0.3377	0.0294
308.15	0.5696	0.3256	0.0292
308.15	0.5845	0.3116	0.0292
308.15	0.5952	0.3012	0.029
308.15	0.6064	0.2904	0.0282
308.15	0.6184	0.2784	0.0278
308.15	0.6317	0.2679	0.0279
308.15	0.6421	0.2584	0.027
308.15	0.6537	0.2478	0.0273
308.15	0.6685	0.2353	0.0273
308.15	0.678	0.2271	0.0271
308.15	0.6873	0.2188	0.0272
308.15	0.6967	0.2097	0.0274
308.15	0.7048	0.2027	0.0271
308.15	0.7133	0.1956	0.0269
308.15	0.722	0.1882	0.0266
308.15	0.7289	0.1822	0.0262
308.15	0.737	0.1756	0.0261
308.15	0.7445	0.1692	0.026
308.15	0.7526	0.1627	0.0257
308.15	0.7608	0.1561	0.0256
308.15	0.7668	0.1511	0.0254
308.15	0.779	0.1419	0.0262
308.15	0.785	0.1374	0.026
308.15	0.7985	0.1278	0.0252
313.15	0.2511	0.7191	0.043
313.15	0.2658	0.6907	0.0434
313.15	0.2813	0.6672	0.0397
313.15	0.291	0.6513	0.0369
313.15	0.3047	0.6322	0.037
313.15	0.3158	0.617	0.0363
313.15	0.3274	0.6004	0.0357
313.15	0.3399	0.5823	0.036
313.15	0.3486	0.5732	0.0363
313.15	0.3572	0.561	0.0363
313.15	0.3684	0.5456	0.0359
313.15	0.3793	0.531	0.0368
313.15	0.3937	0.5139	0.0358
313.15	0.4029	0.5011	0.0337
313.15	0.4189	0.4839	0.0335
313.15	0.4302	0.469	0.0329
313.15	0.4471	0.4512	0.0326
313.15	0.4592	0.4371	0.0316
313.15	0.4745	0.4217	0.0316
313.15	0.4887	0.4067	0.0312
313.15	0.5049	0.389	0.0306
313.15	0.521	0.373	0.0302
313.15	0.538	0.3567	0.0296
313.15	0.5563	0.3393	0.0294
313.15	0.5723	0.3239	0.0291
313.15	0.5811	0.3148	0.029
313.15	0.5958	0.3014	0.0289
313.15	0.609	0.2893	0.0284
313.15	0.6205	0.2782	0.0281
313.15	0.6329	0.267	0.0278
313.15	0.6495	0.2532	0.0276
313.15	0.6627	0.2418	0.0275
313.15	0.6723	0.2329	0.0281
313.15	0.6824	0.2243	0.0274
313.15	0.6914	0.2162	0.0274
313.15	0.6985	0.2081	0.0272
313.15	0.7086	0.2012	0.0271
313.15	0.7164	0.1944	0.0271
313.15	0.7239	0.188	0.0265
313.15	0.7312	0.1819	0.0269
313.15	0.7376	0.1762	0.0259
313.15	0.7437	0.1708	0.0256
313.15	0.753	0.1634	0.0252
313.15	0.7617	0.1591	0.0249
313.15	0.7675	0.1558	0.0244
313.15	0.7711	0.1522	0.0243
313.15	0.7845	0.1428	0.0254
313.15	0.801	0.1327	0.0252
323.15	0.2228	0.7772	0.0336
323.15	0.2461	0.7466	0.0364
323.15	0.2591	0.7257	0.0356
323.15	0.2712	0.7057	0.0367
323.15	0.2936	0.6765	0.0359
323.15	0.3014	0.6621	0.0364
323.15	0.3203	0.6363	0.0382
323.15	0.3328	0.6169	0.0376
323.15	0.342	0.6016	0.0387
323.15	0.3525	0.5848	0.038
323.15	0.3627	0.5703	0.0369
323.15	0.378	0.5496	0.0358
323.15	0.3892	0.5341	0.0354
323.15	0.4037	0.5162	0.035
323.15	0.4157	0.5011	0.0344
323.15	0.4295	0.4847	0.0339
323.15	0.4436	0.4684	0.0333
323.15	0.4595	0.4501	0.0327
323.15	0.4739	0.434	0.0319
323.15	0.4926	0.4136	0.0314
323.15	0.5112	0.3951	0.0306
323.15	0.5285	0.3772	0.0301
323.15	0.5512	0.3555	0.0293
323.15	0.5721	0.336	0.0297
323.15	0.5803	0.3265	0.0295
323.15	0.5947	0.3125	0.0293
323.15	0.6106	0.2974	0.0286
323.15	0.6275	0.282	0.0283
323.15	0.6428	0.2681	0.0282
323.15	0.6568	0.2556	0.0281
323.15	0.6661	0.2465	0.0281
323.15	0.6774	0.236	0.0281
323.15	0.6875	0.2269	0.0277
323.15	0.697	0.2181	0.0276
323.15	0.7074	0.2087	0.0273
323.15	0.7177	0.2	0.0271
323.15	0.7284	0.1911	0.0268
323.15	0.7386	0.182	0.0267
323.15	0.7473	0.1746	0.0265
323.15	0.7563	0.1671	0.0264
323.15	0.7658	0.1594	0.0262
323.15	0.7758	0.1514	0.0259
323.15	0.7872	0.1425	0.0258
323.15	0.7991	0.1336	0.0255

System: 1-butylpyridinium dicyanamide + butan-1-ol + water; phases: Liquid mixture 2, Liquid mixture 1
Fixed: Pressure, kPa = 97
Property: Mass fraction of butan-1-ol (Liquid mixture 2); method: OTHER
Property: Mass fraction of butan-1-ol (Liquid mixture 1); method: OTHER
Property: Mass fraction of water (Liquid mixture 1); method: OTHER
Temperature, K	Mass fraction of water	Mass fraction of butan-1-ol	uncertainty	Mass fraction of butan-1-ol	uncertainty	Mass fraction of water	uncertainty
303.15	0.6818	0.211	0.026	0.4105	0.0312	0.4749	
303.15	0.7342	0.1701	0.0253	0.4818	0.032	0.4109	
303.15	0.771	0.1443	0.0243	0.5357	0.0327	0.365	
303.15	0.8009	0.1251	0.0237	0.5804	0.0333	0.3286	
303.15	0.8267	0.1099	0.0233	0.619	0.035	0.2986	
303.15	0.8615	0.0893	0.0228	0.6899	0.0358	0.2488	
303.15	0.8817	0.0805	0.0214	0.7549	0.0361	0.2048	
303.15	0.9218	0.067	0.0212	0.7762	0.0407	0.1997	
308.15	0.7049	0.2016	0.0255	0.4666	0.0326	0.4339	
308.15	0.7275	0.1844	0.0248	0.4947	0.0337	0.4102	
308.15	0.7798	0.1479	0.0243	0.5621	0.0334	0.3563	
308.15	0.8079	0.1302	0.0231	0.5987	0.035	0.3288	
308.15	0.8206	0.1227	0.0237	0.6155	0.0352	0.3167	
308.15	0.8441	0.1095	0.0233	0.6466	0.031	0.2949	
308.15	0.8824	0.0868	0.0222	0.6569	0.0346	0.2904	
308.15	0.9182	0.0744	0.0216	0.6675	0.0367	0.282	
313.15	0.6496	0.2485	0.0268	0.4191	0.0312	0.4776	
313.15	0.684	0.2193	0.0261	0.4608	0.0322	0.4406	
313.15	0.7314	0.1822	0.0254	0.5213	0.0329	0.3896	
313.15	0.767	0.1568	0.0244	0.5683	0.0337	0.3522	
313.15	0.7966	0.1374	0.0238	0.6079	0.0347	0.3223	
313.15	0.8224	0.1217	0.0234	0.6426	0.0356	0.2973	
313.15	0.8773	0.0895	0.0226	0.6688	0.037	0.2781	
313.15	0.9099	0.0768	0.0216	0.6894	0.0356	0.265	
323.15	0.668	0.2407	0.0267	0.4483	0.0323	0.4642	
323.15	0.6978	0.2155	0.0264	0.4861	0.0328	0.4321	
323.15	0.7215	0.1964	0.0256	0.5171	0.0337	0.4067	
323.15	0.7595	0.1679	0.0249	0.5681	0.0341	0.3666	
323.15	0.7905	0.1465	0.0241	0.6105	0.0318	0.335	
323.15	0.8358	0.118	0.024	0.6299	0.0363	0.313	
323.15	0.8575	0.1055	0.0235	0.6577	0.0318	0.2951	
323.15	0.9079	0.0747	0.0235	0.6861	0.0424	0.2824	

System: 1-butylpyridinium dicyanamide + 2-methyl-1-propanol + water; phases: Liquid mixture 1, Liquid mixture 2
Fixed: Pressure, kPa = 97
Property: Mass fraction of 2-methyl-1-propanol (Liquid mixture 1); method: Titration method
Temperature, K	Mass fraction of water	Mass fraction of 2-methyl-1-propanol	uncertainty
303.15	0.1864	0.7813	0.0501
303.15	0.2011	0.7544	0.0422
303.15	0.2071	0.7342	0.0417
303.15	0.2211	0.7179	0.0406
303.15	0.2328	0.6975	0.0368
303.15	0.2395	0.6871	0.0371
303.15	0.2481	0.6733	0.0388
303.15	0.2594	0.6566	0.0384
303.15	0.2695	0.6408	0.0368
303.15	0.278	0.625	0.037
303.15	0.2878	0.6113	0.0379
303.15	0.3044	0.591	0.0358
303.15	0.309	0.5818	0.0357
303.15	0.3121	0.5744	0.0358
303.15	0.3209	0.5624	0.0359
303.15	0.337	0.5445	0.0344
303.15	0.3467	0.5318	0.0341
303.15	0.3529	0.5222	0.034
303.15	0.3672	0.5061	0.0338
303.15	0.3798	0.4918	0.0336
303.15	0.3959	0.4741	0.033
303.15	0.3981	0.4684	0.033
303.15	0.4107	0.4552	0.0328
303.15	0.4241	0.4418	0.0312
303.15	0.434	0.4306	0.0313
303.15	0.4467	0.4187	0.0313
303.15	0.4596	0.4043	0.0306
303.15	0.4729	0.3908	0.0306
303.15	0.4888	0.3754	0.0299
303.15	0.4994	0.3649	0.0298
303.15	0.5133	0.3517	0.0297
303.15	0.5232	0.3415	0.0294
303.15	0.5354	0.3298	0.0293
303.15	0.5477	0.3182	0.0289
303.15	0.5588	0.308	0.0287
303.15	0.5659	0.3008	0.0287
303.15	0.5779	0.29	0.0285
303.15	0.587	0.2815	0.0282
303.15	0.5945	0.2739	0.0282
303.15	0.6049	0.265	0.0281
303.15	0.6145	0.2565	0.0276
303.15	0.6213	0.2502	0.0275
303.15	0.6294	0.2428	0.0275
303.15	0.637	0.2366	0.0274
303.15	0.6463	0.2286	0.0272
303.15	0.6554	0.2206	0.0269
303.15	0.6629	0.2142	0.0269
303.15	0.6708	0.2074	0.0267
303.15	0.6786	0.2013	0.0266
303.15	0.6852	0.1957	0.0264
303.15	0.7008	0.183	0.0262
303.15	0.7082	0.1772	0.0259
303.15	0.7163	0.1708	0.0257
303.15	0.7246	0.1644	0.0254
303.15	0.734	0.1575	0.0256
303.15	0.7476	0.1479	0.025
308.15	0.244	0.6778	0.0395
308.15	0.2685	0.646	0.0348
308.15	0.2785	0.6326	0.0356
308.15	0.2939	0.613	0.0367
308.15	0.3044	0.5955	0.0368
308.15	0.3102	0.5843	0.0374
308.15	0.3224	0.569	0.0375
308.15	0.329	0.5607	0.037
308.15	0.3343	0.5515	0.036
308.15	0.3442	0.5395	0.0363
308.15	0.351	0.5293	0.0351
308.15	0.3587	0.5193	0.0342
308.15	0.3665	0.5094	0.0342
308.15	0.3771	0.4999	0.0334
308.15	0.3872	0.4882	0.0325
308.15	0.4007	0.4736	0.033
308.15	0.4116	0.4619	0.0323
308.15	0.4284	0.4425	0.0317
308.15	0.4423	0.4284	0.0315
308.15	0.4541	0.417	0.0308
308.15	0.4632	0.4071	0.0306
308.15	0.474	0.3962	0.0305
308.15	0.4852	0.3851	0.0302
308.15	0.4959	0.3744	0.03
308.15	0.5093	0.3614	0.0299
308.15	0.5177	0.353	0.0297
308.15	0.5264	0.3434	0.0296
308.15	0.5372	0.3338	0.0294
308.15	0.5467	0.3248	0.0286
308.15	0.556	0.3156	0.0286
308.15	0.5659	0.3067	0.0285
308.15	0.5773	0.2968	0.0285
308.15	0.5863	0.2889	0.0285
308.15	0.5976	0.2773	0.0281
308.15	0.6095	0.2664	0.0286
308.15	0.6198	0.258	0.0283
308.15	0.626	0.2509	0.028
308.15	0.6333	0.2443	0.0279
308.15	0.6416	0.2365	0.028
308.15	0.653	0.2268	0.0274
308.15	0.6607	0.2202	0.0273
308.15	0.6674	0.2146	0.0272
308.15	0.6737	0.2093	0.027
308.15	0.6875	0.197	0.027
308.15	0.6946	0.1914	0.0268
308.15	0.7039	0.1837	0.0264
308.15	0.7129	0.1767	0.0259
308.15	0.7182	0.1725	0.0259
308.15	0.7258	0.1665	0.0258
308.15	0.7441	0.1533	0.025
308.15	0.7509	0.1483	0.0247
308.15	0.7647	0.1391	0.0246
308.15	0.7751	0.1327	0.0241
313.15	0.1824	0.8176	0.0477
313.15	0.1869	0.8006	0.0447
313.15	0.1976	0.7824	0.0453
313.15	0.2096	0.7623	0.0437
313.15	0.2219	0.7414	0.0449
313.15	0.231	0.7232	0.045
313.15	0.2359	0.7086	0.0434
313.15	0.2433	0.6947	0.0415
313.15	0.2519	0.6816	0.0389
313.15	0.2617	0.6657	0.0376
313.15	0.2698	0.6548	0.0367
313.15	0.2783	0.6441	0.0372
313.15	0.2865	0.6316	0.0368
313.15	0.2971	0.6162	0.036
313.15	0.3037	0.6049	0.0367
313.15	0.3135	0.5913	0.0362
313.15	0.3268	0.5756	0.0353
313.15	0.3325	0.5652	0.0355
313.15	0.3439	0.5516	0.035
313.15	0.3534	0.5391	0.0345
313.15	0.361	0.5283	0.0347
313.15	0.3728	0.5143	0.0346
313.15	0.383	0.5022	0.0343
313.15	0.3925	0.4905	0.0342
313.15	0.4042	0.4764	0.0336
313.15	0.4134	0.4654	0.0334
313.15	0.4239	0.4534	0.0327
313.15	0.4344	0.442	0.0319
313.15	0.4472	0.4293	0.0313
313.15	0.4593	0.4166	0.031
313.15	0.4727	0.4031	0.0307
313.15	0.4856	0.3902	0.0304
313.15	0.4986	0.3777	0.0299
313.15	0.5091	0.3667	0.0296
313.15	0.5233	0.354	0.0296
313.15	0.5351	0.3426	0.0287
313.15	0.5461	0.3319	0.0291
313.15	0.5595	0.3208	0.0289
313.15	0.5691	0.3107	0.0287
313.15	0.5801	0.3002	0.0288
313.15	0.588	0.2928	0.0285
313.15	0.5972	0.2843	0.0282
313.15	0.6072	0.2755	0.0278
313.15	0.6192	0.2652	0.0275
313.15	0.6269	0.2582	0.0277
313.15	0.6376	0.2494	0.0274
313.15	0.6467	0.2414	0.0273
313.15	0.6502	0.2374	0.0271
313.15	0.6622	0.2276	0.0271
313.15	0.6699	0.221	0.0269
313.15	0.6778	0.2143	0.0267
313.15	0.6856	0.2076	0.0268
313.15	0.6934	0.2012	0.0264
313.15	0.7006	0.1952	0.0261
313.15	0.7084	0.1889	0.026
313.15	0.7171	0.1821	0.026
313.15	0.7251	0.176	0.0257
313.15	0.7313	0.1709	0.0252
313.15	0.7391	0.1649	0.0254
313.15	0.7473	0.1589	0.0249
313.15	0.7609	0.1495	0.0256
313.15	0.7775	0.1383	0.025
323.15	0.1959	0.8041	0.0415
323.15	0.2145	0.7709	0.0398
323.15	0.234	0.7357	0.0406
323.15	0.24	0.7278	0.0386
323.15	0.2483	0.7142	0.0389
323.15	0.2575	0.6983	0.0376
323.15	0.2698	0.6819	0.0375
323.15	0.2782	0.668	0.0372
323.15	0.2854	0.6558	0.0372
323.15	0.2965	0.6408	0.0374
323.15	0.3127	0.6159	0.0371
323.15	0.3231	0.6021	0.0369
323.15	0.3359	0.5817	0.0362
323.15	0.3476	0.5669	0.0363
323.15	0.3564	0.5554	0.0352
323.15	0.3666	0.5416	0.0351
323.15	0.3752	0.5299	0.0352
323.15	0.3842	0.5187	0.0353
323.15	0.3936	0.5073	0.0351
323.15	0.4042	0.4942	0.0344
323.15	0.4141	0.4818	0.0335
323.15	0.426	0.468	0.0327
323.15	0.4396	0.454	0.0321
323.15	0.452	0.4409	0.0316
323.15	0.4639	0.428	0.0313
323.15	0.4782	0.4132	0.031
323.15	0.492	0.3993	0.0305
323.15	0.5044	0.3871	0.0301
323.15	0.5176	0.374	0.0297
323.15	0.5311	0.3612	0.0296
323.15	0.5439	0.3492	0.0294
323.15	0.5558	0.3375	0.0292
323.15	0.5665	0.3273	0.0293
323.15	0.5778	0.3167	0.0288
323.15	0.5865	0.3082	0.0287
323.15	0.601	0.2952	0.0283
323.15	0.6123	0.2847	0.0281
323.15	0.6239	0.2746	0.0279
323.15	0.6325	0.2667	0.0278
323.15	0.6437	0.2569	0.0277
323.15	0.6524	0.2493	0.0279
323.15	0.6601	0.2422	0.0276
323.15	0.6692	0.2342	0.0276
323.15	0.675	0.2281	0.0275
323.15	0.6831	0.2218	0.0274
323.15	0.6909	0.2147	0.0272
323.15	0.6986	0.2082	0.0268
323.15	0.7055	0.2023	0.0267
323.15	0.7144	0.1949	0.0264
323.15	0.7228	0.1879	0.0263
323.15	0.7336	0.1794	0.026
323.15	0.744	0.1712	0.0256
323.15	0.7567	0.1617	0.0256
323.15	0.7725	0.1502	0.0252

System: 1-butylpyridinium dicyanamide + 2-methyl-1-propanol + water; phases: Liquid mixture 1, Liquid mixture 2
Fixed: Pressure, kPa = 97
Property: Mass fraction of 2-methyl-1-propanol (Liquid mixture 1); method: OTHER
Property: Mass fraction of 2-methyl-1-propanol (Liquid mixture 2); method: OTHER
Property: Mass fraction of water (Liquid mixture 2); method: OTHER
Temperature, K	Mass fraction of water	Mass fraction of 2-methyl-1-propanol	uncertainty	Mass fraction of 2-methyl-1-propanol	uncertainty	Mass fraction of water	uncertainty
303.15	0.6538	0.2216	0.0257	0.4332	0.0316	0.4325	
303.15	0.693	0.1913	0.0252	0.4783	0.0324	0.3928	
303.15	0.7322	0.1634	0.0245	0.5247	0.0333	0.3543	
303.15	0.764	0.1426	0.0237	0.5629	0.0344	0.3243	
303.15	0.8038	0.1189	0.0231	0.6114	0.036	0.2886	
303.15	0.8655	0.0847	0.0225	0.644	0.037	0.2682	
303.15	0.904	0.0688	0.0212	0.6914	0.0358	0.2354	
303.15	0.9276	0.0633	0.0206	0.708	0.038	0.2279	
308.15	0.5967	0.275	0.027	0.5419	0.0334	0.3449	
308.15	0.6276	0.2475	0.0268	0.5768	0.0339	0.3169	
308.15	0.6744	0.2085	0.0262	0.6302	0.0349	0.2766	
308.15	0.7025	0.1867	0.0255	0.662	0.036	0.254	
308.15	0.7386	0.1599	0.0242	0.7476	0.0368	0.1946	
308.15	0.8184	0.1098	0.0231	0.7973	0.0402	0.1658	
308.15	0.8874	0.0757	0.022	0.8165	0.0455	0.1607	
308.15	0.9274	0.0584	0.0218	0.8317	0.0498	0.1576	
313.15	0.5899	0.2877	0.027	0.5703	0.0358	0.3307	
313.15	0.6486	0.2374	0.0266	0.6324	0.0356	0.2862	
313.15	0.6801	0.212	0.025	0.6745	0.0378	0.2588	
313.15	0.7122	0.1912	0.0246	0.7068	0.0395	0.2406	
313.15	0.7463	0.1647	0.0252	0.7333	0.0371	0.222	
313.15	0.8014	0.1227	0.0237	0.7568	0.0324	0.2111	
313.15	0.8373	0.1105	0.0216	0.7788	0.0319	0.1987	
313.15	0.8919	0.0871	0.0222	0.7965	0.036	0.1936	
323.15	0.5456	0.3439	0.0284	0.5326	0.0345	0.3756	
323.15	0.6115	0.2819	0.0277	0.6038	0.0348	0.3215	
323.15	0.6567	0.2428	0.0273	0.6524	0.0354	0.2877	
323.15	0.6987	0.2042	0.0263	0.6974	0.0376	0.2552	
323.15	0.7288	0.1836	0.0244	0.7156	0.0376	0.2475	
323.15	0.787	0.1447	0.0231	0.7505	0.0386	0.2249	
323.15	0.8519	0.1149	0.0218	0.7982	0.0347	0.1908	
323.15	0.8787	0.1069	0.021	0.8048	0.0393	0.1926	

System: butan-1-ol + water; phases: Liquid mixture 1, Liquid mixture 2
Property: Mass fraction of butan-1-ol (Liquid mixture 1); method: Titration method
Temperature, K	Pressure, kPa	Mass fraction of butan-1-ol	uncertainty
323.15	97	0.7772	0.0202

System: 2-methyl-1-propanol + water; phases: Liquid mixture 1, Liquid mixture 2
Fixed: Pressure, kPa = 97
Property: Mass fraction of 2-methyl-1-propanol (Liquid mixture 1); method: Titration method
Temperature, K	Mass fraction of 2-methyl-1-propanol	uncertainty
313.15	0.8176	0.0202
323.15	0.8041	0.0202
