Measured thermophysical data. Isopiestic Measurements on Aqueous Solutions of Heavy Metal Sulfates: MSO4 + H2O (M = Mn, Co, Ni, Cu, Zn). 2. T = 373.15 K
Source: J. Chem. Eng. Data, 2016, 10.1021/acs.jced.6b00046
Compound 1: calcium chloride, CaCl2, InChI=1S/Ca.2ClH/h;2*1H/q+2;;/p-2, purity 99.9%
Compound 2: lithium chloride, ClLi, InChI=1S/ClH.Li/h1H;/q;+1/p-1, purity 99.95%
Compound 3: manganese(II) sulfate, MnO4S, InChI=1S/Mn.H2O4S/c;1-5(2,3)4/h;(H2,1,2,3,4)/q+2;/p-2
Compound 4: cobalt(II) sulfate, CoO4S, InChI=1S/Co.H2O4S/c;1-5(2,3)4/h;(H2,1,2,3,4)/q+2;/p-2
Compound 5: nickel monosulfate, NiO4S, InChI=1S/Ni.H2O4S/c;1-5(2,3)4/h;(H2,1,2,3,4)/q+2;/p-2
Compound 6: copper sulfate, CuO4S, InChI=1S/Cu.H2O4S/c;1-5(2,3)4/h;(H2,1,2,3,4)/q+2;/p-2
Compound 7: zinc sulfate, O4SZn, InChI=1S/H2O4S.Zn/c1-5(2,3)4;/h(H2,1,2,3,4);/q;+2/p-2
Compound 8: water, H2O, InChI=1S/H2O/h1H2, purity 99.8%

System: water + calcium chloride; phases: Liquid
Fixed: Temperature, K = 373.15
Fixed: Pressure, kPa = 100
Property: (Relative) activity of water (Liquid); method: Isopiestic
Molality, mol/kg of calcium chloride	(Relative) activity of water	uncertainty
0.07829	0.9965	0.05
0.9186	0.9542	0.05
1.0907	0.9436	0.05
1.3265	0.9278	0.05
1.4968	0.9157	0.05
1.7176	0.8989	0.05
1.9956	0.8761	0.05
2.0511	0.8714	0.05
2.3498	0.8449	0.05
0.0805	0.9964	0.05
0.1412	0.9938	0.05
0.2116	0.9907	0.05
0.2366	0.9895	0.05
0.2963	0.9868	0.05
0.3447	0.9846	0.05
0.4132	0.9813	0.05
0.4689	0.9786	0.05
0.5808	0.9729	0.05
0.7209	0.9655	0.05
0.7797	0.9622	0.05
0.9186	0.9542	0.05
1.0907	0.9436	0.05
1.3265	0.9278	0.05
1.4968	0.9157	0.05
1.7176	0.8989	0.05
1.9956	0.8761	0.05
2.0511	0.8714	0.05
2.3498	0.8449	0.05

System: lithium chloride + water; phases: Liquid
Fixed: Temperature, K = 373.15
Fixed: Pressure, kPa = 100
Property: (Relative) activity of water (Liquid); method: Isopiestic
Molality, mol/kg of lithium chloride	(Relative) activity of water	uncertainty
0.1075	0.9964	0.05
1.3017	0.954	0.05
1.571	0.9433	0.05
1.9538	0.9273	0.05
2.2274	0.9154	0.05
2.597	0.8986	0.05
3.0724	0.8759	0.05
3.1665	0.8713	0.05
3.6888	0.8446	0.05

System: water + manganese(II) sulfate; phases: Liquid
Fixed: Temperature, K = 373.15
Fixed: Pressure, kPa = 100
Property: (Relative) activity of water (Liquid); method: isopiestic
Molality, mol/kg of manganese(II) sulfate	(Relative) activity of water	uncertainty
0.2263	0.9964	0.05
0.4348	0.9938	0.05
0.6425	0.9907	0.05
0.7904	0.9895	0.05
1.0214	0.9868	0.05
1.2014	0.9846	0.05
1.443	0.9813	0.05
1.633	0.9786	0.05
1.9507	0.9729	0.05
2.3842	0.9655	0.05
2.539	0.9622	0.05

System: water + cobalt(II) sulfate; phases: Liquid
Fixed: Temperature, K = 373.15
Fixed: Pressure, kPa = 100
Property: (Relative) activity of water (Liquid); method: Isopiestic
Molality, mol/kg of cobalt(II) sulfate	(Relative) activity of water	uncertainty
0.2173	0.9964	0.05
0.4219	0.9938	0.05
0.6213	0.9907	0.05
0.769	0.9895	0.05
0.9784	0.9868	0.05
1.1458	0.9846	0.05
1.368	0.9813	0.05
1.5411	0.9786	0.05
1.8559	0.9729	0.05
2.2045	0.9655	0.05
2.3346	0.9622	0.05

System: water + nickel monosulfate; phases: Liquid
Fixed: Temperature, K = 373.15
Fixed: Pressure, kPa = 100
Property: (Relative) activity of water (Liquid); method: Isopiestic
Molality, mol/kg of nickel monosulfate	(Relative) activity of water	uncertainty
0.2177	0.9964	0.05
0.4233	0.9938	0.05
0.7676	0.9895	0.05
0.981	0.9868	0.05
1.1486	0.9846	0.05
1.367	0.9813	0.05
1.5376	0.9786	0.05
1.8485	0.9729	0.05
2.1858	0.9655	0.05
2.3135	0.9622	0.05
2.5986	0.9542	0.05
2.9129	0.9436	0.05
3.2946	0.9278	0.05
3.5463	0.9157	0.05
3.8622	0.8989	0.05
4.2241	0.8761	0.0501
4.2944	0.8714	0.0501
4.6731	0.8449	0.0501

System: water + copper sulfate; phases: Liquid
Fixed: Temperature, K = 373.15
Fixed: Pressure, kPa = 100
Property: (Relative) activity of water (Liquid); method: Isopiestic
Molality, mol/kg of copper sulfate	(Relative) activity of water	uncertainty
0.2132	0.9964	0.05
0.4141	0.9938	0.05
0.7461	0.9895	0.05
0.9535	0.9868	0.05
1.1211	0.9846	0.05
1.3446	0.9813	0.05
1.5234	0.9786	0.05
1.8434	0.9729	0.05
2.2271	0.9655	0.05
2.3717	0.9622	0.05
2.6755	0.9542	0.05
3.0316	0.9436	0.05
3.4746	0.9278	0.05
3.7852	0.9157	0.05
4.165	0.8989	0.05
4.63	0.8761	0.05
4.8707	0.8714	0.05

System: water + zinc sulfate; phases: Liquid
Fixed: Temperature, K = 373.15
Fixed: Pressure, kPa = 100
Property: (Relative) activity of water (Liquid); method: Isopiestic
Molality, mol/kg of zinc sulfate	(Relative) activity of water	uncertainty
0.2186	0.9964	0.05
0.4244	0.9938	0.05
0.6247	0.9907	0.05
0.7691	0.9895	0.05
0.9807	0.9868	0.05
1.1459	0.9846	0.05
1.369	0.9813	0.05
1.5435	0.9786	0.05
1.857	0.9729	0.05
2.2394	0.9655	0.05
2.358	0.9622	0.05
2.6688	0.9542	0.05
3.0097	0.9436	0.05
3.4413	0.9278	0.05
3.7254	0.9157	0.05
