Measured thermophysical data. Phase Diagrams of (NH4)2SO4-Al2(SO4)3-H2O Ternary System: Effect of Sulfuric Acid and Its Application in Recovery of Aluminum from Coal Fly Ash
Source: J. Chem. Eng. Data, 2019, 10.1021/acs.jced.8b00740
Compound 1: ammonium sulfate, H8N2O4S, InChI=1S/2H3N.H2O4S/c;;1-5(2,3)4/h2*1H3;(H2,1,2,3,4), purity 99%
Compound 2: aluminum sulfate, Al2O12S3, InChI=1S/2Al.3H2O4S/c;;3*1-5(2,3)4/h;;3*(H2,1,2,3,4)/q2*+3;;;/p-6, purity 99%
Compound 3: water, H2O, InChI=1S/H2O/h1H2, purity 99.9%

System: ammonium sulfate + aluminum sulfate + water; phases: Liquid, Crystal of intercomponent compound 1
Fixed: Pressure, kPa = 95
Property: Mass fraction of aluminum sulfate (Liquid); method: titration and chemical analysis
Temperature, K	Mass fraction of ammonium sulfate	Mass fraction of aluminum sulfate	uncertainty
298.15	0	0.2776	0.0023
298.15	0.0011	0.2746	0.0023
328.15	0	0.3086	0.0028
328.15	0.0037	0.3037	0.0023
328.15	0.0035	0.3018	0.0023
353.15	0	0.3664	0.0036
353.15	0.0214	0.3647	0.0032

System: ammonium sulfate + aluminum sulfate + water; phases: Liquid, Crystal of intercomponent compound 2
Fixed: Pressure, kPa = 95
Property: Mass fraction of aluminum sulfate (Liquid); method: titration and chemical analysis
Temperature, K	Mass fraction of ammonium sulfate	Mass fraction of aluminum sulfate	uncertainty
298.15	0.0011	0.2746	0.0057
298.15	0.0016	0.2667	0.0057
298.15	0.0026	0.1918	0.0042
298.15	0.0057	0.1261	0.0043
298.15	0.0132	0.0675	0.004
298.15	0.0261	0.0306	0.0034
298.15	0.0386	0.0203	0.0033
298.15	0.0577	0.0139	0.0023
298.15	0.0938	0.0123	0.0018
298.15	0.1493	0.0094	0.0014
298.15	0.1932	0.0083	0.0012
298.15	0.2557	0.0068	0.0012
298.15	0.3108	0.0048	0.0011
298.15	0.3763	0.0044	0.0011
298.15	0.4269	0.0041	0.001
328.15	0.0037	0.3037	0.004
328.15	0.0035	0.3018	0.004
328.15	0.0059	0.2686	0.006
328.15	0.0125	0.2057	0.0062
328.15	0.0366	0.1217	0.0052
328.15	0.0669	0.0842	0.0043
328.15	0.0983	0.0653	0.0035
328.15	0.1373	0.0526	0.0031
328.15	0.1711	0.0481	0.0032
328.15	0.2089	0.0449	0.0029
328.15	0.2606	0.0413	0.0027
328.15	0.33	0.0375	0.0012
328.15	0.389	0.0369	0.0011
328.15	0.4291	0.0354	0.0011
328.15	0.4295	0.0358	0.0011
328.15	0.4291	0.0354	0.0011
353.15	0.0214	0.3647	0.0088
353.15	0.0299	0.3182	0.008
353.15	0.0431	0.2959	0.0077
353.15	0.0702	0.2392	0.0071
353.15	0.109	0.2027	0.0063
353.15	0.153	0.1815	0.0057
353.15	0.2243	0.1662	0.0051

System: ammonium sulfate + aluminum sulfate + water; phases: Liquid, Crystal
Fixed: Pressure, kPa = 95
Property: Mass fraction of aluminum sulfate (Liquid); method: titration and chemical analysis
Temperature, K	Mass fraction of ammonium sulfate	Mass fraction of aluminum sulfate	uncertainty
298.15	0.4269	0.0041	0.0041
298.15	0.4272	0	
328.15	0.4295	0.0358	0.0033
328.15	0.4291	0.0354	0.0033
328.15	0.4623	0	
353.15	0.4716	0.0021	0.0006
353.15	0.485	0	

System: ammonium sulfate + aluminum sulfate + water; phases: Liquid, Crystal
Fixed: Temperature, K = 353.15
Fixed: Pressure, kPa = 95
Property: Mass fraction of aluminum sulfate (Liquid); method: titration and chemical analysis
Mass fraction of ammonium sulfate	Mass fraction of aluminum sulfate	uncertainty
0.2968	0.1281	0.0022
0.3394	0.0885	0.0019
0.387	0.0614	0.0019
0.4247	0.0314	0.0018
0.4589	0.02	0.0011

System: aluminum sulfate + water; phases: Liquid, Crystal of intercomponent compound 1
Fixed: Pressure, kPa = 95
Property: Mass fraction of aluminum sulfate (Liquid); method: titration and chemical analysis
Temperature, K	Mass fraction of aluminum sulfate	uncertainty
328.15	0.3086	0.0028
353.15	0.3664	0.0036
298.15	0.2776	0.0023

System: ammonium sulfate + water; phases: Liquid, Crystal
Fixed: Pressure, kPa = 95
Property: Solid-liquid equilibrium temperature, K (Liquid); method: titration and chemical analysis
Mass fraction of ammonium sulfate	Solid-liquid equilibrium temperature, K	uncertainty
0.4272	298.15	3
0.4623	328.15	3
0.485	353.15	4
