Measured thermophysical data. Solubility Determination and Modeling of p-Nitrobenzamide Dissolved in Twelve Neat Solvents from 283.15 to 328.15 K
Source: J. Chem. Eng. Data, 2019, 10.1021/acs.jced.9b00065
Compound 1: p-nitrobenzamide, C7H6N2O3, InChI=1S/C7H6N2O3/c8-7(10)5-1-3-6(4-2-5)9(11)12/h1-4H,(H2,8,10), purity 98.3%
Compound 2: ethanol, C2H6O, InChI=1S/C2H6O/c1-2-3/h3H,2H2,1H3, purity 99.5%
Compound 3: propan-1-ol, C3H8O, InChI=1S/C3H8O/c1-2-3-4/h4H,2-3H2,1H3, purity 99.7%
Compound 4: propan-2-ol, C3H8O, InChI=1S/C3H8O/c1-3(2)4/h3-4H,1-2H3, purity 99.4%
Compound 5: butan-1-ol, C4H10O, InChI=1S/C4H10O/c1-2-3-4-5/h5H,2-4H2,1H3, purity 99.7%
Compound 6: 2-methyl-1-propanol, C4H10O, InChI=1S/C4H10O/c1-4(2)3-5/h4-5H,3H2,1-2H3, purity 99.5%
Compound 7: water, H2O, InChI=1S/H2O/h1H2, purity 99.7%
Compound 8: ethyl acetate, C4H8O2, InChI=1S/C4H8O2/c1-3-6-4(2)5/h3H2,1-2H3, purity 99.4%
Compound 9: acetonitrile, C2H3N, InChI=1S/C2H3N/c1-2-3/h1H3, purity 99.5%
Compound 10: dimethyl sulfoxide, C2H6OS, InChI=1S/C2H6OS/c1-4(2)3/h1-2H3, purity 99.6%
Compound 11: dimethylformamide, C3H7NO, InChI=1S/C3H7NO/c1-4(2)3-5/h3H,1-2H3, purity 99.5%
Compound 12: N-methylpyrrolidone, C5H9NO, InChI=1S/C5H9NO/c1-6-4-2-3-5(6)7/h2-4H2,1H3, purity 99.5%
Compound 13: 1,2-ethanediol, C2H6O2, InChI=1S/C2H6O2/c3-1-2-4/h3-4H,1-2H2, purity 99.7%

System: p-nitrobenzamide; phases: Crystal, Liquid, Air at 1 atmosphere
Property: Triple point temperature, K (Crystal); method: DSC
Triple point temperature, K	uncertainty
473.45	1.22

System: p-nitrobenzamide; phases: Crystal, Liquid, Air at 1 atmosphere
Property: Molar enthalpy of transition or fusion, kJ/mol (Crystal); method: DSC
Molar enthalpy of transition or fusion, kJ/mol	uncertainty
33.04	0.93

System: p-nitrobenzamide + ethanol; phases: Liquid, Crystal
Fixed: Pressure, kPa = 101.2
Property: Mole fraction of p-nitrobenzamide (Liquid); method: Chromatography
Temperature, K	Mole fraction of p-nitrobenzamide	uncertainty
283.15	0.001569	8.8e-05
288.15	0.001821	0.000102
293.15	0.002309	0.000129
298.15	0.002868	0.000161
303.15	0.00351	0.000197
308.15	0.004291	0.000241
313.15	0.005126	0.000287
318.15	0.006164	0.000346
323.15	0.00735	0.000412
328.15	0.008825	0.000495

System: p-nitrobenzamide + propan-1-ol; phases: Liquid, Crystal
Fixed: Pressure, kPa = 101.2
Property: Mole fraction of p-nitrobenzamide (Liquid); method: Chromatography
Temperature, K	Mole fraction of p-nitrobenzamide	uncertainty
283.15	0.0009605	5.39e-05
288.15	0.001192	6.7e-05
293.15	0.001513	8.5e-05
298.15	0.001888	0.000106
303.15	0.002277	0.000128
308.15	0.002761	0.000155
313.15	0.003265	0.000183
318.15	0.003808	0.000213
323.15	0.004475	0.000251
328.15	0.005329	0.000299

System: p-nitrobenzamide + propan-2-ol; phases: Liquid, Crystal
Fixed: Pressure, kPa = 101.2
Property: Mole fraction of p-nitrobenzamide (Liquid); method: Chromatography
Temperature, K	Mole fraction of p-nitrobenzamide	uncertainty
283.15	0.001273	7.1e-05
288.15	0.001498	8.4e-05
293.15	0.001846	0.000104
298.15	0.002303	0.000129
303.15	0.002857	0.00016
308.15	0.003408	0.000191
313.15	0.004076	0.000229
318.15	0.004923	0.000276
323.15	0.005785	0.000324
328.15	0.006775	0.00038

System: p-nitrobenzamide + butan-1-ol; phases: Liquid, Crystal
Fixed: Pressure, kPa = 101.2
Property: Mole fraction of p-nitrobenzamide (Liquid); method: Chromatography
Temperature, K	Mole fraction of p-nitrobenzamide	uncertainty
283.15	0.0004494	2.52e-05
288.15	0.0005542	3.11e-05
293.15	0.000712	3.99e-05
298.15	0.0009072	5.09e-05
303.15	0.001162	6.5e-05
308.15	0.001443	8.1e-05
313.15	0.001755	9.8e-05
318.15	0.00213	0.000119
323.15	0.002527	0.000142
328.15	0.003006	0.000169

System: p-nitrobenzamide + 2-methyl-1-propanol; phases: Liquid, Crystal
Fixed: Pressure, kPa = 101.2
Property: Mole fraction of p-nitrobenzamide (Liquid); method: Chromatography
Temperature, K	Mole fraction of p-nitrobenzamide	uncertainty
283.15	0.0007512	4.21e-05
288.15	0.0009417	5.28e-05
293.15	0.001191	6.7e-05
298.15	0.001495	8.4e-05
303.15	0.001867	0.000105
308.15	0.00233	0.000131
313.15	0.002861	0.00016
318.15	0.003415	0.000191
323.15	0.004028	0.000226
328.15	0.004666	0.000262

System: p-nitrobenzamide + water; phases: Liquid, Crystal
Fixed: Pressure, kPa = 101.2
Property: Mole fraction of p-nitrobenzamide (Liquid); method: Chromatography
Temperature, K	Mole fraction of p-nitrobenzamide	uncertainty
283.15	0.0003216	1.8e-05
288.15	0.0003952	2.22e-05
293.15	0.0004977	2.79e-05
298.15	0.0006	3.36e-05
303.15	0.000754	4.23e-05
308.15	0.0009239	5.18e-05
313.15	0.00112	6.3e-05
318.15	0.001367	7.7e-05
323.15	0.001605	9e-05
328.15	0.001858	0.000104

System: p-nitrobenzamide + ethyl acetate; phases: Liquid, Crystal
Fixed: Pressure, kPa = 101.2
Property: Mole fraction of p-nitrobenzamide (Liquid); method: Chromatography
Temperature, K	Mole fraction of p-nitrobenzamide	uncertainty
283.15	0.002026	0.000114
288.15	0.002361	0.000132
293.15	0.002865	0.000161
298.15	0.003761	0.000211
303.15	0.004708	0.000264
308.15	0.005825	0.000327
313.15	0.007058	0.000396
318.15	0.008603	0.000482
323.15	0.01025	0.00057
328.15	0.01222	0.00069

System: p-nitrobenzamide + acetonitrile; phases: Liquid, Crystal
Fixed: Pressure, kPa = 101.2
Property: Mole fraction of p-nitrobenzamide (Liquid); method: Chromatography
Temperature, K	Mole fraction of p-nitrobenzamide	uncertainty
283.15	0.000628	3.52e-05
288.15	0.0008063	4.52e-05
293.15	0.0009944	5.58e-05
298.15	0.001262	7.1e-05
303.15	0.001549	8.7e-05
308.15	0.00195	0.000109
313.15	0.002324	0.00013
318.15	0.002801	0.000157
323.15	0.003323	0.000186
328.15	0.003957	0.000222

System: p-nitrobenzamide + dimethyl sulfoxide; phases: Liquid, Crystal
Fixed: Pressure, kPa = 101.2
Property: Mole fraction of p-nitrobenzamide (Liquid); method: Chromatography
Temperature, K	Mole fraction of p-nitrobenzamide	uncertainty
293.15	0.03719	0.00208
298.15	0.04246	0.00238
303.15	0.05043	0.00283
308.15	0.06132	0.00344
313.15	0.07471	0.00419
318.15	0.08876	0.00498
323.15	0.1029	0.00577
328.15	0.1169	0.00655

System: p-nitrobenzamide + dimethylformamide; phases: Liquid, Crystal
Fixed: Pressure, kPa = 101.2
Property: Mole fraction of p-nitrobenzamide (Liquid); method: Chromatography
Temperature, K	Mole fraction of p-nitrobenzamide	uncertainty
283.15	0.03696	0.00207
288.15	0.04159	0.00233
293.15	0.04917	0.00276
298.15	0.05764	0.00323
303.15	0.06906	0.00387
308.15	0.08115	0.00455
313.15	0.09453	0.0053
318.15	0.1092	0.00612
323.15	0.1233	0.00691
328.15	0.1391	0.0078

System: p-nitrobenzamide + N-methylpyrrolidone; phases: Liquid, Crystal
Fixed: Pressure, kPa = 101.2
Property: Mole fraction of p-nitrobenzamide (Liquid); method: Chromatography
Temperature, K	Mole fraction of p-nitrobenzamide	uncertainty
283.15	0.04185	0.00235
288.15	0.04719	0.00265
293.15	0.05493	0.00308
298.15	0.06526	0.00366
303.15	0.07754	0.00435
308.15	0.09169	0.00514
313.15	0.1084	0.00608
318.15	0.1248	0.007
323.15	0.1442	0.00808
328.15	0.1686	0.00945

System: p-nitrobenzamide + 1,2-ethanediol; phases: Liquid, Crystal
Fixed: Pressure, kPa = 101.2
Property: Mole fraction of p-nitrobenzamide (Liquid); method: Chromatography
Temperature, K	Mole fraction of p-nitrobenzamide	uncertainty
283.15	0.00356	0.0002
288.15	0.004165	0.000233
293.15	0.004965	0.000278
298.15	0.005997	0.000336
303.15	0.007188	0.000403
308.15	0.008728	0.000489
313.15	0.01022	0.00057
318.15	0.01191	0.00067
323.15	0.01379	0.00077
328.15	0.01639	0.00092
