Measured thermophysical data. Fixed-Path Length Laser-Induced Sound Pinging: A Streamlined Method for Sound Speed Determination in Arbitrary Liquids
Source: J. Chem. Eng. Data, 2019, 10.1021/acs.jced.9b00436
Compound 1: choline chloride, C5H14ClNO, InChI=1S/C5H14NO.ClH/c1-6(2,3)4-5-7;/h7H,4-5H2,1-3H3;1H/q+1;/p-1
Compound 2: glycerol, C3H8O3, InChI=1S/C3H8O3/c4-1-3(6)2-5/h3-6H,1-2H2
Compound 3: 1,2-ethanediol, C2H6O2, InChI=1S/C2H6O2/c3-1-2-4/h3-4H,1-2H2
Compound 4: urea, CH4N2O, InChI=1S/CH4N2O/c2-1(3)4/h(H4,2,3,4)
Compound 5: propanedioic acid, C3H4O4, InChI=1S/C3H4O4/c4-2(5)1-3(6)7/h1H2,(H,4,5)(H,6,7)
Compound 6: trihexyl(tetradecyl)phosphonium chloride, C32H68ClP, InChI=1S/C32H68P.ClH/c1-5-9-13-17-18-19-20-21-22-23-24-28-32-33(29-25-14-10-6-2,30-26-15-11-7-3)31-27-16-12-8-4;/h5-32H2,1-4H3;1H/q+1;/p-1
Compound 7: tetraoctylammonium bromide, C32H68BrN, InChI=1S/C32H68N.BrH/c1-5-9-13-17-21-25-29-33(30-26-22-18-14-10-6-2,31-27-23-19-15-11-7-3)32-28-24-20-16-12-8-4;/h5-32H2,1-4H3;1H/q+1;/p-1
Compound 8: methyltrioctylammonium bromide, C25H54BrN, InChI=1S/C25H54N.BrH/c1-5-8-11-14-17-20-23-26(4,24-21-18-15-12-9-6-2)25-22-19-16-13-10-7-3;/h5-25H2,1-4H3;1H/q+1;/p-1
Compound 9: hexadecane, C16H34, InChI=1S/C16H34/c1-3-5-7-9-11-13-15-16-14-12-10-8-6-4-2/h3-16H2,1-2H3
Compound 10: decanoic acid, C10H20O2, InChI=1S/C10H20O2/c1-2-3-4-5-6-7-8-9-10(11)12/h2-9H2,1H3,(H,11,12)
Compound 11: water, H2O, InChI=1S/H2O/h1H2, purity 99.9%

System: hexadecane; phases: Liquid
Fixed: Pressure, kPa = 100
Fixed: Frequency, MHz = 5
Property: Speed of sound, m/s (Liquid); method: Single path-length method
Temperature, K	Speed of sound, m/s	uncertainty
293	1356	27
298	1340	27
303	1325	27
313	1287	26
318	1268	25
323	1248	25
328	1227	25
333	1210	24

System: water; phases: Liquid
Fixed: Pressure, kPa = 100
Fixed: Frequency, MHz = 5
Property: Speed of sound, m/s (Liquid); method: Single path-length method
Temperature, K	Speed of sound, m/s	uncertainty
293	1483	30
298	1501	30
303	1511.5	30.2
308	1520.5	30.4
313	1527.5	30.6
318	1535	31
323	1542	31
328	1547	31
333	1550	31

System: choline chloride + urea; phases: Liquid
Fixed: Pressure, kPa = 100
Fixed: Amount ratio of solute to solvent of urea = 2
Property: Mass density, kg/m3 (Liquid); method: Vibrating tube method
Temperature, K	Mass density, kg/m3	uncertainty
293	1200.1	24
298	1198.1	24
303	1194.5	23.9
308	1191.7	23.8
313	1188.7	23.8
318	1185.5	23.7
323	1183.1	23.7
328	1179.2	23.6
333	1177.3	23.6

System: choline chloride + urea; phases: Liquid
Fixed: Pressure, kPa = 100
Fixed: Amount ratio of solute to solvent of urea = 2
Property: Viscosity, Pa*s (Liquid); method: Falling or rolling sphere viscometry
Temperature, K	Viscosity, Pa*s	uncertainty
293	1.372	0.5665
298	0.9851	0.4046
303	0.5273	0.2147
308	0.3972	0.161
313	0.2381	0.096
318	0.1816	0.073
323	0.1198	0.0481
328	0.0982	0.0394
333	0.0686	0.0275

System: choline chloride + urea; phases: Liquid
Fixed: Pressure, kPa = 100
Fixed: Amount ratio of solute to solvent of urea = 2
Fixed: Frequency, MHz = 5
Property: Speed of sound, m/s (Liquid); method: Single path-length method
Temperature, K	Speed of sound, m/s	uncertainty
293	2045	41
298	2035	41
303	2027	41
308	2020	40
313	2009	40
318	2002	40
323	1992	40
328	1983	40
333	1976	40
308	2018	40

System: choline chloride + urea; phases: Liquid
Property: Speed of sound, m/s (Liquid); method: Single path-length method
Mole fraction of choline chloride	Temperature, K	Pressure, kPa	Frequency, MHz	Speed of sound, m/s	uncertainty
0.333	308	100	5	2016	40

System: choline chloride + glycerol; phases: Liquid
Fixed: Pressure, kPa = 100
Fixed: Amount ratio of solute to solvent of glycerol = 2
Property: Mass density, kg/m3 (Liquid); method: Vibrating tube method
Temperature, K	Mass density, kg/m3	uncertainty
293	1194.3	23.9
298	1191.7	23.8
303	1188.5	23.8
308	1185.5	23.7
313	1182.7	23.7
318	1179.3	23.6
323	1177	23.5
328	1173.1	23.5
333	1171.3	23.4

System: choline chloride + glycerol; phases: Liquid
Fixed: Pressure, kPa = 100
Fixed: Amount ratio of solute to solvent of glycerol = 2
Property: Viscosity, Pa*s (Liquid); method: Falling or rolling sphere viscometry
Temperature, K	Viscosity, Pa*s	uncertainty
293	0.473	0.1921
298	0.3644	0.1475
303	0.2468	0.0995
308	0.1938	0.078
313	0.1334	0.0535
318	0.1104	0.0443
323	0.0816	0.0327
328	0.0702	0.0281
333	0.0538	0.0215

System: choline chloride + glycerol; phases: Liquid
Fixed: Pressure, kPa = 100
Fixed: Amount ratio of solute to solvent of glycerol = 2
Fixed: Frequency, MHz = 5
Property: Speed of sound, m/s (Liquid); method: Single path-length method
Temperature, K	Speed of sound, m/s	uncertainty
293	1987	40
298	1975	40
303	1963	39
308	1952	39
313	1941	39
318	1932	39
323	1923	38
328	1910	38
333	1900	38

System: choline chloride + 1,2-ethanediol; phases: Liquid
Fixed: Pressure, kPa = 100
Fixed: Amount ratio of solute to solvent of 1,2-ethanediol = 2
Property: Mass density, kg/m3 (Liquid); method: Vibrating tube method
Temperature, K	Mass density, kg/m3	uncertainty
293	1117.1	22.3
298	1114.5	22.3
303	1111.4	22.2
308	1108.6	22.2
313	1105.7	22.1
318	1102.6	22.1
323	1100.1	22
328	1096.7	21.9
333	1094.7	21.9

System: choline chloride + 1,2-ethanediol; phases: Liquid
Fixed: Pressure, kPa = 100
Fixed: Amount ratio of solute to solvent of 1,2-ethanediol = 2
Property: Viscosity, Pa*s (Liquid); method: Falling or rolling sphere viscometry
Temperature, K	Viscosity, Pa*s	uncertainty
293	0.05	0.02
298	0.0404	0.0162
303	0.0336	0.0134
308	0.0279	0.0112
313	0.0236	0.0094
318	0.0199	0.008
323	0.0172	0.0069
328	0.0146	0.0058
333	0.0128	0.0051

System: choline chloride + 1,2-ethanediol; phases: Liquid
Fixed: Pressure, kPa = 100
Fixed: Amount ratio of solute to solvent of 1,2-ethanediol = 2
Fixed: Frequency, MHz = 5
Property: Speed of sound, m/s (Liquid); method: Single path-length method
Temperature, K	Speed of sound, m/s	uncertainty
293	1896	38
298	1882	38
303	1871	37
308	1860	37
313	1848	37
318	1837	37
323	1826	37
328	1813	36
333	1802	36

System: choline chloride + propanedioic acid; phases: Liquid
Fixed: Pressure, kPa = 100
Fixed: Amount ratio of solute to solvent of propanedioic acid = 1
Property: Mass density, kg/m3 (Liquid); method: Vibrating tube method
Temperature, K	Mass density, kg/m3	uncertainty
293	1185.1	23.7
298	1182.1	23.7
303	1178.6	23.6
308	1175.6	23.5
313	1172.3	23.5
318	1169.1	23.4
323	1166	23.3
328	1162.7	23.3
333	1160.3	23.2

System: choline chloride + propanedioic acid; phases: Liquid
Fixed: Pressure, kPa = 100
Fixed: Amount ratio of solute to solvent of propanedioic acid = 2
Property: Viscosity, Pa*s (Liquid); method: Falling or rolling sphere viscometry
Temperature, K	Viscosity, Pa*s	uncertainty
303	1.1286	0.4644
308	0.8129	0.3328
313	0.5973	0.2434
318	0.4461	0.181
323	0.3423	0.1385

System: choline chloride + propanedioic acid; phases: Liquid
Fixed: Pressure, kPa = 100
Fixed: Amount ratio of solute to solvent of propanedioic acid = 2
Fixed: Frequency, MHz = 5
Property: Speed of sound, m/s (Liquid); method: Single path-length method
Temperature, K	Speed of sound, m/s	uncertainty
303	1876	38
308	1863	37
313	1851	37
318	1838	37
323	1825	37
328	1812	36
333	1799	36

System: trihexyl(tetradecyl)phosphonium chloride + decanoic acid; phases: Liquid
Fixed: Pressure, kPa = 100
Fixed: Amount ratio of solute to solvent of decanoic acid = 2
Property: Mass density, kg/m3 (Liquid); method: Vibrating tube method
Temperature, K	Mass density, kg/m3	uncertainty
293	898.5	18.1
298	895.4	18
303	893.2	18
308	888.6	17.9
313	885.4	17.8
318	881.9	17.7
323	879.1	17.7
328	877.1	17.6
333	874.9	17.6

System: trihexyl(tetradecyl)phosphonium chloride + decanoic acid; phases: Liquid
Fixed: Pressure, kPa = 100
Fixed: Amount ratio of solute to solvent of decanoic acid = 2
Property: Viscosity, Pa*s (Liquid); method: Falling or rolling sphere viscometry
Temperature, K	Viscosity, Pa*s	uncertainty
293	0.3463	0.1402
298	0.2605	0.1052
303	0.1978	0.0797
308	0.1516	0.0609
313	0.1179	0.0473
318	0.0937	0.0376
323	0.076	0.0305
328	0.0628	0.0252
333	0.0528	0.0211

System: trihexyl(tetradecyl)phosphonium chloride + decanoic acid; phases: Liquid
Fixed: Pressure, kPa = 100
Fixed: Amount ratio of solute to solvent of decanoic acid = 2
Fixed: Frequency, MHz = 5
Property: Speed of sound, m/s (Liquid); method: Single path-length method
Temperature, K	Speed of sound, m/s	uncertainty
293	1437	29
298	1418	29
303	1402	28
308	1384	28
313	1366	28
318	1349	27
323	1333	27
328	1314	27
333	1303	26

System: tetraoctylammonium bromide + decanoic acid; phases: Liquid
Fixed: Pressure, kPa = 100
Fixed: Amount ratio of solute to solvent of decanoic acid = 2
Property: Mass density, kg/m3 (Liquid); method: Vibrating tube method
Temperature, K	Mass density, kg/m3	uncertainty
293	933.7	18.7
298	930.6	18.6
303	928.4	18.6
308	923.7	18.5
313	920.5	18.4
318	916.9	18.4
323	913.9	18.3
328	911.8	18.2
333	909.5	18.2

System: tetraoctylammonium bromide + decanoic acid; phases: Liquid
Fixed: Pressure, kPa = 100
Fixed: Amount ratio of solute to solvent of decanoic acid = 2
Property: Viscosity, Pa*s (Liquid); method: Falling or rolling sphere viscometry
Temperature, K	Viscosity, Pa*s	uncertainty
293	0.9089	0.3727
298	0.648	0.2644
303	0.472	0.1917
308	0.35	0.1417
313	0.2643	0.1067
318	0.2011	0.081
323	0.1569	0.063
328	0.1234	0.0495
333	0.0984	0.0394

System: tetraoctylammonium bromide + decanoic acid; phases: Liquid
Fixed: Pressure, kPa = 100
Fixed: Amount ratio of solute to solvent of decanoic acid = 2
Fixed: Frequency, MHz = 5
Property: Speed of sound, m/s (Liquid); method: Single path-length method
Temperature, K	Speed of sound, m/s	uncertainty
293	1416	28
298	1402	28
303	1382	28
308	1365	27
313	1347	27
318	1331	27
323	1317	26
328	1301	26
333	1287	26

System: methyltrioctylammonium bromide + decanoic acid; phases: Liquid
Fixed: Pressure, kPa = 100
Fixed: Amount ratio of solute to solvent of decanoic acid = 2
Property: Mass density, kg/m3 (Liquid); method: Vibrating tube method
Temperature, K	Mass density, kg/m3	uncertainty
293	945.4	18.9
298	942.2	18.9
303	939.9	18.8
308	935.2	18.7
313	931.9	18.7
318	928.3	18.6
323	925.3	18.5
328	923.1	18.5
333	920.8	18.4

System: methyltrioctylammonium bromide + decanoic acid; phases: Liquid
Fixed: Pressure, kPa = 100
Fixed: Amount ratio of solute to solvent of decanoic acid = 2
Property: Viscosity, Pa*s (Liquid); method: Falling or rolling sphere viscometry
Temperature, K	Viscosity, Pa*s	uncertainty
293	0.806	0.3299
298	0.5726	0.2333
303	0.4114	0.1669
308	0.3052	0.1234
313	0.2262	0.0912
318	0.1715	0.069
323	0.1324	0.0532
328	0.1045	0.0419
333	0.0837	0.0335

System: methyltrioctylammonium bromide + decanoic acid; phases: Liquid
Fixed: Pressure, kPa = 100
Fixed: Amount ratio of solute to solvent of decanoic acid = 2
Fixed: Frequency, MHz = 5
Property: Speed of sound, m/s (Liquid); method: Single path-length method
Temperature, K	Speed of sound, m/s	uncertainty
293	1406	28
298	1393	28
303	1375	28
308	1357	27
313	1341	27
318	1326	27
323	1312	26
328	1297	26
333	1283	26

System: tetraoctylammonium bromide + methyltrioctylammonium bromide + decanoic acid; phases: Liquid
Fixed: Pressure, kPa = 100
Fixed: Amount ratio of solute to solvent of tetraoctylammonium bromide = 0.25
Fixed: Amount ratio of solute to solvent of methyltrioctylammonium bromide = 0.25
Property: Mass density, kg/m3 (Liquid); method: Vibrating tube method
Temperature, K	Mass density, kg/m3	uncertainty
293	939.2	18.8
298	936.1	18.7
303	933.8	18.7
308	929.2	18.6
313	925.9	18.5
318	922.3	18.5
323	919.4	18.4
328	917.2	18.4
333	914.9	18.3

System: tetraoctylammonium bromide + methyltrioctylammonium bromide + decanoic acid; phases: Liquid
Fixed: Pressure, kPa = 100
Fixed: Amount ratio of solute to solvent of tetraoctylammonium bromide = 0.25
Fixed: Amount ratio of solute to solvent of methyltrioctylammonium bromide = 0.25
Fixed: Frequency, MHz = 5
Property: Speed of sound, m/s (Liquid); method: Single path-length method
Temperature, K	Speed of sound, m/s	uncertainty
293	1414	28
298	1395	28
303	1382	28
308	1362	27
313	1345	27
318	1328	27
323	1311	26
328	1296	26
333	1281	26

System: choline chloride + urea + water; phases: Liquid
Fixed: Temperature, K = 308
Fixed: Pressure, kPa = 100
Fixed: Frequency, MHz = 5
Property: Speed of sound, m/s (Liquid); method: Single path-length method
Mole fraction of choline chloride	Mole fraction of urea	Speed of sound, m/s	uncertainty
0	0	1521	30
0.082	0.164	1844	37
0.14	0.28	1936	39
0.186	0.372	1965	39
0.219	0.438	1985	40
0.246	0.492	1994	40
0.269	0.537	2000	40
0.287	0.575	2004	41
0.303	0.605	2010	43
0.315	0.63	2012	40
0.333	0.667	2016	40

System: choline chloride + urea + water; phases: Liquid
Fixed: Solvent: Amount ratio of component to other component of binary solvent of urea = 2
Fixed: Temperature, K = 308
Fixed: Pressure, kPa = 100
Fixed: Frequency, MHz = 5
Property: Speed of sound, m/s (Liquid); method: Single path-length method
Mass fraction of water	Speed of sound, m/s	uncertainty
1	1521	30
0.8	1635	33
0.6	1730	35
0.5	1788	36
0.4	1848	37
0.39	1844	37
0.22	1935	39
0.2	1955	39
0.14	1965	39
0.1	1985	40
0.05	2000	40
0	2018	40
