Measured thermophysical data. Proposal of Isobutyl Alcohol as Entrainer To Separate Mixtures Formed by Ethanol and Water and 1-Propanol and Water
Source: J. Chem. Eng. Data, 2017, 10.1021/acs.jced.7b00098
Compound 1: ethanol, C2H6O, InChI=1S/C2H6O/c1-2-3/h3H,2H2,1H3
Compound 2: propan-1-ol, C3H8O, InChI=1S/C3H8O/c1-2-3-4/h4H,2-3H2,1H3
Compound 3: water, H2O, InChI=1S/H2O/h1H2
Compound 4: 2-methyl-1-propanol, C4H10O, InChI=1S/C4H10O/c1-4(2)3-5/h4-5H,3H2,1-2H3

System: ethanol + 2-methyl-1-propanol + water; phases: Liquid, Gas
Fixed: Pressure, kPa = 101.3
Property: Mole fraction of water (Liquid); method: Chromatography
Property: Mole fraction of water (Gas); method: Chromatography
Property: Mole fraction of ethanol (Gas); method: Chromatography
Temperature, K	Mole fraction of ethanol	Mole fraction of water	uncertainty	Mole fraction of water	uncertainty	Mole fraction of ethanol	uncertainty
352.65	0.888	0.044	0.004	0.059	0.004	0.919	
359.3	0.201	0.468	0.005	0.513	0.006	0.29	
359.58	0.155	0.569	0.005	0.552	0.006	0.246	
355.38	0.328	0.62	0.005	0.427	0.006	0.524	
359.78	0.28	0.271	0.004	0.41	0.006	0.375	
359.87	0.387	0.153	0.004	0.274	0.005	0.518	
360.12	0.246	0.299	0.005	0.426	0.006	0.341	
352.92	0.644	0.287	0.005	0.262	0.005	0.71	
360.3	0.262	0.263	0.004	0.408	0.006	0.359	
360.36	0.176	0.388	0.005	0.508	0.006	0.254	
360.64	0.245	0.264	0.004	0.43	0.006	0.336	
357.15	0.416	0.277	0.005	0.348	0.005	0.514	
360.81	0.489	0.041	0.004	0.092	0.004	0.7	
360.84	0.573	0.075	0.004	0.184	0.004	0.6	
361.52	0.098	0.435	0.005	0.566	0.006	0.15	
356	0.335	0.542	0.005	0.437	0.006	0.478	
361.65	0.255	0.202	0.004	0.371	0.005	0.364	
361.72	0.165	0.298	0.005	0.487	0.006	0.241	
361.81	0.15	0.32	0.005	0.499	0.006	0.222	
362.29	0.371	0.079	0.004	0.195	0.004	0.544	
353.46	0.695	0.189	0.004	0.203	0.004	0.753	
362.72	0.051	0.411	0.005	0.588	0.006	0.082	
357.28	0.252	0.612	0.005	0.475	0.006	0.407	
363.03	0.016	0.456	0.005	0.584	0.006	0.029	
363.51	0.18	0.194	0.004	0.398	0.006	0.278	
363.73	0.171	0.198	0.004	0.424	0.006	0.262	
368.91	0.105	0.09	0.004	0.291	0.005	0.191	
356.44	0.516	0.198	0.004	0.272	0.005	0.609	
373.35	0.062	0.037	0.004	0.189	0.004	0.139	
353.55	0.519	0.424	0.005	0.334	0.005	0.637	
353.57	0.813	0.065	0.004	0.08	0.004	0.878	
353.97	0.578	0.301	0.005	0.292	0.005	0.657	
354.38	0.423	0.522	0.005	0.385	0.005	0.578	
352.75	0.767	0.162	0.004	0.17	0.004	0.807	
354.78	0.463	0.41	0.005	0.364	0.005	0.57	
356.48	0.236	0.714	0.005	0.463	0.006	0.468	
356.66	0.404	0.325	0.005	0.373	0.005	0.5	
356.81	0.641	0.061	0.004	0.107	0.004	0.775	
356.88	0.54	0.152	0.004	0.224	0.004	0.652	
356.92	0.666	0.037	0.004	0.074	0.004	0.812	
357.47	0.318	0.416	0.005	0.438	0.006	0.42	
357.83	0.152	0.801	0.004	0.493	0.006	0.401	
358.08	0.305	0.375	0.005	0.436	0.006	0.402	
358.24	0.236	0.506	0.006	0.496	0.006	0.34	
358.71	0.167	0.687	0.005	0.534	0.006	0.307	

System: propan-1-ol + 2-methyl-1-propanol + water; phases: Liquid, Gas
Fixed: Pressure, kPa = 101.3
Property: Mole fraction of water (Liquid); method: Chromatography
Property: Mole fraction of water (Gas); method: Chromatography
Property: Mole fraction of propan-1-ol (Gas); method: Chromatography
Temperature, K	Mole fraction of propan-1-ol	Mole fraction of water	uncertainty	Mole fraction of water	uncertainty	Mole fraction of propan-1-ol	uncertainty
360.91	0.445	0.513	0.006	0.577	0.006	0.396	
363.45	0.165	0.341	0.005	0.596	0.006	0.128	
363.91	0.347	0.272	0.005	0.518	0.007	0.272	
361.08	0.36	0.598	0.005	0.601	0.006	0.367	
364.14	0.069	0.345	0.005	0.627	0.006	0.054	
364.9	0.246	0.261	0.004	0.524	0.007	0.198	
365.1	0.028	0.304	0.005	0.6	0.006	0.023	
365.22	0.124	0.271	0.004	0.564	0.006	0.1	
365.54	0.073	0.269	0.004	0.569	0.006	0.06	
365.77	0.845	0.114	0.004	0.299	0.005	0.681	
366.36	0.064	0.233	0.004	0.544	0.007	0.055	
362.02	0.64	0.315	0.005	0.492	0.007	0.485	
366.51	0.359	0.18	0.004	0.426	0.006	0.303	
367.98	0.762	0.071	0.004	0.199	0.004	0.696	
368.34	0.028	0.183	0.004	0.492	0.007	0.027	
361.23	0.244	0.722	0.005	0.618	0.006	0.341	
368.88	0.261	0.135	0.004	0.381	0.006	0.237	
369.5	0.129	0.136	0.004	0.415	0.006	0.122	
369.84	0.195	0.202	0.004	0.482	0.007	0.165	
370.59	0.188	0.112	0.004	0.353	0.005	0.185	
361.28	0.545	0.409	0.005	0.545	0.007	0.431	
361.38	0.278	0.568	0.005	0.624	0.006	0.263	
362.35	0.375	0.346	0.005	0.559	0.007	0.288	
361.41	0.385	0.451	0.005	0.592	0.006	0.312	
361.55	0.371	0.597	0.005	0.597	0.006	0.371	
361.84	0.259	0.468	0.005	0.617	0.006	0.213	
361.87	0.464	0.372	0.005	0.551	0.007	0.36	
362.52	0.169	0.427	0.005	0.633	0.006	0.134	
362.96	0.563	0.271	0.004	0.482	0.007	0.433	
363.04	0.115	0.413	0.005	0.637	0.006	0.092	
363.13	0.27	0.342	0.005	0.578	0.006	0.209	
363.16	0.735	0.221	0.004	0.415	0.006	0.564	
363.23	0.464	0.269	0.004	0.497	0.007	0.36	

System: propan-1-ol + 2-methyl-1-propanol + water; phases: Liquid mixture 2, Liquid mixture 1, Gas
Fixed: Pressure, kPa = 101.3
Property: Mole fraction of water (Liquid mixture 2); method: Chromatography
Property: Mole fraction of propan-1-ol (Liquid mixture 2); method: Chromatography
Property: Mole fraction of water (Liquid mixture 1); method: Chromatography
Property: Mole fraction of propan-1-ol (Liquid mixture 1); method: Chromatography
Property: Mole fraction of propan-1-ol (Gas); method: Chromatography
Property: Mole fraction of water (Gas); method: Chromatography
Temperature, K	Mole fraction of water	uncertainty	Mole fraction of propan-1-ol	uncertainty	Mole fraction of water	uncertainty	Mole fraction of propan-1-ol	uncertainty	Mole fraction of propan-1-ol	uncertainty	Mole fraction of water	uncertainty
362.68	0.972	0.014	0.001	0.001	0.549	0.057	0.011	0.011	0.01	0.01	0.662	0.006
362.3	0.971	0.004	0.006	0.004	0.554	0.005	0.043	0.004	0.042	0.004	0.657	0.005
362.29	0.957	0.004	0.015	0.004	0.638	0.005	0.082	0.004	0.09	0.004	0.651	0.005
362.55	0.927	0.004	0.031	0.004	0.733	0.006	0.091	0.005	0.13	0.004	0.649	0.005
362.1	0.905	0.012	0.042	0.007	0.746	0.023	0.096	0.005	0.144	0.012	0.644	0.005
