Measured thermophysical data. Separation Effects of Renewable Solvent Ethyl Lactate on the Vapor Liquid Equilibria of the Methanol + Dimethyl Carbonate Azeotropic System
Source: J. Chem. Eng. Data, 2017, 10.1021/acs.jced.7b00185
Compound 1: methanol, CH4O, InChI=1S/CH4O/c1-2/h2H,1H3
Compound 2: dimethyl carbonate, C3H6O3, InChI=1S/C3H6O3/c1-5-3(4)6-2/h1-2H3
Compound 3: DL-ethyl lactate, C5H10O3, InChI=1S/C5H10O3/c1-3-8-5(7)4(2)6/h4,6H,3H2,1-2H3

System: methanol; phases: Liquid
Property: Mass density, kg/m3 (Liquid); method: Vibrating tube method
Temperature, K	Pressure, kPa	Mass density, kg/m3	uncertainty
298.15	101.325	786.56	0.12

System: dimethyl carbonate; phases: Liquid
Property: Mass density, kg/m3 (Liquid); method: Vibrating tube method
Temperature, K	Pressure, kPa	Mass density, kg/m3	uncertainty
298.15	101.325	1063.29	0.08

System: dimethyl carbonate; phases: Liquid, Gas
Property: Vapor or sublimation pressure, kPa (Liquid); method: Ebulliometric method (Recirculating still)
Temperature, K	Vapor or sublimation pressure, kPa	uncertainty
336.61	40	3.47
344.29	53.33	3.82
350.5	66.66	4.61
355.83	79.99	5.33
360.49	93.32	5.92
363	101.3	6.4

System: DL-ethyl lactate; phases: Liquid
Property: Mass density, kg/m3 (Liquid); method: Vibrating tube method
Temperature, K	Pressure, kPa	Mass density, kg/m3	uncertainty
298.15	101.325	1028.08	0.1

System: methanol + dimethyl carbonate; phases: Liquid, Gas
Property: Boiling temperature at pressure P, K (Liquid); method: Ebulliometric method (Recirculating still)
Mole fraction of methanol	Pressure, kPa	Boiling temperature at pressure P, K	uncertainty
0	40	336.61	2
0	53.33	344.29	2
0	66.66	350.5	2
0	79.99	355.83	2
0	93.32	360.49	2
0	101.3	363	2
0.1001	40	326.03	2
0.1001	53.33	333.42	2
0.1001	66.66	339.62	2
0.1001	79.99	344.81	2
0.1001	93.32	349.38	2
0.1001	101.3	351.94	2.01
0.2003	53.33	327.92	2
0.2003	40	320.55	2
0.2003	66.66	333.74	2
0.2003	79.99	338.68	2
0.2003	93.32	343.07	2
0.2003	101.3	345.64	2.01
0.3001	53.33	325.01	2
0.3001	66.66	330.72	2
0.3001	40	318.06	2
0.3001	79.99	335.49	2
0.3001	93.32	339.71	2
0.3001	101.3	342.01	2.01
0.4003	66.66	328.87	2
0.4003	53.33	323.28	2
0.4003	79.99	333.59	2
0.4003	40	316.24	2
0.4003	93.32	337.79	2
0.4003	101.3	339.99	2
0.5001	79.99	332.32	2
0.5001	66.66	327.57	2
0.5001	53.33	322.14	2
0.5001	93.32	336.43	2
0.5001	40	315.46	2
0.5001	101.3	338.71	2
0.5999	79.99	331.54	2
0.5999	66.66	326.97	2
0.5999	93.32	335.53	2
0.5999	40	314.89	2
0.5999	53.33	321.56	2
0.5999	101.3	337.69	2
0.7002	40	314.57	2
0.7002	53.33	321.17	2
0.7002	93.32	334.93	2
0.7002	79.99	330.92	2
0.7002	66.66	326.41	2
0.7002	101.3	337.14	2
0.7999	66.66	326.06	2
0.7999	93.32	334.62	2
0.7999	40	313.93	2
0.7999	53.33	320.64	2
0.7999	79.99	330.63	2
0.7999	101.3	336.76	2
0.9	40	314.53	2
0.9	66.66	326.24	2
0.9	53.33	320.99	2
0.9	79.99	330.67	2
0.9	93.32	334.53	2
0.9	101.3	336.63	2

System: DL-ethyl lactate + dimethyl carbonate; phases: Liquid, Gas
Property: Boiling temperature at pressure P, K (Liquid); method: Ebulliometric method (Recirculating still)
Mole fraction of dimethyl carbonate	Pressure, kPa	Boiling temperature at pressure P, K	uncertainty
0.1001	40	380.5	2.01
0.1001	53.33	390.45	2.01
0.1001	66.66	397.83	2.01
0.1001	79.99	403.88	2.01
0.1001	93.32	409.13	2.01
0.1001	101.3	411.74	2
0.2	53.33	379.32	2.01
0.2	40	370.28	2
0.2	66.66	386.48	2.01
0.2	79.99	392.69	2.01
0.2	93.32	397.76	2.01
0.2	101.3	400.54	2.01
0.2998	53.33	371.42	2.01
0.2998	66.66	379.67	2.01
0.2998	40	362.56	2
0.2998	79.99	385.68	2.01
0.2998	93.32	391.18	2.01
0.2998	101.3	394.05	2
0.4	66.66	370.56	2.01
0.4	53.33	364.81	2
0.4	79.99	377.99	2.01
0.4	40	355.82	2
0.4	93.32	383.07	2.01
0.4	101.3	386	2.01
0.4996	79.99	372.7	2
0.4996	66.66	367.4	2
0.4996	53.33	359.93	2.01
0.4996	93.32	377.89	2.01
0.4996	40	351.28	2
0.4996	101.3	380.8	2.01
0.6	79.99	368	2.01
0.6	66.66	360.69	2
0.6	93.32	373.03	2
0.6	40	347.34	2
0.6	53.33	355.61	2
0.6	101.3	375.6	2.01
0.7	40	344.79	2
0.7	53.33	352.95	2
0.7	93.32	370.15	2
0.7	79.99	365.26	2
0.7	66.66	359.5	2
0.7	101.3	372.78	2
0.7999	66.66	356.33	2
0.7999	93.32	366.71	2
0.7999	40	341.72	2
0.7999	53.33	349.85	2
0.7999	79.99	361.82	2
0.7999	101.3	369.26	2
0.88	101.3	366.97	2.01
0.8999	40	338.6	2
0.8999	66.66	352.77	2
0.8999	53.33	346.46	2
0.8999	79.99	358.18	2
0.8999	93.32	362.88	2
0.8999	101.3	365.46	2.01
0.95	101.3	364.91	2
1	79.99	355.83	2
1	66.66	350.5	2
1	53.33	344.29	2
1	101.3	363	2
1	40	336.61	2
1	93.32	360.49	2

System: DL-ethyl lactate + dimethyl carbonate + methanol; phases: Liquid, Gas
Fixed: Pressure, kPa = 101.3
Property: Boiling temperature at pressure P, K (Liquid); method: Ebulliometric method (Recirculating still)
Mole fraction of methanol	Mole fraction of dimethyl carbonate	Boiling temperature at pressure P, K	uncertainty
0	0.95	364.91	2
0.0949	0.8551	354.9	2
0.1901	0.7599	348.73	2
0.2849	0.6651	344.63	2
0.38	0.57	342.4	2
0.4751	0.4749	340.17	2
0.5701	0.3799	339.62	2
0.665	0.285	338.64	2
0.7603	0.1897	338.22	2
0.855	0.095	338.44	2
0.95	0	339.52	2
0	0.88	366.97	2
0.0881	0.7919	358.56	2
0.176	0.704	352.58	2
0.2638	0.6162	348.34	2
0.3522	0.5278	344.83	2
0.4401	0.4399	342.9	2
0.528	0.352	342.02	2
0.6161	0.2639	340.99	2
0.7042	0.1758	340.2	2
0.7921	0.0879	340.25	2
0.88	0	342.02	2

System: DL-ethyl lactate + methanol; phases: Liquid, Gas
Fixed: Pressure, kPa = 101.3
Property: Boiling temperature at pressure P, K (Liquid); method: Ebulliometric method (Recirculating still)
Mole fraction of methanol	Boiling temperature at pressure P, K	uncertainty
0.95	339.52	2
0.88	342.02	2
