Measured thermophysical data. Experimental Investigation of Liquid-Liquid Extraction of Toluene + Heptane or Toluene + Hexane Using Deep Eutectic Solvents
Source: J. Chem. Eng. Data, 2019, 10.1021/acs.jced.9b00237
Compound 1: choline chloride, C5H14ClNO, InChI=1S/C5H14NO.ClH/c1-6(2,3)4-5-7;/h7H,4-5H2,1-3H3;1H/q+1;/p-1, purity 99%
Compound 2: phenol, C6H6O, InChI=1S/C6H6O/c7-6-4-2-1-3-5-6/h1-5,7H, purity 99%

System: choline chloride + phenol; phases: Liquid
Fixed: Pressure, kPa = 100
Property: Mass density, kg/m3 (Liquid); method: Vibrating tube method
Temperature, K	Mole fraction of choline chloride	Mass density, kg/m3	uncertainty
293.15	0.25	1096	2
303.15	0.25	1089	2
313.15	0.25	1083	2
323.15	0.25	1077	2
333.15	0.25	1071	2
293.15	0.2	1093	2
303.15	0.2	1087	2
313.15	0.2	1080	2
323.15	0.2	1073	2
333.15	0.2	1067	2

System: choline chloride + phenol; phases: Liquid
Fixed: Pressure, kPa = 100
Property: Viscosity, Pa*s (Liquid); method: Concentric cylinders viscometry
Temperature, K	Mole fraction of choline chloride	Viscosity, Pa*s	uncertainty
293.15	0.25	0.05816	0.00195
303.15	0.25	0.03576	0.00138
313.15	0.25	0.02353	0.00084
323.15	0.25	0.01642	0.00056
333.15	0.25	0.01202	0.00036
293.15	0.2	0.039	0.00174
303.15	0.2	0.02467	0.00088
313.15	0.2	0.01669	0.00058
323.15	0.2	0.01183	0.0004
333.15	0.2	0.008825	0.000315
