Measured thermophysical data. Initial Interfacial Tension for Various Organic Water Systems and Study of the Effect of Solute Concentration and Temperature
Source: J. Chem. Eng. Data, 2017, 10.1021/acs.jced.6b00703
Compound 1: butyl ethanoate, C6H12O2, InChI=1S/C6H12O2/c1-3-4-5-8-6(2)7/h3-5H2,1-2H3, purity 99%
Compound 2: cyclohexanol, C6H12O, InChI=1S/C6H12O/c7-6-4-2-1-3-5-6/h6-7H,1-5H2, purity 98%
Compound 3: cyclohexanone, C6H10O, InChI=1S/C6H10O/c7-6-4-2-1-3-5-6/h1-5H2, purity 99%
Compound 4: diethyl ether, C4H10O, InChI=1S/C4H10O/c1-3-5-4-2/h3-4H2,1-2H3, purity 99.5%
Compound 5: ethyl acetate, C4H8O2, InChI=1S/C4H8O2/c1-3-6-4(2)5/h3H2,1-2H3, purity 99%
Compound 6: methylcyclohexane, C7H14, InChI=1S/C7H14/c1-7-5-3-2-4-6-7/h7H,2-6H2,1H3, purity 99%
Compound 7: butanone, C4H8O, InChI=1S/C4H8O/c1-3-4(2)5/h3H2,1-2H3, purity 99.5%
Compound 8: octan-1-ol, C8H18O, InChI=1S/C8H18O/c1-2-3-4-5-6-7-8-9/h9H,2-8H2,1H3, purity 99%
Compound 9: toluene, C7H8, InChI=1S/C7H8/c1-7-5-3-2-4-6-7/h2-6H,1H3, purity 99.5%
Compound 10: water, H2O, InChI=1S/H2O/h1H2, purity 99.8%
Compound 11: propanoic acid, C3H6O2, InChI=1S/C3H6O2/c1-2-3(4)5/h2H2,1H3,(H,4,5)

System: butyl ethanoate + water; phases: Liquid, Liquid
Property: Interfacial tension, N/m (Liquid); method: Drop weight
Temperature, K	Pressure, kPa	Interfacial tension, N/m	uncertainty
290.15	101	0.01495	0.00101

System: butyl ethanoate + water; phases: Liquid, Liquid
Fixed: Pressure, kPa = 101
Property: Interfacial tension, N/m (Liquid); method: Drop weight
Temperature, K	Interfacial tension, N/m	uncertainty
283.15	0.0153	0.001
293.15	0.0153	0.001
303.15	0.0152	0.001
313.15	0.0151	0.001
323.15	0.0143	0.001

System: butyl ethanoate + water; phases: Liquid, Liquid mixture 1
Property: Interfacial tension, N/m (Liquid); method: Drop weight
Temperature, K	Pressure, kPa	Interfacial tension, N/m	uncertainty
289.15	101	0.0149	0.001

System: cyclohexanol + water; phases: Liquid, Liquid
Fixed: Pressure, kPa = 101
Property: Interfacial tension, N/m (Liquid); method: Drop weight
Temperature, K	Interfacial tension, N/m	uncertainty
303.15	0.00417	0.001
313.15	0.00415	0.001
323.15	0.00397	0.001
333.15	0.00395	0.001

System: cyclohexanone + water; phases: Liquid, Liquid
Fixed: Pressure, kPa = 101
Property: Interfacial tension, N/m (Liquid); method: Drop weight
Temperature, K	Interfacial tension, N/m	uncertainty
283.15	0.00478	0.001
293.15	0.00487	0.001
303.15	0.00508	0.001
313.15	0.00505	0.001
323.15	0.00471	0.001

System: cyclohexanone + water; phases: Liquid, Liquid mixture 1
Property: Interfacial tension, N/m (Liquid); method: Drop weight
Temperature, K	Pressure, kPa	Interfacial tension, N/m	uncertainty
289.15	101	0.00443	0.001

System: diethyl ether + water; phases: Liquid, Liquid
Property: Interfacial tension, N/m (Liquid); method: Drop weight
Temperature, K	Pressure, kPa	Interfacial tension, N/m	uncertainty
293.15	101	0.00903	0.00101

System: ethyl acetate + water; phases: Liquid, Liquid
Property: Interfacial tension, N/m (Liquid); method: Drop weight
Temperature, K	Pressure, kPa	Interfacial tension, N/m	uncertainty
289.15	101	0.00737	0.00101

System: ethyl acetate + water; phases: Liquid, Liquid
Fixed: Pressure, kPa = 101
Property: Interfacial tension, N/m (Liquid); method: Drop weight
Temperature, K	Interfacial tension, N/m	uncertainty
283.15	0.00761	0.00101
293.15	0.00729	0.00101
303.15	0.00719	0.00101
313.15	0.00715	0.00101
323.15	0.00699	0.00101

System: butanone + water; phases: Liquid, Liquid
Property: Interfacial tension, N/m (Liquid); method: Drop weight
Temperature, K	Pressure, kPa	Interfacial tension, N/m	uncertainty
292.15	101	0.00092	0.001

System: methylcyclohexane + water; phases: Liquid, Liquid
Property: Interfacial tension, N/m (Liquid); method: Drop weight
Temperature, K	Pressure, kPa	Interfacial tension, N/m	uncertainty
293.15	101	0.0514	0.0011

System: toluene + water; phases: Liquid, Liquid
Property: Interfacial tension, N/m (Liquid); method: Drop weight
Temperature, K	Pressure, kPa	Interfacial tension, N/m	uncertainty
290.15	101	0.0358	0.00105

System: toluene + water; phases: Liquid, Liquid
Fixed: Pressure, kPa = 101
Property: Interfacial tension, N/m (Liquid); method: Drop weight
Temperature, K	Interfacial tension, N/m	uncertainty
283.15	0.0361	0.0011
293.15	0.0363	0.0011
303.15	0.036	0.0011
313.15	0.0353	0.0011
323.15	0.034	0.001

System: propanoic acid + butyl ethanoate + water; phases: Liquid, Liquid mixture 1
Fixed: Temperature, K = 289.15
Fixed: Pressure, kPa = 101
Property: Interfacial tension, N/m (Liquid); method: Drop weight
Mass fraction of propanoic acid	Interfacial tension, N/m	uncertainty
0	0.0149	0.001
0.01	0.0145	0.001
0.025	0.0142	0.001
0.05	0.0129	0.001
0.075	0.0119	0.001
0.1	0.0105	0.001
0.125	0.00892	0.00101
0.15	0.00866	0.00101
0.175	0.00795	0.00101
0.2	0.00699	0.00101
0.225	0.00712	0.00101
0.25	0.00618	0.00101

System: propanoic acid + cyclohexanone + water; phases: Liquid, Liquid mixture 1
Fixed: Temperature, K = 289.15
Fixed: Pressure, kPa = 101
Property: Interfacial tension, N/m (Liquid); method: Drop weight
Mass fraction of propanoic acid	Interfacial tension, N/m	uncertainty
0.01	0.00492	0.00101
0.025	0.0047	0.00101
0.05	0.0041	0.001
0.075	0.00373	0.001
0.1	0.00335	0.001
0.125	0.00292	0.001
0.15	0.00263	0.001
0.175	0.00235	0.001
0.2	0.00211	0.001
0.225	0.00189	0.001
0.25	0.00153	0.001

System: propanoic acid + octan-1-ol + water; phases: Liquid, Liquid mixture 1
Fixed: Temperature, K = 289.15
Fixed: Pressure, kPa = 101
Property: Interfacial tension, N/m (Liquid); method: Drop weight
Mass fraction of propanoic acid	Interfacial tension, N/m	uncertainty
0	0.0091	0.00101
0.01	0.00908	0.00101
0.025	0.00843	0.00101
0.05	0.00773	0.00101
0.075	0.00712	0.00101
0.1	0.0069	0.00101
0.125	0.00626	0.00101
0.15	0.00567	0.00101
0.175	0.0052	0.00101
0.2	0.00467	0.00101
0.225	0.00402	0.001
0.25	0.00359	0.001

System: propanoic acid + toluene + water; phases: Liquid, Liquid mixture 1
Fixed: Temperature, K = 289.15
Fixed: Pressure, kPa = 101
Property: Interfacial tension, N/m (Liquid); method: Drop weight
Mass fraction of propanoic acid	Interfacial tension, N/m	uncertainty
0	0.0358	0.0011
0.01	0.0336	0.0011
0.025	0.0308	0.0011
0.05	0.0263	0.0011
0.075	0.0228	0.001
0.1	0.0204	0.001
0.125	0.0169	0.001
0.15	0.0151	0.001
0.175	0.0139	0.001
0.2	0.0122	0.001
0.225	0.0107	0.001
0.25	0.00957	0.00101

System: octan-1-ol + water; phases: Liquid, Liquid mixture 1
Property: Interfacial tension, N/m (Liquid); method: Drop weight
Temperature, K	Pressure, kPa	Interfacial tension, N/m	uncertainty
289.15	101	0.0091	0.00101
