Measured thermophysical data. Isothermal Vapor-Liquid Equilibrium Data for Binary Mixtures of Hexafluoroethane (R116) + n-Pentane or n-Hexane at Two Temperatures, 288 and 296 K
Source: J. Chem. Eng. Data, 2018, 10.1021/acs.jced.7b00836
Compound 1: hexafluoroethane, C2F6, InChI=1S/C2F6/c3-1(4,5)2(6,7)8, purity 99.999%
Compound 2: pentane, C5H12, InChI=1S/C5H12/c1-3-5-4-2/h3-5H2,1-2H3, purity 99%
Compound 3: hexane, C6H14, InChI=1S/C6H14/c1-3-5-6-4-2/h3-6H2,1-2H3, purity 99%

System: pentane; phases: Liquid, Gas
Property: Vapor or sublimation pressure, kPa (Liquid); method: Closed cell (Static) method
Temperature, K	Vapor or sublimation pressure, kPa	uncertainty
288.25	48	4
296.24	66	4

System: hexane; phases: Liquid, Gas
Property: Vapor or sublimation pressure, kPa (Liquid); method: Closed cell (Static) method
Temperature, K	Vapor or sublimation pressure, kPa	uncertainty
288.24	17	4
296.23	21	4

System: hexafluoroethane + pentane; phases: Gas, Liquid
Property: Vapor or sublimation pressure, kPa (Gas); method: Closed cell (Static) method
Mole fraction of hexafluoroethane	Temperature, K	Vapor or sublimation pressure, kPa	uncertainty
0	288.25	48	4
0.021	288.25	307	12
0.06	288.25	699	10
0.11	288.25	1105	14
0.183	288.25	1497	11
0.364	288.25	1903	9
0.754	288.25	2152	8
0.896	288.25	2378	9
0.952	288.25	2517.8	9.1
0	296.24	66	4
0.019	296.24	310	13
0.053	296.24	705	11
0.096	296.24	1104	17
0.153	296.24	1508	17
0.243	296.24	1905	12
0.477	296.24	2300	10
0.796	296.24	2596	10
0.916	296.24	2900	13
0.94	296.24	2994	11

System: hexafluoroethane + pentane; phases: Gas, Liquid
Property: Mole fraction of hexafluoroethane (Gas); method: Chromatography
Mole fraction of hexafluoroethane	Temperature, K	Mole fraction of hexafluoroethane	uncertainty
0	288.25	0	
0.021	288.25	0.832	0.014
0.06	288.25	0.92	0.002
0.11	288.25	0.946	0.001
0.183	288.25	0.957	0.001
0.364	288.25	0.962	0.001
0.754	288.25	0.965	0.001
0.896	288.25	0.975	0.001
0.952	288.25	0.985	0.001
0	296.24	0	
0.019	296.24	0.764	0.016
0.053	296.24	0.896	0.003
0.096	296.24	0.917	0.002
0.153	296.24	0.936	0.001
0.243	296.24	0.944	0.001
0.477	296.24	0.947	0.001
0.796	296.24	0.951	0.001
0.916	296.24	0.965	0.001
0.94	296.24	0.97	0.001

System: hexafluoroethane + hexane; phases: Gas, Liquid
Property: Vapor or sublimation pressure, kPa (Gas); method: Closed cell (Static) method
Mole fraction of hexafluoroethane	Temperature, K	Vapor or sublimation pressure, kPa	uncertainty
0	288.24	17	4
0.021	288.24	313	14
0.053	288.24	704	12
0.092	288.24	1097	10
0.141	288.24	1506	9
0.214	288.24	1903	10
0.335	288.24	2202	8
0.605	288.24	2247	8
0	296.23	21	4
0.019	296.23	320	15
0.048	296.23	700	13
0.083	296.23	1101	12
0.124	296.23	1501	10
0.177	296.23	1902	15
0.232	296.23	2192	12
0.284	296.23	2392	10
0.37	296.23	2581	9
0.542	296.23	2624	9

System: hexafluoroethane + hexane; phases: Gas, Liquid
Property: Mole fraction of hexafluoroethane (Gas); method: Chromatography
Mole fraction of hexafluoroethane	Temperature, K	Mole fraction of hexafluoroethane	uncertainty
0	288.24	0	
0.021	288.24	0.9506	0.017
0.053	288.24	0.9746	0.0006
0.092	288.24	0.9815	0.0003
0.141	288.24	0.9834	0.0003
0.214	288.24	0.9839	0.0002
0.335	288.24	0.9832	0.0003
0.605	288.24	0.9829	0.0003
0	296.23	0	
0.019	296.23	0.9316	0.0186
0.048	296.23	0.9626	0.0008
0.083	296.23	0.9731	0.0004
0.124	296.23	0.9768	0.0004
0.177	296.23	0.9784	0.0003
0.232	296.23	0.9785	0.0003
0.284	296.23	0.9775	0.0004
0.37	296.23	0.9764	0.0004
0.542	296.23	0.9765	0.0004

System: hexafluoroethane + hexane; phases: Liquid mixture 1, Liquid mixture 2
Property: Mole fraction of hexafluoroethane (Liquid mixture 1); method: Chromatography
Temperature, K	Pressure, kPa	Mole fraction of hexafluoroethane	uncertainty
288.24	2247	0.605	0.004
288.24	3167	0.846	0.002
288.24	4840	0.847	0.002
296.23	2624	0.542	0.004
296.23	7040	0.847	0.002
296.23	5002	0.848	0.002
