Measured thermophysical data. Vapor prssures, desities, and viscosities of the (Water + Lithium + Bromide + Sodium Formate) system and (Water + Lithium Bromide + Potassium Formate) system
Source: J. Chem. Eng. Data, 2003, 10.1021/je010312x
Compound 1: sodium methanoate, CHNaO2, InChI=1S/CH2O2.Na/c2-1-3;/h1H,(H,2,3);/q;+1/p-1
Compound 2: potassium formate, CHKO2, InChI=1S/CH2O2.K/c2-1-3;/h1H,(H,2,3);/q;+1/p-1
Compound 3: lithium bromide, BrLi, InChI=1S/BrH.Li/h1H;/q;+1/p-1
Compound 4: water, H2O, InChI=1S/H2O/h1H2

System: sodium methanoate + lithium bromide + water; phases: Liquid
Fixed: Pressure, kPa = 101.325
Property: Viscosity, Pa*s (Liquid); method: CAPTUB:UFactor:8
Temperature, K	Mass fraction of water	Mass fraction of sodium methanoate	Viscosity, Pa*s	uncertainty
298.15	0.7	0.1	0.00252	0.00011
298.15	0.8	0.067	0.00148	7e-05
303.15	0.7	0.1	0.00225	0.0001
303.15	0.8	0.067	0.00138	7e-05
308.15	0.7	0.1	0.00205	9e-05
308.15	0.8	0.067	0.00122	6e-05
313.15	0.7	0.1	0.00198	9e-05
313.15	0.8	0.067	0.00111	5e-05
318.15	0.7	0.1	0.00175	8e-05
318.15	0.8	0.067	0.00101	5e-05
323.15	0.7	0.1	0.00159	7e-05
323.15	0.8	0.067	0.00092	5e-05
328.15	0.7	0.1	0.00147	7e-05
328.15	0.8	0.067	0.00083	4e-05
333.15	0.7	0.1	0.00132	6e-05
333.15	0.8	0.067	0.00079	4e-05
338.15	0.7	0.1	0.00118	6e-05
338.15	0.8	0.067	0.00073	4e-05

System: sodium methanoate + lithium bromide + water; phases: Liquid, Gas
Property: Vapor or sublimation pressure, kPa (Liquid); method: EBULLIO:UFactor:8
Temperature, K	Mass fraction of water	Mass fraction of sodium methanoate	Vapor or sublimation pressure, kPa	uncertainty
293.15	0.4	0.2	1.3	0.63
293.15	0.5	0.167	1.6	0.63
293.15	0.6	0.133	1.8	0.63
293.15	0.7	0.1	2.3	0.63
293.15	0.8	0.067	1.9	0.63
298.15	0.4	0.2	1.3	0.63
298.15	0.5	0.167	1.6	0.63
298.15	0.6	0.133	1.8	0.63
298.15	0.7	0.1	2.4	0.63
298.15	0.8	0.067	2.4	0.63
303.15	0.4	0.2	1.5	0.63
303.15	0.5	0.167	1.8	0.63
303.15	0.6	0.133	2.3	0.63
303.15	0.7	0.1	2.9	0.64
303.15	0.8	0.067	3.3	0.64
308.15	0.4	0.2	2	0.63
308.15	0.5	0.167	2.4	0.63
308.15	0.6	0.133	3.1	0.64
308.15	0.7	0.1	3.8	0.64
308.15	0.8	0.067	4.3	0.65
313.15	0.4	0.2	2.4	0.63
313.15	0.5	0.167	3	0.64
313.15	0.6	0.133	4	0.64
313.15	0.7	0.1	4.9	0.65
313.15	0.8	0.067	5.7	0.66
318.15	0.4	0.2	3.1	0.64
318.15	0.5	0.167	3.9	0.64
318.15	0.6	0.133	5.4	0.65
318.15	0.7	0.1	6.8	0.66
318.15	0.8	0.067	7.2	0.66
323.15	0.4	0.2	4.1	0.65
323.15	0.5	0.167	5	0.65
323.15	0.6	0.133	6.5	0.66
323.15	0.7	0.1	8.2	0.67
323.15	0.8	0.067	9.6	0.68
328.15	0.4	0.2	5.2	0.65
328.15	0.5	0.167	6.4	0.66
328.15	0.6	0.133	8.8	0.67
328.15	0.7	0.1	10.7	0.69
328.15	0.8	0.067	11.8	0.69
333.15	0.4	0.2	6.4	0.66
333.15	0.5	0.167	8	0.67
333.15	0.6	0.133	10.6	0.69
333.15	0.7	0.1	13.6	0.7
333.15	0.8	0.067	14.9	0.71
338.15	0.4	0.2	7.8	0.67
338.15	0.5	0.167	10.1	0.68
338.15	0.6	0.133	13.7	0.71
343.15	0.4	0.2	9.9	0.68
343.15	0.5	0.167	12.4	0.7
343.15	0.6	0.133	16.5	0.72

System: sodium methanoate + lithium bromide + water; phases: Liquid
Fixed: Pressure, kPa = 101.325
Property: Mass density, kg/m3 (Liquid); method: OTHER
Temperature, K	Mass fraction of water	Mass fraction of sodium methanoate	Mass density, kg/m3	uncertainty
293.15	0.6	0.133	1369	6.89
293.15	0.7	0.1	1246	6.25
293.15	0.8	0.067	1164	5.83
298.15	0.6	0.133	1368	6.88
298.15	0.7	0.1	1244	6.24
298.15	0.8	0.067	1162	5.82
303.15	0.5	0.167	1448	7.29
303.15	0.6	0.133	1365	10.42
303.15	0.7	0.1	1242	6.23
303.15	0.8	0.067	1161	5.81
308.15	0.5	0.167	1444	7.27
308.15	0.6	0.133	1362	10.46
308.15	0.7	0.1	1239	6.22
308.15	0.8	0.067	1161	5.81
313.15	0.5	0.167	1444	7.27
313.15	0.6	0.133	1358	9.93
313.15	0.7	0.1	1238	6.21
313.15	0.8	0.067	1159	5.8
318.15	0.5	0.167	1444	7.27
318.15	0.6	0.133	1358	9.75
318.15	0.7	0.1	1236	6.2
318.15	0.8	0.067	1158	5.8
323.15	0.5	0.167	1438	7.24
323.15	0.6	0.133	1357	10.53
323.15	0.7	0.1	1233	6.19
323.15	0.8	0.067	1149	5.75
328.15	0.5	0.167	1433	7.22
328.15	0.6	0.133	1353	11.72
328.15	0.7	0.1	1226	6.15
328.15	0.8	0.067	1148	5.75
333.15	0.5	0.167	1432	7.21
333.15	0.6	0.133	1352	11.56
333.15	0.7	0.1	1224	6.14
333.15	0.8	0.067	1148	5.75
338.15	0.5	0.167	1428	7.19
338.15	0.6	0.133	1351	11.66
338.15	0.7	0.1	1224	6.14
338.15	0.8	0.067	1146	5.74
343.15	0.5	0.167	1428	7.19
343.15	0.6	0.133	1348	11.09
343.15	0.7	0.1	1223	6.14
343.15	0.8	0.067	1144	5.73

System: potassium formate + lithium bromide + water; phases: Liquid
Fixed: Pressure, kPa = 101.325
Property: Viscosity, Pa*s (Liquid); method: CAPTUB:UFactor:8
Temperature, K	Mass fraction of water	Mass fraction of potassium formate	Viscosity, Pa*s	uncertainty
298.15	0.7	0.1	0.00152	7e-05
298.15	0.8	0.067	0.00125	6e-05
303.15	0.7	0.1	0.0014	7e-05
303.15	0.8	0.067	0.00114	6e-05
308.15	0.6	0.133	0.00138	7e-05
308.15	0.7	0.1	0.00129	6e-05
308.15	0.8	0.067	0.00104	5e-05
313.15	0.6	0.133	0.00126	6e-05
313.15	0.7	0.1	0.00111	5e-05
313.15	0.8	0.067	0.00095	5e-05
318.15	0.6	0.133	0.00115	6e-05
318.15	0.7	0.1	0.00102	5e-05
318.15	0.8	0.067	0.00088	4e-05
323.15	0.6	0.133	0.00108	5e-05
323.15	0.7	0.1	0.00094	5e-05
323.15	0.8	0.067	0.00081	4e-05
328.15	0.6	0.133	0.001	5e-05
328.15	0.7	0.1	0.0009	5e-05
328.15	0.8	0.067	0.00075	4e-05
333.15	0.6	0.133	0.00091	5e-05
333.15	0.7	0.1	0.00086	4e-05
333.15	0.8	0.067	0.0007	4e-05

System: potassium formate + lithium bromide + water; phases: Liquid, Gas
Property: Vapor or sublimation pressure, kPa (Liquid); method: EBULLIO:UFactor:8
Temperature, K	Mass fraction of water	Mass fraction of potassium formate	Vapor or sublimation pressure, kPa	uncertainty
293.15	0.4	0.2	1.3	0.63
293.15	0.5	0.167	1.3	0.63
293.15	0.6	0.133	1.4	0.63
293.15	0.7	0.1	2	0.63
293.15	0.8	0.067	2	0.63
298.15	0.4	0.2	1.7	0.63
298.15	0.5	0.167	1.7	0.63
298.15	0.6	0.133	1.7	0.63
298.15	0.7	0.1	2.3	0.63
298.15	0.8	0.067	2.4	0.63
303.15	0.4	0.2	2.3	0.63
303.15	0.5	0.167	2.3	0.63
303.15	0.6	0.133	2.3	0.63
303.15	0.7	0.1	2.9	0.64
303.15	0.8	0.067	3.4	0.64
308.15	0.4	0.2	2.8	0.64
308.15	0.5	0.167	2.8	0.64
308.15	0.6	0.133	3.1	0.64
308.15	0.7	0.1	4	0.64
308.15	0.8	0.067	4.4	0.65
313.15	0.4	0.2	3.8	0.64
313.15	0.5	0.167	3.8	0.64
313.15	0.6	0.133	4.1	0.65
313.15	0.7	0.1	5.1	0.65
313.15	0.8	0.067	5.8	0.66
318.15	0.4	0.2	4.8	0.65
318.15	0.5	0.167	4.8	0.65
318.15	0.6	0.133	5.4	0.65
318.15	0.7	0.1	6.8	0.66
318.15	0.8	0.067	7.6	0.67
323.15	0.4	0.2	6.3	0.66
323.15	0.5	0.167	6.3	0.66
323.15	0.6	0.133	7.3	0.67
323.15	0.7	0.1	8.5	0.67
323.15	0.8	0.067	9.5	0.68
328.15	0.4	0.2	8.1	0.67
328.15	0.5	0.167	7.6	0.67
328.15	0.6	0.133	9	0.68
328.15	0.7	0.1	10.6	0.69
328.15	0.8	0.067	12.1	0.69
333.15	0.4	0.2	10	0.68
333.15	0.5	0.167	10	0.68
333.15	0.6	0.133	11.7	0.69
333.15	0.7	0.1	13.6	0.7
333.15	0.8	0.067	15.3	0.71
338.15	0.4	0.2	12.3	0.7
338.15	0.5	0.167	12.5	0.7
338.15	0.6	0.133	14.9	0.71
343.15	0.4	0.2	15.1	0.71
343.15	0.5	0.167	14.9	0.71
343.15	0.6	0.133	17.2	0.73

System: potassium formate + lithium bromide + water; phases: Liquid
Fixed: Pressure, kPa = 101.325
Property: Mass density, kg/m3 (Liquid); method: OTHER
Temperature, K	Mass fraction of water	Mass fraction of potassium formate	Mass density, kg/m3	uncertainty
293.15	0.5	0.167	1557	7.89
293.15	0.6	0.133	1363	14.32
293.15	0.7	0.1	1238	6.21
293.15	0.8	0.067	1163	5.82
298.15	0.5	0.167	1553	7.87
298.15	0.6	0.133	1360	14.71
298.15	0.7	0.1	1237	6.21
298.15	0.8	0.067	1162	5.82
303.15	0.5	0.167	1551	7.86
303.15	0.6	0.133	1355	15.37
303.15	0.7	0.1	1235	6.2
303.15	0.8	0.067	1162	5.82
308.15	0.5	0.167	1548	7.85
308.15	0.6	0.133	1351	15.41
308.15	0.7	0.1	1231	6.18
308.15	0.8	0.067	1160	5.81
313.15	0.5	0.167	1547	7.84
313.15	0.6	0.133	1349	15.58
313.15	0.7	0.1	1229	6.17
313.15	0.8	0.067	1157	5.79
318.15	0.5	0.167	1542	7.81
318.15	0.6	0.133	1349	15.02
318.15	0.7	0.1	1228	6.16
318.15	0.8	0.067	1157	5.79
323.15	0.5	0.167	1536	7.78
323.15	0.6	0.133	1347	14.18
323.15	0.7	0.1	1227	6.16
323.15	0.8	0.067	1155	5.78
328.15	0.5	0.167	1535	7.78
328.15	0.6	0.133	1346	14.52
328.15	0.7	0.1	1226	6.15
328.15	0.8	0.067	1154	5.78
333.15	0.5	0.167	1533	7.77
333.15	0.6	0.133	1343	14.79
333.15	0.7	0.1	1225	6.15
333.15	0.8	0.067	1151	5.76
338.15	0.5	0.167	1532	7.76
338.15	0.6	0.133	1340	15.4
338.15	0.7	0.1	1225	6.15
338.15	0.8	0.067	1149	5.75
343.15	0.5	0.167	1530	7.75
343.15	0.6	0.133	1339	15.46
343.15	0.7	0.1	1224	6.14
343.15	0.8	0.067	1149	5.75
