Measured thermophysical data. Infinite Dilution Activity Coefficients in Ethylene Glycol and Ethylene Carbonate
Source: J. Chem. Eng. Data, 2003, 10.1021/je0102107
Compound 1: 1,2-ethanediol, C2H6O2, InChI=1S/C2H6O2/c3-1-2-4/h3-4H,1-2H2
Compound 2: ethylene carbonate, C3H4O3, InChI=1S/C3H4O3/c4-3-5-1-2-6-3/h1-2H2
Compound 3: benzene, C6H6, InChI=1S/C6H6/c1-2-4-6-5-3-1/h1-6H
Compound 4: toluene, C7H8, InChI=1S/C7H8/c1-7-5-3-2-4-6-7/h2-6H,1H3
Compound 5: ethanal, C2H4O, InChI=1S/C2H4O/c1-2-3/h2H,1H3
Compound 6: methanol, CH4O, InChI=1S/CH4O/c1-2/h2H,1H3
Compound 7: ethanol, C2H6O, InChI=1S/C2H6O/c1-2-3/h3H,2H2,1H3
Compound 8: propan-2-ol, C3H8O, InChI=1S/C3H8O/c1-3(2)4/h3-4H,1-2H3

System: benzene + 1,2-ethanediol; phases: Liquid, Gas
Fixed: Pressure, kPa = 101.3
Property: Activity coefficient of 1,2-ethanediol (Liquid); method: Chromatography
Temperature, K	Activity coefficient of 1,2-ethanediol	uncertainty
323.15	30.23	3.16
343.15	26.44	2.62
363.15	23.34	2.2
383.15	21.14	1.92

System: 1,2-ethanediol + toluene; phases: Liquid, Gas
Fixed: Pressure, kPa = 101.3
Property: Activity coefficient of toluene (Liquid); method: Chromatography
Temperature, K	Activity coefficient of toluene	uncertainty
323.15	55.15	7.41
343.15	46.71	5.85
363.15	39.65	4.64
383.15	33.26	3.62

System: ethanal + 1,2-ethanediol; phases: Liquid, Gas
Fixed: Pressure, kPa = 101.3
Property: Activity coefficient of 1,2-ethanediol (Liquid); method: Chromatography
Temperature, K	Activity coefficient of 1,2-ethanediol	uncertainty
323.15	5.927	0.358
343.15	5.053	0.293
363.15	4.221	0.235
383.15	3.49	0.187

System: methanol + 1,2-ethanediol; phases: Liquid, Gas
Fixed: Pressure, kPa = 101.3
Property: Activity coefficient of 1,2-ethanediol (Liquid); method: Chromatography
Temperature, K	Activity coefficient of 1,2-ethanediol	uncertainty
323.15	1.23	0.047
343.15	1.241	0.047
363.15	1.32	0.052
383.15	1.271	0.049

System: propan-2-ol + 1,2-ethanediol; phases: Liquid, Gas
Fixed: Pressure, kPa = 101.3
Property: Activity coefficient of 1,2-ethanediol (Liquid); method: Chromatography
Temperature, K	Activity coefficient of 1,2-ethanediol	uncertainty
323.15	3.019	0.157
343.15	2.803	0.144
363.15	2.59	0.131
383.15	2.371	0.118

System: benzene + ethylene carbonate; phases: Liquid, Gas
Fixed: Pressure, kPa = 101.3
Property: Activity coefficient of ethylene carbonate (Liquid); method: Chromatography
Temperature, K	Activity coefficient of ethylene carbonate	uncertainty
323.15	5.081	0.295
343.15	4.831	0.278
363.15	4.618	0.263
383.15	4.417	0.249

System: ethylene carbonate + toluene; phases: Liquid, Gas
Fixed: Pressure, kPa = 101.3
Property: Activity coefficient of toluene (Liquid); method: Chromatography
Temperature, K	Activity coefficient of toluene	uncertainty
323.15	6.624	0.411
343.15	6.36	0.39
363.15	6.11	0.371
383.15	5.79	0.347

System: ethanal + ethylene carbonate; phases: Liquid, Gas
Fixed: Pressure, kPa = 101.3
Property: Activity coefficient of ethylene carbonate (Liquid); method: Chromatography
Temperature, K	Activity coefficient of ethylene carbonate	uncertainty
323.15	2.238	0.11
343.15	1.984	0.087
363.15	1.752	0.075
383.15	1.514	0.062

System: methanol + ethylene carbonate; phases: Liquid, Gas
Fixed: Pressure, kPa = 101.3
Property: Activity coefficient of ethylene carbonate (Liquid); method: Chromatography
Temperature, K	Activity coefficient of ethylene carbonate	uncertainty
323.15	3.208	0.169
343.15	3.033	0.158
363.15	2.718	0.139
383.15	2.46	0.123

System: ethanol + ethylene carbonate; phases: Liquid, Gas
Fixed: Pressure, kPa = 101.3
Property: Activity coefficient of ethylene carbonate (Liquid); method: Chromatography
Temperature, K	Activity coefficient of ethylene carbonate	uncertainty
323.15	4.362	0.245
343.15	4.09	0.226
363.15	3.821	0.209
383.15	3.357	0.178

System: propan-2-ol + ethylene carbonate; phases: Liquid, Gas
Fixed: Pressure, kPa = 101.3
Property: Activity coefficient of ethylene carbonate (Liquid); method: Chromatography
Temperature, K	Activity coefficient of ethylene carbonate	uncertainty
323.15	5.625	0.335
343.15	5.058	0.294
363.15	4.657	0.265
383.15	4.36	0.245
