Measured thermophysical data. Liquid-liquid equilibria for mixtures of (Furfural + an Aromatic hydrocarbon + an alkane) at T=298.15 K
Source: J. Chem. Eng. Data, 2003, 10.1021/je010317u
Compound 1: 2-furaldehyde, C5H4O2, InChI=1S/C5H4O2/c6-4-5-2-1-3-7-5/h1-4H
Compound 2: benzene, C6H6, InChI=1S/C6H6/c1-2-4-6-5-3-1/h1-6H
Compound 3: toluene, C7H8, InChI=1S/C7H8/c1-7-5-3-2-4-6-7/h2-6H,1H3
Compound 4: 1,2-dimethylbenzene, C8H10, InChI=1S/C8H10/c1-7-5-3-4-6-8(7)2/h3-6H,1-2H3
Compound 5: 1,3-dimethylbenzene, C8H10, InChI=1S/C8H10/c1-7-4-3-5-8(2)6-7/h3-6H,1-2H3
Compound 6: 1,4-dimethylbenzene, C8H10, InChI=1S/C8H10/c1-7-3-5-8(2)6-4-7/h3-6H,1-2H3
Compound 7: hexane, C6H14, InChI=1S/C6H14/c1-3-5-6-4-2/h3-6H2,1-2H3
Compound 8: dodecane, C12H26, InChI=1S/C12H26/c1-3-5-7-9-11-12-10-8-6-4-2/h3-12H2,1-2H3
Compound 9: hexadecane, C16H34, InChI=1S/C16H34/c1-3-5-7-9-11-13-15-16-14-12-10-8-6-4-2/h3-16H2,1-2H3

System: 2-furaldehyde; phases: Liquid
Property: Refractive index (Na D-line) (Liquid); method: ABBE:dT:0.01
Temperature, K	Pressure, kPa	Refractive index (Na D-line)	uncertainty
298.15	101.325	1.4001	0.0005

System: benzene; phases: Liquid
Property: Refractive index (Na D-line) (Liquid); method: ABBE:dT:0.01
Temperature, K	Pressure, kPa	Refractive index (Na D-line)	uncertainty
298.15	101.325	1.499	0.0004

System: toluene; phases: Liquid
Property: Refractive index (Na D-line) (Liquid); method: ABBE:dT:0.01
Temperature, K	Pressure, kPa	Refractive index (Na D-line)	uncertainty
298.15	101.325	1.494	0.0004

System: 1,2-dimethylbenzene; phases: Liquid
Property: Refractive index (Na D-line) (Liquid); method: ABBE:dT:0.01
Temperature, K	Pressure, kPa	Refractive index (Na D-line)	uncertainty
298.15	101.325	1.5018	0.0005

System: 1,3-dimethylbenzene; phases: Liquid
Property: Refractive index (Na D-line) (Liquid); method: ABBE:dT:0.01
Temperature, K	Pressure, kPa	Refractive index (Na D-line)	uncertainty
298.15	101.325	1.4943	0.0005

System: 1,4-dimethylbenzene; phases: Liquid
Property: Refractive index (Na D-line) (Liquid); method: ABBE:dT:0.01
Temperature, K	Pressure, kPa	Refractive index (Na D-line)	uncertainty
298.15	101.325	1.4925	0.0005

System: hexane; phases: Liquid
Property: Refractive index (Na D-line) (Liquid); method: ABBE:dT:0.01
Temperature, K	Pressure, kPa	Refractive index (Na D-line)	uncertainty
298.15	101.325	1.3728	0.0005

System: dodecane; phases: Liquid
Property: Refractive index (Na D-line) (Liquid); method: ABBE:dT:0.01:dT:0.01
Temperature, K	Pressure, kPa	Refractive index (Na D-line)	uncertainty
298.15	101.325	1.4275	0.0005

System: hexadecane; phases: Liquid
Property: Refractive index (Na D-line) (Liquid); method: ABBE:dT:0.01
Temperature, K	Pressure, kPa	Refractive index (Na D-line)	uncertainty
298.15	101.325	1.4325	0.0005

System: 2-furaldehyde + hexane; phases: Liquid mixture 1, Liquid mixture 2
Fixed: Pressure, kPa = 101.325
Fixed: Temperature, K = 298.15
Property: Mole fraction of 2-furaldehyde (Liquid mixture 1); method: Titration method
Mole fraction of 2-furaldehyde	uncertainty
0.046	0.005
0.933	0.005

System: 2-furaldehyde + dodecane; phases: Liquid mixture 1, Liquid mixture 2
Fixed: Pressure, kPa = 101.325
Fixed: Temperature, K = 298.15
Property: Mole fraction of 2-furaldehyde (Liquid mixture 1); method: Titration method
Mole fraction of 2-furaldehyde	uncertainty
0.055	0.005
0.986	0.005
0.988	0.005

System: 2-furaldehyde + hexadecane; phases: Liquid mixture 1, Liquid mixture 2
Fixed: Pressure, kPa = 101.3
Fixed: Temperature, K = 298.15
Property: Mole fraction of 2-furaldehyde (Liquid mixture 1); method: Titration method
Mole fraction of 2-furaldehyde	uncertainty
0.025	0.005
0.992	0.005

System: benzene + 2-furaldehyde + hexane; phases: Liquid mixture 1, Liquid mixture 2
Fixed: Pressure, kPa = 298.15
Fixed: Temperature, K = 101.325
Property: Mole fraction of benzene (Liquid mixture 1); method: OTHER
Property: Mole fraction of benzene (Liquid mixture 2); method: OTHER
Property: Mole fraction of 2-furaldehyde (Liquid mixture 2); method: OTHER
Mole fraction of 2-furaldehyde	Mole fraction of benzene	uncertainty	Mole fraction of benzene	uncertainty	Mole fraction of 2-furaldehyde	uncertainty
0.695	0.194	0.006	0.216	0.012	0.085	
0.597	0.257	0.006	0.289	0.009	0.119	
0.523	0.299	0.006	0.328	0.006	0.159	
0.396	0.353	0.005	0.368	0.005	0.262	

System: benzene + 2-furaldehyde + hexane; phases: Liquid mixture 1, Liquid mixture 2
Fixed: Temperature, K = 298.15
Fixed: Pressure, kPa = 101.325
Property: Mole fraction of benzene (Liquid mixture 1); method: Titration method
Mole fraction of 2-furaldehyde	Mole fraction of benzene	uncertainty
0.046	0	0.001
0.054	0.067	0.029
0.072	0.171	0.021
0.106	0.274	0.013
0.159	0.329	0.011
0.226	0.361	0.011
0.301	0.365	0.011
0.374	0.352	0.011
0.449	0.337	0.011
0.589	0.263	0.009
0.688	0.201	0.008
0.759	0.144	0.008
0.933	0	0.001

System: 2-furaldehyde + toluene + hexane; phases: Liquid mixture 1, Liquid mixture 2
Fixed: Temperature, K = 298.15
Fixed: Pressure, kPa = 101.325
Property: Mole fraction of toluene (Liquid mixture 1); method: Titration method
Mole fraction of 2-furaldehyde	Mole fraction of toluene	uncertainty
0.046	0	0.001
0.057	0.044	0.017
0.085	0.128	0.015
0.119	0.218	0.011
0.201	0.299	0.01
0.293	0.32	0.01
0.383	0.311	0.01
0.486	0.289	0.01
0.605	0.24	0.009
0.735	0.16	0.008
0.855	0.065	0.007
0.933	0	0.001

System: 2-furaldehyde + toluene + hexane; phases: Liquid mixture 1, Liquid mixture 2
Fixed: Pressure, kPa = 298.15
Fixed: Temperature, K = 101.325
Property: Mole fraction of toluene (Liquid mixture 1); method: OTHER
Property: Mole fraction of toluene (Liquid mixture 2); method: OTHER
Property: Mole fraction of 2-furaldehyde (Liquid mixture 2); method: OTHER
Mole fraction of 2-furaldehyde	Mole fraction of toluene	uncertainty	Mole fraction of toluene	uncertainty	Mole fraction of 2-furaldehyde	uncertainty
0.804	0.111	0.006	0.142	0.011	0.09	
0.72	0.172	0.006	0.24	0.009	0.14	
0.642	0.219	0.006	0.292	0.006	0.192	
0.562	0.257	0.006	0.315	0.005	0.266	

System: 1,2-dimethylbenzene + 2-furaldehyde + hexane; phases: Liquid mixture 1, Liquid mixture 2
Fixed: Pressure, kPa = 298.15
Fixed: Temperature, K = 101.325
Property: Mole fraction of 1,2-dimethylbenzene (Liquid mixture 1); method: OTHER
Property: Mole fraction of 1,2-dimethylbenzene (Liquid mixture 2); method: OTHER
Property: Mole fraction of 2-furaldehyde (Liquid mixture 2); method: OTHER
Mole fraction of 2-furaldehyde	Mole fraction of 1,2-dimethylbenzene	uncertainty	Mole fraction of 1,2-dimethylbenzene	uncertainty	Mole fraction of 2-furaldehyde	uncertainty
0.81	0.09	0.006	0.21	0.009	0.102	
0.754	0.126	0.006	0.255	0.007	0.133	
0.69	0.172	0.006	0.294	0.006	0.178	
0.605	0.225	0.006	0.32	0.005	0.268	
0.52	0.267	0.006	0.318	0.005	0.345	

System: 1,2-dimethylbenzene + 2-furaldehyde + hexane; phases: Liquid mixture 1, Liquid mixture 2
Fixed: Temperature, K = 298.15
Fixed: Pressure, kPa = 101.325
Property: Mole fraction of 1,2-dimethylbenzene (Liquid mixture 1); method: Titration method
Mole fraction of 2-furaldehyde	Mole fraction of 1,2-dimethylbenzene	uncertainty
0.046	0	0.001
0.065	0.086	0.02
0.092	0.18	0.018
0.106	0.217	0.015
0.188	0.302	0.01
0.191	0.301	0.01
0.269	0.326	0.011
0.358	0.318	0.01
0.424	0.305	0.01
0.508	0.275	0.01
0.52	0.267	0.01
0.604	0.228	0.009
0.73	0.146	0.007
0.907	0.023	0.007
0.933	0	0.001

System: 2-furaldehyde + 1,3-dimethylbenzene + hexane; phases: Liquid mixture 1, Liquid mixture 2
Fixed: Temperature, K = 298.15
Fixed: Pressure, kPa = 101.325
Property: Mole fraction of 1,3-dimethylbenzene (Liquid mixture 1); method: Titration method
Mole fraction of 2-furaldehyde	Mole fraction of 1,3-dimethylbenzene	uncertainty
0.046	0	0.001
0.056	0.054	0.024
0.066	0.095	0.021
0.108	0.23	0.016
0.127	0.253	0.01
0.178	0.303	0.01
0.238	0.319	0.01
0.25	0.321	0.01
0.324	0.314	0.01
0.351	0.314	0.01
0.397	0.303	0.01
0.486	0.281	0.01
0.52	0.257	0.009
0.605	0.23	0.009
0.831	0.077	0.007
0.859	0.051	0.006
0.933	0	0.001

System: 2-furaldehyde + 1,3-dimethylbenzene + hexane; phases: Liquid mixture 1, Liquid mixture 2
Fixed: Pressure, kPa = 298.15
Fixed: Temperature, K = 101.325
Property: Mole fraction of 1,3-dimethylbenzene (Liquid mixture 1); method: OTHER
Property: Mole fraction of 1,3-dimethylbenzene (Liquid mixture 2); method: OTHER
Property: Mole fraction of 2-furaldehyde (Liquid mixture 2); method: OTHER
Mole fraction of 2-furaldehyde	Mole fraction of 1,3-dimethylbenzene	uncertainty	Mole fraction of 1,3-dimethylbenzene	uncertainty	Mole fraction of 2-furaldehyde	uncertainty
0.754	0.134	0.006	0.24	0.008	0.115	
0.716	0.16	0.006	0.277	0.007	0.143	
0.652	0.199	0.006	0.307	0.005	0.187	
0.58	0.235	0.006	0.324	0.005	0.301	

System: 2-furaldehyde + 1,4-dimethylbenzene + hexane; phases: Liquid mixture 1, Liquid mixture 2
Fixed: Temperature, K = 298.15
Fixed: Pressure, kPa = 101.325
Property: Mole fraction of 1,4-dimethylbenzene (Liquid mixture 1); method: Titration method
Mole fraction of 2-furaldehyde	Mole fraction of 1,4-dimethylbenzene	uncertainty
0.046	0	0.001
0.056	0.039	0.02
0.068	0.083	0.016
0.116	0.226	0.013
0.163	0.285	0.011
0.193	0.303	0.01
0.238	0.321	0.01
0.276	0.329	0.011
0.349	0.322	0.01
0.426	0.299	0.01
0.514	0.269	0.009
0.61	0.224	0.009
0.731	0.146	0.007
0.883	0.036	0.006
0.933	0	0.001

System: 2-furaldehyde + 1,4-dimethylbenzene + hexane; phases: Liquid mixture 1, Liquid mixture 2
Fixed: Temperature, K = 298.15
Fixed: Pressure, kPa = 101.325
Property: Mole fraction of 1,4-dimethylbenzene (Liquid mixture 1); method: OTHER
Property: Mole fraction of 1,4-dimethylbenzene (Liquid mixture 2); method: OTHER
Property: Mole fraction of 2-furaldehyde (Liquid mixture 2); method: OTHER
Mole fraction of 2-furaldehyde	Mole fraction of 1,4-dimethylbenzene	uncertainty	Mole fraction of 1,4-dimethylbenzene	uncertainty	Mole fraction of 2-furaldehyde	uncertainty
0.873	0.046	0.006	0.156	0.014	0.098	
0.814	0.087	0.006	0.255	0.009	0.135	
0.757	0.131	0.006	0.305	0.006	0.194	
0.675	0.185	0.006	0.329	0.005	0.279	
0.61	0.222	0.006	0.317	0.005	0.37	

System: benzene + 2-furaldehyde + dodecane; phases: Liquid mixture 1, Liquid mixture 2
Fixed: Temperature, K = 298.15
Fixed: Pressure, kPa = 101.325
Property: Mole fraction of benzene (Liquid mixture 1); method: OTHER
Property: Mole fraction of 2-furaldehyde (Liquid mixture 2); method: OTHER
Property: Mole fraction of benzene (Liquid mixture 2); method: OTHER
Mole fraction of 2-furaldehyde	Mole fraction of benzene	uncertainty	Mole fraction of 2-furaldehyde	uncertainty	Mole fraction of benzene	uncertainty
0.763	0.22	0.007	0.09	0.005	0.311	
0.69	0.281	0.006	0.105	0.005	0.382	
0.602	0.348	0.006	0.141	0.006	0.447	
0.535	0.399	0.006	0.189	0.007	0.492	

System: benzene + 2-furaldehyde + dodecane; phases: Liquid mixture 1, Liquid mixture 2
Fixed: Temperature, K = 298.15
Fixed: Pressure, kPa = 101.325
Property: Mole fraction of benzene (Liquid mixture 1); method: Titration method
Mole fraction of 2-furaldehyde	Mole fraction of benzene	uncertainty
0.055	0	0.001
0.061	0.086	0.037
0.097	0.35	0.025
0.142	0.449	0.015
0.213	0.507	0.015
0.291	0.5	0.016
0.352	0.486	0.015
0.421	0.463	0.015
0.5	0.423	0.014
0.661	0.305	0.011
0.844	0.137	0.008
0.986	0	0.001

System: 2-furaldehyde + toluene + dodecane; phases: Liquid mixture 2, Liquid mixture 1
Fixed: Temperature, K = 298.15
Fixed: Pressure, kPa = 101.325
Property: Mole fraction of 2-furaldehyde (Liquid mixture 2); method: OTHER
Property: Mole fraction of toluene (Liquid mixture 1); method: OTHER
Property: Mole fraction of 2-furaldehyde (Liquid mixture 1); method: OTHER
Mole fraction of toluene	Mole fraction of 2-furaldehyde	uncertainty	Mole fraction of toluene	uncertainty	Mole fraction of 2-furaldehyde	uncertainty
0.198	0.078	0.005	0.123	0.007	0.858	
0.329	0.107	0.005	0.208	0.007	0.76	
0.435	0.15	0.006	0.296	0.006	0.653	
0.473	0.196	0.008	0.345	0.006	0.583	
0.48	0.26	0.013	0.4	0.006	0.492	

System: 2-furaldehyde + toluene + dodecane; phases: Liquid mixture 1, Liquid mixture 2
Fixed: Temperature, K = 298.15
Fixed: Pressure, kPa = 101.325
Property: Mole fraction of toluene (Liquid mixture 1); method: Titration method
Mole fraction of 2-furaldehyde	Mole fraction of toluene	uncertainty
0.055	0	0.001
0.063	0.107	0.029
0.079	0.199	0.025
0.108	0.327	0.022
0.129	0.395	0.017
0.157	0.443	0.015
0.197	0.473	0.015
0.267	0.483	0.015
0.384	0.451	0.014
0.409	0.446	0.014
0.589	0.348	0.012
0.737	0.227	0.009
0.865	0.115	0.008
0.986	0	0.001

System: 1,2-dimethylbenzene + 2-furaldehyde + dodecane; phases: Liquid mixture 1, Liquid mixture 2
Fixed: Pressure, kPa = 298.15
Fixed: Temperature, K = 101.325
Property: Mole fraction of 1,2-dimethylbenzene (Liquid mixture 1); method: OTHER
Property: Mole fraction of 1,2-dimethylbenzene (Liquid mixture 2); method: OTHER
Property: Mole fraction of 2-furaldehyde (Liquid mixture 2); method: OTHER
Mole fraction of 2-furaldehyde	Mole fraction of 1,2-dimethylbenzene	uncertainty	Mole fraction of 1,2-dimethylbenzene	uncertainty	Mole fraction of 2-furaldehyde	uncertainty
0.841	0.135	0.007	0.239	0.023	0.091	
0.79	0.18	0.007	0.323	0.017	0.11	
0.742	0.22	0.007	0.404	0.009	0.142	
0.679	0.275	0.006	0.46	0.005	0.199	
0.578	0.347	0.006	0.468	0.005	0.301	

System: 1,2-dimethylbenzene + 2-furaldehyde + dodecane; phases: Liquid mixture 1, Liquid mixture 2
Fixed: Temperature, K = 298.15
Fixed: Pressure, kPa = 101.325
Property: Mole fraction of 1,2-dimethylbenzene (Liquid mixture 1); method: Titration method
Mole fraction of 2-furaldehyde	Mole fraction of 1,2-dimethylbenzene	uncertainty
0.055	0	0.001
0.074	0.145	0.029
0.11	0.316	0.021
0.147	0.414	0.014
0.232	0.472	0.015
0.311	0.465	0.014
0.359	0.452	0.014
0.451	0.417	0.013
0.512	0.388	0.012
0.658	0.292	0.01
0.773	0.195	0.009
0.986	0	0.001

System: 2-furaldehyde + 1,3-dimethylbenzene + dodecane; phases: Liquid mixture 1, Liquid mixture 2
Fixed: Temperature, K = 298.15
Fixed: Pressure, kPa = 101.325
Property: Mole fraction of 1,3-dimethylbenzene (Liquid mixture 1); method: Titration method
Mole fraction of 2-furaldehyde	Mole fraction of 1,3-dimethylbenzene	uncertainty
0.055	0	0.001
0.075	0.204	0.026
0.13	0.395	0.016
0.199	0.468	0.015
0.266	0.482	0.015
0.318	0.476	0.015
0.384	0.453	0.014
0.497	0.399	0.013
0.564	0.358	0.012
0.638	0.306	0.011
0.788	0.185	0.008
0.943	0.038	0.007
0.986	0	0.001

System: 2-furaldehyde + 1,3-dimethylbenzene + dodecane; phases: Liquid mixture 1, Liquid mixture 2
Fixed: Temperature, K = 101.325
Fixed: Pressure, kPa = 298.15
Property: Mole fraction of 1,3-dimethylbenzene (Liquid mixture 1); method: OTHER
Property: Mole fraction of 1,3-dimethylbenzene (Liquid mixture 2); method: OTHER
Property: Mole fraction of 2-furaldehyde (Liquid mixture 2); method: OTHER
Mole fraction of 2-furaldehyde	Mole fraction of 1,3-dimethylbenzene	uncertainty	Mole fraction of 1,3-dimethylbenzene	uncertainty	Mole fraction of 2-furaldehyde	uncertainty
0.851	0.128	0.007	0.246	0.019	0.081	
0.8	0.171	0.007	0.338	0.014	0.106	
0.748	0.218	0.007	0.41	0.009	0.141	
0.683	0.275	0.006	0.456	0.006	0.18	
0.587	0.343	0.006	0.483	0.005	0.253	

System: 2-furaldehyde + 1,4-dimethylbenzene + dodecane; phases: Liquid mixture 1, Liquid mixture 2
Fixed: Temperature, K = 298.15
Fixed: Pressure, kPa = 101.325
Property: Mole fraction of 1,4-dimethylbenzene (Liquid mixture 1); method: Titration method
Mole fraction of 2-furaldehyde	Mole fraction of 1,4-dimethylbenzene	uncertainty
0.055	0	0.001
0.063	0.114	0.027
0.099	0.304	0.016
0.201	0.477	0.016
0.258	0.485	0.015
0.319	0.477	0.015
0.379	0.455	0.014
0.438	0.429	0.014
0.553	0.365	0.012
0.645	0.304	0.011
0.759	0.21	0.009
0.911	0.069	0.007
0.988	0	0.001

System: 2-furaldehyde + 1,4-dimethylbenzene + dodecane; phases: Liquid mixture 1, Liquid mixture 2
Fixed: Temperature, K = 101.325
Fixed: Pressure, kPa = 298.15
Property: Mole fraction of 1,4-dimethylbenzene (Liquid mixture 1); method: OTHER
Property: Mole fraction of 1,4-dimethylbenzene (Liquid mixture 2); method: OTHER
Property: Mole fraction of 2-furaldehyde (Liquid mixture 2); method: OTHER
Mole fraction of 2-furaldehyde	Mole fraction of 1,4-dimethylbenzene	uncertainty	Mole fraction of 1,4-dimethylbenzene	uncertainty	Mole fraction of 2-furaldehyde	uncertainty
0.859	0.121	0.007	0.29	0.02	0.095	
0.811	0.168	0.007	0.373	0.014	0.117	
0.742	0.226	0.007	0.438	0.007	0.149	
0.67	0.287	0.006	0.472	0.006	0.202	
0.625	0.321	0.006	0.481	0.005	0.23	
0.55	0.368	0.006	0.478	0.005	0.302	

System: benzene + 2-furaldehyde + hexadecane; phases: Liquid mixture 2, Liquid mixture 1
Fixed: Temperature, K = 298.15
Fixed: Pressure, kPa = 101.325
Property: Mole fraction of benzene (Liquid mixture 2); method: OTHER
Property: Mole fraction of benzene (Liquid mixture 1); method: OTHER
Property: Mole fraction of 2-furaldehyde (Liquid mixture 1); method: OTHER
Mole fraction of 2-furaldehyde	Mole fraction of benzene	uncertainty	Mole fraction of benzene	uncertainty	Mole fraction of 2-furaldehyde	uncertainty
0.077	0.446	0.016	0.315	0.007	0.667	
0.093	0.493	0.011	0.356	0.007	0.621	
0.124	0.541	0.007	0.406	0.007	0.565	
0.181	0.58	0.005	0.475	0.006	0.48	
0.235	0.585	0.005	0.519	0.006	0.411	

System: benzene + 2-furaldehyde + hexadecane; phases: Liquid mixture 1, Liquid mixture 2
Fixed: Temperature, K = 298.15
Fixed: Pressure, kPa = 101.3
Property: Mole fraction of benzene (Liquid mixture 1); method: Titration method
Mole fraction of 2-furaldehyde	Mole fraction of benzene	uncertainty
0.025	0	0.001
0.029	0.163	0.065
0.041	0.317	0.034
0.067	0.423	0.019
0.123	0.542	0.016
0.161	0.567	0.014
0.203	0.582	0.013
0.247	0.583	0.013
0.298	0.569	0.013
0.365	0.546	0.014
0.456	0.492	0.016
0.613	0.366	0.012
0.784	0.203	0.009
0.992	0	0.001
