Measured thermophysical data. Vapor-Liquid Equilibrium of the Ethanol + 2-Methyl-1-butanol System
Source: J. Chem. Eng. Data, 2003, 10.1021/je010272x
Compound 1: ethanol, C2H6O, InChI=1S/C2H6O/c1-2-3/h3H,2H2,1H3
Compound 2: 2-methyl-1-butanol, C5H12O, InChI=1S/C5H12O/c1-3-5(2)4-6/h5-6H,3-4H2,1-2H3

System: ethanol; phases: Liquid, Gas
Property: Boiling temperature at pressure P, K (Liquid); method: EBULLIO::dP:.13
Pressure, kPa	Boiling temperature at pressure P, K	uncertainty
33.3	325.75	0.2

System: ethanol; phases: Liquid, Gas
Property: Boiling temperature at pressure P, K (Liquid); method: EBULLIO::dP:.13
Pressure, kPa	Boiling temperature at pressure P, K	uncertainty
66.6	341.15	0.2

System: ethanol; phases: Liquid, Gas
Property: Boiling temperature at pressure P, K (Liquid); method: EBULLIO::dP:.13
Pressure, kPa	Boiling temperature at pressure P, K	uncertainty
101.3	351.45	0.2

System: 2-methyl-1-butanol; phases: Liquid, Gas
Property: Vapor or sublimation pressure, kPa (Liquid); method: EBULLIO:UFactor:32:dPV:0.13
Temperature, K	Vapor or sublimation pressure, kPa	uncertainty
357.85	16.7	0.3
364.85	23.3	0.3
370.45	30	0.4
372.95	33.3	0.4
375.15	36.7	0.4
379.05	43.3	0.4
382.75	50	0.4
385.65	56.6	0.5
388.95	63.3	0.5
390.35	66.6	0.5
391.65	70	0.5
394.15	76.6	0.5
396.65	83.3	0.6
398.85	90	0.6
401.05	96.6	0.6
402.45	101.3	0.6

System: ethanol + 2-methyl-1-butanol; phases: Liquid, Gas
Property: Boiling temperature at pressure P, K (Liquid); method: EBULLIO:UFactor:4
Mole fraction of ethanol	Pressure, kPa	Boiling temperature at pressure P, K	uncertainty
0	33.3	372.95	0.2
0	66.6	390.35	0.3
0	101.3	402.45	0.2
0.063	66.6	382.15	0.4
0.065	101.3	393.45	0.3
0.076	33.3	363.55	0.3
0.076	66.6	380.75	0.4
0.125	33.3	358.85	0.3
0.126	101.3	387.25	0.3
0.182	66.6	371.25	0.3
0.192	101.3	381.75	0.3
0.224	66.6	368.25	0.3
0.224	101.3	379.45	0.3
0.242	101.3	378.35	0.3
0.246	33.3	349.85	0.3
0.279	66.6	364.85	0.3
0.294	33.3	347.15	0.3
0.311	101.3	374.15	0.3
0.336	33.3	345.25	0.3
0.384	33.3	343.15	0.3
0.394	66.6	358.85	0.3
0.395	101.3	370.05	0.2
0.422	33.3	341.45	0.2
0.438	66.6	356.85	0.3
0.477	66.6	355.35	0.2
0.478	101.3	366.25	0.2
0.488	33.3	338.85	0.2
0.541	66.6	352.95	0.2
0.551	101.3	363.55	0.2
0.562	33.3	336.35	0.2
0.606	101.3	361.65	0.2
0.628	66.6	350.05	0.2
0.643	33.3	333.85	0.2
0.733	66.6	347.05	0.2
0.752	101.3	357.35	0.2
0.774	33.3	330.55	0.2
0.881	101.3	353.95	0.2
0.885	66.6	343.35	0.2
0.887	33.3	328.05	0.2
0.907	33.3	327.65	0.2
0.908	101.3	353.35	0.2
0.91	66.6	342.85	0.2
1	33.3	325.75	0.2
1	66.6	341.15	0.2
1	101.3	351.45	0.2

System: ethanol + 2-methyl-1-butanol; phases: Gas, Liquid
Property: Mole fraction of ethanol (Gas); method: Chromatography
Mole fraction of ethanol	Pressure, kPa	Mole fraction of ethanol	uncertainty
0	33.3	0	0.001
0	66.6	0	0.001
0	101.3	0	0.001
0.063	66.6	0.312	0.008
0.065	101.3	0.308	0.008
0.076	33.3	0.393	0.01
0.076	66.6	0.359	0.008
0.125	33.3	0.541	0.006
0.126	101.3	0.486	0.007
0.182	66.6	0.617	0.006
0.192	101.3	0.615	0.006
0.224	66.6	0.679	0.005
0.224	101.3	0.661	0.005
0.242	101.3	0.685	0.004
0.246	33.3	0.748	0.004
0.279	66.6	0.743	0.004
0.294	33.3	0.798	0.003
0.311	101.3	0.756	0.004
0.336	33.3	0.828	0.003
0.384	33.3	0.858	0.003
0.394	66.6	0.835	0.003
0.395	101.3	0.817	0.003
0.422	33.3	0.878	0.003
0.438	66.6	0.86	0.003
0.477	66.6	0.878	0.003
0.478	101.3	0.865	0.003
0.488	33.3	0.907	0.002
0.541	66.6	0.904	0.002
0.551	101.3	0.896	0.002
0.562	33.3	0.931	0.002
0.606	101.3	0.916	0.002
0.628	66.6	0.933	0.002
0.643	33.3	0.951	0.002
0.733	66.6	0.958	0.002
0.752	101.3	0.955	0.002
0.774	33.3	0.974	0.002
0.881	101.3	0.981	0.002
0.885	66.6	0.985	0.002
0.887	33.3	0.988	0.002
0.907	33.3	0.99	0.002
0.908	101.3	0.986	0.002
0.91	66.6	0.989	0.002
1	33.3	1	0.001
1	66.6	1	0.001
1	101.3	1	0.001
