Measured thermophysical data. Vapor-Liquid Equilibrium for Phenol + r-Methyl Benzyl Alcohol and 2-Ethoxyethanol + n-Butyl Formate
Source: J. Chem. Eng. Data, 2004, 10.1021/je025566c
Compound 1: phenol, C6H6O, InChI=1S/C6H6O/c7-6-4-2-1-3-5-6/h1-5,7H, purity 99.95%
Compound 2: 1-phenylethanol, C8H10O, InChI=1S/C8H10O/c1-7(9)8-5-3-2-4-6-8/h2-7,9H,1H3
Compound 3: 2-ethoxyethan-1-ol, C4H10O2, InChI=1S/C4H10O2/c1-2-6-4-3-5/h5H,2-4H2,1H3, purity 99.5%
Compound 4: butyl methanoate, C5H10O2, InChI=1S/C5H10O2/c1-2-3-4-7-5-6/h5H,2-4H2,1H3, purity 96%

System: phenol; phases: Liquid, Gas
Property: Vapor or sublimation pressure, kPa (Liquid); method: EBULLIO:UFactor:4
Temperature, K	Vapor or sublimation pressure, kPa	uncertainty
353.15	2.037	0.041
373.15	5.541	0.042
393.15	13.154	0.045

System: 1-phenylethanol; phases: Liquid, Gas
Property: Vapor or sublimation pressure, kPa (Liquid); method: EBULLIO:UFactor:4
Temperature, K	Vapor or sublimation pressure, kPa	uncertainty
353.15	0.76	0.031
358.41	1.033	0.031
362.36	1.296	0.031
366.37	1.613	0.032
371.46	2.112	0.032
373.15	2.301	0.032
377.83	2.909	0.032
382.98	3.728	0.032
387.28	4.557	0.033
393.15	5.934	0.033
393.34	5.985	0.033
398.01	7.325	0.034

System: 2-ethoxyethan-1-ol; phases: Liquid, Gas
Property: Vapor or sublimation pressure, kPa (Liquid); method: EBULLIO:UFactor:4
Temperature, K	Vapor or sublimation pressure, kPa	uncertainty
333.15	5.3	0.042
343.15	8.646	0.044
353.15	13.623	0.046

System: butyl methanoate; phases: Liquid, Gas
Property: Vapor or sublimation pressure, kPa (Liquid); method: EBULLIO:UFactor:4
Temperature, K	Vapor or sublimation pressure, kPa	uncertainty
313.16	7.978	0.034
318.33	10.194	0.035
323.32	12.787	0.036
328.57	16.079	0.037
333.14	19.501	0.039
333.15	19.504	0.039
343.14	29.103	0.044
343.15	29.103	0.044
353.14	42.242	0.051
353.15	42.241	0.051
358.67	51.345	0.056

System: 1-phenylethanol + phenol; phases: Liquid, Gas
Property: Vapor or sublimation pressure, kPa (Liquid); method: EBULLIO:UFactor:2
Mole fraction of phenol	Temperature, K	Vapor or sublimation pressure, kPa	uncertainty
0	353.15	0.76	0.156
0	373.15	2.301	0.159
0	393.15	5.934	0.164
0.0467	393.15	5.966	0.164
0.0469	373.15	2.305	0.161
0.0925	373.15	2.316	0.159
0.0925	393.15	6.008	0.164
0.1369	393.15	6.085	0.165
0.1374	373.15	2.348	0.159
0.1882	373.15	2.385	0.162
0.1889	393.15	6.194	0.165
0.2241	353.15	0.785	0.156
0.229	393.15	6.315	0.166
0.2311	373.15	2.442	0.159
0.2668	393.15	6.438	0.166
0.2682	373.15	2.498	0.161
0.3328	373.15	2.617	0.159
0.3339	393.15	6.746	0.168
0.3391	353.15	0.877	0.156
0.4154	353.15	0.956	0.157
0.4183	373.15	2.84	0.16
0.4214	393.15	7.262	0.17
0.4996	373.15	3.121	0.161
0.5013	393.15	7.863	0.172
0.502	353.15	1.072	0.157
0.5661	353.15	1.168	0.157
0.5827	373.15	3.454	0.161
0.586	393.15	8.574	0.175
0.6722	353.15	1.368	0.157
0.6743	373.15	3.881	0.163
0.676	393.15	9.494	0.178
0.7417	353.15	1.523	0.158
0.7433	393.15	10.3	0.18
0.7512	373.15	4.248	0.163
0.8225	353.15	1.695	0.158
0.8227	393.15	11.14	0.181
0.8232	373.15	4.649	0.164
0.8892	353.15	1.845	0.158
0.9007	373.15	5.07	0.165
0.9012	393.15	12.082	0.183
0.957	373.15	5.361	0.167
0.9572	393.15	12.7	0.183
0.9574	353.15	1.972	0.158
1	353.15	2.037	0.158
1	373.15	5.541	0.164
1	393.15	13.154	0.175

System: 1-phenylethanol + phenol; phases: Gas, Liquid
Property: Mole fraction of phenol (Gas); method: CHROM:UFactor:2
Mole fraction of phenol	Temperature, K	Mole fraction of phenol	uncertainty
0	353.15	0	0.0001
0	373.15	0	0.0001
0	393.15	0	0.0001
0.0467	393.15	0.057	0.0051
0.0469	373.15	0.0539	0.0051
0.0925	373.15	0.1139	0.0054
0.0925	393.15	0.1174	0.0054
0.1369	393.15	0.1868	0.0059
0.1374	373.15	0.1839	0.0059
0.1882	373.15	0.2729	0.0068
0.1889	393.15	0.2763	0.0069
0.2241	353.15	0.3264	0.0075
0.229	393.15	0.3414	0.0077
0.2311	373.15	0.3416	0.0077
0.2668	393.15	0.4056	0.0085
0.2682	373.15	0.4036	0.0085
0.3328	373.15	0.5177	0.0096
0.3339	393.15	0.5287	0.0095
0.3391	353.15	0.5288	0.0095
0.4154	353.15	0.6655	0.0076
0.4183	373.15	0.6634	0.0076
0.4214	393.15	0.6674	0.0076
0.4996	373.15	0.7669	0.0064
0.5013	393.15	0.7545	0.0065
0.502	353.15	0.78	0.0063
0.5661	353.15	0.8437	0.0057
0.5827	373.15	0.8437	0.0057
0.586	393.15	0.838	0.0057
0.6722	353.15	0.9214	0.0052
0.6743	373.15	0.9113	0.0052
0.676	393.15	0.9048	0.0053
0.7417	353.15	0.9526	0.0051
0.7433	393.15	0.9384	0.0051
0.7512	373.15	0.9498	0.0051
0.8225	353.15	0.9763	0.005
0.8227	393.15	0.9634	0.005
0.8232	373.15	0.9693	0.005
0.8892	353.15	0.9885	0.005
0.9007	373.15	0.9867	0.005
0.9012	393.15	0.9821	0.005
0.957	373.15	0.9951	0.0049
0.9572	393.15	0.9931	0.005
0.9574	353.15	0.9962	0.0038
1	353.15	1	0.0001
1	373.15	1	0.0001
1	393.15	1	0.0001

System: 2-ethoxyethan-1-ol + butyl methanoate; phases: Liquid, Gas
Property: Vapor or sublimation pressure, kPa (Liquid); method: EBULLIO:UFactor:4
Mole fraction of 2-ethoxyethan-1-ol	Temperature, K	Vapor or sublimation pressure, kPa	uncertainty
0	333.15	19.504	0.479
0	343.15	29.103	0.517
0	353.15	42.241	0.571
0.068	333.15	18.993	0.482
0.0684	343.15	28.39	0.548
0.1296	343.15	27.627	0.521
0.1365	333.15	18.501	0.482
0.1407	353.15	41.121	0.576
0.19	343.15	26.754	0.517
0.2	333.15	17.861	0.479
0.2033	353.15	39.987	0.59
0.2529	343.15	25.929	0.528
0.2673	353.15	38.805	0.592
0.3137	333.15	17.053	0.475
0.3571	353.15	36.876	0.591
0.3746	333.15	16.435	0.477
0.4096	343.15	24.241	0.506
0.4416	353.15	34.976	0.591
0.4645	343.15	23.409	0.533
0.4684	333.15	15.471	0.478
0.5233	353.15	32.912	0.593
0.538	343.15	22.141	0.542
0.5776	353.15	31.403	0.602
0.6181	343.15	20.573	0.511
0.6507	353.15	29.192	0.609
0.6652	333.15	12.964	0.471
0.6991	343.15	18.7	0.539
0.732	333.15	11.894	0.48
0.752	353.15	25.806	0.614
0.7735	343.15	16.763	0.543
0.784	333.15	10.906	0.485
0.8042	353.15	23.755	0.648
0.8249	333.15	10.07	0.491
0.8379	343.15	14.899	0.546
0.8649	353.15	21.089	0.668
0.8791	333.15	8.842	0.496
0.899	343.15	12.911	0.549
0.9047	353.15	19.114	0.695
0.9174	333.15	7.866	0.51
0.9421	343.15	11.196	0.572
0.9468	353.15	16.949	0.72
0.9553	333.15	6.774	0.517
0.9742	353.15	15.289	0.777
0.9752	343.15	9.785	0.607
0.9765	333.15	6.145	0.538
1	333.15	5.3	0.421
1	343.15	8.646	0.435
1	353.15	13.623	0.455

System: 2-ethoxyethan-1-ol + butyl methanoate; phases: Gas, Liquid
Property: Mole fraction of 2-ethoxyethan-1-ol (Gas); method: CHROM:UFactor:4
Mole fraction of 2-ethoxyethan-1-ol	Temperature, K	Mole fraction of 2-ethoxyethan-1-ol	uncertainty
0	333.15	0	0.0001
0	343.15	0	0.0001
0	353.15	0	0.0001
0.068	333.15	0.0312	0.0101
0.0684	343.15	0.0328	0.0101
0.1296	343.15	0.056	0.0102
0.1365	333.15	0.0547	0.0102
0.1407	353.15	0.0726	0.0103
0.19	343.15	0.0753	0.0103
0.2	333.15	0.0713	0.0103
0.2033	353.15	0.0842	0.0104
0.2529	343.15	0.0984	0.0105
0.2673	353.15	0.1064	0.0106
0.3137	333.15	0.107	0.0106
0.3571	353.15	0.1369	0.011
0.3746	333.15	0.1259	0.0109
0.4096	343.15	0.144	0.0111
0.4416	353.15	0.1646	0.0115
0.4645	343.15	0.1615	0.0114
0.4684	333.15	0.1536	0.0113
0.5233	353.15	0.1896	0.0119
0.538	343.15	0.1923	0.0119
0.5776	353.15	0.2165	0.0124
0.6181	343.15	0.2178	0.0124
0.6507	353.15	0.2485	0.0131
0.6652	333.15	0.2332	0.0128
0.6991	343.15	0.2723	0.0136
0.732	333.15	0.2746	0.0137
0.752	353.15	0.3259	0.0149
0.7735	343.15	0.3323	0.0151
0.784	333.15	0.3222	0.0148
0.8042	353.15	0.374	0.0162
0.8249	333.15	0.3791	0.0163
0.8379	343.15	0.4171	0.0174
0.8649	353.15	0.4752	0.019
0.8791	333.15	0.4708	0.0189
0.899	343.15	0.536	0.0187
0.9047	353.15	0.5741	0.0176
0.9174	333.15	0.5715	0.0177
0.9421	343.15	0.6782	0.0148
0.9468	353.15	0.7023	0.0142
0.9553	333.15	0.7145	0.0139
0.9742	353.15	0.8401	0.0114
0.9752	343.15	0.8324	0.0115
0.9765	333.15	0.805	0.012
1	333.15	1	0.0001
1	343.15	1	0.0001
1	353.15	1	0.0001
