Measured thermophysical data. Liquid-Liquid Equilibria for Mixtures of (Furfural + a Chlorinated Aromatic Compound + an Alkane) at T = 298.15 K
Source: J. Chem. Eng. Data, 2003, 10.1021/je020107x
Compound 1: 2-furaldehyde, C5H4O2, InChI=1S/C5H4O2/c6-4-5-2-1-3-7-5/h1-4H
Compound 2: chlorobenzene, C6H5Cl, InChI=1S/C6H5Cl/c7-6-4-2-1-3-5-6/h1-5H, purity 99%
Compound 3: 1,2-dichlorobenzene, C6H4Cl2, InChI=1S/C6H4Cl2/c7-5-3-1-2-4-6(5)8/h1-4H, purity 99%
Compound 4: 1,3-dichlorobenzene, C6H4Cl2, InChI=1S/C6H4Cl2/c7-5-2-1-3-6(8)4-5/h1-4H, purity 99%
Compound 5: 1,2,4-trichlorobenzene, C6H3Cl3, InChI=1S/C6H3Cl3/c7-4-1-2-5(8)6(9)3-4/h1-3H, purity 99%
Compound 6: hexane, C6H14, InChI=1S/C6H14/c1-3-5-6-4-2/h3-6H2,1-2H3, purity 99%
Compound 7: dodecane, C12H26, InChI=1S/C12H26/c1-3-5-7-9-11-12-10-8-6-4-2/h3-12H2,1-2H3, purity 99%
Compound 8: hexadecane, C16H34, InChI=1S/C16H34/c1-3-5-7-9-11-13-15-16-14-12-10-8-6-4-2/h3-16H2,1-2H3, purity 99%

System: 2-furaldehyde; phases: Liquid
Property: Refractive index (Na D-line) (Liquid); method: Standard Abbe refractometry
Temperature, K	Pressure, kPa	Refractive index (Na D-line)	uncertainty
298.15	101.325	1.4001	0.0004

System: chlorobenzene; phases: Liquid
Property: Refractive index (Na D-line) (Liquid); method: Standard Abbe refractometry
Temperature, K	Pressure, kPa	Refractive index (Na D-line)	uncertainty
298.15	101.325	1.5218	0.0005

System: 1,2-dichlorobenzene; phases: Liquid
Property: Refractive index (Na D-line) (Liquid); method: Standard Abbe refractometry
Temperature, K	Pressure, kPa	Refractive index (Na D-line)	uncertainty
298.15	101.325	1.5491	0.0005

System: 1,3-dichlorobenzene; phases: Liquid
Property: Refractive index (Na D-line) (Liquid); method: Standard Abbe refractometry
Temperature, K	Pressure, kPa	Refractive index (Na D-line)	uncertainty
298.15	101.325	1.5432	0.0005

System: 1,2,4-trichlorobenzene; phases: Liquid
Property: Refractive index (Na D-line) (Liquid); method: Standard Abbe refractometry
Temperature, K	Pressure, kPa	Refractive index (Na D-line)	uncertainty
298.15	101.325	1.522	0.0005

System: hexane; phases: Liquid
Property: Refractive index (Na D-line) (Liquid); method: Standard Abbe refractometry
Temperature, K	Pressure, kPa	Refractive index (Na D-line)	uncertainty
298.15	101.325	1.3728	0.0005

System: dodecane; phases: Liquid
Property: Refractive index (Na D-line) (Liquid); method: Standard Abbe refractometry
Temperature, K	Pressure, kPa	Refractive index (Na D-line)	uncertainty
298.15	101.325	1.4275	0.0005

System: hexadecane; phases: Liquid
Property: Refractive index (Na D-line) (Liquid); method: Standard Abbe refractometry
Temperature, K	Pressure, kPa	Refractive index (Na D-line)	uncertainty
298.15	101.325	1.4325	0.0005

System: 2-furaldehyde + chlorobenzene + hexane; phases: Liquid mixture 1, Liquid mixture 2
Fixed: Pressure, kPa = 101.3
Fixed: Temperature, K = 298.15
Property: Mole fraction of chlorobenzene (Liquid mixture 1); method: Titration method
Mole fraction of 2-furaldehyde	Mole fraction of chlorobenzene	uncertainty
0.021	0	0.001
0.053	0.122	0.014
0.104	0.22	0.011
0.151	0.264	0.01
0.204	0.283	0.01
0.272	0.308	0.01
0.366	0.287	0.01
0.436	0.277	0.009
0.509	0.26	0.009
0.622	0.212	0.008
0.774	0.118	0.007
0.934	0	0.001

System: 2-furaldehyde + chlorobenzene + hexane; phases: Liquid mixture 1, Liquid mixture 2
Fixed: Temperature, K = 298.15
Fixed: Pressure, kPa = 101.3
Property: Mole fraction of chlorobenzene (Liquid mixture 1); method: Chromatography
Property: Mole fraction of chlorobenzene (Liquid mixture 2); method: Chromatography
Property: Mole fraction of 2-furaldehyde (Liquid mixture 2); method: Chromatography
Mole fraction of 2-furaldehyde	Mole fraction of chlorobenzene	uncertainty	Mole fraction of chlorobenzene	uncertainty	Mole fraction of 2-furaldehyde	uncertainty
0.038	0.069	0.019	0.051	0.006	0.87	
0.059	0.147	0.01	0.104	0.006	0.798	
0.136	0.253	0.006	0.188	0.006	0.656	
0.268	0.302	0.006	0.268	0.006	0.475	

System: 1,2-dichlorobenzene + 2-furaldehyde + hexane; phases: Liquid mixture 1, Liquid mixture 2
Fixed: Pressure, kPa = 101.3
Fixed: Temperature, K = 298.15
Property: Mole fraction of 1,2-dichlorobenzene (Liquid mixture 1); method: Titration method
Mole fraction of 2-furaldehyde	Mole fraction of 1,2-dichlorobenzene	uncertainty
0.021	0	0.001
0.053	0.06	0.01
0.101	0.128	0.008
0.155	0.176	0.008
0.206	0.212	0.008
0.293	0.238	0.008
0.394	0.242	0.008
0.459	0.237	0.008
0.554	0.217	0.008
0.629	0.181	0.008
0.764	0.115	0.007
0.863	0.052	0.006
0.934	0	0.001

System: 1,2-dichlorobenzene + 2-furaldehyde + hexane; phases: Liquid mixture 1, Liquid mixture 2
Fixed: Temperature, K = 298.15
Fixed: Pressure, kPa = 101.3
Property: Mole fraction of 1,2-dichlorobenzene (Liquid mixture 1); method: Chromatography
Property: Mole fraction of 1,2-dichlorobenzene (Liquid mixture 2); method: Chromatography
Property: Mole fraction of 2-furaldehyde (Liquid mixture 2); method: Chromatography
Mole fraction of 2-furaldehyde	Mole fraction of 1,2-dichlorobenzene	uncertainty	Mole fraction of 1,2-dichlorobenzene	uncertainty	Mole fraction of 2-furaldehyde	uncertainty
0.042	0.056	0.008	0.05	0.006	0.873	
0.083	0.11	0.007	0.086	0.006	0.816	
0.149	0.172	0.006	0.152	0.006	0.7	
0.22	0.218	0.006	0.202	0.006	0.585	

System: 2-furaldehyde + hexane + 1,3-dichlorobenzene; phases: Liquid mixture 1, Liquid mixture 2
Fixed: Pressure, kPa = 101.3
Fixed: Temperature, K = 298.15
Property: Mole fraction of 1,3-dichlorobenzene (Liquid mixture 1); method: Titration method
Mole fraction of 2-furaldehyde	Mole fraction of 1,3-dichlorobenzene	uncertainty
0.021	0	0.001
0.063	0.111	0.012
0.094	0.144	0.009
0.124	0.195	0.008
0.224	0.225	0.008
0.301	0.249	0.009
0.381	0.254	0.009
0.462	0.243	0.009
0.548	0.223	0.008
0.674	0.168	0.007
0.771	0.107	0.007
0.87	0.046	0.006
0.934	0	0.001

System: 2-furaldehyde + hexane + 1,3-dichlorobenzene; phases: Liquid mixture 1, Liquid mixture 2
Fixed: Temperature, K = 298.15
Fixed: Pressure, kPa = 101.3
Property: Mole fraction of 1,3-dichlorobenzene (Liquid mixture 1); method: Chromatography
Property: Mole fraction of 1,3-dichlorobenzene (Liquid mixture 2); method: Chromatography
Property: Mole fraction of 2-furaldehyde (Liquid mixture 2); method: Chromatography
Mole fraction of 2-furaldehyde	Mole fraction of 1,3-dichlorobenzene	uncertainty	Mole fraction of 1,3-dichlorobenzene	uncertainty	Mole fraction of 2-furaldehyde	uncertainty
0.038	0.061	0.016	0.02	0.006	0.911	
0.052	0.104	0.016	0.051	0.006	0.87	
0.12	0.171	0.006	0.125	0.006	0.751	
0.241	0.24	0.006	0.229	0.006	0.552	

System: 2-furaldehyde + hexane + 1,2,4-trichlorobenzene; phases: Liquid mixture 1, Liquid mixture 2
Fixed: Pressure, kPa = 101.3
Fixed: Temperature, K = 298.15
Property: Mole fraction of 1,2,4-trichlorobenzene (Liquid mixture 1); method: Titration method
Mole fraction of 2-furaldehyde	Mole fraction of 1,2,4-trichlorobenzene	uncertainty
0.021	0	0.001
0.049	0.041	0.01
0.095	0.122	0.009
0.145	0.17	0.008
0.192	0.215	0.008
0.253	0.235	0.008
0.303	0.241	0.008
0.394	0.245	0.009
0.46	0.236	0.008
0.549	0.216	0.008
0.669	0.168	0.007
0.769	0.105	0.007
0.874	0.042	0.006
0.934	0	0.001

System: 2-furaldehyde + hexane + 1,2,4-trichlorobenzene; phases: Liquid mixture 2, Liquid mixture 1
Fixed: Temperature, K = 298.15
Fixed: Pressure, kPa = 101.3
Property: Mole fraction of 1,2,4-trichlorobenzene (Liquid mixture 2); method: Chromatography
Property: Mole fraction of 1,2,4-trichlorobenzene (Liquid mixture 1); method: Chromatography
Property: Mole fraction of 2-furaldehyde (Liquid mixture 1); method: Chromatography
Mole fraction of 2-furaldehyde	Mole fraction of 1,2,4-trichlorobenzene	uncertainty	Mole fraction of 1,2,4-trichlorobenzene	uncertainty	Mole fraction of 2-furaldehyde	uncertainty
0.891	0.032	0.006	0.059	0.008	0.055	
0.799	0.087	0.006	0.123	0.008	0.103	
0.73	0.139	0.006	0.176	0.007	0.155	
0.595	0.197	0.006	0.232	0.006	0.234	

System: 2-furaldehyde + chlorobenzene + dodecane; phases: Liquid mixture 1, Liquid mixture 2
Fixed: Pressure, kPa = 101.3
Fixed: Temperature, K = 298.15
Property: Mole fraction of chlorobenzene (Liquid mixture 1); method: Titration method
Mole fraction of 2-furaldehyde	Mole fraction of chlorobenzene	uncertainty
0.04	0	0.001
0.072	0.143	0.028
0.084	0.252	0.023
0.111	0.32	0.015
0.146	0.38	0.013
0.226	0.434	0.014
0.305	0.439	0.014
0.371	0.427	0.013
0.424	0.415	0.013
0.471	0.415	0.013
0.541	0.372	0.012
0.652	0.299	0.011
0.838	0.132	0.008
0.966	0	0.001

System: 2-furaldehyde + chlorobenzene + dodecane; phases: Liquid mixture 1, Liquid mixture 2
Fixed: Temperature, K = 298.15
Fixed: Pressure, kPa = 101.3
Property: Mole fraction of 2-furaldehyde (Liquid mixture 1); method: Chromatography
Property: Mole fraction of 2-furaldehyde (Liquid mixture 2); method: Chromatography
Property: Mole fraction of chlorobenzene (Liquid mixture 2); method: Chromatography
Mole fraction of chlorobenzene	Mole fraction of 2-furaldehyde	uncertainty	Mole fraction of 2-furaldehyde	uncertainty	Mole fraction of chlorobenzene	uncertainty
0.101	0.06	0.005	0.914	0.007	0.04	
0.173	0.072	0.005	0.842	0.007	0.111	
0.3	0.103	0.005	0.751	0.007	0.2	
0.392	0.141	0.006	0.661	0.008	0.289	

System: 2-furaldehyde + chlorobenzene + hexadecane; phases: Liquid mixture 1, Liquid mixture 2
Fixed: Pressure, kPa = 101.3
Fixed: Temperature, K = 298.15
Property: Mole fraction of chlorobenzene (Liquid mixture 1); method: Titration method
Mole fraction of 2-furaldehyde	Mole fraction of chlorobenzene	uncertainty
0.028	0	0.001
0.066	0.203	0.026
0.098	0.345	0.022
0.122	0.408	0.019
0.14	0.46	0.02
0.228	0.514	0.015
0.3	0.509	0.015
0.354	0.497	0.015
0.411	0.475	0.015
0.457	0.457	0.014
0.511	0.426	0.014
0.599	0.364	0.012
0.702	0.278	0.01
0.995	0	0.001

System: 2-furaldehyde + chlorobenzene + hexadecane; phases: Liquid mixture 1, Liquid mixture 2
Fixed: Temperature, K = 298.15
Fixed: Pressure, kPa = 101.3
Property: Mole fraction of 2-furaldehyde (Liquid mixture 1); method: Chromatography
Property: Mole fraction of 2-furaldehyde (Liquid mixture 2); method: Chromatography
Property: Mole fraction of chlorobenzene (Liquid mixture 2); method: Chromatography
Mole fraction of chlorobenzene	Mole fraction of 2-furaldehyde	uncertainty	Mole fraction of 2-furaldehyde	uncertainty	Mole fraction of chlorobenzene	uncertainty
0.116	0.05	0.005	0.932	0.007	0.058	
0.21	0.069	0.005	0.859	0.007	0.127	
0.347	0.098	0.005	0.768	0.007	0.213	
0.447	0.136	0.005	0.693	0.008	0.284	

System: 1,2-dichlorobenzene + 2-furaldehyde + hexadecane; phases: Liquid mixture 1, Liquid mixture 2
Fixed: Pressure, kPa = 101.3
Fixed: Temperature, K = 298.15
Property: Mole fraction of 1,2-dichlorobenzene (Liquid mixture 1); method: Titration method
Mole fraction of 2-furaldehyde	Mole fraction of 1,2-dichlorobenzene	uncertainty
0.028	0	0.001
0.046	0.149	0.026
0.082	0.283	0.016
0.123	0.355	0.013
0.166	0.396	0.013
0.207	0.43	0.014
0.259	0.449	0.014
0.33	0.455	0.014
0.403	0.441	0.014
0.497	0.409	0.013
0.558	0.377	0.012
0.615	0.34	0.012
0.754	0.227	0.009
0.995	0	0.001

System: 1,2-dichlorobenzene + 2-furaldehyde + hexadecane; phases: Liquid mixture 1, Liquid mixture 2
Fixed: Temperature, K = 298.15
Fixed: Pressure, kPa = 101.3
Property: Mole fraction of 2-furaldehyde (Liquid mixture 1); method: Chromatography
Property: Mole fraction of 2-furaldehyde (Liquid mixture 2); method: Chromatography
Property: Mole fraction of 1,2-dichlorobenzene (Liquid mixture 2); method: Chromatography
Mole fraction of 1,2-dichlorobenzene	Mole fraction of 2-furaldehyde	uncertainty	Mole fraction of 2-furaldehyde	uncertainty	Mole fraction of 1,2-dichlorobenzene	uncertainty
0.104	0.045	0.005	0.932	0.007	0.059	
0.191	0.06	0.005	0.888	0.007	0.102	
0.332	0.102	0.006	0.768	0.008	0.213	
0.41	0.169	0.007	0.68	0.008	0.289	

System: 2-furaldehyde + 1,3-dichlorobenzene + hexadecane; phases: Liquid mixture 1, Liquid mixture 2
Fixed: Pressure, kPa = 101.3
Fixed: Temperature, K = 298.15
Property: Mole fraction of 1,3-dichlorobenzene (Liquid mixture 1); method: Titration method
Mole fraction of 2-furaldehyde	Mole fraction of 1,3-dichlorobenzene	uncertainty
0.028	0	0.001
0.046	0.175	0.027
0.075	0.261	0.018
0.1	0.342	0.014
0.147	0.403	0.014
0.191	0.444	0.014
0.246	0.474	0.015
0.317	0.469	0.015
0.386	0.454	0.014
0.496	0.41	0.013
0.559	0.377	0.012
0.621	0.338	0.011
0.725	0.254	0.01
0.995	0	0.001

System: 2-furaldehyde + 1,3-dichlorobenzene + hexadecane; phases: Liquid mixture 1, Liquid mixture 2
Fixed: Temperature, K = 298.15
Fixed: Pressure, kPa = 101.3
Property: Mole fraction of 2-furaldehyde (Liquid mixture 1); method: Chromatography
Property: Mole fraction of 2-furaldehyde (Liquid mixture 2); method: Chromatography
Property: Mole fraction of 1,3-dichlorobenzene (Liquid mixture 2); method: Chromatography
Mole fraction of 1,3-dichlorobenzene	Mole fraction of 2-furaldehyde	uncertainty	Mole fraction of 2-furaldehyde	uncertainty	Mole fraction of 1,3-dichlorobenzene	uncertainty
0.119	0.041	0.005	0.944	0.007	0.047	
0.219	0.056	0.005	0.902	0.007	0.087	
0.35	0.104	0.006	0.811	0.007	0.173	
0.431	0.16	0.006	0.757	0.008	0.222	

System: 2-furaldehyde + 1,2,4-trichlorobenzene + hexadecane; phases: Liquid mixture 1, Liquid mixture 2
Fixed: Pressure, kPa = 101.3
Fixed: Temperature, K = 298.15
Property: Mole fraction of 1,2,4-trichlorobenzene (Liquid mixture 1); method: Titration method
Mole fraction of 2-furaldehyde	Mole fraction of 1,2,4-trichlorobenzene	uncertainty
0.028	0	0.001
0.045	0.132	0.023
0.088	0.285	0.016
0.125	0.345	0.014
0.157	0.397	0.013
0.217	0.417	0.013
0.269	0.433	0.013
0.39	0.433	0.013
0.494	0.408	0.013
0.563	0.367	0.012
0.628	0.328	0.011
0.762	0.219	0.009
0.995	0	0.001

System: 2-furaldehyde + 1,2,4-trichlorobenzene + hexadecane; phases: Liquid mixture 1, Liquid mixture 2
Fixed: Temperature, K = 298.15
Fixed: Pressure, kPa = 101.3
Property: Mole fraction of 2-furaldehyde (Liquid mixture 1); method: Chromatography
Property: Mole fraction of 2-furaldehyde (Liquid mixture 2); method: Chromatography
Property: Mole fraction of 1,2,4-trichlorobenzene (Liquid mixture 2); method: Chromatography
Mole fraction of 1,2,4-trichlorobenzene	Mole fraction of 2-furaldehyde	uncertainty	Mole fraction of 2-furaldehyde	uncertainty	Mole fraction of 1,2,4-trichlorobenzene	uncertainty
0.112	0.053	0.005	0.935	0.007	0.052	
0.197	0.068	0.005	0.878	0.007	0.105	
0.32	0.104	0.005	0.8	0.008	0.179	
0.383	0.144	0.006	0.742	0.008	0.231	
