Measured thermophysical data. Phase Equilibria of Water + Furfural and Dichloromethane + n-Hexane
Source: J. Chem. Eng. Data, 2003, 10.1021/je020053r
Compound 1: water, H2O, InChI=1S/H2O/h1H2
Compound 2: 2-furaldehyde, C5H4O2, InChI=1S/C5H4O2/c6-4-5-2-1-3-7-5/h1-4H
Compound 3: dichloromethane, CH2Cl2, InChI=1S/CH2Cl2/c2-1-3/h1H2
Compound 4: hexane, C6H14, InChI=1S/C6H14/c1-3-5-6-4-2/h3-6H2,1-2H3

System: water; phases: Liquid
Property: Refractive index (Na D-line) (Liquid); method: Standard Abbe refractometry
Temperature, K	Pressure, kPa	Refractive index (Na D-line)	uncertainty
293.15	101.325	1.333	0.0007

System: water; phases: Liquid
Property: Mass density, kg/m3 (Liquid); method: UNKNOWN
Temperature, K	Pressure, kPa	Mass density, kg/m3	uncertainty
293.15	101.325	998.2	5

System: 2-furaldehyde; phases: Liquid
Property: Refractive index (Na D-line) (Liquid); method: Standard Abbe refractometry
Temperature, K	Pressure, kPa	Refractive index (Na D-line)	uncertainty
293.15	101.325	1.3749	0.0007

System: 2-furaldehyde; phases: Liquid
Property: Mass density, kg/m3 (Liquid); method: UNKNOWN
Temperature, K	Pressure, kPa	Mass density, kg/m3	uncertainty
293.15	101.325	1128.5	15.4

System: dichloromethane; phases: Liquid
Property: Refractive index (Na D-line) (Liquid); method: Standard Abbe refractometry
Temperature, K	Pressure, kPa	Refractive index (Na D-line)	uncertainty
293.15	101.325	1.4459	0.0007

System: dichloromethane; phases: Liquid
Property: Mass density, kg/m3 (Liquid); method: UNKNOWN
Temperature, K	Pressure, kPa	Mass density, kg/m3	uncertainty
293.15	101.325	1489	100

System: hexane; phases: Liquid
Property: Refractive index (Na D-line) (Liquid); method: Standard Abbe refractometry
Temperature, K	Pressure, kPa	Refractive index (Na D-line)	uncertainty
293.15	101.325	1.4868	0.0007

System: hexane; phases: Liquid
Property: Mass density, kg/m3 (Liquid); method: UNKNOWN
Temperature, K	Pressure, kPa	Mass density, kg/m3	uncertainty
293.15	101.325	659.3	5

System: 2-furaldehyde + water; phases: Liquid, Gas
Fixed: Pressure, kPa = 94.6
Property: Boiling temperature at pressure P, K (Liquid); method: Ebulliometric method (Recirculating still)
Mole fraction of water	Boiling temperature at pressure P, K	uncertainty
0	432.05	0.11
0.0625	410.05	0.11
0.1193	390.05	0.11
0.1688	382.65	0.11
0.2132	377.95	0.11
0.2529	375.05	0.11
0.2889	373.35	0.11
0.3218	372.05	0.11
0.3787	370.45	0.11
0.9767	369.45	0.11
0.988	370.15	0.11
0.995	370.75	0.11
1	371.25	0.11

System: 2-furaldehyde + water; phases: Liquid mixture 1, Liquid mixture 2, Gas
Property: Triple point temperature, K (Liquid mixture 1); method: Ebulliometric method (Recirculating still)
Mole fraction of water	Triple point temperature, K	uncertainty
0.4375	369.25	0.1
0.9149	369.25	0.1

System: dichloromethane + hexane; phases: Liquid, Gas
Fixed: Pressure, kPa = 94.6
Property: Boiling temperature at pressure P, K (Liquid); method: Ebulliometric method (Recirculating still)
Mole fraction of dichloromethane	Boiling temperature at pressure P, K	uncertainty
0	339.75	0.11
0.0969	326.75	0.11
0.1848	321.65	0.11
0.3377	316.85	0.11
0.466	314.75	0.11
0.6253	312.85	0.11
0.7912	311.55	0.11
0.9483	311.05	0.11
1	311.05	0.11
