Measured thermophysical data. Solubility of Ethane in N-Formyl Morpholine
Source: J. Chem. Eng. Data, 2003, 10.1021/je0255271
Compound 1: ethane, C2H6, InChI=1S/C2H6/c1-2/h1-2H3
Compound 2: N-formylmorpholine, C5H9NO2, InChI=1S/C5H9NO2/c7-5-6-1-3-8-4-2-6/h5H,1-4H2

System: ethane + N-formylmorpholine; phases: Liquid mixture 1, Liquid mixture 2, Gas
Property: Mole fraction of ethane (Liquid mixture 1); method: OTHER
Pressure, kPa	Mole fraction of ethane	uncertainty
4250	0.0953	0.0029

System: ethane + N-formylmorpholine; phases: Liquid, Gas
Property: Mole fraction of ethane (Liquid); method: OTHER
Temperature, K	Pressure, kPa	Mole fraction of ethane	uncertainty
298.15	90	0.00274	8e-05
298.15	150	0.00475	0.00014
298.15	370	0.0106	0.0003
298.15	750	0.0218	0.0007
298.15	780	0.0227	0.0007
298.15	1450	0.0403	0.0012
298.15	2120	0.0566	0.0017
298.15	2370	0.0619	0.0019
298.15	3540	0.0875	0.0026
298.15	6540	0.0998	0.003
298.15	11630	0.106	0.003
298.15	16360	0.111	0.003
298.15	20310	0.114	0.003
313.15	130	0.0034	0.0001
313.15	240	0.00599	0.00018
313.15	600	0.0153	0.0005
313.15	760	0.0187	0.0006
313.15	1280	0.0323	0.001
313.15	2450	0.0577	0.0017
313.15	2860	0.0659	0.002
313.15	4060	0.0887	0.0027
313.15	5330	0.104	0.003
313.15	5910	0.104	0.003
313.15	9480	0.114	0.003
313.15	14740	0.123	0.004
313.15	19470	0.127	0.004
323.15	240	0.00559	0.00017
323.15	770	0.0185	0.0006
323.15	1980	0.0449	0.0013
323.15	4190	0.0873	0.0026
323.15	5840	0.111	0.003
323.15	6560	0.12	0.004
323.15	8500	0.125	0.004
323.15	11060	0.129	0.004
323.15	13390	0.133	0.004
343.15	120	0.00276	8e-05
343.15	210	0.00442	0.00013
343.15	700	0.0147	0.0004
343.15	790	0.0166	0.0005
343.15	1290	0.0263	0.0008
343.15	2110	0.0423	0.0013
343.15	5200	0.0913	0.0027
343.15	6130	0.103	0.003
343.15	7030	0.113	0.003
343.15	8730	0.124	0.004
343.15	9620	0.127	0.004
343.15	14390	0.141	0.004
343.15	19160	0.152	0.005
373.15	110	0.0021	6e-05
373.15	240	0.00447	0.00013
373.15	560	0.0106	0.0003
373.15	750	0.0139	0.0004
373.15	1460	0.0267	0.0008
373.15	2830	0.0494	0.0015
373.15	3760	0.0633	0.0019
373.15	5230	0.0821	0.0025
373.15	6490	0.0999	0.003
373.15	6650	0.103	0.003
373.15	8160	0.118	0.004
373.15	9960	0.134	0.004
373.15	14600	0.157	0.005
373.15	18320	0.17	0.005
403.15	150	0.00277	8e-05
403.15	200	0.00332	0.0001
403.15	670	0.0116	0.0004
403.15	700	0.0115	0.0003
403.15	1510	0.0252	0.0008
403.15	2500	0.0429	0.0013
403.15	2720	0.0436	0.0013
403.15	3980	0.0639	0.0019
403.15	5470	0.0858	0.0026
403.15	5560	0.0865	0.0026
403.15	6620	0.101	0.003
403.15	9280	0.13	0.004
403.15	9740	0.132	0.004
403.15	14290	0.166	0.005
403.15	18200	0.189	0.006
