Measured thermophysical data. Solubility in Binary Solvent Mixtures: Pyrene Dissolved in Alcohol + Acetonitrile Mixtures at 299.2 K
Source: J. Chem. Eng. Data, 2003, 10.1021/je020226c
Compound 1: pyrene, C16H10, InChI=1S/C16H10/c1-3-11-7-9-13-5-2-6-14-10-8-12(4-1)15(11)16(13)14/h1-10H, purity 98%
Compound 2: propan-1-ol, C3H8O, InChI=1S/C3H8O/c1-2-3-4/h4H,2-3H2,1H3, purity 99.9%
Compound 3: propan-2-ol, C3H8O, InChI=1S/C3H8O/c1-3(2)4/h3-4H,1-2H3, purity 99%
Compound 4: butan-1-ol, C4H10O, InChI=1S/C4H10O/c1-2-3-4-5/h5H,2-4H2,1H3, purity 99.8%
Compound 5: butan-2-ol, C4H10O, InChI=1S/C4H10O/c1-3-4(2)5/h4-5H,3H2,1-2H3, purity 99%
Compound 6: 2-methyl-1-propanol, C4H10O, InChI=1S/C4H10O/c1-4(2)3-5/h4-5H,3H2,1-2H3, purity 99.5%
Compound 7: 3-methylbutan-1-ol, C5H12O, InChI=1S/C5H12O/c1-5(2)3-4-6/h5-6H,3-4H2,1-2H3, purity 99%
Compound 8: pentan-2-ol, C5H12O, InChI=1S/C5H12O/c1-3-4-5(2)6/h5-6H,3-4H2,1-2H3, purity 99%
Compound 9: acetonitrile, C2H3N, InChI=1S/C2H3N/c1-2-3/h1H3, purity 99.8%

System: propan-1-ol + pyrene; phases: Liquid, Crystal
Property: Mole fraction of pyrene (Liquid); method: OTHER
Temperature, K	Pressure, kPa	Mole fraction of pyrene	uncertainty
299.2	101	0.00426	0.00017

System: acetonitrile + pyrene; phases: Liquid, Crystal
Property: Mole fraction of pyrene (Liquid); method: OTHER
Temperature, K	Pressure, kPa	Mole fraction of pyrene	uncertainty
299.2	101	0.00614	0.00025

System: propan-2-ol + pyrene; phases: Liquid, Crystal
Property: Mole fraction of pyrene (Liquid); method: OTHER
Temperature, K	Pressure, kPa	Mole fraction of pyrene	uncertainty
299.2	101	0.0029	0.00012

System: butan-1-ol + pyrene; phases: Liquid, Crystal
Property: Mole fraction of pyrene (Liquid); method: OTHER
Temperature, K	Pressure, kPa	Mole fraction of pyrene	uncertainty
299.2	101	0.00622	0.00025

System: butan-2-ol + pyrene; phases: Liquid, Crystal
Property: Mole fraction of pyrene (Liquid); method: OTHER
Pressure, kPa	Temperature, K	Mole fraction of pyrene	uncertainty
101	299.2	0.00439	0.00018

System: 2-methyl-1-propanol + pyrene; phases: Liquid, Crystal
Property: Mole fraction of pyrene (Liquid); method: OTHER
Pressure, kPa	Temperature, K	Mole fraction of pyrene	uncertainty
101	299.2	0.00326	0.00013

System: 3-methylbutan-1-ol + pyrene; phases: Liquid, Crystal
Property: Mole fraction of pyrene (Liquid); method: OTHER
Temperature, K	Pressure, kPa	Mole fraction of pyrene	uncertainty
299.2	101	0.00546	0.00022

System: pyrene + pentan-2-ol; phases: Liquid, Crystal
Property: Mole fraction of pyrene (Liquid); method: OTHER
Pressure, kPa	Temperature, K	Mole fraction of pyrene	uncertainty
101	299.2	0.0064	0.00026

System: propan-1-ol + acetonitrile + pyrene; phases: Liquid, Crystal
Fixed: Temperature, K = 299.2
Fixed: Pressure, kPa = 101
Property: Mole fraction of pyrene (Liquid); method: OTHER
Solvent: Mole fraction of acetonitrile	Mole fraction of pyrene	uncertainty
0	0.00426	0.00017
0.1499	0.00702	0.00028
0.2732	0.00865	0.00035
0.4927	0.0099	0.0004
0.5924	0.00984	0.0004
0.6906	0.00929	0.00037
0.8323	0.00794	0.00032
0.9245	0.00689	0.00028
1	0.00614	0.00025

System: propan-2-ol + acetonitrile + pyrene; phases: Liquid, Crystal
Fixed: Temperature, K = 299.2
Fixed: Pressure, kPa = 101
Property: Mole fraction of pyrene (Liquid); method: OTHER
Solvent: Mole fraction of acetonitrile	Mole fraction of pyrene	uncertainty
0	0.0029	0.00012
0.1619	0.00555	0.00022
0.2662	0.00686	0.00028
0.4903	0.00845	0.00034
0.5636	0.00862	0.00035
0.6684	0.00828	0.00033
0.8408	0.00725	0.00029
0.9241	0.00663	0.00027
1	0.00614	0.00025

System: butan-1-ol + acetonitrile + pyrene; phases: Liquid, Crystal
Fixed: Temperature, K = 299.2
Fixed: Pressure, kPa = 101
Property: Mole fraction of pyrene (Liquid); method: OTHER
Solvent: Mole fraction of acetonitrile	Mole fraction of pyrene	uncertainty
0	0.00622	0.00025
0.1806	0.01034	0.00042
0.3037	0.01217	0.00049
0.5242	0.01363	0.00055
0.6349	0.0128	0.00052
0.7332	0.01179	0.00047
0.877	0.00886	0.00036
0.9377	0.00748	0.0003
1	0.00614	0.00025

System: acetonitrile + butan-2-ol + pyrene; phases: Liquid, Crystal
Fixed: Pressure, kPa = 101
Fixed: Temperature, K = 299.2
Property: Mole fraction of pyrene (Liquid); method: OTHER
Solvent: Mole fraction of acetonitrile	Mole fraction of pyrene	uncertainty
0	0.00439	0.00018
0.1711	0.00839	0.00034
0.3252	0.01118	0.00045
0.5339	0.01225	0.00049
0.6346	0.01163	0.00047
0.73	0.0105	0.00042
0.8762	0.00807	0.00032
0.9412	0.00693	0.00028
1	0.00614	0.00025

System: acetonitrile + 2-methyl-1-propanol + pyrene; phases: Liquid, Crystal
Fixed: Pressure, kPa = 101
Fixed: Temperature, K = 299.2
Property: Mole fraction of pyrene (Liquid); method: OTHER
Solvent: Mole fraction of acetonitrile	Mole fraction of pyrene	uncertainty
0	0.00326	0.00013
0.1714	0.00642	0.00026
0.3074	0.00872	0.00035
0.5382	0.01072	0.00043
0.6341	0.01058	0.00043
0.7241	0.00992	0.0004
0.8686	0.00802	0.00032
0.9331	0.00699	0.00028
1	0.00614	0.00025

System: acetonitrile + 3-methylbutan-1-ol + pyrene; phases: Liquid, Crystal
Fixed: Temperature, K = 299.2
Fixed: Pressure, kPa = 101
Property: Mole fraction of pyrene (Liquid); method: OTHER
Solvent: Mole fraction of acetonitrile	Mole fraction of pyrene	uncertainty
0	0.00546	0.00022
0.1981	0.00995	0.0004
0.3709	0.01223	0.00049
0.5829	0.01296	0.00052
0.66	0.01255	0.00051
0.7605	0.01132	0.00046
0.8929	0.00849	0.00034
0.9461	0.00734	0.0003
1	0.00614	0.00025

System: acetonitrile + pyrene + pentan-2-ol; phases: Liquid, Crystal
Fixed: Pressure, kPa = 101
Fixed: Temperature, K = 299.2
Property: Mole fraction of pyrene (Liquid); method: OTHER
Solvent: Mole fraction of acetonitrile	Mole fraction of pyrene	uncertainty
0	0.0064	0.00026
0.2222	0.01274	0.00051
0.3733	0.01517	0.00061
0.569	0.01584	0.00064
0.6652	0.01495	0.0006
0.7626	0.01283	0.00052
0.89	0.00925	0.00037
0.9494	0.00751	0.0003
1	0.00614	0.00025
