Measured thermophysical data. Vapor-Liquid Equilibrium Data at 343 K and Excess Molar Enthalpy Data at 298 K for the Binary Systems of Ethanol + 2,4,4-Trimethyl-1-pentene and 2-Propanol + 2,4,4-Trimethyl-1-pentene
Source: J. Chem. Eng. Data, 2003, 10.1021/je025556b
Compound 1: 2,4,4-trimethyl-1-pentene, C8H16, InChI=1S/C8H16/c1-7(2)6-8(3,4)5/h1,6H2,2-5H3
Compound 2: ethanol, C2H6O, InChI=1S/C2H6O/c1-2-3/h3H,2H2,1H3
Compound 3: propan-2-ol, C3H8O, InChI=1S/C3H8O/c1-3(2)4/h3-4H,1-2H3

System: 2,4,4-trimethyl-1-pentene; phases: Liquid, Gas
Fixed: Temperature, K = 343.43
Property: Vapor or sublimation pressure, kPa (Liquid); method: EBULLIO::UFactor:2
Vapor or sublimation pressure, kPa	uncertainty
38.4	0.3
38.2	0.3

System: ethanol; phases: Liquid, Gas
Property: Vapor or sublimation pressure, kPa (Liquid); method: EBULLIO:UFactor:2
Temperature, K	Vapor or sublimation pressure, kPa	uncertainty
316.3	21.07	0.1
326.49	34.61	0.12
335.03	51.22	0.15
338.7	59.97	0.18
342.65	70.9	0.19
343.43	73	0.2
344.11	75.37	0.24
344.57	76.84	0.23
345.48	79.75	0.23
346.68	83.77	0.25
348.31	89.52	0.25
348.87	91.55	0.26
349.49	93.88	0.28
351.36	101.18	0.28

System: propan-2-ol; phases: Liquid, Gas
Property: Vapor or sublimation pressure, kPa (Liquid); method: EBULLIO:UFactor:2
Temperature, K	Vapor or sublimation pressure, kPa	uncertainty
333.72	39.54	0.15
340.98	55.03	0.16
343.19	60.66	0.18
343.44	61.3	0.2
344.86	65.23	0.2
346.33	69.47	0.21
348.21	75.27	0.22
349.48	79.34	0.24
351.19	85.15	0.25
352.63	90.34	0.26
353.46	93.41	0.27
355.42	101.07	0.28

System: ethanol + 2,4,4-trimethyl-1-pentene; phases: Liquid, Gas
Property: Azeotropic composition: mole fraction of ethanol (Liquid); method: By X=Y
Temperature, K	Azeotropic composition: mole fraction of ethanol	uncertainty
343.43	0.66	0.01

System: ethanol + 2,4,4-trimethyl-1-pentene; phases: Liquid, Gas
Property: Azeotropic composition: mole fraction of ethanol (Liquid); method: By X=Y
Pressure, kPa	Azeotropic composition: mole fraction of ethanol	uncertainty
92.1	0.66	0.01

System: ethanol + 2,4,4-trimethyl-1-pentene; phases: Liquid, Gas
Fixed: Temperature, K = 298.15
Property: Excess molar enthalpy (molar enthalpy of mixing), kJ/mol (Liquid); method: FLOW:UFactor:2
Mole fraction of ethanol	Excess molar enthalpy (molar enthalpy of mixing), kJ/mol	uncertainty
0.0817	0.5109	0.0122
0.1231	0.5775	0.0136
0.2287	0.6675	0.0154
0.3201	0.6944	0.0159
0.4001	0.6916	0.0158
0.4707	0.6718	0.0154
0.5334	0.6451	0.0149
0.5896	0.6084	0.0142
0.6401	0.5667	0.0133
0.6858	0.5227	0.0125
0.7274	0.4798	0.0116
0.7654	0.4346	0.0107
0.8001	0.3888	0.0098
0.8321	0.3421	0.0088
0.8616	0.2946	0.0079
0.8889	0.2462	0.0069
0.9144	0.1985	0.006
0.938	0.1486	0.005
0.96	0.099	0.004

System: ethanol + 2,4,4-trimethyl-1-pentene; phases: Liquid, Gas
Property: Vapor or sublimation pressure, kPa (Liquid); method: EBULLIO:UFactor:2
Mole fraction of ethanol	Temperature, K	Vapor or sublimation pressure, kPa	uncertainty
0	343.43	38.4	0.3
0.028	343.53	57.7	0.4
0.05	343.53	67.9	0.5
0.097	343.45	77.5	0.5
0.153	343.46	82.9	0.5
0.23	343.42	86.7	0.5
0.297	343.48	88.9	0.5
0.363	343.42	90	0.5
0.413	343.43	90.7	0.5
0.507	343.44	91.7	0.5
0.546	343.43	91.9	0.5
0.578	343.43	92.1	0.5
0.628	343.43	92.3	0.5
0.668	343.43	92.1	0.5
0.714	343.43	92	0.5
0.754	343.43	91.6	0.5
0.793	343.43	91.1	0.5
0.831	343.43	90.3	0.5
0.868	343.44	88.9	0.4
0.895	343.43	87.4	0.4
0.917	343.43	85.8	0.4
0.96	343.43	81.1	0.4
0.978	343.43	78	0.4
0.989	343.44	75.6	0.4
0.997	343.43	73.8	0.4
1	343.43	73	0.4

System: ethanol + 2,4,4-trimethyl-1-pentene; phases: Gas, Liquid
Property: Mole fraction of ethanol (Gas); method: Chromatography
Mole fraction of ethanol	Temperature, K	Mole fraction of ethanol	uncertainty
0	343.43	0	0.001
0.028	343.53	0.353	0.006
0.05	343.53	0.444	0.007
0.097	343.45	0.523	0.008
0.153	343.46	0.564	0.007
0.23	343.42	0.593	0.007
0.297	343.48	0.61	0.007
0.363	343.42	0.623	0.006
0.413	343.43	0.63	0.006
0.507	343.44	0.644	0.006
0.546	343.43	0.649	0.006
0.578	343.43	0.655	0.006
0.628	343.43	0.662	0.006
0.668	343.43	0.67	0.006
0.714	343.43	0.68	0.005
0.754	343.43	0.691	0.005
0.793	343.43	0.707	0.005
0.831	343.43	0.723	0.005
0.868	343.44	0.748	0.004
0.895	343.43	0.767	0.004
0.917	343.43	0.791	0.003
0.96	343.43	0.864	0.002
0.978	343.43	0.918	0.001
0.989	343.44	0.957	0.001
0.997	343.43	0.988	0.001
1	343.43	1	0.001

System: propan-2-ol + 2,4,4-trimethyl-1-pentene; phases: Liquid, Gas
Fixed: Temperature, K = 298.15
Property: Excess molar enthalpy (molar enthalpy of mixing), kJ/mol (Liquid); method: FLOW:UFactor:2
Mole fraction of propan-2-ol	Excess molar enthalpy (molar enthalpy of mixing), kJ/mol	uncertainty
0.0646	0.5221	0.0124
0.0983	0.6186	0.0144
0.1858	0.778	0.0176
0.2655	0.8582	0.0192
0.3384	0.8964	0.0199
0.4052	0.8997	0.02
0.4668	0.8814	0.0196
0.5236	0.8485	0.019
0.5765	0.799	0.018
0.6254	0.74	0.0168
0.6711	0.6713	0.0154
0.7137	0.6062	0.0141
0.7537	0.5416	0.0128
0.7911	0.4706	0.0114
0.8264	0.4002	0.01
0.8595	0.3331	0.0087
0.8908	0.2587	0.0072
0.9203	0.1972	0.0059
0.9483	0.1258	0.0045
0.9748	0.0623	0.0032

System: propan-2-ol + 2,4,4-trimethyl-1-pentene; phases: Liquid, Gas
Property: Azeotropic composition: mole fraction of propan-2-ol (Liquid); method: By X=Y
Temperature, K	Azeotropic composition: mole fraction of propan-2-ol	uncertainty
343.43	0.65	0.01

System: propan-2-ol + 2,4,4-trimethyl-1-pentene; phases: Liquid, Gas
Property: Azeotropic composition: mole fraction of propan-2-ol (Liquid); method: By X=Y
Pressure, kPa	Azeotropic composition: mole fraction of propan-2-ol	uncertainty
75.5	0.65	0.01

System: propan-2-ol + 2,4,4-trimethyl-1-pentene; phases: Liquid, Gas
Property: Vapor or sublimation pressure, kPa (Liquid); method: EBULLIO:UFactor:2
Mole fraction of propan-2-ol	Temperature, K	Vapor or sublimation pressure, kPa	uncertainty
0	343.43	38.2	0.3
0.023	343.43	47.3	0.4
0.057	343.43	55.9	0.4
0.099	343.43	61.9	0.4
0.153	343.43	65.9	0.4
0.199	343.43	68.4	0.4
0.255	343.43	70.5	0.4
0.309	343.43	71.9	0.4
0.368	343.43	73	0.4
0.423	343.43	74.2	0.4
0.482	343.43	74.9	0.4
0.537	343.43	75.3	0.4
0.597	343.43	75.5	0.4
0.654	343.43	75.5	0.4
0.686	343.43	75.5	0.4
0.729	343.44	75.3	0.4
0.774	343.43	74.7	0.4
0.816	343.43	73.9	0.4
0.85	343.44	73	0.4
0.881	343.43	71.6	0.4
0.912	343.43	70	0.4
0.941	343.43	67.9	0.4
0.988	343.43	63.1	0.4
1	343.44	61.3	0.4

System: propan-2-ol + 2,4,4-trimethyl-1-pentene; phases: Gas, Liquid
Property: Mole fraction of propan-2-ol (Gas); method: Chromatography
Mole fraction of propan-2-ol	Temperature, K	Mole fraction of propan-2-ol	uncertainty
0	343.43	0	0.001
0.023	343.43	0.205	0.003
0.057	343.43	0.336	0.005
0.099	343.43	0.407	0.007
0.153	343.43	0.461	0.008
0.199	343.43	0.489	0.008
0.255	343.43	0.511	0.008
0.309	343.43	0.533	0.008
0.368	343.43	0.557	0.007
0.423	343.43	0.57	0.007
0.482	343.43	0.59	0.007
0.537	343.43	0.607	0.007
0.597	343.43	0.625	0.006
0.654	343.43	0.645	0.006
0.686	343.43	0.656	0.006
0.729	343.44	0.674	0.005
0.774	343.43	0.697	0.005
0.816	343.43	0.718	0.005
0.85	343.44	0.741	0.004
0.881	343.43	0.773	0.004
0.912	343.43	0.799	0.003
0.941	343.43	0.842	0.002
0.988	343.43	0.961	0.001
1	343.44	1	0.001
