Measured thermophysical data. Viscosity of saturated liquid dimethyl ether from ( 227 to 343 ) K
Source: J. Chem. Eng. Data, 2003, 10.1021/je0256232
Compound 1: dimethyl ether, C2H6O, InChI=1S/C2H6O/c1-3-2/h1-2H3, purity 99.95%
Compound 2: 1,1-difluoroethane, C2H4F2, InChI=1S/C2H4F2/c1-2(3)4/h2H,1H3, purity 99.95%

System: dimethyl ether; phases: Liquid, Gas
Property: Kinematic viscosity, m2/s (Liquid); method: Capillary tube (Ostwald; Ubbelohde) method
Temperature, K	Kinematic viscosity, m2/s	uncertainty
227.218	3.418e-07	1.05e-08
232.277	3.198e-07	9.9e-09
237.471	2.982e-07	9.2e-09
243.152	2.845e-07	8.8e-09
248.297	2.722e-07	8.4e-09
253.138	2.617e-07	8.1e-09
258.153	2.492e-07	7.7e-09
263.141	2.397e-07	7.4e-09
268.154	2.316e-07	7.2e-09
273.157	2.232e-07	6.9e-09
278.156	2.159e-07	6.7e-09
283.151	2.095e-07	6.5e-09
288.152	2.051e-07	6.4e-09
293.145	1.983e-07	6.2e-09
298.157	1.945e-07	6.1e-09
303.162	1.89e-07	5.9e-09
308.148	1.821e-07	5.7e-09
312.534	1.773e-07	5.6e-09
317.518	1.74e-07	5.5e-09
322.498	1.684e-07	5.3e-09
327.501	1.648e-07	5.2e-09
332.493	1.629e-07	5.1e-09
337.467	1.601e-07	5e-09
342.448	1.584e-07	5e-09

System: 1,1-difluoroethane; phases: Liquid, Gas
Property: Kinematic viscosity, m2/s (Liquid); method: Capillary tube (Ostwald; Ubbelohde) method
Temperature, K	Kinematic viscosity, m2/s	uncertainty
244.397	3.087e-07	9.5e-09
253.46	2.788e-07	8.6e-09
263.913	2.414e-07	7.5e-09
271.62	2.249e-07	7e-09
281.749	2.055e-07	6.4e-09
293.103	1.883e-07	5.9e-09
303.082	1.735e-07	5.4e-09
315.345	1.637e-07	5.1e-09
315.347	1.633e-07	5.1e-09
325.328	1.526e-07	4.8e-09
325.132	1.515e-07	4.8e-09
