Measured thermophysical data. Vapor-Liquid Equilibria and Excess Molar Enthalpies for N-Methyl-2-pyrrolidone with Chloroethanes and Chloroethenes
Source: J. Chem. Eng. Data, 2003, 10.1021/je020065c
Compound 1: N-methylpyrrolidone, C5H9NO, InChI=1S/C5H9NO/c1-6-4-2-3-5(6)7/h2-4H2,1H3
Compound 2: 1,2-dichloroethane, C2H4Cl2, InChI=1S/C2H4Cl2/c3-1-2-4/h1-2H2
Compound 3: 1,1,1-trichloroethane, C2H3Cl3, InChI=1S/C2H3Cl3/c1-2(3,4)5/h1H3
Compound 4: 1,1,2,2-tetrachloroethane, C2H2Cl4, InChI=1S/C2H2Cl4/c3-1(4)2(5)6/h1-2H
Compound 5: trichloroethene, C2HCl3, InChI=1S/C2HCl3/c3-1-2(4)5/h1H
Compound 6: tetrachloroethene, C2Cl4, InChI=1S/C2Cl4/c3-1(4)2(5)6

System: N-methylpyrrolidone; phases: Liquid, Gas
Property: Boiling temperature at pressure P, K (Liquid); method: EBULLIO:dP:0.133
Pressure, kPa	Boiling temperature at pressure P, K	uncertainty
101.3	475.45	0.5

System: N-methylpyrrolidone; phases: Liquid
Property: Mass density, kg/m3 (Liquid); method: PYCNOM:dT:0.2
Temperature, K	Pressure, kPa	Mass density, kg/m3	uncertainty
303.1	101.325	1023.4	0.7

System: 1,2-dichloroethane; phases: Liquid, Gas
Property: Boiling temperature at pressure P, K (Liquid); method: EBULLIO:dP:0.133
Pressure, kPa	Boiling temperature at pressure P, K	uncertainty
101.3	356.95	0.5

System: 1,2-dichloroethane; phases: Liquid
Property: Mass density, kg/m3 (Liquid); method: PYCNOM:dT:0.2
Temperature, K	Pressure, kPa	Mass density, kg/m3	uncertainty
303.1	101.325	1238.3	0.8

System: 1,1,1-trichloroethane; phases: Liquid, Gas
Property: Boiling temperature at pressure P, K (Liquid); method: EBULLIO:dP:0.133
Pressure, kPa	Boiling temperature at pressure P, K	uncertainty
101.3	347.35	0.5

System: 1,1,1-trichloroethane; phases: Liquid
Property: Mass density, kg/m3 (Liquid); method: PYCNOM:dT:0.2
Temperature, K	Pressure, kPa	Mass density, kg/m3	uncertainty
303.1	101.325	1320.94	0.88

System: 1,1,2,2-tetrachloroethane; phases: Liquid, Gas
Property: Boiling temperature at pressure P, K (Liquid); method: EBULLIO:dP:0.133
Pressure, kPa	Boiling temperature at pressure P, K	uncertainty
101.3	419.35	0.5

System: 1,1,2,2-tetrachloroethane; phases: Liquid
Property: Mass density, kg/m3 (Liquid); method: PYCNOM:dT:0.2
Temperature, K	Pressure, kPa	Mass density, kg/m3	uncertainty
303.1	101.325	1578.58	1.06

System: trichloroethene; phases: Liquid, Gas
Property: Boiling temperature at pressure P, K (Liquid); method: EBULLIO:dP:0.133
Pressure, kPa	Boiling temperature at pressure P, K	uncertainty
101.3	360.25	0.5

System: trichloroethene; phases: Liquid
Property: Mass density, kg/m3 (Liquid); method: PYCNOM:dT:0.2
Temperature, K	Pressure, kPa	Mass density, kg/m3	uncertainty
303.1	101.325	1451.2	1

System: tetrachloroethene; phases: Liquid, Gas
Property: Boiling temperature at pressure P, K (Liquid); method: EBULLIO:dP:0.133
Pressure, kPa	Boiling temperature at pressure P, K	uncertainty
101.3	394.15	0.5

System: tetrachloroethene; phases: Liquid
Property: Mass density, kg/m3 (Liquid); method: PYCNOM:dT:0.2
Temperature, K	Pressure, kPa	Mass density, kg/m3	uncertainty
303.1	101.325	1606.4	1.1

System: 1,2-dichloroethane + N-methylpyrrolidone; phases: Liquid
Fixed: Pressure, kPa = 101.3
Fixed: Temperature, K = 298.15
Property: Excess molar enthalpy (molar enthalpy of mixing), kJ/mol (Liquid); method: FLOW:UFactor:4
Mole fraction of 1,2-dichloroethane	Excess molar enthalpy (molar enthalpy of mixing), kJ/mol	uncertainty
0.0658	-0.2365	0.0106
0.1316	-0.4586	0.0183
0.1959	-0.6649	0.0254
0.2633	-0.8587	0.0321
0.331	-1.0366	0.0383
0.3947	-1.1784	0.0432
0.4525	-1.2577	0.0459
0.592	-1.1153	0.041
0.6421	-1.0273	0.0379
0.6925	-0.9083	0.0338
0.7469	-0.8118	0.0305
0.8024	-0.6785	0.0259
0.856	-0.5136	0.0202
0.9111	-0.3355	0.014
0.9608	-0.1685	0.0083

System: 1,2-dichloroethane + N-methylpyrrolidone; phases: Liquid, Gas
Fixed: Pressure, kPa = 95.3
Property: Boiling temperature at pressure P, K (Liquid); method: EBULLIO:UFactor:16
Mole fraction of 1,2-dichloroethane	Boiling temperature at pressure P, K	uncertainty
0	473.25	0.5
0.0512	463.65	0.5
0.1082	453.65	0.5
0.2667	427.35	0.5
0.4	408.25	0.5
0.459	400.85	0.5
0.7752	368.95	0.5
0.8898	360.55	0.5
0.9225	358.55	0.5
1	355.05	0.5

System: 1,1,1-trichloroethane + N-methylpyrrolidone; phases: Liquid
Fixed: Pressure, kPa = 101.3
Fixed: Temperature, K = 298.15
Property: Excess molar enthalpy (molar enthalpy of mixing), kJ/mol (Liquid); method: FLOW:UFactor:4
Mole fraction of 1,1,1-trichloroethane	Excess molar enthalpy (molar enthalpy of mixing), kJ/mol	uncertainty
0.0303	-0.0605	0.005
0.0662	-0.135	0.0073
0.1039	-0.208	0.0097
0.1525	-0.2939	0.0126
0.2006	-0.3745	0.0154
0.2534	-0.4429	0.0177
0.3046	-0.509	0.02
0.3555	-0.5549	0.0216
0.4018	-0.5823	0.0225
0.4556	-0.5831	0.0226
0.5054	-0.5816	0.0225
0.5576	-0.5713	0.0222
0.6104	-0.5898	0.0228
0.6634	-0.5882	0.0227
0.7153	-0.5638	0.0219
0.7694	-0.51	0.02
0.8172	-0.4905	0.0194
0.8714	-0.4329	0.0174
0.9228	-0.3277	0.0138
0.9649	-0.1827	0.0088

System: 1,1,1-trichloroethane + N-methylpyrrolidone; phases: Liquid, Gas
Fixed: Pressure, kPa = 95.3
Property: Boiling temperature at pressure P, K (Liquid); method: EBULLIO:UFactor:16
Mole fraction of 1,1,1-trichloroethane	Boiling temperature at pressure P, K	uncertainty
0	473.25	0.5
0.1005	439.35	0.5
0.1937	415.35	0.5
0.3592	387.15	0.5
0.4683	374.85	0.5
0.6059	363.65	0.5
0.7193	356.85	0.5
0.8367	351.35	0.5
0.9275	347.85	0.5
1	345.45	0.5

System: 1,1,2,2-tetrachloroethane + N-methylpyrrolidone; phases: Liquid
Fixed: Pressure, kPa = 101.3
Fixed: Temperature, K = 298.15
Property: Excess molar enthalpy (molar enthalpy of mixing), kJ/mol (Liquid); method: FLOW:UFactor:4
Mole fraction of 1,1,2,2-tetrachloroethane	Excess molar enthalpy (molar enthalpy of mixing), kJ/mol	uncertainty
0.0331	-0.4736	0.0188
0.0582	-0.8596	0.0321
0.0765	-1.0713	0.0395
0.1279	-1.7834	0.0641
0.1292	-1.727	0.0622
0.1796	-2.3226	0.0828
0.2318	-2.945	0.1043
0.2344	-2.908	0.1031
0.288	-3.5053	0.1237
0.3219	-3.7362	0.1317
0.34	-4.0278	0.1418
0.4028	-4.2331	0.149
0.4675	-4.567	0.1605
0.5226	-4.7498	0.1669
0.5688	-4.8414	0.17
0.5953	-4.8531	0.1704
0.6265	-4.5472	0.1598
0.6815	-4.1867	0.1474
0.7384	-3.7221	0.1313
0.7933	-3.1047	0.1099
0.8536	-2.2318	0.0796
0.9099	-1.4803	0.0536
0.9574	-0.7502	0.0283

System: 1,1,2,2-tetrachloroethane + N-methylpyrrolidone; phases: Liquid, Gas
Fixed: Pressure, kPa = 95.3
Property: Boiling temperature at pressure P, K (Liquid); method: EBULLIO:UFactor:16
Mole fraction of 1,1,2,2-tetrachloroethane	Boiling temperature at pressure P, K	uncertainty
0	473.25	0.5
0.0755	469.35	0.5
0.1319	466.65	0.5
0.3474	455.35	0.5
0.5776	441.55	0.5
0.6458	437.25	0.5
0.7848	428.25	0.5
0.9162	420.85	0.5
0.9623	418.55	0.5
1	417.05	0.5

System: trichloroethene + N-methylpyrrolidone; phases: Liquid
Fixed: Pressure, kPa = 101.3
Fixed: Temperature, K = 298.15
Property: Excess molar enthalpy (molar enthalpy of mixing), kJ/mol (Liquid); method: FLOW:UFactor:4
Mole fraction of trichloroethene	Excess molar enthalpy (molar enthalpy of mixing), kJ/mol	uncertainty
0.0381	-0.19	0.009
0.0886	-0.443	0.0177
0.1426	-0.6629	0.0253
0.2005	-0.9026	0.0336
0.2675	-1.1538	0.0423
0.3373	-1.4331	0.052
0.4001	-1.6473	0.0594
0.6547	-1.4343	0.052
0.7095	-1.3164	0.0479
0.7643	-1.1706	0.0429
0.8186	-0.9626	0.0357
0.873	-0.7349	0.0278
0.9254	-0.4694	0.0186
0.9678	-0.211	0.0098

System: trichloroethene + N-methylpyrrolidone; phases: Liquid, Gas
Fixed: Pressure, kPa = 93.5
Property: Boiling temperature at pressure P, K (Liquid); method: EBULLIO:UFactor:16
Mole fraction of trichloroethene	Boiling temperature at pressure P, K	uncertainty
0	473.25	0.5
0.0725	458.55	0.5
0.1507	443.15	0.5
0.3078	415.65	0.5
0.4447	396.95	0.5
0.6156	379.65	0.5
0.7193	371.75	0.5
0.8102	366.15	0.5
0.9275	360.45	0.5
1	358.25	0.5

System: tetrachloroethene + N-methylpyrrolidone; phases: Liquid
Fixed: Pressure, kPa = 101.3
Fixed: Temperature, K = 298.15
Property: Excess molar enthalpy (molar enthalpy of mixing), kJ/mol (Liquid); method: FLOW:UFactor:4
Mole fraction of tetrachloroethene	Excess molar enthalpy (molar enthalpy of mixing), kJ/mol	uncertainty
0.039	-0.01	0.0034
0.0887	-0.0122	0.0035
0.1357	-0.005	0.0033
0.2415	0.0293	0.004
0.2932	0.0574	0.0049
0.3454	0.0895	0.0059
0.536	0.2607	0.0115
0.6006	0.2967	0.0127
0.6688	0.3361	0.014
0.742	0.3242	0.0136
0.813	0.2953	0.0126
0.8822	0.2367	0.0106
0.9441	0.1429	0.0075

System: tetrachloroethene + N-methylpyrrolidone; phases: Liquid, Gas
Fixed: Pressure, kPa = 95.3
Property: Boiling temperature at pressure P, K (Liquid); method: EBULLIO:UFactor:16
Mole fraction of tetrachloroethene	Boiling temperature at pressure P, K	uncertainty
0	473.25	0.5
0.1002	451.55	0.5
0.1899	437.85	0.5
0.4386	413.55	0.5
0.4839	410.35	0.5
0.6251	402.35	0.5
0.75	397.05	0.5
0.8869	393.25	0.5
0.9313	392.55	0.5
1	391.95	0.5
