Measured thermophysical data. Bubble-Point Measurement for CO2 + Vinyl Acetate and CO2 + Vinyl Acrylate Systems at High Pressures.
Source: J. Chem. Eng. Data, 2003, 10.1021/je0201121
Compound 1: vinyl acetate, C4H6O2, InChI=1S/C4H6O2/c1-3-6-4(2)5/h3H,1H2,2H3
Compound 2: carbon dioxide, CO2, InChI=1S/CO2/c2-1-3
Compound 3: vinyl acrylate, C5H6O2, InChI=1S/C5H6O2/c1-3-5(6)7-4-2/h3-4H,1-2H2

System: vinyl acetate + carbon dioxide; phases: Liquid, Gas
Property: Critical pressure, kPa (Liquid); method: Direct measurement
Mole fraction of vinyl acetate	Critical pressure, kPa	uncertainty
0.027	8310	420
0.063	10170	510
0.102	11550	580
0.146	12170	610
0.204	12680	630

System: vinyl acetate + carbon dioxide; phases: Liquid, Gas
Property: Critical temperature, K (Liquid); method: Visual observation in a stirred cell
Mole fraction of vinyl acetate	Critical temperature, K	uncertainty
0.027	313.15	0.3
0.063	333.15	0.4
0.102	353.15	0.5
0.146	373.15	0.6
0.204	393.15	0.7

System: vinyl acetate + carbon dioxide; phases: Liquid, Gas
Property: Vapor or sublimation pressure, kPa (Liquid); method: CCELL:UFactor:16
Temperature, K	Mole fraction of vinyl acetate	Vapor or sublimation pressure, kPa	uncertainty
313.15	0.037	8380	420
313.15	0.039	8380	420
313.15	0.049	8070	400
313.15	0.063	8070	400
313.15	0.087	7790	390
313.15	0.102	7620	380
313.15	0.128	7270	360
313.15	0.146	7180	360
313.15	0.204	6440	320
313.15	0.221	6390	320
313.15	0.26	5940	300
313.15	0.407	4620	230
313.15	0.508	3830	190
313.15	0.734	2460	120
333.15	0.087	10170	510
333.15	0.102	9990	500
333.15	0.128	9580	480
333.15	0.146	9420	470
333.15	0.204	8510	420
333.15	0.221	8350	420
333.15	0.26	7700	380
333.15	0.407	6000	300
333.15	0.508	4860	250
333.15	0.734	3180	160
353.15	0.128	11370	560
353.15	0.146	11210	560
353.15	0.204	10380	520
353.15	0.221	10150	500
353.15	0.26	9530	470
353.15	0.407	7520	380
353.15	0.508	6100	310
353.15	0.734	3830	190
373.1	0.204	11830	590
373.1	0.221	11730	580
373.1	0.26	11180	560
373.1	0.407	9040	450
373.1	0.508	7480	380
373.1	0.734	4410	220
393.15	0.221	12590	620
393.15	0.26	12320	610
393.15	0.407	10380	520
393.15	0.508	8720	440
393.15	0.734	5030	250

System: carbon dioxide + vinyl acrylate; phases: Liquid, Gas
Property: Critical pressure, kPa (Liquid); method: Direct measurement
Mole fraction of vinyl acrylate	Critical pressure, kPa	uncertainty
0.055	10450	520
0.083	12100	610
0.111	13140	660
0.192	13860	690

System: carbon dioxide + vinyl acrylate; phases: Liquid, Gas
Property: Critical temperature, K (Liquid); method: Visual observation in a stirred cell
Mole fraction of vinyl acrylate	Critical temperature, K	uncertainty
0.055	338.15	0.4
0.083	358.15	0.6
0.111	378.15	0.8
0.138	398.15	1

System: carbon dioxide + vinyl acrylate; phases: Liquid, Gas
Property: Vapor or sublimation pressure, kPa (Liquid); method: CCELL:UFactor:16
Temperature, K	Mole fraction of vinyl acrylate	Vapor or sublimation pressure, kPa	uncertainty
318.15	0.083	8650	430
318.15	0.111	8410	420
318.15	0.138	8140	400
318.15	0.192	7720	380
318.15	0.199	7670	380
318.15	0.239	7210	360
318.15	0.299	6850	340
318.15	0.358	6530	330
318.15	0.463	5620	280
318.15	0.51	5100	260
318.15	0.57	4910	250
318.15	0.594	4620	230
338.15	0.083	10400	520
338.15	0.111	10360	510
338.15	0.138	10240	510
338.15	0.192	9760	480
338.15	0.199	9700	480
338.15	0.239	9250	460
338.15	0.299	8430	420
338.15	0.358	7850	390
338.15	0.463	6930	350
338.15	0.51	6360	320
338.15	0.57	5910	300
338.15	0.594	5590	280
358.15	0.111	12100	600
358.15	0.138	12030	600
358.15	0.192	11690	580
358.15	0.199	11600	580
358.15	0.239	11160	550
358.15	0.299	10290	510
358.15	0.358	9470	470
358.15	0.463	8170	410
358.15	0.51	7540	380
358.15	0.57	6670	340
358.15	0.594	6430	320
378.15	0.138	13280	660
378.15	0.192	13240	660
378.15	0.199	13220	660
378.15	0.239	12780	630
378.15	0.299	11810	590
378.15	0.358	10950	550
378.15	0.463	9310	470
378.15	0.51	8560	430
378.15	0.57	7530	380
378.15	0.594	7190	360
398.15	0.199	13740	680
398.15	0.239	13680	680
398.15	0.299	13020	650
398.15	0.358	11950	600
398.15	0.463	10350	520
398.15	0.51	9570	480
398.15	0.57	8320	420
398.15	0.594	7950	400

System: carbon dioxide + vinyl acrylate; phases: Gas, Liquid
Property: Vapor or sublimation pressure, kPa (Gas); method: CCELL:UFactor:16
Temperature, K	Mole fraction of vinyl acrylate	Vapor or sublimation pressure, kPa	uncertainty
398.15	0.138	13760	700
