Measured thermophysical data. Thermal Conductivity and Thermal Diffusivity of Sixteen Isomers of Alkanes: CnH2n+2 (n = 6 to 8)
Source: J. Chem. Eng. Data, 2003, 10.1021/je020125e
Compound 1: 2-methylpentane, C6H14, InChI=1S/C6H14/c1-4-5-6(2)3/h6H,4-5H2,1-3H3
Compound 2: 3-methylpentane, C6H14, InChI=1S/C6H14/c1-4-6(3)5-2/h6H,4-5H2,1-3H3
Compound 3: 2,2-dimethylbutane, C6H14, InChI=1S/C6H14/c1-5-6(2,3)4/h5H2,1-4H3
Compound 4: 2,3-dimethylbutane, C6H14, InChI=1S/C6H14/c1-5(2)6(3)4/h5-6H,1-4H3
Compound 5: 2-methylhexane, C7H16, InChI=1S/C7H16/c1-4-5-6-7(2)3/h7H,4-6H2,1-3H3
Compound 6: 3-methylhexane, C7H16, InChI=1S/C7H16/c1-4-6-7(3)5-2/h7H,4-6H2,1-3H3
Compound 7: 2,2-dimethylpentane, C7H16, InChI=1S/C7H16/c1-5-6-7(2,3)4/h5-6H2,1-4H3
Compound 8: 2,3-dimethylpentane, C7H16, InChI=1S/C7H16/c1-5-7(4)6(2)3/h6-7H,5H2,1-4H3
Compound 9: 2,4-dimethylpentane, C7H16, InChI=1S/C7H16/c1-6(2)5-7(3)4/h6-7H,5H2,1-4H3
Compound 10: 3,3-dimethylpentane, C7H16, InChI=1S/C7H16/c1-5-7(3,4)6-2/h5-6H2,1-4H3
Compound 11: 2,2,3-trimethylbutane, C7H16, InChI=1S/C7H16/c1-6(2)7(3,4)5/h6H,1-5H3
Compound 12: 3-ethylpentane, C7H16, InChI=1S/C7H16/c1-4-7(5-2)6-3/h7H,4-6H2,1-3H3
Compound 13: 2-methylheptane, C8H18, InChI=1S/C8H18/c1-4-5-6-7-8(2)3/h8H,4-7H2,1-3H3
Compound 14: 3-methylheptane, C8H18, InChI=1S/C8H18/c1-4-6-7-8(3)5-2/h8H,4-7H2,1-3H3
Compound 15: 2,2,4-trimethylpentane, C8H18, InChI=1S/C8H18/c1-7(2)6-8(3,4)5/h7H,6H2,1-5H3
Compound 16: 2,3,4-trimethylpentane, C8H18, InChI=1S/C8H18/c1-6(2)8(5)7(3)4/h6-8H,1-5H3

System: 2-methylpentane; phases: Liquid
Fixed: Pressure, kPa = 101.325
Property: Thermal conductivity, W/m/K (Liquid); method: Hot wire method
Temperature, K	Thermal conductivity, W/m/K	uncertainty
256.5647	0.11819	0.00082
256.8867	0.11805	0.00081
257.2928	0.11789	0.00081
277.0102	0.1114	0.00077
277.3452	0.11125	0.00077
277.8018	0.11107	0.00077
297.3569	0.10492	0.00073
297.7057	0.10479	0.00073
298.1567	0.10459	0.00073
314.1525	0.09989	0.0007
314.5076	0.09978	0.0007
314.9887	0.09959	0.0007
328.2921	0.09597	0.00068
328.6397	0.09583	0.00068
329.1529	0.09564	0.00068

System: 2-methylpentane; phases: Liquid
Fixed: Pressure, kPa = 101.325
Property: Thermal diffusivity, m2/s (Liquid); method: Hot wire method
Temperature, K	Thermal diffusivity, m2/s	uncertainty
257.7863	8.232e-08	1.54e-09
258.5917	8.181e-08	1.53e-09
259.6148	8.152e-08	1.53e-09
278.2779	7.654e-08	1.44e-09
279.0985	7.608e-08	1.43e-09
280.2158	7.572e-08	1.42e-09
298.6642	7.113e-08	1.34e-09
299.5034	7.091e-08	1.33e-09
300.5749	7.038e-08	1.32e-09
315.4996	6.711e-08	1.26e-09
316.3391	6.694e-08	1.26e-09
317.4666	6.651e-08	1.25e-09
329.7027	6.423e-08	1.21e-09
330.5084	6.394e-08	1.21e-09
331.6977	6.356e-08	1.2e-09

System: 3-methylpentane; phases: Liquid
Fixed: Pressure, kPa = 101.325
Property: Thermal conductivity, W/m/K (Liquid); method: Hot wire method
Temperature, K	Thermal conductivity, W/m/K	uncertainty
256.6827	0.11963	0.00097
256.9987	0.11948	0.00097
257.4341	0.11929	0.00097
276.7059	0.11293	0.00092
277.0193	0.11279	0.00092
277.4638	0.11259	0.00092
296.3875	0.1066	0.00087
296.7438	0.10651	0.00087
297.2004	0.10634	0.00087
314.2212	0.10132	0.00084
314.592	0.10121	0.00083
315.0827	0.10101	0.00083
328.3551	0.09736	0.00081
328.7489	0.09723	0.0008
329.2649	0.09705	0.0008

System: 3-methylpentane; phases: Liquid
Fixed: Pressure, kPa = 101.325
Property: Thermal diffusivity, m2/s (Liquid); method: Hot wire method
Temperature, K	Thermal diffusivity, m2/s	uncertainty
257.8858	8.314e-08	1.6e-09
258.6701	8.269e-08	1.59e-09
259.7494	8.22e-08	1.58e-09
277.9844	7.743e-08	1.49e-09
278.7436	7.705e-08	1.48e-09
279.8214	7.666e-08	1.48e-09
297.6915	7.208e-08	1.39e-09
298.5452	7.198e-08	1.39e-09
299.6291	7.162e-08	1.38e-09
315.5692	6.804e-08	1.31e-09
316.4432	6.796e-08	1.31e-09
317.5801	6.746e-08	1.3e-09
329.7255	6.508e-08	1.26e-09
330.6362	6.494e-08	1.26e-09
331.8159	6.444e-08	1.25e-09

System: 2,2-dimethylbutane; phases: Liquid
Fixed: Pressure, kPa = 101.325
Property: Thermal conductivity, W/m/K (Liquid); method: Hot wire method
Temperature, K	Thermal conductivity, W/m/K	uncertainty
257.4796	0.10546	0.00105
257.8398	0.10528	0.00105
258.2959	0.10511	0.00104
271.4878	0.10112	0.00101
271.8443	0.101	0.00101
272.3163	0.1008	0.001
279.862	0.09854	0.00098
280.2365	0.09842	0.00098
280.7332	0.09822	0.00098
297.9834	0.09321	0.00093
298.4158	0.09307	0.00093
298.9051	0.09289	0.00093
319.3485	0.08745	0.00088
319.7472	0.08729	0.00088
320.2807	0.08709	0.00088

System: 2,2-dimethylbutane; phases: Liquid
Fixed: Pressure, kPa = 101.325
Property: Thermal diffusivity, m2/s (Liquid); method: Hot wire method
Temperature, K	Thermal diffusivity, m2/s	uncertainty
258.7404	7.54e-08	1.51e-09
259.6169	7.493e-08	1.5e-09
260.7311	7.458e-08	1.5e-09
272.7932	7.156e-08	1.44e-09
273.654	7.135e-08	1.43e-09
274.7762	7.077e-08	1.42e-09
281.1672	6.939e-08	1.39e-09
282.0612	6.916e-08	1.39e-09
283.2287	6.853e-08	1.38e-09
299.3067	6.48e-08	1.3e-09
300.314	6.458e-08	1.3e-09
301.4437	6.411e-08	1.29e-09
320.7182	6.029e-08	1.22e-09
321.6222	5.992e-08	1.21e-09
322.8267	5.949e-08	1.2e-09

System: 2,3-dimethylbutane; phases: Liquid
Fixed: Pressure, kPa = 101.325
Property: Thermal conductivity, W/m/K (Liquid); method: Hot wire method
Temperature, K	Thermal conductivity, W/m/K	uncertainty
256.8113	0.11278	0.00092
257.189	0.11266	0.00092
257.6889	0.11246	0.00092
277.98	0.10606	0.00087
278.3755	0.10591	0.00087
278.9092	0.10573	0.00087
297.6266	0.10004	0.00083
298.0565	0.0999	0.00082
298.601	0.09972	0.00082
318.1055	0.09429	0.00078
318.4464	0.09416	0.00078
319.0611	0.09398	0.00078
336.2858	0.08957	0.00075
336.652	0.08944	0.00075
337.2953	0.08925	0.00074

System: 2,3-dimethylbutane; phases: Liquid
Fixed: Pressure, kPa = 101.325
Property: Thermal diffusivity, m2/s (Liquid); method: Hot wire method
Temperature, K	Thermal diffusivity, m2/s	uncertainty
258.0926	7.873e-08	1.52e-09
258.9813	7.845e-08	1.51e-09
260.1325	7.787e-08	1.5e-09
279.2903	7.305e-08	1.41e-09
280.1915	7.27e-08	1.4e-09
281.3924	7.234e-08	1.4e-09
298.9491	6.799e-08	1.31e-09
299.8976	6.771e-08	1.31e-09
301.086	6.736e-08	1.3e-09
319.628	6.385e-08	1.24e-09
320.3611	6.346e-08	1.23e-09
321.6739	6.309e-08	1.22e-09
337.8453	6.041e-08	1.17e-09
338.6168	6.009e-08	1.17e-09
339.9627	5.967e-08	1.16e-09

System: 2-methylhexane; phases: Liquid
Fixed: Pressure, kPa = 101.325
Property: Thermal conductivity, W/m/K (Liquid); method: Hot wire method
Temperature, K	Thermal conductivity, W/m/K	uncertainty
256.243	0.12268	0.001
256.666	0.12264	0.001
257.0206	0.12239	0.001
275.5566	0.11717	0.00096
276.0017	0.11682	0.00095
276.3899	0.1167	0.00095
296.4641	0.11095	0.00091
296.9343	0.11065	0.00091
297.3983	0.11046	0.0009
317.4043	0.10493	0.00086
317.9225	0.10465	0.00086
318.3545	0.10452	0.00086
337.1018	0.09956	0.00082
337.6492	0.0992	0.00082
338.1082	0.09905	0.00082

System: 2-methylhexane; phases: Liquid
Fixed: Pressure, kPa = 101.325
Property: Thermal diffusivity, m2/s (Liquid); method: Hot wire method
Temperature, K	Thermal diffusivity, m2/s	uncertainty
257.4626	8.412e-08	1.62e-09
258.6463	8.332e-08	1.6e-09
259.6368	8.283e-08	1.59e-09
276.8293	7.998e-08	1.54e-09
278.0587	7.858e-08	1.51e-09
279.1236	7.845e-08	1.51e-09
297.7992	7.5e-08	1.45e-09
299.0755	7.425e-08	1.43e-09
300.3378	7.381e-08	1.42e-09
318.7712	7.017e-08	1.35e-09
320.1603	6.957e-08	1.34e-09
321.3262	6.939e-08	1.34e-09
338.4884	6.628e-08	1.28e-09
339.9142	6.516e-08	1.26e-09
341.1216	6.491e-08	1.26e-09

System: 3-methylhexane; phases: Liquid
Fixed: Pressure, kPa = 101.325
Property: Thermal conductivity, W/m/K (Liquid); method: Hot wire method
Temperature, K	Thermal conductivity, W/m/K	uncertainty
256.6187	0.12358	0.00085
257.0017	0.12328	0.00085
257.379	0.12308	0.00085
269.7201	0.11956	0.00082
270.1112	0.11932	0.00082
270.4393	0.11911	0.00082
284.8994	0.11505	0.0008
285.3155	0.11479	0.0008
285.6566	0.11461	0.00079
296.5493	0.11126	0.00077
296.9469	0.11133	0.00077
297.3498	0.11102	0.00077
311.5411	0.1073	0.00075
311.9695	0.10696	0.00075
312.3354	0.10682	0.00074
321.5233	0.10455	0.00073
321.9752	0.10425	0.00073
322.342	0.104	0.00073
322.3447	0.10404	0.00073
332.2424	0.10165	0.00072
332.6911	0.10128	0.00071
333.0863	0.10111	0.00071
343.4198	0.09857	0.0007
343.8875	0.09831	0.00069
344.2785	0.09813	0.00069
344.3003	0.09807	0.00069

System: 3-methylhexane; phases: Liquid
Fixed: Pressure, kPa = 101.325
Property: Thermal diffusivity, m2/s (Liquid); method: Hot wire method
Temperature, K	Thermal diffusivity, m2/s	uncertainty
257.5913	8.588e-08	1.61e-09
258.6281	8.502e-08	1.59e-09
259.5432	8.429e-08	1.58e-09
270.701	8.144e-08	1.53e-09
271.7284	8.102e-08	1.52e-09
272.5786	8.041e-08	1.51e-09
285.919	7.815e-08	1.47e-09
287.0083	7.78e-08	1.46e-09
287.8852	7.722e-08	1.45e-09
297.6215	7.499e-08	1.41e-09
298.6483	7.472e-08	1.4e-09
299.6736	7.41e-08	1.39e-09
312.5999	7.22e-08	1.36e-09
313.6642	7.081e-08	1.33e-09
314.6015	7.074e-08	1.33e-09
322.6152	7.015e-08	1.32e-09
323.753	6.936e-08	1.31e-09
324.6637	6.856e-08	1.29e-09
324.6649	6.869e-08	1.29e-09
333.298	6.685e-08	1.26e-09
334.4054	6.611e-08	1.25e-09
335.3985	6.611e-08	1.25e-09
344.4569	6.417e-08	1.21e-09
345.61	6.37e-08	1.2e-09
346.5553	6.318e-08	1.19e-09
346.6173	6.369e-08	1.2e-09

System: 2,2-dimethylpentane; phases: Liquid
Fixed: Pressure, kPa = 101.325
Property: Thermal conductivity, W/m/K (Liquid); method: Hot wire method
Temperature, K	Thermal conductivity, W/m/K	uncertainty
256.1554	0.10938	0.00076
256.5166	0.10915	0.00076
256.8392	0.10903	0.00076
275.4531	0.10413	0.00073
275.8252	0.10386	0.00073
276.1326	0.1037	0.00073
296.3157	0.09819	0.00069
296.6906	0.09803	0.00069
297.0241	0.09794	0.00069
317.2245	0.09288	0.00066
317.6254	0.09264	0.00066
317.9474	0.09251	0.00066
336.9072	0.08793	0.00063
337.3057	0.08776	0.00063
337.6372	0.0876	0.00063

System: 2,2-dimethylpentane; phases: Liquid
Fixed: Pressure, kPa = 101.325
Property: Thermal diffusivity, m2/s (Liquid); method: Hot wire method
Temperature, K	Thermal diffusivity, m2/s	uncertainty
257.0084	7.663e-08	1.44e-09
257.8973	7.582e-08	1.42e-09
258.6962	7.558e-08	1.42e-09
276.3137	7.153e-08	1.35e-09
277.2075	7.062e-08	1.33e-09
277.9493	7.026e-08	1.32e-09
297.1452	6.566e-08	1.24e-09
298.0315	6.526e-08	1.23e-09
298.8208	6.492e-08	1.22e-09
318.0483	6.096e-08	1.15e-09
318.9763	6.049e-08	1.14e-09
319.723	6.025e-08	1.14e-09
337.7246	5.673e-08	1.08e-09
338.6304	5.612e-08	1.06e-09
339.3868	5.585e-08	1.06e-09

System: 2,3-dimethylpentane; phases: Liquid
Fixed: Pressure, kPa = 101.325
Property: Thermal conductivity, W/m/K (Liquid); method: Hot wire method
Temperature, K	Thermal conductivity, W/m/K	uncertainty
256.3022	0.11776	0.00096
256.6961	0.11748	0.00096
256.9474	0.11731	0.00096
269.5669	0.114	0.00094
269.8721	0.1137	0.00093
270.119	0.11348	0.00093
284.7402	0.10969	0.00091
285.0238	0.10931	0.0009
285.2733	0.10918	0.0009
296.3068	0.10571	0.00087
296.3551	0.10631	0.00088
296.6474	0.10602	0.00088
311.3419	0.10222	0.00084
311.6579	0.10198	0.00084
311.9305	0.10176	0.00084
321.2963	0.09959	0.00082
321.5902	0.09937	0.00082
321.8479	0.09916	0.00082
331.9598	0.097	0.00082
332.2091	0.09651	0.00082
332.2102	0.09662	0.00081
343.1188	0.09411	0.0008
343.3599	0.09373	0.00079
343.5929	0.09353	0.00078

System: 2,3-dimethylpentane; phases: Liquid
Fixed: Pressure, kPa = 101.325
Property: Thermal diffusivity, m2/s (Liquid); method: Hot wire method
Temperature, K	Thermal diffusivity, m2/s	uncertainty
256.9341	8.193e-08	1.58e-09
257.6976	8.088e-08	1.56e-09
258.2958	8.053e-08	1.55e-09
270.2367	7.799e-08	1.5e-09
270.9014	7.789e-08	1.5e-09
271.4885	7.724e-08	1.49e-09
285.382	7.508e-08	1.46e-09
286.0396	7.366e-08	1.43e-09
286.6263	7.347e-08	1.42e-09
296.9979	7.164e-08	1.38e-09
297.6778	7.101e-08	1.37e-09
298.2781	7.023e-08	1.36e-09
311.9702	6.789e-08	1.31e-09
312.6988	6.768e-08	1.31e-09
313.3302	6.755e-08	1.31e-09
321.9098	6.529e-08	1.27e-09
322.5844	6.459e-08	1.25e-09
323.1752	6.43e-08	1.24e-09
332.4993	6.072e-08	1.19e-09
333.0603	5.991e-08	1.17e-09
333.0638	6.001e-08	1.17e-09
343.6433	5.784e-08	1.13e-09
344.1959	5.723e-08	1.11e-09
344.7277	5.719e-08	1.11e-09

System: 2,4-dimethylpentane; phases: Liquid
Fixed: Pressure, kPa = 101.325
Property: Thermal conductivity, W/m/K (Liquid); method: Hot wire method
Temperature, K	Thermal conductivity, W/m/K	uncertainty
256.5946	0.11382	0.00113
256.989	0.11349	0.00112
257.3019	0.11333	0.00112
276.2991	0.10816	0.00108
276.6935	0.10787	0.00107
277.0434	0.10766	0.00107
296.1908	0.10247	0.00102
296.6261	0.10219	0.00102
296.9672	0.102	0.00102
316.5523	0.09692	0.00097
317.0124	0.09668	0.00097
317.3725	0.09645	0.00097
333.9612	0.0924	0.00093
334.43	0.09213	0.00092
334.8134	0.09197	0.00092

System: 2,4-dimethylpentane; phases: Liquid
Fixed: Pressure, kPa = 101.325
Property: Thermal diffusivity, m2/s (Liquid); method: Hot wire method
Temperature, K	Thermal diffusivity, m2/s	uncertainty
257.5597	7.905e-08	1.59e-09
258.5771	7.839e-08	1.57e-09
259.3662	7.76e-08	1.56e-09
277.2902	7.411e-08	1.49e-09
278.2666	7.289e-08	1.46e-09
279.1607	7.283e-08	1.46e-09
297.176	6.904e-08	1.39e-09
298.2522	6.835e-08	1.38e-09
299.0824	6.772e-08	1.36e-09
317.5479	6.428e-08	1.29e-09
318.669	6.394e-08	1.29e-09
319.5316	6.321e-08	1.28e-09
334.9335	5.993e-08	1.21e-09
336.0567	5.979e-08	1.21e-09
336.972	5.955e-08	1.2e-09

System: 3,3-dimethylpentane; phases: Liquid
Fixed: Pressure, kPa = 101.325
Property: Thermal conductivity, W/m/K (Liquid); method: Hot wire method
Temperature, K	Thermal conductivity, W/m/K	uncertainty
256.1142	0.11158	0.00091
256.7101	0.11116	0.00091
257.0449	0.11134	0.00091
276.1717	0.10599	0.00087
276.4985	0.10582	0.00087
276.778	0.1057	0.00087
296.0129	0.10049	0.00083
296.0317	0.10059	0.00083
296.3856	0.10036	0.00083
296.6337	0.1002	0.00083
316.3802	0.09528	0.0008
316.6716	0.09499	0.00079
316.9329	0.09481	0.00079
333.7532	0.09074	0.00076
334.1017	0.09063	0.00076
334.372	0.09047	0.00076

System: 3,3-dimethylpentane; phases: Liquid
Fixed: Pressure, kPa = 101.325
Property: Thermal diffusivity, m2/s (Liquid); method: Hot wire method
Temperature, K	Thermal diffusivity, m2/s	uncertainty
256.8231	7.802e-08	1.503e-09
257.6189	7.7558e-08	1.495e-09
258.2504	7.7061e-08	1.486e-09
276.8679	7.252e-08	1.4e-09
277.6421	7.1986e-08	1.389e-09
278.3029	7.1766e-08	1.385e-09
296.6384	6.5918e-08	1.279e-09
296.6878	6.6576e-08	1.287e-09
297.5167	6.6828e-08	1.292e-09
298.0816	6.5949e-08	1.284e-09
317.0469	6.216e-08	1.22e-09
317.703	6.0854e-08	1.187e-09
318.2976	6.0522e-08	1.174e-09
334.3686	5.7427e-08	1.115e-09
335.1576	5.7585e-08	1.118e-09
335.7706	5.7418e-08	1.115e-09

System: 2,2,3-trimethylbutane; phases: Liquid
Fixed: Pressure, kPa = 101.325
Property: Thermal conductivity, W/m/K (Liquid); method: Hot wire method
Temperature, K	Thermal conductivity, W/m/K	uncertainty
257.2677	0.10511	0.00073
257.5307	0.10499	0.00073
257.8075	0.10486	0.00073
277.6154	0.10005	0.0007
277.8963	0.0999	0.0007
278.1697	0.0998	0.0007
296.2937	0.09516	0.00067
296.5832	0.09508	0.00067
296.8732	0.09497	0.00067
313.9111	0.09108	0.00065
314.208	0.09098	0.00065
314.5164	0.09085	0.00065
331.1762	0.08718	0.00062
331.4827	0.08706	0.00062
331.7912	0.0869	0.00062

System: 2,2,3-trimethylbutane; phases: Liquid
Fixed: Pressure, kPa = 101.325
Property: Thermal diffusivity, m2/s (Liquid); method: Hot wire method
Temperature, K	Thermal diffusivity, m2/s	uncertainty
258.2142	7.279e-08	1.37e-09
258.8832	7.269e-08	1.37e-09
259.5795	7.26e-08	1.36e-09
278.5651	6.809e-08	1.28e-09
279.2608	6.795e-08	1.28e-09
279.9329	6.765e-08	1.27e-09
297.202	6.293e-08	1.19e-09
297.9117	6.323e-08	1.19e-09
298.612	6.305e-08	1.19e-09
314.8534	6.001e-08	1.13e-09
315.5658	6.002e-08	1.13e-09
316.3003	5.985e-08	1.13e-09
332.1464	5.721e-08	1.08e-09
332.8694	5.705e-08	1.08e-09
333.5876	5.663e-08	1.07e-09

System: 3-ethylpentane; phases: Liquid
Fixed: Pressure, kPa = 101.325
Property: Thermal conductivity, W/m/K (Liquid); method: Hot wire method
Temperature, K	Thermal conductivity, W/m/K	uncertainty
257.2752	0.125323	0.002335
257.544	0.125173	0.002332
257.8263	0.125066	0.00233
277.6223	0.119049	0.00222
277.8929	0.118844	0.002216
278.1899	0.11872	0.00221
296.3309	0.113172	0.002111
296.6208	0.113031	0.002109
296.7791	0.112959	0.002107
313.9564	0.108059	0.002018
314.2689	0.107891	0.002014
314.5825	0.107752	0.002012
331.2212	0.103186	0.001928
331.2919	0.102874	0.001923
331.5603	0.103057	0.001926

System: 3-ethylpentane; phases: Liquid
Fixed: Pressure, kPa = 101.325
Property: Thermal diffusivity, m2/s (Liquid); method: Hot wire method
Temperature, K	Thermal diffusivity, m2/s	uncertainty
258.3633	8.276e-08	2.11e-09
259.1087	8.264e-08	2.11e-09
259.8864	8.249e-08	2.1e-09
278.7529	7.781e-08	1.99e-09
279.4862	7.729e-08	1.97e-09
280.2973	7.721e-08	1.97e-09
297.4829	7.29e-08	1.86e-09
298.263	7.281e-08	1.86e-09
298.6914	7.279e-08	1.86e-09
315.1619	6.952e-08	1.78e-09
315.9907	6.928e-08	1.77e-09
316.8152	6.896e-08	1.76e-09
332.4478	6.591e-08	1.69e-09
333.3398	6.594e-08	1.69e-09
334.196	6.548e-08	1.68e-09

System: 2-methylheptane; phases: Liquid
Fixed: Pressure, kPa = 101.325
Property: Thermal conductivity, W/m/K (Liquid); method: Hot wire method
Temperature, K	Thermal conductivity, W/m/K	uncertainty
259.116	0.12438	0.00086
259.3285	0.12424	0.00085
259.5071	0.1242	0.00085
277.5343	0.11952	0.00082
277.7667	0.11943	0.00082
277.9632	0.1193	0.00082
295.7169	0.11455	0.00079
295.948	0.11441	0.00079
296.1569	0.11428	0.00079
313.833	0.1097	0.00076
314.0732	0.10955	0.00076
314.2982	0.10951	0.00076
327.7445	0.10605	0.00074
328.0031	0.1059	0.00074
328.2258	0.10579	0.00074

System: 2-methylheptane; phases: Liquid
Fixed: Pressure, kPa = 101.325
Property: Thermal diffusivity, m2/s (Liquid); method: Hot wire method
Temperature, K	Thermal diffusivity, m2/s	uncertainty
260.0446	8.228e-08	1.54e-09
260.6266	8.216e-08	1.54e-09
261.1184	8.224e-08	1.54e-09
278.4787	7.83e-08	1.47e-09
279.1095	7.842e-08	1.47e-09
279.6332	7.814e-08	1.47e-09
296.6881	7.409e-08	1.39e-09
297.3057	7.418e-08	1.39e-09
297.8543	7.392e-08	1.39e-09
314.831	7.054e-08	1.33e-09
315.4599	7.042e-08	1.32e-09
316.0534	7.055e-08	1.33e-09
328.7721	6.816e-08	1.28e-09
329.4415	6.795e-08	1.28e-09
330.0178	6.781e-08	1.28e-09

System: 3-methylheptane; phases: Liquid
Fixed: Pressure, kPa = 101.325
Property: Thermal conductivity, W/m/K (Liquid); method: Hot wire method
Temperature, K	Thermal conductivity, W/m/K	uncertainty
259.0828	0.12547	0.00176
259.3215	0.12531	0.00176
259.5754	0.12522	0.00176
277.9949	0.1204	0.00169
278.2333	0.12028	0.00169
278.3686	0.12025	0.00169
297.3615	0.11505	0.00162
297.6267	0.11504	0.00162
297.9136	0.11497	0.00162
315.5606	0.11015	0.00155
315.8392	0.11007	0.00155
316.1203	0.10993	0.00155
331.9269	0.10584	0.00149
332.2105	0.10574	0.00149
332.5082	0.10563	0.00149

System: 3-methylheptane; phases: Liquid
Fixed: Pressure, kPa = 101.325
Property: Thermal diffusivity, m2/s (Liquid); method: Hot wire method
Temperature, K	Thermal diffusivity, m2/s	uncertainty
260.014	8.29e-08	1.86e-09
260.6479	8.276e-08	1.85e-09
261.3227	8.271e-08	1.85e-09
278.947	7.825e-08	1.75e-09
279.5731	7.831e-08	1.75e-09
279.93	7.844e-08	1.76e-09
298.3189	7.409e-08	1.66e-09
299.0153	7.436e-08	1.67e-09
299.7605	7.468e-08	1.67e-09
316.5156	6.982e-08	1.57e-09
317.2232	7.002e-08	1.57e-09
317.9291	6.984e-08	1.57e-09
332.9262	6.7e-08	1.51e-09
333.6391	6.705e-08	1.51e-09
334.383	6.694e-08	1.5e-09

System: 2,2,4-trimethylpentane; phases: Liquid
Fixed: Pressure, kPa = 101.325
Property: Thermal conductivity, W/m/K (Liquid); method: Hot wire method
Temperature, K	Thermal conductivity, W/m/K	uncertainty
259.1069	0.10417	0.00073
259.3238	0.10406	0.00073
259.5187	0.10401	0.00073
277.516	0.09971	0.0007
277.7411	0.09966	0.0007
277.9335	0.09958	0.0007
295.6661	0.09516	0.00067
295.8978	0.09509	0.00067
296.1014	0.09502	0.00067
313.7851	0.09108	0.00065
314.0156	0.091	0.00065
314.2159	0.09093	0.00065
327.6916	0.08786	0.00063
327.9313	0.0878	0.00063
328.1384	0.08771	0.00063

System: 2,2,4-trimethylpentane; phases: Liquid
Fixed: Pressure, kPa = 101.325
Property: Thermal diffusivity, m2/s (Liquid); method: Hot wire method
Temperature, K	Thermal diffusivity, m2/s	uncertainty
259.8879	7.3e-08	1.37e-09
260.4306	7.317e-08	1.37e-09
260.9206	7.332e-08	1.38e-09
278.2886	6.86e-08	1.29e-09
278.8416	6.878e-08	1.29e-09
279.3117	6.873e-08	1.29e-09
296.4061	6.373e-08	1.2e-09
296.9636	6.414e-08	1.21e-09
297.4539	6.423e-08	1.21e-09
314.5582	6.066e-08	1.15e-09
315.1006	6.071e-08	1.15e-09
315.5738	6.072e-08	1.15e-09
328.4729	5.818e-08	1.1e-09
329.0354	5.827e-08	1.1e-09
329.5177	5.814e-08	1.1e-09

System: 2,3,4-trimethylpentane; phases: Liquid
Fixed: Pressure, kPa = 101.325
Property: Thermal conductivity, W/m/K (Liquid); method: Hot wire method
Temperature, K	Thermal conductivity, W/m/K	uncertainty
259.0626	0.11269	0.00078
259.2918	0.11261	0.00078
259.5356	0.11248	0.00078
277.948	0.10831	0.00076
278.1948	0.10817	0.00075
278.4355	0.10803	0.00075
297.331	0.10359	0.00073
297.585	0.10348	0.00072
297.8439	0.10334	0.00072
315.5258	0.09948	0.0007
315.7656	0.09926	0.0007
316.0339	0.09916	0.0007
331.8669	0.0958	0.00068
332.134	0.09569	0.00068
332.3929	0.09551	0.00068

System: 2,3,4-trimethylpentane; phases: Liquid
Fixed: Pressure, kPa = 101.325
Property: Thermal diffusivity, m2/s (Liquid); method: Hot wire method
Temperature, K	Thermal diffusivity, m2/s	uncertainty
259.8743	7.32e-08	1.38e-09
260.4479	7.316e-08	1.37e-09
261.058	7.311e-08	1.37e-09
278.7445	6.907e-08	1.3e-09
279.3506	6.905e-08	1.3e-09
279.9341	6.871e-08	1.29e-09
298.1622	6.569e-08	1.24e-09
298.7806	6.564e-08	1.24e-09
299.403	6.54e-08	1.23e-09
316.3465	6.189e-08	1.17e-09
316.9056	6.123e-08	1.16e-09
317.5421	6.121e-08	1.16e-09
332.6883	5.9e-08	1.12e-09
333.3165	5.892e-08	1.12e-09
333.9145	5.839e-08	1.11e-09
