Measured thermophysical data. Vapor Pressures of Aqueous Soulutions with Mixed Salts of NaCl + KBr and NaBr + KCl
Source: J. Chem. Eng. Data, 2003, 10.1021/je020144o
Compound 1: sodium chloride, ClNa, InChI=1S/ClH.Na/h1H;/q;+1/p-1
Compound 2: potassium bromide, BrK, InChI=1S/BrH.K/h1H;/q;+1/p-1
Compound 3: sodium bromide, BrNa, InChI=1S/BrH.Na/h1H;/q;+1/p-1
Compound 4: potassium chloride, ClK, InChI=1S/ClH.K/h1H;/q;+1/p-1
Compound 5: water, H2O, InChI=1S/H2O/h1H2
Compound 6: lithium chloride, ClLi, InChI=1S/ClH.Li/h1H;/q;+1/p-1, purity 99%

System: lithium chloride + water; phases: Liquid, Gas
Fixed: Temperature, K = 303.15
Property: Vapor or sublimation pressure, kPa (Liquid); method: Closed cell (Static) method
Molality, mol/kg of lithium chloride	Vapor or sublimation pressure, kPa	uncertainty
0	4.2423	0.0361
3.01	3.653	0.0332
5.001	3.173	0.0309
5.998	2.8423	0.0294

System: sodium chloride + water + potassium bromide; phases: Liquid, Gas
Property: Vapor or sublimation pressure, kPa (Liquid); method: Closed cell (Static) method
Temperature, K	Molality, mol/kg of sodium chloride	Molality, mol/kg of potassium bromide	Vapor or sublimation pressure, kPa	uncertainty
303.15	0.999	1.001	3.94	0.04
303.15	1.5	1.498	3.77	0.04
303.15	2	1.999	3.59	0.04
308.15	1.001	0.998	5.22	0.04
308.15	1.496	1.502	4.99	0.04
308.15	2.001	1.998	4.8	0.04
313.15	0.998	1.001	6.82	0.05
313.15	1.501	1.498	6.58	0.05
313.15	1.998	2.001	6.3	0.05
318.15	0.501	0.499	9.23	0.07
318.15	1.002	0.999	8.93	0.06
318.15	1.499	1.501	8.53	0.06
318.15	2	2.001	8.18	0.06
323.15	0.499	0.498	11.95	0.07
323.15	0.998	1.004	11.49	0.08
323.15	1.496	1.501	11.02	0.07
323.15	1.999	1.998	10.5	0.07
328.15	0.496	0.503	15.2	0.1
328.15	1.001	0.999	14.59	0.1
328.15	1.502	1.497	14.01	0.09
328.15	2.001	1.998	13.33	0.08
333.15	0.499	0.502	19.17	0.11
333.15	1	1.001	18.48	0.11
333.15	1.499	1.502	17.71	0.1
333.15	1.997	1.998	16.93	0.1

System: potassium chloride + sodium bromide + water; phases: Liquid, Gas
Property: Vapor or sublimation pressure, kPa (Liquid); method: Closed cell (Static) method
Temperature, K	Molality, mol/kg of sodium bromide	Molality, mol/kg of potassium chloride	Vapor or sublimation pressure, kPa	uncertainty
303.15	1	1.002	3.94	0.04
303.15	1.502	1.498	3.77	0.04
303.15	1.999	2.002	3.6	0.04
308.15	1.002	0.999	5.21	0.04
308.15	1.501	1.499	5.01	0.04
308.15	2.001	1.998	4.79	0.04
313.15	0.999	0.998	6.83	0.06
313.15	1.498	1.5	6.6	0.05
313.15	1.999	1.999	6.32	0.05
318.15	0.501	0.5	9.23	0.07
318.15	1.003	0.009	8.91	0.08
318.15	1.497	1.503	8.55	0.06
318.15	1.999	2.001	8.2	0.06
323.15	0.499	0.501	11.94	0.08
323.15	1.002	0.999	11.49	0.07
323.15	1.499	1.499	11	0.07
323.15	2.003	1.998	10.49	0.07
328.15	0.501	0.5	15.2	0.08
328.15	0.997	1.004	14.6	0.09
328.15	1.501	1.502	14	0.09
328.15	2.002	1.999	13.33	0.08
333.15	0.503	0.497	19.17	0.11
333.15	1.002	1	18.48	0.11
333.15	1.499	1.503	17.71	0.1
333.15	1.998	2.001	16.91	0.1
