Measured thermophysical data. Densities, Viscosities, and Excess Properties for Binary Mixtures of Some Glycols and Polyglycols in N-Methylacetamide at 308.15 K
Source: J. Chem. Eng. Data, 2003, 10.1021/je020178w
Compound 1: N-methylacetamide, C3H7NO, InChI=1S/C3H7NO/c1-3(5)4-2/h1-2H3,(H,4,5), purity 98%
Compound 2: 1,2-ethanediol, C2H6O2, InChI=1S/C2H6O2/c3-1-2-4/h3-4H,1-2H2
Compound 3: diethylene glycol, C4H10O3, InChI=1S/C4H10O3/c5-1-3-7-4-2-6/h5-6H,1-4H2
Compound 4: triethylene glycol, C6H14O4, InChI=1S/C6H14O4/c7-1-3-9-5-6-10-4-2-8/h7-8H,1-6H2

System: N-methylacetamide; phases: Liquid
Property: Viscosity, Pa*s (Liquid); method: Capillary tube (Ostwald; Ubbelohde) method
Pressure, kPa	Temperature, K	Viscosity, Pa*s	uncertainty
101.3	308.15	0.00367	5e-05

System: N-methylacetamide; phases: Liquid
Property: Mass density, kg/m3 (Liquid); method: PYCNOM:UFactor:4
Pressure, kPa	Temperature, K	Mass density, kg/m3	uncertainty
101.3	308.15	958.9	7.1

System: 1,2-ethanediol; phases: Liquid
Property: Viscosity, Pa*s (Liquid); method: Capillary tube (Ostwald; Ubbelohde) method
Pressure, kPa	Temperature, K	Viscosity, Pa*s	uncertainty
101.3	308.15	0.01059	0.00014

System: 1,2-ethanediol; phases: Liquid
Property: Mass density, kg/m3 (Liquid); method: PYCNOM::UFactor:4
Pressure, kPa	Temperature, K	Mass density, kg/m3	uncertainty
101.3	308.15	1103.1	1.5

System: diethylene glycol; phases: Liquid
Property: Viscosity, Pa*s (Liquid); method: Capillary tube (Ostwald; Ubbelohde) method
Pressure, kPa	Temperature, K	Viscosity, Pa*s	uncertainty
101.3	308.15	0.01759	0.00027

System: diethylene glycol; phases: Liquid
Property: Mass density, kg/m3 (Liquid); method: PYCNOM::UFactor:4
Pressure, kPa	Temperature, K	Mass density, kg/m3	uncertainty
101.3	308.15	1105.6	1.5

System: triethylene glycol; phases: Liquid
Property: Viscosity, Pa*s (Liquid); method: Capillary tube (Ostwald; Ubbelohde) method
Pressure, kPa	Temperature, K	Viscosity, Pa*s	uncertainty
101.3	308.15	0.02384	0.00039

System: triethylene glycol; phases: Liquid
Property: Mass density, kg/m3 (Liquid); method: PYCNOM::UFactor:4
Pressure, kPa	Temperature, K	Mass density, kg/m3	uncertainty
101.3	308.15	1112.1	1.5

System: N-methylacetamide + 1,2-ethanediol; phases: Liquid
Fixed: Pressure, kPa = 101.3
Fixed: Temperature, K = 308.15
Property: Viscosity, Pa*s (Liquid); method: Capillary tube (Ostwald; Ubbelohde) method
Mass fraction of N-methylacetamide	Viscosity, Pa*s	uncertainty
0	0.01059	0.00014
0.0847	0.01009	0.00013
0.212	0.00927	0.00012
0.3298	0.00848	0.00011
0.4247	0.00786	0.0001
0.5255	0.00717	0.0001
0.6275	0.00643	9e-05
0.7471	0.00556	7e-05
0.8412	0.00486	7e-05
0.9347	0.00416	6e-05
1	0.00367	5e-05

System: N-methylacetamide + 1,2-ethanediol; phases: Liquid
Fixed: Pressure, kPa = 101.3
Fixed: Temperature, K = 308.15
Property: Mass density, kg/m3 (Liquid); method: PYCNOM:UFactor:4
Mole fraction of N-methylacetamide	Mass density, kg/m3	uncertainty
0	1103.1	1.5
0.0847	1089.5	1.5
0.212	1068.3	1.5
0.3298	1049.4	1.5
0.4247	1034.9	1.4
0.5255	1020.5	1.4
0.6275	1006.3	1.4
0.7471	990.5	1.4
0.8412	978.6	1.4
0.9347	967.3	1.4
1	958.9	1.4

System: N-methylacetamide + diethylene glycol; phases: Liquid
Fixed: Pressure, kPa = 101.3
Fixed: Temperature, K = 308.15
Property: Viscosity, Pa*s (Liquid); method: Capillary tube (Ostwald; Ubbelohde) method
Mole fraction of N-methylacetamide	Viscosity, Pa*s	uncertainty
0	0.01759	0.00027
0.1121	0.01613	0.00024
0.2394	0.01447	0.00021
0.3419	0.01311	0.00019
0.4564	0.01157	0.00017
0.5574	0.01017	0.00014
0.6538	0.0088	0.00012
0.7649	0.0072	0.0001
0.8343	0.00616	8e-05
0.9252	0.0048	6e-05
1	0.00367	5e-05

System: N-methylacetamide + diethylene glycol; phases: Liquid
Fixed: Pressure, kPa = 101.3
Fixed: Temperature, K = 308.15
Property: Mass density, kg/m3 (Liquid); method: PYCNOM:UFactor:4
Mole fraction of N-methylacetamide	Mass density, kg/m3	uncertainty
0	1105.6	1.5
0.1121	1094.4	1.5
0.2394	1079.9	1.5
0.3419	1067.4	1.5
0.4564	1052.2	1.5
0.5574	1037.8	1.5
0.6538	1023.2	1.5
0.7649	1005.3	1.5
0.8343	993	1.5
0.9252	975.2	1.4
1	958.9	1.4

System: N-methylacetamide + triethylene glycol; phases: Liquid
Fixed: Pressure, kPa = 101.3
Fixed: Temperature, K = 308.15
Property: Viscosity, Pa*s (Liquid); method: Capillary tube (Ostwald; Ubbelohde) method
Mole fraction of N-methylacetamide	Viscosity, Pa*s	uncertainty
0	0.02384	0.00039
0.1142	0.02193	0.00036
0.2059	0.02039	0.00033
0.3069	0.01859	0.00029
0.4265	0.01635	0.00025
0.5415	0.01401	0.00021
0.6392	0.01191	0.00017
0.7266	0.00998	0.00014
0.8278	0.00774	0.00011
0.9307	0.0053	7e-05
1	0.00367	5e-05

System: N-methylacetamide + triethylene glycol; phases: Liquid
Fixed: Pressure, kPa = 101.3
Fixed: Temperature, K = 308.15
Property: Mass density, kg/m3 (Liquid); method: PYCNOM:UFactor:4
Mole fraction of N-methylacetamide	Mass density, kg/m3	uncertainty
0	1112.1	1.5
0.1142	1103.7	1.5
0.2059	1095.7	1.5
0.3069	1085.6	1.5
0.4265	1071.8	1.5
0.5415	1056.3	1.5
0.6392	1041	1.5
0.7266	1025.3	1.5
0.8278	1004.5	1.5
0.9307	979.5	1.4
1	958.9	1.4
