Measured thermophysical data. Vapor-Liquid Equilibrium and Volumetric Measurements for Binary Mixtures of 1,4-Dioxane with Isomeric Chlorobutanes
Source: J. Chem. Eng. Data, 2003, 10.1021/je020185k
Compound 1: 1,4-dioxane, C4H8O2, InChI=1S/C4H8O2/c1-2-6-4-3-5-1/h1-4H2, purity 99%
Compound 2: 1-chlorobutane, C4H9Cl, InChI=1S/C4H9Cl/c1-2-3-4-5/h2-4H2,1H3, purity 99.5%
Compound 3: 2-chlorobutane, C4H9Cl, InChI=1S/C4H9Cl/c1-3-4(2)5/h4H,3H2,1-2H3, purity 99%
Compound 4: 1-chloro-2-methylpropane, C4H9Cl, InChI=1S/C4H9Cl/c1-4(2)3-5/h4H,3H2,1-2H3, purity 99%
Compound 5: 2-chloro-2-methylpropane, C4H9Cl, InChI=1S/C4H9Cl/c1-4(2,3)5/h1-3H3, purity 99%

System: 1,4-dioxane; phases: Liquid, Gas
Property: Normal boiling temperature, K (Liquid); method: EBULLIO:UFactor:16
Normal boiling temperature, K	uncertainty
374.52	0.3

System: 1,4-dioxane; phases: Liquid
Property: Mass density, kg/m3 (Liquid); method: VIBTUB:UFactor:2:dT:0.01
Temperature, K	Pressure, kPa	Mass density, kg/m3	uncertainty
298.15	101.325	1027.88	0.52

System: 1-chlorobutane; phases: Liquid, Gas
Property: Normal boiling temperature, K (Liquid); method: Ebulliometric method (Recirculating still)
Normal boiling temperature, K	uncertainty
351.52	0.3

System: 1-chlorobutane; phases: Liquid
Property: Mass density, kg/m3 (Liquid); method: VIBTUB:UFactor:2:dT:0.01
Temperature, K	Pressure, kPa	Mass density, kg/m3	uncertainty
298.15	101.325	880.69	0.27

System: 2-chlorobutane; phases: Liquid, Gas
Property: Normal boiling temperature, K (Liquid); method: Ebulliometric method (Recirculating still)
Normal boiling temperature, K	uncertainty
341.26	0.3

System: 2-chlorobutane; phases: Liquid
Property: Mass density, kg/m3 (Liquid); method: VIBTUB:UFactor:2:dT:0.01
Temperature, K	Pressure, kPa	Mass density, kg/m3	uncertainty
298.15	101.325	867.4	0.47

System: 1-chloro-2-methylpropane; phases: Liquid, Gas
Property: Normal boiling temperature, K (Liquid); method: Ebulliometric method (Recirculating still)
Normal boiling temperature, K	uncertainty
342.05	0.3

System: 1-chloro-2-methylpropane; phases: Liquid
Property: Mass density, kg/m3 (Liquid); method: VIBTUB:UFactor:2:dT:0.01
Temperature, K	Pressure, kPa	Mass density, kg/m3	uncertainty
298.15	101.325	871.13	0.47

System: 2-chloro-2-methylpropane; phases: Liquid, Gas
Property: Normal boiling temperature, K (Liquid); method: Ebulliometric method (Recirculating still)
Normal boiling temperature, K	uncertainty
323.88	0.3

System: 2-chloro-2-methylpropane; phases: Liquid
Property: Mass density, kg/m3 (Liquid); method: VIBTUB:UFactor:2:dT:0.01
Temperature, K	Pressure, kPa	Mass density, kg/m3	uncertainty
298.15	101.325	836.45	0.46

System: 1-chlorobutane + 1,4-dioxane; phases: Liquid, Gas
Fixed: Pressure, kPa = 40
Property: Boiling temperature at pressure P, K (Liquid); method: EBULLIO:UFactor:16
Mole fraction of 1,4-dioxane	Boiling temperature at pressure P, K	uncertainty
0.0459	324.94	0.87
0.1087	325.49	0.87
0.1892	326.44	0.87
0.2117	326.73	0.87
0.3047	327.83	0.87
0.4315	329.8	0.87
0.5225	331.24	0.87
0.6099	332.84	0.87
0.6822	334.32	0.87
0.7616	336.55	0.87
0.8129	338.56	0.87
0.9005	341.15	0.87
0.94	343.19	0.87

System: 1-chlorobutane + 1,4-dioxane; phases: Liquid, Gas
Fixed: Pressure, kPa = 101.3
Property: Boiling temperature at pressure P, K (Liquid); method: EBULLIO:UFactor:16
Mole fraction of 1,4-dioxane	Boiling temperature at pressure P, K	uncertainty
0.0424	352.45	0.64
0.1031	353.34	0.64
0.2075	354.17	0.64
0.2931	355.64	0.64
0.4225	356.98	0.64
0.5256	358.97	0.64
0.615	360.71	0.64
0.6712	361.97	0.64
0.7441	363.72	0.64
0.7577	364.32	0.64
0.8339	366.68	0.64
0.8558	367.43	0.64
0.8815	368.33	0.64
0.9378	371.01	0.64

System: 1-chlorobutane + 1,4-dioxane; phases: Liquid
Fixed: Temperature, K = 298.15
Fixed: Pressure, kPa = 101.3
Property: Mass density, kg/m3 (Liquid); method: VIBTUB:UFactor:2
Mole fraction of 1,4-dioxane	Mass density, kg/m3	uncertainty
0.0422	885.61	0.31
0.0947	891.8	0.31
0.2055	905.35	0.33
0.2766	914.45	0.34
0.4083	932.02	0.37
0.4852	942.87	0.39
0.6082	961.08	0.41
0.6587	968.92	0.43
0.7939	990.92	0.46
0.894	1008.37	0.49
0.9509	1018.71	0.51

System: 1-chlorobutane + 1,4-dioxane; phases: Gas, Liquid
Fixed: Pressure, kPa = 40
Property: Mole fraction of 1,4-dioxane (Gas); method: OTHER
Mole fraction of 1,4-dioxane	Mole fraction of 1,4-dioxane	uncertainty
0.0459	0.0259	0.0115
0.1087	0.062	0.0115
0.1892	0.1078	0.0115
0.2117	0.121	0.0116
0.3047	0.1744	0.0117
0.4315	0.2539	0.0119
0.5225	0.3149	0.0124
0.6099	0.3833	0.013
0.6822	0.4456	0.0142
0.7616	0.5336	0.0164
0.8129	0.6135	0.018
0.9005	0.7393	0.0199
0.94	0.8368	0.0267

System: 1-chlorobutane + 1,4-dioxane; phases: Gas, Liquid
Fixed: Pressure, kPa = 101.3
Property: Mole fraction of 1,4-dioxane (Gas); method: OTHER
Mole fraction of 1,4-dioxane	Mole fraction of 1,4-dioxane	uncertainty
0.0424	0.0264	0.0117
0.1031	0.0634	0.0117
0.2075	0.1255	0.0118
0.2931	0.1814	0.012
0.4225	0.2693	0.0125
0.5256	0.3567	0.0127
0.615	0.418	0.0134
0.6712	0.4858	0.0143
0.7441	0.5475	0.015
0.7577	0.559	0.0149
0.8339	0.6608	0.0176
0.8558	0.701	0.0184
0.8815	0.7335	0.0199
0.9378	0.8385	0.0212

System: 2-chlorobutane + 1,4-dioxane; phases: Liquid, Gas
Fixed: Pressure, kPa = 40
Property: Boiling temperature at pressure P, K (Liquid); method: EBULLIO:UFactor:16
Mole fraction of 1,4-dioxane	Boiling temperature at pressure P, K	uncertainty
0.098	315.61	1.12
0.165	316.96	1.12
0.2703	317.92	1.12
0.3581	320.14	1.12
0.4779	321.89	1.12
0.5845	324.41	1.12
0.6429	326.68	1.12
0.7167	329.39	1.12
0.7792	332.04	1.12
0.8404	334.59	1.12
0.8871	337.31	1.12
0.936	340.49	1.12

System: 2-chlorobutane + 1,4-dioxane; phases: Liquid, Gas
Fixed: Pressure, kPa = 101.3
Property: Boiling temperature at pressure P, K (Liquid); method: EBULLIO:UFactor:16
Mole fraction of 1,4-dioxane	Boiling temperature at pressure P, K	uncertainty
0.0508	342.05	0.64
0.1615	343.8	0.64
0.2636	345.38	0.64
0.3544	347.17	0.64
0.4805	350.1	0.64
0.5745	352.15	0.64
0.6201	353.96	0.64
0.7162	356.78	0.64
0.7741	358.93	0.64
0.8284	361.9	0.64
0.864	363.74	0.64
0.9218	367.88	0.64

System: 2-chlorobutane + 1,4-dioxane; phases: Liquid
Fixed: Temperature, K = 298.15
Fixed: Pressure, kPa = 101.3
Property: Mass density, kg/m3 (Liquid); method: VIBTUB:UFactor:2
Mole fraction of 1,4-dioxane	Mass density, kg/m3	uncertainty
0.0522	874.11	0.49
0.0886	878.88	0.49
0.1892	892.48	0.49
0.2923	907.06	0.49
0.3647	917.71	0.5
0.4928	937.42	0.5
0.6155	957.41	0.51
0.7149	974.47	0.51
0.8019	990.07	0.51
0.9068	1009.72	0.52
0.941	1016.33	0.52

System: 2-chlorobutane + 1,4-dioxane; phases: Gas, Liquid
Fixed: Pressure, kPa = 40
Property: Mole fraction of 1,4-dioxane (Gas); method: OTHER
Mole fraction of 1,4-dioxane	Mole fraction of 1,4-dioxane	uncertainty
0.098	0.0537	0.0102
0.165	0.0682	0.0106
0.2703	0.1154	0.0109
0.3581	0.1504	0.011
0.4779	0.2093	0.0114
0.5845	0.2724	0.0121
0.6429	0.321	0.0128
0.7167	0.3758	0.0136
0.7792	0.4451	0.0169
0.8404	0.5413	0.0197
0.8871	0.6248	0.0237
0.936	0.744	0.0265

System: 2-chlorobutane + 1,4-dioxane; phases: Gas, Liquid
Fixed: Pressure, kPa = 101.3
Property: Mole fraction of 1,4-dioxane (Gas); method: OTHER
Mole fraction of 1,4-dioxane	Mole fraction of 1,4-dioxane	uncertainty
0.0508	0.0247	0.011
0.1615	0.0762	0.0111
0.2636	0.1251	0.0113
0.3544	0.1778	0.0115
0.4805	0.2498	0.0115
0.5745	0.3021	0.012
0.6201	0.3425	0.013
0.7162	0.4174	0.0142
0.7741	0.497	0.0168
0.8284	0.5634	0.0173
0.864	0.6216	0.0231
0.9218	0.7533	0.025

System: 1,4-dioxane + 1-chloro-2-methylpropane; phases: Liquid, Gas
Fixed: Pressure, kPa = 40
Property: Boiling temperature at pressure P, K (Liquid); method: EBULLIO:UFactor:8
Mole fraction of 1,4-dioxane	Boiling temperature at pressure P, K	uncertainty
0.0613	316.33	0.56
0.1281	317.5	0.56
0.2289	319.09	0.56
0.3157	320.61	0.56
0.4371	322.93	0.56
0.5748	326.12	0.56
0.6088	326.83	0.56
0.6813	328.99	0.56
0.7357	330.92	0.56
0.8101	333.92	0.56
0.853	336.17	0.56
0.9226	340.03	0.56

System: 1,4-dioxane + 1-chloro-2-methylpropane; phases: Liquid, Gas
Fixed: Pressure, kPa = 101.3
Property: Boiling temperature at pressure P, K (Liquid); method: EBULLIO:UFactor:16
Mole fraction of 1,4-dioxane	Boiling temperature at pressure P, K	uncertainty
0.0601	342.77	0.64
0.1254	343.83	0.64
0.2256	345.82	0.64
0.3074	347.17	0.64
0.4351	349.81	0.64
0.5578	353.07	0.64
0.6145	354.45	0.64
0.6779	356.55	0.64
0.73	358.34	0.64
0.8	361.1	0.64
0.8586	364.16	0.64
0.9188	367.96	0.64

System: 1,4-dioxane + 1-chloro-2-methylpropane; phases: Liquid
Fixed: Temperature, K = 298.15
Fixed: Pressure, kPa = 101.3
Property: Mass density, kg/m3 (Liquid); method: VIBTUB:UFactor:2
Mole fraction of 1,4-dioxane	Mass density, kg/m3	uncertainty
0.0529	877.81	0.49
0.1009	883.95	0.49
0.2001	896.98	0.49
0.3003	910.79	0.49
0.3957	924.5	0.5
0.5022	940.58	0.5
0.5945	955.19	0.51
0.7005	972.78	0.51
0.7926	988.8	0.51
0.8978	1008.04	0.52
0.9371	1015.61	0.52

System: 1,4-dioxane + 1-chloro-2-methylpropane; phases: Gas, Liquid
Fixed: Pressure, kPa = 40
Property: Mole fraction of 1,4-dioxane (Gas); method: OTHER
Mole fraction of 1,4-dioxane	Mole fraction of 1,4-dioxane	uncertainty
0.0613	0.0246	0.0108
0.1281	0.0523	0.011
0.2289	0.1011	0.011
0.3157	0.1361	0.0108
0.4371	0.1884	0.0115
0.5748	0.2795	0.012
0.6088	0.3019	0.0128
0.6813	0.3619	0.0136
0.7357	0.4167	0.0151
0.8101	0.5038	0.017
0.853	0.5756	0.0225
0.9226	0.7249	0.0238

System: 1,4-dioxane + 1-chloro-2-methylpropane; phases: Gas, Liquid
Fixed: Pressure, kPa = 101.3
Property: Mole fraction of 1,4-dioxane (Gas); method: OTHER
Mole fraction of 1,4-dioxane	Mole fraction of 1,4-dioxane	uncertainty
0.0601	0.0293	0.011
0.1254	0.0592	0.0111
0.2256	0.1091	0.0112
0.3074	0.1491	0.0112
0.4351	0.2124	0.0118
0.5578	0.3068	0.0125
0.6145	0.3453	0.013
0.6779	0.4033	0.0134
0.73	0.4445	0.0153
0.8	0.5392	0.0174
0.8586	0.6223	0.0213
0.9188	0.7594	0.025

System: 1,4-dioxane + 2-chloro-2-methylpropane; phases: Liquid, Gas
Fixed: Pressure, kPa = 101.3
Property: Boiling temperature at pressure P, K (Liquid); method: EBULLIO:UFactor:16
Mole fraction of 1,4-dioxane	Boiling temperature at pressure P, K	uncertainty
0.0753	325.6	0.64
0.2081	328.79	0.64
0.2748	330.36	0.64
0.3146	331.47	0.64
0.4222	334.33	0.64
0.5173	337.55	0.64
0.5741	339.49	0.64
0.62	341.32	0.64
0.6795	343.99	0.64
0.7345	346.85	0.64
0.8044	351.27	0.64
0.885	357.85	0.64
0.8976	359.8	0.64
0.946	365.28	0.64

System: 1,4-dioxane + 2-chloro-2-methylpropane; phases: Liquid
Fixed: Temperature, K = 298.15
Fixed: Pressure, kPa = 101.3
Property: Mass density, kg/m3 (Liquid); method: VIBTUB:UFactor:2
Mole fraction of 1,4-dioxane	Mass density, kg/m3	uncertainty
0.0563	845.77	0.49
0.1059	853.89	0.49
0.2019	870.2	0.49
0.3134	889.71	0.49
0.4148	908.22	0.5
0.5097	926.46	0.5
0.6071	945.55	0.5
0.7113	966.4	0.51
0.8	984.5	0.51
0.9062	1006.81	0.52
0.9554	1017.73	0.52

System: 1,4-dioxane + 2-chloro-2-methylpropane; phases: Gas, Liquid
Fixed: Pressure, kPa = 101.3
Property: Mole fraction of 1,4-dioxane (Gas); method: OTHER
Mole fraction of 1,4-dioxane	Mole fraction of 1,4-dioxane	uncertainty
0.0753	0.0251	0.0103
0.2081	0.059	0.0104
0.2748	0.0796	0.0105
0.3146	0.0916	0.0105
0.4222	0.1277	0.0107
0.5173	0.1706	0.0111
0.5741	0.2029	0.0115
0.62	0.229	0.0118
0.6795	0.2691	0.0125
0.7345	0.3135	0.0144
0.8044	0.3971	0.0174
0.885	0.5245	0.0241
0.8976	0.571	0.024
0.946	0.7083	0.0302
