Measured thermophysical data. Vapor-Liquid Equilibria for Four Binary Systems at 363.15 K: N-Methylformamide + Hexane, + Benzene, + Chlorobenzene, and + Acetonitrile
Source: J. Chem. Eng. Data, 2003, 10.1021/je020130i
Compound 1: N-methylformamide, C2H5NO, InChI=1S/C2H5NO/c1-3-2-4/h2H,1H3,(H,3,4)
Compound 2: hexane, C6H14, InChI=1S/C6H14/c1-3-5-6-4-2/h3-6H2,1-2H3
Compound 3: benzene, C6H6, InChI=1S/C6H6/c1-2-4-6-5-3-1/h1-6H
Compound 4: chlorobenzene, C6H5Cl, InChI=1S/C6H5Cl/c7-6-4-2-1-3-5-6/h1-5H
Compound 5: acetonitrile, C2H3N, InChI=1S/C2H3N/c1-2-3/h1H3

System: N-methylformamide; phases: Liquid, Gas
Fixed: Temperature, K = 363.15
Property: Vapor or sublimation pressure, kPa (Liquid); method: CCELL:UFactor:4
Vapor or sublimation pressure, kPa	uncertainty
2.01	0.09
1.95	0.09
2.1	0.09
2.13	0.09

System: hexane; phases: Liquid, Gas
Property: Vapor or sublimation pressure, kPa (Liquid); method: CCELL::UFactor:4
Temperature, K	Vapor or sublimation pressure, kPa	uncertainty
363.15	188.05	2.41

System: benzene; phases: Liquid, Gas
Property: Vapor or sublimation pressure, kPa (Liquid); method: CCELL::UFactor:4
Temperature, K	Vapor or sublimation pressure, kPa	uncertainty
363.15	137.28	1.78

System: chlorobenzene; phases: Liquid, Gas
Property: Vapor or sublimation pressure, kPa (Liquid); method: CCELL::UFactor:4
Temperature, K	Vapor or sublimation pressure, kPa	uncertainty
363.15	28.33	0.42

System: acetonitrile; phases: Liquid, Gas
Property: Vapor or sublimation pressure, kPa (Liquid); method: CCELL::UFactor:4
Temperature, K	Vapor or sublimation pressure, kPa	uncertainty
363.15	131.21	1.7

System: hexane + N-methylformamide; phases: Liquid, Gas
Fixed: Temperature, K = 363.15
Property: Vapor or sublimation pressure, kPa (Liquid); method: CCELL:UFactor:4
Mole fraction of hexane	Vapor or sublimation pressure, kPa	uncertainty
0	2.01	0.09
0.002	13.51	7.85
0.004	22.47	7.49
0.007	33.12	8.58
0.01	44.93	8.17
0.012	56.36	8.36
0.019	83.32	7.17
0.026	105.96	6.33
0.034	129.69	5.79
0.043	153.13	5.16
0.053	175.07	4.93
0.988	188.74	2.42
0.994	188.44	2.42
0.997	188.38	2.41
1	188.05	2.41

System: hexane + N-methylformamide; phases: Liquid mixture 1, Liquid mixture 2, Gas
Property: Vapor or sublimation pressure, kPa (Liquid mixture 1); method: CCELL:UFactor:4
Mole fraction of hexane	Vapor or sublimation pressure, kPa	uncertainty
0.065	188.98	2.4
0.081	189.04	2.41
0.102	189.05	2.41
0.126	189.05	2.41
0.152	189.06	2.41
0.182	189.08	2.41
0.214	189.12	2.41
0.248	189.14	2.41
0.274	188.96	2.4
0.283	189.2	2.41
0.309	188.93	2.4
0.349	188.9	2.4
0.394	188.89	2.4
0.443	188.88	2.4
0.497	188.88	2.4
0.554	188.86	2.4
0.614	188.86	2.4
0.675	188.86	2.4
0.736	188.88	2.4
0.789	188.86	2.4
0.837	188.86	2.4
0.879	188.85	2.4
0.913	188.84	2.4
0.941	188.84	2.4
0.959	188.82	2.4
0.971	188.82	2.4
0.981	188.81	2.4

System: benzene + N-methylformamide; phases: Liquid, Gas
Fixed: Temperature, K = 363.15
Property: Vapor or sublimation pressure, kPa (Liquid); method: CCELL:UFactor:4
Mole fraction of benzene	Vapor or sublimation pressure, kPa	uncertainty
0	1.95	0.09
0.002	3.15	1.11
0.004	4.46	0.99
0.007	5.92	1.13
0.01	7.4	1.07
0.012	8.74	1.08
0.021	13.43	1.06
0.032	19.06	1.01
0.046	25.55	1.01
0.061	32.63	0.98
0.08	40.3	0.97
0.101	48.47	0.99
0.125	56.77	1.01
0.154	65.78	1.06
0.186	74.56	1.12
0.221	82.85	1.18
0.258	90.36	1.25
0.297	96.99	1.31
0.337	102.82	1.37
0.359	105.32	1.4
0.378	107.84	1.42
0.4	109.72	1.45
0.418	111.99	1.47
0.444	113.66	1.49
0.492	117.17	1.53
0.543	120.18	1.57
0.596	122.75	1.6
0.65	124.87	1.62
0.704	126.62	1.64
0.757	128.09	1.66
0.807	129.39	1.68
0.849	130.44	1.69
0.886	131.41	1.7
0.917	132.38	1.72
0.942	133.3	1.73
0.961	134.26	1.74
0.974	135.04	1.75
0.982	135.66	1.76
0.989	136.18	1.77
0.993	136.55	1.77
0.997	136.94	1.78
0.999	137.15	1.78
1	137.28	1.78

System: chlorobenzene + N-methylformamide; phases: Liquid, Gas
Fixed: Temperature, K = 363.15
Property: Vapor or sublimation pressure, kPa (Liquid); method: CCELL:UFactor:4
Mole fraction of chlorobenzene	Vapor or sublimation pressure, kPa	uncertainty
0	2.1	0.09
0.002	2.34	0.29
0.003	2.52	0.28
0.005	2.76	0.28
0.008	3.18	0.28
0.012	3.67	0.28
0.017	4.32	0.28
0.024	5.2	0.27
0.034	6.36	0.26
0.047	7.69	0.25
0.062	9.15	0.26
0.08	10.8	0.26
0.101	12.53	0.27
0.127	14.37	0.27
0.156	16.16	0.29
0.189	17.86	0.3
0.223	19.39	0.31
0.26	20.73	0.33
0.299	21.91	0.34
0.33	22.77	0.35
0.338	22.91	0.35
0.369	23.6	0.36
0.378	23.73	0.36
0.413	24.36	0.37
0.417	24.43	0.37
0.46	25.03	0.37
0.511	25.61	0.38
0.564	26.1	0.39
0.62	26.52	0.39
0.676	26.87	0.4
0.732	27.17	0.4
0.786	27.44	0.4
0.831	27.65	0.41
0.871	27.85	0.41
0.906	28.03	0.41
0.933	28.18	0.41
0.955	28.3	0.42
0.97	28.36	0.42
0.979	28.39	0.42
0.986	28.39	0.42
0.991	28.38	0.42
0.996	28.36	0.42
0.999	28.34	0.42
1	28.33	0.42

System: acetonitrile + N-methylformamide; phases: Liquid, Gas
Fixed: Temperature, K = 363.15
Property: Vapor or sublimation pressure, kPa (Liquid); method: CCELL:UFactor:4
Mole fraction of acetonitrile	Vapor or sublimation pressure, kPa	uncertainty
0	2.13	0.09
0.005	3.14	0.46
0.008	3.93	0.46
0.013	5.03	0.44
0.018	6.05	0.43
0.026	7.7	0.44
0.041	10.82	0.45
0.058	14.2	0.46
0.08	18.46	0.48
0.105	23.09	0.51
0.133	28.22	0.55
0.165	33.78	0.59
0.2	39.59	0.64
0.242	46.05	0.7
0.286	52.47	0.77
0.331	58.76	0.84
0.377	64.74	0.91
0.423	70.38	0.97
0.469	75.64	1.03
0.513	80.51	1.09
0.554	84.93	1.14
0.576	87.31	1.17
0.594	88.97	1.19
0.622	91.93	1.23
0.668	96.46	1.28
0.714	100.85	1.33
0.759	105.1	1.39
0.802	109.19	1.44
0.841	113.04	1.49
0.876	116.67	1.53
0.905	119.69	1.57
0.929	122.37	1.61
0.949	124.67	1.64
0.964	126.56	1.66
0.976	128.04	1.68
0.984	129.02	1.69
0.989	129.68	1.7
0.992	130.17	1.71
0.995	130.55	1.71
0.998	130.85	1.71
0.999	131.01	1.7
1	131.21	1.7
