Measured thermophysical data. Activity Coefficients at Infinite Dilution of Organic Solutes in 1-Hexyl-3-methylimidazolium Hexafluorophosphate from Gas-Liquid Chromatography
Source: J. Chem. Eng. Data, 2003, 10.1021/je0256481
Compound 1: methanol, CH4O, InChI=1S/CH4O/c1-2/h2H,1H3, purity 98%
Compound 2: 1-hexyl-3-methylimidazolium hexafluorophosphate, C10H19F6N2P, InChI=1S/C10H19N2.F6P/c1-3-4-5-6-7-12-9-8-11(2)10-12;1-7(2,3,4,5)6/h8-10H,3-7H2,1-2H3;/q+1;-1, purity 97%
Compound 3: pentane, C5H12, InChI=1S/C5H12/c1-3-5-4-2/h3-5H2,1-2H3, purity 98%
Compound 4: hexane, C6H14, InChI=1S/C6H14/c1-3-5-6-4-2/h3-6H2,1-2H3, purity 98%
Compound 5: heptane, C7H16, InChI=1S/C7H16/c1-3-5-7-6-4-2/h3-7H2,1-2H3, purity 98%
Compound 6: octane, C8H18, InChI=1S/C8H18/c1-3-5-7-8-6-4-2/h3-8H2,1-2H3, purity 98%
Compound 7: hex-1-ene, C6H12, InChI=1S/C6H12/c1-3-5-6-4-2/h3H,1,4-6H2,2H3, purity 98%
Compound 8: 1-heptene, C7H14, InChI=1S/C7H14/c1-3-5-7-6-4-2/h3H,1,4-7H2,2H3, purity 98%
Compound 9: oct-1-ene, C8H16, InChI=1S/C8H16/c1-3-5-7-8-6-4-2/h3H,1,4-8H2,2H3, purity 98%
Compound 10: 1-hexyne, C6H10, InChI=1S/C6H10/c1-3-5-6-4-2/h1H,4-6H2,2H3, purity 98%
Compound 11: 1-heptyne, C7H12, InChI=1S/C7H12/c1-3-5-7-6-4-2/h1H,4-7H2,2H3, purity 98%
Compound 12: 1-octyne, C8H14, InChI=1S/C8H14/c1-3-5-7-8-6-4-2/h1H,4-8H2,2H3, purity 98%
Compound 13: cyclopentane, C5H10, InChI=1S/C5H10/c1-2-4-5-3-1/h1-5H2, purity 98%
Compound 14: cyclohexane, C6H12, InChI=1S/C6H12/c1-2-4-6-5-3-1/h1-6H2, purity 98%
Compound 15: cycloheptane, C7H14, InChI=1S/C7H14/c1-2-4-6-7-5-3-1/h1-7H2, purity 98%
Compound 16: benzene, C6H6, InChI=1S/C6H6/c1-2-4-6-5-3-1/h1-6H, purity 98%
Compound 17: cyclooctane, C8H16, InChI=1S/C8H16/c1-2-4-6-8-7-5-3-1/h1-8H2, purity 98%

System: methanol + 1-hexyl-3-methylimidazolium hexafluorophosphate; phases: Liquid, Gas
Fixed: Mole fraction of methanol = 0
Property: Activity coefficient of methanol (Liquid); method: CHROM:UFactor:2
Temperature, K	Activity coefficient of methanol	uncertainty
298.15	1.94	0.17
313.15	1.6	0.13
323.15	1.44	0.11

System: pentane + 1-hexyl-3-methylimidazolium hexafluorophosphate; phases: Liquid, Gas
Fixed: Mole fraction of pentane = 0
Property: Activity coefficient of pentane (Liquid); method: CHROM:UFactor:2
Temperature, K	Activity coefficient of pentane	uncertainty
298.15	13.7	2.67
313.15	12.15	2.35
323.15	8.48	1.38

System: hexane + 1-hexyl-3-methylimidazolium hexafluorophosphate; phases: Liquid, Gas
Fixed: Mole fraction of hexane = 0
Property: Activity coefficient of hexane (Liquid); method: CHROM:UFactor:2
Temperature, K	Activity coefficient of hexane	uncertainty
298.15	22.5	5.43
313.15	19.2	4.41
323.15	15	3.01

System: heptane + 1-hexyl-3-methylimidazolium hexafluorophosphate; phases: Liquid, Gas
Fixed: Mole fraction of heptane = 0
Property: Activity coefficient of heptane (Liquid); method: CHROM:UFactor:2
Temperature, K	Activity coefficient of heptane	uncertainty
298.15	30.6	2.84
313.15	25.7	2.38
323.15	22.17	2.05

System: octane + 1-hexyl-3-methylimidazolium hexafluorophosphate; phases: Liquid, Gas
Fixed: Mole fraction of octane = 0
Property: Activity coefficient of octane (Liquid); method: CHROM:UFactor:2
Temperature, K	Activity coefficient of octane	uncertainty
298.15	44.66	4.16
313.15	37.1	3.45
323.15	32	2.97

System: hex-1-ene + 1-hexyl-3-methylimidazolium hexafluorophosphate; phases: Liquid, Gas
Fixed: Mole fraction of hex-1-ene = 0
Property: Activity coefficient of hex-1-ene (Liquid); method: CHROM:UFactor:2
Temperature, K	Activity coefficient of hex-1-ene	uncertainty
298.15	10.42	0.96
313.15	9.09	0.83
323.15	7.88	0.72

System: 1-heptene + 1-hexyl-3-methylimidazolium hexafluorophosphate; phases: Liquid, Gas
Fixed: Mole fraction of 1-heptene = 0
Property: Activity coefficient of 1-heptene (Liquid); method: CHROM:UFactor:2
Temperature, K	Activity coefficient of 1-heptene	uncertainty
298.15	15.32	1.41
313.15	13.75	1.27
323.15	12.36	1.14

System: oct-1-ene + 1-hexyl-3-methylimidazolium hexafluorophosphate; phases: Liquid, Gas
Fixed: Mole fraction of oct-1-ene = 0
Property: Activity coefficient of oct-1-ene (Liquid); method: CHROM:UFactor:2
Temperature, K	Activity coefficient of oct-1-ene	uncertainty
298.15	21.89	2.03
313.15	19.54	1.81
323.15	17.98	1.66

System: 1-hexyne + 1-hexyl-3-methylimidazolium hexafluorophosphate; phases: Liquid, Gas
Fixed: Mole fraction of 1-hexyne = 0
Property: Activity coefficient of 1-hexyne (Liquid); method: CHROM:UFactor:2
Temperature, K	Activity coefficient of 1-hexyne	uncertainty
313.15	2.78	0.25
323.15	2.82	0.26

System: 1-heptyne + 1-hexyl-3-methylimidazolium hexafluorophosphate; phases: Liquid, Gas
Fixed: Mole fraction of 1-heptyne = 0
Property: Activity coefficient of 1-heptyne (Liquid); method: CHROM:UFactor:2
Temperature, K	Activity coefficient of 1-heptyne	uncertainty
313.15	4.03	0.37
323.15	4.07	0.37

System: 1-octyne + 1-hexyl-3-methylimidazolium hexafluorophosphate; phases: Liquid, Gas
Fixed: Mole fraction of 1-octyne = 0
Property: Activity coefficient of 1-octyne (Liquid); method: CHROM:UFactor:2
Temperature, K	Activity coefficient of 1-octyne	uncertainty
313.15	5.86	0.54
323.15	5.81	0.53

System: cyclopentane + 1-hexyl-3-methylimidazolium hexafluorophosphate; phases: Liquid, Gas
Fixed: Mole fraction of cyclopentane = 0
Property: Activity coefficient of cyclopentane (Liquid); method: CHROM:UFactor:2
Temperature, K	Activity coefficient of cyclopentane	uncertainty
298.15	8.53	0.78
313.15	7.21	0.66
323.15	6.08	0.56

System: cyclohexane + 1-hexyl-3-methylimidazolium hexafluorophosphate; phases: Liquid, Gas
Fixed: Mole fraction of cyclohexane = 0
Property: Activity coefficient of cyclohexane (Liquid); method: CHROM:UFactor:2
Temperature, K	Activity coefficient of cyclohexane	uncertainty
298.15	12.65	1.16
313.15	10.6	0.97
323.15	9.38	0.86

System: cycloheptane + 1-hexyl-3-methylimidazolium hexafluorophosphate; phases: Liquid, Gas
Fixed: Mole fraction of cycloheptane = 0
Property: Activity coefficient of cycloheptane (Liquid); method: CHROM:UFactor:2
Temperature, K	Activity coefficient of cycloheptane	uncertainty
313.15	14.2	1.31
323.15	11.84	1.09

System: benzene + 1-hexyl-3-methylimidazolium hexafluorophosphate; phases: Liquid, Gas
Fixed: Mole fraction of benzene = 0
Property: Activity coefficient of benzene (Liquid); method: CHROM:UFactor:2
Temperature, K	Activity coefficient of benzene	uncertainty
298.15	1.03	0.05
313.15	1.04	0.06
323.15	1.07	0.06

System: cyclooctane + 1-hexyl-3-methylimidazolium hexafluorophosphate; phases: Liquid, Gas
Fixed: Mole fraction of cyclooctane = 0
Property: Activity coefficient of cyclooctane (Liquid); method: CHROM:UFactor:2
Temperature, K	Activity coefficient of cyclooctane	uncertainty
313.15	18.69	1.73
323.15	12.22	1.12
