Measured thermophysical data. Total Vapor Pressure Measurements for 2-Ethoxyethanol with Methyl Acetate, Ethyl Acetate, Propyl Acetate, and Ethyl Propionate at 313.15 K and for 2-Ethoxyethanol with Methyl Formate at 308.15 K
Source: J. Chem. Eng. Data, 2003, 10.1021/je0255628
Compound 1: methyl methanoate, C2H4O2, InChI=1S/C2H4O2/c1-4-2-3/h2H,1H3
Compound 2: 2-ethoxyethan-1-ol, C4H10O2, InChI=1S/C4H10O2/c1-2-6-4-3-5/h5H,2-4H2,1H3
Compound 3: methyl ethanoate, C3H6O2, InChI=1S/C3H6O2/c1-3(4)5-2/h1-2H3
Compound 4: ethyl acetate, C4H8O2, InChI=1S/C4H8O2/c1-3-6-4(2)5/h3H2,1-2H3
Compound 5: propyl ethanoate, C5H10O2, InChI=1S/C5H10O2/c1-3-4-7-5(2)6/h3-4H2,1-2H3
Compound 6: ethyl propanoate, C5H10O2, InChI=1S/C5H10O2/c1-3-5(6)7-4-2/h3-4H2,1-2H3

System: methyl methanoate; phases: Liquid, Gas
Property: Vapor or sublimation pressure, kPa (Liquid); method: EBULLIO:UFactor:2
Temperature, K	Vapor or sublimation pressure, kPa	uncertainty
308.15	114.881	0.355

System: 2-ethoxyethan-1-ol; phases: Liquid, Gas
Property: Vapor or sublimation pressure, kPa (Liquid); method: EBULLIO:UFactor:2
Temperature, K	Vapor or sublimation pressure, kPa	uncertainty
308.15	1.303	0.157
313.15	1.864	0.158
313.15	1.803	0.158
313.15	1.829	0.158

System: methyl ethanoate; phases: Liquid, Gas
Property: Vapor or sublimation pressure, kPa (Liquid); method: EBULLIO:UFactor:2
Temperature, K	Vapor or sublimation pressure, kPa	uncertainty
313.15	53.808	0.245

System: ethyl acetate; phases: Liquid, Gas
Property: Vapor or sublimation pressure, kPa (Liquid); method: EBULLIO:UFactor:2
Temperature, K	Vapor or sublimation pressure, kPa	uncertainty
313.15	25.078	0.196

System: propyl ethanoate; phases: Liquid, Gas
Property: Vapor or sublimation pressure, kPa (Liquid); method: EBULLIO:UFactor:2
Temperature, K	Vapor or sublimation pressure, kPa	uncertainty
313.15	9.586	0.17

System: ethyl propanoate; phases: Liquid, Gas
Property: Vapor or sublimation pressure, kPa (Liquid); method: EBULLIO:UFactor:2
Temperature, K	Vapor or sublimation pressure, kPa	uncertainty
313.15	10.602	0.172

System: methyl ethanoate + 2-ethoxyethan-1-ol; phases: Liquid, Gas
Fixed: Temperature, K = 313.15
Property: Vapor or sublimation pressure, kPa (Liquid); method: EBULLIO:UFactor:2
Mole fraction of methyl ethanoate	Vapor or sublimation pressure, kPa	uncertainty
0	1.864	0.158
0.0381	5.226	0.183
0.0893	9.375	0.186
0.1594	14.487	0.191
0.2318	19.361	0.197
0.2736	21.713	0.198
0.3814	27.547	0.206
0.42	29.418	0.208
0.4678	31.708	0.212
0.4982	33.024	0.213
0.548	35.154	0.217
0.5481	35.16	0.217
0.5979	37.204	0.22
0.6479	39.199	0.223
0.7179	41.942	0.227
0.7682	43.935	0.231
0.8183	45.93	0.234
0.869	47.996	0.238
0.9128	49.883	0.242
0.9698	52.44	0.246
1	53.808	0.245

System: 2-ethoxyethan-1-ol + ethyl acetate; phases: Liquid, Gas
Fixed: Temperature, K = 313.15
Property: Vapor or sublimation pressure, kPa (Liquid); method: EBULLIO:UFactor:2
Mole fraction of ethyl acetate	Vapor or sublimation pressure, kPa	uncertainty
0	1.803	0.158
0.0374	3.421	0.165
0.0972	5.69	0.168
0.1316	6.866	0.169
0.1993	9.01	0.172
0.2679	10.91	0.174
0.3202	12.219	0.176
0.3701	13.402	0.178
0.4277	14.613	0.179
0.4833	15.736	0.181
0.4987	16.029	0.182
0.5486	16.969	0.183
0.5991	17.867	0.184
0.6486	18.728	0.186
0.6989	19.593	0.187
0.7486	20.41	0.189
0.7993	21.312	0.19
0.852	22.182	0.192
0.901	23.13	0.193
0.9423	23.913	0.195
0.9751	24.566	0.196
1	25.078	0.196

System: propyl ethanoate + 2-ethoxyethan-1-ol; phases: Liquid, Gas
Fixed: Temperature, K = 313.15
Property: Vapor or sublimation pressure, kPa (Liquid); method: EBULLIO:UFactor:2
Mole fraction of propyl ethanoate	Vapor or sublimation pressure, kPa	uncertainty
0	1.803	0.158
0.0602	2.785	0.16
0.0998	3.34	0.161
0.1501	3.976	0.162
0.2001	4.536	0.162
0.2499	5.033	0.163
0.3001	5.488	0.164
0.3504	5.897	0.164
0.4004	6.265	0.165
0.4504	6.614	0.165
0.4505	6.564	0.165
0.5005	6.885	0.166
0.5505	7.182	0.166
0.6004	7.47	0.167
0.6505	7.733	0.167
0.7006	7.997	0.168
0.7505	8.249	0.168
0.8005	8.503	0.168
0.8504	8.749	0.169
0.9003	9.007	0.169
0.9404	9.209	0.17
0.9728	9.397	0.17
1	9.586	0.17

System: ethyl propanoate + 2-ethoxyethan-1-ol; phases: Liquid, Gas
Fixed: Temperature, K = 313.15
Property: Vapor or sublimation pressure, kPa (Liquid); method: EBULLIO:UFactor:2
Mole fraction of ethyl propanoate	Vapor or sublimation pressure, kPa	uncertainty
0	1.829	0.158
0.03	2.437	0.16
0.0693	3.129	0.161
0.0998	3.618	0.161
0.1488	4.32	0.162
0.1989	4.982	0.163
0.2491	5.557	0.164
0.2994	6.074	0.165
0.3496	6.535	0.165
0.3998	6.962	0.166
0.4497	7.37	0.167
0.4498	7.361	0.167
0.4996	7.683	0.167
0.5497	8.009	0.168
0.5997	8.334	0.168
0.6498	8.603	0.169
0.6997	8.891	0.169
0.7497	9.177	0.17
0.8	9.463	0.17
0.8499	9.694	0.17
0.8917	9.935	0.171
0.9213	10.105	0.171
0.9517	10.267	0.171
1	10.602	0.172

System: methyl methanoate + 2-ethoxyethan-1-ol; phases: Liquid, Gas
Fixed: Temperature, K = 308.15
Property: Vapor or sublimation pressure, kPa (Liquid); method: EBULLIO:UFactor:2
Mole fraction of methyl methanoate	Vapor or sublimation pressure, kPa	uncertainty
0	1.303	0.157
0.0217	5.596	0.251
0.0616	13.03	0.251
0.1093	21.265	0.254
0.144	26.967	0.253
0.1906	34.091	0.257
0.243	41.513	0.262
0.2921	47.941	0.267
0.3425	54.157	0.273
0.3933	59.954	0.278
0.4442	65.353	0.284
0.4944	70.358	0.29
0.5451	75.106	0.297
0.5961	79.641	0.304
0.5975	80.085	0.305
0.6475	84.336	0.311
0.6977	88.471	0.317
0.7467	92.402	0.324
0.7978	96.572	0.332
0.8485	100.77	0.34
0.8985	105.057	0.348
0.929	107.79	0.353
0.9706	111.442	0.363
1	114.881	0.355
