Measured thermophysical data. Solubility of 1-Alkyl-3-methylimidazolium Hexafluorophosphate in Hydrocarbons
Source: J. Chem. Eng. Data, 2003, 10.1021/je020145g
Compound 1: benzene, C6H6, InChI=1S/C6H6/c1-2-4-6-5-3-1/h1-6H, purity 99.97%
Compound 2: toluene, C7H8, InChI=1S/C7H8/c1-7-5-3-2-4-6-7/h2-6H,1H3
Compound 3: ethylbenzene, C8H10, InChI=1S/C8H10/c1-2-8-6-4-3-5-7-8/h3-7H,2H2,1H3, purity 99%
Compound 4: 1,2-dimethylbenzene, C8H10, InChI=1S/C8H10/c1-7-5-3-4-6-8(7)2/h3-6H,1-2H3, purity 99%
Compound 5: 1,3-dimethylbenzene, C8H10, InChI=1S/C8H10/c1-7-4-3-5-8(2)6-7/h3-6H,1-2H3, purity 99%
Compound 6: 1,4-dimethylbenzene, C8H10, InChI=1S/C8H10/c1-7-3-5-8(2)6-4-7/h3-6H,1-2H3, purity 99%
Compound 7: pentane, C5H12, InChI=1S/C5H12/c1-3-5-4-2/h3-5H2,1-2H3
Compound 8: hexane, C6H14, InChI=1S/C6H14/c1-3-5-6-4-2/h3-6H2,1-2H3, purity 99%
Compound 9: heptane, C7H16, InChI=1S/C7H16/c1-3-5-7-6-4-2/h3-7H2,1-2H3, purity 99%
Compound 10: octane, C8H18, InChI=1S/C8H18/c1-3-5-7-8-6-4-2/h3-8H2,1-2H3, purity 99%
Compound 11: cyclopentane, C5H10, InChI=1S/C5H10/c1-2-4-5-3-1/h1-5H2, purity 98%
Compound 12: cyclohexane, C6H12, InChI=1S/C6H12/c1-2-4-6-5-3-1/h1-6H2
Compound 13: 1-ethyl-3-methylimidazolium hexafluorophosphate, C6H11F6N2P, InChI=1S/C6H11N2.F6P/c1-3-8-5-4-7(2)6-8;1-7(2,3,4,5)6/h4-6H,3H2,1-2H3;/q+1;-1
Compound 14: 1-butyl-3-methylimidazolium hexafluorophosphate, C8H15F6N2P, InChI=1S/C8H15N2.F6P/c1-3-4-5-10-7-6-9(2)8-10;1-7(2,3,4,5)6/h6-8H,3-5H2,1-2H3;/q+1;-1

System: 1-ethyl-3-methylimidazolium hexafluorophosphate; phases: Crystal, Liquid, Air at 1 atmosphere
Property: Molar enthalpy of transition or fusion, kJ/mol (Crystal); method: DSC
Molar enthalpy of transition or fusion, kJ/mol	uncertainty
17.86	0.56

System: 1-ethyl-3-methylimidazolium hexafluorophosphate; phases: Crystal, Liquid, Air at 1 atmosphere
Property: Normal melting temperature, K (Crystal); method: DTA:corrimp
Normal melting temperature, K	uncertainty
332.8	1

System: 1-butyl-3-methylimidazolium hexafluorophosphate; phases: Crystal 1, Liquid, Air at 1 atmosphere
Property: Molar enthalpy of transition or fusion, kJ/mol (Crystal 1); method: DSC
Molar enthalpy of transition or fusion, kJ/mol	uncertainty
9.21	0.33

System: 1-butyl-3-methylimidazolium hexafluorophosphate; phases: Glass, Liquid, Air at 1 atmosphere
Property: Triple point temperature, K (Glass); method: DTA
Triple point temperature, K	uncertainty
196.56	0.5

System: 1-butyl-3-methylimidazolium hexafluorophosphate; phases: Crystal 1, Liquid, Air at 1 atmosphere
Property: Normal melting temperature, K (Crystal 1); method: DTA:corrimp
Normal melting temperature, K	uncertainty
276.43	1

System: benzene + 1-ethyl-3-methylimidazolium hexafluorophosphate; phases: Liquid, Crystal
Fixed: Pressure, kPa = 101.3
Property: Solid-liquid equilibrium temperature, K (Liquid); method: VISOBS:UFactor:4
Mole fraction of 1-ethyl-3-methylimidazolium hexafluorophosphate	Solid-liquid equilibrium temperature, K	uncertainty
0.4945	310	0.6
0.5183	311.2	0.6
0.5201	311	0.6
0.5499	312.6	0.6
0.5767	313.8	0.6
0.581	314	0.6
0.625	316.8	0.6
0.6739	319.2	0.6
0.7408	322.3	0.6
0.8041	325.4	0.6
0.8639	328.2	0.6
0.9478	331.6	0.6
1	332.8	0.6

System: benzene + 1-ethyl-3-methylimidazolium hexafluorophosphate; phases: Liquid mixture 1, Liquid mixture 2
Fixed: Pressure, kPa = 101.3
Property: Liquid-liquid equilibrium temperature, K (Liquid mixture 1); method: VISOBS:UFactor:16
Mole fraction of 1-ethyl-3-methylimidazolium hexafluorophosphate	Liquid-liquid equilibrium temperature, K	uncertainty
0.4307	348.1	2.5
0.4337	344.6	2.5
0.4456	336	2.5
0.45	327	2.5

System: benzene + 1-ethyl-3-methylimidazolium hexafluorophosphate; phases: Liquid mixture 1, Liquid mixture 2, Crystal
Property: Triple point temperature, K (Liquid mixture 1); method: VISOBS:UFactor:4
Pressure, kPa	Triple point temperature, K	uncertainty
101.3	308	0.8

System: toluene + 1-ethyl-3-methylimidazolium hexafluorophosphate; phases: Liquid, Crystal
Fixed: Pressure, kPa = 101.3
Property: Solid-liquid equilibrium temperature, K (Liquid); method: VISOBS:UFactor:8
Mole fraction of 1-ethyl-3-methylimidazolium hexafluorophosphate	Solid-liquid equilibrium temperature, K	uncertainty
0.7131	321.6	1.2
0.725	322.3	1.2
0.7486	323.3	1.2
0.7843	324.5	1.2
0.7881	324.6	1.2
0.8426	327.6	1.2
0.8889	329.4	1.2
0.9531	332.1	1.2
1	332.8	1.2

System: toluene + 1-ethyl-3-methylimidazolium hexafluorophosphate; phases: Liquid mixture 1, Liquid mixture 2, Crystal
Property: Triple point temperature, K (Liquid mixture 1); method: VISOBS:UFactor:4
Pressure, kPa	Triple point temperature, K	uncertainty
101.3	320.8	0.6

System: toluene + 1-ethyl-3-methylimidazolium hexafluorophosphate; phases: Liquid mixture 1, Liquid mixture 2
Fixed: Pressure, kPa = 101.3
Property: Liquid-liquid equilibrium temperature, K (Liquid mixture 1); method: VISOBS:UFactor:16
Mole fraction of 1-ethyl-3-methylimidazolium hexafluorophosphate	Liquid-liquid equilibrium temperature, K	uncertainty
0.599	378.1	2.5
0.6192	367.6	2.5
0.634	361.3	2.5
0.6529	351.5	2.5
0.6548	351.1	2.5
0.6788	337.1	2.5
0.688	327	2.5

System: ethylbenzene + 1-ethyl-3-methylimidazolium hexafluorophosphate; phases: Liquid, Crystal
Fixed: Pressure, kPa = 101.3
Property: Solid-liquid equilibrium temperature, K (Liquid); method: VISOBS:UFactor:4
Mole fraction of 1-ethyl-3-methylimidazolium hexafluorophosphate	Solid-liquid equilibrium temperature, K	uncertainty
0.8999	329.2	0.6
0.9325	330.3	0.6
0.9675	331.5	0.6
1	332.8	0.6

System: ethylbenzene + 1-ethyl-3-methylimidazolium hexafluorophosphate; phases: Liquid mixture 1, Liquid mixture 2, Crystal
Property: Triple point temperature, K (Liquid mixture 1); method: VISOBS:UFactor:4
Pressure, kPa	Triple point temperature, K	uncertainty
101.3	328.4	0.6

System: ethylbenzene + 1-ethyl-3-methylimidazolium hexafluorophosphate; phases: Liquid mixture 1, Liquid mixture 2
Fixed: Pressure, kPa = 101.3
Property: Liquid-liquid equilibrium temperature, K (Liquid mixture 1); method: VISOBS:UFactor:16
Mole fraction of 1-ethyl-3-methylimidazolium hexafluorophosphate	Liquid-liquid equilibrium temperature, K	uncertainty
0.7043	405.6	2.5
0.7352	396.1	2.5
0.7604	387.1	2.5
0.7833	372.6	2.5
0.8128	354.9	2.5
0.8423	332.9	2.5

System: 1,2-dimethylbenzene + 1-ethyl-3-methylimidazolium hexafluorophosphate; phases: Liquid, Crystal
Fixed: Pressure, kPa = 101.3
Property: Solid-liquid equilibrium temperature, K (Liquid); method: VISOBS:UFactor:4
Mole fraction of 1-ethyl-3-methylimidazolium hexafluorophosphate	Solid-liquid equilibrium temperature, K	uncertainty
0.8654	326.8	0.6
0.8858	328.2	0.6
0.903	328.9	0.6
0.9068	328.9	0.6
0.9108	329	0.6
0.9386	330.6	0.6
0.9614	331.3	0.6
0.9743	331.9	0.6
1	332.8	0.6

System: 1,2-dimethylbenzene + 1-ethyl-3-methylimidazolium hexafluorophosphate; phases: Liquid mixture 1, Liquid mixture 2, Crystal
Property: Triple point temperature, K (Liquid mixture 1); method: VISOBS:UFactor:4
Pressure, kPa	Triple point temperature, K	uncertainty
101.3	326	0.6

System: 1,2-dimethylbenzene + 1-ethyl-3-methylimidazolium hexafluorophosphate; phases: Liquid mixture 1, Liquid mixture 2
Fixed: Pressure, kPa = 101.3
Property: Liquid-liquid equilibrium temperature, K (Liquid mixture 1); method: VISOBS:UFactor:16
Mole fraction of 1-ethyl-3-methylimidazolium hexafluorophosphate	Liquid-liquid equilibrium temperature, K	uncertainty
0.6975	413.6	2.5
0.7181	401.5	2.5
0.7401	388.3	2.5
0.7623	376.1	2.5
0.77	371.6	2.5
0.7992	352.2	2.5
0.8024	350.3	2.5
0.8133	345	2.5
0.8357	332.7	2.5
0.8473	327.4	2.5

System: 1,3-dimethylbenzene + 1-ethyl-3-methylimidazolium hexafluorophosphate; phases: Liquid, Crystal
Fixed: Pressure, kPa = 101.3
Property: Solid-liquid equilibrium temperature, K (Liquid); method: VISOBS:UFactor:4
Mole fraction of 1-ethyl-3-methylimidazolium hexafluorophosphate	Solid-liquid equilibrium temperature, K	uncertainty
0.8367	327.8	0.6
0.848	328.1	0.6
0.8667	328.3	0.6
0.8799	328.9	0.6
0.8958	329.4	0.6
0.9195	330.1	0.6
0.9277	330.6	0.6
0.9453	331.5	0.6
0.9525	331.9	0.6
0.9684	332.4	0.6
1	332.8	0.6

System: 1,3-dimethylbenzene + 1-ethyl-3-methylimidazolium hexafluorophosphate; phases: Liquid mixture 1, Liquid mixture 2, Crystal
Property: Triple point temperature, K (Liquid mixture 1); method: VISOBS:UFactor:4
Pressure, kPa	Triple point temperature, K	uncertainty
101.3	327.5	0.6

System: 1,3-dimethylbenzene + 1-ethyl-3-methylimidazolium hexafluorophosphate; phases: Liquid mixture 1, Liquid mixture 2
Fixed: Pressure, kPa = 101.3
Property: Liquid-liquid equilibrium temperature, K (Liquid mixture 1); method: VISOBS:UFactor:16
Mole fraction of 1-ethyl-3-methylimidazolium hexafluorophosphate	Liquid-liquid equilibrium temperature, K	uncertainty
0.7571	394.7	2.5
0.7902	371.1	2.5
0.7939	369.1	2.5
0.8106	360	2.5
0.8277	346.1	2.5

System: 1,4-dimethylbenzene + 1-ethyl-3-methylimidazolium hexafluorophosphate; phases: Liquid, Crystal
Fixed: Pressure, kPa = 101.3
Property: Solid-liquid equilibrium temperature, K (Liquid); method: VISOBS:UFactor:8
Mole fraction of 1-ethyl-3-methylimidazolium hexafluorophosphate	Solid-liquid equilibrium temperature, K	uncertainty
0.866	328.1	1.2
0.8856	329.2	1.2
0.9173	329.9	1.2
0.9272	330.8	1.2
0.9488	331.3	1.2
1	332.8	1.2

System: 1,4-dimethylbenzene + 1-ethyl-3-methylimidazolium hexafluorophosphate; phases: Liquid mixture 1, Liquid mixture 2, Crystal
Property: Triple point temperature, K (Liquid mixture 1); method: VISOBS:UFactor:4
Pressure, kPa	Triple point temperature, K	uncertainty
101.3	326.9	0.6

System: 1,4-dimethylbenzene + 1-ethyl-3-methylimidazolium hexafluorophosphate; phases: Liquid mixture 1, Liquid mixture 2
Fixed: Pressure, kPa = 101.3
Property: Liquid-liquid equilibrium temperature, K (Liquid mixture 1); method: VISOBS:UFactor:16
Mole fraction of 1-ethyl-3-methylimidazolium hexafluorophosphate	Liquid-liquid equilibrium temperature, K	uncertainty
0.727	398.3	2.5
0.7588	378.8	2.5
0.7774	367.1	2.5
0.7958	358.1	2.5
0.808	351.7	2.5
0.8174	344.1	2.5
0.8367	330.6	2.5

System: benzene + 1-butyl-3-methylimidazolium hexafluorophosphate; phases: Liquid mixture 1, Liquid mixture 2
Fixed: Pressure, kPa = 101.3
Property: Liquid-liquid equilibrium temperature, K (Liquid mixture 1); method: VISOBS:UFactor:16
Mole fraction of 1-butyl-3-methylimidazolium hexafluorophosphate	Liquid-liquid equilibrium temperature, K	uncertainty
0.3411	353.2	3.2
0.3471	293.1	3.2

System: toluene + 1-butyl-3-methylimidazolium hexafluorophosphate; phases: Liquid mixture 1, Liquid mixture 2
Fixed: Pressure, kPa = 101.3
Property: Liquid-liquid equilibrium temperature, K (Liquid mixture 1); method: VISOBS:UFactor:16
Mole fraction of 1-butyl-3-methylimidazolium hexafluorophosphate	Liquid-liquid equilibrium temperature, K	uncertainty
0.5639	383.7	5.1
0.568	293.1	5.1

System: ethylbenzene + 1-butyl-3-methylimidazolium hexafluorophosphate; phases: Liquid mixture 1, Liquid mixture 2
Fixed: Pressure, kPa = 101.3
Property: Liquid-liquid equilibrium temperature, K (Liquid mixture 1); method: VISOBS:UFactor:16
Mole fraction of 1-butyl-3-methylimidazolium hexafluorophosphate	Liquid-liquid equilibrium temperature, K	uncertainty
0.6548	401.1	2.5
0.6768	385.1	2.5
0.6945	368.1	2.5
0.707	355.1	2.5
0.7127	343.4	2.5
0.722	330.5	2.5
0.7294	319.6	2.5
0.7359	311.5	2.5
0.7459	294.1	2.5

System: 1,2-dimethylbenzene + 1-butyl-3-methylimidazolium hexafluorophosphate; phases: Liquid mixture 1, Liquid mixture 2
Fixed: Pressure, kPa = 101.3
Property: Liquid-liquid equilibrium temperature, K (Liquid mixture 1); method: VISOBS:UFactor:32
Mole fraction of 1-butyl-3-methylimidazolium hexafluorophosphate	Liquid-liquid equilibrium temperature, K	uncertainty
0.6441	401.1	5
0.6569	385.1	5
0.6638	382	5
0.678	366.9	5
0.6985	353.1	5
0.7167	329.5	5
0.74	293.1	5

System: 1,3-dimethylbenzene + 1-butyl-3-methylimidazolium hexafluorophosphate; phases: Liquid mixture 1, Liquid mixture 2
Fixed: Pressure, kPa = 101.3
Property: Liquid-liquid equilibrium temperature, K (Liquid mixture 1); method: VISOBS:UFactor:16
Mole fraction of 1-butyl-3-methylimidazolium hexafluorophosphate	Liquid-liquid equilibrium temperature, K	uncertainty
0.6937	391.1	2.5
0.7	380.7	2.5
0.7065	369.1	2.5
0.7078	366.1	2.5
0.7172	348.6	2.5
0.7253	325.1	2.6
0.7325	294.1	2.6

System: 1,4-dimethylbenzene + 1-butyl-3-methylimidazolium hexafluorophosphate; phases: Liquid mixture 1, Liquid mixture 2
Fixed: Pressure, kPa = 101.3
Property: Liquid-liquid equilibrium temperature, K (Liquid mixture 1); method: VISOBS:UFactor:16
Mole fraction of 1-butyl-3-methylimidazolium hexafluorophosphate	Liquid-liquid equilibrium temperature, K	uncertainty
0.6905	393.1	2.5
0.7007	381.1	2.5
0.7134	358.1	2.5
0.7253	334.1	2.5
0.7386	297.1	2.5

System: pentane + 1-butyl-3-methylimidazolium hexafluorophosphate; phases: Liquid mixture 1, Liquid mixture 2
Fixed: Pressure, kPa = 101.3
Property: Liquid-liquid equilibrium temperature, K (Liquid mixture 1); method: VISOBS:UFactor:16
Mole fraction of 1-butyl-3-methylimidazolium hexafluorophosphate	Liquid-liquid equilibrium temperature, K	uncertainty
0.8595	308.7	2.5
0.8778	305.7	2.5
0.8979	302.7	2.5
0.92	298.6	2.5
0.9477	293.5	2.5

System: hexane + 1-butyl-3-methylimidazolium hexafluorophosphate; phases: Liquid mixture 1, Liquid mixture 2
Fixed: Pressure, kPa = 101.3
Property: Liquid-liquid equilibrium temperature, K (Liquid mixture 1); method: VISOBS:UFactor:16
Mole fraction of 1-butyl-3-methylimidazolium hexafluorophosphate	Liquid-liquid equilibrium temperature, K	uncertainty
0.8467	342	2.5
0.8679	337.3	2.5
0.8937	329.9	2.5
0.9236	322.5	2.5
0.9416	314.4	2.5

System: heptane + 1-butyl-3-methylimidazolium hexafluorophosphate; phases: Liquid mixture 1, Liquid mixture 2
Fixed: Pressure, kPa = 101.3
Property: Liquid-liquid equilibrium temperature, K (Liquid mixture 1); method: VISOBS:UFactor:16
Mole fraction of 1-butyl-3-methylimidazolium hexafluorophosphate	Liquid-liquid equilibrium temperature, K	uncertainty
0.8714	371.1	2.5
0.8919	367.7	2.5
0.9255	359.5	2.5
0.9415	351.8	2.5
0.9551	341	2.5

System: octane + 1-butyl-3-methylimidazolium hexafluorophosphate; phases: Liquid mixture 1, Liquid mixture 2
Fixed: Pressure, kPa = 101.3
Property: Liquid-liquid equilibrium temperature, K (Liquid mixture 1); method: VISOBS:UFactor:16
Mole fraction of 1-butyl-3-methylimidazolium hexafluorophosphate	Liquid-liquid equilibrium temperature, K	uncertainty
0.8818	394.2	2.5
0.911	383.7	2.5
0.9326	371.8	2.5
0.9439	366	2.5
0.9587	357.5	2.5
0.974	347.5	2.5

System: cyclopentane + 1-butyl-3-methylimidazolium hexafluorophosphate; phases: Liquid mixture 1, Liquid mixture 2
Fixed: Pressure, kPa = 101.3
Property: Liquid-liquid equilibrium temperature, K (Liquid mixture 1); method: VISOBS:UFactor:16
Mole fraction of 1-butyl-3-methylimidazolium hexafluorophosphate	Liquid-liquid equilibrium temperature, K	uncertainty
0.7974	322.8	2.5
0.8141	320	2.5
0.8356	314.8	2.5
0.8679	310.1	2.5
0.9002	304.3	2.5
0.9326	297.1	2.5
0.9633	293.1	2.5

System: cyclohexane + 1-butyl-3-methylimidazolium hexafluorophosphate; phases: Liquid mixture 1, Liquid mixture 2
Fixed: Pressure, kPa = 101.3
Property: Liquid-liquid equilibrium temperature, K (Liquid mixture 1); method: VISOBS:UFactor:16
Mole fraction of 1-butyl-3-methylimidazolium hexafluorophosphate	Liquid-liquid equilibrium temperature, K	uncertainty
0.7605	352.7	2.5
0.7769	350.1	2.5
0.8068	345.1	2.5
0.8407	337.2	2.5
0.8913	325.4	2.5
0.9471	302.1	2.5
