Measured thermophysical data. Excess Molar Entalpies of Dimethyl Carbonate with o-Xylene, m-Xylene, p-Xylene, Ethylbenzene, or Ethyl Benzoate at 298.15 K
Source: J. Chem. Eng. Data, 2003, 10.1021/je020120h
Compound 1: dimethyl carbonate, C3H6O3, InChI=1S/C3H6O3/c1-5-3(4)6-2/h1-2H3
Compound 2: 1,2-dimethylbenzene, C8H10, InChI=1S/C8H10/c1-7-5-3-4-6-8(7)2/h3-6H,1-2H3
Compound 3: 1,3-dimethylbenzene, C8H10, InChI=1S/C8H10/c1-7-4-3-5-8(2)6-7/h3-6H,1-2H3
Compound 4: 1,4-dimethylbenzene, C8H10, InChI=1S/C8H10/c1-7-3-5-8(2)6-4-7/h3-6H,1-2H3
Compound 5: ethylbenzene, C8H10, InChI=1S/C8H10/c1-2-8-6-4-3-5-7-8/h3-7H,2H2,1H3
Compound 6: ethyl benzoate, C9H10O2, InChI=1S/C9H10O2/c1-2-11-9(10)8-6-4-3-5-7-8/h3-7H,2H2,1H3

System: dimethyl carbonate; phases: Liquid
Property: Mass density, kg/m3 (Liquid); method: Vibrating tube method
Temperature, K	Pressure, kPa	Mass density, kg/m3	uncertainty
298.15	101.325	1063.1	0.5

System: 1,2-dimethylbenzene; phases: Liquid
Property: Mass density, kg/m3 (Liquid); method: Vibrating tube method
Temperature, K	Pressure, kPa	Mass density, kg/m3	uncertainty
298.15	101.325	875	0.5

System: 1,3-dimethylbenzene; phases: Liquid
Property: Mass density, kg/m3 (Liquid); method: Vibrating tube method
Temperature, K	Pressure, kPa	Mass density, kg/m3	uncertainty
298.15	101.325	860	0.5

System: 1,4-dimethylbenzene; phases: Liquid
Property: Mass density, kg/m3 (Liquid); method: Vibrating tube method
Temperature, K	Pressure, kPa	Mass density, kg/m3	uncertainty
298.15	101.325	856.7	0.4

System: ethylbenzene; phases: Liquid
Property: Mass density, kg/m3 (Liquid); method: Vibrating tube method
Temperature, K	Pressure, kPa	Mass density, kg/m3	uncertainty
298.15	101.325	862.5	0.1

System: ethyl benzoate; phases: Liquid
Property: Mass density, kg/m3 (Liquid); method: Vibrating tube method
Temperature, K	Pressure, kPa	Mass density, kg/m3	uncertainty
298.15	101.325	1041.3	0.5

System: 1,2-dimethylbenzene + dimethyl carbonate; phases: Liquid
Fixed: Pressure, kPa = 101.3
Fixed: Temperature, K = 298.15
Property: Excess molar enthalpy (molar enthalpy of mixing), kJ/mol (Liquid); method: Flow calorimetry
Mole fraction of dimethyl carbonate	Excess molar enthalpy (molar enthalpy of mixing), kJ/mol	uncertainty
0.0511	0.1112	0.0027
0.1006	0.2313	0.0052
0.1503	0.3326	0.0073
0.2016	0.3898	0.0085
0.2513	0.4446	0.0097
0.3024	0.521	0.0113
0.3519	0.5745	0.0124
0.3998	0.6149	0.0133
0.4514	0.6388	0.0138
0.5013	0.6503	0.014
0.5519	0.642	0.0139
0.6007	0.624	0.0135
0.6502	0.5946	0.0129
0.7002	0.5516	0.012
0.7504	0.5008	0.0109
0.8008	0.434	0.0095
0.8513	0.3517	0.0077
0.8998	0.2533	0.0056
0.9501	0.1349	0.0032

System: 1,3-dimethylbenzene + dimethyl carbonate; phases: Liquid
Fixed: Pressure, kPa = 101.3
Fixed: Temperature, K = 298.15
Property: Excess molar enthalpy (molar enthalpy of mixing), kJ/mol (Liquid); method: Flow calorimetry
Mole fraction of dimethyl carbonate	Excess molar enthalpy (molar enthalpy of mixing), kJ/mol	uncertainty
0.0502	0.1251	0.003
0.1006	0.2423	0.0054
0.151	0.3448	0.0076
0.2014	0.4257	0.0093
0.2517	0.4985	0.0108
0.3004	0.5547	0.012
0.3503	0.6027	0.013
0.4014	0.6387	0.0138
0.4506	0.6607	0.0143
0.5007	0.6707	0.0145
0.5515	0.6683	0.0144
0.6004	0.6529	0.0141
0.6522	0.6247	0.0135
0.7018	0.5847	0.0127
0.7517	0.5299	0.0115
0.8017	0.4576	0.01
0.8517	0.3674	0.0081
0.9015	0.2636	0.0059
0.9509	0.1411	0.0033

System: 1,4-dimethylbenzene + dimethyl carbonate; phases: Liquid
Fixed: Pressure, kPa = 101.3
Fixed: Temperature, K = 298.15
Property: Excess molar enthalpy (molar enthalpy of mixing), kJ/mol (Liquid); method: Flow calorimetry
Mole fraction of dimethyl carbonate	Excess molar enthalpy (molar enthalpy of mixing), kJ/mol	uncertainty
0.0504	0.1233	0.0029
0.101	0.2271	0.0051
0.1515	0.3502	0.0077
0.202	0.4284	0.0093
0.2529	0.4991	0.0108
0.3012	0.5552	0.012
0.3512	0.6066	0.0131
0.4022	0.6419	0.0139
0.4515	0.6633	0.0143
0.5016	0.674	0.0145
0.5524	0.6702	0.0145
0.6013	0.6517	0.0141
0.6507	0.6227	0.0135
0.7004	0.5812	0.0126
0.7503	0.5231	0.0114
0.8003	0.4558	0.0099
0.8502	0.3679	0.0081
0.9018	0.2598	0.0058
0.9511	0.1381	0.0032

System: ethylbenzene + dimethyl carbonate; phases: Liquid
Fixed: Pressure, kPa = 101.3
Fixed: Temperature, K = 298.15
Property: Excess molar enthalpy (molar enthalpy of mixing), kJ/mol (Liquid); method: Flow calorimetry
Mole fraction of dimethyl carbonate	Excess molar enthalpy (molar enthalpy of mixing), kJ/mol	uncertainty
0.0501	0.0899	0.0022
0.1003	0.2048	0.0046
0.149	0.2674	0.0059
0.201	0.3548	0.0078
0.2512	0.4344	0.0095
0.2998	0.4993	0.0108
0.3525	0.557	0.0121
0.4005	0.5997	0.013
0.4524	0.6289	0.0136
0.5025	0.6418	0.0139
0.5507	0.6416	0.0139
0.602	0.6297	0.0136
0.6513	0.6054	0.0131
0.7011	0.5651	0.0122
0.7512	0.5131	0.0111
0.8012	0.4455	0.0097
0.8513	0.362	0.0079
0.9012	0.2607	0.0058
0.9509	0.1403	0.0033

System: ethyl benzoate + dimethyl carbonate; phases: Liquid
Fixed: Pressure, kPa = 101.3
Fixed: Temperature, K = 298.15
Property: Excess molar enthalpy (molar enthalpy of mixing), kJ/mol (Liquid); method: Flow calorimetry
Mole fraction of dimethyl carbonate	Excess molar enthalpy (molar enthalpy of mixing), kJ/mol	uncertainty
0.05	0.0579	0.0016
0.0999	0.1188	0.0028
0.1497	0.1728	0.004
0.1991	0.2262	0.0051
0.2482	0.2684	0.006
0.2984	0.3055	0.0068
0.3495	0.3365	0.0074
0.4012	0.3602	0.0079
0.4503	0.3767	0.0083
0.4998	0.3846	0.0084
0.5495	0.3866	0.0085
0.599	0.3812	0.0083
0.6506	0.3648	0.008
0.6993	0.3475	0.0076
0.7495	0.3138	0.0069
0.8007	0.2741	0.0061
0.8507	0.2229	0.005
0.8993	0.1619	0.0037
0.9498	0.0864	0.0022
