Measured thermophysical data. Liquid Densities, Kinematic Viscosities, and Heat Capacities of Some Alkylene glycol Dialkyl Ethers
Source: J. Chem. Eng. Data, 2003, 10.1021/je025606c
Compound 1: diethylene glycol diethyl ether, C8H18O3, InChI=1S/C8H18O3/c1-3-9-5-7-11-8-6-10-4-2/h3-8H2,1-2H3, purity 99%
Compound 2: 5,8,11-trioxapentadecane, C12H26O3, InChI=1S/C12H26O3/c1-3-5-7-13-9-11-15-12-10-14-8-6-4-2/h3-12H2,1-2H3, purity 98%
Compound 3: 1,2-diethoxyethane, C6H14O2, InChI=1S/C6H14O2/c1-3-7-5-6-8-4-2/h3-6H2,1-2H3, purity 99.5%
Compound 4: 5,8,11,14-tetraoxaoctadecane, C14H30O4, InChI=1S/C14H30O4/c1-3-5-7-15-9-11-17-13-14-18-12-10-16-8-6-4-2/h3-14H2,1-2H3, purity 99%
Compound 5: 2-methoxy-1-(2-methoxy-1-methylethoxy)propane, C8H18O3, InChI=1S/C8H18O3/c1-7(10-4)6-11-8(2)5-9-3/h7-8H,5-6H2,1-4H3, purity 99%

System: diethylene glycol diethyl ether; phases: Liquid
Fixed: Pressure, kPa = 1000
Property: Molar heat capacity at constant pressure, J/K/mol (Liquid); method: FLOW:UFactor:2
Temperature, K	Molar heat capacity at constant pressure, J/K/mol	uncertainty
312.57	349.11190144	2.75785424
322.47	351.2208488	2.75785424
332.37	353.32979616	2.75785424
342.27	355.43874352	2.75785424
352.18	358.68327792	2.75785424
362.08	360.79222528	2.75785424
371.98	364.84789328	2.75785424
381.88	368.90356128	2.75785424
391.78	372.14809568	2.75785424
401.68	377.01489728	2.75785424
411.58	380.74611184	2.75785424
421.48	384.80177984	2.75785424

System: diethylene glycol diethyl ether; phases: Liquid
Fixed: Pressure, kPa = 101.33
Property: Kinematic viscosity, m2/s (Liquid); method: Capillary tube (Ostwald; Ubbelohde) method
Temperature, K	Kinematic viscosity, m2/s	uncertainty
283.15	1.835e-06	3.25e-07
293.15	1.502e-06	2.61e-07
303.15	1.269e-06	2.17e-07
313.15	1.092e-06	1.84e-07
323.15	9.556e-07	1.585e-07
333.15	8.477e-07	1.389e-07
343.15	7.598e-07	1.231e-07
353.15	6.91e-07	1.109e-07
363.15	6.331e-07	1.006e-07
373.15	5.773e-07	9.09e-08
383.15	5.32e-07	8.3e-08
393.15	4.93e-07	7.63e-08
403.15	4.592e-07	7.05e-08
413.15	4.29e-07	6.54e-08
423.15	4.023e-07	6.09e-08

System: diethylene glycol diethyl ether; phases: Liquid
Fixed: Pressure, kPa = 1000
Property: Mass density, kg/m3 (Liquid); method: Vibrating tube method
Temperature, K	Mass density, kg/m3	uncertainty
283.15	917.4	8
293.15	907.9	8
303.15	898.4	8
313.15	889	8
323.15	879.5	8
333.15	870	8
343.15	860.2	8
353.15	850	8
363.15	840.2	8
373.15	830.3	8
383.15	820.4	8
393.15	810.3	8
403.15	800	8
413.15	789.7	8
423.15	779.2	8

System: 5,8,11-trioxapentadecane; phases: Liquid
Fixed: Pressure, kPa = 1000
Property: Molar heat capacity at constant pressure, J/K/mol (Liquid); method: FLOW:UFactor:2
Temperature, K	Molar heat capacity at constant pressure, J/K/mol	uncertainty
312.57	456.53438664	3.71166168
322.47	460.90104744	3.71166168
332.37	465.48604128	3.71166168
342.27	470.5077012	3.71166168
352.18	475.74769416	3.71166168
362.08	480.332688	3.71166168
371.98	486.8826792	3.71166168
381.88	493.65100344	3.71166168
391.78	500.41932768	3.71166168
401.68	505.4409876	3.71166168
411.58	512.20931184	3.71166168
421.48	517.88597088	3.71166168

System: 5,8,11-trioxapentadecane; phases: Liquid
Fixed: Pressure, kPa = 101.33
Property: Kinematic viscosity, m2/s (Liquid); method: Capillary tube (Ostwald; Ubbelohde) method
Temperature, K	Kinematic viscosity, m2/s	uncertainty
283.15	3.361e-06	6.29e-07
293.15	2.692e-06	4.94e-07
303.15	2.21e-06	3.98e-07
313.15	1.857e-06	3.29e-07
323.15	1.59e-06	2.78e-07
333.15	1.383e-06	2.38e-07
343.15	1.219e-06	2.07e-07
353.15	1.077e-06	1.81e-07
363.15	9.68e-07	1.61e-07
373.15	8.72e-07	1.435e-07
383.15	7.954e-07	1.297e-07
393.15	7.282e-07	1.176e-07
403.15	6.699e-07	1.073e-07
413.15	6.207e-07	9.86e-08
423.15	5.778e-07	9.11e-08

System: 5,8,11-trioxapentadecane; phases: Liquid
Fixed: Pressure, kPa = 1000
Property: Mass density, kg/m3 (Liquid); method: Vibrating tube method
Temperature, K	Mass density, kg/m3	uncertainty
283.15	891.6	8.1
293.15	883.2	8.1
303.15	875	8.1
313.15	866.8	8
323.15	858.5	8
333.15	850.4	8
343.15	842.1	8
353.15	833.7	8
363.15	824.9	8
373.15	816.5	8
383.15	807.9	8
393.15	799.4	8
403.15	790.8	8
413.15	782.1	8
423.15	773.3	8

System: 1,2-diethoxyethane; phases: Liquid
Fixed: Pressure, kPa = 1
Property: Molar heat capacity at constant pressure, J/K/mol (Liquid); method: FLOW:UFactor:2
Temperature, K	Molar heat capacity at constant pressure, J/K/mol	uncertainty
312.57	264.59194424	2.00896072
322.47	265.53733752	2.00896072
332.37	268.37351736	2.00896072
342.27	270.85517472	2.00896072
352.18	273.5731804	2.00896072
362.08	276.17301192	2.00896072
371.98	280.30910752	2.00896072
381.88	283.0271132	2.00896072
391.78	286.21781552	2.00896072
401.68	289.88121448	2.00896072
411.58	293.42643928	2.12713488
421.48	296.97166408	2.12713488

System: 1,2-diethoxyethane; phases: Liquid
Fixed: Pressure, kPa = 101.3
Property: Kinematic viscosity, m2/s (Liquid); method: Capillary tube (Ostwald; Ubbelohde) method
Temperature, K	Kinematic viscosity, m2/s	uncertainty
283.15	9.502e-07	1.575e-07
293.15	8.223e-07	1.343e-07
303.15	7.281e-07	1.174e-07
313.15	6.478e-07	1.032e-07
323.15	5.844e-07	9.21e-08
333.15	5.319e-07	8.3e-08
343.15	4.865e-07	7.52e-08

System: 1,2-diethoxyethane; phases: Liquid
Fixed: Pressure, kPa = 1000
Property: Mass density, kg/m3 (Liquid); method: Vibrating tube method
Temperature, K	Mass density, kg/m3	uncertainty
283.15	862.9	0.8
293.15	852.8	0.8
303.15	842.6	0.8
313.15	832.3	0.8
323.15	822	0.8
333.15	811.6	0.8
343.15	801.1	0.8
353.15	790.5	0.8
363.15	779.6	0.8
373.15	768.6	0.8
383.15	757.2	0.8
393.15	745.8	0.8
403.15	734	0.8
413.15	721.8	0.8
423.15	709.4	0.8

System: 5,8,11,14-tetraoxaoctadecane; phases: Liquid
Fixed: Pressure, kPa = 1000
Property: Molar heat capacity at constant pressure, J/K/mol (Liquid); method: FLOW:UFactor:2
Temperature, K	Molar heat capacity at constant pressure, J/K/mol	uncertainty
312.57	544.45012	4.4605552
322.47	547.8611328	4.4605552
332.37	553.8960016	4.4605552
342.27	559.1437136	4.4605552
352.18	564.6538112	4.4605552
362.08	571.4758368	4.4605552
371.98	578.8226336	4.4605552
381.88	584.3327312	4.4605552
391.78	589.5804432	4.4605552
401.68	597.7143968	4.4605552
411.58	603.7492656	4.4605552
421.48	612.1456048	4.4605552

System: 5,8,11,14-tetraoxaoctadecane; phases: Liquid
Fixed: Pressure, kPa = 101.33
Property: Kinematic viscosity, m2/s (Liquid); method: Capillary tube (Ostwald; Ubbelohde) method
Temperature, K	Kinematic viscosity, m2/s	uncertainty
283.15	5.418e-06	1.057e-06
293.15	4.157e-06	7.92e-07
303.15	3.299e-06	6.16e-07
313.15	2.696e-06	4.94e-07
323.15	2.253e-06	4.06e-07
333.15	1.923e-06	3.42e-07
343.15	1.666e-06	2.92e-07
353.15	1.464e-06	2.53e-07
363.15	1.298e-06	2.22e-07
373.15	1.166e-06	1.97e-07
383.15	1.045e-06	1.75e-07
393.15	9.49e-07	1.573e-07
403.15	8.68e-07	1.426e-07
413.15	7.979e-07	1.299e-07
423.15	7.369e-07	1.19e-07

System: 5,8,11,14-tetraoxaoctadecane; phases: Liquid
Fixed: Pressure, kPa = 1000
Property: Mass density, kg/m3 (Liquid); method: Vibrating tube method
Temperature, K	Mass density, kg/m3	uncertainty
283.15	926.1	8
293.15	917.7	8
303.15	909.4	8
313.15	901.2	8
323.15	893	8
333.15	884.8	8
343.15	876.5	8
353.15	868.2	8
363.15	859.8	8
373.15	851.4	8
383.15	843	8
393.15	834.5	8
403.15	826.1	8
413.15	817.6	8
423.15	809.1	8

System: 2-methoxy-1-(2-methoxy-1-methylethoxy)propane; phases: Liquid
Fixed: Pressure, kPa = 1000
Property: Molar heat capacity at constant pressure, J/K/mol (Liquid); method: FLOW:UFactor:2
Temperature, K	Molar heat capacity at constant pressure, J/K/mol	uncertainty
312.57	328.67133472	3.40676112
322.47	332.564776	3.40676112
332.37	336.620444	3.40676112
342.27	340.35165856	3.40676112
352.18	345.21846016	3.40676112
362.08	349.92303504	3.40676112
371.98	354.14092976	3.40676112
381.88	359.49441152	3.40676112
391.78	364.68566656	3.40676112
401.68	369.71469488	3.40676112
411.58	373.9325896	3.40676112
421.48	381.232792	3.40676112

System: 2-methoxy-1-(2-methoxy-1-methylethoxy)propane; phases: Liquid
Fixed: Pressure, kPa = 101.33
Property: Kinematic viscosity, m2/s (Liquid); method: Capillary tube (Ostwald; Ubbelohde) method
Temperature, K	Kinematic viscosity, m2/s	uncertainty
283.15	1.409e-06	2.43e-07
293.15	1.199e-06	2.03e-07
303.15	1.03e-06	1.72e-07
313.15	9.028e-07	1.489e-07
323.15	8.013e-07	1.306e-07
333.15	7.188e-07	1.158e-07
343.15	6.503e-07	1.037e-07
353.15	5.931e-07	9.36e-08
363.15	5.507e-07	8.63e-08
373.15	5.06e-07	7.85e-08
383.15	4.689e-07	7.22e-08
393.15	4.365e-07	6.67e-08
403.15	4.067e-07	6.16e-08
413.15	3.813e-07	5.74e-08
423.15	3.587e-07	5.36e-08

System: 2-methoxy-1-(2-methoxy-1-methylethoxy)propane; phases: Liquid
Fixed: Pressure, kPa = 1000
Property: Mass density, kg/m3 (Liquid); method: Vibrating tube method
Temperature, K	Mass density, kg/m3	uncertainty
283.15	913	8
293.15	903.4	8
303.15	894	8
313.15	884.8	8
323.15	875.4	8
333.15	866	8
343.15	856.5	8
353.15	846.9	8
363.15	837	8
373.15	827.2	8
383.15	817.2	8
393.15	807.2	8
403.15	797.1	8
413.15	786.8	8
423.15	776.3	8
