Measured thermophysical data. Liquid-Liquid Equilibria for Ternary Mixtures of Water + Ethanol with 1-Hexanol, Butyl Propionate, or Ethyl Caproate
Source: J. Chem. Eng. Data, 2003, 10.1021/je020133v
Compound 1: butyl propanoate, C7H14O2, InChI=1S/C7H14O2/c1-3-5-6-9-7(8)4-2/h3-6H2,1-2H3, purity 99%
Compound 2: ethyl hexanoate, C8H16O2, InChI=1S/C8H16O2/c1-3-5-6-7-8(9)10-4-2/h3-7H2,1-2H3, purity 99%
Compound 3: hexan-1-ol, C6H14O, InChI=1S/C6H14O/c1-2-3-4-5-6-7/h7H,2-6H2,1H3, purity 99%
Compound 4: ethanol, C2H6O, InChI=1S/C2H6O/c1-2-3/h3H,2H2,1H3, purity 99.5%
Compound 5: water, H2O, InChI=1S/H2O/h1H2

System: hexan-1-ol + water; phases: Liquid mixture 1, Liquid mixture 2
Fixed: Pressure, kPa = 101.3
Property: Mole fraction of water (Liquid mixture 1); method: CHROM:UFactor:8
Temperature, K	Mole fraction of water	uncertainty
283.15	0.2795	0.0173
308.15	0.3052	0.0189
323.15	0.3175	0.0197

System: hexan-1-ol + water; phases: Liquid mixture 2, Liquid mixture 1
Fixed: Pressure, kPa = 101.3
Property: Mole fraction of water (Liquid mixture 2); method: CHROM:UFactor:8
Temperature, K	Mole fraction of water	uncertainty
283.15	0.9987	0.0013
308.15	0.9989	0.0011
323.15	0.9991	0.0009

System: ethyl hexanoate + water; phases: Liquid mixture 1, Liquid mixture 2
Fixed: Pressure, kPa = 101.3
Property: Mole fraction of water (Liquid mixture 1); method: CHROM:UFactor:4
Temperature, K	Mole fraction of water	uncertainty
283.15	0.0227	0.0021
308.15	0.0548	0.0025
323.15	0.063	0.0027

System: ethyl hexanoate + water; phases: Liquid mixture 2, Liquid mixture 1
Fixed: Pressure, kPa = 101.3
Property: Mole fraction of water (Liquid mixture 2); method: CHROM:UFactor:4
Temperature, K	Mole fraction of water	uncertainty
283.15	0.9999	0.0001
308.15	0.9999	0.0001

System: butyl propanoate + water; phases: Liquid mixture 1, Liquid mixture 2
Fixed: Pressure, kPa = 101.3
Property: Mole fraction of water (Liquid mixture 1); method: CHROM:UFactor:8
Temperature, K	Mole fraction of water	uncertainty
283.15	0.0323	0.0027
308.15	0.0527	0.0036
323.15	0.0611	0.004

System: butyl propanoate + water; phases: Liquid mixture 2, Liquid mixture 1
Fixed: Pressure, kPa = 101.3
Property: Mole fraction of water (Liquid mixture 2); method: CHROM:UFactor:8
Temperature, K	Mole fraction of water	uncertainty
283.15	0.9997	0.0003
308.15	0.9999	0.0001
323.15	0.9997	0.0003

System: ethanol + hexan-1-ol + water; phases: Liquid mixture 1, Liquid mixture 2
Fixed: Pressure, kPa = 101.3
Property: Mole fraction of ethanol (Liquid mixture 1); method: CHROM:UFactor:8
Property: Mole fraction of ethanol (Liquid mixture 2); method: CHROM:UFactor:8
Property: Mole fraction of water (Liquid mixture 2); method: CHROM:UFactor:8
Temperature, K	Mole fraction of water	Mole fraction of ethanol	uncertainty	Mole fraction of ethanol	uncertainty	Mole fraction of water	uncertainty
283.15	0.2795	0	0.0001	0	0.0001	0.9987	
283.15	0.2882	0.0512	0.0057	0.0187	0.003	0.9799	
283.15	0.3126	0.0826	0.0066	0.0341	0.0034	0.9644	
283.15	0.3234	0.1316	0.0122	0.0539	0.0041	0.9444	
283.15	0.369	0.2074	0.0131	0.0699	0.0049	0.9281	
283.15	0.414	0.2491	0.0155	0.1078	0.007	0.8897	
283.15	0.4794	0.2815	0.0175	0.1286	0.0082	0.8687	
283.15	0.5206	0.2912	0.0181	0.1445	0.0091	0.8514	
308.15	0.3052	0	0.0001	0	0.0001	0.9989	
308.15	0.3199	0.0586	0.0076	0.0241	0.0031	0.9746	
308.15	0.3355	0.0992	0.0076	0.0296	0.0033	0.969	
308.15	0.3599	0.1527	0.0098	0.0483	0.0039	0.9498	
308.15	0.4189	0.2092	0.0131	0.0732	0.005	0.9247	
308.15	0.4791	0.2413	0.015	0.0925	0.006	0.905	
308.15	0.5475	0.2593	0.0161	0.1157	0.0074	0.8796	
308.15	0.6082	0.257	0.0159	0.1392	0.0088	0.8502	
323.15	0.3175	0	0.0001	0	0.0001	0.9991	
323.15	0.3298	0.0534	0.006	0.0159	0.003	0.983	
323.15	0.3776	0.1511	0.0097	0.0452	0.0038	0.9533	
323.15	0.4556	0.206	0.0128	0.0682	0.0048	0.9297	
323.15	0.5365	0.2225	0.0138	0.1078	0.0068	0.8896	
323.15	0.576	0.2455	0.0152	0.1109	0.007	0.885	
323.15	0.7041	0.208	0.0129	0.1445	0.0092	0.8497	

System: ethanol + ethyl hexanoate + water; phases: Liquid mixture 1, Liquid mixture 2
Fixed: Pressure, kPa = 101.3
Property: Mole fraction of ethanol (Liquid mixture 1); method: CHROM:UFactor:4
Property: Mole fraction of ethanol (Liquid mixture 2); method: CHROM:UFactor:4
Property: Mole fraction of water (Liquid mixture 2); method: CHROM:UFactor:4
Temperature, K	Mole fraction of water	Mole fraction of ethanol	uncertainty	Mole fraction of ethanol	uncertainty	Mole fraction of water	uncertainty
283.15	0.0227	0	0.0001	0	0.0001	0.9999	
283.15	0.0405	0.0845	0.0079	0.0668	0.0034	0.9326	
283.15	0.0745	0.1914	0.0075	0.1135	0.0043	0.8854	
283.15	0.1192	0.2654	0.0088	0.1423	0.0049	0.856	
283.15	0.1708	0.3395	0.0108	0.1759	0.0058	0.821	
283.15	0.2155	0.377	0.0117	0.1988	0.0064	0.7964	
283.15	0.2787	0.4035	0.0125	0.2153	0.0069	0.7768	
283.15	0.3497	0.4167	0.0129	0.2457	0.0078	0.7388	
283.15	0.4355	0.4131	0.0128	0.2798	0.0089	0.7012	
308.15	0.0548	0	0.0001	0	0.0001	0.9999	
308.15	0.0619	0.0713	0.0114	0.0325	0.003	0.9666	
308.15	0.1035	0.1778	0.0073	0.0753	0.0035	0.9235	
308.15	0.1504	0.2818	0.0092	0.11	0.0042	0.8887	
308.15	0.2133	0.349	0.011	0.1464	0.0049	0.8492	
308.15	0.2621	0.3806	0.0118	0.1679	0.0055	0.8244	
308.15	0.3104	0.3994	0.0124	0.1976	0.0063	0.7911	
308.15	0.3824	0.4057	0.0126	0.2313	0.0073	0.7446	
308.15	0.4709	0.3935	0.0122	0.287	0.0091	0.6784	
323.15	0.063	0	0.0001	0	0.0001	1	
323.15	0.0752	0.0834	0.0081	0.0406	0.003	0.9592	
323.15	0.1061	0.1711	0.0072	0.0914	0.0038	0.908	
323.15	0.1354	0.2294	0.0083	0.1167	0.0043	0.8822	
323.15	0.1664	0.3	0.0098	0.1419	0.0049	0.8563	
323.15	0.2121	0.3515	0.011	0.167	0.0055	0.8297	
323.15	0.2699	0.379	0.0118	0.1817	0.0059	0.8124	
323.15	0.3383	0.3932	0.0122	0.2052	0.0066	0.7863	
323.15	0.3929	0.3935	0.0122	0.2323	0.0073	0.7488	
323.15	0.4839	0.3727	0.0116	0.2586	0.0082	0.714	

System: ethanol + butyl propanoate + water; phases: Liquid mixture 1, Liquid mixture 2
Fixed: Pressure, kPa = 101.3
Property: Mole fraction of ethanol (Liquid mixture 1); method: CHROM:UFactor:8
Property: Mole fraction of ethanol (Liquid mixture 2); method: CHROM:UFactor:8
Property: Mole fraction of water (Liquid mixture 2); method: CHROM:UFactor:8
Temperature, K	Mole fraction of water	Mole fraction of ethanol	uncertainty	Mole fraction of ethanol	uncertainty	Mole fraction of water	uncertainty
283.15	0.0323	0	0.0001	0	0.0001	0.9997	
283.15	0.047	0.0643	0.0078	0.0697	0.0049	0.9296	
283.15	0.0733	0.1371	0.0098	0.1365	0.0087	0.8628	
283.15	0.112	0.2257	0.0144	0.1639	0.0103	0.8348	
283.15	0.1694	0.2978	0.0186	0.1722	0.0108	0.8258	
283.15	0.2236	0.3409	0.0212	0.1966	0.0123	0.7986	
283.15	0.318	0.3807	0.0236	0.2241	0.014	0.7648	
283.15	0.3786	0.3824	0.0237	0.2404	0.015	0.743	
283.15	0.4302	0.3772	0.0234	0.2544	0.0158	0.7236	
308.15	0.0527	0	0.0001	0	0.0001	0.9999	
308.15	0.0733	0.0545	0.0088	0.0296	0.0032	0.9697	
308.15	0.0829	0.131	0.0111	0.07	0.0048	0.9267	
308.15	0.1348	0.2182	0.0138	0.1229	0.0079	0.8717	
308.15	0.1994	0.2978	0.0185	0.1583	0.01	0.8355	
308.15	0.297	0.3605	0.0224	0.1757	0.011	0.8165	
308.15	0.3863	0.3731	0.0231	0.2065	0.0129	0.7792	
308.15	0.4329	0.3705	0.023	0.2236	0.0139	0.7572	
308.15	0.4893	0.3698	0.0229	0.2566	0.016	0.7097	
323.15	0.0611	0	0.0001	0	0.0001	0.9997	
323.15	0.0927	0.0665	0.0072	0.0338	0.0034	0.9659	
323.15	0.1101	0.1486	0.0132	0.077	0.0052	0.9223	
323.15	0.1826	0.2423	0.0152	0.108	0.007	0.8905	
323.15	0.2246	0.2965	0.0185	0.1362	0.0087	0.8607	
323.15	0.2707	0.3264	0.0202	0.1524	0.0096	0.844	
323.15	0.3849	0.3459	0.0214	0.1816	0.0114	0.8107	
323.15	0.4574	0.3514	0.0218	0.2109	0.0132	0.7748	
323.15	0.481	0.3537	0.0219	0.2239	0.0139	0.756	
