Measured thermophysical data. Solubility of the Drugs Bisacodyl, Methimazole, Methylparaben, and Iodoquinol in Supercritical Carbon Dioxide
Source: J. Chem. Eng. Data, 2003, 10.1021/je020080h
Compound 1: methyl 4-hydroxybenzoate, C8H8O3, InChI=1S/C8H8O3/c1-11-8(10)6-2-4-7(9)5-3-6/h2-5,9H,1H3
Compound 2: 4,4'-(2-pyridylmethylene)bisphenol diacetate, C22H19NO4, InChI=1S/C22H19NO4/c1-15(24)26-19-10-6-17(7-11-19)22(21-5-3-4-14-23-21)18-8-12-20(13-9-18)27-16(2)25/h3-14,22H,1-2H3
Compound 3: imidazole-2-thiol, 1-methyl-, C4H6N2S, InChI=1S/C4H6N2S/c1-6-3-2-5-4(6)7/h2-3H,1H3,(H,5,7)
Compound 4: carbon dioxide, CO2, InChI=1S/CO2/c2-1-3

System: methyl 4-hydroxybenzoate + carbon dioxide; phases: Fluid (supercritical or subcritical phases), Crystal
Property: Mole fraction of methyl 4-hydroxybenzoate (Fluid (supercritical or subcritical phases)); method: OTHER
Temperature, K	Pressure, kPa	Mole fraction of methyl 4-hydroxybenzoate	uncertainty
308	12200	0.000113	1.1e-05
308	15200	0.000135	1.4e-05
308	18200	0.00016	1.6e-05
308	21300	0.000188	2e-05
308	24300	0.000194	2e-05
308	27400	0.000209	2.3e-05
308	30400	0.000233	2.6e-05
308	35500	0.000256	2.9e-05
318	12200	0.000113	1.1e-05
318	15200	0.000157	1.6e-05
318	18200	0.0002	2e-05
318	21300	0.000248	2.5e-05
318	24300	0.000262	2.7e-05
318	27400	0.000301	3.2e-05
318	30400	0.000345	3.6e-05
318	35500	0.000396	4.1e-05
328	12200	0.000108	1.1e-05
328	15200	0.00017	1.7e-05
328	18200	0.000237	2.4e-05
328	21300	0.0003	3.1e-05
328	24300	0.000351	3.6e-05
328	27400	0.000395	4.1e-05
328	30400	0.000422	4.5e-05
328	35500	0.000493	5.2e-05
338	12200	0.000118	1.2e-05
338	15200	0.000173	1.7e-05
338	18200	0.000295	3e-05
338	21300	0.000422	4.3e-05
338	24300	0.000451	4.7e-05
338	27400	0.000547	5.8e-05
338	30400	0.000641	7e-05
338	35500	0.000719	8e-05
348	12200	0.000135	1.4e-05
348	15200	0.000185	1.9e-05
348	18200	0.000345	3.5e-05
348	21300	0.000503	5.1e-05
348	24300	0.000602	6.3e-05
348	27400	0.000808	8.4e-05
348	30400	0.00096	0.000101
348	35500	0.001213	0.000131

System: carbon dioxide + 4,4'-(2-pyridylmethylene)bisphenol diacetate; phases: Fluid (supercritical or subcritical phases), Crystal
Property: Mole fraction of 4,4'-(2-pyridylmethylene)bisphenol diacetate (Fluid (supercritical or subcritical phases)); method: OTHER
Temperature, K	Pressure, kPa	Mole fraction of 4,4'-(2-pyridylmethylene)bisphenol diacetate	uncertainty
308	12200	3.6e-05	4e-06
308	15200	5.2e-05	5e-06
308	18200	7.1e-05	7e-06
308	21300	8.1e-05	8e-06
308	24300	0.0001	1e-05
308	27400	0.000106	1.1e-05
308	30400	0.00012	1.3e-05
308	35500	0.000139	1.5e-05
318	12200	2.7e-05	3e-06
318	15200	4.4e-05	5e-06
318	18200	7.1e-05	7e-06
318	21300	8.9e-05	9e-06
318	24300	0.000113	1.2e-05
318	27400	0.000139	1.5e-05
318	30400	0.000158	1.7e-05
318	35500	0.000203	2.2e-05
328	12200	2.2e-05	2e-06
328	15200	3.7e-05	4e-06
328	18200	6.3e-05	6e-06
328	21300	9.8e-05	1e-05
328	24300	0.000145	1.5e-05
328	27400	0.00019	2e-05
328	30400	0.000227	2.4e-05
328	35500	0.000297	3.2e-05
338	12200	9e-06	2e-06
338	15200	2.3e-05	3e-06
338	18200	5.8e-05	6e-06
338	21300	9.6e-05	1e-05
338	24300	0.000179	1.8e-05
338	27400	0.000251	2.6e-05
338	30400	0.000309	3.2e-05
338	35500	0.000443	4.7e-05
348	15200	1.9e-05	2e-06
348	18200	5.4e-05	6e-06
348	21300	0.00013	1.4e-05
348	24300	0.000205	2.1e-05
348	27400	0.000282	2.9e-05
348	30400	0.000406	4.2e-05
348	35500	0.000583	6e-05

System: imidazole-2-thiol, 1-methyl- + carbon dioxide; phases: Fluid (supercritical or subcritical phases), Crystal
Property: Mole fraction of imidazole-2-thiol, 1-methyl- (Fluid (supercritical or subcritical phases)); method: OTHER
Temperature, K	Pressure, kPa	Mole fraction of imidazole-2-thiol, 1-methyl-	uncertainty
308	12200	2.2e-05	2e-06
308	15200	2.3e-05	2e-06
308	18200	2.9e-05	3e-06
308	21300	4e-05	4e-06
308	24300	4.5e-05	5e-06
308	27400	5e-05	5e-06
308	30400	5.3e-05	6e-06
308	35500	6e-05	6e-06
318	12200	2.1e-05	2e-06
318	15200	2.1e-05	2e-06
318	18200	3.2e-05	3e-06
318	21300	4e-05	4e-06
318	24300	5.5e-05	6e-06
318	27400	6.3e-05	6e-06
318	30400	7e-05	7e-06
318	35500	8.3e-05	9e-06
328	12200	1.9e-05	2e-06
328	15200	2e-05	2e-06
328	18200	3.5e-05	4e-06
328	21300	5.1e-05	5e-06
328	24300	6.4e-05	7e-06
328	27400	7.4e-05	8e-06
328	30400	9.2e-05	1e-05
328	35500	0.000118	1.2e-05
338	12200	1.5e-05	2e-06
338	15200	1.7e-05	2e-06
338	18200	3.5e-05	4e-06
338	21300	5.2e-05	5e-06
338	24300	7.7e-05	8e-06
338	27400	9e-05	9e-06
338	30400	0.000116	1.2e-05
338	35500	0.000149	1.5e-05
348	15200	1.2e-05	1e-06
348	18200	3e-05	3e-06
348	21300	5.2e-05	5e-06
348	24300	8.5e-05	9e-06
348	27400	0.000112	1.1e-05
348	30400	0.000138	1.4e-05
348	35500	0.00019	1.9e-05
