Measured thermophysical data. Solubility of Anthracene in Binary Alcohol + Acetonitrile Solvent Mixtures at 298.2 K
Source: J. Chem. Eng. Data, 2003, 10.1021/je0201727
Compound 1: anthracene, C14H10, InChI=1S/C14H10/c1-2-6-12-10-14-8-4-3-7-13(14)9-11(12)5-1/h1-10H, purity 99%
Compound 2: acetonitrile, C2H3N, InChI=1S/C2H3N/c1-2-3/h1H3, purity 99.8%
Compound 3: propan-1-ol, C3H8O, InChI=1S/C3H8O/c1-2-3-4/h4H,2-3H2,1H3, purity 99%
Compound 4: propan-2-ol, C3H8O, InChI=1S/C3H8O/c1-3(2)4/h3-4H,1-2H3, purity 99%
Compound 5: butan-1-ol, C4H10O, InChI=1S/C4H10O/c1-2-3-4-5/h5H,2-4H2,1H3, purity 99.8%
Compound 6: butan-2-ol, C4H10O, InChI=1S/C4H10O/c1-3-4(2)5/h4-5H,3H2,1-2H3, purity 99%
Compound 7: 2-methyl-1-propanol, C4H10O, InChI=1S/C4H10O/c1-4(2)3-5/h4-5H,3H2,1-2H3, purity 99%
Compound 8: 3-methylbutan-1-ol, C5H12O, InChI=1S/C5H12O/c1-5(2)3-4-6/h5-6H,3-4H2,1-2H3, purity 99%
Compound 9: 2-methyl-1-butanol, C5H12O, InChI=1S/C5H12O/c1-3-5(2)4-6/h5-6H,3-4H2,1-2H3, purity 99%

System: anthracene + 2-methyl-1-butanol; phases: Liquid, Crystal
Property: Mole fraction of anthracene (Liquid); method: OTHER
Temperature, K	Pressure, kPa	Mole fraction of anthracene	uncertainty
298.15	101	0.000786	8e-06

System: acetonitrile + anthracene; phases: Liquid, Crystal
Property: Mole fraction of anthracene (Liquid); method: OTHER
Temperature, K	Pressure, kPa	Mole fraction of anthracene	uncertainty
298.15	101	0.00083	9e-06

System: propan-1-ol + anthracene; phases: Liquid, Crystal
Property: Mole fraction of anthracene (Liquid); method: OTHER
Temperature, K	Pressure, kPa	Mole fraction of anthracene	uncertainty
298.15	101	0.000591	6e-06

System: propan-2-ol + anthracene; phases: Liquid, Crystal
Property: Mole fraction of anthracene (Liquid); method: OTHER
Temperature, K	Pressure, kPa	Mole fraction of anthracene	uncertainty
298.15	101	0.000411	4e-06

System: butan-1-ol + anthracene; phases: Liquid, Crystal
Property: Mole fraction of anthracene (Liquid); method: OTHER
Temperature, K	Pressure, kPa	Mole fraction of anthracene	uncertainty
298.15	101	0.000801	9e-06

System: butan-2-ol + anthracene; phases: Liquid, Crystal
Property: Mole fraction of anthracene (Liquid); method: OTHER
Temperature, K	Pressure, kPa	Mole fraction of anthracene	uncertainty
298.15	101	0.000585	6e-06

System: 2-methyl-1-propanol + anthracene; phases: Liquid, Crystal
Property: Mole fraction of anthracene (Liquid); method: OTHER
Pressure, kPa	Temperature, K	Mole fraction of anthracene	uncertainty
101	298.15	0.00047	5e-06

System: anthracene + 3-methylbutan-1-ol; phases: Liquid, Crystal
Property: Mole fraction of anthracene (Liquid); method: OTHER
Pressure, kPa	Temperature, K	Mole fraction of anthracene	uncertainty
101	298.15	0.000727	8e-06

System: acetonitrile + anthracene + 2-methyl-1-butanol; phases: Liquid, Crystal
Fixed: Temperature, K = 298.15
Fixed: Pressure, kPa = 101
Property: Mole fraction of anthracene (Liquid); method: OTHER
Solvent: Mole fraction of acetonitrile	Mole fraction of anthracene	uncertainty
0	0.000786	8e-06
0.1908	0.001277	1.4e-05
0.3468	0.001577	1.7e-05
0.5779	0.001755	1.9e-05
0.6724	0.001729	1.9e-05
0.7534	0.001597	1.7e-05
0.8864	0.001232	1.3e-05
0.9434	0.001028	1.1e-05
1	0.00083	9e-06

System: propan-1-ol + acetonitrile + anthracene; phases: Liquid, Crystal
Fixed: Temperature, K = 298.15
Fixed: Pressure, kPa = 101
Property: Mole fraction of anthracene (Liquid); method: OTHER
Solvent: Mole fraction of acetonitrile	Mole fraction of anthracene	uncertainty
0	0.000591	6e-06
0.1466	0.00091	1e-05
0.2683	0.001128	1.2e-05
0.4747	0.001305	1.4e-05
0.5862	0.001318	1.4e-05
0.6824	0.001291	1.4e-05
0.8491	0.001168	1.3e-05
0.9293	0.001009	1.1e-05
1	0.00083	9e-06

System: propan-2-ol + acetonitrile + anthracene; phases: Liquid, Crystal
Fixed: Temperature, K = 298.15
Fixed: Pressure, kPa = 101
Property: Mole fraction of anthracene (Liquid); method: OTHER
Solvent: Mole fraction of acetonitrile	Mole fraction of anthracene	uncertainty
0	0.000411	4e-06
0.1799	0.000806	9e-06
0.2814	0.000958	1e-05
0.5049	0.001163	1.2e-05
0.5969	0.001182	1.3e-05
0.66	0.001162	1.2e-05
0.8555	0.001036	1.1e-05
0.9224	0.000956	1e-05
1	0.00083	9e-06

System: butan-1-ol + acetonitrile + anthracene; phases: Liquid, Crystal
Fixed: Temperature, K = 298.15
Fixed: Pressure, kPa = 101
Property: Mole fraction of anthracene (Liquid); method: OTHER
Solvent: Mole fraction of acetonitrile	Mole fraction of anthracene	uncertainty
0	0.000801	9e-06
0.185	0.001339	1.4e-05
0.3224	0.001581	1.7e-05
0.5377	0.001712	1.8e-05
0.6384	0.001677	1.8e-05
0.7171	0.001564	1.7e-05
0.8729	0.001227	1.3e-05
0.9308	0.001064	1.1e-05
1	0.00083	9e-06

System: acetonitrile + butan-2-ol + anthracene; phases: Liquid, Crystal
Fixed: Temperature, K = 298.15
Fixed: Pressure, kPa = 101
Property: Mole fraction of anthracene (Liquid); method: OTHER
Solvent: Mole fraction of acetonitrile	Mole fraction of anthracene	uncertainty
0	0.000585	6e-06
0.1679	0.001108	1.2e-05
0.3044	0.001409	1.5e-05
0.5297	0.001593	1.7e-05
0.6076	0.001588	1.7e-05
0.7303	0.001451	1.6e-05
0.8692	0.001174	1.3e-05
0.9359	0.001011	1.1e-05
1	0.00083	9e-06

System: acetonitrile + 2-methyl-1-propanol + anthracene; phases: Liquid, Crystal
Fixed: Pressure, kPa = 101
Fixed: Temperature, K = 298.15
Property: Mole fraction of anthracene (Liquid); method: OTHER
Solvent: Mole fraction of acetonitrile	Mole fraction of anthracene	uncertainty
0	0.00047	5e-06
0.1671	0.000925	1e-05
0.3175	0.001223	1.3e-05
0.5276	0.00144	1.5e-05
0.6351	0.001401	1.5e-05
0.7258	0.001361	1.5e-05
0.8715	0.001145	1.2e-05
0.9339	0.001005	1.1e-05
1	0.00083	9e-06

System: acetonitrile + anthracene + 3-methylbutan-1-ol; phases: Liquid, Crystal
Fixed: Pressure, kPa = 101
Fixed: Temperature, K = 298.15
Property: Mole fraction of anthracene (Liquid); method: OTHER
Solvent: Mole fraction of acetonitrile	Mole fraction of anthracene	uncertainty
0	0.000727	8e-06
0.1843	0.001186	1.3e-05
0.3445	0.001489	1.6e-05
0.5738	0.001658	1.8e-05
0.6751	0.001595	1.7e-05
0.7384	0.001526	1.6e-05
0.8884	0.001197	1.3e-05
0.9482	0.001006	1.1e-05
1	0.00083	9e-06
