Measured thermophysical data. Measurement of the Water Solubility in the Gas Phase of the Ethane + Water Binary System near Hydrate Forming Conditions
Source: J. Chem. Eng. Data, 2003, 10.1021/je0202230
Compound 1: water, H2O, InChI=1S/H2O/h1H2, purity 99.9%
Compound 2: ethane, C2H6, InChI=1S/C2H6/c1-2/h1-2H3, purity 99.995%

System: ethane + water; phases: Gas, Liquid
Property: Mole fraction of water (Gas); method: CHROM:UFactor:8
Temperature, K	Pressure, kPa	Mole fraction of water	uncertainty
278.08	455	0.0205	0.002
278.08	756	0.0127	0.0012
278.08	990	0.00898	0.00086
278.08	1230	0.00673	0.00065
278.08	1510	0.00476	0.00046
278.08	1580	0.00453	0.00044
278.08	2110	0.00304	0.00029
278.08	2710	0.00215	0.00021
283.11	323	0.0421	0.004
283.11	388	0.0351	0.0034
283.11	415	0.0328	0.0032
283.11	621	0.0212	0.002
283.11	774	0.0171	0.0016
283.11	962	0.0134	0.0013
283.11	1050	0.0117	0.0011
283.11	1450	0.00816	0.00078
283.11	1820	0.00575	0.00055
283.11	2110	0.00501	0.00048
283.11	2350	0.00436	0.00042
283.11	2780	0.00352	0.00034
283.11	2990	0.00304	0.00029
288.11	898	0.0232	0.0022
288.11	1390	0.0141	0.0014
288.11	1910	0.00934	0.0009
288.11	2490	0.00644	0.00062
288.11	2850	0.00541	0.00052
288.11	3190	0.00461	0.00044
288.11	3360	0.00427	0.00041
293.11	401	0.0679	0.0065
293.11	527	0.052	0.005
293.11	774	0.0348	0.0033
293.11	1220	0.0206	0.002
293.11	1500	0.0167	0.0016
293.11	2560	0.00895	0.00086
293.11	3240	0.0066	0.0006
293.11	3320	0.00626	0.0006
293.11	3480	0.00595	0.00057
293.11	3750	0.00525	0.0005
298.11	1080	0.0386	0.0037
298.11	1430	0.0285	0.0027
298.11	2190	0.0178	0.0017
298.11	2730	0.0137	0.0013
298.11	3530	0.00982	0.00094
298.11	3990	0.00794	0.00077
298.11	4010	0.00768	0.00074
298.11	4120	0.00749	0.00072
303.11	649	0.0854	0.0082
303.11	966	0.0574	0.0055
303.11	1760	0.0307	0.003
303.11	2480	0.0198	0.0019
303.11	3370	0.0141	0.0014
303.11	4380	0.0099	0.001
303.11	4480	0.00943	0.00091
303.11	4630	0.00911	0.00087
