Measured thermophysical data. Vapor-Liquid Equilibrium Data for Methanol + 1,3-Dioxolane + Water and Constituent Binary Systems at 101.3 kPa.
Source: J. Chem. Eng. Data, 2003, 10.1021/je0201166
Compound 1: methanol, CH4O, InChI=1S/CH4O/c1-2/h2H,1H3
Compound 2: 1,3-dioxolane, C3H6O2, InChI=1S/C3H6O2/c1-2-5-3-4-1/h1-3H2
Compound 3: water, H2O, InChI=1S/H2O/h1H2

System: methanol; phases: Liquid, Gas
Property: Normal boiling temperature, K (Liquid); method: EBULLIO:UFactor:2:UFactor:2
Normal boiling temperature, K	uncertainty
337.69	0.1

System: methanol; phases: Liquid
Property: Mass density, kg/m3 (Liquid); method: UNKNOWN
Temperature, K	Pressure, kPa	Mass density, kg/m3	uncertainty
298.15	101.325	786.7	5

System: 1,3-dioxolane; phases: Liquid, Gas
Property: Normal boiling temperature, K (Liquid); method: EBULLIO:UFactor:2
Normal boiling temperature, K	uncertainty
348.57	0.1

System: 1,3-dioxolane; phases: Liquid
Property: Mass density, kg/m3 (Liquid); method: UNKNOWN
Temperature, K	Pressure, kPa	Mass density, kg/m3	uncertainty
298.15	101.325	1058.6	5

System: water; phases: Liquid, Gas
Property: Normal boiling temperature, K (Liquid); method: EBULLIO:UFactor:2
Normal boiling temperature, K	uncertainty
373.13	0.1

System: water; phases: Liquid
Property: Mass density, kg/m3 (Liquid); method: UNKNOWN
Temperature, K	Pressure, kPa	Mass density, kg/m3	uncertainty
298.15	101.325	997.2	5

System: methanol + 1,3-dioxolane; phases: Liquid, Gas
Fixed: Pressure, kPa = 101.3
Property: Boiling temperature at pressure P, K (Liquid); method: EBULLIO:UFactor:2
Mole fraction of methanol	Boiling temperature at pressure P, K	uncertainty
0.082	343.29	0.07
0.145	340.74	0.07
0.175	339.77	0.07
0.213	338.76	0.07
0.228	338.44	0.07
0.259	337.78	0.06
0.288	337.31	0.06
0.305	337	0.06
0.306	337.02	0.06
0.338	336.6	0.06
0.339	336.58	0.06
0.406	335.92	0.06
0.486	335.27	0.06
0.552	334.95	0.06
0.559	334.92	0.06
0.619	334.74	0.06
0.663	334.68	0.06
0.702	334.64	0.06
0.74	334.69	0.06
0.769	334.75	0.06
0.784	334.81	0.06
0.792	334.83	0.06
0.84	335.11	0.06
0.86	335.25	0.06
0.903	335.7	0.06
0.932	336.12	0.06

System: methanol + 1,3-dioxolane; phases: Liquid, Gas
Property: Azeotropic temperature, K (Liquid); method: By T(X) extreme
Mole fraction of methanol	Azeotropic temperature, K	uncertainty
0.691	334.66	0.23

System: methanol + 1,3-dioxolane; phases: Gas, Liquid
Fixed: Pressure, kPa = 101.3
Property: Mole fraction of methanol (Gas); method: CHROM:UFactor:2
Mole fraction of methanol	Mole fraction of methanol	uncertainty
0.082	0.233	0.005
0.145	0.331	0.006
0.175	0.369	0.007
0.213	0.414	0.008
0.228	0.426	0.008
0.259	0.451	0.008
0.288	0.474	0.009
0.305	0.493	0.009
0.306	0.491	0.009
0.338	0.509	0.009
0.339	0.51	0.009
0.406	0.547	0.008
0.486	0.59	0.008
0.552	0.623	0.007
0.559	0.624	0.007
0.619	0.655	0.006
0.663	0.676	0.006
0.702	0.696	0.006
0.74	0.719	0.005
0.769	0.737	0.005
0.784	0.747	0.005
0.792	0.752	0.005
0.84	0.788	0.004
0.86	0.807	0.004
0.903	0.85	0.003
0.932	0.885	0.003

System: methanol + 1,3-dioxolane; phases: Liquid, Gas
Property: Azeotropic composition: mole fraction of methanol (Liquid); method: By X=Y
Pressure, kPa	Azeotropic composition: mole fraction of methanol	uncertainty
101.3	0.691	0.004

System: 1,3-dioxolane + water; phases: Liquid, Gas
Fixed: Pressure, kPa = 101.3
Property: Boiling temperature at pressure P, K (Liquid); method: EBULLIO:UFactor:2
Mole fraction of 1,3-dioxolane	Boiling temperature at pressure P, K	uncertainty
0.005	370.14	0.3
0.008	369.26	0.49
0.015	365.38	0.47
0.022	362.67	0.32
0.033	359.66	0.26
0.04	358.12	0.23
0.052	355.53	0.15
0.082	352.09	0.11
0.117	349.31	0.07
0.192	347.21	0.06
0.304	346.12	0.06
0.444	345.59	0.06
0.573	345.23	0.06
0.68	345.01	0.06
0.742	344.95	0.06
0.779	344.96	0.06
0.846	345.19	0.06
0.876	345.45	0.06
0.906	345.84	0.06
0.937	346.42	0.07
0.985	347.69	0.07

System: 1,3-dioxolane + water; phases: Liquid, Gas
Property: Azeotropic temperature, K (Liquid); method: By T(X) extreme
Mole fraction of 1,3-dioxolane	Azeotropic temperature, K	uncertainty
0.748	344.95	0.23

System: 1,3-dioxolane + water; phases: Gas, Liquid
Fixed: Pressure, kPa = 101.3
Property: Mole fraction of 1,3-dioxolane (Gas); method: CHROM:UFactor:2
Mole fraction of 1,3-dioxolane	Mole fraction of 1,3-dioxolane	uncertainty
0.005	0.106	0.01
0.008	0.134	0.017
0.015	0.266	0.014
0.022	0.323	0.011
0.033	0.422	0.011
0.04	0.45	0.01
0.052	0.516	0.009
0.082	0.578	0.008
0.117	0.63	0.007
0.192	0.664	0.006
0.304	0.688	0.006
0.444	0.702	0.006
0.573	0.715	0.005
0.68	0.732	0.005
0.742	0.746	0.005
0.779	0.759	0.005
0.846	0.793	0.004
0.876	0.813	0.004
0.906	0.841	0.003
0.937	0.879	0.003
0.985	0.962	0.002

System: 1,3-dioxolane + water; phases: Liquid, Gas
Property: Azeotropic composition: mole fraction of 1,3-dioxolane (Liquid); method: By X=Y
Pressure, kPa	Azeotropic composition: mole fraction of 1,3-dioxolane	uncertainty
101.3	0.748	0.004

System: methanol + 1,3-dioxolane + water; phases: Liquid, Gas
Fixed: Pressure, kPa = 101.3
Property: Mole fraction of 1,3-dioxolane (Liquid); method: CHROM:UFactor:2
Property: Mole fraction of 1,3-dioxolane (Gas); method: CHROM:UFactor:2
Property: Mole fraction of methanol (Gas); method: CHROM:UFactor:2
Temperature, K	Mole fraction of methanol	Mole fraction of 1,3-dioxolane	uncertainty	Mole fraction of 1,3-dioxolane	uncertainty	Mole fraction of methanol	uncertainty
339.8	0.227	0.592	0.006	0.54	0.009	0.339	
341.11	0.193	0.505	0.008	0.551	0.008	0.281	
341.96	0.169	0.443	0.007	0.557	0.008	0.248	
342.89	0.146	0.379	0.006	0.564	0.008	0.217	
343.22	0.136	0.35	0.005	0.562	0.008	0.205	
352.62	0.101	0.044	0.001	0.308	0.006	0.29	
350.63	0.199	0.034	0.001	0.189	0.004	0.465	
349.07	0.285	0.025	0.001	0.127	0.002	0.588	
348.5	0.342	0.018	0.001	0.077	0.002	0.646	
347.52	0.405	0.013	0.001	0.054	0.001	0.7	
344.16	0.596	0.009	0.001	0.027	0.001	0.806	
342.7	0.074	0.768	0.004	0.683	0.006	0.148	
339.31	0.232	0.634	0.006	0.544	0.009	0.354	
337.08	0.407	0.488	0.008	0.437	0.008	0.504	
336.21	0.52	0.394	0.006	0.378	0.007	0.582	
335.61	0.658	0.282	0.004	0.308	0.006	0.665	
335.56	0.784	0.177	0.003	0.233	0.004	0.75	
335.93	0.868	0.106	0.002	0.165	0.003	0.826	
343.7	0.047	0.856	0.002	0.751	0.005	0.113	
341.31	0.139	0.68	0.005	0.613	0.007	0.235	
340.44	0.222	0.508	0.008	0.53	0.009	0.315	
340.27	0.296	0.374	0.006	0.47	0.009	0.382	
340.4	0.324	0.316	0.005	0.436	0.008	0.406	
339.7	0.42	0.252	0.004	0.369	0.007	0.495	
339.33	0.507	0.192	0.003	0.304	0.006	0.575	
346.48	0.059	0.176	0.003	0.579	0.008	0.114	
345.75	0.055	0.228	0.004	0.606	0.007	0.098	
345.03	0.045	0.338	0.005	0.64	0.007	0.076	
344.71	0.037	0.441	0.007	0.662	0.006	0.061	
344.62	0.029	0.522	0.007	0.678	0.006	0.05	
344.58	0.025	0.574	0.007	0.689	0.006	0.043	
346.65	0.166	0.107	0.002	0.399	0.007	0.313	
344.61	0.176	0.172	0.003	0.457	0.009	0.288	
344.94	0.166	0.165	0.003	0.461	0.009	0.277	
344.87	0.162	0.169	0.003	0.467	0.009	0.271	
344.88	0.162	0.17	0.003	0.468	0.009	0.272	
345.38	0.155	0.155	0.002	0.465	0.009	0.268	
356.74	0.099	0.018	0.001	0.17	0.003	0.35	
341.14	0.184	0.568	0.007	0.562	0.008	0.274	
340.22	0.263	0.464	0.007	0.506	0.009	0.349	
336.13	0.803	0.139	0.002	0.204	0.004	0.774	
335.78	0.759	0.186	0.003	0.243	0.005	0.734	
338.71	0.707	0.096	0.002	0.172	0.003	0.752	
338.94	0.552	0.179	0.003	0.283	0.005	0.606	
339.58	0.425	0.233	0.004	0.357	0.007	0.516	
341.43	0.348	0.213	0.003	0.381	0.007	0.452	
