Measured thermophysical data. Vapor-Liquid Equilibria of the Binary Carbon Dioxide-Tetrahydrofuran Mixture System
Source: J. Chem. Eng. Data, 2004, 10.1021/je0202228
Compound 1: carbon dioxide, CO2, InChI=1S/CO2/c2-1-3, purity 99.99%
Compound 2: tetrahydrofuran, C4H8O, InChI=1S/C4H8O/c1-2-4-5-3-1/h1-4H2, purity 99.9%

System: tetrahydrofuran + carbon dioxide; phases: Liquid, Gas
Property: Vapor or sublimation pressure, kPa (Liquid); method: EBULLIO:UFactor:32
Mole fraction of carbon dioxide	Temperature, K	Vapor or sublimation pressure, kPa	uncertainty
0.1052	321.05	813	29
0.1168	316.05	826	30
0.1187	331.33	1086	38
0.1459	326.23	1237	43
0.1507	311.01	973	34
0.2288	316.05	1628	55
0.2288	331.33	2103	71
0.2338	321.05	1812	61
0.2435	326.23	2072	70
0.2684	311.01	1767	60
0.3255	331.33	2911	96
0.3318	316.05	2406	80
0.3459	321.05	2709	90
0.3531	326.23	3049	101
0.3965	311.01	2703	90
0.4332	331.33	4020	132
0.4382	316.05	3188	105
0.446	321.05	3522	116
0.4475	326.23	3889	128
0.4978	311.01	3389	112
0.5045	331.33	4814	157
0.5279	321.05	4287	140
0.5492	316.05	4148	136
0.5516	326.23	4951	162
0.5855	331.33	5709	186
0.5929	311.01	4134	135
0.6326	321.05	5282	172
0.6581	316.05	5128	167
0.6637	326.23	6101	198
0.6718	311.01	4801	157
0.6813	331.33	6788	220
0.7146	321.05	6103	199
0.7567	316.05	5992	195
0.7581	311.01	5537	180
0.7651	326.23	7185	233
0.7998	331.33	8138	264
0.8102	321.05	7092	230
0.8364	326.23	8020	260
0.853	316.05	7009	228
0.8573	311.01	6419	209
0.8835	321.05	7836	254
0.919	311.01	7107	231
0.9209	316.05	7751	251

System: tetrahydrofuran + carbon dioxide; phases: Gas, Liquid
Property: Mole fraction of carbon dioxide (Gas); method: CHROM:UFactor:4
Mole fraction of carbon dioxide	Temperature, K	Mole fraction of carbon dioxide	uncertainty
0.1052	321.05	0.8992	0.0048
0.1168	316.05	0.9048	0.0046
0.1187	331.33	0.912	0.0042
0.1459	326.23	0.9215	0.0038
0.1507	311.01	0.932	0.0033
0.2288	316.05	0.9505	0.0024
0.2288	331.33	0.9473	0.0025
0.2338	321.05	0.9499	0.0024
0.2435	326.23	0.9537	0.0022
0.2684	311.01	0.9608	0.0019
0.3255	331.33	0.9591	0.002
0.3318	316.05	0.9654	0.0017
0.3459	321.05	0.9642	0.0017
0.3531	326.23	0.9676	0.0016
0.3965	311.01	0.9727	0.0013
0.4332	331.33	0.9676	0.0016
0.4382	316.05	0.9733	0.0013
0.446	321.05	0.9713	0.0014
0.4475	326.23	0.972	0.0013
0.4978	311.01	0.9785	0.001
0.5045	331.33	0.9707	0.0014
0.5279	321.05	0.9752	0.0012
0.5492	316.05	0.978	0.0011
0.5516	326.23	0.9754	0.0012
0.5855	331.33	0.9722	0.0013
0.5929	311.01	0.9817	0.0009
0.6326	321.05	0.9778	0.0011
0.6581	316.05	0.9811	0.0009
0.6637	326.23	0.977	0.0011
0.6718	311.01	0.9838	0.0008
0.6813	331.33	0.973	0.0013
0.7146	321.05	0.9795	0.001
0.7567	316.05	0.9826	0.0008
0.7581	311.01	0.9846	0.0007
0.7651	326.23	0.9771	0.0011
0.8102	321.05	0.9804	0.0009
0.8364	326.23	0.9772	0.0011
0.853	316.05	0.984	0.0008
0.8573	311.01	0.9869	0.0006
0.8835	321.05	0.9815	0.0009
0.919	311.01	0.988	0.0006
0.9209	316.05	0.9846	0.0007
