Measured thermophysical data. Liquid-Liquid Equilibrium and Excess Enthalpies in Binary Systems Methylcyclohexane + Methanol and Methylcyclohexane + N,N-Dimethylformamide
Source: J. Chem. Eng. Data, 2003, 10.1021/je020135f
Compound 1: methanol, CH4O, InChI=1S/CH4O/c1-2/h2H,1H3, purity 99%
Compound 2: methylcyclohexane, C7H14, InChI=1S/C7H14/c1-7-5-3-2-4-6-7/h7H,2-6H2,1H3, purity 99%
Compound 3: dimethylformamide, C3H7NO, InChI=1S/C3H7NO/c1-4(2)3-5/h3H,1-2H3, purity 99.8%

System: methanol; phases: Liquid
Property: Mass density, kg/m3 (Liquid); method: Vibrating tube method
Temperature, K	Pressure, kPa	Mass density, kg/m3	uncertainty
298.15	101.325	786.55	0.43

System: methylcyclohexane; phases: Liquid
Property: Mass density, kg/m3 (Liquid); method: Vibrating tube method
Temperature, K	Pressure, kPa	Mass density, kg/m3	uncertainty
298.15	101.325	764.96	0.42

System: methylcyclohexane; phases: Liquid
Property: Mass density, kg/m3 (Liquid); method: Vibrating tube method
Temperature, K	Pressure, kPa	Mass density, kg/m3	uncertainty
298.15	101.325	764.97	0.18

System: dimethylformamide; phases: Liquid
Property: Mass density, kg/m3 (Liquid); method: Vibrating tube method
Temperature, K	Pressure, kPa	Mass density, kg/m3	uncertainty
298.15	101.325	943.81	0.13

System: dimethylformamide; phases: Liquid
Property: Mass density, kg/m3 (Liquid); method: Vibrating tube method
Temperature, K	Pressure, kPa	Mass density, kg/m3	uncertainty
298.15	101.325	943.88	0.1

System: methanol + methylcyclohexane; phases: Liquid mixture 1, Liquid mixture 2
Fixed: Pressure, kPa = 101.3
Property: Liquid-liquid equilibrium temperature, K (Liquid mixture 1); method: VISOBS
Mole fraction of methylcyclohexane	Liquid-liquid equilibrium temperature, K	uncertainty
0.192	306.26	0.16
0.2119	309.43	0.16
0.2231	310.81	0.16
0.2399	312.59	0.16
0.2452	313.04	0.16
0.2604	314.13	0.16
0.2721	314.93	0.16
0.2955	316.06	0.16
0.3042	316.3	0.16
0.3263	316.92	0.16
0.3265	316.82	0.16
0.3389	317.07	0.16
0.3701	317.37	0.16
0.4463	317.62	0.16
0.4637	317.6	0.16
0.5044	317.34	0.16
0.5348	317.11	0.16
0.5424	317	0.16
0.553	316.96	0.16
0.5764	316.51	0.16
0.6059	315.82	0.16
0.6365	314.79	0.16
0.6618	313.69	0.16
0.6836	312.53	0.16
0.7123	310.69	0.16
0.7442	308.02	0.16
0.7881	303.02	0.16

System: methanol + methylcyclohexane; phases: Liquid mixture 1, Liquid mixture 2
Fixed: Pressure, kPa = 101.325
Property: Mole fraction of methylcyclohexane (Liquid mixture 1); method: Chromatography
Temperature, K	Mole fraction of methylcyclohexane	uncertainty
293.15	0.135	0.001
298.15	0.15	0.002
303.15	0.174	0.002
308.15	0.202	0.002
313.15	0.251	0.002

System: methanol + methylcyclohexane; phases: Liquid mixture 2, Liquid mixture 1
Fixed: Pressure, kPa = 101.325
Property: Mole fraction of methylcyclohexane (Liquid mixture 2); method: Chromatography
Temperature, K	Mole fraction of methylcyclohexane	uncertainty
293.15	0.831	0.002
298.15	0.812	0.002
303.15	0.792	0.002
308.15	0.75	0.002
313.15	0.68	0.003

System: methanol + methylcyclohexane; phases: Liquid mixture 1, Liquid mixture 2
Fixed: Pressure, kPa = 101.325
Property: Mole fraction of methylcyclohexane (Liquid mixture 1); method: OTHER
Temperature, K	Mole fraction of methylcyclohexane	uncertainty
288.15	0.126	0.005
293.15	0.139	0.005
295.15	0.145	0.005
298.15	0.154	0.005
301.15	0.167	0.005
303.15	0.177	0.005
305.15	0.184	0.005
307.15	0.196	0.005

System: methanol + methylcyclohexane; phases: Liquid mixture 2, Liquid mixture 1
Fixed: Pressure, kPa = 101.325
Property: Mole fraction of methylcyclohexane (Liquid mixture 2); method: OTHER
Temperature, K	Mole fraction of methylcyclohexane	uncertainty
288.15	0.861	0.005
293.15	0.837	0.005
295.15	0.828	0.005
298.15	0.814	0.005
301.15	0.793	0.005
303.15	0.78	0.005
305.15	0.767	0.005
307.15	0.758	0.005

System: methanol + methylcyclohexane; phases: Liquid
Fixed: Pressure, kPa = 101.325
Property: Excess molar enthalpy (molar enthalpy of mixing), kJ/mol (Liquid); method: FLOW:UFactor:2
Temperature, K	Mole fraction of methylcyclohexane	Excess molar enthalpy (molar enthalpy of mixing), kJ/mol	uncertainty
298.15	0.0166	0.0773	0.0036
298.15	0.0345	0.1495	0.005
298.15	0.0537	0.2175	0.0065
298.15	0.0743	0.2763	0.0078
298.15	0.0967	0.332	0.0091
298.15	0.121	0.3812	0.0103
298.15	0.859	0.4217	0.0112
298.15	0.9056	0.3711	0.01
313.15	0.0166	0.0837	0.0038
313.15	0.0343	0.1594	0.0053
313.15	0.0534	0.2337	0.0069
313.15	0.0741	0.3006	0.0084
313.15	0.0964	0.3633	0.0099
313.15	0.1206	0.4216	0.0113
313.15	0.147	0.475	0.0125
313.15	0.1758	0.5212	0.0137
313.15	0.2075	0.5592	0.0146
313.15	0.2411	0.5833	0.0153
313.15	0.2424	0.5886	0.0154
313.15	0.7423	0.6699	0.0173
313.15	0.8057	0.6372	0.0165
313.15	0.8588	0.5769	0.015
313.15	0.9055	0.5134	0.0135
313.15	0.941	0.4524	0.012

System: methanol + methylcyclohexane; phases: Liquid mixture 1, Liquid mixture 2
Property: Excess molar enthalpy (molar enthalpy of mixing), kJ/mol (Liquid mixture 1); method: FLOW:UFactor:2
Temperature, K	Mole fraction of methylcyclohexane	Excess molar enthalpy (molar enthalpy of mixing), kJ/mol	uncertainty
298.15	0.1475	0.4169	0.0111
298.15	0.1764	0.4308	0.0114
298.15	0.2082	0.4346	0.0115
298.15	0.2411	0.4375	0.0116
298.15	0.2432	0.438	0.0116
298.15	0.2819	0.4411	0.0117
298.15	0.3251	0.4428	0.0117
298.15	0.3736	0.4452	0.0118
298.15	0.4283	0.4497	0.0119
298.15	0.4907	0.452	0.0119
298.15	0.5623	0.453	0.012
298.15	0.6453	0.4567	0.0121
298.15	0.7429	0.4632	0.0122
298.15	0.8061	0.4559	0.012
313.15	0.2812	0.6057	0.0157
313.15	0.3244	0.6164	0.016
313.15	0.3728	0.6291	0.0163
313.15	0.4275	0.6435	0.0166
313.15	0.4898	0.6564	0.0169
313.15	0.5615	0.6677	0.0172
313.15	0.6446	0.6862	0.0177

System: dimethylformamide + methylcyclohexane; phases: Liquid mixture 1, Liquid mixture 2
Fixed: Pressure, kPa = 101.3
Property: Liquid-liquid equilibrium temperature, K (Liquid mixture 1); method: VISOBS
Mole fraction of methylcyclohexane	Liquid-liquid equilibrium temperature, K	uncertainty
0.2135	309.5	0.16
0.2413	313.21	0.16
0.259	315.06	0.16
0.2809	317.05	0.16
0.2926	317.91	0.16
0.3275	319.98	0.16
0.3584	321.28	0.16
0.3668	321.43	0.16
0.3939	322.18	0.16
0.404	322.31	0.16
0.4196	322.5	0.16
0.4358	322.66	0.16
0.4497	322.73	0.16
0.4843	322.84	0.16
0.5125	322.85	0.16
0.5151	322.85	0.16
0.5348	322.81	0.16
0.5446	322.85	0.16
0.5999	322.64	0.16
0.6253	322.45	0.16
0.6602	321.91	0.16
0.7152	320.39	0.16
0.7404	319.29	0.16
0.7854	316.59	0.16
0.8156	313.95	0.16
0.836	311.64	0.16

System: dimethylformamide + methylcyclohexane; phases: Liquid mixture 1, Liquid mixture 2
Fixed: Pressure, kPa = 101.325
Property: Mole fraction of methylcyclohexane (Liquid mixture 1); method: Chromatography
Temperature, K	Mole fraction of methylcyclohexane	uncertainty
293.15	0.138	0.002
298.15	0.156	0.002
303.15	0.18	0.002
308.15	0.205	0.002
313.15	0.242	0.002

System: dimethylformamide + methylcyclohexane; phases: Liquid mixture 2, Liquid mixture 1
Fixed: Pressure, kPa = 101.325
Property: Mole fraction of methylcyclohexane (Liquid mixture 2); method: Chromatography
Temperature, K	Mole fraction of methylcyclohexane	uncertainty
293.15	0.92	0.001
298.15	0.903	0.001
303.15	0.881	0.001
308.15	0.854	0.002
313.15	0.816	0.002

System: dimethylformamide + methylcyclohexane; phases: Liquid mixture 1, Liquid mixture 2
Fixed: Pressure, kPa = 101.325
Property: Mole fraction of methylcyclohexane (Liquid mixture 1); method: OTHER
Temperature, K	Mole fraction of methylcyclohexane	uncertainty
288.15	0.124	0.005
293.15	0.136	0.005
295.15	0.145	0.005
298.15	0.154	0.005
301.15	0.166	0.005
303.15	0.174	0.005
305.15	0.184	0.005
307.15	0.194	0.005

System: dimethylformamide + methylcyclohexane; phases: Liquid mixture 2, Liquid mixture 1
Fixed: Pressure, kPa = 101.325
Property: Mole fraction of methylcyclohexane (Liquid mixture 2); method: OTHER
Temperature, K	Mole fraction of methylcyclohexane	uncertainty
288.15	0.932	0.005
293.15	0.918	0.005
295.15	0.911	0.005
298.15	0.9	0.005
301.15	0.889	0.005
303.15	0.883	0.005
305.15	0.875	0.005
307.15	0.859	0.005

System: dimethylformamide + methylcyclohexane; phases: Liquid
Fixed: Pressure, kPa = 101.325
Property: Excess molar enthalpy (molar enthalpy of mixing), kJ/mol (Liquid); method: FLOW:UFactor:2
Temperature, K	Mole fraction of methylcyclohexane	Excess molar enthalpy (molar enthalpy of mixing), kJ/mol	uncertainty
298.15	0.031	0.2481	0.0076
298.15	0.0633	0.4337	0.012
298.15	0.0969	0.6793	0.0178
298.15	0.132	0.8753	0.0225
298.15	0.924	0.7128	0.0183
298.15	0.9274	0.683	0.0176
298.15	0.9305	0.6659	0.0172
298.15	0.9383	0.6136	0.0162
313.15	0.031	0.2425	0.0077
313.15	0.0634	0.4763	0.013
313.15	0.097	0.6966	0.0182
313.15	0.1321	0.9012	0.0231
313.15	0.1687	1.0866	0.0276
313.15	0.2069	1.2461	0.0314
313.15	0.9204	0.7626	0.0198
313.15	0.9383	0.6442	0.0171
313.15	0.9552	0.4955	0.0137

System: dimethylformamide + methylcyclohexane; phases: Liquid mixture 1, Liquid mixture 2
Property: Excess molar enthalpy (molar enthalpy of mixing), kJ/mol (Liquid mixture 1); method: FLOW:UFactor:2
Temperature, K	Mole fraction of methylcyclohexane	Excess molar enthalpy (molar enthalpy of mixing), kJ/mol	uncertainty
298.15	0.1685	0.9555	0.0243
298.15	0.2068	0.9772	0.0248
298.15	0.2467	0.9763	0.0248
298.15	0.2893	0.9747	0.0247
298.15	0.3322	0.965	0.0245
298.15	0.3781	0.9518	0.0242
298.15	0.3782	0.9447	0.024
298.15	0.4264	0.9366	0.0238
298.15	0.4771	0.9231	0.0235
298.15	0.5304	0.9115	0.0232
298.15	0.5867	0.8991	0.0229
298.15	0.646	0.8854	0.0225
298.15	0.7087	0.8712	0.0222
298.15	0.7751	0.8524	0.0217
298.15	0.8455	0.8332	0.0213
298.15	0.9204	0.7501	0.0192
313.15	0.2469	1.3188	0.0331
313.15	0.2887	1.3352	0.0335
313.15	0.3325	1.328	0.0334
313.15	0.3784	1.3219	0.0332
313.15	0.4267	1.3132	0.033
313.15	0.4773	1.3067	0.0328
313.15	0.5307	1.2867	0.0324
313.15	0.5869	1.2805	0.0322
313.15	0.6462	1.2723	0.032
313.15	0.7089	1.2584	0.0317
313.15	0.7753	1.2408	0.0312
313.15	0.8457	1.1558	0.0292
313.15	0.2887	1.3248	0.0333
