Measured thermophysical data. Thermodynamic Property Measurements for Trifluoromethyl Methyl Ether and Pentafluoroethyl Methyl Ether
Source: J. Chem. Eng. Data, 2003, 10.1021/je025657+
Compound 1: trifluoromethoxymethane, C2H3F3O, InChI=1S/C2H3F3O/c1-6-2(3,4)5/h1H3, purity 99.98%
Compound 2: methyl pentafluoroethyl ether, C3H3F5O, InChI=1S/C3H3F5O/c1-9-3(7,8)2(4,5)6/h1H3, purity 99.99%

System: trifluoromethoxymethane; phases: Liquid, Gas
Property: Vapor or sublimation pressure, kPa (Liquid); method: Closed cell (Static) method
Temperature, K	Vapor or sublimation pressure, kPa	uncertainty
300	607.7	1.2
300	607.3	1.2
305	698.7	1.3
310	800.9	1.4
310	800.7	1.4
310	801.7	1.4
315	914.3	1.5
320	1038.1	1.7
320	1038.5	1.7
320	1038.4	1.7
325	1175.7	1.9
330	1325.7	2.1
330	1325.6	2.1
330	1325.7	2.1
335	1489.7	2.3
340	1668.8	2.6
340	1668.5	2.6
340	1670.2	2.6
345	1863.6	2.9
350	2074.9	3.2
350	2075	3.2
350	2071.7	3.2
355	2304.3	3.6
360	2553.1	4
360	2553.8	4
360	2554.9	4
365	2823.3	4.4
370	3116.4	4.8
370	3117.3	4.8
370	3117.1	4.8
375	3435.7	5.3

System: trifluoromethoxymethane; phases: Liquid, Gas
Property: Mass density, kg/m3 (Liquid); method: VIBTUB:UFactor:32
Temperature, K	Mass density, kg/m3	uncertainty
240	1261.55	4.32
240	1261.54	4.32
250	1235.07	3.98
260	1208.02	3.64
270	1179.44	3.28
280	1150.07	2.9
290	1119.31	2.51
300	1086.15	2.09
300	1086.47	2.1
300	1086.56	2.1
310	1051.17	1.65
310	1054.68	1.69
310	1054.67	1.69
310	1051.64	1.65
320	1013.47	1.16
320	1014.09	1.17
330	972.09	1.35
330	972.09	1.35
330	973.36	1.33
330	973.37	1.33
340	925.57	1.95
350	871.95	2.64
360	805.64	3.5
370	711.78	4.71

System: trifluoromethoxymethane; phases: Liquid
Property: Mass density, kg/m3 (Liquid); method: VIBTUB:UFactor:8
Temperature, K	Pressure, kPa	Mass density, kg/m3	uncertainty
240	517.1	1262.64	1.11
240	1011	1263.83	1.15
240	1516.2	1265.03	1.2
240	2014.7	1266.21	1.24
240	2517.3	1267.38	1.29
240	3024.1	1268.56	1.33
240	3529.6	1269.72	1.38
240	4031	1270.86	1.43
240	4515.5	1271.95	1.47
240	5038.9	1273.12	1.52
240	5511.8	1274.16	1.57
240	6024.7	1275.29	1.62
240	6511.7	1276.35	1.66
240	6981.1	1277.36	1.71
250	505.1	1236.18	1.02
250	1008.8	1237.55	1.06
250	1508.8	1238.91	1.1
250	2020.1	1240.28	1.14
250	2517.2	1241.59	1.19
250	3037	1242.95	1.23
250	3530.8	1244.22	1.27
250	4030.5	1245.49	1.32
250	4537.2	1246.78	1.36
250	5042.6	1248.05	1.4
250	5550.6	1249.31	1.45
250	6026.5	1250.48	1.49
250	6529.6	1251.71	1.54
250	6975.1	1252.79	1.58
260	507.8	1209.12	0.93
260	1009.3	1210.7	0.97
260	1499.4	1212.21	1
260	2004.5	1213.76	1.04
260	2515.8	1215.3	1.08
260	3012.1	1216.77	1.12
260	3527.2	1218.29	1.16
260	4018	1219.71	1.2
260	4522	1221.16	1.24
260	5039.1	1222.63	1.29
260	5512.3	1223.96	1.32
260	6040.8	1225.42	1.37
260	6546.9	1226.81	1.41
260	6987.4	1227.99	1.45
270	500.8	1180.45	0.84
270	1001.8	1182.27	0.87
270	1515.4	1184.1	0.91
270	1999.2	1185.81	0.94
270	2500.7	1187.53	0.97
270	3017	1189.29	1.01
270	3484.3	1190.86	1.05
270	4038.2	1192.68	1.09
270	4513.3	1194.24	1.12
270	5047.2	1195.96	1.16
270	5542.1	1197.53	1.2
270	6036.1	1199.08	1.24
270	6529.6	1200.61	1.28
270	6973.6	1201.96	1.31
280	454.4	1150.61	0.74
280	985.2	1152.87	0.77
280	1507.7	1155.03	0.8
280	1992.9	1157.02	0.83
280	2510.8	1159.1	0.86
280	3011.5	1161.06	0.9
280	3522.2	1163.04	0.93
280	4037.2	1164.99	0.97
280	4483.8	1166.68	1
280	4942.1	1168.36	1.03
280	5533.2	1170.51	1.07
280	5977.4	1172.09	1.1
280	6516.6	1173.99	1.14
280	7008.7	1175.7	1.17
290	493.5	1119.5	0.64
290	976.7	1121.93	0.66
290	979.3	1121.87	0.66
290	1475.8	1124.36	0.69
290	1999.9	1126.86	0.72
290	2466.6	1129.04	0.75
290	2989.9	1131.43	0.78
290	3492.2	1133.73	0.81
290	4029.3	1136.09	0.84
290	4505	1138.14	0.87
290	4999.6	1140.25	0.9
290	5546.1	1142.55	0.93
290	6046.4	1144.61	0.97
290	6496.3	1146.42	1
290	6981.5	1148.28	1.03
300	617	1086.54	0.55
300	658.2	1086.45	0.55
300	913.6	1088.34	0.56
300	1058.4	1088.91	0.57
300	1466.6	1091.63	0.59
300	1522.9	1091.63	0.59
300	1998.6	1094.68	0.61
300	2016.1	1094.48	0.61
300	2526.4	1097.64	0.63
300	2545.5	1097.41	0.63
300	3023.5	1100.35	0.65
300	3063.2	1100.24	0.65
300	3486.7	1102.83	0.68
300	3535.6	1102.72	0.68
300	4015.2	1105.57	0.71
300	4063.9	1105.45	0.71
300	4499.8	1108.05	0.73
300	4569.3	1107.99	0.74
300	5014.6	1110.58	0.76
300	5140.6	1110.81	0.77
300	5517	1113.05	0.79
300	5669.7	1113.35	0.8
300	6023	1115.44	0.82
300	6155.2	1115.66	0.83
300	6499	1117.65	0.85
300	6683.2	1118.07	0.86
300	6960.3	1119.71	0.88
300	7091.7	1119.94	0.88
310	813.1	1051.26	0.46
310	836.7	1051.44	0.46
310	861.7	1051.63	0.46
310	1006.3	1053.19	0.47
310	1033.6	1052.9	0.47
310	1512.4	1056.88	0.48
310	1533.9	1056.54	0.48
310	2000.5	1060.31	0.5
310	2046.2	1060.13	0.5
310	2498.6	1063.7	0.52
310	2539.9	1063.48	0.52
310	3027.3	1067.18	0.54
310	3099.5	1067.15	0.54
310	3517	1070.31	0.56
310	3564.5	1070.1	0.56
310	4017.7	1073.4	0.58
310	4131.5	1073.59	0.58
310	4531.7	1076.5	0.6
310	5049.8	1079.54	0.62
310	5149.7	1079.59	0.62
310	5542	1082.34	0.64
310	5630.8	1082.31	0.65
310	6021.1	1085.02	0.67
310	6210.4	1085.5	0.68
310	6538.6	1087.83	0.7
310	6998	1090.22	0.72
310	7191.1	1090.69	0.73
320	1046.3	1013.52	0.36
320	1081.4	1013.85	0.36
320	1117.7	1014.21	0.37
320	1512.4	1017.85	0.38
320	1515.2	1018.55	0.38
320	2029.1	1023.1	0.4
320	2036.4	1022.49	0.39
320	2520.5	1026.61	0.41
320	2529.1	1027.35	0.41
320	3012.2	1031.29	0.43
320	3050.4	1030.92	0.42
320	3512.7	1035.21	0.44
320	3595.2	1035.17	0.44
320	4030.7	1039.11	0.46
320	4131.4	1039.19	0.46
320	4518.5	1042.67	0.47
320	4616.1	1042.69	0.47
320	5039.6	1046.35	0.49
320	5136.9	1046.33	0.49
320	5518	1049.62	0.51
320	5652.1	1049.82	0.51
320	6055.9	1053.18	0.53
320	6201.4	1053.41	0.54
320	6522.4	1056.19	0.55
320	6721.8	1056.72	0.56
320	6877.8	1058.42	0.57
320	7175.8	1059.52	0.58
330	1364.9	972.53	0.39
330	1414.6	973.15	0.39
330	1458.1	973.66	0.39
330	2087	981.1	0.38
330	2555.2	986.24	0.36
330	3114.9	992.08	0.35
330	3553.8	996.38	0.34
330	4105.6	1001.58	0.34
330	4643.4	1006.39	0.35
330	5117	1010.47	0.36
330	5639.1	1014.76	0.38
330	6168.6	1018.96	0.4
330	6739.6	1023.31	0.42
330	7155.4	1026.38	0.43
340	1691.6	925.88	0.52
340	1704.5	926.14	0.52
340	1776.3	927.36	0.52
340	2059.3	932.03	0.51
340	2582.2	940.1	0.5
340	3081.7	947.17	0.48
340	3596.1	953.91	0.47
340	4130.8	960.48	0.45
340	4614	966.04	0.43
340	5146.7	971.84	0.42
340	5642.7	976.95	0.4
340	6163.1	982.05	0.39
340	6711.6	987.19	0.37
340	7112.6	990.78	0.36
350	2091.1	872.23	0.73
350	2104.3	872.59	0.73
350	2141.2	873.54	0.73
350	2548.5	883.49	0.7
350	3078	894.77	0.68
350	3561.7	903.94	0.65
350	4061.4	912.5	0.63
350	4604.4	920.96	0.61
350	5110.9	928.26	0.59
350	5614.7	935	0.56
350	6145.6	941.66	0.54
350	6708.6	948.27	0.52
350	7180.7	953.51	0.51
360	2566.6	806.04	1.01
360	2595.3	807.47	1
360	2674	811	0.99
360	3046.9	825.94	0.95
360	3567.7	842.69	0.91
360	4099.1	856.85	0.88
360	4614.4	868.64	0.85
360	5110	878.67	0.82
360	5611.7	887.84	0.79
360	6201.7	897.63	0.77
360	6215.7	897.87	0.77
360	6705.8	905.3	0.74
360	7100.8	910.94	0.72
370	3130.2	712.6	1.43
370	3147.8	715.08	1.42
370	3586	754.94	1.29
370	4068.1	781.44	1.21
370	4642.5	804.25	1.14
370	5159.1	820.53	1.1
370	5641.4	833.56	1.06
370	6176.7	846.09	1.02
370	6712.7	857.24	0.99
370	7155.1	865.58	0.97
380	3807.7	489.63	2.43
380	4003.4	629	1.88
380	4596.7	707.34	1.58
380	5159.5	743.66	1.46
380	5653.6	766.09	1.39
380	6175.8	785.18	1.33
380	6672.5	800.32	1.29
380	7138.9	812.7	1.25

System: trifluoromethoxymethane; phases: Gas
Property: Mass density, kg/m3 (Gas); method: VIBTUB:UFactor:8
Temperature, K	Pressure, kPa	Mass density, kg/m3	uncertainty
240	17	0.84	0.26
240	25.1	1.25	0.26
240	36.9	1.87	0.26
250	19.2	0.91	0.25
250	28.3	1.34	0.26
250	41.7	1.98	0.26
250	61.2	2.94	0.26
250	89.4	4.33	0.27
260	18.7	1.11	0.26
260	27.6	1.53	0.26
260	40.7	2.15	0.26
260	59.9	3.03	0.26
260	87.8	4.4	0.27
260	127.7	6.4	0.27
270	23.7	1.1	0.25
270	35	1.6	0.26
270	51.5	2.35	0.26
270	75.7	3.49	0.26
270	110.6	5.15	0.27
270	160.6	7.63	0.27
280	27.5	1.21	0.25
280	40.5	1.79	0.26
280	59.6	2.61	0.26
280	87.6	3.89	0.26
280	128.3	5.75	0.27
280	186.4	8.53	0.28
280	269	12.52	0.29
290	18.9	0.76	0.25
290	30.4	1.28	0.25
290	50.3	2.25	0.26
290	74.2	3.26	0.26
290	109	4.83	0.27
290	159.4	7.09	0.27
290	232.8	10.52	0.28
290	338.9	15.78	0.3
300	31.3	1.25	0.25
300	46.2	1.89	0.26
300	68	2.77	0.26
300	100.1	4.12	0.26
300	146.6	6.12	0.27
300	214	9.08	0.28
300	306.3	13.34	0.29
300	439.5	19.94	0.32
300	589.3	28.11	0.34
310	38.3	1.49	0.25
310	56.5	2.22	0.26
310	83.1	3.29	0.26
310	121.9	4.87	0.27
310	178.2	7.22	0.27
310	258.9	10.69	0.28
310	372.5	15.8	0.3
310	528.4	23.4	0.33
310	742.6	35.17	0.37
320	46.4	1.77	0.26
320	68.4	2.64	0.26
320	100.6	3.89	0.26
320	147.5	5.74	0.27
320	215.4	8.49	0.28
320	312.9	12.57	0.29
320	449.1	18.62	0.31
320	634.7	27.54	0.34
320	968.5	46.37	0.41
330	72.1	2.7	0.26
330	106.1	3.97	0.26
330	155.7	5.88	0.27
330	227.6	8.7	0.28
330	330.5	12.87	0.29
330	475.1	19.02	0.31
330	674.2	28.13	0.34
330	936.5	41.69	0.39
380	345.8	11.4	0.29
380	411.6	13.64	0.3
380	637.2	21.72	0.33
380	1069	38.43	0.39
380	1190.9	43.52	0.41
380	1736.8	68.74	0.51
380	2282.2	99.68	0.64
380	2913	148.72	0.85
380	3383.7	207.93	1.13
380	3672.6	287.87	1.53
380	3791.1	430.78	2.31

System: trifluoromethoxymethane; phases: Gas
Property: Mass density, kg/m3 (Gas); method: Burnett expansion method
Temperature, K	Pressure, kPa	Mass density, kg/m3	uncertainty
300	124.2	5.136	0.106
300	170.5	7.128	0.106
300	183.4	7.703	0.106
300	251.4	10.75	0.11
300	268.7	11.56	0.11
300	364.7	16.13	0.11
300	388.1	17.29	0.11
300	519.4	24.16	0.11
300	550.3	25.89	0.11
310	128.7	5.137	0.105
310	177.1	7.139	0.105
310	190.3	7.705	0.106
310	261	10.74	0.11
310	279.4	11.56	0.11
310	380.4	16.14	0.11
310	405	17.3	0.11
310	545.9	24.27	0.11
310	578.6	25.97	0.11
310	759.9	36.24	0.11
320	133.1	5.135	0.105
320	183.4	7.139	0.105
320	197.1	7.701	0.105
320	270.9	10.74	0.11
320	289.9	11.55	0.11
320	395.7	16.14	0.11
320	421.5	17.3	0.11
320	570.4	24.28	0.11
320	604.9	25.98	0.11
320	802.9	36.45	0.11
320	847.1	38.98	0.11
330	137.5	5.133	0.105
330	188.9	7.099	0.105
330	203.7	7.696	0.105
330	280.6	10.75	0.11
330	300.2	11.55	0.11
330	410.7	16.13	0.11
330	437.5	17.29	0.11
330	594.3	24.27	0.11
330	630.6	25.96	0.11
330	841.9	36.48	0.11
330	889	38.98	0.11
340	141.7	5.126	0.104
340	195.8	7.136	0.104
340	210.4	7.694	0.105
340	310.5	11.54	0.1
340	425.6	16.13	0.11
340	453.5	17.28	0.11
340	655.6	25.94	0.11
340	879.5	36.45	0.11
340	929.4	38.95	0.11
340	1216.9	54.78	0.11
340	1278.5	58.56	0.11
340	1605.8	82.06	0.12
350	146.2	5.127	0.104
350	202.9	7.174	0.104
350	217	7.688	0.104
350	299.5	10.74	0.1
350	320.6	11.53	0.1
350	469.2	17.27	0.11
350	640.8	24.25	0.11
350	680.3	25.92	0.11
350	969	38.92	0.11
350	1277.1	54.75	0.11
350	1343.5	58.5	0.11
350	1709.6	82.31	0.12
350	1782.8	87.93	0.12
360	150.4	5.122	0.104
360	208.1	7.139	0.104
360	223.5	7.683	0.104
360	330.6	11.52	0.1
360	455	16.13	0.1
360	484.7	17.25	0.1
360	704.6	25.9	0.11
360	952.6	36.41	0.11
360	1007.9	38.88	0.11
360	1335.8	54.71	0.11
360	1406.7	58.43	0.11
360	1807.1	82.26	0.11
360	1888.4	87.85	0.11
360	2309	123.6	0.1
360	2385.4	132	0.1
370	154.7	5.117	0.104
370	215.6	7.182	0.104
370	230	7.677	0.104
370	318.3	10.73	0.1
370	340.6	11.52	0.1
370	500.1	17.24	0.1
370	686.1	24.23	0.1
370	728.8	25.88	0.1
370	1046.2	38.85	0.11
370	1393.4	54.67	0.11
370	1468.6	58.37	0.11
370	1901.8	82.19	0.11
370	1990.6	87.72	0.11
370	2469.3	123.6	0.1
370	2559	132	0.1
370	2970.3	185.3	0.2
370	3031.6	197.4	0.2
380	147.8	4.751	0.103
380	158.9	5.114	0.103
380	220.5	7.14	0.103
380	236.5	7.671	0.103
380	327.6	10.73	0.1
380	350.5	11.51	0.1
380	483.9	16.12	0.1
380	515.4	17.23	0.1
380	708.4	24.22	0.1
380	752.6	25.86	0.1
380	1023.5	36.37	0.11
380	1084	38.82	0.11
380	1450	54.63	0.11
380	1529.5	58.32	0.11
380	1994.4	82.12	0.11
380	2092.4	87.73	0.11
380	2624.1	123.5	0.1
380	2726.4	131.8	0.1
380	3233.6	185.9	0.2
380	3316.9	198.3	0.2
380	3647	276.7	0.4
380	3686.3	294.2	0.7
380	3776.4	381.1	4.7
380	3786.4	439.7	1

System: methyl pentafluoroethyl ether; phases: Liquid, Gas
Property: Mass density, kg/m3 (Liquid); method: VIBTUB:UFactor:8
Temperature, K	Mass density, kg/m3	uncertainty
240	1425.22	1.6
250	1399.85	1.52
260	1374.2	1.44
270	1347.19	1.35
280	1319.62	1.27
290	1291.09	1.18
300	1260.39	1.08
300	1261.37	1.08
300	1261.41	1.08
310	1230.28	0.98
320	1196.29	0.88
320	1197.68	0.88
330	1161.46	0.77
330	1163.08	0.77
340	1124.55	0.65
340	1126.1	0.65
340	1126.12	0.65
350	1084.74	0.54
350	1086.06	0.55
360	1040.97	0.43
360	1042.15	0.43
360	1042.21	0.43
370	991.98	0.35
370	992.32	0.35
370	992.42	0.35
380	934.86	0.48
380	935.87	0.48

System: methyl pentafluoroethyl ether; phases: Gas, Liquid
Property: Mass density, kg/m3 (Gas); method: VIBTUB:UFactor:4
Temperature, K	Mass density, kg/m3	uncertainty
310	23.61	0.18
320	29.81	0.19
340	47.9	0.21
350	61.38	0.23
360	77.81	0.25
370	101.33	0.29
380	133.96	0.34

System: methyl pentafluoroethyl ether; phases: Gas
Property: Mass density, kg/m3 (Gas); method: VIBTUB:UFactor:8
Temperature, K	Pressure, kPa	Mass density, kg/m3	uncertainty
300	45.7	2.84	0.29
300	56.7	3.73	0.29
300	82	5.31	0.29
300	93.3	6.05	0.29
300	98.2	6.15	0.29
300	116.1	7.55	0.3
300	131.7	8.6	0.3
300	165.9	10.97	0.3
300	188.8	12.58	0.31
300	218.2	15.51	0.32
310	21.5	1.25	0.28
310	31.7	1.86	0.28
310	97.3	5.82	0.29
310	144.4	8.89	0.3
310	195.7	12.34	0.31
310	245.2	15.73	0.32
310	276.7	17.86	0.32
320	61.7	3.58	0.28
320	90.4	5.23	0.29
320	101.6	5.98	0.29
320	132	7.77	0.29
320	155.5	9.32	0.3
320	191.5	11.5	0.3
320	213.2	12.95	0.31
320	276.1	17.25	0.32
320	336.5	21.52	0.33
320	383	24.92	0.34
320	384.9	25.11	0.34
320	389.1	25.46	0.34
330	70.8	3.97	0.28
330	98.4	5.48	0.29
330	103.9	5.88	0.29
330	151.6	8.67	0.3
330	169.4	9.72	0.3
330	219.7	12.83	0.31
330	235.2	13.71	0.31
330	295.3	17.66	0.32
330	307.4	18.42	0.32
330	315.2	18.98	0.32
330	375.8	23.12	0.34
330	444.8	28.23	0.35
330	472.9	30.25	0.35
340	72.2	3.93	0.28
340	97.1	5.22	0.29
340	106	5.76	0.29
340	154.8	8.59	0.3
340	198.1	11.09	0.3
340	224.8	12.57	0.31
340	295.9	17.05	0.32
340	323.2	18.7	0.32
340	396.6	23.61	0.34
340	495.8	30.46	0.36
340	596	38.08	0.38
340	597.2	38.04	0.38
350	71.4	3.8	0.28
350	104.7	5.6	0.29
350	129.8	6.86	0.29
350	152.8	8.19	0.3
350	222	12.14	0.31
350	275	15.14	0.31
350	319.9	17.93	0.32
350	395	22.4	0.33
350	455.2	26.4	0.34
350	560.7	33.51	0.36
350	777.4	50.08	0.42
350	799.2	52.12	0.43
360	45.3	2.31	0.28
360	98.2	5.11	0.29
360	137.2	7.1	0.29
360	200.1	10.49	0.3
360	231.4	12.2	0.31
360	289.8	15.49	0.32
360	334.5	18.07	0.32
360	415.3	22.84	0.34
360	477.9	26.77	0.35
360	586.1	33.71	0.37
360	670.7	39.54	0.39
360	807.9	49.64	0.42
360	915.4	58.53	0.45
360	990.4	65.14	0.48
370	71.6	3.44	0.29
370	105.5	5.15	0.29
370	120.9	6.04	0.29
370	154.8	7.64	0.3
370	176.6	8.92	0.3
370	226.2	11.41	0.31
370	256.7	13.19	0.31
370	328.5	16.95	0.32
370	370	19.53	0.33
370	471.8	25.21	0.34
370	527.2	28.67	0.35
370	666.8	37.39	0.38
370	737.9	42.35	0.4
370	920.6	55.26	0.44
370	1005.3	62.34	0.47
370	1205.2	80.41	0.53
370	1224.5	81.87	0.54
370	1277.5	87.49	0.56
370	1278.1	88.01	0.57
380	74.8	3.57	0.29
380	110.1	5.3	0.29
380	161.5	7.87	0.3
380	235.9	11.67	0.31
380	268.9	13.32	0.31
380	342.4	17.25	0.32
380	408.5	20.83	0.33
380	492.2	25.55	0.35
380	502.4	26.12	0.35
380	602.7	31.98	0.36
380	697.5	37.81	0.38
380	703.9	38.16	0.38
380	804.6	44.65	0.41
380	899.8	51.1	0.43
380	969.2	56.06	0.45
380	1019.1	59.71	0.46
380	1101.8	66.08	0.49
380	1212.9	75.17	0.52
380	1295.3	82.53	0.55
380	1299.2	82.86	0.55
380	1417.2	94.38	0.59
380	1486.5	101.79	0.62
380	1486.8	101.8	0.62
380	1499.7	103.34	0.63
380	1530.9	107.11	0.64

System: methyl pentafluoroethyl ether; phases: Liquid
Property: Mass density, kg/m3 (Liquid); method: VIBTUB:UFactor:8
Temperature, K	Pressure, kPa	Mass density, kg/m3	uncertainty
240	142.7	1425.44	1.59
240	525.8	1426.3	1.64
240	1016.6	1427.42	1.71
240	1498.9	1428.49	1.78
240	2020	1429.64	1.85
240	2495.8	1430.67	1.92
240	3020.1	1431.83	1.99
240	3526.2	1432.91	2.06
240	4022.9	1433.98	2.14
240	4516.7	1435.03	2.21
240	5006.8	1436.06	2.28
240	5507.4	1437.1	2.35
240	6031.3	1438.18	2.43
240	6522.4	1439.2	2.5
240	6991.3	1440.14	2.57
250	508.4	1401.06	1.55
250	999.4	1402.28	1.62
250	1512.6	1403.57	1.69
250	1981.4	1404.73	1.75
250	2484.2	1405.96	1.82
250	3006.1	1407.22	1.89
250	3493.4	1408.39	1.96
250	4031.6	1409.66	2.03
250	4527.8	1410.82	2.1
250	5017.1	1411.96	2.17
250	5520.4	1413.12	2.24
250	5982.1	1414.17	2.3
250	6505.2	1415.37	2.37
250	6941.8	1416.34	2.43
260	86.5	1374.31	1.42
260	500.8	1375.48	1.47
260	1002.7	1376.9	1.53
260	1516.5	1378.35	1.6
260	2001	1379.71	1.66
260	2509.7	1381.11	1.73
260	3006.5	1382.45	1.79
260	3509.7	1383.8	1.85
260	4009.1	1385.14	1.92
260	4516.6	1386.48	1.99
260	5008.9	1387.75	2.05
260	5494.8	1389	2.12
260	6029.6	1390.36	2.19
260	6497.8	1391.53	2.25
260	6976.1	1392.71	2.31
270	526.2	1348.82	1.39
270	1033.1	1350.45	1.45
270	1545.3	1352.07	1.51
270	2026.1	1353.57	1.57
270	2522.2	1355.11	1.63
270	3044.2	1356.7	1.69
270	3549.7	1358.22	1.75
270	3956.7	1359.43	1.8
270	4491.8	1360.99	1.87
270	5023.1	1362.54	1.94
270	5514.7	1363.95	2
270	6030.4	1365.42	2.06
270	6512.4	1366.76	2.12
270	6977.7	1367.99	2.18
280	445.3	1320.87	1.29
280	957.2	1322.76	1.34
280	1474.3	1324.63	1.4
280	1861.1	1326.03	1.45
280	2459.7	1328.12	1.51
280	2951.9	1329.83	1.57
280	3497.7	1331.69	1.64
280	3963.9	1333.26	1.69
280	4513.2	1335.09	1.75
280	4981.9	1336.62	1.81
280	5492.2	1338.26	1.87
280	5847.1	1339.41	1.91
280	6466.8	1341.37	1.99
280	7194.3	1343.64	2.08
290	83.3	1290.78	1.16
290	504.8	1292.57	1.2
290	981.6	1294.58	1.25
290	1520.9	1296.8	1.31
290	2011.5	1298.79	1.36
290	2520.4	1300.82	1.41
290	2991.9	1302.67	1.47
290	3491.2	1304.61	1.52
290	4006.3	1306.56	1.58
290	4525.3	1308.51	1.64
290	4985.1	1310.22	1.69
290	5527.4	1312.2	1.75
290	6024.9	1313.97	1.81
290	6484.8	1315.61	1.86
290	6967.8	1317.32	1.92
300	225.7	1260.66	1.07
300	238.5	1260.72	1.08
300	491.2	1262.72	1.1
300	953.1	1264.98	1.15
300	1060.7	1264.75	1.16
300	1531	1267.74	1.2
300	2019	1270.02	1.25
300	2031.9	1269.32	1.25
300	2496.4	1272.22	1.3
300	2993.2	1274.45	1.35
300	3055.9	1273.93	1.36
300	3514	1276.75	1.41
300	4031	1279	1.46
300	4031.8	1278.16	1.46
300	4522.9	1281.1	1.51
300	4978	1283	1.56
300	5197	1282.99	1.58
300	5491.3	1285.12	1.62
300	5997.8	1287.18	1.67
300	6173.2	1286.91	1.69
300	6524.7	1289.29	1.73
300	7023.9	1291.24	1.78
300	7126.4	1290.5	1.79
310	300.3	1229.27	0.98
310	312.6	1229.37	0.98
310	517	1231.54	1
310	1007.8	1234.36	1.05
310	1029.3	1233.39	1.05
310	1513.8	1237.16	1.09
310	2033.1	1239.99	1.14
310	2065.7	1238.99	1.14
310	2524.9	1242.6	1.19
310	3064.4	1245.4	1.24
310	3131.6	1244.48	1.24
310	3532.8	1247.78	1.29
310	3972.8	1249.95	1.33
310	4126.7	1249.38	1.34
310	4507.3	1252.57	1.38
310	5034.7	1255.08	1.44
310	5145.5	1254.18	1.44
310	5514.9	1257.34	1.49
310	6031.8	1259.71	1.54
310	6158.3	1258.81	1.54
310	6533.8	1261.96	1.59
310	7010.8	1264.09	1.64
310	7224	1263.45	1.65
320	413.8	1196.33	0.88
320	506.3	1198.36	0.89
320	1023.1	1201.87	0.94
320	1053	1200.63	0.94
320	1521.8	1205.15	0.98
320	2002.9	1208.23	1.02
320	2051.9	1207.02	1.02
320	2517.3	1211.43	1.07
320	3022.6	1214.49	1.11
320	3053.1	1213.09	1.11
320	3517.5	1217.45	1.16
320	4012.9	1220.32	1.2
320	4120.2	1219.2	1.21
320	4543.1	1223.3	1.25
320	5018.6	1225.9	1.3
320	5085.4	1224.49	1.3
320	5551.9	1228.77	1.35
320	5992.8	1231.09	1.39
320	6206.6	1230.35	1.4
320	6495.8	1233.69	1.44
320	6965.6	1236.06	1.49
320	7182.7	1235.21	1.5
330	547.4	1161.55	0.78
330	1004	1165.27	0.81
330	1009.1	1167.02	0.82
330	1493.2	1170.86	0.86
330	1999	1172.99	0.89
330	2009.1	1174.81	0.9
330	2033.5	1173.24	0.9
330	2499.3	1178.46	0.94
330	3014.1	1182.15	0.98
330	3040.4	1180.5	0.98
330	3527.6	1185.73	1.03
330	4007.5	1188.95	1.07
330	4054	1187.37	1.06
330	4522.8	1192.32	1.11
330	5044.3	1195.65	1.16
330	5095.2	1194.02	1.16
330	5526.8	1198.64	1.2
330	6004.2	1201.54	1.25
330	6121.5	1200.18	1.25
330	6544.9	1204.73	1.3
330	7006.4	1207.37	1.34
330	7184	1206.23	1.35
340	707	1124.67	0.66
340	722.8	1124.82	0.66
340	1026.7	1129.54	0.69
340	1053.7	1128.14	0.69
340	1524.7	1134.41	0.73
340	1999.2	1137.11	0.76
340	2020.3	1139.04	0.77
340	2516	1143.49	0.81
340	3002.4	1147.7	0.85
340	3017	1145.96	0.84
340	3529.7	1152.07	0.89
340	3993.9	1155.78	0.92
340	4072.4	1154.47	0.92
340	4525.8	1159.9	0.97
340	5046.6	1163.8	1.01
340	5093	1162.13	1.01
340	5487.3	1166.99	1.05
340	6030.7	1170.83	1.1
340	6115.2	1169.4	1.09
340	6527.2	1174.25	1.14
340	7001.9	1177.33	1.18
340	7160.8	1176.36	1.19
350	902.4	1084.92	0.55
350	933	1085.29	0.56
350	1008.2	1087.64	0.56
350	1049.9	1086.78	0.56
350	1470.3	1093.45	0.59
350	2013.5	1099.88	0.63
350	2056.5	1098.92	0.62
350	2517.3	1105.5	0.66
350	3024.3	1110.87	0.7
350	3061.7	1109.59	0.69
350	3474.5	1115.43	0.73
350	4005.1	1120.6	0.77
350	4100.2	1119.85	0.77
350	4481.5	1124.97	0.81
350	4979.5	1129.41	0.85
350	5116.8	1128.93	0.85
350	5469.1	1133.62	0.89
350	5973.9	1137.8	0.93
350	6125.5	1137.3	0.94
350	6531.4	1142.27	0.98
350	6996.6	1145.86	1.02
350	7196.9	1145.6	1.02
360	1139.7	1041.29	0.44
360	1228	1042.77	0.44
360	1529.8	1049.05	0.46
360	2003.3	1056.42	0.49
360	2053.3	1055.56	0.49
360	2463	1063.09	0.52
360	2984.8	1070.14	0.55
360	3048.1	1069.38	0.55
360	3506.1	1076.76	0.58
360	4021.5	1082.91	0.62
360	4078.7	1081.81	0.61
360	4467.5	1087.96	0.64
360	5021.2	1093.94	0.69
360	5093.9	1092.92	0.69
360	5527.2	1099.14	0.73
360	5980.2	1103.61	0.76
360	6147.8	1103.45	0.77
360	6519.9	1108.71	0.81
360	6997.3	1113.07	0.85
360	7245.1	1113.38	0.86
370	1404.3	992.2	0.35
370	1431.7	992.85	0.35
370	1520	995.4	0.34
370	1998.7	1006.05	0.36
370	2031.8	1006.03	0.36
370	2519.7	1016.39	0.38
370	3015.7	1025.26	0.41
370	3042	1024.99	0.41
370	3496.9	1033.2	0.44
370	4012.1	1041.13	0.47
370	4077.7	1041.14	0.47
370	4515.8	1048.28	0.5
370	5031.9	1055.14	0.53
370	5127.4	1055.31	0.53
370	5527.5	1061.36	0.56
370	5982.5	1066.79	0.59
370	6112.9	1067.19	0.59
370	6526.3	1072.95	0.63
370	6886.1	1076.82	0.65
370	7213.4	1079.13	0.67
380	1744.3	935.88	0.5
380	1763.3	936.59	0.5
380	1785	937.35	0.5
380	1807.8	938.21	0.5
380	2057.3	946.7	0.47
380	2481.3	959.56	0.44
380	2986.2	972.71	0.41
380	3036.6	973.66	0.41
380	3496.2	984.34	0.38
380	4004.9	994.7	0.35
380	4035.7	994.89	0.35
380	4514.5	1004.14	0.35
380	4998.2	1012.37	0.38
380	5093.2	1013.21	0.38
380	5510.3	1020.45	0.41
380	6032.6	1028.11	0.44
380	6103.7	1028.48	0.44
380	6514.1	1034.76	0.47
380	7011.9	1041.19	0.5
380	7127.1	1041.96	0.5
