Measured thermophysical data. Vapor-Liquid Equilibrium in a Ternary System Cyclohexane + Ethanol + Water
Source: J. Chem. Eng. Data, 2004, 10.1021/je025621h
Compound 1: ethanol, C2H6O, InChI=1S/C2H6O/c1-2-3/h3H,2H2,1H3, purity 99.8%
Compound 2: cyclohexane, C6H12, InChI=1S/C6H12/c1-2-4-6-5-3-1/h1-6H2, purity 99.9%
Compound 3: water, H2O, InChI=1S/H2O/h1H2, purity 99.99%

System: ethanol; phases: Liquid, Gas
Property: Vapor or sublimation pressure, kPa (Liquid); method: EBULLIO:UFactor:4
Temperature, K	Vapor or sublimation pressure, kPa	uncertainty
312.17	17.001	0.037
313.43	18.154	0.038
318.15	23.068	0.04
318.24	23.181	0.04
320.87	26.39	0.041
323.15	29.484	0.043
326.13	33.996	0.044
326.16	34.017	0.044
328.14	37.336	0.046
328.17	37.387	0.046
330.65	41.898	0.048
333.16	46.935	0.05
336.1	53.467	0.053
336.14	53.564	0.053
338.16	58.476	0.056
343.15	72.304	0.061
348.14	88.772	0.068
351.38	101.114	0.069
351.42	101.231	0.069

System: cyclohexane; phases: Liquid, Gas
Property: Vapor or sublimation pressure, kPa (Liquid); method: EBULLIO:UFactor:4
Temperature, K	Vapor or sublimation pressure, kPa	uncertainty
302.92	16.06	0.037
304.19	16.951	0.037
306.91	19.052	0.038
308.27	20.165	0.038
309.9	21.561	0.039
313.16	24.613	0.04
318.19	30.027	0.042
323.14	36.231	0.044
328.16	43.514	0.047
331.9	49.684	0.05
333.16	51.899	0.051
333.17	51.903	0.051
338.16	61.559	0.054
343.16	72.528	0.058
345.42	77.943	0.061
348.05	84.731	0.063

System: water; phases: Liquid, Gas
Property: Vapor or sublimation pressure, kPa (Liquid); method: EBULLIO:UFactor:4
Temperature, K	Vapor or sublimation pressure, kPa	uncertainty
327.13	15	0.036
328.16	15.752	0.037
330.78	17.846	0.037
333.15	19.937	0.038
335.82	22.53	0.039
338.15	25.021	0.04
340.67	27.981	0.042
343.16	31.206	0.043
346.13	35.419	0.044
348.14	38.552	0.046
353.14	47.359	0.05
358.14	57.789	0.053

System: ethanol + cyclohexane + water; phases: Liquid, Gas
Property: Mole fraction of cyclohexane (Liquid); method: DYNAMIC
Property: Mole fraction of cyclohexane (Gas); method: DYNAMIC
Property: Mole fraction of ethanol (Gas); method: DYNAMIC
Temperature, K	Pressure, kPa	Mole fraction of ethanol	Mole fraction of cyclohexane	uncertainty	Mole fraction of cyclohexane	uncertainty	Mole fraction of ethanol	uncertainty
323.15	36.942	0.8734	0.0152	0.002	0.2315	0.002	0.6787	
323.15	41.654	0.8603	0.0355	0.002	0.3407	0.002	0.5832	
323.15	44.7	0.8499	0.0509	0.002	0.3517	0.002	0.5846	
323.15	34.808	0.9788	0.0181	0.002	0.1515	0.002	0.8462	
323.15	34.665	0.9416	0.0146	0.002	0.1466	0.002	0.8127	
323.15	34.965	0.8667	0.0101	0.002	0.1483	0.002	0.749	
323.15	33.243	0.7714	0.0049	0.002	0.1122	0.002	0.7215	
323.15	30.797	0.6334	0.0015	0.0015	0.078	0.002	0.6777	
323.15	40.889	0.9528	0.0448	0.002	0.2686	0.002	0.7295	
323.15	41.894	0.9076	0.0409	0.002	0.2797	0.002	0.6775	
323.15	41.694	0.8162	0.0267	0.002	0.2737	0.002	0.6144	
323.15	47.245	0.7999	0.0468	0.002	0.3484	0.002	0.5423	
323.15	32.812	0.8664	0.0058	0.002	0.0969	0.002	0.7949	
323.15	38.614	0.8541	0.0212	0.002	0.2182	0.002	0.6835	
323.15	30.603	0.7364	0.0013	0.0013	0.0462	0.002	0.7512	
323.15	34.205	0.7339	0.0058	0.002	0.1262	0.002	0.6876	
333.15	53.8729	0.6403	0.005	0.002	0.1616	0.002	0.6145	
333.15	51.7211	0.6479	0.0035	0.002	0.1243	0.002	0.6442	
333.15	55.4448	0.6879	0.0071	0.002	0.1685	0.002	0.6196	
333.15	49.9132	0.7065	0.0022	0.002	0.0818	0.002	0.6995	
333.15	55.2728	0.7213	0.0072	0.002	0.1608	0.002	0.6421	
333.15	57.074	0.7157	0.0093	0.002	0.2219	0.002	0.5975	
333.15	70.9915	0.8925	0.1006	0.002	0.3919	0.002	0.6013	
333.15	73.1926	0.843	0.096	0.002	0.4159	0.002	0.5403	
333.15	76.4364	0.7654	0.0867	0.002	0.3733	0.002	0.5102	
333.15	76.6417	0.7062	0.0639	0.002	0.3099	0.002	0.5192	
333.15	54.2929	0.9506	0.0462	0.002	0.1489	0.002	0.8488	
333.15	54.4755	0.9396	0.0158	0.002	0.1362	0.002	0.8216	
333.15	54.4382	0.8663	0.0105	0.002	0.1325	0.002	0.7617	
333.15	53.3383	0.7712	0.0065	0.002	0.1186	0.002	0.7138	
333.15	62.9775	0.9508	0.0465	0.002	0.25	0.002	0.7478	
333.15	64.1467	0.9063	0.0421	0.002	0.2692	0.002	0.685	
333.15	65.06	0.8126	0.0307	0.002	0.2737	0.002	0.6144	
333.15	73.4006	0.794	0.0529	0.002	0.3061	0.002	0.573	
333.15	32.812	0.866	0.0068	0.002	0.0928	0.002	0.796	
333.15	59.8911	0.8538	0.0225	0.002	0.2129	0.002	0.6867	
333.15	49.024	0.7329	0.0018	0.0018	0.0501	0.002	0.7492	
333.15	54.6982	0.7294	0.0078	0.002	0.0887	0.002	0.7163	
343.15	72.641	0.8816	0	0.0001	0	0.0001	0.8847	
343.15	77.596	0.8828	0.006	0.002	0.0693	0.002	0.8239	
343.15	82.879	0.875	0.014	0.002	0.1494	0.002	0.7501	
343.15	89.926	0.8664	0.0262	0.002	0.2715	0.002	0.6442	
343.15	94.539	0.8508	0.0402	0.002	0.2933	0.002	0.6174	
343.15	102.162	0.8338	0.0582	0.002	0.372	0.002	0.5444	
343.15	84.321	0.7147	0.0098	0.002	0.1801	0.002	0.6313	
343.15	89.494	0.7147	0.0141	0.002	0.2468	0.002	0.5829	
343.15	82.056	0.9785	0.0176	0.002	0.1278	0.002	0.8694	
343.15	82.78	0.9383	0.0163	0.002	0.1289	0.002	0.8267	
343.15	82.32	0.8663	0.0105	0.002	0.1232	0.002	0.7702	
343.15	81.721	0.7714	0.0073	0.002	0.1145	0.002	0.7161	
343.15	76.863	0.6321	0.0025	0.002	0.0761	0.002	0.6768	
343.15	94.142	0.9493	0.0483	0.002	0.1798	0.002	0.8186	
343.15	95.261	0.9072	0.0422	0.002	0.2623	0.002	0.6915	
343.15	98.867	0.8111	0.0359	0.002	0.2768	0.002	0.6046	
343.15	79.639	0.867	0.0071	0.002	0.0875	0.002	0.7991	
343.15	88.934	0.8536	0.0216	0.002	0.1873	0.002	0.7081	
343.15	75.636	0.7343	0.0023	0.002	0.0493	0.002	0.7476	
343.15	83.118	0.7263	0.0237	0.002	0.136	0.002	0.6819	
