Measured thermophysical data. Solubilities of Some Thioxanthone Derivatives in Supercritical CO2
Source: J. Chem. Eng. Data, 2003, 10.1021/je020163y
Compound 1: thioxanthone, C13H8OS, InChI=1S/C13H8OS/c14-13-9-5-1-3-7-11(9)15-12-8-4-2-6-10(12)13/h1-8H, purity 99.5%
Compound 2: 1-hydroxythioxanthone, C13H8O2S, InChI=1S/C13H8O2S/c14-9-5-3-7-11-12(9)13(15)8-4-1-2-6-10(8)16-11/h1-7,14H, purity 99.5%
Compound 3: 1-hydroxy3-methylthioxanthone, C14H10O2S, InChI=1S/C14H10O2S/c1-8-6-10(15)13-12(7-8)17-11-5-3-2-4-9(11)14(13)16/h2-7,15H,1H3, purity 99.5%
Compound 4: 1,4-dihydroxy-3-methylthioxanthone, C14H10O3S, InChI=1S/C14H10O3S/c1-7-6-9(15)11-13(17)8-4-2-3-5-10(8)18-14(11)12(7)16/h2-6,15-16H,1H3, purity 99.5%
Compound 5: carbon dioxide, CO2, InChI=1S/CO2/c2-1-3

System: thioxanthone; phases: Crystal, Liquid, Air at 1 atmosphere
Property: Normal melting temperature, K (Crystal); method: VISOBS
Normal melting temperature, K	uncertainty
482	2

System: 1-hydroxythioxanthone; phases: Crystal, Liquid, Air at 1 atmosphere
Property: Normal melting temperature, K (Crystal); method: VISOBS
Normal melting temperature, K	uncertainty
392	1

System: 1-hydroxy3-methylthioxanthone; phases: Crystal, Liquid, Air at 1 atmosphere
Property: Normal melting temperature, K (Crystal); method: VISOBS
Normal melting temperature, K	uncertainty
422	1

System: 1,4-dihydroxy-3-methylthioxanthone; phases: Crystal, Liquid, Air at 1 atmosphere
Property: Normal melting temperature, K (Crystal); method: VISOBS
Normal melting temperature, K	uncertainty
513	4

System: carbon dioxide + thioxanthone; phases: Fluid (supercritical or subcritical phases), Crystal 1
Property: Mole fraction of thioxanthone (Fluid (supercritical or subcritical phases)); method: OTHER
Temperature, K	Pressure, kPa	Mole fraction of thioxanthone	uncertainty
308	12100	2.4e-05	4e-06
308	15200	2.8e-05	4e-06
308	18200	3e-05	5e-06
308	21200	3.7e-05	6e-06
308	24300	4.2e-05	7e-06
308	27300	4.3e-05	7e-06
308	30400	4.5e-05	8e-06
308	33400	5.4e-05	9e-06
308	35400	5.2e-05	8e-06
318	12100	1.6e-05	3e-06
318	15200	2.8e-05	4e-06
318	18200	3.9e-05	6e-06
318	21200	4.6e-05	7e-06
318	24300	5.3e-05	8e-06
318	27300	5.1e-05	9e-06
318	30400	6.5e-05	1.1e-05
318	33400	7e-05	1.1e-05
318	35400	6.8e-05	1.2e-05
328	12100	1.9e-05	3e-06
328	15200	2.9e-05	4e-06
328	18200	4.7e-05	7e-06
328	21200	6.1e-05	9e-06
328	24300	7.1e-05	1.1e-05
328	27300	8e-05	1.3e-05
328	30400	8.5e-05	1.3e-05
328	33400	9.7e-05	1.6e-05
328	35400	0.000106	1.7e-05
338	12100	0	
338	15200	2e-05	3e-06
338	18200	4.3e-05	7e-06
338	21200	6.4e-05	1e-05
338	24300	8.3e-05	1.3e-05
338	27300	9.4e-05	1.5e-05
338	30400	0.000108	1.7e-05
338	33400	0.000126	2e-05
338	35400	0.000129	2e-05
348	12100	1e-06	1e-06
348	15200	1.6e-05	3e-06
348	18200	4.3e-05	7e-06
348	21200	7.4e-05	1.1e-05
348	24300	0.000102	1.6e-05
348	27300	0.000122	1.9e-05
348	30400	0.000143	2.2e-05
348	33400	0.000158	2.5e-05
348	35400	0.000168	2.6e-05

System: carbon dioxide + 1-hydroxythioxanthone; phases: Fluid (supercritical or subcritical phases), Crystal
Property: Mole fraction of 1-hydroxythioxanthone (Fluid (supercritical or subcritical phases)); method: OTHER
Temperature, K	Pressure, kPa	Mole fraction of 1-hydroxythioxanthone	uncertainty
308	12100	9.9e-05	1.6e-05
308	15200	0.000116	1.7e-05
308	18200	0.000138	2.1e-05
308	21200	0.000164	2.5e-05
308	24300	0.000192	2.9e-05
308	27300	0.000211	3.2e-05
308	30400	0.000221	3.3e-05
308	33400	0.000238	3.6e-05
308	35400	0.000259	3.9e-05
318	12100	7.4e-05	1.2e-05
318	15200	0.000112	1.7e-05
318	18200	0.000146	2.2e-05
318	21200	0.000175	2.6e-05
318	24300	0.0002	3e-05
318	27300	0.000222	3.4e-05
318	30400	0.000245	3.7e-05
318	33400	0.000261	4e-05
318	35400	0.000275	4.2e-05
328	12100	6.1e-05	1e-05
328	15200	0.000102	1.6e-05
328	18200	0.000147	2.2e-05
328	21200	0.000186	2.8e-05
328	24300	0.000222	3.4e-05
328	27300	0.000249	3.8e-05
328	30400	0.000283	4.3e-05
328	33400	0.000311	4.8e-05
328	35400	0.000328	5e-05
338	12100	3.7e-05	6e-06
338	15200	7.2e-05	1.1e-05
338	18200	0.000132	2e-05
338	21200	0.000184	2.8e-05
338	24300	0.000235	3.5e-05
338	27300	0.00028	4.2e-05
338	30400	0.000325	4.9e-05
338	33400	0.000372	5.7e-05
338	35400	0.000388	5.9e-05
348	12100	3.3e-05	5e-06
348	15200	6.7e-05	1e-05
348	18200	0.00012	1.8e-05
348	21200	0.000182	2.7e-05
348	24300	0.000246	3.7e-05
348	27300	0.000303	4.6e-05
348	30400	0.000361	5.5e-05
348	33400	0.0004	6e-05
348	35400	0.000424	6.4e-05

System: carbon dioxide + 1-hydroxy3-methylthioxanthone; phases: Fluid (supercritical or subcritical phases), Crystal
Property: Mole fraction of 1-hydroxy3-methylthioxanthone (Fluid (supercritical or subcritical phases)); method: OTHER
Temperature, K	Pressure, kPa	Mole fraction of 1-hydroxy3-methylthioxanthone	uncertainty
308	12100	5.7e-05	9e-06
308	15200	5.6e-05	8e-06
308	18200	6.5e-05	1e-05
308	21200	7.2e-05	1.1e-05
308	24300	7.6e-05	1.3e-05
308	27300	8.3e-05	1.4e-05
308	30400	9.2e-05	1.5e-05
308	33400	0.000103	1.7e-05
308	35400	0.000104	1.8e-05
318	12100	4.5e-05	7e-06
318	15200	5.9e-05	9e-06
318	18200	7.6e-05	1.1e-05
318	21200	8.7e-05	1.3e-05
318	24300	0.000104	1.6e-05
318	27300	0.000115	1.8e-05
318	30400	0.000125	2e-05
318	33400	0.000138	2.2e-05
318	35400	0.000147	2.4e-05
328	12100	4.1e-05	6e-06
328	15200	5.2e-05	8e-06
328	18200	7.6e-05	1.1e-05
328	21200	9.6e-05	1.5e-05
328	24300	0.000114	1.8e-05
328	27300	0.00014	2.1e-05
328	30400	0.000153	2.4e-05
328	33400	0.000168	2.7e-05
328	35400	0.000193	3e-05
338	12100	3.6e-05	5e-06
338	15200	5.3e-05	8e-06
338	18200	8.1e-05	1.2e-05
338	21200	0.000111	1.7e-05
338	24300	0.00014	2.1e-05
338	27300	0.000158	2.4e-05
338	30400	0.000196	3.1e-05
338	33400	0.00022	3.5e-05
338	35400	0.000235	3.7e-05
348	12100	4.3e-05	7e-06
348	15200	4.9e-05	7e-06
348	18200	8e-05	1.2e-05
348	21200	0.000121	1.8e-05
348	24300	0.000156	2.4e-05
348	27300	0.000185	2.9e-05
348	30400	0.000242	3.7e-05
348	33400	0.000282	4.4e-05
348	35400	0.000318	5.1e-05

System: carbon dioxide + 1,4-dihydroxy-3-methylthioxanthone; phases: Fluid (supercritical or subcritical phases), Crystal
Property: Mole fraction of 1,4-dihydroxy-3-methylthioxanthone (Fluid (supercritical or subcritical phases)); method: OTHER
Temperature, K	Pressure, kPa	Mole fraction of 1,4-dihydroxy-3-methylthioxanthone	uncertainty
308	12100	3.5e-05	5e-06
308	15200	3.9e-05	7e-06
308	18200	3.8e-05	1.1e-05
308	21200	6.7e-05	1.3e-05
308	24300	7.9e-05	1.4e-05
308	27300	8.7e-05	1.6e-05
308	30400	9.4e-05	1.7e-05
308	33400	0.000112	1.8e-05
308	35400	0.00012	1.9e-05
318	12100	4.2e-05	6e-06
318	15200	5.3e-05	8e-06
318	18200	9.3e-05	1.5e-05
318	21200	0.000101	1.6e-05
318	24300	0.000119	1.9e-05
318	27300	0.000136	2.3e-05
318	30400	0.000144	2.6e-05
318	33400	0.000142	2.5e-05
318	35400	0.000155	2.8e-05
328	15200	5.7e-05	9e-06
328	18200	9.5e-05	1.4e-05
328	21200	0.00011	1.7e-05
328	24300	0.000148	2.4e-05
328	27300	0.000197	3.2e-05
328	30400	0.000233	3.9e-05
328	33400	0.000238	4e-05
328	35400	0.000274	4.6e-05
338	15200	2.8e-05	4e-06
338	18200	8.1e-05	1.3e-05
338	21200	0.000151	2.5e-05
338	24300	0.000207	3.1e-05
338	27300	0.000263	4.1e-05
338	30400	0.000308	4.7e-05
338	33400	0.000319	5e-05
338	35400	0.000367	5.7e-05
348	15200	5e-05	9e-06
348	18200	0.000123	2.1e-05
348	21200	0.000214	3.3e-05
348	24300	0.000192	2.9e-05
348	27300	0.000289	4.3e-05
348	30400	0.000329	5e-05
348	33400	0.000393	6.1e-05
348	35400	0.000431	6.6e-05
