Measured thermophysical data. Effect of Composition and Temperature upon Density, Viscosity, Surface Tension, and Refractive Index of 2,2,4-Trimethylpentane + Cyclohexane + Decane Ternary Liquid Systems
Source: J. Chem. Eng. Data, 2003, 10.1021/je020064k
Compound 1: 2,2,4-trimethylpentane, C8H18, InChI=1S/C8H18/c1-7(2)6-8(3,4)5/h7H,6H2,1-5H3
Compound 2: cyclohexane, C6H12, InChI=1S/C6H12/c1-2-4-6-5-3-1/h1-6H2
Compound 3: decane, C10H22, InChI=1S/C10H22/c1-3-5-7-9-10-8-6-4-2/h3-10H2,1-2H3

System: cyclohexane + decane + 2,2,4-trimethylpentane; phases: Liquid, Air at 1 atmosphere
Property: Surface tension liquid-gas, N/m (Liquid); method: Ring tensiometer
Temperature, K	Mole fraction of 2,2,4-trimethylpentane	Mole fraction of cyclohexane	Surface tension liquid-gas, N/m	uncertainty
293.15	0.0713	0.8682	0.0267	0.0004
293.15	0.0749	0.7981	0.0251	0.0004
293.15	0.0789	0.7205	0.0264	0.0004
293.15	0.0833	0.6341	0.0245	0.0004
293.15	0.0883	0.5375	0.0262	0.0004
293.15	0.0939	0.4286	0.0243	0.0004
293.15	0.1002	0.3051	0.0259	0.0004
293.15	0.1075	0.1636	0.0243	0.0004
293.15	0.1481	0.7891	0.024	0.0004
293.15	0.1559	0.7119	0.0257	0.0004
293.15	0.1646	0.6262	0.0241	0.0004
293.15	0.1742	0.5304	0.0256	0.0004
293.15	0.1851	0.4226	0.0239	0.0004
293.15	0.1974	0.3005	0.0254	0.0004
293.15	0.2115	0.161	0.0237	0.0004
293.15	0.2311	0.7035	0.0254	0.0004
293.15	0.2438	0.6184	0.0253	0.0004
293.15	0.2579	0.5234	0.0253	0.0004
293.15	0.2738	0.4167	0.0251	0.0004
293.15	0.2918	0.296	0.0249	0.0004
293.15	0.3123	0.1584	0.0245	0.0004
293.15	0.3211	0.6109	0.0246	0.0004
293.15	0.3395	0.5166	0.0246	0.0004
293.15	0.3601	0.411	0.0245	0.0004
293.15	0.3834	0.2917	0.0244	0.0004
293.15	0.4098	0.1559	0.0243	0.0004
293.15	0.4189	0.51	0.0236	0.0004
293.15	0.444	0.4054	0.0229	0.0004
293.15	0.4723	0.2875	0.0235	0.0004
293.15	0.5044	0.1535	0.0234	0.0004
293.15	0.5257	0.4	0.0232	0.0004
293.15	0.5587	0.2834	0.0227	0.0004
293.15	0.5961	0.1512	0.0226	0.0004
293.15	0.6427	0.2795	0.0226	0.0004
293.15	0.6851	0.149	0.0222	0.0004
293.15	0.7715	0.1468	0.0222	0.0004
303.15	0.0713	0.8682	0.0254	0.0004
303.15	0.0749	0.7981	0.0236	0.0004
303.15	0.0789	0.7205	0.0254	0.0004
303.15	0.0833	0.6341	0.0236	0.0004
303.15	0.0883	0.5375	0.025	0.0004
303.15	0.0939	0.4286	0.0236	0.0004
303.15	0.1002	0.3051	0.025	0.0004
303.15	0.1075	0.1636	0.0234	0.0004
303.15	0.1481	0.7891	0.023	0.0004
303.15	0.1559	0.7119	0.0246	0.0004
303.15	0.1646	0.6262	0.0231	0.0004
303.15	0.1742	0.5304	0.0245	0.0004
303.15	0.1851	0.4226	0.0232	0.0004
303.15	0.1974	0.3005	0.0243	0.0004
303.15	0.2115	0.161	0.0232	0.0004
303.15	0.2311	0.7035	0.0243	0.0004
303.15	0.2438	0.6184	0.0242	0.0004
303.15	0.2579	0.5234	0.024	0.0004
303.15	0.2738	0.4167	0.024	0.0004
303.15	0.2918	0.296	0.024	0.0004
303.15	0.3123	0.1584	0.0239	0.0004
303.15	0.3211	0.6109	0.0233	0.0004
303.15	0.3395	0.5166	0.0234	0.0004
303.15	0.3601	0.411	0.0232	0.0004
303.15	0.3834	0.2917	0.0233	0.0004
303.15	0.4098	0.1559	0.0232	0.0004
303.15	0.4189	0.51	0.0226	0.0004
303.15	0.444	0.4054	0.0224	0.0004
303.15	0.4723	0.2875	0.0227	0.0004
303.15	0.5044	0.1535	0.0226	0.0004
303.15	0.5257	0.4	0.0226	0.0004
303.15	0.5587	0.2834	0.0222	0.0004
303.15	0.5961	0.1512	0.0215	0.0003
303.15	0.6427	0.2795	0.0213	0.0003
303.15	0.6851	0.149	0.0215	0.0003
303.15	0.7715	0.1468	0.0211	0.0003
308.15	0.0713	0.8682	0.0248	0.0004
308.15	0.0749	0.7981	0.0231	0.0004
308.15	0.0789	0.7205	0.0248	0.0004
308.15	0.0833	0.6341	0.023	0.0004
308.15	0.0883	0.5375	0.0244	0.0004
308.15	0.0939	0.4286	0.0229	0.0004
308.15	0.1002	0.3051	0.0244	0.0004
308.15	0.1075	0.1636	0.0228	0.0004
308.15	0.1481	0.7891	0.0224	0.0004
308.15	0.1559	0.7119	0.024	0.0004
308.15	0.1646	0.6262	0.0225	0.0004
308.15	0.1742	0.5304	0.024	0.0004
308.15	0.1851	0.4226	0.0224	0.0004
308.15	0.1974	0.3005	0.0238	0.0004
308.15	0.2115	0.161	0.0223	0.0004
308.15	0.2311	0.7035	0.0237	0.0004
308.15	0.2438	0.6184	0.0237	0.0004
308.15	0.2579	0.5234	0.0235	0.0004
308.15	0.2738	0.4167	0.0236	0.0004
308.15	0.2918	0.296	0.0234	0.0004
308.15	0.3123	0.1584	0.0234	0.0004
308.15	0.3211	0.6109	0.0228	0.0004
308.15	0.3395	0.5166	0.0228	0.0004
308.15	0.3601	0.411	0.0228	0.0004
308.15	0.3834	0.2917	0.0228	0.0004
308.15	0.4098	0.1559	0.0226	0.0004
308.15	0.4189	0.51	0.0222	0.0004
308.15	0.444	0.4054	0.0221	0.0004
308.15	0.4723	0.2875	0.0222	0.0004
308.15	0.5044	0.1535	0.022	0.0004
308.15	0.5257	0.4	0.022	0.0004
308.15	0.5587	0.2834	0.0214	0.0003
308.15	0.5961	0.1512	0.0208	0.0003
308.15	0.6427	0.2795	0.021	0.0003
308.15	0.6851	0.149	0.0211	0.0003
308.15	0.7715	0.1468	0.0205	0.0003
313.15	0.0713	0.8682	0.0242	0.0004
313.15	0.0749	0.7981	0.0227	0.0004
313.15	0.0789	0.7205	0.0242	0.0004
313.15	0.0833	0.6341	0.0225	0.0004
313.15	0.0883	0.5375	0.024	0.0004
313.15	0.0939	0.4286	0.0223	0.0004
313.15	0.1002	0.3051	0.0239	0.0004
313.15	0.1075	0.1636	0.0222	0.0004
313.15	0.1481	0.7891	0.0219	0.0004
313.15	0.1559	0.7119	0.0234	0.0004
313.15	0.1646	0.6262	0.0219	0.0004
313.15	0.1742	0.5304	0.0234	0.0004
313.15	0.1851	0.4226	0.0218	0.0004
313.15	0.1974	0.3005	0.0232	0.0004
313.15	0.2115	0.161	0.0217	0.0004
313.15	0.2311	0.7035	0.0229	0.0004
313.15	0.2438	0.6184	0.023	0.0004
313.15	0.2579	0.5234	0.023	0.0004
313.15	0.2738	0.4167	0.0231	0.0004
313.15	0.2918	0.296	0.0229	0.0004
313.15	0.3123	0.1584	0.0228	0.0004
313.15	0.3211	0.6109	0.0223	0.0004
313.15	0.3395	0.5166	0.0223	0.0004
313.15	0.3601	0.411	0.0222	0.0004
313.15	0.3834	0.2917	0.0221	0.0004
313.15	0.4098	0.1559	0.0221	0.0004
313.15	0.4189	0.51	0.0216	0.0004
313.15	0.444	0.4054	0.0215	0.0003
313.15	0.4723	0.2875	0.0215	0.0003
313.15	0.5044	0.1535	0.0214	0.0003
313.15	0.5257	0.4	0.0215	0.0003
313.15	0.5587	0.2834	0.0208	0.0003
313.15	0.5961	0.1512	0.0204	0.0003
313.15	0.6427	0.2795	0.0207	0.0003
313.15	0.6851	0.149	0.0204	0.0003
313.15	0.7715	0.1468	0.0202	0.0003
318.15	0.0713	0.8682	0.0235	0.0004
318.15	0.0749	0.7981	0.0218	0.0004
318.15	0.0789	0.7205	0.0237	0.0004
318.15	0.0833	0.6341	0.0218	0.0004
318.15	0.0883	0.5375	0.0234	0.0004
318.15	0.0939	0.4286	0.0218	0.0004
318.15	0.1002	0.3051	0.0234	0.0004
318.15	0.1075	0.1636	0.0217	0.0004
318.15	0.1481	0.7891	0.0212	0.0003
318.15	0.1559	0.7119	0.0229	0.0004
318.15	0.1646	0.6262	0.0214	0.0003
318.15	0.1742	0.5304	0.0229	0.0004
318.15	0.1851	0.4226	0.0213	0.0003
318.15	0.1974	0.3005	0.0226	0.0004
318.15	0.2115	0.161	0.0212	0.0003
318.15	0.2311	0.7035	0.0224	0.0004
318.15	0.2438	0.6184	0.0224	0.0004
318.15	0.2579	0.5234	0.0224	0.0004
318.15	0.2738	0.4167	0.0225	0.0004
318.15	0.2918	0.296	0.0223	0.0004
318.15	0.3123	0.1584	0.0224	0.0004
318.15	0.3211	0.6109	0.0216	0.0004
318.15	0.3395	0.5166	0.0217	0.0004
318.15	0.3601	0.411	0.0217	0.0004
318.15	0.3834	0.2917	0.0218	0.0004
318.15	0.4098	0.1559	0.0218	0.0004
318.15	0.4189	0.51	0.0212	0.0003
318.15	0.444	0.4054	0.021	0.0003
318.15	0.4723	0.2875	0.021	0.0003
318.15	0.5044	0.1535	0.021	0.0003
318.15	0.5257	0.4	0.0208	0.0003
318.15	0.5587	0.2834	0.0205	0.0003
318.15	0.5961	0.1512	0.0201	0.0003
318.15	0.6427	0.2795	0.0204	0.0003
318.15	0.6851	0.149	0.02	0.0003
318.15	0.7715	0.1468	0.0196	0.0003
323.15	0.0713	0.8682	0.0229	0.0004
323.15	0.0749	0.7981	0.0214	0.0003
323.15	0.0789	0.7205	0.0231	0.0004
323.15	0.0833	0.6341	0.0214	0.0003
323.15	0.0883	0.5375	0.0228	0.0004
323.15	0.0939	0.4286	0.0213	0.0003
323.15	0.1002	0.3051	0.0229	0.0004
323.15	0.1075	0.1636	0.0212	0.0003
323.15	0.1481	0.7891	0.0206	0.0003
323.15	0.1559	0.7119	0.0223	0.0004
323.15	0.1646	0.6262	0.0209	0.0003
323.15	0.1742	0.5304	0.0224	0.0004
323.15	0.1851	0.4226	0.0209	0.0003
323.15	0.1974	0.3005	0.0221	0.0004
323.15	0.2115	0.161	0.0208	0.0003
323.15	0.2311	0.7035	0.0218	0.0004
323.15	0.2438	0.6184	0.0218	0.0004
323.15	0.2579	0.5234	0.0219	0.0004
323.15	0.2738	0.4167	0.0221	0.0004
323.15	0.2918	0.296	0.0219	0.0004
323.15	0.3123	0.1584	0.0219	0.0004
323.15	0.3211	0.6109	0.0212	0.0003
323.15	0.3395	0.5166	0.0213	0.0003
323.15	0.3601	0.411	0.0211	0.0003
323.15	0.3834	0.2917	0.0212	0.0003
323.15	0.4098	0.1559	0.0211	0.0003
323.15	0.4189	0.51	0.0209	0.0003
323.15	0.444	0.4054	0.0206	0.0003
323.15	0.4723	0.2875	0.0206	0.0003
323.15	0.5044	0.1535	0.0206	0.0003
323.15	0.5257	0.4	0.0203	0.0003
323.15	0.5587	0.2834	0.0199	0.0003
323.15	0.5961	0.1512	0.0195	0.0003
323.15	0.6427	0.2795	0.0197	0.0003
323.15	0.6851	0.149	0.0195	0.0003
323.15	0.7715	0.1468	0.0193	0.0003

System: cyclohexane + decane + 2,2,4-trimethylpentane; phases: Liquid
Fixed: Pressure, kPa = 101.3
Property: Viscosity, Pa*s (Liquid); method: Capillary tube (Ostwald; Ubbelohde) method
Temperature, K	Mole fraction of 2,2,4-trimethylpentane	Mole fraction of cyclohexane	Viscosity, Pa*s	uncertainty
293.15	0.0713	0.8682	0.0008892	8.5e-06
293.15	0.0749	0.7981	0.0008375	8.2e-06
293.15	0.0789	0.7205	0.0008853	8.5e-06
293.15	0.0833	0.6341	0.0008876	8.5e-06
293.15	0.0883	0.5375	0.0008489	8.2e-06
293.15	0.0939	0.4286	0.0008387	8.1e-06
293.15	0.1002	0.3051	0.0008367	8.1e-06
293.15	0.1075	0.1636	0.0008352	8.1e-06
293.15	0.1481	0.7891	0.0007868	7.7e-06
293.15	0.1559	0.7119	0.0008576	8.2e-06
293.15	0.1646	0.6262	0.0007825	7.7e-06
293.15	0.1742	0.5304	0.00083	8e-06
293.15	0.1851	0.4226	0.0007745	7.6e-06
293.15	0.1974	0.3005	0.0007832	7.6e-06
293.15	0.2115	0.161	0.0008305	8e-06
293.15	0.2311	0.7035	0.000729	7.2e-06
293.15	0.2438	0.6184	0.0007745	7.5e-06
293.15	0.2579	0.5234	0.0007742	7.5e-06
293.15	0.2738	0.4167	0.0007635	7.4e-06
293.15	0.2918	0.296	0.0007629	7.4e-06
293.15	0.3123	0.1584	0.0007245	7.1e-06
293.15	0.3211	0.6109	0.0007425	7.3e-06
293.15	0.3395	0.5166	0.0006932	6.9e-06
293.15	0.3601	0.411	0.0007001	6.9e-06
293.15	0.3834	0.2917	0.0007137	7e-06
293.15	0.4098	0.1559	0.0006838	6.8e-06
293.15	0.4189	0.51	0.0006767	6.7e-06
293.15	0.444	0.4054	0.0006615	6.6e-06
293.15	0.4723	0.2875	0.0006841	6.8e-06
293.15	0.5044	0.1535	0.0006354	6.4e-06
293.15	0.5257	0.4	0.0006253	6.3e-06
293.15	0.5587	0.2834	0.0006232	6.3e-06
293.15	0.5961	0.1512	0.0006338	6.3e-06
293.15	0.6427	0.2795	0.0006204	6.2e-06
293.15	0.6851	0.149	0.0005952	6e-06
293.15	0.7715	0.1468	0.0005683	5.8e-06
303.15	0.0713	0.8682	0.0007768	7.6e-06
303.15	0.0749	0.7981	0.0007197	7.1e-06
303.15	0.0789	0.7205	0.0007432	7.3e-06
303.15	0.0833	0.6341	0.0007759	7.6e-06
303.15	0.0883	0.5375	0.0007321	7.2e-06
303.15	0.0939	0.4286	0.0007298	7.2e-06
303.15	0.1002	0.3051	0.0007256	7.1e-06
303.15	0.1075	0.1636	0.0007206	7.1e-06
303.15	0.1481	0.7891	0.0006762	6.7e-06
303.15	0.1559	0.7119	0.0007423	7.3e-06
303.15	0.1646	0.6262	0.0006701	6.7e-06
303.15	0.1742	0.5304	0.0007089	7e-06
303.15	0.1851	0.4226	0.0006862	6.8e-06
303.15	0.1974	0.3005	0.000682	6.8e-06
303.15	0.2115	0.161	0.0007058	7e-06
303.15	0.2311	0.7035	0.0006407	6.4e-06
303.15	0.2438	0.6184	0.0006687	6.7e-06
303.15	0.2579	0.5234	0.0006812	6.8e-06
303.15	0.2738	0.4167	0.0006687	6.7e-06
303.15	0.2918	0.296	0.0006663	6.6e-06
303.15	0.3123	0.1584	0.000631	6.3e-06
303.15	0.3211	0.6109	0.0006345	6.4e-06
303.15	0.3395	0.5166	0.0006227	6.2e-06
303.15	0.3601	0.411	0.0006142	6.2e-06
303.15	0.3834	0.2917	0.0006286	6.3e-06
303.15	0.4098	0.1559	0.0005893	6e-06
303.15	0.4189	0.51	0.0005796	5.9e-06
303.15	0.444	0.4054	0.000575	5.8e-06
303.15	0.4723	0.2875	0.0005989	6e-06
303.15	0.5044	0.1535	0.0005595	5.7e-06
303.15	0.5257	0.4	0.0005485	5.6e-06
303.15	0.5587	0.2834	0.0005496	5.6e-06
303.15	0.5961	0.1512	0.0005672	5.8e-06
303.15	0.6427	0.2795	0.000549	5.6e-06
303.15	0.6851	0.149	0.0005302	5.4e-06
303.15	0.7715	0.1468	0.0005071	5.2e-06
308.15	0.0713	0.8682	0.0007132	7.1e-06
308.15	0.0749	0.7981	0.000669	6.6e-06
308.15	0.0789	0.7205	0.0007021	6.9e-06
308.15	0.0833	0.6341	0.0007203	7.1e-06
308.15	0.0883	0.5375	0.0006897	6.8e-06
308.15	0.0939	0.4286	0.0006825	6.8e-06
308.15	0.1002	0.3051	0.0006815	6.7e-06
308.15	0.1075	0.1636	0.00068	6.7e-06
308.15	0.1481	0.7891	0.0006282	6.3e-06
308.15	0.1559	0.7119	0.0006875	6.8e-06
308.15	0.1646	0.6262	0.0006258	6.3e-06
308.15	0.1742	0.5304	0.0006697	6.6e-06
308.15	0.1851	0.4226	0.0006401	6.4e-06
308.15	0.1974	0.3005	0.0006456	6.4e-06
308.15	0.2115	0.161	0.0006722	6.6e-06
308.15	0.2311	0.7035	0.000594	6e-06
308.15	0.2438	0.6184	0.0006203	6.2e-06
308.15	0.2579	0.5234	0.000626	6.3e-06
308.15	0.2738	0.4167	0.0006158	6.2e-06
308.15	0.2918	0.296	0.0006216	6.2e-06
308.15	0.3123	0.1584	0.0005987	6e-06
308.15	0.3211	0.6109	0.0006078	6.1e-06
308.15	0.3395	0.5166	0.0005836	5.9e-06
308.15	0.3601	0.411	0.0005864	5.9e-06
308.15	0.3834	0.2917	0.000591	6e-06
308.15	0.4098	0.1559	0.0005689	5.8e-06
308.15	0.4189	0.51	0.000541	5.5e-06
308.15	0.444	0.4054	0.0005623	5.7e-06
308.15	0.4723	0.2875	0.0005678	5.8e-06
308.15	0.5044	0.1535	0.0005325	5.4e-06
308.15	0.5257	0.4	0.0005166	5.3e-06
308.15	0.5587	0.2834	0.0005192	5.3e-06
308.15	0.5961	0.1512	0.0005372	5.5e-06
308.15	0.6427	0.2795	0.0005001	5.2e-06
308.15	0.6851	0.149	0.0004984	5.2e-06
308.15	0.7715	0.1468	0.0004751	5e-06
313.15	0.0713	0.8682	0.0006432	6.5e-06
313.15	0.0749	0.7981	0.0006297	6.3e-06
313.15	0.0789	0.7205	0.000652	6.5e-06
313.15	0.0833	0.6341	0.0006514	6.5e-06
313.15	0.0883	0.5375	0.0006456	6.4e-06
313.15	0.0939	0.4286	0.0006412	6.4e-06
313.15	0.1002	0.3051	0.00064	6.4e-06
313.15	0.1075	0.1636	0.0006387	6.4e-06
313.15	0.1481	0.7891	0.0005868	5.9e-06
313.15	0.1559	0.7119	0.0006421	6.4e-06
313.15	0.1646	0.6262	0.0005838	5.9e-06
313.15	0.1742	0.5304	0.00063	6.3e-06
313.15	0.1851	0.4226	0.0005996	6e-06
313.15	0.1974	0.3005	0.0006024	6.1e-06
313.15	0.2115	0.161	0.0006308	6.3e-06
313.15	0.2311	0.7035	0.0005568	5.7e-06
313.15	0.2438	0.6184	0.0005745	5.8e-06
313.15	0.2579	0.5234	0.0005891	5.9e-06
313.15	0.2738	0.4167	0.0005816	5.9e-06
313.15	0.2918	0.296	0.0005909	5.9e-06
313.15	0.3123	0.1584	0.0005612	5.7e-06
313.15	0.3211	0.6109	0.0005625	5.7e-06
313.15	0.3395	0.5166	0.0005491	5.6e-06
313.15	0.3601	0.411	0.0005482	5.6e-06
313.15	0.3834	0.2917	0.0005526	5.6e-06
313.15	0.4098	0.1559	0.0005324	5.4e-06
313.15	0.4189	0.51	0.000508	5.2e-06
313.15	0.444	0.4054	0.0005156	5.3e-06
313.15	0.4723	0.2875	0.0005321	5.5e-06
313.15	0.5044	0.1535	0.000509	5.2e-06
313.15	0.5257	0.4	0.0004813	5e-06
313.15	0.5587	0.2834	0.0004882	5.1e-06
313.15	0.5961	0.1512	0.0005097	5.3e-06
313.15	0.6427	0.2795	0.0004699	4.9e-06
313.15	0.6851	0.149	0.0004699	4.9e-06
313.15	0.7715	0.1468	0.0004532	4.8e-06
318.15	0.0713	0.8682	0.000601	6e-06
318.15	0.0749	0.7981	0.0005874	5.9e-06
318.15	0.0789	0.7205	0.000603	6.1e-06
318.15	0.0833	0.6341	0.0005987	6e-06
318.15	0.0883	0.5375	0.000603	6.1e-06
318.15	0.0939	0.4286	0.000602	6.1e-06
318.15	0.1002	0.3051	0.0006015	6.1e-06
318.15	0.1075	0.1636	0.000601	6e-06
318.15	0.1481	0.7891	0.0005547	5.7e-06
318.15	0.1559	0.7119	0.0005978	6e-06
318.15	0.1646	0.6262	0.000553	5.6e-06
318.15	0.1742	0.5304	0.0005824	5.9e-06
318.15	0.1851	0.4226	0.0005696	5.8e-06
318.15	0.1974	0.3005	0.0005621	5.7e-06
318.15	0.2115	0.161	0.0005995	6e-06
318.15	0.2311	0.7035	0.0005245	5.4e-06
318.15	0.2438	0.6184	0.0005389	5.5e-06
318.15	0.2579	0.5234	0.0005656	5.7e-06
318.15	0.2738	0.4167	0.0005488	5.6e-06
318.15	0.2918	0.296	0.0005595	5.7e-06
318.15	0.3123	0.1584	0.0005297	5.4e-06
318.15	0.3211	0.6109	0.0005314	5.4e-06
318.15	0.3395	0.5166	0.0005182	5.3e-06
318.15	0.3601	0.411	0.0005123	5.3e-06
318.15	0.3834	0.2917	0.0005231	5.4e-06
318.15	0.4098	0.1559	0.0005104	5.3e-06
318.15	0.4189	0.51	0.0004806	5e-06
318.15	0.444	0.4054	0.0005	5.2e-06
318.15	0.4723	0.2875	0.0005044	5.2e-06
318.15	0.5044	0.1535	0.0004885	5.1e-06
318.15	0.5257	0.4	0.0004596	4.8e-06
318.15	0.5587	0.2834	0.0004679	4.9e-06
318.15	0.5961	0.1512	0.000478	5e-06
318.15	0.6427	0.2795	0.0004474	4.7e-06
318.15	0.6851	0.149	0.0004459	4.7e-06
318.15	0.7715	0.1468	0.0004287	4.6e-06
323.15	0.0713	0.8682	0.000567	5.8e-06
323.15	0.0749	0.7981	0.0005504	5.6e-06
323.15	0.0789	0.7205	0.0005645	5.8e-06
323.15	0.0833	0.6341	0.0005635	5.7e-06
323.15	0.0883	0.5375	0.0005625	5.7e-06
323.15	0.0939	0.4286	0.000561	5.7e-06
323.15	0.1002	0.3051	0.0005611	5.7e-06
323.15	0.1075	0.1636	0.0005612	5.7e-06
323.15	0.1481	0.7891	0.000514	5.3e-06
323.15	0.1559	0.7119	0.0005602	5.8e-06
323.15	0.1646	0.6262	0.0005127	5.3e-06
323.15	0.1742	0.5304	0.0005512	5.7e-06
323.15	0.1851	0.4226	0.0005259	5.4e-06
323.15	0.1974	0.3005	0.0005351	5.5e-06
323.15	0.2115	0.161	0.0005615	5.8e-06
323.15	0.2311	0.7035	0.0004988	5.2e-06
323.15	0.2438	0.6184	0.0005226	5.4e-06
323.15	0.2579	0.5234	0.0005228	5.4e-06
323.15	0.2738	0.4167	0.0005216	5.4e-06
323.15	0.2918	0.296	0.0005195	5.4e-06
323.15	0.3123	0.1584	0.0005	5.2e-06
323.15	0.3211	0.6109	0.0005104	5.2e-06
323.15	0.3395	0.5166	0.0004923	5.1e-06
323.15	0.3601	0.411	0.0004906	5.1e-06
323.15	0.3834	0.2917	0.0004941	5.1e-06
323.15	0.4098	0.1559	0.0004803	5e-06
323.15	0.4189	0.51	0.0004533	4.8e-06
323.15	0.444	0.4054	0.000456	4.8e-06
323.15	0.4723	0.2875	0.0004737	5e-06
323.15	0.5044	0.1535	0.0004545	4.8e-06
323.15	0.5257	0.4	0.000431	4.6e-06
323.15	0.5587	0.2834	0.0004368	4.6e-06
323.15	0.5961	0.1512	0.0004549	4.8e-06
323.15	0.6427	0.2795	0.0004296	4.6e-06
323.15	0.6851	0.149	0.0004225	4.5e-06
323.15	0.7715	0.1468	0.0003995	4.3e-06

System: cyclohexane + decane + 2,2,4-trimethylpentane; phases: Liquid
Fixed: Pressure, kPa = 101.3
Property: Refractive index (Na D-line) (Liquid); method: Standard Abbe refractometry
Temperature, K	Mole fraction of 2,2,4-trimethylpentane	Mole fraction of cyclohexane	Refractive index (Na D-line)	uncertainty
293.15	0.0713	0.8682	1.4239	0.00038
293.15	0.0749	0.7981	1.41962	0.00038
293.15	0.0789	0.7205	1.4195	0.00037
293.15	0.0833	0.6341	1.41618	0.00037
293.15	0.0883	0.5375	1.41122	0.00037
293.15	0.0939	0.4286	1.4146	0.00037
293.15	0.1002	0.3051	1.4113	0.00037
293.15	0.1075	0.1636	1.4125	0.00042
293.15	0.1481	0.7891	1.4155	0.00037
293.15	0.1559	0.7119	1.4154	0.00037
293.15	0.1646	0.6262	1.417	0.00037
293.15	0.1742	0.5304	1.41336	0.00037
293.15	0.1851	0.4226	1.4125	0.00037
293.15	0.1974	0.3005	1.4096	0.00037
293.15	0.2115	0.161	1.40946	0.00037
293.15	0.2311	0.7035	1.41394	0.00037
293.15	0.2438	0.6184	1.41244	0.00037
293.15	0.2579	0.5234	1.41081	0.00037
293.15	0.2738	0.4167	1.40947	0.00037
293.15	0.2918	0.296	1.40818	0.00037
293.15	0.3123	0.1584	1.40726	0.00037
293.15	0.3211	0.6109	1.41111	0.00037
293.15	0.3395	0.5166	1.4095	0.00037
293.15	0.3601	0.411	1.40804	0.00037
293.15	0.3834	0.2917	1.4068	0.00037
293.15	0.4098	0.1559	1.40549	0.00037
293.15	0.4189	0.51	1.4061	0.00037
293.15	0.444	0.4054	1.4044	0.00037
293.15	0.4723	0.2875	1.4035	0.00037
293.15	0.5044	0.1535	1.40222	0.00037
293.15	0.5257	0.4	1.40279	0.00037
293.15	0.5587	0.2834	1.40158	0.00037
293.15	0.5961	0.1512	1.39908	0.00037
293.15	0.6427	0.2795	1.40017	0.00037
293.15	0.6851	0.149	1.39799	0.00037
293.15	0.7715	0.1468	1.39685	0.00037
303.15	0.0713	0.8682	1.41503	0.00038
303.15	0.0749	0.7981	1.41423	0.00037
303.15	0.0789	0.7205	1.41308	0.00037
303.15	0.0833	0.6341	1.41053	0.00037
303.15	0.0883	0.5375	1.40743	0.00037
303.15	0.0939	0.4286	1.4074	0.00037
303.15	0.1002	0.3051	1.40727	0.00037
303.15	0.1075	0.1636	1.39195	0.0004
303.15	0.1481	0.7891	1.41103	0.00037
303.15	0.1559	0.7119	1.41008	0.00037
303.15	0.1646	0.6262	1.40954	0.00038
303.15	0.1742	0.5304	1.40737	0.00037
303.15	0.1851	0.4226	1.40621	0.00037
303.15	0.1974	0.3005	1.40546	0.00037
303.15	0.2115	0.161	1.40442	0.00037
303.15	0.2311	0.7035	1.40882	0.00037
303.15	0.2438	0.6184	1.40719	0.00037
303.15	0.2579	0.5234	1.40579	0.00037
303.15	0.2738	0.4167	1.40457	0.00037
303.15	0.2918	0.296	1.40353	0.00037
303.15	0.3123	0.1584	1.40267	0.00037
303.15	0.3211	0.6109	1.40577	0.00037
303.15	0.3395	0.5166	1.4043	0.00037
303.15	0.3601	0.411	1.40304	0.00037
303.15	0.3834	0.2917	1.40198	0.00037
303.15	0.4098	0.1559	1.40082	0.00037
303.15	0.4189	0.51	1.40199	0.00037
303.15	0.444	0.4054	1.4005	0.00037
303.15	0.4723	0.2875	1.39968	0.00037
303.15	0.5044	0.1535	1.39855	0.00037
303.15	0.5257	0.4	1.39747	0.00037
303.15	0.5587	0.2834	1.39739	0.00037
303.15	0.5961	0.1512	1.39533	0.00037
303.15	0.6427	0.2795	1.39518	0.00037
303.15	0.6851	0.149	1.3953	0.00037
303.15	0.7715	0.1468	1.39195	0.00037
308.15	0.0713	0.8682	1.41152	0.00038
308.15	0.0749	0.7981	1.41062	0.00037
308.15	0.0789	0.7205	1.41045	0.00037
308.15	0.0833	0.6341	1.40875	0.00037
308.15	0.0883	0.5375	1.40505	0.00037
308.15	0.0939	0.4286	1.4048	0.00037
308.15	0.1002	0.3051	1.40488	0.00037
308.15	0.1075	0.1636	1.38944	0.00038
308.15	0.1481	0.7891	1.4105	0.00037
308.15	0.1559	0.7119	1.40734	0.00037
308.15	0.1646	0.6262	1.40675	0.00037
308.15	0.1742	0.5304	1.40475	0.00037
308.15	0.1851	0.4226	1.40378	0.00037
308.15	0.1974	0.3005	1.40307	0.00037
308.15	0.2115	0.161	1.40275	0.00037
308.15	0.2311	0.7035	1.40606	0.00037
308.15	0.2438	0.6184	1.40469	0.00037
308.15	0.2579	0.5234	1.40309	0.00037
308.15	0.2738	0.4167	1.40215	0.00037
308.15	0.2918	0.296	1.40111	0.00037
308.15	0.3123	0.1584	1.40027	0.00037
308.15	0.3211	0.6109	1.40274	0.00037
308.15	0.3395	0.5166	1.40158	0.00037
308.15	0.3601	0.411	1.40056	0.00037
308.15	0.3834	0.2917	1.39957	0.00037
308.15	0.4098	0.1559	1.3985	0.00037
308.15	0.4189	0.51	1.4	0.00037
308.15	0.444	0.4054	1.39846	0.00037
308.15	0.4723	0.2875	1.39774	0.00037
308.15	0.5044	0.1535	1.39672	0.00037
308.15	0.5257	0.4	1.39444	0.00037
308.15	0.5587	0.2834	1.39531	0.00037
308.15	0.5961	0.1512	1.39336	0.00037
308.15	0.6427	0.2795	1.39246	0.00037
308.15	0.6851	0.149	1.39377	0.00037
308.15	0.7715	0.1468	1.38944	0.00037
313.15	0.0713	0.8682	1.40785	0.00037
313.15	0.0749	0.7981	1.40802	0.00037
313.15	0.0789	0.7205	1.40732	0.00037
313.15	0.0833	0.6341	1.40452	0.00037
313.15	0.0883	0.5375	1.40275	0.00037
313.15	0.0939	0.4286	1.402	0.00037
313.15	0.1002	0.3051	1.40254	0.00037
313.15	0.1075	0.1636	1.40112	0.00038
313.15	0.1481	0.7891	1.40623	0.00037
313.15	0.1559	0.7119	1.4045	0.00037
313.15	0.1646	0.6262	1.40321	0.00037
313.15	0.1742	0.5304	1.40227	0.00037
313.15	0.1851	0.4226	1.40122	0.00037
313.15	0.1974	0.3005	1.40072	0.00037
313.15	0.2115	0.161	1.39956	0.00037
313.15	0.2311	0.7035	1.40301	0.00038
313.15	0.2438	0.6184	1.40164	0.00037
313.15	0.2579	0.5234	1.40079	0.00037
313.15	0.2738	0.4167	1.39965	0.00037
313.15	0.2918	0.296	1.39873	0.00037
313.15	0.3123	0.1584	1.3981	0.00037
313.15	0.3211	0.6109	1.40006	0.00037
313.15	0.3395	0.5166	1.39906	0.00037
313.15	0.3601	0.411	1.39798	0.00037
313.15	0.3834	0.2917	1.39718	0.00037
313.15	0.4098	0.1559	1.39618	0.00037
313.15	0.4189	0.51	1.39781	0.00037
313.15	0.444	0.4054	1.39642	0.0004
313.15	0.4723	0.2875	1.3958	0.00037
313.15	0.5044	0.1535	1.39496	0.00037
313.15	0.5257	0.4	1.39185	0.00037
313.15	0.5587	0.2834	1.3933	0.00037
313.15	0.5961	0.1512	1.39191	0.00037
313.15	0.6427	0.2795	1.3888	0.00037
313.15	0.6851	0.149	1.39039	0.00037
313.15	0.7715	0.1468	1.3868	0.00037
318.15	0.0713	0.8682	1.40666	0.00037
318.15	0.0749	0.7981	1.40612	0.00037
318.15	0.0789	0.7205	1.40488	0.00037
318.15	0.0833	0.6341	1.40256	0.00037
318.15	0.0883	0.5375	1.40033	0.00037
318.15	0.0939	0.4286	1.3991	0.00037
318.15	0.1002	0.3051	1.40017	0.00037
318.15	0.1075	0.1636	1.39795	0.00037
318.15	0.1481	0.7891	1.40452	0.00037
318.15	0.1559	0.7119	1.40172	0.00037
318.15	0.1646	0.6262	1.40095	0.00037
318.15	0.1742	0.5304	1.39972	0.00037
318.15	0.1851	0.4226	1.39826	0.00037
318.15	0.1974	0.3005	1.39834	0.00037
318.15	0.2115	0.161	1.39746	0.00037
318.15	0.2311	0.7035	1.39913	0.00037
318.15	0.2438	0.6184	1.39886	0.00037
318.15	0.2579	0.5234	1.39758	0.00037
318.15	0.2738	0.4167	1.39709	0.00037
318.15	0.2918	0.296	1.39636	0.00037
318.15	0.3123	0.1584	1.39582	0.00037
318.15	0.3211	0.6109	1.39716	0.00037
318.15	0.3395	0.5166	1.3964	0.00037
318.15	0.3601	0.411	1.39551	0.00037
318.15	0.3834	0.2917	1.39474	0.00037
318.15	0.4098	0.1559	1.39386	0.00037
318.15	0.4189	0.51	1.3953	0.00038
318.15	0.444	0.4054	1.38435	0.00037
318.15	0.4723	0.2875	1.39383	0.00037
318.15	0.5044	0.1535	1.39305	0.00037
318.15	0.5257	0.4	1.39252	0.00037
318.15	0.5587	0.2834	1.39147	0.00037
318.15	0.5961	0.1512	1.38944	0.00037
318.15	0.6427	0.2795	1.38669	0.00037
318.15	0.6851	0.149	1.38865	0.00037
318.15	0.7715	0.1468	1.38443	0.00037
323.15	0.0713	0.8682	1.40358	0.00037
323.15	0.0749	0.7981	1.40221	0.00038
323.15	0.0789	0.7205	1.40229	0.00038
323.15	0.0833	0.6341	1.3995	0.00037
323.15	0.0883	0.5375	1.39798	0.00037
323.15	0.0939	0.4286	1.39702	0.00037
323.15	0.1002	0.3051	1.39778	0.00038
323.15	0.1075	0.1636	1.39485	0.00037
323.15	0.1481	0.7891	1.40213	0.00037
323.15	0.1559	0.7119	1.39871	0.00037
323.15	0.1646	0.6262	1.3981	0.00037
323.15	0.1742	0.5304	1.39721	0.00037
323.15	0.1851	0.4226	1.39575	0.00037
323.15	0.1974	0.3005	1.39617	0.00037
323.15	0.2115	0.161	1.39531	0.00037
323.15	0.2311	0.7035	1.39656	0.00037
323.15	0.2438	0.6184	1.39616	0.00037
323.15	0.2579	0.5234	1.39499	0.00037
323.15	0.2738	0.4167	1.39454	0.00037
323.15	0.2918	0.296	1.39417	0.00037
323.15	0.3123	0.1584	1.39351	0.00037
323.15	0.3211	0.6109	1.39347	0.00038
323.15	0.3395	0.5166	1.39254	0.00037
323.15	0.3601	0.411	1.39295	0.00037
323.15	0.3834	0.2917	1.39233	0.00037
323.15	0.4098	0.1559	1.39148	0.00037
323.15	0.4189	0.51	1.39342	0.00037
323.15	0.444	0.4054	1.39222	0.0004
323.15	0.4723	0.2875	1.3918	0.00037
323.15	0.5044	0.1535	1.39117	0.00037
323.15	0.5257	0.4	1.3903	0.00037
323.15	0.5587	0.2834	1.39109	0.00037
323.15	0.5961	0.1512	1.38796	0.00037
323.15	0.6427	0.2795	1.38468	0.00037
323.15	0.6851	0.149	1.38649	0.00037
323.15	0.7715	0.1468	1.38223	0.00037

System: cyclohexane + decane + 2,2,4-trimethylpentane; phases: Liquid
Fixed: Pressure, kPa = 101.3
Property: Mass density, kg/m3 (Liquid); method: Pycnometric method
Temperature, K	Mole fraction of 2,2,4-trimethylpentane	Mole fraction of cyclohexane	Mass density, kg/m3	uncertainty
293.15	0.0713	0.8682	728.6	0.4
293.15	0.0749	0.7981	737.2	0.4
293.15	0.0789	0.7205	751	0.4
293.15	0.0833	0.6341	756.2	0.4
293.15	0.0883	0.5375	744	0.5
293.15	0.0939	0.4286	742.7	0.4
293.15	0.1002	0.3051	734.5	0.4
293.15	0.1075	0.1636	728.4	0.4
293.15	0.1481	0.7891	744.5	0.4
293.15	0.1559	0.7119	749.5	0.4
293.15	0.1646	0.6262	724	0.5
293.15	0.1742	0.5304	741.5	0.4
293.15	0.1851	0.4226	721	0.5
293.15	0.1974	0.3005	730	0.4
293.15	0.2115	0.161	725.5	0.4
293.15	0.2311	0.7035	750.1	0.4
293.15	0.2438	0.6184	733.3	0.4
293.15	0.2579	0.5234	735.6	0.4
293.15	0.2738	0.4167	739.8	0.4
293.15	0.2918	0.296	727.2	0.4
293.15	0.3123	0.1584	712.2	0.5
293.15	0.3211	0.6109	736	0.4
293.15	0.3395	0.5166	730	0.4
293.15	0.3601	0.411	743.9	0.4
293.15	0.3834	0.2917	722.3	0.4
293.15	0.4098	0.1559	722.7	0.4
293.15	0.4189	0.51	716.5	0.4
293.15	0.444	0.4054	736.4	0.4
293.15	0.4723	0.2875	720.5	0.4
293.15	0.5044	0.1535	714.9	0.4
293.15	0.5257	0.4	715.6	0.4
293.15	0.5587	0.2834	709.9	0.4
293.15	0.5961	0.1512	712.5	0.4
293.15	0.6427	0.2795	706.8	0.4
293.15	0.6851	0.149	712.7	0.4
293.15	0.7715	0.1468	701.9	0.4
303.15	0.0713	0.8682	720.7	0.4
303.15	0.0749	0.7981	729.3	0.4
303.15	0.0789	0.7205	743.2	0.4
303.15	0.0833	0.6341	751.6	0.4
303.15	0.0883	0.5375	735.2	0.4
303.15	0.0939	0.4286	734.3	0.4
303.15	0.1002	0.3051	726.5	0.4
303.15	0.1075	0.1636	720.4	0.4
303.15	0.1481	0.7891	736.6	0.4
303.15	0.1559	0.7119	739.5	0.4
303.15	0.1646	0.6262	716.9	0.4
303.15	0.1742	0.5304	732.2	0.4
303.15	0.1851	0.4226	713.5	0.4
303.15	0.1974	0.3005	721.5	0.4
303.15	0.2115	0.161	717.2	0.4
303.15	0.2311	0.7035	747.2	0.4
303.15	0.2438	0.6184	724.6	0.4
303.15	0.2579	0.5234	726.5	0.4
303.15	0.2738	0.4167	730.4	0.4
303.15	0.2918	0.296	718.3	0.4
303.15	0.3123	0.1584	704.7	0.4
303.15	0.3211	0.6109	728.2	0.4
303.15	0.3395	0.5166	722.3	0.4
303.15	0.3601	0.411	735.4	0.4
303.15	0.3834	0.2917	715.7	0.4
303.15	0.4098	0.1559	714.8	0.4
303.15	0.4189	0.51	708.9	0.4
303.15	0.444	0.4054	727.3	0.5
303.15	0.4723	0.2875	711	0.4
303.15	0.5044	0.1535	706.9	0.4
303.15	0.5257	0.4	709.7	0.4
303.15	0.5587	0.2834	702.3	0.4
303.15	0.5961	0.1512	703	0.4
303.15	0.6427	0.2795	698.2	0.4
303.15	0.6851	0.149	703.4	0.4
303.15	0.7715	0.1468	693.6	0.4
308.15	0.0713	0.8682	716.4	0.4
308.15	0.0749	0.7981	724.8	0.4
308.15	0.0789	0.7205	739.4	0.5
308.15	0.0833	0.6341	747.1	0.5
308.15	0.0883	0.5375	732	0.4
308.15	0.0939	0.4286	729.2	0.4
308.15	0.1002	0.3051	723	0.4
308.15	0.1075	0.1636	715.8	0.4
308.15	0.1481	0.7891	731.8	0.4
308.15	0.1559	0.7119	735.5	0.5
308.15	0.1646	0.6262	713	0.4
308.15	0.1742	0.5304	729.5	0.4
308.15	0.1851	0.4226	709.8	0.4
308.15	0.1974	0.3005	718.5	0.4
308.15	0.2115	0.161	712.1	0.4
308.15	0.2311	0.7035	743.2	0.5
308.15	0.2438	0.6184	721.1	0.4
308.15	0.2579	0.5234	724.1	0.4
308.15	0.2738	0.4167	725.8	0.4
308.15	0.2918	0.296	716	0.4
308.15	0.3123	0.1584	701.3	0.4
308.15	0.3211	0.6109	724.7	0.4
308.15	0.3395	0.5166	720	0.4
308.15	0.3601	0.411	731.6	0.4
308.15	0.3834	0.2917	711.5	0.4
308.15	0.4098	0.1559	711.1	0.4
308.15	0.4189	0.51	705.6	0.4
308.15	0.444	0.4054	722.4	0.4
308.15	0.4723	0.2875	707.5	0.4
308.15	0.5044	0.1535	702.4	0.4
308.15	0.5257	0.4	705.8	0.4
308.15	0.5587	0.2834	697.7	0.4
308.15	0.5961	0.1512	702	0.4
308.15	0.6427	0.2795	693.7	0.4
308.15	0.6851	0.149	699.3	0.4
308.15	0.7715	0.1468	690.3	0.4
313.15	0.0713	0.8682	712.7	0.4
313.15	0.0749	0.7981	720.9	0.4
313.15	0.0789	0.7205	731.2	0.5
313.15	0.0833	0.6341	742	0.4
313.15	0.0883	0.5375	725.1	0.4
313.15	0.0939	0.4286	725.9	0.4
313.15	0.1002	0.3051	718.5	0.4
313.15	0.1075	0.1636	715.3	0.4
313.15	0.1481	0.7891	727.9	0.4
313.15	0.1559	0.7119	728	0.5
313.15	0.1646	0.6262	708.3	0.4
313.15	0.1742	0.5304	722	0.5
313.15	0.1851	0.4226	705.5	0.4
313.15	0.1974	0.3005	711.2	0.4
313.15	0.2115	0.161	708.6	0.4
313.15	0.2311	0.7035	738.5	0.5
313.15	0.2438	0.6184	717.5	0.4
313.15	0.2579	0.5234	719	0.4
313.15	0.2738	0.4167	721.3	0.4
313.15	0.2918	0.296	708.5	0.4
313.15	0.3123	0.1584	696.6	0.4
313.15	0.3211	0.6109	719.5	0.4
313.15	0.3395	0.5166	712	0.4
313.15	0.3601	0.411	726.6	0.4
313.15	0.3834	0.2917	704.5	0.4
313.15	0.4098	0.1559	706.2	0.4
313.15	0.4189	0.51	701.5	0.4
313.15	0.444	0.4054	718.6	0.4
313.15	0.4723	0.2875	701.5	0.4
313.15	0.5044	0.1535	698	0.4
313.15	0.5257	0.4	701.4	0.4
313.15	0.5587	0.2834	693.3	0.4
313.15	0.5961	0.1512	690.8	0.4
313.15	0.6427	0.2795	690.1	0.4
313.15	0.6851	0.149	695.5	0.4
313.15	0.7715	0.1468	685	0.4
318.15	0.0713	0.8682	709.3	0.4
318.15	0.0749	0.7981	717.9	0.4
318.15	0.0789	0.7205	728.4	0.4
318.15	0.0833	0.6341	738.6	0.5
318.15	0.0883	0.5375	721.8	0.4
318.15	0.0939	0.4286	722	0.4
318.15	0.1002	0.3051	714	0.4
318.15	0.1075	0.1636	708.6	0.4
318.15	0.1481	0.7891	725	0.4
318.15	0.1559	0.7119	723.5	0.4
318.15	0.1646	0.6262	704.9	0.4
318.15	0.1742	0.5304	718	0.4
318.15	0.1851	0.4226	701.8	0.4
318.15	0.1974	0.3005	709.1	0.4
318.15	0.2115	0.161	704.5	0.4
318.15	0.2311	0.7035	734.3	0.5
318.15	0.2438	0.6184	714.1	0.4
318.15	0.2579	0.5234	713.4	0.4
318.15	0.2738	0.4167	717.7	0.4
318.15	0.2918	0.296	705	0.4
318.15	0.3123	0.1584	693	0.4
318.15	0.3211	0.6109	714	0.4
318.15	0.3395	0.5166	710	0.4
318.15	0.3601	0.411	722.9	0.4
318.15	0.3834	0.2917	700.5	0.4
318.15	0.4098	0.1559	703	0.4
318.15	0.4189	0.51	697.9	0.4
318.15	0.444	0.4054	714.2	0.4
318.15	0.4723	0.2875	696.7	0.4
318.15	0.5044	0.1535	694.5	0.4
318.15	0.5257	0.4	697.6	0.4
318.15	0.5587	0.2834	689.4	0.4
318.15	0.5961	0.1512	689.5	0.4
318.15	0.6427	0.2795	686.4	0.4
318.15	0.6851	0.149	690.6	0.4
318.15	0.7715	0.1468	681.2	0.4
323.15	0.0713	0.8682	705.3	0.4
323.15	0.0749	0.7981	713.1	0.4
323.15	0.0789	0.7205	722.5	0.5
323.15	0.0833	0.6341	733.2	0.6
323.15	0.0883	0.5375	718.9	0.4
323.15	0.0939	0.4286	717.5	0.5
323.15	0.1002	0.3051	710	0.4
323.15	0.1075	0.1636	704.2	0.4
323.15	0.1481	0.7891	719.8	0.5
323.15	0.1559	0.7119	725.5	0.4
323.15	0.1646	0.6262	701	0.5
323.15	0.1742	0.5304	716.5	0.5
323.15	0.1851	0.4226	697.4	0.5
323.15	0.1974	0.3005	703.2	0.5
323.15	0.2115	0.161	700.5	0.4
323.15	0.2311	0.7035	729.4	0.5
323.15	0.2438	0.6184	709.8	0.4
323.15	0.2579	0.5234	709.7	0.4
323.15	0.2738	0.4167	712.7	0.5
323.15	0.2918	0.296	700	0.4
323.15	0.3123	0.1584	697.9	0.4
323.15	0.3211	0.6109	711	0.4
323.15	0.3395	0.5166	706	0.5
323.15	0.3601	0.411	717.5	0.5
323.15	0.3834	0.2917	696.7	0.4
323.15	0.4098	0.1559	698.2	0.5
323.15	0.4189	0.51	693	0.5
323.15	0.444	0.4054	709.3	0.6
323.15	0.4723	0.2875	692.5	0.4
323.15	0.5044	0.1535	690.7	0.4
323.15	0.5257	0.4	693.8	0.4
323.15	0.5587	0.2834	685.2	0.4
323.15	0.5961	0.1512	685.4	0.4
323.15	0.6427	0.2795	681.9	0.4
323.15	0.6851	0.149	686.8	0.5
323.15	0.7715	0.1468	676	0.4
