Measured thermophysical data. Vapor Pressure and Dissolution Enthalpy Measurements in Ternary {H2O + NaCl + Na2SO4} System between 298 K and 363 K
Source: J. Chem. Eng. Data, 2003, 10.1021/je0200766
Compound 1: water, H2O, InChI=1S/H2O/h1H2
Compound 2: sodium chloride, ClNa, InChI=1S/ClH.Na/h1H;/q;+1/p-1
Compound 3: sodium sulfate, Na2O4S, InChI=1S/2Na.H2O4S/c;;1-5(2,3)4/h;;(H2,1,2,3,4)/q2*+1;/p-2

System: sodium chloride + water + sodium sulfate; phases: Liquid, Gas
Property: Vapor or sublimation pressure, kPa (Liquid); method: Closed cell (Static) method
Molality, mol/kg of sodium chloride	Molality, mol/kg of sodium sulfate	Temperature, K	Vapor or sublimation pressure, kPa	uncertainty
0.02484	0.2484	298.77	3.2528	0.0257
0.02484	0.2484	303.59	4.308	0.029
0.02484	0.2484	308.42	5.6475	0.0332
0.02484	0.2484	313.28	7.3468	0.0385
0.02484	0.2484	318.17	9.4922	0.0453
0.02484	0.2484	322.97	12.088	0.053
0.02484	0.2484	327.81	15.314	0.064
0.02484	0.2484	332.69	19.278	0.076
0.02484	0.2484	337.62	24.156	0.091
0.02484	0.2484	342.55	30.042	0.11
0.02484	0.2484	347.4	36.98	0.131
0.02484	0.2484	352.35	45.379	0.158
0.02484	0.2484	357.29	55.32	0.189
0.02484	0.2484	327.81	15.314	0.064
0.04046	0.4046	298.64	3.2141	0.0256
0.04046	0.4046	303.5	4.2663	0.0288
0.04046	0.4046	308.36	5.602	0.033
0.04046	0.4046	313.21	7.2885	0.0383
0.04046	0.4046	318.09	9.41	0.045
0.04046	0.4046	322.91	11.997	0.053
0.04046	0.4046	327.78	15.219	0.063
0.04046	0.4046	332.66	19.149	0.076
0.04046	0.4046	337.61	24.035	0.091
0.04046	0.4046	342.58	29.937	0.109
0.04046	0.4046	347.47	36.916	0.131
0.04046	0.4046	352.42	45.302	0.158
0.04046	0.4046	357.35	55.16	0.188
0.04046	0.4046	362.24	66.666	0.224
0.05524	0.5524	298.47	3.1597	0.0254
0.05524	0.5524	303.39	4.2154	0.0287
0.05524	0.5524	308.27	5.5448	0.0329
0.05524	0.5524	313.12	7.2139	0.0381
0.05524	0.5524	318.04	9.336	0.0448
0.05524	0.5524	322.84	11.896	0.053
0.05524	0.5524	327.7	15.081	0.063
0.05524	0.5524	332.6	19	0.075
0.05524	0.5524	337.56	23.842	0.09
0.05524	0.5524	342.51	29.686	0.109
0.05524	0.5524	347.42	36.621	0.13
0.05524	0.5524	352.36	44.941	0.157
0.05524	0.5524	357.29	54.764	0.187
0.05524	0.5524	362.18	66.174	0.223
0.08081	0.8081	298.38	3.1123	0.0253
0.08081	0.8081	303.27	4.1396	0.0285
0.08081	0.8081	308.08	5.4259	0.0325
0.08081	0.8081	312.97	7.0791	0.0377
0.08081	0.8081	317.92	9.178	0.0443
0.08081	0.8081	322.73	11.704	0.052
0.08081	0.8081	327.6	14.852	0.062
0.08081	0.8081	332.49	18.7	0.074
0.08081	0.8081	337.44	23.465	0.089
0.08081	0.8081	342.39	29.203	0.107
0.08081	0.8081	347.28	36.016	0.129
0.08081	0.8081	352.22	44.186	0.154
0.08081	0.8081	357.14	53.806	0.185
0.08081	0.8081	362.06	65.137	0.22
0.08849	0.8849	298.82	3.1783	0.0255
0.08849	0.8849	303.66	4.2165	0.0287
0.08849	0.8849	308.49	5.5267	0.0329
0.08849	0.8849	313.35	7.1924	0.0381
0.08849	0.8849	318.24	9.2899	0.0447
0.08849	0.8849	323.03	11.829	0.053
0.08849	0.8849	327.89	15.004	0.063
0.08849	0.8849	332.77	18.871	0.075
0.08849	0.8849	337.69	23.63	0.09
0.08849	0.8849	342.63	29.398	0.108
0.08849	0.8849	347.49	36.208	0.13
0.08849	0.8849	352.43	44.416	0.155
0.08849	0.8849	357.38	54.174	0.186
0.08849	0.8849	362.26	65.403	0.221
0.12715	1.2715	298.56	3.0869	0.0252
0.12715	1.2715	303.4	4.0939	0.0284
0.12715	1.2715	308.22	5.3676	0.0324
0.12715	1.2715	313.06	6.9837	0.0375
0.12715	1.2715	317.95	9.0223	0.044
0.12715	1.2715	322.78	11.513	0.052
0.12715	1.2715	327.61	14.582	0.062
0.12715	1.2715	332.45	18.334	0.073
0.12715	1.2715	337.31	22.915	0.088
0.12715	1.2715	342.24	28.506	0.106
0.12715	1.2715	347.08	35.082	0.126
0.12715	1.2715	352	43.038	0.152
0.12715	1.2715	356.89	52.363	0.181
0.12715	1.2715	361.75	63.237	0.215
0.13596	1.3596	298.67	3.0971	0.0252
0.13596	1.3596	303.46	4.0943	0.0284
0.13596	1.3596	308.32	5.3769	0.0324
0.13596	1.3596	313.14	6.9826	0.0375
0.13596	1.3596	317.97	9.0016	0.0439
0.13596	1.3596	322.79	11.486	0.052
0.13596	1.3596	327.72	14.612	0.062
0.13596	1.3596	332.64	18.412	0.074
0.13596	1.3596	337.58	23.078	0.088
0.13596	1.3596	342.52	28.704	0.106
0.13596	1.3596	347.4	35.384	0.127
0.13596	1.3596	352.33	43.383	0.153
0.13596	1.3596	357.27	52.902	0.183
0.13596	1.3596	362.13	63.835	0.217
0.2625	0.2625	298.35	3.1494	0.0254
0.2625	0.2625	303.14	4.1669	0.0285
0.2625	0.2625	308	5.4792	0.0327
0.2625	0.2625	312.82	7.1208	0.0378
0.2625	0.2625	317.71	9.207	0.0444
0.2625	0.2625	322.51	11.746	0.052
0.2625	0.2625	327.35	14.894	0.062
0.2625	0.2625	332.21	18.741	0.074
0.2625	0.2625	337.13	23.497	0.089
0.2625	0.2625	342.1	29.296	0.107
0.2625	0.2625	346.96	36.092	0.129
0.2625	0.2625	351.89	44.294	0.154
0.2625	0.2625	356.81	53.972	0.185
0.2625	0.2625	361.64	65.071	0.219
0.4073	0.4073	298.33	3.1072	0.0252
0.4073	0.4073	303.13	4.1129	0.0284
0.4073	0.4073	307.97	5.4034	0.0325
0.4073	0.4073	312.82	7.036	0.0376
0.4073	0.4073	317.69	9.0906	0.0441
0.4073	0.4073	322.53	11.618	0.052
0.4073	0.4073	327.37	14.727	0.062
0.4073	0.4073	332.25	18.559	0.074
0.4073	0.4073	337.17	23.26	0.089
0.4073	0.4073	342.1	28.945	0.107
0.4073	0.4073	346.97	35.669	0.128
0.4073	0.4073	351.89	43.772	0.153
0.4073	0.4073	356.81	53.323	0.183
0.4073	0.4073	361.65	64.336	0.217
0.5204	0.5204	298.31	3.0829	0.0252
0.5204	0.5204	303.12	4.0827	0.0283
0.5204	0.5204	307.94	5.3577	0.0323
0.5204	0.5204	312.75	6.9653	0.0374
0.5204	0.5204	317.67	9.0182	0.0438
0.5204	0.5204	322.51	11.518	0.052
0.5204	0.5204	327.35	14.604	0.061
0.5204	0.5204	332.23	18.396	0.073
0.5204	0.5204	337.18	23.079	0.088
0.5204	0.5204	342.12	28.744	0.106
0.5204	0.5204	347.03	35.488	0.127
0.5204	0.5204	351.98	43.62	0.153
0.5204	0.5204	356.93	53.207	0.183
0.5204	0.5204	361.87	64.535	0.218
0.6651	0.6651	298.32	3.0521	0.0251
0.6651	0.6651	303.14	4.0451	0.0282
0.6651	0.6651	307.99	5.3175	0.0322
0.6651	0.6651	312.84	6.9236	0.0373
0.6651	0.6651	317.75	8.9601	0.0437
0.6651	0.6651	322.57	11.432	0.052
0.6651	0.6651	327.42	14.494	0.061
0.6651	0.6651	332.28	18.244	0.073
0.6651	0.6651	337.21	22.87	0.088
0.6651	0.6651	342.17	28.495	0.105
0.6651	0.6651	347.05	35.135	0.126
0.6651	0.6651	351.95	43.077	0.151
0.6651	0.6651	356.9	52.551	0.181
0.6651	0.6651	361.83	63.701	0.216
0.7901	0.7901	298.42	3.0429	0.025
0.7901	0.7901	303.19	4.0197	0.0281
0.7901	0.7901	308.06	5.2891	0.0321
0.7901	0.7901	312.9	6.8781	0.0371
0.7901	0.7901	317.79	8.8943	0.0435
0.7901	0.7901	322.61	11.348	0.051
0.7901	0.7901	327.45	14.387	0.061
0.7901	0.7901	332.33	18.113	0.073
0.7901	0.7901	337.24	22.689	0.087
0.7901	0.7901	342.19	28.255	0.105
0.7901	0.7901	347.08	34.856	0.125
0.7901	0.7901	352.02	42.789	0.15
0.7901	0.7901	356.97	52.211	0.18
0.7901	0.7901	361.87	63.206	0.214
0.9617	0.9617	298.38	3.0043	0.0249
0.9617	0.9617	303.27	3.9918	0.0288
0.9617	0.9617	308.08	5.2283	0.0329
0.9617	0.9617	312.95	6.8062	0.0381
0.9617	0.9617	317.85	8.8005	0.0444
0.9617	0.9617	322.65	11.211	0.052
0.9617	0.9617	327.51	14.222	0.062
0.9617	0.9617	332.4	17.911	0.074
0.9617	0.9617	337.33	22.44	0.089
0.9617	0.9617	342.26	27.921	0.106
0.9617	0.9617	347.13	34.406	0.127
0.9617	0.9617	352.07	42.23	0.152
0.9617	0.9617	357.04	51.584	0.182
0.9617	0.9617	361.97	62.491	0.213
0.9775	0.9775	298.35	2.992	0.0249
0.9775	0.9775	303.16	3.9605	0.0284
0.9775	0.9775	307.98	5.1939	0.0325
0.9775	0.9775	312.84	6.7647	0.0377
0.9775	0.9775	317.77	8.7678	0.0443
0.9775	0.9775	322.59	11.187	0.052
0.9775	0.9775	327.43	14.175	0.062
0.9775	0.9775	332.3	17.839	0.074
0.9775	0.9775	337.24	22.358	0.089
0.9775	0.9775	342.17	27.831	0.106
0.9775	0.9775	347.03	34.282	0.127
0.9775	0.9775	351.96	42.073	0.152
0.9775	0.9775	356.89	51.298	0.181
0.9775	0.9775	361.84	62.218	0.212
1.0495	1.0495	298.34	2.9675	0.0248
1.0495	1.0495	303.16	3.931	0.0278
1.0495	1.0495	307.96	5.1507	0.0317
1.0495	1.0495	312.79	6.7	0.0366
1.0495	1.0495	317.66	8.6559	0.0428
1.0495	1.0495	322.5	11.057	0.05
1.0495	1.0495	327.34	14.009	0.06
1.0495	1.0495	332.22	17.646	0.071
1.0495	1.0495	337.12	22.108	0.085
1.0495	1.0495	342.03	27.493	0.102
1.0495	1.0495	346.88	33.851	0.122
1.0495	1.0495	351.8	41.531	0.147
1.0495	1.0495	356.7	50.601	0.175
1.0495	1.0495	361.59	61.254	0.209
