Measured thermophysical data. Solubilities of the Drugs Benzocaine, Metronidazole Benzoate, and Naproxen in Supercritical Carbon Dioxide
Source: J. Chem. Eng. Data, 2004, 10.1021/je020218w
Compound 1: ethyl 4-aminobenzoate, C9H11NO2, InChI=1S/C9H11NO2/c1-2-12-9(11)7-3-5-8(10)6-4-7/h3-6H,2,10H2,1H3, purity 99%
Compound 2: (S)-(+)-naproxen, C14H14O3, InChI=1S/C14H14O3/c1-9(14(15)16)10-3-4-12-8-13(17-2)6-5-11(12)7-10/h3-9H,1-2H3,(H,15,16)/t9-/m0/s1, purity 99%
Compound 3: metronidazole benzoate, C13H13N3O4, InChI=1S/C13H13N3O4/c1-10-14-9-12(16(18)19)15(10)7-8-20-13(17)11-5-3-2-4-6-11/h2-6,9H,7-8H2,1H3, purity 99%
Compound 4: carbon dioxide, CO2, InChI=1S/CO2/c2-1-3

System: ethyl 4-aminobenzoate + carbon dioxide; phases: Fluid (supercritical or subcritical phases), Crystal
Property: Mole fraction of ethyl 4-aminobenzoate (Fluid (supercritical or subcritical phases)); method: Chromatography
Temperature, K	Pressure, kPa	Mole fraction of ethyl 4-aminobenzoate	uncertainty
308	12200	0.00103	0.000144
308	15200	0.00106	0.000149
308	18200	0.00128	0.000179
308	21300	0.00138	0.000193
308	24300	0.00147	0.000206
308	27400	0.00164	0.00023
308	30400	0.00176	0.000247
308	35500	0.002	0.00028
318	12200	0.00106	0.000149
318	15200	0.00121	0.00017
318	18200	0.00153	0.000214
318	21300	0.00181	0.000254
318	24300	0.00182	0.000255
318	27400	0.00203	0.000285
318	30400	0.00228	0.00032
318	35500	0.00225	0.000315
328	12200	0.00083	0.000116
328	15200	0.00134	0.000188
328	18200	0.00189	0.000265
328	21300	0.00251	0.000352
328	24300	0.00283	0.000397
328	27400	0.00346	0.000485
328	30400	0.0036	0.000505
328	35500	0.0039	0.000547
338	12200	0.00039	5.5e-05
338	15200	0.00127	0.000178
338	18200	0.0023	0.000322
338	21300	0.00313	0.000439
338	24300	0.00426	0.000597
338	27400	0.0056	0.000785
338	30400	0.00644	0.000903
338	35500	0.00782	0.001096
348	12200	0.00027	3.8e-05
348	15200	0.00096	0.000135
348	18200	0.00203	0.000285
348	21300	0.0033	0.000463
348	24300	0.00493	0.000691
348	27400	0.00737	0.001033
348	30400	0.00865	0.001213
348	35500	0.01212	0.001699

System: carbon dioxide + (S)-(+)-naproxen; phases: Fluid (supercritical or subcritical phases), Crystal
Property: Mole fraction of carbon dioxide (Fluid (supercritical or subcritical phases)); method: Chromatography
Temperature, K	Pressure, kPa	Mole fraction of carbon dioxide	uncertainty
308	12200	1e-05	2e-06
308	15200	2e-05	3e-06
308	18200	2e-05	3e-06
308	21300	2e-05	3e-06
308	24300	2e-05	3e-06
308	27400	3e-05	4e-06
308	30400	3e-05	4e-06
308	35500	4e-05	6e-06
318	12200	2e-05	3e-06
318	15200	2e-05	3e-06
318	18200	2e-05	3e-06
318	21300	3e-05	4e-06
318	24300	3e-05	4e-06
318	27400	4e-05	6e-06
318	30400	4e-05	6e-06
318	35500	5e-05	7e-06
328	12200	1e-05	2e-06
328	15200	2e-05	3e-06
328	18200	2e-05	3e-06
328	21300	3e-05	4e-06
328	24300	4e-05	6e-06
328	27400	5e-05	7e-06
328	30400	5e-05	7e-06
328	35500	8e-05	1.1e-05
338	12200	2e-05	3e-06
338	15200	2e-05	3e-06
338	18200	3e-05	4e-06
338	21300	4e-05	6e-06
338	24300	6e-05	8e-06
338	27400	7e-05	1e-05
338	30400	8e-05	1.1e-05
338	35500	0.00011	1.5e-05
348	12200	1e-05	2e-06
348	15200	2e-05	3e-06
348	18200	3e-05	4e-06
348	21300	5e-05	7e-06
348	24300	7e-05	1e-05
348	27400	0.0001	1.4e-05
348	30400	0.00013	1.8e-05
348	35500	0.0002	2.8e-05

System: carbon dioxide + metronidazole benzoate; phases: Fluid (supercritical or subcritical phases), Crystal
Property: Mole fraction of carbon dioxide (Fluid (supercritical or subcritical phases)); method: Chromatography
Temperature, K	Pressure, kPa	Mole fraction of carbon dioxide	uncertainty
308	12200	0.00049	6.9e-05
308	15200	0.00054	7.6e-05
308	18200	0.00061	8.6e-05
308	21300	0.0007	9.8e-05
308	24300	0.00084	0.000118
308	27400	0.00095	0.000133
308	30400	0.00108	0.000151
308	35500	0.00139	0.000195
318	12200	0.00027	3.8e-05
318	15200	0.00037	5.2e-05
318	18200	0.00072	0.000101
318	21300	0.00069	9.7e-05
318	24300	0.00088	0.000123
318	27400	0.00108	0.000151
318	30400	0.00127	0.000178
318	35500	0.00147	0.000206
328	12200	0.00015	2.1e-05
328	15200	0.00035	4.9e-05
328	18200	0.00056	7.9e-05
328	21300	0.00082	0.000115
328	24300	0.00105	0.000147
328	27400	0.00125	0.000175
328	30400	0.00144	0.000202
328	35500	0.00177	0.000248
338	12200	7e-05	1e-05
338	15200	0.00024	3.4e-05
338	18200	0.00051	7.1e-05
338	21300	0.00087	0.000122
338	24300	0.00126	0.000177
338	27400	0.00162	0.000227
338	30400	0.00227	0.000318
338	35500	0.00279	0.000391
348	12200	0.00016	2.2e-05
348	15200	0.000407	5.7e-05
348	18200	0.00055	7.7e-05
348	21300	0.00118	0.000165
348	24300	0.00175	0.000245
348	27400	0.00229	0.000321
348	30400	0.00302	0.000423
348	35500	0.00455	0.000638
