Measured thermophysical data. Solubilities of n-Alkanes (C6 to C8) in Water from 30 0C to 180 0C.
Source: J. Chem. Eng. Data, 2003, 10.1021/je025659u
Compound 1: hexane, C6H14, InChI=1S/C6H14/c1-3-5-6-4-2/h3-6H2,1-2H3
Compound 2: heptane, C7H16, InChI=1S/C7H16/c1-3-5-7-6-4-2/h3-7H2,1-2H3
Compound 3: octane, C8H18, InChI=1S/C8H18/c1-3-5-7-8-6-4-2/h3-8H2,1-2H3
Compound 4: water, H2O, InChI=1S/H2O/h1H2

System: hexane + water; phases: Liquid mixture 1, Liquid mixture 2
Fixed: Pressure, kPa = 700
Property: Mole fraction of hexane (Liquid mixture 1); method: Chromatography
Temperature, K	Mole fraction of hexane	uncertainty
303.95	2.06e-06	1e-07
343.45	2.77e-06	1.4e-07
373.75	6.16e-06	3.1e-07
403.95	1.446e-05	7.3e-07
424.25	2.67e-05	1.4e-06
443.15	4.8e-05	2.4e-06

System: heptane + water; phases: Liquid mixture 1, Liquid mixture 2
Fixed: Pressure, kPa = 700
Property: Mole fraction of heptane (Liquid mixture 1); method: Chromatography
Temperature, K	Mole fraction of heptane	uncertainty
305.85	4.74e-07	2.4e-08
343.55	9.15e-07	4.6e-08
373.85	2.04e-06	1e-07
373.85	2.12e-06	1.1e-07
404.15	4e-06	2e-07
424.45	8.8e-06	4e-07
443.65	1.763e-05	8.9e-07
443.75	1.742e-05	8.8e-07

System: octane + water; phases: Liquid mixture 1, Liquid mixture 2
Fixed: Pressure, kPa = 700
Property: Mole fraction of octane (Liquid mixture 1); method: Chromatography
Temperature, K	Mole fraction of octane	uncertainty
303.05	1.22e-07	6e-09
303.45	1.2e-07	6e-09
342.35	2.39e-07	1.9e-08
343.15	3.52e-07	2.3e-08
373.05	4.8e-07	2.5e-08
374.25	5.38e-07	2.8e-08
397.15	1.23e-06	6e-08
397.15	1.42e-06	7e-08
404.15	1.77e-06	9e-08
404.15	1.93e-06	1e-07
424.35	3.92e-06	2e-07
438.25	6.9e-06	3.5e-07
438.55	6.82e-06	3.5e-07
456.15	1.337e-05	6.8e-07
