Measured thermophysical data. Vapor Pressures and Enthalpies of Vaporization for Toxaphene Congeners
Source: J. Chem. Eng. Data, 2003, 10.1021/je020204q
Compound 1: 5-exo,6-endo-dichloro-2-endo-chloromethyl-3-(E)-chloromethylene-2-dichloromethyl-8,9,10-trinorbornane, C10H10Cl6, InChI=1S/C10H10Cl6/c11-2-6-4-1-5(8(14)7(4)13)10(6,3-12)9(15)16/h2,4-5,7-9H,1,3H2/b6-2+/t4-,5-,7-,8-,10?/m0/s1
Compound 2: 2-exo,3-endo,6-exo,8,9,10-hexachlorobornane, C10H12Cl6, InChI=1S/C10H12Cl6/c11-2-9(3-12)5-1-6(14)10(9,4-13)8(16)7(5)15/h5-8H,1-4H2/t5-,6+,7+,8-,10+/m1/s1
Compound 3: 2,2,3-exo-trichloro-5-endo-chloromethyl-6-(E)-chloromethylene-5-dichloromethyl-8,9,10-trinorbornane, C10H9Cl7, InChI=1S/C10H9Cl7/c11-2-6-4-1-5(7(13)10(4,16)17)9(6,3-12)8(14)15/h2,4-5,7-8H,1,3H2/b6-2+/t4-,5-,7+,9-/m1/s1
Compound 4: 2-endo,3-exo,5-endo,6-exo,8,8,10,10-octachlorobornane, C10H10Cl8, InChI=1S/C10H10Cl8/c1-9(7(15)16)2-3(11)5(13)10(9,8(17)18)6(14)4(2)12/h2-8H,1H3/t2?,3-,4-,5+,6+,9+,10?/m1/s1
Compound 5: 2,2,5-endo,6-exo,8,9,10-heptachlorobornane, C10H11Cl7, InChI=1S/C10H11Cl7/c11-2-8(3-12)5-1-10(16,17)9(8,4-13)7(15)6(5)14/h5-7H,1-4H2/t5-,6+,7-,9+/m0/s1
Compound 6: 2,2,3-exo-trichloro-6-(E)-chloromethylene-5,5-bis(dichloromethyl)-8,9,10-trinorbornane, C10H8Cl8, InChI=1S/C10H8Cl8/c11-2-5-3-1-4(6(12)10(3,17)18)9(5,7(13)14)8(15)16/h2-4,6-8H,1H2/b5-2+/t3-,4-,6+/m1/s1
Compound 7: 2,2,3-exo,5-endo,6-exo,8,9,10-octachlorobornane, C10H10Cl8, InChI=1S/C10H10Cl8/c11-1-8(2-12)4-5(14)7(16)9(8,3-13)10(17,18)6(4)15/h4-7H,1-3H2/t4-,5-,6-,7+,9-/m1/s1
Compound 8: 2,2,5-endo,6-exo,8,8,9,10-octachlorobornane, C10H10Cl8, InChI=1S/C10H10Cl8/c11-2-8(7(15)16)4-1-10(17,18)9(8,3-12)6(14)5(4)13/h4-7H,1-3H2/t4-,5+,6-,8-,9+/m0/s1
Compound 9: 2,2,5-endo,6-exo,8,9,9,10-octachlorobornane, C10H10Cl8, InChI=1S/C10H10Cl8/c11-2-8(7(15)16)4-1-10(17,18)9(8,3-12)6(14)5(4)13/h4-7H,1-3H2/t4-,5+,6-,8+,9+/m0/s1
Compound 10: 2-endo,3-exo,5-endo,6-exo,8,9,10,10-octachlorobornane, C10H10Cl8, InChI=1S/C10H10Cl8/c11-1-9(2-12)3-4(13)6(15)10(9,8(17)18)7(16)5(3)14/h3-8H,1-2H2/t3?,4-,5-,6+,7+,10?/m1/s1
Compound 11: 2-endo,3-exo,5-endo,6-exo,8,8,9,10,10-nonachlorobornane, C10H9Cl9, InChI=1S/C10H9Cl9/c11-1-9(7(16)17)2-3(12)5(14)10(9,8(18)19)6(15)4(2)13/h2-8H,1H2/t2?,3-,4-,5+,6+,9+,10?/m1/s1
Compound 12: 2-exo,3-endo,5-exo,6-exo,8,8,9,10,10-nonachlorobornane, C10H9Cl9, InChI=1S/C10H9Cl9/c11-1-9(7(16)17)2-3(12)5(14)10(9,8(18)19)6(15)4(2)13/h2-8H,1H2/t2?,3-,4-,5-,6+,9-,10?/m1/s1
Compound 13: 2,2,5,5,6-exo,8,9,9,10,10-decachlorobornane, C10H8Cl10, InChI=1S/C10H8Cl10/c11-2-7(5(13)14)3-1-8(17,18)9(7,6(15)16)4(12)10(3,19)20/h3-6H,1-2H2/t3-,4-,7-,9+/m0/s1
Compound 14: 2-exo,5,5,9,9,10,10-heptachlorobornane, C10H11Cl7, InChI=1S/C10H11Cl7/c1-8(6(12)13)4-2-5(11)9(8,7(14)15)3-10(4,16)17/h4-7H,2-3H2,1H3/t4-,5-,8-,9+/m0/s1
Compound 15: 2,2,5,5,9,10,10-heptachlorobornane, C10H11Cl7, InChI=1S/C10H11Cl7/c1-7(4-11)5-2-10(16,17)8(7,6(12)13)3-9(5,14)15/h5-6H,2-4H2,1H3/t5-,7+,8+/m1/s1
Compound 16: 2-endo,3-exo,5-endo,6-exo,8,9,10-heptachlorobornane, C10H11Cl7, InChI=1S/C10H11Cl7/c11-1-9(2-12)4-5(14)7(16)10(9,3-13)8(17)6(4)15/h4-8H,1-3H2/t4?,5-,6-,7+,8+,10?/m1/s1
Compound 17: 2-endo,3-exo,5-endo,6-exo,8,8,9,10-octachlorobornane, C10H10Cl8, InChI=1S/C10H10Cl8/c11-1-9(8(17)18)3-4(13)6(15)10(9,2-12)7(16)5(3)14/h3-8H,1-2H2/t3?,4-,5-,6+,7+,9+,10?/m1/s1
Compound 18: 2-exo,3-endo,6-endo,8,9,10,10-heptachlorobornane, C10H11Cl7, InChI=1S/C10H11Cl7/c11-2-9(3-12)4-1-5(13)10(9,8(16)17)7(15)6(4)14/h4-8H,1-3H2/t4-,5-,6+,7-,10+/m1/s1
Compound 19: 2-exo,5,5,8,9,9,10,10-octachlorobornane, C10H10Cl8, InChI=1S/C10H10Cl8/c11-3-9(7(15)16)4-1-5(12)8(9,6(13)14)2-10(4,17)18/h4-7H,1-3H2/t4-,5-,8+,9-/m0/s1
Compound 20: 2,2,3-exo,5,5,9,9,10,10-nonachlorobornane, C10H9Cl9, InChI=1S/C10H9Cl9/c1-7(5(12)13)3-4(11)10(18,19)8(7,6(14)15)2-9(3,16)17/h3-6H,2H2,1H3/t3-,4-,7-,8+/m1/s1
Compound 21: 2,2,5,5,8,9,9,10,10-nonachlorobornane, C10H9Cl9, InChI=1S/C10H9Cl9/c11-3-7(5(12)13)4-1-10(18,19)8(7,6(14)15)2-9(4,16)17/h4-6H,1-3H2/t4-,7-,8+/m1/s1

System: 5-exo,6-endo-dichloro-2-endo-chloromethyl-3-(E)-chloromethylene-2-dichloromethyl-8,9,10-trinorbornane; phases: Liquid, Gas
Property: Vapor or sublimation pressure, kPa (Liquid); method: correlation GC
Temperature, K	Vapor or sublimation pressure, kPa	uncertainty
298.15	7.079e-06	1.14e-05

System: 5-exo,6-endo-dichloro-2-endo-chloromethyl-3-(E)-chloromethylene-2-dichloromethyl-8,9,10-trinorbornane; phases: Liquid, Gas
Property: Molar enthalpy of vaporization or sublimation, kJ/mol (Liquid); method: correlation GC
Temperature, K	Molar enthalpy of vaporization or sublimation, kJ/mol	uncertainty
298.15	78	5.6

System: 2-exo,3-endo,6-exo,8,9,10-hexachlorobornane; phases: Liquid, Gas
Property: Vapor or sublimation pressure, kPa (Liquid); method: correlation GC
Temperature, K	Vapor or sublimation pressure, kPa	uncertainty
298.15	6.607e-06	1.06e-05

System: 2-exo,3-endo,6-exo,8,9,10-hexachlorobornane; phases: Liquid, Gas
Property: Molar enthalpy of vaporization or sublimation, kJ/mol (Liquid); method: correlation GC
Temperature, K	Molar enthalpy of vaporization or sublimation, kJ/mol	uncertainty
298.15	77.7	5.6

System: 2,2,3-exo-trichloro-5-endo-chloromethyl-6-(E)-chloromethylene-5-dichloromethyl-8,9,10-trinorbornane; phases: Liquid, Gas
Property: Vapor or sublimation pressure, kPa (Liquid); method: correlation GC
Temperature, K	Vapor or sublimation pressure, kPa	uncertainty
298.15	2.884e-06	4.4e-06

System: 2,2,3-exo-trichloro-5-endo-chloromethyl-6-(E)-chloromethylene-5-dichloromethyl-8,9,10-trinorbornane; phases: Liquid, Gas
Property: Molar enthalpy of vaporization or sublimation, kJ/mol (Liquid); method: correlation GC
Temperature, K	Molar enthalpy of vaporization or sublimation, kJ/mol	uncertainty
298.15	82.6	5.8

System: 2-endo,3-exo,5-endo,6-exo,8,8,10,10-octachlorobornane; phases: Liquid, Gas
Property: Vapor or sublimation pressure, kPa (Liquid); method: correlation GC
Temperature, K	Vapor or sublimation pressure, kPa	uncertainty
298.15	2.818e-06	4.2e-06

System: 2-endo,3-exo,5-endo,6-exo,8,8,10,10-octachlorobornane; phases: Liquid, Gas
Property: Molar enthalpy of vaporization or sublimation, kJ/mol (Liquid); method: correlation GC
Temperature, K	Molar enthalpy of vaporization or sublimation, kJ/mol	uncertainty
298.15	81.5	5.8

System: 2,2,5-endo,6-exo,8,9,10-heptachlorobornane; phases: Liquid, Gas
Property: Vapor or sublimation pressure, kPa (Liquid); method: correlation GC
Temperature, K	Vapor or sublimation pressure, kPa	uncertainty
298.15	2.818e-06	4.2e-06

System: 2,2,5-endo,6-exo,8,9,10-heptachlorobornane; phases: Liquid, Gas
Property: Molar enthalpy of vaporization or sublimation, kJ/mol (Liquid); method: correlation GC
Temperature, K	Molar enthalpy of vaporization or sublimation, kJ/mol	uncertainty
298.15	81.1	5.8

System: 2,2,3-exo-trichloro-6-(E)-chloromethylene-5,5-bis(dichloromethyl)-8,9,10-trinorbornane; phases: Liquid, Gas
Property: Vapor or sublimation pressure, kPa (Liquid); method: correlation GC
Temperature, K	Vapor or sublimation pressure, kPa	uncertainty
298.15	2.138e-06	3.2e-06

System: 2,2,3-exo-trichloro-6-(E)-chloromethylene-5,5-bis(dichloromethyl)-8,9,10-trinorbornane; phases: Liquid, Gas
Property: Molar enthalpy of vaporization or sublimation, kJ/mol (Liquid); method: correlation GC
Temperature, K	Molar enthalpy of vaporization or sublimation, kJ/mol	uncertainty
298.15	82.8	6

System: 2,2,3-exo,5-endo,6-exo,8,9,10-octachlorobornane; phases: Liquid, Gas
Property: Vapor or sublimation pressure, kPa (Liquid); method: correlation GC
Temperature, K	Vapor or sublimation pressure, kPa	uncertainty
298.15	1.622e-06	2.4e-06

System: 2,2,3-exo,5-endo,6-exo,8,9,10-octachlorobornane; phases: Liquid, Gas
Property: Molar enthalpy of vaporization or sublimation, kJ/mol (Liquid); method: correlation GC
Temperature, K	Molar enthalpy of vaporization or sublimation, kJ/mol	uncertainty
298.15	83.5	6

System: 2,2,5-endo,6-exo,8,8,9,10-octachlorobornane; phases: Liquid, Gas
Property: Vapor or sublimation pressure, kPa (Liquid); method: correlation GC
Temperature, K	Vapor or sublimation pressure, kPa	uncertainty
298.15	1.514e-06	2.2e-06

System: 2,2,5-endo,6-exo,8,8,9,10-octachlorobornane; phases: Liquid, Gas
Property: Molar enthalpy of vaporization or sublimation, kJ/mol (Liquid); method: correlation GC
Temperature, K	Molar enthalpy of vaporization or sublimation, kJ/mol	uncertainty
298.15	83.9	6

System: 2,2,5-endo,6-exo,8,9,9,10-octachlorobornane; phases: Liquid, Gas
Property: Vapor or sublimation pressure, kPa (Liquid); method: correlation GC
Temperature, K	Vapor or sublimation pressure, kPa	uncertainty
298.15	1.514e-06	2.2e-06

System: 2,2,5-endo,6-exo,8,9,9,10-octachlorobornane; phases: Liquid, Gas
Property: Molar enthalpy of vaporization or sublimation, kJ/mol (Liquid); method: correlation GC
Temperature, K	Molar enthalpy of vaporization or sublimation, kJ/mol	uncertainty
298.15	83.9	6

System: 2-endo,3-exo,5-endo,6-exo,8,9,10,10-octachlorobornane; phases: Liquid, Gas
Property: Vapor or sublimation pressure, kPa (Liquid); method: correlation GC
Temperature, K	Vapor or sublimation pressure, kPa	uncertainty
298.15	1.479e-06	2.2e-06

System: 2-endo,3-exo,5-endo,6-exo,8,9,10,10-octachlorobornane; phases: Liquid, Gas
Property: Molar enthalpy of vaporization or sublimation, kJ/mol (Liquid); method: correlation GC
Temperature, K	Molar enthalpy of vaporization or sublimation, kJ/mol	uncertainty
298.15	84	6

System: 2-endo,3-exo,5-endo,6-exo,8,8,9,10,10-nonachlorobornane; phases: Liquid, Gas
Property: Vapor or sublimation pressure, kPa (Liquid); method: correlation GC
Temperature, K	Vapor or sublimation pressure, kPa	uncertainty
298.15	8.71e-07	1.4e-06

System: 2-endo,3-exo,5-endo,6-exo,8,8,9,10,10-nonachlorobornane; phases: Liquid, Gas
Property: Molar enthalpy of vaporization or sublimation, kJ/mol (Liquid); method: correlation GC
Temperature, K	Molar enthalpy of vaporization or sublimation, kJ/mol	uncertainty
298.15	86.7	6.2

System: 2-exo,3-endo,5-exo,6-exo,8,8,9,10,10-nonachlorobornane; phases: Liquid, Gas
Property: Vapor or sublimation pressure, kPa (Liquid); method: correlation GC
Temperature, K	Vapor or sublimation pressure, kPa	uncertainty
298.15	4.79e-07	8e-07

System: 2-exo,3-endo,5-exo,6-exo,8,8,9,10,10-nonachlorobornane; phases: Liquid, Gas
Property: Molar enthalpy of vaporization or sublimation, kJ/mol (Liquid); method: correlation GC
Temperature, K	Molar enthalpy of vaporization or sublimation, kJ/mol	uncertainty
298.15	88.6	6.4

System: 2,2,5,5,6-exo,8,9,9,10,10-decachlorobornane; phases: Liquid, Gas
Property: Vapor or sublimation pressure, kPa (Liquid); method: correlation GC
Temperature, K	Vapor or sublimation pressure, kPa	uncertainty
298.15	2.29e-07	4e-07

System: 2,2,5,5,6-exo,8,9,9,10,10-decachlorobornane; phases: Liquid, Gas
Property: Molar enthalpy of vaporization or sublimation, kJ/mol (Liquid); method: correlation GC
Temperature, K	Molar enthalpy of vaporization or sublimation, kJ/mol	uncertainty
298.15	91.8	6.6

System: 2-exo,5,5,9,9,10,10-heptachlorobornane; phases: Liquid, Gas
Property: Vapor or sublimation pressure, kPa (Liquid); method: correlation GC
Temperature, K	Vapor or sublimation pressure, kPa	uncertainty
298.15	5.888e-06	9.2e-06

System: 2-exo,5,5,9,9,10,10-heptachlorobornane; phases: Liquid, Gas
Property: Molar enthalpy of vaporization or sublimation, kJ/mol (Liquid); method: correlation GC
Temperature, K	Molar enthalpy of vaporization or sublimation, kJ/mol	uncertainty
298.15	77.6	5.6

System: 2,2,5,5,9,10,10-heptachlorobornane; phases: Liquid, Gas
Property: Vapor or sublimation pressure, kPa (Liquid); method: correlation GC
Temperature, K	Vapor or sublimation pressure, kPa	uncertainty
298.15	5.248e-06	8.2e-06

System: 2,2,5,5,9,10,10-heptachlorobornane; phases: Liquid, Gas
Property: Molar enthalpy of vaporization or sublimation, kJ/mol (Liquid); method: correlation GC
Temperature, K	Molar enthalpy of vaporization or sublimation, kJ/mol	uncertainty
298.15	78.2	5.8

System: 2-endo,3-exo,5-endo,6-exo,8,9,10-heptachlorobornane; phases: Liquid, Gas
Property: Vapor or sublimation pressure, kPa (Liquid); method: correlation GC
Temperature, K	Vapor or sublimation pressure, kPa	uncertainty
298.15	4.365e-06	6.8e-06

System: 2-endo,3-exo,5-endo,6-exo,8,9,10-heptachlorobornane; phases: Liquid, Gas
Property: Molar enthalpy of vaporization or sublimation, kJ/mol (Liquid); method: correlation GC
Temperature, K	Molar enthalpy of vaporization or sublimation, kJ/mol	uncertainty
298.15	79.9	5.6

System: 2-endo,3-exo,5-endo,6-exo,8,8,9,10-octachlorobornane; phases: Liquid, Gas
Property: Vapor or sublimation pressure, kPa (Liquid); method: correlation GC
Temperature, K	Vapor or sublimation pressure, kPa	uncertainty
298.15	2.63e-06	4e-06

System: 2-endo,3-exo,5-endo,6-exo,8,8,9,10-octachlorobornane; phases: Liquid, Gas
Property: Molar enthalpy of vaporization or sublimation, kJ/mol (Liquid); method: correlation GC
Temperature, K	Molar enthalpy of vaporization or sublimation, kJ/mol	uncertainty
298.15	81.6	5.8

System: 2-exo,3-endo,6-endo,8,9,10,10-heptachlorobornane; phases: Liquid, Gas
Property: Vapor or sublimation pressure, kPa (Liquid); method: correlation GC
Temperature, K	Vapor or sublimation pressure, kPa	uncertainty
298.15	2.344e-06	3.6e-06

System: 2-exo,3-endo,6-endo,8,9,10,10-heptachlorobornane; phases: Liquid, Gas
Property: Molar enthalpy of vaporization or sublimation, kJ/mol (Liquid); method: correlation GC
Temperature, K	Molar enthalpy of vaporization or sublimation, kJ/mol	uncertainty
298.15	81.9	5.8

System: 2-exo,5,5,8,9,9,10,10-octachlorobornane; phases: Liquid, Gas
Property: Vapor or sublimation pressure, kPa (Liquid); method: correlation GC
Temperature, K	Vapor or sublimation pressure, kPa	uncertainty
298.15	1.445e-06	2.2e-06

System: 2-exo,5,5,8,9,9,10,10-octachlorobornane; phases: Liquid, Gas
Property: Molar enthalpy of vaporization or sublimation, kJ/mol (Liquid); method: correlation GC
Temperature, K	Molar enthalpy of vaporization or sublimation, kJ/mol	uncertainty
298.15	84	6

System: 2,2,3-exo,5,5,9,9,10,10-nonachlorobornane; phases: Liquid, Gas
Property: Vapor or sublimation pressure, kPa (Liquid); method: correlation GC
Temperature, K	Vapor or sublimation pressure, kPa	uncertainty
298.15	9.77e-07	1.6e-06

System: 2,2,3-exo,5,5,9,9,10,10-nonachlorobornane; phases: Liquid, Gas
Property: Molar enthalpy of vaporization or sublimation, kJ/mol (Liquid); method: correlation GC
Temperature, K	Molar enthalpy of vaporization or sublimation, kJ/mol	uncertainty
298.15	85.2	6

System: 2,2,5,5,8,9,9,10,10-nonachlorobornane; phases: Liquid, Gas
Property: Vapor or sublimation pressure, kPa (Liquid); method: correlation GC
Temperature, K	Vapor or sublimation pressure, kPa	uncertainty
298.15	6.03e-07	1e-06

System: 2,2,5,5,8,9,9,10,10-nonachlorobornane; phases: Liquid, Gas
Property: Molar enthalpy of vaporization or sublimation, kJ/mol (Liquid); method: correlation GC
Temperature, K	Molar enthalpy of vaporization or sublimation, kJ/mol	uncertainty
298.15	87.4	6.2
