Measured thermophysical data. Measurement of the Effect of Salt on Vapor-Liquid Equilibria by Using Headspace Gas Chromatography
Source: J. Chem. Eng. Data, 2003, 10.1021/je025561f
Compound 1: ethyl acetate, C4H8O2, InChI=1S/C4H8O2/c1-3-6-4(2)5/h3H2,1-2H3
Compound 2: ethanol, C2H6O, InChI=1S/C2H6O/c1-2-3/h3H,2H2,1H3
Compound 3: calcium chloride, CaCl2, InChI=1S/Ca.2ClH/h;2*1H/q+2;;/p-2
Compound 4: lithium chloride, ClLi, InChI=1S/ClH.Li/h1H;/q;+1/p-1

System: ethanol + ethyl acetate; phases: Gas, Liquid
Fixed: Temperature, K = 313.15
Property: Mole fraction of ethyl acetate (Gas); method: CHROM:UFactor:2
Mole fraction of ethyl acetate	Mole fraction of ethyl acetate	uncertainty
0.03	0.116	0.003
0.062	0.21	0.004
0.129	0.334	0.007
0.203	0.417	0.009
0.274	0.473	0.01
0.283	0.477	0.01
0.327	0.502	0.01
0.372	0.527	0.01
0.42	0.547	0.009
0.471	0.571	0.009
0.524	0.593	0.008
0.58	0.617	0.008
0.64	0.646	0.007
0.703	0.675	0.007
0.771	0.716	0.006
0.842	0.771	0.005
0.918	0.857	0.003

System: ethanol + ethyl acetate + lithium chloride; phases: Gas, Liquid
Fixed: Temperature, K = 313.15
Property: Mole fraction of ethyl acetate (Gas); method: CHROM:UFactor:2
Mole fraction of lithium chloride	Solvent: Mole fraction of ethyl acetate	Mole fraction of ethyl acetate	uncertainty
0.03	0.062	0.294	0.006
0.03	0.131	0.424	0.009
0.03	0.204	0.509	0.01
0.03	0.285	0.571	0.009
0.03	0.374	0.617	0.008
0.03	0.474	0.669	0.007
0.03	0.584	0.721	0.007
0.03	0.705	0.789	0.006
0.06	0.062	0.325	0.007
0.06	0.13	0.467	0.01
0.06	0.205	0.572	0.009
0.06	0.285	0.632	0.008
0.06	0.375	0.682	0.007
0.06	0.472	0.738	0.006
0.06	0.582	0.788	0.006
0.06	0.705	0.857	0.005

System: ethanol + ethyl acetate + calcium chloride; phases: Gas, Liquid
Fixed: Temperature, K = 313.15
Property: Mole fraction of ethyl acetate (Gas); method: CHROM:UFactor:2
Mole fraction of calcium chloride	Solvent: Mole fraction of ethyl acetate	Mole fraction of ethyl acetate	uncertainty
0.03	0.062	0.283	0.006
0.03	0.13	0.403	0.008
0.03	0.204	0.47	0.01
0.03	0.287	0.521	0.01
0.03	0.374	0.574	0.009
0.03	0.473	0.622	0.008
0.03	0.583	0.688	0.007
0.03	0.706	0.75	0.007
0.03	0.844	0.84	0.006
0.06	0.063	0.301	0.006
0.06	0.129	0.424	0.009
0.06	0.202	0.497	0.01
0.06	0.285	0.55	0.009
0.06	0.372	0.596	0.008
0.06	0.468	0.639	0.008
0.06	0.586	0.698	0.007
0.06	0.709	0.752	0.006
