Measured thermophysical data. High-Pressure Vapor-Liquid Equilibria for CO2 + 2-Butanol, CO2 + iso-Butanol and CO2 + tert-Butanol Systems
Source: J. Chem. Eng. Data, 2003, 10.1021/je020214r
Compound 1: butan-2-ol, C4H10O, InChI=1S/C4H10O/c1-3-4(2)5/h4-5H,3H2,1-2H3, purity 99.5%
Compound 2: carbon dioxide, CO2, InChI=1S/CO2/c2-1-3, purity 99.99%
Compound 3: 2-methyl-1-propanol, C4H10O, InChI=1S/C4H10O/c1-4(2)3-5/h4-5H,3H2,1-2H3, purity 99.5%
Compound 4: 2-methylpropan-2-ol, C4H10O, InChI=1S/C4H10O/c1-4(2,3)5/h5H,1-3H3, purity 99.5%

System: butan-2-ol + carbon dioxide; phases: Liquid, Gas
Property: Vapor or sublimation pressure, kPa (Liquid); method: EBULLIO:UFactor:16
Mole fraction of carbon dioxide	Temperature, K	Vapor or sublimation pressure, kPa	uncertainty
0.2362	351.27	4920	100
0.2611	341.59	5010	90
0.2799	331.93	5010	90
0.2949	351.27	5980	110
0.33	341.59	6080	120
0.34	331.93	5890	110
0.3514	351.27	7050	140
0.3894	341.59	6960	140
0.4152	351.27	8020	160
0.4313	331.93	7050	140
0.4627	341.59	8020	160
0.4703	351.27	8990	180
0.5223	331.93	8020	160
0.5369	341.59	8990	190
0.539	351.27	9970	200
0.5994	341.59	9970	200
0.6101	351.27	11040	200
0.6111	331.93	8800	210
0.6984	351.27	12010	250
0.7078	341.59	10740	210
0.7373	331.93	9970	200
0.7972	331.93	10260	210
0.838	341.59	11720	240
0.8711	331.93	10550	210

System: butan-2-ol + carbon dioxide; phases: Gas, Liquid
Property: Mole fraction of carbon dioxide (Gas); method: Chromatography
Mole fraction of carbon dioxide	Temperature, K	Mole fraction of carbon dioxide	uncertainty
0.2362	351.27	0.9966	0.0034
0.2611	341.59	0.9981	0.0019
0.2799	331.93	0.9935	0.0065
0.2949	351.27	0.99	0.01
0.33	341.59	0.9974	0.0026
0.34	331.93	0.9972	0.0028
0.3514	351.27	0.984	0.0133
0.3894	341.59	0.9959	0.0041
0.4152	351.27	0.9824	0.0133
0.4313	331.93	0.9921	0.0079
0.4627	341.59	0.991	0.009
0.4703	351.27	0.9796	0.0133
0.5223	331.93	0.9915	0.0085
0.5369	341.59	0.9758	0.0132
0.539	351.27	0.977	0.0132
0.5994	341.59	0.9758	0.0132
0.6101	351.27	0.9669	0.0131
0.6111	331.93	0.9881	0.0119
0.6984	351.27	0.9589	0.013
0.7078	341.59	0.9679	0.0133
0.7373	331.93	0.9824	0.0133
0.7972	331.93	0.9746	0.0135
0.838	341.59	0.9277	0.0133
0.8711	331.93	0.9585	0.0134

System: 2-methyl-1-propanol + carbon dioxide; phases: Liquid, Gas
Property: Vapor or sublimation pressure, kPa (Liquid); method: EBULLIO:UFactor:32
Mole fraction of carbon dioxide	Temperature, K	Vapor or sublimation pressure, kPa	uncertainty
0.2369	351.27	5010	150
0.2481	341.59	5010	150
0.267	331.93	5010	140
0.2838	351.27	6080	170
0.3027	341.59	6080	170
0.331	351.27	6960	200
0.3372	331.93	6080	170
0.3551	341.59	6960	200
0.3855	331.93	6960	190
0.3888	351.27	8020	230
0.4189	341.59	8020	220
0.4421	351.27	8990	250
0.4678	331.93	7930	220
0.4805	341.59	8990	250
0.4997	351.27	9970	280
0.5625	331.93	8990	250
0.5625	341.59	9970	270
0.5642	351.27	11040	310
0.629	351.27	12010	340
0.664	341.59	11040	300
0.6702	331.93	9970	270
0.7443	341.59	12010	340
0.7799	331.93	11040	300
0.8956	331.93	11420	300

System: 2-methyl-1-propanol + carbon dioxide; phases: Gas, Liquid
Property: Mole fraction of carbon dioxide (Gas); method: Chromatography
Mole fraction of carbon dioxide	Temperature, K	Mole fraction of carbon dioxide	uncertainty
0.2369	351.27	0.9853	0.0133
0.2481	341.59	0.9929	0.0071
0.267	331.93	0.9961	0.0039
0.2838	351.27	0.9818	0.0133
0.3027	341.59	0.9862	0.0133
0.331	351.27	0.9793	0.0132
0.3372	331.93	0.9951	0.0049
0.3551	341.59	0.9844	0.0133
0.3855	331.93	0.9924	0.0076
0.3888	351.27	0.9787	0.0132
0.4189	341.59	0.9839	0.0133
0.4421	351.27	0.9764	0.0132
0.4678	331.93	0.9902	0.0098
0.4805	341.59	0.9806	0.0133
0.4997	351.27	0.9703	0.0131
0.5625	331.93	0.9866	0.0134
0.5625	341.59	0.9767	0.0132
0.5642	351.27	0.9658	0.0131
0.629	351.27	0.965	0.0131
0.664	341.59	0.9763	0.0132
0.6702	331.93	0.9809	0.0133
0.7443	341.59	0.9602	0.0131
0.7799	331.93	0.9601	0.0134
0.8956	331.93	0.9095	0.0134

System: 2-methylpropan-2-ol + carbon dioxide; phases: Liquid, Gas
Property: Vapor or sublimation pressure, kPa (Liquid); method: EBULLIO:UFactor:16
Mole fraction of carbon dioxide	Temperature, K	Vapor or sublimation pressure, kPa	uncertainty
0.2918	351.27	5010	90
0.3232	341.59	5010	100
0.3633	351.27	6080	110
0.3638	331.93	5010	100
0.3981	341.59	6080	110
0.4241	351.27	6960	120
0.4441	331.93	6080	110
0.4696	341.59	6960	130
0.5003	351.27	8020	140
0.5202	331.93	6960	130
0.5479	341.59	8020	140
0.5701	351.27	8990	160
0.6157	331.93	7930	140
0.6291	341.59	8990	150
0.6448	351.27	9970	170
0.7377	341.59	9970	170
0.7402	351.27	11040	190
0.7774	331.93	9480	170
0.7851	351.27	11520	180
0.7963	341.59	10550	160
0.8303	331.93	9970	170
0.8554	351.27	12010	190
0.9027	341.59	11040	170

System: 2-methylpropan-2-ol + carbon dioxide; phases: Gas, Liquid
Property: Mole fraction of carbon dioxide (Gas); method: Chromatography
Mole fraction of carbon dioxide	Temperature, K	Mole fraction of carbon dioxide	uncertainty
0.2918	351.27	0.9588	0.013
0.3232	341.59	0.9771	0.0133
0.3633	351.27	0.9573	0.013
0.3638	331.93	0.9959	0.0041
0.3981	341.59	0.9751	0.0132
0.4241	351.27	0.9541	0.013
0.4441	331.93	0.9839	0.0133
0.4696	341.59	0.9722	0.0132
0.5003	351.27	0.9524	0.0129
0.5202	331.93	0.9834	0.0133
0.5479	341.59	0.9671	0.0131
0.5701	351.27	0.9482	0.0129
0.6157	331.93	0.9814	0.0133
0.6291	341.59	0.9633	0.0131
0.6448	351.27	0.9439	0.0128
0.7377	341.59	0.9526	0.013
0.7402	351.27	0.9356	0.0128
0.7774	331.93	0.9691	0.0132
0.7851	351.27	0.9182	0.0148
0.7963	341.59	0.9454	0.0133
0.8303	331.93	0.9654	0.0132
0.8554	351.27	0.8554	0.0165
0.9027	341.59	0.9027	0.0138
