Measured thermophysical data. Excess Enthalpy, Excess Volume, Viscosity Deviation, and Speed of Sound Deviation for the Mixture Tetrahydropyran + 2,2,2-Trifluoroethanol at (283.15, 298.15, and 313.15) K
Source: J. Chem. Eng. Data, 2003, 10.1021/je025655p
Compound 1: tetrahydropyran, C5H10O, InChI=1S/C5H10O/c1-2-4-6-5-3-1/h1-5H2
Compound 2: 2,2,2-trifluoroethanol, C2H3F3O, InChI=1S/C2H3F3O/c3-2(4,5)1-6/h6H,1H2

System: tetrahydropyran; phases: Liquid
Fixed: Pressure, kPa = 101.325
Property: Viscosity, Pa*s (Liquid); method: Capillary tube (Ostwald; Ubbelohde) method
Temperature, K	Viscosity, Pa*s	uncertainty
283.15	0.0010047	9.8e-06
298.15	0.0008005	8.1e-06
313.15	0.0006494	6.7e-06

System: tetrahydropyran; phases: Liquid
Fixed: Pressure, kPa = 101.325
Property: Speed of sound, m/s (Liquid); method: Sing-around technique in a fixed-path interferometer
Temperature, K	Speed of sound, m/s	uncertainty
283.15	1335.8	1.6
298.15	1255	1.6
313.15	1199.8	1.6

System: tetrahydropyran; phases: Liquid
Fixed: Pressure, kPa = 101.325
Property: Mass density, kg/m3 (Liquid); method: Vibrating tube method
Temperature, K	Mass density, kg/m3	uncertainty
283.15	894.08	0.46
298.15	879.18	0.45
313.15	864.37	0.45

System: 2,2,2-trifluoroethanol; phases: Liquid
Fixed: Pressure, kPa = 101.325
Property: Viscosity, Pa*s (Liquid); method: Capillary tube (Ostwald; Ubbelohde) method
Temperature, K	Viscosity, Pa*s	uncertainty
283.15	0.0026931	2.34e-05
298.15	0.0017546	1.66e-05
313.15	0.0012085	1.2e-05

System: 2,2,2-trifluoroethanol; phases: Liquid
Fixed: Pressure, kPa = 101.325
Property: Speed of sound, m/s (Liquid); method: Sing-around technique in a fixed-path interferometer
Temperature, K	Speed of sound, m/s	uncertainty
283.15	872.3	1.2
298.15	826.7	1.1
313.15	791.7	1.1

System: 2,2,2-trifluoroethanol; phases: Liquid
Fixed: Pressure, kPa = 101.325
Property: Mass density, kg/m3 (Liquid); method: Vibrating tube method
Temperature, K	Mass density, kg/m3	uncertainty
283.15	1407.89	0.21
298.15	1382.44	0.2
313.15	1356.91	0.19

System: 2,2,2-trifluoroethanol + tetrahydropyran; phases: Liquid
Fixed: Pressure, kPa = 101.3
Property: Excess molar enthalpy (molar enthalpy of mixing), kJ/mol (Liquid); method: Flow calorimetry
Temperature, K	Mole fraction of tetrahydropyran	Excess molar enthalpy (molar enthalpy of mixing), kJ/mol	uncertainty
283.15	0.065	-0.428	0.008
283.15	0.127	-0.743	0.01
283.15	0.248	-1.184	0.015
283.15	0.36	-1.43	0.018
283.15	0.466	-1.513	0.019
283.15	0.57	-1.464	0.018
283.15	0.664	-1.269	0.016
283.15	0.755	-1.015	0.013
283.15	0.839	-0.701	0.01
283.15	0.921	-0.347	0.006
283.15	0.962	-0.155	0.005
298.15	0.065	-0.473	0.009
298.15	0.127	-0.855	0.012
298.15	0.248	-1.348	0.017
298.15	0.36	-1.608	0.02
298.15	0.466	-1.689	0.021
298.15	0.57	-1.62	0.02
298.15	0.664	-1.419	0.018
298.15	0.755	-1.12	0.015
298.15	0.839	-0.771	0.011
298.15	0.921	-0.38	0.007
298.15	0.962	-0.179	0.006
313.15	0.065	-0.478	0.009
313.15	0.127	-0.9	0.013
313.15	0.248	-1.457	0.019
313.15	0.36	-1.761	0.022
313.15	0.466	-1.856	0.023
313.15	0.57	-1.786	0.022
313.15	0.664	-1.564	0.02
313.15	0.755	-1.242	0.016
313.15	0.839	-0.851	0.012
313.15	0.921	-0.417	0.008
313.15	0.962	-0.195	0.006

System: 2,2,2-trifluoroethanol + tetrahydropyran; phases: Liquid
Fixed: Pressure, kPa = 101.3
Property: Viscosity, Pa*s (Liquid); method: Capillary tube (Ostwald; Ubbelohde) method
Temperature, K	Mole fraction of tetrahydropyran	Viscosity, Pa*s	uncertainty
283.15	0.0508	0.0025212	1.54e-05
283.15	0.1011	0.0022653	1.4e-05
283.15	0.2025	0.0018338	1.17e-05
283.15	0.3024	0.0015462	1e-05
283.15	0.404	0.0013481	8.9e-06
283.15	0.5027	0.0012201	8.3e-06
283.15	0.6069	0.0011231	7.9e-06
283.15	0.7013	0.0010639	7.7e-06
283.15	0.8016	0.0010264	7.6e-06
283.15	0.9064	0.0010104	7.8e-06
298.15	0.0508	0.0016802	1.1e-05
298.15	0.1011	0.0015574	9.7e-06
298.15	0.2025	0.0013301	8.5e-06
298.15	0.3024	0.0011586	7.6e-06
298.15	0.404	0.0010345	7e-06
298.15	0.5027	0.0009509	6.6e-06
298.15	0.6069	0.0008855	6.4e-06
298.15	0.7013	0.000845	6.2e-06
298.15	0.8016	0.0008183	6.2e-06
298.15	0.9064	0.0008047	6.3e-06
313.15	0.0508	0.0011711	7.3e-06
313.15	0.1011	0.0011118	7e-06
313.15	0.2025	0.0009911	6.5e-06
313.15	0.3024	0.000891	6e-06
313.15	0.404	0.0008127	5.6e-06
313.15	0.5027	0.000757	5.4e-06
313.15	0.6069	0.0007128	5.2e-06
313.15	0.7013	0.0006832	5.2e-06
313.15	0.8016	0.0006642	5.2e-06
313.15	0.9064	0.0006543	5.3e-06

System: 2,2,2-trifluoroethanol + tetrahydropyran; phases: Liquid
Fixed: Pressure, kPa = 101.3
Property: Speed of sound, m/s (Liquid); method: Sing-around technique in a fixed-path interferometer
Temperature, K	Mole fraction of tetrahydropyran	Speed of sound, m/s	uncertainty
283.15	0.1039	903.5	1.1
283.15	0.2071	942.2	1.2
283.15	0.3067	985.6	1.2
283.15	0.4123	1034	1.2
283.15	0.5017	1076.2	1.3
283.15	0.6011	1124.9	1.3
283.15	0.7183	1184.3	1.4
283.15	0.8206	1237.7	1.4
283.15	0.8955	1278.1	1.5
298.15	0.1023	850.5	1.1
298.15	0.2029	886.4	1.2
298.15	0.3203	933.6	1.2
298.15	0.412	972.6	1.2
298.15	0.5208	1021	1.3
298.15	0.6171	1065.4	1.3
298.15	0.7342	1121	1.4
298.15	0.7996	1152.3	1.4
298.15	0.8967	1201.6	1.5
313.15	0.0995	813.9	1.1
313.15	0.2	845.8	1.2
313.15	0.3049	885	1.2
313.15	0.4111	927.4	1.2
313.15	0.504	967.4	1.3
313.15	0.6032	1010.4	1.3
313.15	0.733	1070.3	1.4
313.15	0.8321	1116.2	1.4
313.15	0.8988	1149.4	1.5

System: 2,2,2-trifluoroethanol + tetrahydropyran; phases: Liquid
Fixed: Pressure, kPa = 101.3
Property: Mass density, kg/m3 (Liquid); method: Vibrating tube method
Temperature, K	Mole fraction of tetrahydropyran	Mass density, kg/m3	uncertainty
283.15	0.1039	1328.18	0.22
283.15	0.2071	1259.32	0.25
283.15	0.3073	1199.39	0.28
283.15	0.4127	1142.29	0.31
283.15	0.5017	1097.77	0.34
283.15	0.6011	1051.7	0.36
283.15	0.7183	1001.3	0.39
283.15	0.8206	960.36	0.42
283.15	0.8955	931.9	0.44
298.15	0.1023	1305.58	0.22
298.15	0.2029	1239.41	0.24
298.15	0.3203	1170.85	0.28
298.15	0.412	1122.5	0.3
298.15	0.5192	1070.38	0.34
298.15	0.6171	1026.55	0.36
298.15	0.7342	977.81	0.39
298.15	0.793	954.59	0.41
298.15	0.8967	915.73	0.43
313.15	0.1028	1280.8	0.21
313.15	0.2	1217.96	0.24
313.15	0.3049	1157.77	0.27
313.15	0.4108	1102.63	0.3
313.15	0.504	1058.19	0.32
313.15	0.5961	1017.26	0.35
313.15	0.6986	974.97	0.38
313.15	0.8321	923.77	0.41
313.15	0.8986	899.6	0.42
