Measured thermophysical data. Heat Capacities of alpha,omega-Dichloroalkanes at Temperatures from 284.15 K to 353.15 K and a Group Additivity Analysis
Source: J. Chem. Eng. Data, 2003, 10.1021/je020042y
Compound 1: 1,2-dichloroethane, C2H4Cl2, InChI=1S/C2H4Cl2/c3-1-2-4/h1-2H2, purity 99%
Compound 2: 1,3-dichloropropane, C3H6Cl2, InChI=1S/C3H6Cl2/c4-2-1-3-5/h1-3H2, purity 99%
Compound 3: 1,5-dichloropentane, C5H10Cl2, InChI=1S/C5H10Cl2/c6-4-2-1-3-5-7/h1-5H2, purity 99%
Compound 4: 1,6-dichlorohexane, C6H12Cl2, InChI=1S/C6H12Cl2/c7-5-3-1-2-4-6-8/h1-6H2, purity 98%
Compound 5: 1,4-dichlorobutane, C4H8Cl2, InChI=1S/C4H8Cl2/c5-3-1-2-4-6/h1-4H2, purity 99.5%
Compound 6: water, H2O, InChI=1S/H2O/h1H2
Compound 7: toluene, C7H8, InChI=1S/C7H8/c1-7-5-3-2-4-6-7/h2-6H,1H3, purity 99.8%
Compound 8: butan-1-ol, C4H10O, InChI=1S/C4H10O/c1-2-3-4-5/h5H,2-4H2,1H3, purity 99.9%

System: 1,2-dichloroethane; phases: Liquid, Gas
Property: Molar heat capacity at saturation pressure, J/K/mol (Liquid); method: LDSC:UFactor:0.5
Temperature, K	Molar heat capacity at saturation pressure, J/K/mol	uncertainty
284.16	128.02	0.99
286.66	128.21	0.99
289.15	128.39	0.99
291.66	128.58	1
294.15	128.75	1
296.65	128.94	1
298.15	129.06	1
299.16	129.11	1
301.65	129.39	1
304.16	129.47	1
308.56	129.86	1.01
309.15	129.86	1.01
311.66	130.16	1.01
314.15	130.4	1.01
316.65	130.55	1.01
319.16	130.88	1.01
321.65	131.09	1.02
324.16	131.2	1.02
326.65	131.56	1.02
329.15	131.87	1.02
331.66	132.06	1.02
334.15	132.24	1.02
336.66	132.59	1.03
339.16	132.82	1.03
341.65	132.96	1.03
344.16	133.32	1.03
346.65	133.59	1.03
349.15	133.83	1.04
351.66	134.22	1.04
353.14	134.46	1.04

System: 1,3-dichloropropane; phases: Liquid, Gas
Property: Molar heat capacity at saturation pressure, J/K/mol (Liquid); method: LDSC:UFactor:0.5
Temperature, K	Molar heat capacity at saturation pressure, J/K/mol	uncertainty
284.16	154.94	1.2
286.66	155.4	1.2
289.15	155.76	1.21
291.66	156.11	1.21
294.15	156.39	1.21
296.65	156.76	1.21
298.15	157.03	1.22
299.16	157.2	1.22
301.65	157.65	1.22
304.16	157.89	1.22
308.56	158.63	1.23
309.15	158.67	1.23
311.66	159.23	1.23
314.15	159.54	1.24
316.65	159.89	1.24
319.16	160.47	1.24
321.65	160.93	1.25
324.16	161.01	1.25
326.65	161.59	1.25
329.15	162.11	1.26
331.66	162.48	1.26
334.15	162.96	1.26
336.66	163.33	1.27
339.16	163.82	1.27
341.65	164.1	1.27
344.16	164.44	1.27
346.65	165.1	1.28
349.15	165.38	1.28
351.66	165.81	1.28
353.14	166.22	1.29

System: 1,5-dichloropentane; phases: Liquid, Gas
Property: Molar heat capacity at saturation pressure, J/K/mol (Liquid); method: LDSC:UFactor:0.5
Temperature, K	Molar heat capacity at saturation pressure, J/K/mol	uncertainty
284.16	209.5	1.62
286.66	210.04	1.63
289.15	210.65	1.63
291.66	211.2	1.64
294.15	211.7	1.64
296.65	212.19	1.64
298.15	212.63	1.65
299.16	212.96	1.65
301.65	213.55	1.65
304.16	214.12	1.66
308.56	215.36	1.67
309.15	215.26	1.67
311.66	215.96	1.67
314.15	216.61	1.68
316.65	217.17	1.68
319.16	217.92	1.69
321.65	218.56	1.69
324.16	219	1.7
326.65	219.91	1.7
329.15	220.61	1.71
331.66	221.16	1.71
334.15	221.76	1.72
336.66	222.43	1.72
339.16	223.1	1.73
341.65	223.58	1.73
344.16	224.7	1.74
346.65	225.01	1.74
349.15	225.75	1.75
351.66	226.41	1.75
353.14	227.13	1.76

System: 1,6-dichlorohexane; phases: Liquid, Gas
Property: Molar heat capacity at saturation pressure, J/K/mol (Liquid); method: LDSC:UFactor:0.5
Temperature, K	Molar heat capacity at saturation pressure, J/K/mol	uncertainty
284.16	236.57	1.83
286.66	237.13	1.84
289.15	237.89	1.84
291.66	238.51	1.85
294.15	239.26	1.85
296.65	239.89	1.86
298.15	240.39	1.86
299.16	240.68	1.86
301.65	241.35	1.87
304.16	242	1.87
308.56	243	1.88
309.15	243.48	1.89
311.66	244.27	1.89
314.15	245.06	1.9
316.65	245.79	1.9
319.16	246.57	1.91
321.65	247.24	1.92
324.16	247.78	1.92
326.65	248.95	1.93
329.15	249.58	1.93
331.66	250.36	1.94
334.15	251.24	1.95
336.66	252	1.95
339.16	252.72	1.96
341.65	253.7	1.97
344.16	254.49	1.97
346.65	255.12	1.98
349.15	255.75	1.98
351.66	257	1.99
353.14	257.47	1.99

System: 1,4-dichlorobutane; phases: Liquid, Gas
Property: Molar heat capacity at saturation pressure, J/K/mol (Liquid); method: LDSC:UFactor:0.5
Temperature, K	Molar heat capacity at saturation pressure, J/K/mol	uncertainty
284.16	181.25	1.4
286.66	181.71	1.41
289.15	182.15	1.41
291.66	182.62	1.41
294.15	182.99	1.42
296.65	183.49	1.42
298.15	183.76	1.42
299.16	183.89	1.42
301.65	184.47	1.43
304.16	184.8	1.43
308.56	185.71	1.44
309.15	185.83	1.44
311.66	186.41	1.44
314.15	186.88	1.45
316.65	187.38	1.45
319.16	187.89	1.46
321.65	188.52	1.46
324.16	188.85	1.46
326.65	189.48	1.47
329.15	190.01	1.47
331.66	190.54	1.48
334.15	190.99	1.48
336.66	191.48	1.48
339.16	192	1.49
341.65	192.36	1.49
344.16	193.05	1.5
346.65	193.63	1.5
349.15	194	1.5
351.66	194.7	1.51
353.14	195.12	1.51

System: water; phases: Liquid, Gas
Property: Molar heat capacity at saturation pressure, J/K/mol (Liquid); method: LDSC:UFactor:0.5
Temperature, K	Molar heat capacity at saturation pressure, J/K/mol	uncertainty
283.15	75.47	0.58
293.15	75.29	0.58
303.15	75.29	0.58
313.15	75.34	0.58
323.15	75.32	0.58
333.15	75.33	0.58
343.15	75.38	0.58

System: toluene; phases: Liquid, Gas
Property: Molar heat capacity at saturation pressure, J/K/mol (Liquid); method: LDSC:UFactor:0.5
Temperature, K	Molar heat capacity at saturation pressure, J/K/mol	uncertainty
283.15	152.85	1.18
293.15	155.56	1.21
303.15	158.38	1.23
313.15	161.47	1.25
323.15	164.51	1.27
333.15	167.63	1.3
343.15	170.85	1.32

System: butan-1-ol; phases: Liquid, Gas
Property: Molar heat capacity at saturation pressure, J/K/mol (Liquid); method: LDSC:UFactor:0.5
Temperature, K	Molar heat capacity at saturation pressure, J/K/mol	uncertainty
303.15	181.16	1.4
313.15	188.39	1.46
323.15	196.66	1.52
333.15	205.33	1.59
343.15	214.22	1.66
