Measured thermophysical data. Solubilities of Some 2H-Chromene Derivatives in Supercritical Carbon Dioxide
Source: J. Chem. Eng. Data, 2003, 10.1021/je0201875
Compound 1: carbon dioxide, CO2, InChI=1S/CO2/c2-1-3
Compound 2: dimethyl 2H-1-benzopyran-2,3-dicarboxylate, C13H12O5, InChI=1S/C13H12O5/c1-16-12(14)9-7-8-5-3-4-6-10(8)18-11(9)13(15)17-2/h3-7,11H,1-2H3, purity 99%
Compound 3: di-tert-butyl-3H-naphtho[2,1-b]pyran-2,3-dicarboxylate, C23H26O5, InChI=1S/C23H26O5/c1-22(2,3)27-20(24)17-13-16-15-10-8-7-9-14(15)11-12-18(16)26-19(17)21(25)28-23(4,5)6/h7-13,19H,1-6H3, purity 99%
Compound 4: dimethyl-6-bromo-2H-1-benzopyran-2,3-dicarboxylate, C13H11BrO5, InChI=1S/C13H11BrO5/c1-17-12(15)9-6-7-5-8(14)3-4-10(7)19-11(9)13(16)18-2/h3-6,11H,1-2H3, purity 99%
Compound 5: dimethyl-3H-naphtho[2,1-b]pyran-2,3-dicarboxylate, C17H14O5, InChI=1S/C17H14O5/c1-20-16(18)13-9-12-11-6-4-3-5-10(11)7-8-14(12)22-15(13)17(19)21-2/h3-9,15H,1-2H3, purity 99%

System: carbon dioxide + dimethyl 2H-1-benzopyran-2,3-dicarboxylate; phases: Liquid, Gas
Property: Mole fraction of carbon dioxide (Liquid); method: OTHER
Temperature, K	Pressure, kPa	Mole fraction of carbon dioxide	uncertainty
308	12200	0.00586	0.00088
308	15200	0.0075	0.00113
308	18200	0.00935	0.0014
308	21300	0.00988	0.00148
308	24300	0.01031	0.00155
308	27400	0.01184	0.00178
308	30400	0.01304	0.00196
308	33400	0.01377	0.00207
308	35500	0.0143	0.00215
318	12200	0.00522	0.00078
318	15200	0.01036	0.00155
318	18200	0.01353	0.00203
318	21300	0.01757	0.00264
318	24300	0.02098	0.00315
318	27400	0.02355	0.00353
318	30400	0.02455	0.00368
318	33400	0.0259	0.00389
318	35500	0.02782	0.00417

System: carbon dioxide + di-tert-butyl-3H-naphtho[2,1-b]pyran-2,3-dicarboxylate; phases: Liquid, Gas
Property: Mole fraction of carbon dioxide (Liquid); method: OTHER
Temperature, K	Pressure, kPa	Mole fraction of carbon dioxide	uncertainty
308	12200	0.000898	0.000135
308	15200	0.001108	0.000166
308	18200	0.001217	0.000183
308	21300	0.001277	0.000192
308	24300	0.001491	0.000224
308	27400	0.001498	0.000225
308	30400	0.001618	0.000243
308	33400	0.0017	0.000255
308	35500	0.001732	0.00026
318	12200	0.000633	9.5e-05
318	15200	0.000799	0.00012
318	18200	0.00122	0.000183
318	21300	0.001408	0.000211
318	24300	0.001609	0.000241
318	27400	0.002024	0.000304
318	30400	0.002307	0.000346
318	33400	0.002471	0.000371
318	35500	0.00263	0.000395
328	12200	0.00033	5e-05
328	15200	0.000347	5.2e-05
328	18200	0.001035	0.000155
328	21300	0.001761	0.000264
328	24300	0.002082	0.000312
328	27400	0.002558	0.000384
328	30400	0.00308	0.000462
328	33400	0.003431	0.000515
328	35500	0.003731	0.00056
338	12200	0.000228	3.4e-05
338	15200	0.000245	3.7e-05
338	18200	0.000962	0.000144
338	21300	0.001972	0.000296
338	24300	0.002971	0.000446
338	27400	0.003536	0.00053
338	30400	0.004262	0.000639
338	33400	0.005315	0.000797
338	35500	0.005936	0.00089
348	12200	0.000199	3e-05
348	15200	0.000224	3.4e-05
348	18200	0.001108	0.000166
348	21300	0.001555	0.000233
348	24300	0.003307	0.000496
348	27400	0.004704	0.000706
348	30400	0.00676	0.001014
348	33400	0.00859	0.001289
348	35500	0.009919	0.001488

System: carbon dioxide + dimethyl-6-bromo-2H-1-benzopyran-2,3-dicarboxylate; phases: Liquid, Gas
Property: Mole fraction of carbon dioxide (Liquid); method: OTHER
Temperature, K	Pressure, kPa	Mole fraction of carbon dioxide	uncertainty
308	12200	0.000178	2.7e-05
308	15200	0.000213	3.2e-05
308	18200	0.000251	3.8e-05
308	21300	0.000333	5e-05
308	24300	0.000341	5.1e-05
308	27400	0.000435	6.5e-05
308	30400	0.000474	7.1e-05
308	33400	0.000521	7.8e-05
308	35500	0.000573	8.6e-05
318	12200	0.000161	2.4e-05
318	15200	0.000214	3.2e-05
318	18200	0.00029	4.4e-05
318	21300	0.000389	5.8e-05
318	24300	0.000478	7.2e-05
318	27400	0.000589	8.8e-05
318	30400	0.000712	0.000107
318	33400	0.000794	0.000119
318	35500	0.000936	0.00014
328	12200	0.000164	2.5e-05
328	15200	0.000162	2.4e-05
328	18200	0.000294	4.4e-05
328	21300	0.000525	7.9e-05
328	24300	0.000676	0.000101
328	27400	0.000853	0.000128
328	30400	0.001049	0.000157
328	33400	0.001261	0.000189
328	35500	0.00143	0.000215
338	12200	4.6e-05	7e-06
338	15200	6.8e-05	1e-05
338	18200	0.000251	3.8e-05
338	21300	0.000512	7.7e-05
338	24300	0.000775	0.000116
338	27400	0.000888	0.000133
338	30400	0.001575	0.000236
338	33400	0.001923	0.000288
338	35500	0.002073	0.000311
348	12200	4.1e-05	6e-06
348	15200	7.4e-05	1.1e-05
348	18200	0.000265	4e-05
348	21300	0.000516	7.7e-05
348	24300	0.000818	0.000123
348	27400	0.001396	0.000209
348	30400	0.001996	0.000299
348	33400	0.002217	0.000333
348	35500	0.002517	0.000378

System: carbon dioxide + dimethyl-3H-naphtho[2,1-b]pyran-2,3-dicarboxylate; phases: Liquid, Gas
Property: Mole fraction of carbon dioxide (Liquid); method: OTHER
Temperature, K	Pressure, kPa	Mole fraction of carbon dioxide	uncertainty
308	15200	0.000208	3.1e-05
308	18200	0.000242	3.6e-05
308	21300	0.000265	4e-05
308	24300	0.000348	5.2e-05
308	27400	0.000378	5.7e-05
308	30400	0.000389	5.8e-05
308	33400	0.000455	6.8e-05
308	35500	0.000485	7.3e-05
318	15200	0.000185	2.8e-05
318	18200	0.000242	3.6e-05
318	21300	0.000284	4.3e-05
318	24300	0.00038	5.7e-05
318	27400	0.000518	7.8e-05
318	30400	0.000585	8.8e-05
318	33400	0.000707	0.000106
318	35500	0.000797	0.00012
328	15200	0.000153	2.3e-05
328	18200	0.000229	3.4e-05
328	21300	0.000298	4.5e-05
328	24300	0.000438	6.6e-05
328	27400	0.000559	8.4e-05
328	30400	0.00072	0.000108
328	33400	0.000938	0.000141
328	35500	0.001066	0.00016
338	15200	0.000157	2.4e-05
338	18200	0.000222	3.3e-05
338	21300	0.000401	6e-05
338	24300	0.000614	9.2e-05
338	27400	0.000787	0.000118
338	30400	0.00106	0.000159
338	33400	0.001131	0.00017
338	35500	0.001496	0.000224
348	15200	0.000133	2e-05
348	18200	0.000153	2.3e-05
348	21300	0.000296	4.4e-05
348	24300	0.0006	9e-05
348	27400	0.000821	0.000123
348	30400	0.00115	0.000173
348	33400	0.001518	0.000228
348	35500	0.001746	0.000262
