Measured thermophysical data. High Pressure Phase Equilibria of the Related Substances in the Limonene Oxidation in Supercritical CO2
Source: J. Chem. Eng. Data, 2003, 10.1021/je020150k
Compound 1: d-carvone, C10H14O, InChI=1S/C10H14O/c1-7(2)9-5-4-8(3)10(11)6-9/h4,9H,1,5-6H2,2-3H3/t9-/m0/s1
Compound 2: 1-methyl-4-(1-methylethenyl)-7-oxabicyclo[4.1.0]heptane, C10H16O, InChI=1S/C10H16O/c1-7(2)8-4-5-10(3)9(6-8)11-10/h8-9H,1,4-6H2,2-3H3
Compound 3: dichloromethane, CH2Cl2, InChI=1S/CH2Cl2/c2-1-3/h1H2
Compound 4: acetonitrile, C2H3N, InChI=1S/C2H3N/c1-2-3/h1H3
Compound 5: carbon dioxide, CO2, InChI=1S/CO2/c2-1-3

System: acetonitrile + carbon dioxide; phases: Liquid, Gas
Property: Vapor or sublimation pressure, kPa (Liquid); method: CCELL:UFactor:8
Temperature, K	Mole fraction of carbon dioxide	Vapor or sublimation pressure, kPa	uncertainty
313	0.4919	4880	140
313	0.5925	5640	160
313	0.7385	6700	180
313	0.8844	7570	200
313	0.9426	8010	210
313	0.9694	8100	210
323	0.4919	5790	160
323	0.5925	6680	180
323	0.7385	8120	210
323	0.8844	9190	240
323	0.9426	9050	230
333	0.4919	6640	170
333	0.5925	7780	200
333	0.7385	9380	240
333	0.8844	10610	270
343	0.4919	7500	190
343	0.5925	8840	230
343	0.7385	10660	270
343	0.8844	11700	300

System: acetonitrile + carbon dioxide; phases: Gas, Liquid
Property: Vapor or sublimation pressure, kPa (Gas); method: CCELL:UFactor:8
Temperature, K	Mole fraction of carbon dioxide	Vapor or sublimation pressure, kPa	uncertainty
323	0.9694	9020	230
333	0.9426	10080	250
333	0.9694	9930	250
343	0.9426	10990	280
343	0.9694	10610	270

System: dichloromethane + carbon dioxide; phases: Liquid, Gas
Property: Vapor or sublimation pressure, kPa (Liquid); method: CCELL:UFactor:8
Temperature, K	Mole fraction of carbon dioxide	Vapor or sublimation pressure, kPa	uncertainty
313	0.5686	4650	140
313	0.658	5390	150
313	0.7437	5940	160
313	0.8527	6810	180
313	0.9301	7430	200
313	0.9378	7620	200
313	0.947	7720	200
323	0.5686	5630	150
323	0.658	6370	170
323	0.7437	7040	180
323	0.8522	8260	210
323	0.8977	8690	220
323	0.9301	8750	230
323	0.9378	8730	220
333	0.5686	6470	170
333	0.658	7300	190
333	0.7437	8140	210
333	0.8522	9290	240
333	0.8977	9630	240
343	0.5686	7330	190
343	0.658	8380	210
343	0.7437	9170	230
343	0.8522	10190	260

System: dichloromethane + carbon dioxide; phases: Gas, Liquid
Property: Vapor or sublimation pressure, kPa (Gas); method: CCELL:UFactor:8
Temperature, K	Mole fraction of carbon dioxide	Vapor or sublimation pressure, kPa	uncertainty
313	0.9727	7360	190
323	0.9727	8300	210
333	0.9301	9260	230
343	0.8977	10090	250

System: carbon dioxide + d-carvone; phases: Liquid, Gas
Property: Vapor or sublimation pressure, kPa (Liquid); method: CCELL:UFactor:8
Temperature, K	Mole fraction of carbon dioxide	Vapor or sublimation pressure, kPa	uncertainty
313	0.7387	7760	210
313	0.8368	8140	230
313	0.8979	8370	250
313	0.9288	8480	250
313	0.9522	8500	250
313	0.9663	8550	250
313	0.9788	8580	250
323	0.7387	9540	250
323	0.8368	10360	280
323	0.8979	11110	300
323	0.9288	11040	300
323	0.9522	11050	300
333	0.7387	11350	300
333	0.8368	12600	330
333	0.8979	13440	350
333	0.9288	13470	360
343	0.7387	13340	350
343	0.8368	14830	380
343	0.8979	15630	400

System: carbon dioxide + d-carvone; phases: Gas, Liquid
Property: Vapor or sublimation pressure, kPa (Gas); method: CCELL:UFactor:8
Temperature, K	Mole fraction of carbon dioxide	Vapor or sublimation pressure, kPa	uncertainty
313	0.9894	8480	240
313	0.9954	8410	230
323	0.9663	10840	290
323	0.9788	10790	290
323	0.9894	10820	290
323	0.9954	10540	290
333	0.9522	13420	350
333	0.9663	13210	350
333	0.9788	12940	340
333	0.9894	12720	330
333	0.9954	12050	330
343	0.9288	15590	400
343	0.9522	15620	400
343	0.9663	15170	390
343	0.9788	14660	380
343	0.9894	14160	370
343	0.9954	13240	370

System: carbon dioxide + 1-methyl-4-(1-methylethenyl)-7-oxabicyclo[4.1.0]heptane; phases: Liquid, Gas
Property: Vapor or sublimation pressure, kPa (Liquid); method: CCELL:UFactor:8
Temperature, K	Mole fraction of carbon dioxide	Vapor or sublimation pressure, kPa	uncertainty
313	0.8908	8290	220
313	0.9334	8360	230
313	0.9751	8420	230
313	0.979	8460	230
313	0.9876	8430	230
323	0.8908	9980	260
323	0.9334	10360	270
323	0.9751	10320	270
323	0.979	10220	270
333	0.8908	11860	310
333	0.9334	12160	310
343	0.8908	13760	350
343	0.9334	13860	350

System: carbon dioxide + 1-methyl-4-(1-methylethenyl)-7-oxabicyclo[4.1.0]heptane; phases: Gas, Liquid
Property: Vapor or sublimation pressure, kPa (Gas); method: CCELL:UFactor:8
Temperature, K	Mole fraction of carbon dioxide	Vapor or sublimation pressure, kPa	uncertainty
313	0.9933	8210	220
323	0.9876	9720	250
323	0.9933	9510	250
333	0.9751	12170	320
333	0.979	11890	320
333	0.9876	10900	290
333	0.9933	10630	270
343	0.9751	13660	350
343	0.979	13500	370
343	0.9876	11840	350
