Measured thermophysical data. Standard Sublimation Enthalpies of Erbium Trichloride, Tribromide, and Triiodide
Source: J. Chem. Eng. Data, 2003, 10.1021/je020220n
Compound 1: erbium trichloride, Cl3Er, InChI=1S/3ClH.Er/h3*1H;/q;;;+3/p-3, purity 99.8%
Compound 2: erbium bromide (ErBr3), Br3Er, InChI=1S/3BrH.Er/h3*1H;/q;;;+3/p-3, purity 99.8%
Compound 3: erbium iodide, ErI3, InChI=1S/Er.3HI/h;3*1H/q+3;;;/p-3, purity 99.8%

System: erbium trichloride; phases: Crystal, Gas
Property: Vapor or sublimation pressure, kPa (Crystal); method: OTHER:dPV:30%
Temperature, K	Vapor or sublimation pressure, kPa	uncertainty
880	1.07e-05	3.2e-06
892	1.58e-05	4.7e-06
897	2.14e-05	6.4e-06
903	2.69e-05	8.1e-06
907	1.7e-05	5.1e-06
907	3.24e-05	9.7e-06
913	4.27e-05	1.28e-05
916	5.13e-05	1.54e-05
920	3.39e-05	1.02e-05
921	5.89e-05	1.77e-05
923	3.39e-05	1.02e-05
925	4.27e-05	1.28e-05
925	6.92e-05	2.08e-05
929	5.01e-05	1.5e-05
932	5.01e-05	1.5e-05
932	5.01e-05	1.5e-05
932	4.27e-05	1.28e-05
933	0.0001023	3.07e-05
935	5.01e-05	1.5e-05
935	0.0001072	3.22e-05
936	6.76e-05	2.03e-05
943	8.51e-05	2.55e-05
943	8.51e-05	2.55e-05
943	0.0001479	4.44e-05
943	0.0001445	4.34e-05
943	6.46e-05	1.94e-05
948	0.0001349	4.05e-05
949	8.51e-05	2.55e-05
950	0.0001995	5.99e-05
951	0.0001995	5.99e-05
952	0.0001175	3.53e-05
953	0.0001349	4.05e-05
954	0.0001	3e-05
958	0.0001514	4.54e-05
958	0.0001862	5.59e-05
959	0.0002754	8.26e-05
960	0.0002754	8.26e-05
963	0.0001514	4.54e-05
963	0.0002042	6.13e-05
963	0.0001698	5.09e-05
963	0.0001445	4.34e-05
968	0.0002188	6.56e-05
968	0.0002692	8.08e-05
968	0.0003715	0.0001115
970	0.0002188	6.56e-05
970	0.0003802	0.0001141
972	0.0002692	8.08e-05
976	0.0002344	7.03e-05
977	0.0003981	0.0001194
977	0.0002455	7.37e-05
978	0.0003236	9.71e-05
978	0.0003236	9.71e-05
981	0.0003715	0.0001115
983	0.0004898	0.0001469
986	0.0004365	0.000131
986	0.0004365	0.000131
988	0.0003467	0.000104
990	0.000631	0.0001893
990	0.0004074	0.0001222
990	0.0005012	0.0001504
995	0.0005754	0.0001726
995	0.000631	0.0001893
997	0.0008318	0.0002495
998	0.0004786	0.0001436
999	0.0006761	0.0002028
1003	0.0006607	0.0001982
1003	0.0008511	0.0002553
1004	0.0007762	0.0002329
1008	0.0009333	0.00028
1008	0.0006761	0.0002028
1012	0.0010715	0.0003215
1013	0.0010965	0.000329
1014	0.0014125	0.0004238
1016	0.0010715	0.0003215
1017	0.0012882	0.0003865
1018	0.0009333	0.00028
1021	0.0014454	0.0004336
1022	0.0015136	0.0004541
1025	0.0019498	0.0005849
1025	0.0016982	0.0005095
1028	0.0013183	0.0003955
1030	0.0015136	0.0004541
1030	0.0019498	0.000585
1031	0.002138	0.0006414
1033	0.0025119	0.0007536
1034	0.0025119	0.0007536
1037	0.0024547	0.0007364
1040	0.0028184	0.0008455
1040	0.0031623	0.0009487
1040	0.0023442	0.0007033

System: erbium bromide (ErBr3); phases: Crystal, Gas
Property: Vapor or sublimation pressure, kPa (Crystal); method: OTHER:dPV:30%
Temperature, K	Vapor or sublimation pressure, kPa	uncertainty
919	2.82e-05	8.5e-06
930	4.17e-05	1.25e-05
930	7.08e-05	2.12e-05
941	7.08e-05	2.12e-05
942	8.91e-05	2.67e-05
942	0.0001122	3.37e-05
948	9.77e-05	2.93e-05
952	0.000123	3.69e-05
954	0.0001413	4.24e-05
956	0.000182	5.46e-05
959	0.0001413	4.24e-05
961	0.0001995	5.99e-05
962	0.0001778	5.33e-05
964	0.000195	5.85e-05
966	0.0001995	5.99e-05
968	0.000182	5.46e-05
970	0.0002692	8.08e-05
970	0.0002455	7.37e-05
971	0.0002951	8.85e-05
973	0.0002692	8.08e-05
977	0.0003467	0.000104
979	0.0003311	9.93e-05
979	0.0002818	8.45e-05
982	0.0003631	0.0001089
984	0.0004898	0.0001469
988	0.0004786	0.0001436
989	0.0004677	0.0001403
990	0.0004898	0.0001469
993	0.0005623	0.0001687
993	0.0004169	0.0001251
998	0.000631	0.0001893
998	0.0006166	0.000185
998	0.0007943	0.0002383
998	0.0006166	0.000185
1004	0.0009333	0.00028
1007	0.0008318	0.0002495
1008	0.0006761	0.0002028
1008	0.0008511	0.0002553
1009	0.000871	0.0002613
1010	0.0009772	0.0002932
1015	0.001349	0.0004047
1018	0.0011482	0.0003445
1018	0.001122	0.0003366
1020	0.001	0.0003
1025	0.0016982	0.0005095
1025	0.0014454	0.0004336
1026	0.0015136	0.0004541
1028	0.0020893	0.0006268
1033	0.002138	0.0006414
1033	0.0015849	0.0004755
1036	0.0020417	0.0006125
1036	0.0025704	0.0007711
1036	0.0020893	0.0006268
1045	0.0029512	0.0008854
1045	0.0028184	0.0008455
1051	0.0036308	0.0010892
1056	0.0038905	0.0011672
1058	0.0043652	0.0013096

System: erbium iodide; phases: Crystal, Gas
Property: Vapor or sublimation pressure, kPa (Crystal); method: OTHER:dPV:40%
Temperature, K	Vapor or sublimation pressure, kPa	uncertainty
871	5.37e-05	2.15e-05
873	5.37e-05	2.15e-05
876	8.51e-05	3.4e-05
884	0.0001072	4.29e-05
886	7.94e-05	3.18e-05
886	0.0001047	4.19e-05
886	5.75e-05	2.3e-05
889	9.33e-05	3.73e-05
890	0.0001047	4.19e-05
891	0.0001479	5.92e-05
897	0.0001349	5.4e-05
898	0.0001349	5.4e-05
898	0.0001905	7.62e-05
903	0.0001622	6.49e-05
903	0.0002089	8.36e-05
904	0.0002344	9.38e-05
904	0.0002089	8.36e-05
906	0.0001995	7.98e-05
907	0.0001288	5.15e-05
912	0.0002138	8.55e-05
912	0.0003162	0.0001265
913	0.0002692	0.0001077
913	0.000302	0.0001208
915	0.0002344	9.38e-05
916	0.0001738	6.95e-05
918	0.0002951	0.000118
918	0.0004074	0.000163
923	0.0004169	0.0001668
924	0.0005129	0.0002052
924	0.0003388	0.0001355
928	0.0002754	0.0001102
928	0.0002754	0.0001102
929	0.0003715	0.0001486
930	0.000631	0.0002524
930	0.000537	0.0002148
930	0.0005754	0.0002302
932	0.0004169	0.0001668
934	0.0002884	0.0001154
936	0.0006166	0.0002466
936	0.0008318	0.0003327
937	0.0003631	0.0001452
939	0.0007586	0.0003034
940	0.0005623	0.0002249
940	0.000537	0.0002148
940	0.0007586	0.0003034
943	0.0010715	0.0004286
945	0.0004786	0.0001915
946	0.0005129	0.0002052
947	0.0007413	0.0002966
948	0.000955	0.000382
949	0.001349	0.0005396
949	0.0010233	0.0004093
949	0.0010471	0.0004188
950	0.0007762	0.0003105
952	0.000537	0.0002148
955	0.0006457	0.0002583
956	0.0016982	0.0006793
957	0.0009772	0.0003909
958	0.0014454	0.0005782
959	0.0012303	0.0004921
961	0.0007413	0.0002965
962	0.0016982	0.0006793
963	0.0016982	0.0006793
963	0.0012023	0.0004809
963	0.0008913	0.0003565
966	0.0019498	0.0007799
966	0.0010233	0.0004093
968	0.0025704	0.0010282
969	0.0015136	0.0006054
971	0.0019055	0.0007622
972	0.0012303	0.0004922
973	0.0024547	0.0009821
974	0.0031623	0.0012649
974	0.0025704	0.0010282
974	0.0011749	0.00047
976	0.0020417	0.0008167
978	0.002884	0.0011536
979	0.0029512	0.0011805
980	0.0038019	0.0015208
980	0.0016218	0.0006488
981	0.0017783	0.0007114
982	0.0025119	0.0010049
983	0.0033884	0.0013554
984	0.0035481	0.0014192
986	0.0032359	0.0012944
987	0.0018197	0.000728
988	0.0020893	0.0008361
989	0.0042658	0.0017064
990	0.0032359	0.0012944
992	0.0042658	0.0017063
992	0.0044668	0.0017867
994	0.0047863	0.0019145
995	0.0029512	0.0011807
996	0.0027542	0.0011017
997	0.0041687	0.0016675
999	0.0047863	0.0019146
999	0.0057544	0.0023018
1001	0.0063096	0.0025238
1001	0.002884	0.0011536
1004	0.0051286	0.0020514
1004	0.0064565	0.0025826
1006	0.0069183	0.0027674
1007	0.0070795	0.0028319
1008	0.0046774	0.001871
1008	0.0038905	0.0015562
1010	0.0079433	0.0031774
1011	0.0083176	0.0033271
1012	0.0067608	0.0027044
1015	0.0045709	0.0018284
1016	0.0051286	0.0020522
1017	0.01	0.0040001
1018	0.0081283	0.0032513
1019	0.0104713	0.0041888
1026	0.0131826	0.005273
1030	0.0069183	0.0027673
1036	0.0177828	0.0071131
1045	0.0102329	0.0041032
1046	0.0245471	0.009823
1059	0.0354813	0.0141925
1070	0.0489779	0.0195912
1082	0.0691831	0.0276733
