Measured thermophysical data. Solubilities of oxygen and carbon dioxide in butyl methyl imidazolium tetrafluoroborate as a function of temperature and at pressures close to atmospheric
Source: J. Chem. Eng. Data, 2003, 10.1021/je0256277
Compound 1: carbon dioxide, CO2, InChI=1S/CO2/c2-1-3, purity 99.995%
Compound 2: 1-butyl-3-methylimidazolium tetrafluoroborate, C8H15BF4N2, InChI=1S/C8H15N2.BF4/c1-3-4-5-10-7-6-9(2)8-10;2-1(3,4)5/h6-8H,3-5H2,1-2H3;/q+1;-1, purity 97%
Compound 3: oxygen, O2, InChI=1S/O2/c1-2, purity 99.999%

System: carbon dioxide + 1-butyl-3-methylimidazolium tetrafluoroborate; phases: Liquid, Gas
Property: Vapor or sublimation pressure, kPa (Liquid); method: CCELL:UFactor:16
Temperature, K	Mole fraction of carbon dioxide	Vapor or sublimation pressure, kPa	uncertainty
303.72	0.00295	17.73	1.46
303.72	0.00581	37.21	2.71
303.72	0.00652	39.14	2.83
303.72	0.0127	77.24	5.28
303.72	0.0133	72.6	4.98
313.89	0.00271	18.4	1.5
313.89	0.00543	38.6	2.8
313.89	0.00594	40.65	2.93
313.89	0.0122	75.6	5.18
324.12	0.00255	19.06	1.54
324.12	0.00508	39.99	2.89
324.12	0.00559	42.12	3.03
324.12	0.011	78.47	5.36
334.38	0.00243	19.7	1.59
334.38	0.00489	41.34	2.98
334.38	0.00536	43.55	3.12
334.38	0.00977	81.88	5.58
344.49	0.00236	20.33	1.63
344.49	0.00474	42.67	3.06
344.49	0.00511	44.97	3.21
344.49	0.00971	84.43	5.75

System: oxygen + 1-butyl-3-methylimidazolium tetrafluoroborate; phases: Liquid, Gas
Property: Vapor or sublimation pressure, kPa (Liquid); method: CCELL:UFactor:16
Temperature, K	Mole fraction of oxygen	Vapor or sublimation pressure, kPa	uncertainty
314.09	0.00054	19.88	1.6
324.19	0.00063	20.5	1.64
324.19	0.00233	82.65	5.63
334.31	0.00078	21.11	1.68
334.31	0.00287	85.09	5.79
344.54	0.00095	21.72	1.72
344.54	0.0035	87.54	5.95
