Measured thermophysical data. Heat capacities and derived thermodynamic functions of 1-dodecanol and 1-tridecanol between 10 K and 370 K and heat capacities of 1-pentadecanol and 1-heptadecanol between 300 K and 380 K and correlationos for the heat capacity and the entropy of liquid n-alcohols
Source: J. Chem. Eng. Data, 2003, 10.1021/je025524o
Compound 1: dodecan-1-ol, C12H26O, InChI=1S/C12H26O/c1-2-3-4-5-6-7-8-9-10-11-12-13/h13H,2-12H2,1H3
Compound 2: 1-tridecanol, C13H28O, InChI=1S/C13H28O/c1-2-3-4-5-6-7-8-9-10-11-12-13-14/h14H,2-13H2,1H3
Compound 3: 1-pentadecanol, C15H32O, InChI=1S/C15H32O/c1-2-3-4-5-6-7-8-9-10-11-12-13-14-15-16/h16H,2-15H2,1H3
Compound 4: 1-heptadecanol, C17H36O, InChI=1S/C17H36O/c1-2-3-4-5-6-7-8-9-10-11-12-13-14-15-16-17-18/h18H,2-17H2,1H3

System: dodecan-1-ol; phases: Crystal, Liquid, Gas
Property: Molar enthalpy of transition or fusion, kJ/mol (Crystal); method: ADIACA:UFactor:8
Molar enthalpy of transition or fusion, kJ/mol	uncertainty
40.307	0.257

System: dodecan-1-ol; phases: Crystal, Liquid, Gas
Property: Triple point temperature, K (Crystal); method: ADIACA:UFactor:4:UFactor:4
Triple point temperature, K	uncertainty
297.3	0.2

System: dodecan-1-ol; phases: Crystal
Fixed: Pressure, kPa = 101.325
Property: Molar heat capacity at constant pressure, J/K/mol (Crystal); method: SMALLAD:UFactor:4
Temperature, K	Molar heat capacity at constant pressure, J/K/mol	uncertainty
4.89	0.5	0.09
5.3	0.59	0.09
5.64	0.66	0.1
6.46	0.92	0.11
7.31	1.32	0.13
8.18	1.68	0.15
8.98	2.19	0.17
9.56	2.57	0.19
10.5	3.35	0.23
11.22	3.92	0.25
12.4	5.1	0.3
13.14	5.94	0.33
14.47	7.5	0.39
15.22	8.48	0.43
16.69	10.44	0.49
17.52	11.65	0.53
19.12	14.03	0.6
19.99	15.41	0.64
21.71	18.2	0.7
22.62	19.79	0.73
24.43	22.98	0.79
25.38	24.82	0.82
27.17	27.7	0.85
28.07	29.03	0.85
29.65	31.86	0.87
30.4	33.25	0.83
30.87	34.11	0.84
31.76	35.98	0.87
32.4	37.33	0.89
33.29	39.09	0.92
33.59	39.7	0.93
35.53	43.57	0.99
37.84	47.29	1.04
40.23	51.76	1.11
42.65	56.35	1.18
45.1	60.97	1.25
47.58	65.63	1.33
50.09	70.36	1.4
52.64	74.94	1.47
55.22	79.43	1.54
57.83	83.87	1.61
60.48	88.16	1.68
63.15	92.38	1.74
65.84	96.63	1.81
68.55	100.64	1.87
71.28	104.62	1.93
74.03	108.49	1.99
76.8	112.23	2.05
79.58	115.93	2.11
82.38	119.48	2.16
85.18	122.95	2.21
88	126.31	2.27
90.83	129.63	2.23
93.67	132.79	2.27
96.52	135.91	2.3
99.37	138.86	2.34
101.75	141.93	2.38
103.06	143.05	2.39
105.66	145.63	2.42
109.51	149.48	2.47
113.32	153.04	2.52
117.13	156.53	2.56
120.95	160.01	2.6
124.76	163.33	2.64
128.5	166.58	2.68
132.18	169.61	2.72
135.8	172.64	2.76
139.37	175.56	2.8
142.89	178.45	2.83
146.37	181.11	2.86
149.8	183.99	2.9
153.18	186.68	2.93
156.53	189.52	2.97
159.83	192.32	3
163.1	194.74	3.03
166.34	197.23	3.06
169.55	199.78	3.1
172.73	202.28	3.13
175.87	204.86	3.16
178.99	207.42	3.19
182.08	209.97	3.22
185.15	212.58	3.25
188.19	215.16	3.29
191.21	217.67	3.32
194.2	220.28	3.35
197.17	222.88	3.38
200.11	225.49	3.41
203.04	228.14	3.45
205.94	230.85	3.48
208.82	233.52	3.51
211.68	236.2	3.55
214.51	238.88	3.58
217.33	241.68	3.62
220.13	244.41	3.65
222.91	247.18	3.68
225.66	250.1	3.72
228.4	252.97	3.75
231.12	255.86	3.79
233.81	258.81	3.83
236.49	261.87	3.87
239.15	264.95	3.9
241.79	268.07	3.94
244.42	271.21	3.98
247.02	274.53	4.02
249.61	277.88	4.06
251.48	279.87	4.09
251.48	279.87	4.09
252.69	281.82	4.11
252.69	281.82	4.11
255.27	284.84	4.15
255.27	284.84	4.15
259.2	290.64	4.22
259.2	290.64	4.22
263.11	296.62	4.3
263.11	296.62	4.3
267	303.13	4.38
267	303.13	4.38
270.88	310.85	4.47
270.88	310.85	4.47

System: dodecan-1-ol; phases: Liquid
Fixed: Pressure, kPa = 101.325
Property: Molar heat capacity at constant pressure, J/K/mol (Liquid); method: SMALLAD:UFactor:4
Temperature, K	Molar heat capacity at constant pressure, J/K/mol	uncertainty
301.51	444.71	6.13
304.8	448.44	6.18
308.07	452.29	6.23
311.32	456.46	6.28
314.41	460.33	6.32
315.3	461.65	6.34
317.24	463.91	6.37
320.21	467.79	6.42
323.17	471.66	6.47
326.12	475.74	6.52
329.08	479.76	6.57
332.04	483.75	6.62
334.99	487.57	6.66
337.95	491.61	6.71
340.91	495.5	6.76
343.86	499.5	6.81
346.82	503.54	6.86
349.79	507.22	6.91
352.75	510.94	6.95
355.71	514.68	7
358.67	518.23	7.04
361.63	521.6	7.08
364.57	525.05	7.13
367.49	528.36	7.17
370.41	531.43	7.21
373.31	534.34	7.24
376.21	537.1	7.28
379.09	539.95	7.31
381.97	542.41	7.34
384.83	544.86	7.37
387.69	547.06	7.4
390.54	549.07	7.42

System: dodecan-1-ol; phases: Crystal
Fixed: Pressure, kPa = 101.325
Property: Molar heat capacity at constant pressure, J/K/mol (Crystal); method: SMALLAD:UFactor:4
Temperature, K	Molar heat capacity at constant pressure, J/K/mol	uncertainty
10	2.92	0.21
20	15.42	0.64
30	32.51	0.81
40	51.32	1.11
50	70.18	1.4
60	87.4	1.66
70	102.8	1.9
80	116.5	2.1
90	128.7	2.2
100	139.6	2.4
110	149.9	2.5
120	159.2	2.6
130	167.8	2.7
140	176.1	2.8
150	184.2	2.9
160	192.5	3
170	200.1	3.1
180	208.3	3.2
190	216.7	3.3
200	225.4	3.4
210	234.6	3.5
220	244.3	3.6
230	254.7	3.8
240	265.9	3.9
250	278.3	4.1
260	291.9	4.2
270	310.4	4.5
280	327.8	4.7
290	345.1	4.9
297.3	357.8	5.1

System: dodecan-1-ol; phases: Liquid
Fixed: Pressure, kPa = 101.325
Property: Molar heat capacity at constant pressure, J/K/mol (Liquid); method: SMALLAD:UFactor:4
Temperature, K	Molar heat capacity at constant pressure, J/K/mol	uncertainty
297.3	440.8	6.1
298.15	441.9	6.1
300	444.1	6.1
310	454.8	6.3
320	467.5	6.4
330	481	6.6
340	494.3	6.7
350	507.5	6.9
360	519.8	7.1
370	531	7.2
380	540.7	7.3

System: dodecan-1-ol; phases: Crystal
Fixed: Pressure, kPa = 101.325
Property: Molar enthalpy, kJ/mol (Crystal); method: SMALLAD:dCP:0.2%:dS:0.2%:UFactor:4
Temperature, K	Molar enthalpy, kJ/mol	uncertainty
10	0.008	0.001
20	0.094	0.005
30	0.332	0.014
40	0.752	0.024
50	1.36	0.037
60	2.15	0.052
70	3.103	0.07
80	4.2	0.09
90	5.426	0.123
100	6.769	0.146
110	8.222	0.17
120	9.768	0.195
130	11.403	0.222
140	13.122	0.249
150	14.923	0.278
160	16.805	0.307
170	18.767	0.338
180	20.809	0.369
190	22.933	0.402
200	25.143	0.436
210	27.443	0.47
220	29.837	0.506
230	32.331	0.543
240	34.933	0.582
250	37.653	0.622
260	40.502	0.663
270	43.503	0.706
280	46.693	0.752
290	50.058	0.8
297.3	52.624	0.836

System: dodecan-1-ol; phases: Liquid
Fixed: Pressure, kPa = 101.325
Property: Molar enthalpy, kJ/mol (Liquid); method: SMALLAD:dCP:0.2%:dS:0.2%:UFactor:4
Temperature, K	Molar enthalpy, kJ/mol	uncertainty
297.3	92.882	1.335
298.15	93.257	1.341
300	94.077	1.352
310	98.579	1.414
320	103.203	1.477
330	107.949	1.542
340	112.818	1.609
350	117.808	1.677
360	122.92	1.747
370	128.155	1.818
380	133.511	1.89

System: dodecan-1-ol; phases: Crystal
Fixed: Pressure, kPa = 101.325
Property: Molar entropy, J/K/mol (Crystal); method: SMALLAD:dCP:0.2%:UFactor:4
Temperature, K	Molar entropy, J/K/mol	uncertainty
10	1.08	0.17
20	6.52	0.46
30	15.97	0.84
40	27.94	1.11
50	41.43	1.43
60	55.78	1.76
70	70.43	2.1
80	85.06	2.44
90	99.49	2.78
100	113.6	3
110	127.5	3.3
120	140.9	3.5
130	154	3.8
140	166.7	4
150	179.2	4.3
160	191.3	4.5
170	203.2	4.7
180	214.9	4.9
190	226.3	5.1
200	237.7	5.3
210	248.9	5.6
220	260	5.8
230	271.1	6
240	282.2	6.2
250	293.3	6.4
260	304.5	6.6
270	315.8	6.8
280	327.4	7
290	339.2	7.2
297.3	347.9	7.4

System: dodecan-1-ol; phases: Liquid
Fixed: Pressure, kPa = 101.325
Property: Molar entropy, J/K/mol (Liquid); method: SMALLAD:dCP:0.2%:UFactor:4
Temperature, K	Molar entropy, J/K/mol	uncertainty
297.3	483.3	9.9
298.15	484.6	9.9
300	487.3	10
310	502.1	10.3
320	516.8	10.5
330	531.4	10.8
340	545.9	11.1
350	560.4	11.3
360	574.8	11.6
370	589.1	11.9
380	603.4	12.1

System: 1-tridecanol; phases: Crystal 2, Crystal 1, Gas
Property: Molar enthalpy of transition or fusion, kJ/mol (Crystal 2); method: ADIACA:UFactor:16
Molar enthalpy of transition or fusion, kJ/mol	uncertainty
1.5	0.13

System: 1-tridecanol; phases: Crystal 1, Liquid, Gas
Property: Molar enthalpy of transition or fusion, kJ/mol (Crystal 1); method: ADIACA:UFactor:16
Molar enthalpy of transition or fusion, kJ/mol	uncertainty
43.277	0.558

System: 1-tridecanol; phases: Crystal 2, Crystal 1, Gas
Property: Triple point temperature, K (Crystal 2); method: ADIACA:UFactor:4
Triple point temperature, K	uncertainty
304.03	0.2

System: 1-tridecanol; phases: Crystal 1, Liquid, Gas
Property: Triple point temperature, K (Crystal 1); method: ADIACA:UFactor:4
Triple point temperature, K	uncertainty
304.68	0.2

System: 1-tridecanol; phases: Crystal 2
Fixed: Pressure, kPa = 101.325
Property: Molar heat capacity at constant pressure, J/K/mol (Crystal 2); method: SMALLAD:UFactor:4
Temperature, K	Molar heat capacity at constant pressure, J/K/mol	uncertainty
10	3.08	0.22
20	16.22	0.67
30	34.4	0.84
40	54.29	1.15
50	74.35	1.46
60	93.03	1.75
70	109.5	2
80	124.2	2.2
90	137.3	2.3
100	148.8	2.5
110	160.1	2.6
120	169.9	2.7
130	179.3	2.8
140	188.1	3
150	196.7	3.1
160	205.6	3.2
170	213.7	3.3
180	222.2	3.4
190	231.4	3.5
200	240.7	3.6
210	250.6	3.7
220	261.1	3.9
230	271.5	4
240	283.8	4.1
250	296.9	4.3
260	311.6	4.5
270	333.9	4.8
280	344.7	4.9
280	346.2	4.9
290	368.7	5.2
298.15	386.9	5.4
300	391.1	5.5
304.7	401.6	5.6

System: 1-tridecanol; phases: Crystal 2
Fixed: Pressure, kPa = 101.325
Property: Molar heat capacity at constant pressure, J/K/mol (Crystal 2); method: SMALLAD:UFactor:4
Temperature, K	Molar heat capacity at constant pressure, J/K/mol	uncertainty
5.43	0.73	0.1
6.35	1.02	0.12
6.92	1.16	0.12
8.19	1.83	0.16
8.19	1.88	0.16
9.76	2.87	0.21
10	3.09	0.22
11.5	4.42	0.27
11.65	4.57	0.28
13.42	6.55	0.36
13.68	6.87	0.37
15.55	9.27	0.46
15.88	9.75	0.48
17.88	12.68	0.57
18.23	13.34	0.59
20.35	16.77	0.68
20.75	17.36	0.69
22.97	21.33	0.78
23.4	22.11	0.79
25.72	26.65	0.86
26.18	27.43	0.87
28.64	31.55	0.9
29.13	32.62	0.91
31.71	37.83	0.9
32.22	38.99	0.92
32.41	39.6	0.92
36.39	47.49	1.05
39.65	53.57	1.14
42.46	59.29	1.23
44.97	64.37	1.31
47.4	69.21	1.38
49.91	74.17	1.46
52.45	79.07	1.54
55.02	84	1.61
57.62	88.82	1.69
60.25	93.47	1.76
62.91	98.02	1.83
65.59	102.47	1.9
68.29	106.79	1.96
71.02	111.04	2.03
73.76	115.26	2.1
76.52	119.31	2.16
79.3	123.26	2.22
82.09	127.05	2.28
84.85	130.74	2.34
87.54	134.18	2.39
90.16	137.47	2.32
92.71	140.59	2.36
95.2	143.52	2.4
97.63	146.32	2.43
100.02	148.83	2.46
102.1	152.11	2.51
103.32	153.06	2.52
105.4	155.26	2.54
108.31	158.33	2.58
111.2	161.3	2.62
114.09	164.14	2.65
116.98	166.94	2.69
119.88	169.82	2.72
122.79	172.58	2.76
125.7	175.3	2.79
128.61	178.03	2.83
131.53	180.59	2.86
134.44	183.16	2.89
137.36	185.79	2.92
140.29	188.32	2.95
143.22	190.88	2.99
146.15	193.43	3.02
149.08	195.91	3.05
152.02	198.41	3.08
154.95	200.87	3.11
157.89	203.87	3.15
160.83	206.25	3.18
163.77	208.51	3.2
166.71	210.96	3.23
169.64	213.42	3.26
172.55	215.89	3.3
175.43	218.51	3.33
178.29	220.77	3.36
181.13	223.25	3.39
183.94	225.88	3.42
186.74	228.46	3.45
189.51	230.93	3.48
192.27	233.49	3.51
195	236.07	3.55
197.72	238.57	3.58
200.42	241.11	3.61
203.1	243.7	3.64
205.76	246.32	3.67
208.41	249.01	3.71
211.04	251.6	3.74
213.65	254.36	3.77
216.25	257.05	3.81
218.83	259.88	3.84
221.4	262.61	3.87
223.95	265.23	3.91
226.48	268	3.94
229	270.12	3.97
231.5	273.66	4.01
234	276.54	4.05
236.47	279.48	4.08
238.93	282.45	4.12
241.38	285.45	4.16
243.82	288.49	4.2
246.23	291.7	4.23
248.64	294.92	4.27
251.03	298.31	4.32
253.4	301.46	4.36
255.76	304.48	4.39
258.11	308.33	4.44
260.44	312.4	4.49
262.75	316.76	4.55
265.05	321.73	4.61
267.33	326.95	4.67
269.58	333.12	4.75
271.82	334.58	4.77
274.06	333.4	4.75
276.29	337.23	4.8
278.51	341.53	4.85
280.71	346.21	4.91
282.9	351.04	4.97
285.07	356.16	5.03
287.22	361.73	5.1
289.35	368.37	5.19
291.46	376.6	5.29
293.54	387.13	5.42
295.59	401.86	5.6
297.6	425.87	5.91
299.51	475.65	6.59
301.24	611	9

System: 1-tridecanol; phases: Liquid
Fixed: Pressure, kPa = 101.325
Property: Molar heat capacity at constant pressure, J/K/mol (Liquid); method: SMALLAD:UFactor:4
Temperature, K	Molar heat capacity at constant pressure, J/K/mol	uncertainty
307	486	7
308.83	488.11	6.67
310.66	490.33	6.7
312.48	492.55	6.72
314.3	494.79	6.75
316.12	496.9	6.78
317.93	499.11	6.81
318.36	500.33	6.82
319.1	501.54	6.84
319.75	498.91	6.8
320.72	503.57	6.86
321.55	504.47	6.87
323.23	506.79	6.9
323.34	506.92	6.9
325.13	509.47	6.93
325.74	510.38	6.95
326.92	512.04	6.97
328.23	513.87	6.99
328.7	514.67	7
330.47	516.98	7.03
330.71	517.39	7.03
332.24	519.36	7.06
333.18	520.69	7.07
334.01	520.78	7.07
335.63	524.11	7.12
335.76	524.37	7.12
338.08	527.53	7.16
340.52	530.77	7.2
342.95	534.08	7.24
345.37	537.59	7.28
347.78	540.94	7.32
350.19	543.91	7.36
352.58	546.88	7.4
354.97	550.24	7.44
357.35	553.06	7.47
359.72	556.17	7.51
362.08	558.85	7.55
364.44	561.58	7.58
366.79	564.41	7.61
369.13	566.97	7.65

System: 1-tridecanol; phases: Liquid
Fixed: Pressure, kPa = 101.325
Property: Molar heat capacity at constant pressure, J/K/mol (Liquid); method: SMALLAD:UFactor:4
Temperature, K	Molar heat capacity at constant pressure, J/K/mol	uncertainty
304.7	482.1	6.6
310	489.2	6.7
320	502.7	6.9
330	516.1	7
340	529.5	7.2
350	542.9	7.3
360	556.4	7.5
370	569.8	7.7

System: 1-tridecanol; phases: Crystal 2
Fixed: Pressure, kPa = 101.325
Property: Molar enthalpy, kJ/mol (Crystal 2); method: SMALLAD:dCP:0.2%:dS:0.2%:UFactor:4
Temperature, K	Molar enthalpy, kJ/mol	uncertainty
10	0.0086	0.0011
20	0.098	0.005
30	0.352	0.015
40	0.79	0.025
50	1.432	0.038
60	2.271	0.054
70	3.285	0.073
80	4.455	0.094
90	5.763	0.127
100	7.194	0.151
110	8.745	0.177
120	10.395	0.203
130	12.141	0.231
140	13.978	0.26
150	15.902	0.29
160	17.913	0.321
170	20.009	0.353
180	22.189	0.387
190	24.457	0.421
200	26.817	0.456
210	29.273	0.493
220	31.831	0.531
230	34.494	0.57
240	37.271	0.611
250	40.173	0.653
260	43.211	0.697
270	46.431	0.743
280	49.799	0.791
280	49.799	0.791
290	53.374	0.841
298.15	56.453	0.884
300	57.172	0.895
304.7	59.035	0.921

System: 1-tridecanol; phases: Liquid
Fixed: Pressure, kPa = 101.325
Property: Molar enthalpy, kJ/mol (Liquid); method: SMALLAD:dCP:0.2:dS:0.2%:UFactor:4
Temperature, K	Molar enthalpy, kJ/mol	uncertainty
304.7	103.812	1.475
310	106.386	1.511
320	111.346	1.578
330	116.439	1.648
340	121.667	1.719
350	127.029	1.791
360	132.526	1.866
370	138.157	1.942

System: 1-tridecanol; phases: Crystal 2
Fixed: Pressure, kPa = 101.325
Property: Molar entropy, J/K/mol (Crystal 2); method: SMALLAD:dCP:0.2%:UFactor:4
Temperature, K	Molar entropy, J/K/mol	uncertainty
10	1.17	0.18
20	6.84	0.47
30	16.89	0.86
40	29.37	1.15
50	43.61	1.48
60	58.85	1.83
70	74.45	2.2
80	90.05	2.56
90	105.4	2.9
100	120.5	3.2
110	135.3	3.4
120	149.6	3.7
130	163.6	4
140	177.2	4.2
150	190.5	4.5
160	203.5	4.7
170	216.2	4.9
180	228.6	5.2
190	240.9	5.4
200	253	5.6
210	265	5.9
220	276.9	6.1
230	288.7	6.3
240	300.5	6.5
250	312.4	6.7
260	324.3	7
270	336.4	7.2
280	348.7	7.4
280	348.7	7.4
290	361.2	7.6
298.15	371.7	7.8
300	374.1	7.9
304.7	380.3	8

System: 1-tridecanol; phases: Liquid
Fixed: Pressure, kPa = 101.325
Property: Molar entropy, J/K/mol (Liquid); method: SMALLAD:dCP:0.2:UFactor:4
Temperature, K	Molar entropy, J/K/mol	uncertainty
304.7	527.2	10.7
310	535.6	10.9
320	551.3	11.2
330	567	11.5
340	582.6	11.8
350	598.1	12
360	613.6	12.3
370	629.1	12.6

System: 1-pentadecanol; phases: Crystal 2, Crystal 1, Gas
Property: Molar enthalpy of transition or fusion, kJ/mol (Crystal 2); method: ADIACA:UFactor:16:dHTR:100
Molar enthalpy of transition or fusion, kJ/mol	uncertainty
21.4	0.29

System: 1-pentadecanol; phases: Crystal 1, Liquid, Gas
Property: Molar enthalpy of transition or fusion, kJ/mol (Crystal 1); method: ADIACA:UFactor:16:dHTR:100
Molar enthalpy of transition or fusion, kJ/mol	uncertainty
32.2	0.42

System: 1-pentadecanol; phases: Crystal 2, Crystal 1, Gas
Property: Triple point temperature, K (Crystal 2); method: ADIACA:UFactor:16
Triple point temperature, K	uncertainty
315.4	0.8

System: 1-pentadecanol; phases: Crystal 1, Liquid, Gas
Property: Triple point temperature, K (Crystal 1); method: ADIACA:UFactor:16
Triple point temperature, K	uncertainty
316.9	0.8

System: 1-pentadecanol; phases: Crystal 2
Fixed: Pressure, kPa = 101.325
Property: Molar heat capacity at constant pressure, J/K/mol (Crystal 2); method: SMALLAD:UFactor:32
Temperature, K	Molar heat capacity at constant pressure, J/K/mol	uncertainty
297.94	422.5	46.85
299.88	428.9	47.48
299.89	444.5	49.03
301.65	435.5	48.15
301.82	443.3	48.92
303.55	445.9	49.17
303.56	453.4	49.91
305.44	457	50.27
305.44	468.4	51.4
307.28	491.2	53.66
307.29	473.1	51.87
309.07	525.9	57.84
309.12	502.9	55.59
310.8	614	67
310.89	570.7	62.29
312.39	882	93
312.55	811	86
313.69	1792	183
313.88	1882	206

System: 1-pentadecanol; phases: Liquid
Fixed: Pressure, kPa = 101.325
Property: Molar heat capacity at constant pressure, J/K/mol (Liquid); method: SMALLAD:UFactor:4
Temperature, K	Molar heat capacity at constant pressure, J/K/mol	uncertainty
319.34	571.9	7.71
320.07	574.1	7.74
321.01	576.7	7.77
321.8	577.5	7.78
322.68	578.2	7.79
323.52	577.3	7.77
324.34	580	7.81
325.24	579.7	7.8
326.01	580.7	7.82
326.97	581.3	7.82
327.69	583.1	7.85
328.69	583.8	7.86
329.37	584.6	7.87
330.42	586.5	7.89
331.05	586.2	7.88
332.15	589.1	7.92
332.75	589.8	7.93
333.88	592	7.96
334.44	592.1	7.96
335.62	594.2	7.98
336.15	594.2	7.98
337.36	596.1	8.01
337.86	596.9	8.02
339.1	599.2	8.05
339.58	599	8.04
340.85	601.3	8.07
341.31	602.6	8.09
342.6	604.4	8.11
343.05	603.6	8.1
344.35	607.2	8.15
344.79	607	8.14
346.11	609.9	8.18
346.54	610.9	8.19
347.87	611.7	8.2
348.3	613.1	8.22
349.64	614.4	8.23
350.07	615	8.24
351.41	616.4	8.26
351.85	616.8	8.26
353.19	618.9	8.29
353.64	618.3	8.28
354.97	620.8	8.31
355.44	622.7	8.34
356.75	624	8.35
357.24	624.3	8.36
358.54	625.5	8.37
359.06	626.9	8.39
360.34	629.2	8.42
360.9	630.2	8.43
362.74	631.2	8.44
364.6	635.5	8.5
366.47	637.2	8.52
368.36	639.4	8.54
370.26	641.4	8.57
372.18	643.6	8.6
374.11	644.9	8.61
376.06	647.9	8.65
378.03	650.7	8.68
380.02	651.3	8.69

System: 1-heptadecanol; phases: Crystal 1, Liquid, Gas
Property: Molar enthalpy of transition or fusion, kJ/mol (Crystal 1); method: ADIACA:UFactor:32
Molar enthalpy of transition or fusion, kJ/mol	uncertainty
39.4	1

System: 1-heptadecanol; phases: Crystal 2, Crystal 1, Gas
Property: Molar enthalpy of transition or fusion, kJ/mol (Crystal 2); method: ADIACA:UFactor:32
Molar enthalpy of transition or fusion, kJ/mol	uncertainty
23.7	0.62

System: 1-heptadecanol; phases: Crystal 2, Crystal 1, Gas
Property: Triple point temperature, K (Crystal 2); method: ADIACA:UFactor:16
Triple point temperature, K	uncertainty
323.6	1.2

System: 1-heptadecanol; phases: Crystal 1, Liquid, Gas
Property: Triple point temperature, K (Crystal 1); method: ADIACA:UFactor:16
Triple point temperature, K	uncertainty
327.3	0.8

System: 1-heptadecanol; phases: Crystal 2
Fixed: Pressure, kPa = 101.325
Property: Molar heat capacity at constant pressure, J/K/mol (Crystal 2); method: SMALLAD:UFactor:32
Temperature, K	Molar heat capacity at constant pressure, J/K/mol	uncertainty
297.57	460.6	50.63
298.53	455.2	50.09
299.55	465.8	51.14
300.65	461.7	50.73
301.36	473.6	51.91
302.49	468.8	51.44
302.93	469.2	51.48
303.32	480	52.55
304.6	478.1	52.36
305.09	465	51.06
305.25	486.2	53.16
305.71	477	52.25
306.52	485.7	53.11
307.04	482.6	52.81
307.18	494.5	54.01
308.47	487.9	53.34
308.59	491.4	53.68
308.8	491.5	53.69
309.08	499.9	54.52
310.63	501.9	54.73
310.7	499	54.43
310.97	508.9	55.41
311.21	499.1	54.45
312.59	508.5	55.4
312.66	514.3	55.96
312.84	521.7	56.69
313.92	512.1	55.73
314.45	525	57.01
314.67	532.5	57.8
314.7	535.8	58.12
316.3	550.2	59.52
316.53	564.2	60.9
316.6	533.8	57.9
316.65	558	60.29
318.1	629.7	67.4
318.32	620.5	66.48
318.6	633	67.72
319.24	603.5	64.83
319.82	763	80.77
320.03	800	84
320.44	925	97
321.72	999	109

System: 1-heptadecanol; phases: Liquid
Fixed: Pressure, kPa = 101.325
Property: Molar heat capacity at constant pressure, J/K/mol (Liquid); method: SMALLAD:UFactor:4
Temperature, K	Molar heat capacity at constant pressure, J/K/mol	uncertainty
331.09	653.8	8.72
332.18	663.3	8.87
332.34	657.7	8.77
332.87	653.1	8.71
333.67	663.6	8.85
333.96	658.9	8.79
334.12	658.3	8.78
334.79	659.9	8.8
335.74	661.2	8.81
335.9	661.7	8.82
336.26	660.2	8.8
336.71	659.9	8.8
337.53	663.4	8.84
337.69	664.5	8.86
338.65	664.9	8.86
338.87	665.9	8.87
339.32	666.9	8.89
339.48	667	8.89
340.58	669.1	8.91
341.12	670	8.92
341.28	670.2	8.93
342.52	671.9	8.95
342.92	671.7	8.94
343.08	672.8	8.96
344.47	671.1	8.94
344.72	675.1	8.99
344.89	676.4	9
346.42	676.1	9
346.53	677.8	9.02
346.71	676.9	9.01
348.35	678.9	9.03
348.37	678.6	9.03
348.52	680	9.05
350.17	682.7	9.08
350.33	683.4	9.09
350.35	683.4	9.09
352	686.2	9.12
353.83	688.2	9.15
355.67	688.7	9.16
357.52	691.1	9.18
359.37	697.4	9.26
361.23	699.7	9.29
363.1	701.9	9.32
364.98	704.8	9.35
366.87	706.4	9.37
368.77	708.1	9.4
