Measured thermophysical data. Thermodynamic Properties of Mixtures Containing Ionic Liquids. 3. Liquid-Liquid Equilibria of Binary Mixtures of 1-Ethyl-3-methylimidazolium Bis(trifluoromethylsulfonyl)imide with Propan-1-ol, Butan-1-ol, and Pentan-1-ol
Source: J. Chem. Eng. Data, 2003, 10.1021/je0201931
Compound 1: 1-ethyl-3-methylimidazolium bis((trifluoromethyl)sulfonyl)imide, C8H11F6N3O4S2, InChI=1S/C6H11N2.C2F6NO4S2/c1-3-8-5-4-7(2)6-8;3-1(4,5)14(10,11)9-15(12,13)2(6,7)8/h4-6H,3H2,1-2H3;/q+1;-1
Compound 2: propan-1-ol, C3H8O, InChI=1S/C3H8O/c1-2-3-4/h4H,2-3H2,1H3, purity 99.8%
Compound 3: butan-1-ol, C4H10O, InChI=1S/C4H10O/c1-2-3-4-5/h5H,2-4H2,1H3, purity 99.8%
Compound 4: pentan-1-ol, C5H12O, InChI=1S/C5H12O/c1-2-3-4-5-6/h6H,2-5H2,1H3, purity 99%

System: propan-1-ol + 1-ethyl-3-methylimidazolium bis((trifluoromethyl)sulfonyl)imide; phases: Liquid mixture 1, Liquid mixture 2
Fixed: Pressure, kPa = 101
Property: Liquid-liquid equilibrium temperature, K (Liquid mixture 1); method: VISOBS
Mass fraction of 1-ethyl-3-methylimidazolium bis((trifluoromethyl)sulfonyl)imide	Liquid-liquid equilibrium temperature, K	uncertainty
0.1278	281	0.6
0.1636	285.4	0.6
0.2046	288.5	0.6
0.271	291.8	0.6
0.3771	293.3	0.6
0.3893	293.8	0.6
0.4485	294.1	0.6
0.5338	294.1	0.6
0.6049	293	0.6
0.6438	292.7	0.6
0.6864	291.5	0.6
0.7331	289	0.6
0.7616	286.6	0.6
0.7771	285.1	0.6
0.8151	280.9	0.6

System: butan-1-ol + 1-ethyl-3-methylimidazolium bis((trifluoromethyl)sulfonyl)imide; phases: Liquid mixture 1, Liquid mixture 2
Fixed: Pressure, kPa = 101
Property: Liquid-liquid equilibrium temperature, K (Liquid mixture 1); method: VISOBS
Mass fraction of 1-ethyl-3-methylimidazolium bis((trifluoromethyl)sulfonyl)imide	Liquid-liquid equilibrium temperature, K	uncertainty
0.0567	293.4	0.6
0.1056	307.3	0.6
0.1398	311.6	0.6
0.2139	317	0.6
0.2701	319.1	0.6
0.3256	319.9	0.6
0.3702	320.3	0.6
0.4505	320.8	0.6
0.4799	320.7	0.6
0.5434	320.6	0.6
0.5987	319.8	0.6
0.6402	318.5	0.6
0.6975	316.3	0.6
0.7121	315.8	0.6
0.8058	306.3	0.6
0.8905	285.9	0.6

System: pentan-1-ol + 1-ethyl-3-methylimidazolium bis((trifluoromethyl)sulfonyl)imide; phases: Liquid mixture 1, Liquid mixture 2
Fixed: Pressure, kPa = 101
Property: Liquid-liquid equilibrium temperature, K (Liquid mixture 1); method: VISOBS
Mass fraction of 1-ethyl-3-methylimidazolium bis((trifluoromethyl)sulfonyl)imide	Liquid-liquid equilibrium temperature, K	uncertainty
0.1314	330.9	0.6
0.2111	336.6	0.6
0.2815	338.8	0.6
0.3623	339.7	0.6
0.415	339.8	0.6
0.5516	339.5	0.6
0.6696	336.8	0.6
