Measured thermophysical data. Vapor-Liquid Equilibria for the Binary System Difluoromethane (HFC-32) + Propane (HC-290) at Seven Temperatures [(268.15, 278.15, 283.15, 288.15, 298.15, 308.15, and 318.15) K]
Source: J. Chem. Eng. Data, 2003, 10.1021/je020154p
Compound 1: difluoromethane, CH2F2, InChI=1S/CH2F2/c2-1-3/h1H2, purity 99.9%
Compound 2: propane, C3H8, InChI=1S/C3H8/c1-3-2/h3H2,1-2H3, purity 99.5%

System: difluoromethane; phases: Liquid, Gas
Property: Vapor or sublimation pressure, kPa (Liquid); method: EBULLIO:UFactor:32:dPV:.001
Temperature, K	Vapor or sublimation pressure, kPa	uncertainty
268.15	695.4	2.1
278.15	952	2.6
283.15	1102.2	3
288.15	1281.2	3.4
298.15	1685.6	4.5
308.15	2185.2	5.7
318.15	2794.8	7.2

System: propane; phases: Liquid, Gas
Property: Vapor or sublimation pressure, kPa (Liquid); method: EBULLIO:UFactor:32:dPV:.001
Temperature, K	Vapor or sublimation pressure, kPa	uncertainty
268.15	407.9	1.5
278.15	549.4	1.8
283.15	636.4	2
288.15	735	2.2
298.15	954.8	2.7
308.15	1213	3.3
318.15	1530.8	4.1

System: propane + difluoromethane; phases: Liquid, Gas
Property: Azeotropic pressure, kPa (Liquid); method: By P(X) extreme
Mole fraction of difluoromethane	Azeotropic pressure, kPa	uncertainty
0.665	909	6
0.671	1224	8
0.678	1405	9
0.684	1610	10
0.688	2097	13
0.697	2667	16
0.701	3288	20

System: propane + difluoromethane; phases: Liquid, Gas
Property: Azeotropic temperature, K (Liquid); method: By T(X) extreme
Mole fraction of difluoromethane	Azeotropic temperature, K	uncertainty
0.665	268.15	0.3
0.671	278.15	0.3
0.678	283.15	0.3
0.684	288.15	0.3
0.688	298.15	0.3
0.697	308.15	0.3
0.701	318.15	0.3

System: propane + difluoromethane; phases: Liquid, Gas
Property: Vapor or sublimation pressure, kPa (Liquid); method: EBULLIO:UFactor:16
Mole fraction of difluoromethane	Temperature, K	Vapor or sublimation pressure, kPa	uncertainty
0	268.15	408	6
0	278.15	549	8
0	283.15	636	9
0	288.15	735	10
0	298.15	955	13
0	308.15	1213	16
0	318.15	1531	20
0.13	278.15	946	13
0.135	288.15	1228	17
0.142	283.15	1092	15
0.143	268.15	747	11
0.158	308.15	1961	27
0.158	318.15	2387	32
0.168	298.15	1632	22
0.327	308.15	2339	30
0.341	278.15	1148	16
0.344	318.15	2929	38
0.356	288.15	1502	20
0.374	283.15	1329	18
0.38	298.15	1961	26
0.422	268.15	892	12
0.589	278.15	1214	16
0.59	268.15	907	13
0.618	298.15	2093	27
0.627	318.15	3265	42
0.66	308.15	2631	34
0.664	288.15	1601	21
0.668	283.15	1403	19
0.724	288.15	1603	21
0.726	278.15	1223	16
0.732	308.15	2629	34
0.737	268.15	902	12
0.74	318.15	3271	42
0.749	298.15	2075	27
0.753	283.15	1392	19
0.867	268.15	867	12
0.895	298.15	1973	26
0.895	318.15	3107	40
0.898	278.15	1139	15
0.898	288.15	1506	20
0.914	283.15	1289	17
0.92	308.15	2471	32
1	268.15	695	10
1	278.15	952	13
1	283.15	1102	15
1	288.15	1281	17
1	298.15	1686	22
1	308.15	2185	28
1	318.15	2795	36

System: propane + difluoromethane; phases: Gas, Liquid
Property: Mole fraction of difluoromethane (Gas); method: CHROM:UFactor:4
Mole fraction of difluoromethane	Temperature, K	Mole fraction of difluoromethane	uncertainty
0	268.15	0	0.001
0	278.15	0	0.001
0	283.15	0	0.001
0	288.15	0	0.001
0	298.15	0	0.001
0	308.15	0	0.001
0	318.15	0	0.001
0.13	278.15	0.438	0.017
0.135	288.15	0.42	0.016
0.142	283.15	0.437	0.017
0.143	268.15	0.498	0.019
0.158	308.15	0.397	0.015
0.158	318.15	0.373	0.014
0.168	298.15	0.436	0.016
0.327	308.15	0.538	0.017
0.341	278.15	0.584	0.016
0.344	318.15	0.53	0.018
0.356	288.15	0.576	0.016
0.374	283.15	0.587	0.015
0.38	298.15	0.58	0.016
0.422	268.15	0.634	0.014
0.589	278.15	0.657	0.013
0.59	268.15	0.66	0.013
0.618	298.15	0.667	0.012
0.627	318.15	0.677	0.012
0.66	308.15	0.691	0.012
0.664	288.15	0.678	0.012
0.668	283.15	0.677	0.012
0.724	288.15	0.698	0.011
0.726	278.15	0.703	0.011
0.732	308.15	0.724	0.01
0.737	268.15	0.689	0.012
0.74	318.15	0.739	0.01
0.749	298.15	0.738	0.01
0.753	283.15	0.704	0.011
0.867	268.15	0.747	0.01
0.895	298.15	0.82	0.007
0.895	318.15	0.858	0.006
0.898	278.15	0.788	0.008
0.898	288.15	0.811	0.007
0.914	283.15	0.821	0.007
0.92	308.15	0.867	0.005
1	268.15	1	0.001
1	278.15	1	0.001
1	283.15	1	0.001
1	288.15	1	0.001
1	298.15	1	0.001
1	308.15	1	0.001
1	318.15	1	0.001
