Measured thermophysical data. Thermochemical Study of the Methoxy- and Dimethoxyphenol Isomers
Source: J. Chem. Eng. Data, 2003, 10.1021/je025641j
Compound 1: graphite, C
Compound 2: hydrogen, H2, InChI=1S/H2/h1H
Compound 3: oxygen, O2, InChI=1S/O2/c1-2
Compound 4: carbon dioxide, CO2, InChI=1S/CO2/c2-1-3
Compound 5: water, H2O, InChI=1S/H2O/h1H2
Compound 6: 2-methoxyphenol, C7H8O2, InChI=1S/C7H8O2/c1-9-7-5-3-2-4-6(7)8/h2-5,8H,1H3, purity 99%
Compound 7: 3-methoxyphenol, C7H8O2, InChI=1S/C7H8O2/c1-9-7-4-2-3-6(8)5-7/h2-5,8H,1H3, purity 96%
Compound 8: 4-methoxyphenol, C7H8O2, InChI=1S/C7H8O2/c1-9-7-4-2-6(8)3-5-7/h2-5,8H,1H3, purity 99%
Compound 9: 2,3-dimethoxyphenol, C8H10O3, InChI=1S/C8H10O3/c1-10-7-5-3-4-6(9)8(7)11-2/h3-5,9H,1-2H3, purity 98%
Compound 10: 1,3-dimethoxy-2-hydroxybenzene, C8H10O3, InChI=1S/C8H10O3/c1-10-6-4-3-5-7(11-2)8(6)9/h3-5,9H,1-2H3, purity 99%
Compound 11: 3,5-dimethoxyphenol, C8H10O3, InChI=1S/C8H10O3/c1-10-7-3-6(9)4-8(5-7)11-2/h3-5,9H,1-2H3, purity 99%

System: 2-methoxyphenol; phases: Liquid, Gas
Property: Molar enthalpy of vaporization or sublimation, kJ/mol (Liquid); method: Static calorimetry
Temperature, K	Molar enthalpy of vaporization or sublimation, kJ/mol	uncertainty
298.15	62.6	1.1

System: 2-methoxyphenol; phases: Gas
Property: Molar enthalpy, kJ/mol (Gas); method: UNKNOWN
Temperature, K	Pressure, kPa	Molar enthalpy, kJ/mol	uncertainty
375	100	74.5	0.5

System: 3-methoxyphenol; phases: Liquid, Gas
Property: Molar enthalpy of vaporization or sublimation, kJ/mol (Liquid); method: Static calorimetry
Temperature, K	Molar enthalpy of vaporization or sublimation, kJ/mol	uncertainty
298.15	75.9	1.8

System: 3-methoxyphenol; phases: Gas
Property: Molar enthalpy, kJ/mol (Gas); method: UNKNOWN
Temperature, K	Pressure, kPa	Molar enthalpy, kJ/mol	uncertainty
375	100	87.8	2

System: 4-methoxyphenol; phases: Crystal, Gas
Property: Molar enthalpy of vaporization or sublimation, kJ/mol (Crystal); method: Static calorimetry
Temperature, K	Molar enthalpy of vaporization or sublimation, kJ/mol	uncertainty
298.15	94.4	1.8

System: 4-methoxyphenol; phases: Gas
Property: Molar enthalpy, kJ/mol (Gas); method: UNKNOWN
Temperature, K	Pressure, kPa	Molar enthalpy, kJ/mol	uncertainty
375	100	106.3	2

System: 2,3-dimethoxyphenol; phases: Liquid, Gas
Property: Molar enthalpy of vaporization or sublimation, kJ/mol (Liquid); method: Static calorimetry
Temperature, K	Molar enthalpy of vaporization or sublimation, kJ/mol	uncertainty
298.15	76.5	1.7

System: 2,3-dimethoxyphenol; phases: Gas
Property: Molar enthalpy, kJ/mol (Gas); method: UNKNOWN
Temperature, K	Pressure, kPa	Molar enthalpy, kJ/mol	uncertainty
369	100	89.9	2

System: 1,3-dimethoxy-2-hydroxybenzene; phases: Crystal, Gas
Property: Molar enthalpy of vaporization or sublimation, kJ/mol (Crystal); method: Static calorimetry
Temperature, K	Molar enthalpy of vaporization or sublimation, kJ/mol	uncertainty
298.15	98.4	1.8

System: 1,3-dimethoxy-2-hydroxybenzene; phases: Gas
Property: Molar enthalpy, kJ/mol (Gas); method: UNKNOWN
Temperature, K	Pressure, kPa	Molar enthalpy, kJ/mol	uncertainty
375	100	112.9	2

System: 3,5-dimethoxyphenol; phases: Crystal, Gas
Property: Molar enthalpy of vaporization or sublimation, kJ/mol (Crystal); method: Static calorimetry
Temperature, K	Molar enthalpy of vaporization or sublimation, kJ/mol	uncertainty
298.15	101.1	3

System: 3,5-dimethoxyphenol; phases: Gas
Property: Molar enthalpy, kJ/mol (Gas); method: OTHER
Temperature, K	Pressure, kPa	Molar enthalpy, kJ/mol	uncertainty
368	100	114.3	3

Reaction: 1 2-methoxyphenol + -7 graphite + -4 hydrogen + -1 oxygen
Property: Molar enthalpy of reaction, kJ/mol
-308.7

Reaction: 1 3-methoxyphenol + -7 graphite + -4 hydrogen + -1 oxygen
Property: Molar enthalpy of reaction, kJ/mol
-316.3

Reaction: 1 4-methoxyphenol + -7 graphite + -4 hydrogen + -1 oxygen
Property: Molar enthalpy of reaction, kJ/mol
-324.1

Reaction: 1 2,3-dimethoxyphenol + -8 graphite + -5 hydrogen + -1.5 oxygen
Property: Molar enthalpy of reaction, kJ/mol
-462.5

Reaction: 1 3,5-dimethoxyphenol + -8 graphite + -5 hydrogen + -1.5 oxygen
Property: Molar enthalpy of reaction, kJ/mol
-500.5

Reaction: -1 2-methoxyphenol + 7 carbon dioxide + 4 water + -8 oxygen
Property: Specific internal energy of reaction at constant volume, J/g
-28892.9

Reaction: -1 3-methoxyphenol + 7 carbon dioxide + 4 water + -8 oxygen
Property: Specific internal energy of reaction at constant volume, J/g
-28831

Reaction: -1 4-methoxyphenol + 7 carbon dioxide + 4 water + -8 oxygen
Property: Specific internal energy of reaction at constant volume, J/g
-28768.2

Reaction: -1 2,3-dimethoxyphenol + 8 carbon dioxide + 5 water + -9 oxygen
Property: Specific internal energy of reaction at constant volume, J/g
-26673.9

Reaction: 1 1,3-dimethoxy-2-hydroxybenzene + -8 graphite + -5 hydrogen + -1.5 oxygen
Property: Molar enthalpy of reaction, kJ/mol
-480.1

Reaction: -1 1,3-dimethoxy-2-hydroxybenzene + 8 carbon dioxide + 5 water + -9 oxygen
Property: Specific internal energy of reaction at constant volume, J/g
-26560.1

Reaction: -1 3,5-dimethoxyphenol + 8 carbon dioxide + 5 water + -9 oxygen
Property: Specific internal energy of reaction at constant volume, J/g
-26427.7
