Measured thermophysical data. Vapor-Liquid Equilibrium for Acetonitrile + Propanenitrile and 1-Pentanamine + 1-Methoxy-2-propanol
Source: J. Chem. Eng. Data, 2004, 10.1021/je025660t
Compound 1: acetonitrile, C2H3N, InChI=1S/C2H3N/c1-2-3/h1H3, purity 99.9%
Compound 2: propanenitrile, C3H5N, InChI=1S/C3H5N/c1-2-3-4/h2H2,1H3, purity 99.6%
Compound 3: 1-pentanamine, C5H13N, InChI=1S/C5H13N/c1-2-3-4-5-6/h2-6H2,1H3, purity 99%
Compound 4: 1-methoxy-2-propanol, C4H10O2, InChI=1S/C4H10O2/c1-4(5)3-6-2/h4-5H,3H2,1-2H3

System: acetonitrile; phases: Liquid, Gas
Property: Vapor or sublimation pressure, kPa (Liquid); method: EBULLIO:UFactor:8
Temperature, K	Vapor or sublimation pressure, kPa	uncertainty
302.25	14.154	0.071
307.09	17.522	0.073
311.49	21.132	0.076
313.15	22.649	0.077
316.27	25.724	0.079
318.18	27.78	0.08
320.65	30.642	0.082
323.16	33.802	0.084
326.16	37.898	0.087
328.5	41.379	0.089
331.15	45.622	0.092
333.15	49.063	0.094
335.84	54.009	0.097
338.15	58.579	0.101
343.18	69.62	0.108
348.25	82.372	0.116
353.1	96.336	0.125

System: propanenitrile; phases: Liquid, Gas
Property: Vapor or sublimation pressure, kPa (Liquid); method: EBULLIO:UFactor:8
Temperature, K	Vapor or sublimation pressure, kPa	uncertainty
309.38	10.589	0.069
311.56	11.551	0.2
313.15	12.549	0.07
315.89	14.138	0.071
318.35	15.71	0.072
320.51	17.218	0.073
323.15	19.219	0.074
325.74	21.351	0.076
328.27	23.637	0.077
330.82	26.114	0.079
333.15	28.574	0.08
335.82	31.636	0.082
338.22	34.612	0.085
343.08	41.331	0.089
348.09	49.316	0.094
353.15	58.603	0.1

System: 1-pentanamine; phases: Liquid, Gas
Property: Vapor or sublimation pressure, kPa (Liquid); method: EBULLIO:UFactor:8
Temperature, K	Vapor or sublimation pressure, kPa	uncertainty
322.61	13.077	0.07
328.37	16.866	0.073
333.14	20.65	0.075
338.07	25.251	0.078
340.66	27.986	0.08
343.16	30.853	0.082
345.56	33.811	0.084
348.11	37.219	0.086
353.15	44.754	0.091
358.15	53.383	0.097
363.14	63.269	0.104
370.62	80.723	0.115
377.93	101.327	0.128

System: 1-methoxy-2-propanol; phases: Liquid, Gas
Property: Vapor or sublimation pressure, kPa (Liquid); method: EBULLIO:UFactor:16
Temperature, K	Vapor or sublimation pressure, kPa	uncertainty
331.47	9.246	0.135
333.15	10.012	0.136
339.12	13.105	0.14
343.15	15.793	0.144
347.71	19.245	0.148
351.56	22.636	0.152
353.15	24.168	0.154
355.59	26.693	0.157
358.15	29.575	0.161
360.78	32.79	0.17
363.01	35.739	0.169
368.23	43.48	0.18
373.31	52.31	0.19

System: 1-methoxy-2-propanol + 1-pentanamine; phases: Liquid, Gas
Property: Azeotropic pressure, kPa (Liquid); method: By P(X) extreme
Temperature, K	Azeotropic pressure, kPa	uncertainty
333.15	10.002	0.26
343.15	15.773	0.295

System: 1-methoxy-2-propanol + 1-pentanamine; phases: Liquid, Gas
Property: Azeotropic composition: mole fraction of 1-pentanamine (Liquid); method: By T or P extreme
Temperature, K	Azeotropic composition: mole fraction of 1-pentanamine	uncertainty
333.15	0.038	0.002
343.15	0.015	0.001

System: 1-methoxy-2-propanol + 1-pentanamine; phases: Liquid, Gas
Property: Vapor or sublimation pressure, kPa (Liquid); method: Ebulliometric method (Recirculating still)
Mole fraction of 1-pentanamine	Temperature, K	Vapor or sublimation pressure, kPa	uncertainty
0	333.15	10.013	0.111
0	343.15	15.793	0.117
0	353.15	24.169	0.126
0.039	333.15	10.003	0.111
0.04	343.15	15.843	0.117
0.04	353.15	24.307	0.126
0.082	333.15	10.018	0.111
0.084	343.15	15.885	0.117
0.085	353.15	24.402	0.126
0.13	333.15	10.054	0.111
0.13	343.15	15.983	0.117
0.13	353.15	24.597	0.126
0.187	333.15	10.152	0.111
0.187	343.15	16.191	0.117
0.187	353.15	25.011	0.127
0.242	333.15	10.362	0.111
0.242	343.15	16.516	0.118
0.242	353.15	25.462	0.127
0.31	333.15	10.728	0.112
0.31	343.15	17.103	0.118
0.312	353.15	26.307	0.128
0.369	333.15	11.178	0.112
0.37	343.15	17.761	0.119
0.37	353.15	27.212	0.129
0.423	333.15	11.672	0.113
0.427	343.15	18.509	0.12
0.429	353.15	28.29	0.13
0.483	333.15	12.343	0.113
0.488	353.15	29.607	0.132
0.489	343.15	19.485	0.121
0.559	333.15	13.338	0.114
0.565	343.15	20.91	0.122
0.57	353.15	31.547	0.134
0.628	333.15	14.393	0.116
0.635	343.15	22.341	0.124
0.636	353.15	33.447	0.136
0.721	333.15	15.873	0.117
0.726	343.15	24.322	0.126
0.726	353.15	36.054	0.138
0.812	333.15	17.468	0.119
0.813	343.15	26.4	0.128
0.813	353.15	38.782	0.141
0.887	333.15	18.745	0.12
0.888	343.15	28.172	0.13
0.888	353.15	41.175	0.144
0.955	333.15	19.896	0.122
0.955	343.15	29.754	0.132
0.955	353.15	43.284	0.146
1	333.15	20.65	0.122
1	343.15	30.853	0.133
1	353.15	44.755	0.148

System: 1-methoxy-2-propanol + 1-pentanamine; phases: Gas, Liquid
Property: Mole fraction of 1-pentanamine (Gas); method: Chromatography
Mole fraction of 1-pentanamine	Temperature, K	Mole fraction of 1-pentanamine	uncertainty
0	333.15	0	0.001
0	343.15	0	0.001
0	353.15	0	0.001
0.039	333.15	0.04	0.003
0.04	343.15	0.041	0.003
0.04	353.15	0.044	0.003
0.082	333.15	0.085	0.003
0.084	343.15	0.093	0.003
0.085	353.15	0.096	0.003
0.13	333.15	0.143	0.004
0.13	343.15	0.149	0.004
0.13	353.15	0.153	0.004
0.187	333.15	0.22	0.004
0.187	343.15	0.226	0.004
0.187	353.15	0.232	0.004
0.242	333.15	0.306	0.005
0.242	343.15	0.31	0.005
0.242	353.15	0.314	0.005
0.31	333.15	0.418	0.005
0.31	343.15	0.422	0.005
0.312	353.15	0.422	0.005
0.369	333.15	0.519	0.006
0.37	343.15	0.519	0.005
0.37	353.15	0.511	0.006
0.423	333.15	0.6	0.005
0.427	343.15	0.596	0.005
0.429	353.15	0.601	0.005
0.483	333.15	0.684	0.004
0.488	353.15	0.676	0.004
0.489	343.15	0.687	0.004
0.559	333.15	0.768	0.004
0.565	343.15	0.775	0.004
0.57	353.15	0.767	0.004
0.628	333.15	0.837	0.003
0.635	343.15	0.839	0.003
0.636	353.15	0.83	0.003
0.721	333.15	0.904	0.003
0.726	343.15	0.904	0.003
0.726	353.15	0.893	0.003
0.812	333.15	0.952	0.002
0.813	343.15	0.946	0.002
0.813	353.15	0.94	0.002
0.887	333.15	0.976	0.002
0.888	343.15	0.971	0.002
0.888	353.15	0.968	0.002
0.955	333.15	0.99	0.002
0.955	343.15	0.989	0.002
0.955	353.15	0.988	0.002
1	333.15	1	0.001
1	343.15	1	0.001
1	353.15	1	0.001

System: acetonitrile + propanenitrile; phases: Liquid, Gas
Property: Vapor or sublimation pressure, kPa (Liquid); method: Ebulliometric method (Recirculating still)
Mole fraction of acetonitrile	Temperature, K	Vapor or sublimation pressure, kPa	uncertainty
0	313.15	12.662	0.113
0	323.15	19.22	0.12
0	333.15	28.575	0.13
0.032	313.15	12.886	0.114
0.032	323.15	19.72	0.121
0.032	333.15	29.292	0.131
0.069	323.15	20.324	0.122
0.069	333.15	30.131	0.132
0.07	313.15	13.314	0.114
0.111	333.15	31.047	0.133
0.112	313.15	13.748	0.115
0.112	323.15	20.96	0.122
0.171	333.15	32.36	0.134
0.172	313.15	14.408	0.115
0.172	323.15	21.908	0.123
0.243	313.15	15.171	0.116
0.244	323.15	23.022	0.125
0.245	333.15	33.936	0.136
0.319	313.15	15.961	0.117
0.32	323.15	24.158	0.126
0.321	333.15	35.502	0.138
0.39	313.15	16.711	0.118
0.391	323.15	25.223	0.127
0.393	333.15	37.046	0.139
0.462	313.15	17.445	0.119
0.462	323.15	26.275	0.128
0.463	333.15	38.505	0.141
0.524	313.15	18.059	0.12
0.525	323.15	27.168	0.129
0.526	333.15	39.778	0.142
0.602	313.15	18.84	0.12
0.602	323.15	28.276	0.13
0.602	333.15	41.317	0.144
0.679	313.15	19.585	0.121
0.68	323.15	29.367	0.132
0.681	333.15	42.854	0.146
0.739	323.15	30.194	0.133
0.74	313.15	20.168	0.122
0.74	333.15	44.034	0.147
0.824	313.15	20.98	0.123
0.825	323.15	31.38	0.134
0.826	333.15	45.687	0.149
0.913	313.15	21.806	0.124
0.914	323.15	32.595	0.135
0.914	333.15	47.393	0.151
0.93	313.15	21.988	0.124
0.959	313.15	22.246	0.124
0.959	323.15	33.2	0.136
0.959	333.15	48.248	0.152
0.983	313.15	22.483	0.125
0.983	323.15	33.531	0.136
0.983	333.15	48.675	0.152
1	313.15	22.65	0.125
1	323.15	33.8	0.137
1	333.15	49.064	0.152

System: acetonitrile + propanenitrile; phases: Gas, Liquid
Property: Mole fraction of acetonitrile (Gas); method: Chromatography
Mole fraction of acetonitrile	Temperature, K	Mole fraction of acetonitrile	uncertainty
0	313.15	0	0.001
0	323.15	0	0.001
0	333.15	0	0.001
0.032	313.15	0.059	0.004
0.032	323.15	0.057	0.004
0.032	333.15	0.056	0.004
0.069	323.15	0.125	0.004
0.069	333.15	0.125	0.004
0.07	313.15	0.124	0.004
0.111	333.15	0.189	0.004
0.112	313.15	0.193	0.004
0.112	323.15	0.191	0.004
0.171	333.15	0.277	0.004
0.172	313.15	0.282	0.004
0.172	323.15	0.279	0.004
0.243	313.15	0.378	0.005
0.244	323.15	0.377	0.005
0.245	333.15	0.374	0.005
0.319	313.15	0.468	0.005
0.32	323.15	0.465	0.005
0.321	333.15	0.462	0.005
0.39	313.15	0.545	0.005
0.391	323.15	0.542	0.005
0.393	333.15	0.541	0.005
0.462	313.15	0.614	0.004
0.462	323.15	0.611	0.004
0.463	333.15	0.608	0.004
0.524	313.15	0.669	0.004
0.525	323.15	0.668	0.004
0.526	333.15	0.666	0.004
0.602	313.15	0.734	0.003
0.602	323.15	0.732	0.003
0.602	333.15	0.729	0.003
0.679	313.15	0.793	0.003
0.68	323.15	0.792	0.003
0.681	333.15	0.79	0.003
0.739	323.15	0.834	0.003
0.74	313.15	0.837	0.003
0.74	333.15	0.833	0.003
0.824	313.15	0.893	0.003
0.825	323.15	0.892	0.003
0.826	333.15	0.891	0.003
0.913	313.15	0.948	0.002
0.914	323.15	0.949	0.002
0.914	333.15	0.948	0.002
0.93	313.15	0.959	0.002
0.959	313.15	0.976	0.002
0.959	323.15	0.976	0.002
0.959	333.15	0.975	0.002
0.983	313.15	0.99	0.002
0.983	323.15	0.99	0.002
0.983	333.15	0.99	0.002
1	313.15	1	0.001
1	323.15	1	0.001
1	333.15	1	0.001
