Measured thermophysical data. Solubility in Binary Solvent Mixtures: Anthracene Dissolved in Alcohol + Acetonitrile Mixtures at 298.2 K
Source: J. Chem. Eng. Data, 2003, 10.1021/je020216b
Compound 1: anthracene, C14H10, InChI=1S/C14H10/c1-2-6-12-10-14-8-4-3-7-13(14)9-11(12)5-1/h1-10H, purity 99%
Compound 2: acetonitrile, C2H3N, InChI=1S/C2H3N/c1-2-3/h1H3, purity 99.9%
Compound 3: methanol, CH4O, InChI=1S/CH4O/c1-2/h2H,1H3, purity 99.9%
Compound 4: ethanol, C2H6O, InChI=1S/C2H6O/c1-2-3/h3H,2H2,1H3, purity 99.9%
Compound 5: pentan-1-ol, C5H12O, InChI=1S/C5H12O/c1-2-3-4-5-6/h6H,2-5H2,1H3, purity 99%
Compound 6: pentan-2-ol, C5H12O, InChI=1S/C5H12O/c1-3-4-5(2)6/h5-6H,3-4H2,1-2H3, purity 99%
Compound 7: 2-methyl-1-pentanol, C6H14O, InChI=1S/C6H14O/c1-3-4-6(2)5-7/h6-7H,3-5H2,1-2H3, purity 99%
Compound 8: 4-methyl-2-pentanol, C6H14O, InChI=1S/C6H14O/c1-5(2)4-6(3)7/h5-7H,4H2,1-3H3, purity 99%

System: methanol + anthracene; phases: Liquid, Crystal
Property: Mole fraction of anthracene (Liquid); method: OTHER
Pressure, kPa	Temperature, K	Mole fraction of anthracene	uncertainty
101	298.2	0.000243	7e-06

System: acetonitrile + anthracene; phases: Liquid, Crystal
Property: Mole fraction of anthracene (Liquid); method: OTHER
Pressure, kPa	Temperature, K	Mole fraction of anthracene	uncertainty
101	298.2	0.00083	2.5e-05

System: ethanol + anthracene; phases: Liquid, Crystal
Property: Mole fraction of anthracene (Liquid); method: OTHER
Pressure, kPa	Temperature, K	Mole fraction of anthracene	uncertainty
101	298.2	0.00046	1.4e-05

System: pentan-1-ol + anthracene; phases: Liquid, Crystal
Property: Mole fraction of anthracene (Liquid); method: OTHER
Pressure, kPa	Temperature, K	Mole fraction of anthracene	uncertainty
101	298.2	0.001097	3.3e-05

System: anthracene + pentan-2-ol; phases: Liquid, Crystal
Property: Mole fraction of anthracene (Liquid); method: OTHER
Pressure, kPa	Temperature, K	Mole fraction of anthracene	uncertainty
101	298.2	0.0008	2.4e-05

System: 2-methyl-1-pentanol + anthracene; phases: Liquid, Crystal
Property: Mole fraction of anthracene (Liquid); method: OTHER
Temperature, K	Pressure, kPa	Mole fraction of anthracene	uncertainty
298.2	101	0.000966	2.9e-05

System: 4-methyl-2-pentanol + anthracene; phases: Liquid, Crystal
Property: Mole fraction of anthracene (Liquid); method: OTHER
Pressure, kPa	Temperature, K	Mole fraction of anthracene	uncertainty
101	298.2	0.000779	2.4e-05

System: methanol + acetonitrile + anthracene; phases: Liquid, Crystal
Fixed: Pressure, kPa = 101
Fixed: Temperature, K = 298.2
Property: Mole fraction of anthracene (Liquid); method: OTHER
Solvent: Mole fraction of acetonitrile	Mole fraction of anthracene	uncertainty
0	0.000243	7e-06
0.0979	0.00032	1e-05
0.1674	0.00037	1.1e-05
0.3437	0.000502	1.5e-05
0.4429	0.000565	1.7e-05
0.5419	0.000627	1.9e-05
0.7414	0.000735	2.2e-05
0.8667	0.000778	2.4e-05
1	0.00083	2.5e-05

System: ethanol + acetonitrile + anthracene; phases: Liquid, Crystal
Fixed: Pressure, kPa = 101
Fixed: Temperature, K = 298.2
Property: Mole fraction of anthracene (Liquid); method: OTHER
Solvent: Mole fraction of acetonitrile	Mole fraction of anthracene	uncertainty
0	0.00046	1.4e-05
0.1363	0.000669	2e-05
0.2231	0.000773	2.3e-05
0.4283	0.000917	2.8e-05
0.5316	0.000962	2.9e-05
0.6349	0.000961	2.9e-05
0.8175	0.000924	2.8e-05
0.903	0.00088	2.7e-05
1	0.00083	2.5e-05

System: pentan-1-ol + acetonitrile + anthracene; phases: Liquid, Crystal
Fixed: Pressure, kPa = 101
Fixed: Temperature, K = 298.2
Property: Mole fraction of anthracene (Liquid); method: OTHER
Solvent: Mole fraction of acetonitrile	Mole fraction of anthracene	uncertainty
0	0.001097	3.3e-05
0.2022	0.001723	5.2e-05
0.3421	0.002021	6.1e-05
0.5734	0.002066	6.2e-05
0.6662	0.001971	6e-05
0.7555	0.00175	5.3e-05
0.8886	0.001288	3.9e-05
0.9443	0.001065	3.2e-05
1	0.00083	2.5e-05

System: acetonitrile + anthracene + pentan-2-ol; phases: Liquid, Crystal
Fixed: Pressure, kPa = 101
Fixed: Temperature, K = 298.2
Property: Mole fraction of anthracene (Liquid); method: OTHER
Solvent: Mole fraction of acetonitrile	Mole fraction of anthracene	uncertainty
0	0.0008	2.4e-05
0.1955	0.001484	4.5e-05
0.3448	0.001807	5.5e-05
0.5837	0.001947	5.9e-05
0.6773	0.001867	5.6e-05
0.7165	0.001792	5.4e-05
0.8879	0.0013	3.9e-05
0.9426	0.00109	3.3e-05
1	0.00083	2.5e-05

System: acetonitrile + 2-methyl-1-pentanol + anthracene; phases: Liquid, Crystal
Fixed: Temperature, K = 298.2
Fixed: Pressure, kPa = 101
Property: Mole fraction of anthracene (Liquid); method: OTHER
Solvent: Mole fraction of acetonitrile	Mole fraction of anthracene	uncertainty
0	0.000966	2.9e-05
0.211	0.001653	5e-05
0.3755	0.002064	6.2e-05
0.6179	0.002109	6.4e-05
0.7071	0.001972	6e-05
0.778	0.001816	5.5e-05
0.9008	0.001291	3.9e-05
0.9435	0.001095	3.3e-05
1	0.00083	2.5e-05

System: acetonitrile + 4-methyl-2-pentanol + anthracene; phases: Liquid, Crystal
Fixed: Pressure, kPa = 101
Fixed: Temperature, K = 298.2
Property: Mole fraction of anthracene (Liquid); method: OTHER
Solvent: Mole fraction of acetonitrile	Mole fraction of anthracene	uncertainty
0	0.000779	2.4e-05
0.2136	0.001407	4.3e-05
0.3425	0.001679	5.1e-05
0.6078	0.001881	5.7e-05
0.6793	0.001817	5.5e-05
0.7897	0.001631	4.9e-05
0.9028	0.001265	3.8e-05
0.9523	0.001059	3.2e-05
1	0.00083	2.5e-05
