Measured thermophysical data. Excess Molar Enthalpies for Binary Mixtures of Ethanol + Acetone, + Octane, + Cyclohexane and 1-Propanol + Acetone, + Octane, + Heptane at 323.15
Source: J. Chem. Eng. Data, 2003, 10.1021/je020149l
Compound 1: ethanol, C2H6O, InChI=1S/C2H6O/c1-2-3/h3H,2H2,1H3, purity 99.5%
Compound 2: acetone, C3H6O, InChI=1S/C3H6O/c1-3(2)4/h1-2H3, purity 99.5%
Compound 3: octane, C8H18, InChI=1S/C8H18/c1-3-5-7-8-6-4-2/h3-8H2,1-2H3, purity 99%
Compound 4: cyclohexane, C6H12, InChI=1S/C6H12/c1-2-4-6-5-3-1/h1-6H2, purity 99.5%
Compound 5: propan-1-ol, C3H8O, InChI=1S/C3H8O/c1-2-3-4/h4H,2-3H2,1H3, purity 99%
Compound 6: heptane, C7H16, InChI=1S/C7H16/c1-3-5-7-6-4-2/h3-7H2,1-2H3, purity 99%

System: ethanol; phases: Liquid
Property: Mass density, kg/m3 (Liquid); method: Vibrating tube method
Temperature, K	Pressure, kPa	Mass density, kg/m3	uncertainty
293.15	101.325	789.29	0.25

System: acetone; phases: Liquid
Property: Mass density, kg/m3 (Liquid); method: Vibrating tube method
Temperature, K	Pressure, kPa	Mass density, kg/m3	uncertainty
293.15	101.325	790.31	0.25

System: octane; phases: Liquid
Property: Mass density, kg/m3 (Liquid); method: Vibrating tube method
Temperature, K	Pressure, kPa	Mass density, kg/m3	uncertainty
293.15	101.325	702.87	0.41

System: cyclohexane; phases: Liquid
Property: Mass density, kg/m3 (Liquid); method: Vibrating tube method
Temperature, K	Pressure, kPa	Mass density, kg/m3	uncertainty
293.15	101.325	778.56	0.25

System: propan-1-ol; phases: Liquid
Property: Mass density, kg/m3 (Liquid); method: Vibrating tube method
Temperature, K	Pressure, kPa	Mass density, kg/m3	uncertainty
293.15	101.325	803.63	0.43

System: heptane; phases: Liquid
Property: Mass density, kg/m3 (Liquid); method: Vibrating tube method
Temperature, K	Pressure, kPa	Mass density, kg/m3	uncertainty
293.15	101.325	683.91	0.4

System: ethanol + acetone; phases: Liquid
Fixed: Temperature, K = 323.15
Fixed: Pressure, kPa = 101
Property: Excess molar enthalpy (molar enthalpy of mixing), kJ/mol (Liquid); method: Flow calorimetry
Mole fraction of ethanol	Excess molar enthalpy (molar enthalpy of mixing), kJ/mol	uncertainty
0.05	0.255	0.007
0.102	0.483	0.011
0.15	0.652	0.014
0.2	0.805	0.018
0.252	0.928	0.02
0.3	1.018	0.022
0.352	1.085	0.023
0.4	1.124	0.024
0.452	1.144	0.025
0.501	1.139	0.024
0.551	1.109	0.024
0.6	1.066	0.023
0.65	1.005	0.022
0.702	0.919	0.02
0.752	0.818	0.018
0.8	0.701	0.015
0.85	0.56	0.013
0.901	0.392	0.009
0.95	0.211	0.006

System: ethanol + octane; phases: Liquid
Fixed: Temperature, K = 323.15
Fixed: Pressure, kPa = 101
Property: Excess molar enthalpy (molar enthalpy of mixing), kJ/mol (Liquid); method: Flow calorimetry
Mole fraction of ethanol	Excess molar enthalpy (molar enthalpy of mixing), kJ/mol	uncertainty
0.028	0.861	0.02
0.054	1.075	0.024
0.104	1.268	0.027
0.151	1.366	0.029
0.201	1.437	0.031
0.252	1.484	0.032
0.304	1.492	0.032
0.352	1.486	0.032
0.404	1.454	0.031
0.452	1.412	0.03
0.502	1.352	0.029
0.551	1.283	0.028
0.601	1.206	0.026
0.651	1.119	0.024
0.7	1.026	0.022
0.752	0.906	0.02
0.801	0.798	0.017
0.85	0.668	0.015
0.901	0.505	0.011
0.95	0.34	0.008

System: ethanol + cyclohexane; phases: Liquid
Fixed: Temperature, K = 323.15
Fixed: Pressure, kPa = 101
Property: Excess molar enthalpy (molar enthalpy of mixing), kJ/mol (Liquid); method: Flow calorimetry
Mole fraction of ethanol	Excess molar enthalpy (molar enthalpy of mixing), kJ/mol	uncertainty
0.032	0.445	0.011
0.054	0.554	0.013
0.102	0.707	0.015
0.151	0.805	0.017
0.202	0.868	0.019
0.251	0.907	0.02
0.3	0.935	0.02
0.351	0.947	0.02
0.401	0.946	0.02
0.452	0.933	0.02
0.5	0.91	0.02
0.551	0.874	0.019
0.601	0.829	0.018
0.65	0.774	0.017
0.707	0.69	0.015
0.75	0.628	0.014
0.802	0.531	0.012
0.851	0.424	0.01
0.901	0.302	0.007
0.951	0.159	0.005

System: acetone + propan-1-ol; phases: Liquid
Fixed: Temperature, K = 323.15
Fixed: Pressure, kPa = 101
Property: Excess molar enthalpy (molar enthalpy of mixing), kJ/mol (Liquid); method: Flow calorimetry
Mole fraction of propan-1-ol	Excess molar enthalpy (molar enthalpy of mixing), kJ/mol	uncertainty
0.025	0.253	0.008
0.052	0.405	0.01
0.101	0.645	0.015
0.151	0.844	0.019
0.2	1.024	0.022
0.252	1.18	0.025
0.302	1.303	0.028
0.351	1.396	0.03
0.401	1.462	0.031
0.451	1.504	0.032
0.501	1.518	0.032
0.551	1.512	0.032
0.601	1.483	0.032
0.651	1.424	0.03
0.702	1.337	0.029
0.752	1.235	0.027
0.8	1.108	0.024
0.851	0.931	0.02
0.901	0.705	0.016
0.952	0.467	0.011
0.975	0.336	0.009

System: propan-1-ol + octane; phases: Liquid
Fixed: Temperature, K = 323.15
Fixed: Pressure, kPa = 101
Property: Excess molar enthalpy (molar enthalpy of mixing), kJ/mol (Liquid); method: Flow calorimetry
Mole fraction of propan-1-ol	Excess molar enthalpy (molar enthalpy of mixing), kJ/mol	uncertainty
0.027	0.845	0.02
0.053	1.063	0.024
0.103	1.295	0.028
0.15	1.411	0.03
0.208	1.501	0.032
0.254	1.536	0.033
0.301	1.55	0.033
0.352	1.537	0.033
0.401	1.52	0.032
0.452	1.47	0.031
0.5	1.411	0.03
0.55	1.339	0.029
0.602	1.244	0.027
0.652	1.123	0.024
0.702	1.013	0.022
0.752	0.895	0.019
0.802	0.756	0.017
0.852	0.619	0.014
0.901	0.443	0.01
0.95	0.328	0.008

System: propan-1-ol + heptane; phases: Liquid
Fixed: Temperature, K = 323.15
Fixed: Pressure, kPa = 101
Property: Excess molar enthalpy (molar enthalpy of mixing), kJ/mol (Liquid); method: Flow calorimetry
Mole fraction of propan-1-ol	Excess molar enthalpy (molar enthalpy of mixing), kJ/mol	uncertainty
0.01	0.403	0.016
0.024	0.593	0.017
0.034	0.675	0.016
0.053	0.788	0.017
0.103	0.959	0.021
0.154	1.064	0.023
0.203	1.127	0.024
0.254	1.166	0.025
0.301	1.182	0.025
0.353	1.18	0.025
0.402	1.159	0.025
0.451	1.13	0.024
0.503	1.087	0.023
0.551	1.035	0.022
0.602	0.969	0.021
0.651	0.895	0.019
0.702	0.814	0.018
0.75	0.729	0.016
0.801	0.613	0.013
0.851	0.517	0.011
0.901	0.413	0.009
0.951	0.3	0.007
