Measured thermophysical data. Density and Viscosity of Aqueous Solutions of (N-Methyldiethanolamine + Monoethanolamine), (N-Methyldiethanolamine + Diethanolamine), (2-Amino-2-methyl-1-propanol + Monoethanolamine) and (2-Amino-2-methyl-1-propanol + Diethanolamine
Source: J. Chem. Eng. Data, 2003, 10.1021/je020206a
Compound 1: diethanolamine, C4H11NO2, InChI=1S/C4H11NO2/c6-3-1-5-2-4-7/h5-7H,1-4H2
Compound 2: water, H2O, InChI=1S/H2O/h1H2
Compound 3: N-methyldiethanolamine, C5H13NO2, InChI=1S/C5H13NO2/c1-6(2-4-7)3-5-8/h7-8H,2-5H2,1H3
Compound 4: 2-aminoethan-1-ol, C2H7NO, InChI=1S/C2H7NO/c3-1-2-4/h4H,1-3H2
Compound 5: 2-amino-2-methylpropan-1-ol, C4H11NO, InChI=1S/C4H11NO/c1-4(2,5)3-6/h6H,3,5H2,1-2H3

System: N-methyldiethanolamine + water; phases: Liquid
Fixed: Mass fraction of N-methyldiethanolamine = 0.3
Fixed: Pressure, kPa = 101.3
Property: Viscosity, Pa*s (Liquid); method: CAPTUB:dW2:0.001:UFactor:16
Temperature, K	Viscosity, Pa*s	uncertainty
293.15	0.00346	0.00031
298.15	0.00302	0.00027
303.15	0.00268	0.00024
308.15	0.00227	0.00021
313.15	0.00192	0.00018
318.15	0.00172	0.00016
323.15	0.00149	0.00014

System: N-methyldiethanolamine + water; phases: Liquid
Fixed: Mass fraction of N-methyldiethanolamine = 0.3
Fixed: Pressure, kPa = 101.3
Property: Mass density, kg/m3 (Liquid); method: PYCNOM:dW2:0.001:UFactor:4
Temperature, K	Mass density, kg/m3	uncertainty
293.15	1032.2	1.1
298.15	1027.5	1.1
303.15	1023.1	1.1
308.15	1019.9	1.2
313.15	1018.2	1.2
318.15	1014.2	1.3
323.15	1011.2	1.3

System: 2-aminoethan-1-ol + water; phases: Liquid
Fixed: Mass fraction of 2-aminoethan-1-ol = 0.3
Fixed: Pressure, kPa = 101.3
Property: Viscosity, Pa*s (Liquid); method: CAPTUB:dW2:0.001:UFactor:16
Temperature, K	Viscosity, Pa*s	uncertainty
293.15	0.00263	0.00024
298.15	0.0022	0.0002
303.15	0.0021	0.00019
308.15	0.00185	0.00017
313.15	0.0016	0.00015
318.15	0.0015	0.00014
323.15	0.00129	0.00012

System: 2-aminoethan-1-ol + water; phases: Liquid
Fixed: Mass fraction of 2-aminoethan-1-ol = 0.3
Fixed: Pressure, kPa = 101.3
Property: Mass density, kg/m3 (Liquid); method: PYCNOM:dW2:0.001:UFactor:4
Temperature, K	Mass density, kg/m3	uncertainty
293.15	1015.3	1.1
298.15	1012.1	1.1
303.15	1009.2	1.1
308.15	1004.9	1.1
313.15	1003.2	1.2
318.15	1001	1.2
323.15	997.76	1.31

System: diethanolamine + water; phases: Liquid
Fixed: Mass fraction of diethanolamine = 0.3
Fixed: Pressure, kPa = 101.3
Property: Viscosity, Pa*s (Liquid); method: CAPTUB:dW2:0.001:UFactor:16
Temperature, K	Viscosity, Pa*s	uncertainty
293.15	0.00422	0.00037
298.15	0.00326	0.0003
303.15	0.00257	0.00023
308.15	0.00251	0.00023
313.15	0.00197	0.00018
318.15	0.00172	0.00016
323.15	0.00141	0.00013

System: diethanolamine + water; phases: Liquid
Fixed: Mass fraction of diethanolamine = 0.3
Fixed: Pressure, kPa = 101.3
Property: Mass density, kg/m3 (Liquid); method: PYCNOM:dW2:0.001:UFactor:4
Temperature, K	Mass density, kg/m3	uncertainty
293.15	1042.7	1.1
298.15	1037.4	1.1
303.15	1033.2	1.1
308.15	1029.1	1.2
313.15	1026.4	1.2
318.15	1022.7	1.3
323.15	1019.3	1.3

System: 2-amino-2-methylpropan-1-ol + water; phases: Liquid
Fixed: Mass fraction of 2-amino-2-methylpropan-1-ol = 0.3
Fixed: Pressure, kPa = 101.3
Property: Viscosity, Pa*s (Liquid); method: CAPTUB:dW2:0.001:UFactor:16
Temperature, K	Viscosity, Pa*s	uncertainty
293.15	0.00489	0.00043
298.15	0.00379	0.00034
303.15	0.00321	0.00029
308.15	0.0028	0.00025
313.15	0.00224	0.00021
318.15	0.00192	0.00018
323.15	0.00158	0.00015

System: 2-amino-2-methylpropan-1-ol + water; phases: Liquid
Fixed: Mass fraction of 2-amino-2-methylpropan-1-ol = 0.3
Fixed: Pressure, kPa = 101.3
Property: Mass density, kg/m3 (Liquid); method: PYCNOM:dW2:0.001:UFactor:4
Temperature, K	Mass density, kg/m3	uncertainty
293.15	999.85	1.06
298.15	997.41	1.05
303.15	994.62	1.09
308.15	991.22	1.13
313.15	988.72	1.16
318.15	986.24	1.21
323.15	983.13	1.29

System: N-methyldiethanolamine + 2-aminoethan-1-ol + water; phases: Liquid
Fixed: Pressure, kPa = 101.3
Property: Viscosity, Pa*s (Liquid); method: CAPTUB:UFactor:16
Temperature, K	Mass fraction of N-methyldiethanolamine	Mass fraction of 2-aminoethan-1-ol	Viscosity, Pa*s	uncertainty
293.15	0	0.3	0.00263	0.00024
293.15	0.21	0.09	0.00333	0.0003
293.15	0.225	0.075	0.00338	0.0003
293.15	0.24	0.06	0.00342	0.00031
293.15	0.255	0.045	0.00343	0.00031
293.15	0.27	0.03	0.00344	0.00031
293.15	0.285	0.015	0.00344	0.00031
293.15	0.3	0	0.00346	0.00031
298.15	0	0.3	0.0022	0.0002
298.15	0.21	0.09	0.00272	0.00025
298.15	0.225	0.075	0.00275	0.00025
298.15	0.24	0.06	0.00278	0.00025
298.15	0.255	0.045	0.00281	0.00026
298.15	0.27	0.03	0.00284	0.00026
298.15	0.285	0.015	0.00285	0.00026
298.15	0.3	0	0.00302	0.00027
303.15	0	0.3	0.0021	0.00019
303.15	0.21	0.09	0.00245	0.00022
303.15	0.225	0.075	0.00246	0.00022
303.15	0.24	0.06	0.00249	0.00023
303.15	0.255	0.045	0.00251	0.00023
303.15	0.27	0.03	0.00253	0.00023
303.15	0.285	0.015	0.00255	0.00023
303.15	0.3	0	0.00268	0.00024
308.15	0	0.3	0.00185	0.00017
308.15	0.21	0.09	0.00219	0.0002
308.15	0.225	0.075	0.00221	0.0002
308.15	0.24	0.06	0.00223	0.00021
308.15	0.255	0.045	0.00225	0.00021
308.15	0.27	0.03	0.00226	0.00021
308.15	0.285	0.015	0.00227	0.00021
308.15	0.3	0	0.00227	0.00021
313.15	0	0.3	0.0016	0.00015
313.15	0.21	0.09	0.00178	0.00017
313.15	0.225	0.075	0.0018	0.00017
313.15	0.24	0.06	0.00182	0.00017
313.15	0.255	0.045	0.00184	0.00017
313.15	0.27	0.03	0.00186	0.00017
313.15	0.285	0.015	0.00188	0.00018
313.15	0.3	0	0.00192	0.00018
318.15	0	0.3	0.0015	0.00014
318.15	0.21	0.09	0.00165	0.00016
318.15	0.225	0.075	0.00167	0.00016
318.15	0.24	0.06	0.00168	0.00016
318.15	0.255	0.045	0.00169	0.00016
318.15	0.27	0.03	0.00171	0.00016
318.15	0.285	0.015	0.00172	0.00016
318.15	0.3	0	0.00172	0.00016
323.15	0	0.3	0.00129	0.00012
323.15	0.21	0.09	0.00139	0.00013
323.15	0.225	0.075	0.0014	0.00013
323.15	0.24	0.06	0.00143	0.00014
323.15	0.255	0.045	0.00144	0.00014
323.15	0.27	0.03	0.00146	0.00014
323.15	0.285	0.015	0.00147	0.00014
323.15	0.3	0	0.00149	0.00014

System: N-methyldiethanolamine + 2-aminoethan-1-ol + water; phases: Liquid
Fixed: Pressure, kPa = 101.3
Property: Mass density, kg/m3 (Liquid); method: PYCNOM:UFactor:4
Temperature, K	Mass fraction of N-methyldiethanolamine	Mass fraction of 2-aminoethan-1-ol	Mass density, kg/m3	uncertainty
293.15	0	0.3	1015.3	1
293.15	0.21	0.09	1025.9	1.1
293.15	0.225	0.075	1027.4	1.1
293.15	0.24	0.06	1028.4	1.1
293.15	0.255	0.045	1029.1	1.1
293.15	0.27	0.03	1030.2	1.1
293.15	0.285	0.015	1031.2	1.1
293.15	0.3	0	1032.2	1.1
298.15	0	0.3	1012.1	1.1
298.15	0.21	0.09	1021.5	1.1
298.15	0.225	0.075	1022.7	1.1
298.15	0.24	0.06	1023.5	1.1
298.15	0.255	0.045	1024.4	1.1
298.15	0.27	0.03	1025.1	1.1
298.15	0.285	0.015	1026	1.1
298.15	0.3	0	1027.5	1.1
303.15	0	0.3	1009.2	1.1
303.15	0.21	0.09	1018	1.1
303.15	0.225	0.075	1018.8	1.1
303.15	0.24	0.06	1019.6	1.1
303.15	0.255	0.045	1020.5	1.1
303.15	0.27	0.03	1021	1.1
303.15	0.285	0.015	1022	1.1
303.15	0.3	0	1023.1	1.1
308.15	0	0.3	1004.9	1.1
308.15	0.21	0.09	1015.6	1.2
308.15	0.225	0.075	1016.2	1.2
308.15	0.24	0.06	1016.9	1.2
308.15	0.255	0.045	1017.8	1.2
308.15	0.27	0.03	1018.4	1.2
308.15	0.285	0.015	1019.1	1.2
308.15	0.3	0	1019.9	1.2
313.15	0	0.3	1003.2	1.2
313.15	0.21	0.09	1012.1	1.2
313.15	0.225	0.075	1012.8	1.2
313.15	0.24	0.06	1013.6	1.2
313.15	0.255	0.045	1014.9	1.2
313.15	0.27	0.03	1016.1	1.2
313.15	0.285	0.015	1017.2	1.2
313.15	0.3	0	1018.2	1.2
318.15	0	0.3	1001	1.2
318.15	0.21	0.09	1009.9	1.2
318.15	0.225	0.075	1010.7	1.2
318.15	0.24	0.06	1011.5	1.2
318.15	0.255	0.045	1012.1	1.2
318.15	0.27	0.03	1012.9	1.2
318.15	0.285	0.015	1013.5	1.2
318.15	0.3	0	1014.2	1.2
323.15	0	0.3	997.76	1.27
323.15	0.21	0.09	1006	1.3
323.15	0.225	0.075	1007.1	1.3
323.15	0.24	0.06	1008.1	1.3
323.15	0.255	0.045	1009.1	1.3
323.15	0.27	0.03	1009.7	1.3
323.15	0.285	0.015	1010.5	1.3
323.15	0.3	0	1011.2	1.3

System: N-methyldiethanolamine + diethanolamine + water; phases: Liquid
Fixed: Pressure, kPa = 101.3
Property: Viscosity, Pa*s (Liquid); method: CAPTUB:UFactor:16
Temperature, K	Mass fraction of N-methyldiethanolamine	Mass fraction of diethanolamine	Viscosity, Pa*s	uncertainty
293.15	0	0.3	0.00422	0.00037
293.15	0.21	0.09	0.00385	0.00034
293.15	0.225	0.075	0.00373	0.00033
293.15	0.24	0.06	0.00369	0.00033
293.15	0.255	0.045	0.00379	0.00034
293.15	0.27	0.03	0.00368	0.00033
293.15	0.285	0.015	0.00361	0.00032
298.15	0	0.3	0.00326	0.00029
298.15	0.21	0.09	0.00303	0.00027
298.15	0.225	0.075	0.00299	0.00027
298.15	0.24	0.06	0.00294	0.00026
298.15	0.255	0.045	0.00305	0.00027
298.15	0.27	0.03	0.00291	0.00026
298.15	0.285	0.015	0.00295	0.00027
303.15	0	0.3	0.00257	0.00023
303.15	0.21	0.09	0.00269	0.00024
303.15	0.225	0.075	0.00261	0.00024
303.15	0.24	0.06	0.00258	0.00023
303.15	0.255	0.045	0.00267	0.00024
303.15	0.27	0.03	0.00259	0.00023
303.15	0.285	0.015	0.00262	0.00024
308.15	0	0.3	0.00251	0.00023
308.15	0.21	0.09	0.00226	0.00021
308.15	0.225	0.075	0.00219	0.0002
308.15	0.24	0.06	0.00217	0.0002
308.15	0.255	0.045	0.00224	0.0002
308.15	0.27	0.03	0.00219	0.0002
308.15	0.285	0.015	0.00221	0.0002
313.15	0	0.3	0.00197	0.00018
313.15	0.21	0.09	0.00198	0.00018
313.15	0.225	0.075	0.00186	0.00017
313.15	0.24	0.06	0.00189	0.00018
313.15	0.255	0.045	0.00194	0.00018
313.15	0.27	0.03	0.00186	0.00017
313.15	0.285	0.015	0.00185	0.00017
318.15	0	0.3	0.00172	0.00016
318.15	0.21	0.09	0.00166	0.00016
318.15	0.225	0.075	0.00163	0.00015
318.15	0.24	0.06	0.00165	0.00015
318.15	0.255	0.045	0.00168	0.00016
318.15	0.27	0.03	0.00162	0.00015
318.15	0.285	0.015	0.00167	0.00016
323.15	0	0.3	0.00141	0.00014
323.15	0.21	0.09	0.00147	0.00014
323.15	0.225	0.075	0.00143	0.00014
323.15	0.24	0.06	0.00144	0.00014
323.15	0.255	0.045	0.00149	0.00014
323.15	0.27	0.03	0.0014	0.00013
323.15	0.285	0.015	0.00146	0.00014

System: N-methyldiethanolamine + diethanolamine + water; phases: Liquid
Fixed: Pressure, kPa = 101.3
Property: Mass density, kg/m3 (Liquid); method: PYCNOM:UFactor:4
Temperature, K	Mass fraction of N-methyldiethanolamine	Mass fraction of diethanolamine	Mass density, kg/m3	uncertainty
293.15	0	0.3	1042.7	1.1
293.15	0.21	0.09	1035.5	1.1
293.15	0.225	0.075	1035.1	1.1
293.15	0.24	0.06	1034.8	1.1
293.15	0.255	0.045	1034.4	1.1
293.15	0.27	0.03	1033	1.1
293.15	0.285	0.015	1032.5	1.1
298.15	0	0.3	1037.4	1.1
298.15	0.21	0.09	1029.9	1.1
298.15	0.225	0.075	1029.5	1.1
298.15	0.24	0.06	1029.1	1.1
298.15	0.255	0.045	1028.8	1.1
298.15	0.27	0.03	1028.4	1.1
298.15	0.285	0.015	1028	1.1
303.15	0	0.3	1033.2	1.2
303.15	0.21	0.09	1025.5	1.1
303.15	0.225	0.075	1025	1.1
303.15	0.24	0.06	1024.6	1.1
303.15	0.255	0.045	1024.2	1.1
303.15	0.27	0.03	1023.9	1.1
303.15	0.285	0.015	1023.5	1.1
308.15	0	0.3	1029.1	1.2
308.15	0.21	0.09	1022	1.2
308.15	0.225	0.075	1021.7	1.2
308.15	0.24	0.06	1021.3	1.2
308.15	0.255	0.045	1020.9	1.2
308.15	0.27	0.03	1020.5	1.2
308.15	0.285	0.015	1020.2	1.2
313.15	0	0.3	1026.4	1.2
313.15	0.21	0.09	1020.6	1.2
313.15	0.225	0.075	1020	1.2
313.15	0.24	0.06	1019.7	1.2
313.15	0.255	0.045	1019.3	1.2
313.15	0.27	0.03	1019	1.2
313.15	0.285	0.015	1018.6	1.2
318.15	0	0.3	1022.7	1.3
318.15	0.21	0.09	1016.9	1.3
318.15	0.225	0.075	1016.4	1.3
318.15	0.24	0.06	1016	1.3
318.15	0.255	0.045	1015.7	1.3
318.15	0.27	0.03	1015.2	1.3
318.15	0.285	0.015	1014.8	1.3
323.15	0	0.3	1019.3	1.3
323.15	0.21	0.09	1014.1	1.3
323.15	0.225	0.075	1013.5	1.3
323.15	0.24	0.06	1012.9	1.3
323.15	0.255	0.045	1012.5	1.3
323.15	0.27	0.03	1012.1	1.3
323.15	0.285	0.015	1011.7	1.3

System: 2-amino-2-methylpropan-1-ol + 2-aminoethan-1-ol + water; phases: Liquid
Fixed: Pressure, kPa = 101.3
Property: Viscosity, Pa*s (Liquid); method: CAPTUB:UFactor:16
Temperature, K	Mass fraction of 2-amino-2-methylpropan-1-ol	Mass fraction of 2-aminoethan-1-ol	Viscosity, Pa*s	uncertainty
293.15	0.21	0.09	0.00409	0.00036
293.15	0.225	0.075	0.00422	0.00037
293.15	0.24	0.06	0.00435	0.00038
293.15	0.255	0.045	0.00445	0.00039
293.15	0.27	0.03	0.00461	0.0004
293.15	0.285	0.015	0.00478	0.00042
293.15	0.3	0	0.00489	0.00043
298.15	0.21	0.09	0.00326	0.00029
298.15	0.225	0.075	0.00338	0.0003
298.15	0.24	0.06	0.00347	0.00031
298.15	0.255	0.045	0.00354	0.00031
298.15	0.27	0.03	0.00363	0.00032
298.15	0.285	0.015	0.00371	0.00033
298.15	0.3	0	0.00379	0.00034
303.15	0.21	0.09	0.00285	0.00026
303.15	0.225	0.075	0.00291	0.00026
303.15	0.24	0.06	0.00298	0.00027
303.15	0.255	0.045	0.00304	0.00027
303.15	0.27	0.03	0.00311	0.00028
303.15	0.285	0.015	0.00317	0.00028
303.15	0.3	0	0.00321	0.00029
308.15	0.21	0.09	0.00248	0.00023
308.15	0.225	0.075	0.00253	0.00023
308.15	0.24	0.06	0.00257	0.00023
308.15	0.255	0.045	0.00261	0.00024
308.15	0.27	0.03	0.00267	0.00024
308.15	0.285	0.015	0.00272	0.00025
308.15	0.3	0	0.0028	0.00025
313.15	0.21	0.09	0.00204	0.00019
313.15	0.225	0.075	0.00207	0.00019
313.15	0.24	0.06	0.00209	0.00019
313.15	0.255	0.045	0.00213	0.0002
313.15	0.27	0.03	0.00216	0.0002
313.15	0.285	0.015	0.00219	0.0002
313.15	0.3	0	0.00224	0.00021
318.15	0.21	0.09	0.00177	0.00017
318.15	0.225	0.075	0.0018	0.00017
318.15	0.24	0.06	0.00182	0.00017
318.15	0.255	0.045	0.00183	0.00017
318.15	0.27	0.03	0.00187	0.00017
318.15	0.285	0.015	0.00189	0.00018
318.15	0.3	0	0.00192	0.00018
323.15	0.21	0.09	0.00145	0.00014
323.15	0.225	0.075	0.00147	0.00014
323.15	0.24	0.06	0.00149	0.00014
323.15	0.255	0.045	0.00151	0.00014
323.15	0.27	0.03	0.00153	0.00014
323.15	0.285	0.015	0.00156	0.00015
323.15	0.3	0	0.00158	0.00015

System: 2-amino-2-methylpropan-1-ol + 2-aminoethan-1-ol + water; phases: Liquid
Fixed: Pressure, kPa = 101.3
Property: Mass density, kg/m3 (Liquid); method: PYCNOM:UFactor:4
Temperature, K	Mass fraction of 2-amino-2-methylpropan-1-ol	Mass fraction of 2-aminoethan-1-ol	Mass density, kg/m3	uncertainty
293.15	0.21	0.09	1004.4	1
293.15	0.225	0.075	1003.5	1
293.15	0.24	0.06	1002.7	1
293.15	0.255	0.045	1002.2	1
293.15	0.27	0.03	1000.7	1
293.15	0.285	0.015	1000.7	1
293.15	0.3	0	999.85	1.01
298.15	0.21	0.09	1001.9	1.1
298.15	0.225	0.075	1000	1.1
298.15	0.24	0.06	1000.3	1
298.15	0.255	0.045	999.8	1.05
298.15	0.27	0.03	998.81	1.05
298.15	0.285	0.015	998.23	1.05
298.15	0.3	0	997.41	1.04
303.15	0.21	0.09	999.41	1.09
303.15	0.225	0.075	998.81	1.09
303.15	0.24	0.06	997.9	1.09
303.15	0.255	0.045	997.13	1.09
303.15	0.27	0.03	996.21	1.09
303.15	0.285	0.015	995.45	1.09
303.15	0.3	0	994.62	1.09
308.15	0.21	0.09	996.57	1.13
308.15	0.225	0.075	996.32	1.13
308.15	0.24	0.06	995.66	1.13
308.15	0.255	0.045	994.42	1.13
308.15	0.27	0.03	993.56	1.13
308.15	0.285	0.015	992.97	1.13
308.15	0.3	0	991.22	1.13
313.15	0.21	0.09	994.23	1.17
313.15	0.225	0.075	993.89	1.18
313.15	0.24	0.06	992.48	1.18
313.15	0.255	0.045	991.06	1.17
313.15	0.27	0.03	990.08	1.17
313.15	0.285	0.015	989.19	1.17
313.15	0.3	0	988.72	1.16
318.15	0.21	0.09	991.01	1.21
318.15	0.225	0.075	990.47	1.21
318.15	0.24	0.06	989.4	1.21
318.15	0.255	0.045	988.54	1.21
318.15	0.27	0.03	988.01	1.21
318.15	0.285	0.015	987.31	1.21
318.15	0.3	0	986.24	1.21
323.15	0.21	0.09	989.33	1.25
323.15	0.225	0.075	988.47	1.25
323.15	0.24	0.06	987.85	1.25
323.15	0.255	0.045	987.04	1.25
323.15	0.27	0.03	986.01	1.25
323.15	0.285	0.015	984.31	1.25
323.15	0.3	0	983.13	1.25

System: diethanolamine + 2-amino-2-methylpropan-1-ol + water; phases: Liquid
Fixed: Pressure, kPa = 101.3
Property: Viscosity, Pa*s (Liquid); method: CAPTUB:UFactor:16
Temperature, K	Mass fraction of 2-amino-2-methylpropan-1-ol	Mass fraction of diethanolamine	Viscosity, Pa*s	uncertainty
293.15	0.21	0.09	0.00472	0.00041
293.15	0.225	0.075	0.00475	0.00042
293.15	0.24	0.06	0.00477	0.00042
293.15	0.255	0.045	0.00478	0.00042
293.15	0.27	0.03	0.00482	0.00042
293.15	0.285	0.015	0.00484	0.00042
298.15	0.21	0.09	0.00368	0.00033
298.15	0.225	0.075	0.00369	0.00033
298.15	0.24	0.06	0.0037	0.00033
298.15	0.255	0.045	0.00373	0.00033
298.15	0.27	0.03	0.00375	0.00033
298.15	0.285	0.015	0.00376	0.00033
303.15	0.21	0.09	0.0031	0.00028
303.15	0.225	0.075	0.00312	0.00028
303.15	0.24	0.06	0.00313	0.00028
303.15	0.255	0.045	0.00315	0.00028
303.15	0.27	0.03	0.00316	0.00028
303.15	0.285	0.015	0.00318	0.00028
308.15	0.21	0.09	0.00267	0.00024
308.15	0.225	0.075	0.00268	0.00024
308.15	0.24	0.06	0.0027	0.00024
308.15	0.255	0.045	0.00271	0.00024
308.15	0.27	0.03	0.00274	0.00025
308.15	0.285	0.015	0.00276	0.00025
313.15	0.21	0.09	0.00213	0.0002
313.15	0.225	0.075	0.00215	0.0002
313.15	0.24	0.06	0.00216	0.0002
313.15	0.255	0.045	0.00218	0.0002
313.15	0.27	0.03	0.00219	0.0002
313.15	0.285	0.015	0.00221	0.0002
318.15	0.21	0.09	0.00184	0.00017
318.15	0.225	0.075	0.00186	0.00017
318.15	0.24	0.06	0.00187	0.00017
318.15	0.255	0.045	0.00188	0.00017
318.15	0.27	0.03	0.00189	0.00018
318.15	0.285	0.015	0.0019	0.00018
323.15	0.21	0.09	0.00148	0.00014
323.15	0.225	0.075	0.00149	0.00014
323.15	0.24	0.06	0.00152	0.00014
323.15	0.255	0.045	0.00154	0.00015
323.15	0.27	0.03	0.00155	0.00015
323.15	0.285	0.015	0.00157	0.00015

System: diethanolamine + 2-amino-2-methylpropan-1-ol + water; phases: Liquid
Fixed: Pressure, kPa = 101.3
Property: Mass density, kg/m3 (Liquid); method: PYCNOM:UFactor:4
Temperature, K	Mass fraction of 2-amino-2-methylpropan-1-ol	Mass fraction of diethanolamine	Mass density, kg/m3	uncertainty
293.15	0.21	0.09	1010.4	1
293.15	0.225	0.075	1008.8	1
293.15	0.24	0.06	1006.9	1
293.15	0.255	0.045	1005.7	1
293.15	0.27	0.03	1003.9	1
293.15	0.285	0.015	1002.1	1
298.15	0.21	0.09	1006.4	1.1
298.15	0.225	0.075	1005.7	1.1
298.15	0.24	0.06	1004.6	1.1
298.15	0.255	0.045	1003.1	1.1
298.15	0.27	0.03	1001	1.1
298.15	0.285	0.015	998.99	1.06
303.15	0.21	0.09	1006.4	1.1
303.15	0.225	0.075	1004.8	1.1
303.15	0.24	0.06	1002.8	1.1
303.15	0.255	0.045	1000.2	1.1
303.15	0.27	0.03	998.21	1.1
303.15	0.285	0.015	996.53	1.09
308.15	0.21	0.09	1003.2	1.1
308.15	0.225	0.075	1001.7	1.2
308.15	0.24	0.06	999.57	1.15
308.15	0.255	0.045	998.81	1.15
308.15	0.27	0.03	995.83	1.14
308.15	0.285	0.015	993.93	1.14
313.15	0.21	0.09	1001.1	1.2
313.15	0.225	0.075	998.13	1.19
313.15	0.24	0.06	996.3	1.19
313.15	0.255	0.045	993.85	1.18
313.15	0.27	0.03	992.6	1.18
313.15	0.285	0.015	990.3	1.17
318.15	0.21	0.09	997.6	1.23
318.15	0.225	0.075	995.82	1.23
318.15	0.24	0.06	993.42	1.22
318.15	0.255	0.045	992.71	1.21
318.15	0.27	0.03	990.3	1.22
318.15	0.285	0.015	989	1.21
323.15	0.21	0.09	994.32	1.27
323.15	0.225	0.075	992.91	1.27
323.15	0.24	0.06	991.49	1.26
323.15	0.255	0.045	990.15	1.26
323.15	0.27	0.03	988.1	1.26
323.15	0.285	0.015	985.97	1.26
