Measured thermophysical data. Fluid Phase Equilibria of Binary n-Alkane + Squalane Systems
Source: J. Chem. Eng. Data, 2003, 10.1021/je020127z
Compound 1: ethane, C2H6, InChI=1S/C2H6/c1-2/h1-2H3, purity 99.95%
Compound 2: propane, C3H8, InChI=1S/C3H8/c1-3-2/h3H2,1-2H3, purity 99.95%
Compound 3: 2,6,10,15,19,23-hexamethyltetracosane, C30H62, InChI=1S/C30H62/c1-25(2)15-11-19-29(7)23-13-21-27(5)17-9-10-18-28(6)22-14-24-30(8)20-12-16-26(3)4/h25-30H,9-24H2,1-8H3, purity 99%

System: ethane + 2,6,10,15,19,23-hexamethyltetracosane; phases: Liquid mixture 1, Gas, Liquid mixture 2
Property: Critical pressure, kPa (Liquid mixture 1); method: Direct measurement
Critical pressure, kPa	uncertainty
5013	100

System: ethane + 2,6,10,15,19,23-hexamethyltetracosane; phases: Liquid mixture 1, Gas, Liquid mixture 2
Property: Critical temperature, K (Liquid mixture 1); method: Visual observation in an unstirred cell
Critical temperature, K	uncertainty
306.69	0.16

System: ethane + 2,6,10,15,19,23-hexamethyltetracosane; phases: Liquid mixture 1, Liquid mixture 2, Gas
Property: Lower consolute temperature, K (Liquid mixture 1); method: APPEAR
Lower consolute temperature, K	uncertainty
295.57	0.23

System: ethane + 2,6,10,15,19,23-hexamethyltetracosane; phases: Liquid mixture 1, Liquid mixture 2, Gas
Property: Vapor or sublimation pressure, kPa (Liquid mixture 1); method: CCELL:UFactor:2
Temperature, K	Vapor or sublimation pressure, kPa	uncertainty
295.57	3930	25
295.71	3961	25
296	3979	25
296.53	4028	25
297.38	4105	26
297.89	4166	26
298.3	4196	26
298.79	4231	27
299.33	4287	27
300.34	4374	28
300.94	4436	28
301.35	4474	28
302.37	4570	29
302.53	4581	29
303.43	4685	30
304.42	4775	30
305.32	4865	31
306.51	4996	31
306.69	5013	32

System: ethane + 2,6,10,15,19,23-hexamethyltetracosane; phases: Liquid, Gas
Property: Vapor or sublimation pressure, kPa (Liquid); method: CCELL:UFactor:2
Mole fraction of ethane	Temperature, K	Vapor or sublimation pressure, kPa	uncertainty
0.2046	283.6	330	5
0.2046	293.53	385	6
0.2046	303.6	450	6
0.2046	313.56	520	6
0.2046	323.48	600	6
0.2046	332.99	670	6
0.2046	342.92	745	7
0.2046	352.87	825	7
0.2046	362.85	915	7
0.2046	372.79	1000	8
0.2046	382.75	1090	8
0.2046	392.77	1170	9
0.2046	402.82	1260	9
0.2046	412.52	1345	9
0.2046	422.85	1425	10
0.2046	432.82	1520	10
0.2046	442.84	1600	11
0.2046	452.91	1655	11
0.2046	462.75	1740	11
0.2046	472.76	1815	12
0.2046	422.85	1425	10
0.2994	273.57	430	6
0.2994	283.58	530	6
0.2994	293.68	630	6
0.2994	303.5	720	7
0.2994	313.48	830	7
0.2994	323.62	955	8
0.2994	332.92	1075	8
0.2994	333.66	1080	8
0.2994	342.75	1200	9
0.2994	352.72	1330	9
0.2994	362.79	1470	10
0.2994	372.75	1605	11
0.2994	382.7	1745	11
0.2994	392.82	1890	12
0.2994	402.76	2025	13
0.2994	412.35	2160	14
0.2994	422.39	2295	15
0.2994	432.49	2425	15
0.2994	442.52	2560	16
0.2994	452.57	2685	17
0.2994	462.59	2805	18
0.2994	472.6	2925	19
0.3989	273.64	610	6
0.3989	283.53	745	7
0.3989	293.59	895	7
0.3989	303.53	1050	8
0.3989	313.6	1225	9
0.3989	323.48	1405	10
0.3989	332.67	1580	10
0.3989	333.66	1600	11
0.3989	342.6	1775	11
0.3989	352.73	1990	13
0.3989	362.89	2195	14
0.3989	372.89	2410	15
0.3989	382.84	2615	17
0.3989	392.74	2835	18
0.3989	402.71	3035	19
0.3989	412.63	3240	21
0.3989	422.64	3440	22
0.3989	432.65	3640	23
0.3989	442.52	3830	24
0.3989	452.66	4015	25
0.3989	462.66	4190	27
0.3989	472.68	4360	28
0.5031	273.52	865	7
0.5031	283.69	1070	8
0.5031	293.52	1265	9
0.5031	303.5	1495	10
0.5031	313.57	1745	11
0.5031	323.03	1990	13
0.5031	332.98	2270	14
0.5031	342.9	2570	16
0.5031	352.77	2855	18
0.5031	362.36	3165	20
0.5031	372.43	3480	22
0.5031	382.68	3780	24
0.5031	392.25	4100	26
0.5031	402.38	4405	28
0.5031	412.46	4705	30
0.5031	422.71	4995	31
0.5031	432.51	5290	33
0.5031	442.71	5560	35
0.5031	452.73	5825	37
0.5031	462.7	6070	38
0.5031	472.72	6310	40
0.5975	263.78	890	10
0.5975	273.62	1200	10
0.5975	283.59	1450	10
0.5975	293.51	1740	10
0.5975	303.5	2050	10
0.5975	313.58	2400	20
0.5975	322.98	2830	20
0.5975	323.61	2770	20
0.5975	332.79	3150	20
0.5975	342.67	3560	20
0.5975	352.91	3980	30
0.5975	362.99	4430	30
0.5975	373.01	4830	30
0.5975	382.43	5270	30
0.5975	392.31	5700	40
0.5975	402.04	6140	40
0.5975	412.06	6550	40
0.5975	422.7	6950	40
0.5975	432.69	7340	50
0.5975	442.68	7720	50
0.5975	452.71	8060	50
0.5975	462.68	8410	50
0.5975	472.67	8720	50
0.5975	382.43	5270	30
0.7012	263.48	1205	9
0.7012	273.39	1505	10
0.7012	283.48	1870	12
0.7012	293.59	2270	14
0.7012	299.35	2540	16
0.7012	313.46	3210	20
0.7012	323.45	3750	23
0.7012	332.97	4300	27
0.7012	342.94	4905	31
0.7012	352.85	5525	34
0.7012	362.83	6165	38
0.7012	372.56	6805	42
0.7012	382.78	7460	47
0.7012	392.76	8095	51
0.7012	402.72	8715	54
0.7012	412.76	9315	58
0.7012	422.77	9850	61
0.7012	432.79	10435	65
0.7012	442.79	10950	68
0.7012	452.81	11425	71
0.7012	462.81	11875	74
0.7012	472.79	12290	77
0.8007	263.45	1500	10
0.8007	273.42	1900	12
0.8007	283.49	2380	15
0.8007	293.46	2935	18
0.8007	303.51	3580	22
0.8007	313.49	4300	27
0.8007	323.45	5110	32
0.8007	332.95	5945	37
0.8007	342.82	6885	43
0.8007	352.79	7860	49
0.8007	362.87	8860	55
0.8007	372.91	9850	61
0.8007	382.87	10790	67
0.8007	392.8	11695	73
0.8007	402.79	12550	78
0.8007	412.83	13365	83
0.8007	422.85	14120	88
0.8007	432.86	14825	92
0.8498	263.55	1655	11
0.8498	273.59	2115	13
0.8498	283.69	2665	17
0.8498	293.48	3300	21
0.8498	303.51	4065	25
0.8498	313.55	4965	31
0.8498	323.5	6015	37
0.8498	332.92	7230	45
0.8498	342.92	8525	53
0.8498	353	9825	61
0.8498	363.03	11085	69
0.8498	373.03	12280	76
0.8498	382.96	13395	83
0.8498	392.85	14435	90
0.8992	263.49	1815	12
0.8992	273.58	2320	14
0.8992	283.49	2925	18
0.8992	293.52	3665	23
0.8992	303.49	4575	29
0.8992	313.49	5870	37
0.8992	323.05	7520	47
0.8992	333.06	9235	57
0.8992	343.03	10850	67
0.8992	353	12360	77
0.8992	362.94	13760	85
0.8992	372.89	15050	93
0.8992	382.81	16240	101

System: ethane + 2,6,10,15,19,23-hexamethyltetracosane; phases: Liquid mixture 1, Gas
Property: Vapor or sublimation pressure, kPa (Liquid mixture 1); method: CCELL:UFactor:2
Mole fraction of ethane	Temperature, K	Vapor or sublimation pressure, kPa	uncertainty
0.9504	263.59	1865	12
0.9504	273.58	2385	15
0.9504	283.52	3015	19
0.9504	293.57	3785	24
0.9752	263.53	1885	12
0.9752	273.52	2405	15
0.9752	283.46	3030	19
0.9752	293.55	3785	24
0.9752	294.44	3860	24
0.9799	248.78	1265	9
0.9799	263.57	1885	12
0.9799	273.59	2405	15
0.9799	283.57	3035	19
0.9799	293.6	3790	24

System: ethane + 2,6,10,15,19,23-hexamethyltetracosane; phases: Liquid mixture 1, Liquid mixture 2
Property: Liquid-liquid equilibrium temperature, K (Liquid mixture 1); method: VISOBS:UFactor:2
Mole fraction of ethane	Pressure, kPa	Liquid-liquid equilibrium temperature, K	uncertainty
0.9504	4410	298.48	0.31
0.9504	5515	303.43	0.31
0.9504	6600	308.48	0.31
0.9504	7615	313.41	0.31
0.9504	8605	318.4	0.31
0.9504	9560	323.41	0.31
0.9504	11225	332.57	0.31
0.9504	12865	342.5	0.31
0.9504	14365	352.47	0.31
0.9752	4380	297.4	0.31
0.9752	4620	298.46	0.31
0.9752	4820	299.37	0.31
0.9752	5035	300.34	0.31
0.9752	5260	301.35	0.31
0.9752	5485	302.38	0.31
0.9752	5715	303.43	0.31
0.9752	5720	303.46	0.31
0.9752	5925	304.42	0.31
0.9752	6120	305.32	0.31
0.9752	6280	306.3	0.31
0.9752	6490	307.07	0.31
0.9752	6765	308.4	0.31
0.9752	7775	313.36	0.31
0.9752	8760	318.4	0.31
0.9752	9695	323.42	0.31
0.9752	10595	328.47	0.31
0.9752	11330	332.95	0.31
0.9752	12925	342.93	0.31
0.9752	14380	352.97	0.31
0.9799	4380	297.54	0.31
0.9799	4665	298.79	0.31
0.9799	5040	300.5	0.31
0.9799	5705	303.56	0.31
0.9799	7765	313.57	0.31
0.9799	9660	323.56	0.31
0.9799	10566	328.61	0.31

System: propane + 2,6,10,15,19,23-hexamethyltetracosane; phases: Liquid, Gas
Property: Critical pressure, kPa (Liquid); method: Direct measurement
Mole fraction of propane	Critical pressure, kPa	uncertainty
0.96	10407	209
0.9701	7416	149
0.9751	6755	135
0.9803	6123	123

System: propane + 2,6,10,15,19,23-hexamethyltetracosane; phases: Liquid, Gas
Property: Critical temperature, K (Liquid); method: Visual observation in an unstirred cell
Mole fraction of propane	Critical temperature, K	uncertainty
0.96	442.77	0.21
0.9701	406.44	0.18
0.9751	398.67	0.16
0.9803	393.46	0.16

System: propane + 2,6,10,15,19,23-hexamethyltetracosane; phases: Liquid, Gas
Property: Vapor or sublimation pressure, kPa (Liquid); method: CCELL:UFactor:8
Mole fraction of propane	Temperature, K	Vapor or sublimation pressure, kPa	uncertainty
0.1525	332.87	182	7
0.1525	342.79	205	7
0.1525	352.77	237	7
0.1525	362.74	271	8
0.1525	372.76	307	9
0.1525	382.71	346	9
0.1525	392.72	388	10
0.1525	402.71	430	11
0.1525	412.7	474	12
0.1525	422.7	519	13
0.1525	432.73	565	14
0.1525	442.72	610	15
0.1525	453.22	658	16
0.1525	463.21	705	18
0.1525	473.39	751	19
0.3018	315.97	273	8
0.3018	325.31	325	9
0.3018	332.42	366	10
0.3018	341.83	427	11
0.3018	347.72	467	12
0.3018	352.71	503	13
0.3018	362.61	581	15
0.3018	372.72	666	17
0.3018	382.71	753	19
0.3018	392.69	844	21
0.3018	402.67	939	23
0.3018	412.58	1038	26
0.3018	422.66	1140	28
0.3018	432.68	1241	31
0.3018	442.65	1344	33
0.3018	452.68	1449	36
0.3018	462.66	1554	39
0.3018	473.82	1669	42
0.398	297.92	259	8
0.398	304.56	300	9
0.398	313.42	362	10
0.398	323.35	440	11
0.398	333.3	529	13
0.398	343.27	624	16
0.398	353.24	731	18
0.398	363.35	846	21
0.398	373.31	967	24
0.398	383.28	1097	27
0.398	393.26	1231	31
0.398	403.25	1373	34
0.398	413.22	1528	38
0.398	423.2	1665	41
0.398	433.16	1814	45
0.398	443.14	1970	49
0.398	453.08	2119	53
0.398	463.07	2272	57
0.398	473.06	2426	60
0.5012	298.89	360	10
0.5012	303.81	407	11
0.5012	313.44	499	13
0.5012	323.39	609	15
0.5012	333.3	738	18
0.5012	343.31	872	22
0.5012	353.5	1024	26
0.5012	363.5	1186	30
0.5012	373.49	1360	34
0.5012	383.49	1549	39
0.5012	393.52	1741	43
0.5012	403.53	1947	48
0.5012	413.56	2157	54
0.5012	423.63	2372	59
0.5012	433.68	2598	65
0.5012	443.36	2807	70
0.5012	453.32	3032	75
0.5012	463.27	3249	81
0.6012	263.47	180	7
0.6012	273.49	242	8
0.6012	283.46	320	9
0.6012	293.48	416	11
0.6012	303.4	530	13
0.6012	313.39	656	16
0.6012	323.37	802	20
0.6012	333.36	961	24
0.6012	343.34	1152	29
0.6012	353.29	1357	34
0.6012	363.28	1581	39
0.6012	373.26	1824	45
0.6012	383.29	2084	52
0.6012	393.26	2354	59
0.6012	403.27	2637	66
0.6012	413.3	2932	73
0.6012	423.28	3234	80
0.6012	433.3	3541	88
0.6012	443.3	3852	96
0.6012	453.29	4154	103
0.6012	463.28	4462	111
0.6012	473.28	4763	118
0.7005	263.48	225	7
0.7005	273.52	305	9
0.7005	283.45	403	11
0.7005	293.47	524	13
0.7005	303.42	667	17
0.7005	313.4	833	21
0.7005	323.41	1025	26
0.7005	333.41	1246	31
0.7005	343.29	1492	37
0.7005	353.28	1766	44
0.7005	363.27	2069	51
0.7005	373.27	2399	60
0.7005	383.25	2752	68
0.7005	393.23	3134	78
0.7005	403.23	3526	88
0.7005	413.25	3937	98
0.7005	423.22	4360	108
0.7005	433.18	4788	119
0.7005	443.28	5219	130
0.7005	453.22	5648	140
0.7005	463.22	6069	151
0.7005	473.28	6480	161
0.7999	263.44	274	8
0.7999	273.47	372	10
0.7999	283.44	494	12
0.7999	293.44	644	16
0.7999	303.4	823	21
0.7999	313.38	1037	26
0.7999	323.39	1286	32
0.7999	333.32	1570	39
0.7999	343.27	1893	47
0.7999	353.23	2260	56
0.7999	363.22	2669	66
0.7999	373.21	3121	78
0.7999	383.21	3614	90
0.7999	393.22	4148	103
0.7999	403.24	4713	117
0.7999	413.25	5299	132
0.7999	423.26	5908	147
0.7999	433.42	6519	162
0.7999	443.41	7119	177
0.7999	453.39	7704	191
0.7999	463.34	8269	205
0.7999	473.34	8809	219
0.9	263.49	323	9
0.9	273.52	441	11
0.9	283.5	587	15
0.9	293.43	765	19
0.9	303.4	987	25
0.9	313.42	1245	31
0.9	323.4	1558	39
0.9	333.41	1912	48
0.9	333.53	1918	48
0.9	343.52	2330	58
0.9	353.51	2808	70
0.9	363.47	3358	83
0.9	373.45	3979	99
0.9	383.42	4689	116
0.9	393.33	5479	136
0.9	403.28	6342	157
0.9	403.39	6336	157
0.9	413.11	7212	179
0.9	422.66	8052	200
0.9	432.79	8887	220
0.9	442.59	9652	239
0.9	452.2	10357	257
0.9	461.96	11012	273
0.9	471.86	11607	288
0.9499	263.43	338	9
0.9499	273.48	463	12
0.9499	283.46	618	15
0.9499	293.44	809	20
0.9499	303.44	1042	26
0.9499	313.42	1320	33
0.9499	323.41	1651	41
0.9499	333.41	2041	51
0.9499	343.46	2502	62
0.9499	353.33	3016	75
0.9499	363.29	3612	90
0.9499	373.2	4304	107
0.9499	383.14	5130	127
0.9499	393.08	6092	151
0.9499	402.94	7082	176
0.9499	412.7	8017	199
0.9499	422.58	8882	220
0.9499	432.3	9662	240
0.9499	442.13	10382	257
0.9499	447.18	10723	266
0.9499	447.21	10717	266
0.9499	452.16	11038	274
0.9499	457.12	11333	281
0.9499	461.09	11558	287
0.9499	373.2	4304	107
0.96	263.45	340	9
0.96	273.41	464	12
0.96	283.44	621	16
0.96	293.42	813	20
0.96	303.4	1047	26
0.96	313.38	1327	33
0.96	323.35	1655	41
0.96	333.35	2040	51
0.96	343.3	2489	62
0.96	353.23	3003	75
0.96	363.2	3599	89
0.96	373.17	4296	107
0.96	383.19	5134	127
0.96	393.39	6142	152
0.96	403.34	7137	177
0.96	413.34	8072	200
0.96	423.31	8937	222
0.96	428.31	9342	232
0.96	430.3	9497	236
0.96	432.29	9647	239
0.96	438.27	10092	250
0.96	442.3	10372	257
0.9701	263.46	333	9
0.9701	273.5	459	12
0.9701	283.47	617	15
0.9701	293.45	814	20
0.9701	303.39	1047	26
0.9701	313.38	1327	33
0.9701	323.35	1656	41
0.9701	333.33	2044	51
0.9701	343.35	2512	62
0.9701	353.35	3032	75
0.9701	363.36	3636	90
0.9701	373.51	4349	108
0.9701	383.42	5192	129
0.9701	393.48	6176	153
0.9701	403.48	7141	177
0.9701	404.45	7236	179
0.9751	263.56	347	9
0.9751	273.62	474	12
0.9751	283.59	634	16
0.9751	293.56	832	21
0.9751	303.5	1069	27
0.9751	303.56	1071	27
0.9751	313.5	1357	34
0.9751	322.97	1680	42
0.9751	323.58	1697	42
0.9751	332.93	2075	52
0.9751	342.85	2525	63
0.9751	352.74	3040	75
0.9751	362.76	3655	91
0.9751	367.78	4000	99
0.9751	372.78	4360	108
0.9751	382.7	5200	129
0.9751	387.68	5685	141
0.9751	392.66	6170	153
0.9751	397.66	6660	165
0.9803	263.49	349	9
0.9803	273.49	476	12
0.9803	283.46	635	16
0.9803	293.45	831	21
0.9803	303.4	1069	27
0.9803	313.41	1354	34
0.9803	323.4	1690	42
0.9803	333.43	2084	52
0.9803	343.42	2540	63
0.9803	353.36	3062	76
0.9803	363.35	3669	91
0.9803	373.35	4374	109
0.9803	383.36	5227	130

System: propane + 2,6,10,15,19,23-hexamethyltetracosane; phases: Gas, Liquid
Property: Vapor or sublimation pressure, kPa (Gas); method: CCELL:UFactor:4
Mole fraction of propane	Temperature, K	Vapor or sublimation pressure, kPa	uncertainty
0.96	443.3	10437	129
0.96	448.3	10772	134
0.9701	408.46	7601	94
0.9701	413.48	8051	100
0.9701	423.45	8891	110
0.9701	428.48	9291	115
0.9701	433.61	9672	120
0.9701	443.51	10357	128
0.9701	453.51	10977	136
0.9701	463.52	11512	143
0.9701	473.51	11967	148
0.9751	399.16	6805	84
0.9751	400.7	6945	86
0.9751	402.65	7140	89
0.9751	407.65	7600	94
0.9751	412.68	8045	100
0.9751	422.66	8885	110
0.9751	432.65	9650	120
0.9751	442.65	10335	128
0.9751	452.68	10940	136
0.9751	462.68	11460	142
0.9751	472.73	11905	148
0.9803	394.39	6303	78
0.9803	395.41	6403	79
0.9803	403.39	7163	89
0.9803	413.4	8063	100
0.9803	423.41	8888	110
0.9803	433.48	9638	120
