Measured thermophysical data. Solubility of Artemisinin in Supercritical Carbon Dioxide
Source: J. Chem. Eng. Data, 2003, 10.1021/je025575l
Compound 1: artemisinin, C15H22O5, InChI=1S/C15H22O5/c1-8-4-5-11-9(2)12(16)17-13-15(11)10(8)6-7-14(3,18-13)19-20-15/h8-11,13H,4-7H2,1-3H3/t8-,9-,10+,11+,13-,14-,15-/m1/s1
Compound 2: carbon dioxide, CO2, InChI=1S/CO2/c2-1-3

System: carbon dioxide + artemisinin; phases: Fluid (supercritical or subcritical phases), Crystal
Property: Mole fraction of artemisinin (Fluid (supercritical or subcritical phases)); method: OTHER
Temperature, K	Pressure, kPa	Mole fraction of artemisinin	uncertainty
310.1	10000	0.000663	2.5e-05
310.1	12000	0.000903	3.1e-05
310.1	14000	0.001139	3.8e-05
310.1	16000	0.001346	4.5e-05
310.1	18000	0.001629	5.3e-05
310.1	20000	0.001734	5.6e-05
310.1	22000	0.001864	6e-05
310.1	24000	0.001982	6.4e-05
310.1	27000	0.002125	6.8e-05
318.1	10000	0.000342	2.2e-05
318.1	12000	0.000768	3.1e-05
318.1	14000	0.00106	3.7e-05
318.1	16000	0.001337	4.5e-05
318.1	18000	0.001587	5.2e-05
318.1	20000	0.001799	5.8e-05
318.1	22000	0.001983	6.4e-05
318.1	24000	0.00212	6.8e-05
318.1	26000	0.002226	7.2e-05
328.1	10000	9.9e-05	1.7e-05
328.1	12000	0.000502	2.4e-05
328.1	14000	0.00081	3.2e-05
328.1	16000	0.001242	4.4e-05
328.1	18000	0.001591	5.3e-05
328.1	20000	0.001893	6.2e-05
328.1	22000	0.002169	7e-05
328.1	24000	0.002375	7.7e-05
328.1	26000	0.002519	8.1e-05
338.1	10100	9.8e-05	1.1e-05
338.1	12000	0.000307	1.7e-05
338.1	14000	0.000642	2.7e-05
338.1	16000	0.00099	3.7e-05
338.1	18000	0.001437	5.1e-05
338.1	20000	0.001868	6.3e-05
338.1	22000	0.002238	7.3e-05
338.1	24000	0.002501	8.1e-05
338.1	26000	0.002659	8.5e-05
