Measured thermophysical data. Ternary Liquid-Liquid Equilibria for Mixtures of 1-Methyl-3-octylimidazolium Chloride + an Alkanol + an Alkane at 298.2 K and 1 bar
Source: J. Chem. Eng. Data, 2003, 10.1021/je025629r
Compound 1: 1-methyl-3-octylimidazolium chloride, C12H23ClN2, InChI=1S/C12H23N2.ClH/c1-3-4-5-6-7-8-9-14-11-10-13(2)12-14;/h10-12H,3-9H2,1-2H3;1H/q+1;/p-1, purity 98%
Compound 2: hexadecane, C16H34, InChI=1S/C16H34/c1-3-5-7-9-11-13-15-16-14-12-10-8-6-4-2/h3-16H2,1-2H3, purity 99%
Compound 3: dodecane, C12H26, InChI=1S/C12H26/c1-3-5-7-9-11-12-10-8-6-4-2/h3-12H2,1-2H3, purity 99%
Compound 4: heptane, C7H16, InChI=1S/C7H16/c1-3-5-7-6-4-2/h3-7H2,1-2H3, purity 99%
Compound 5: methanol, CH4O, InChI=1S/CH4O/c1-2/h2H,1H3, purity 99%
Compound 6: ethanol, C2H6O, InChI=1S/C2H6O/c1-2-3/h3H,2H2,1H3, purity 99%

System: 1-methyl-3-octylimidazolium chloride; phases: Liquid
Property: Mass density, kg/m3 (Liquid); method: VIBTUB:dT:.005
Temperature, K	Pressure, kPa	Mass density, kg/m3	uncertainty
298.2	101.325	1010.4	1

System: hexadecane; phases: Liquid
Property: Mass density, kg/m3 (Liquid); method: VIBTUB:dT:.005
Temperature, K	Pressure, kPa	Mass density, kg/m3	uncertainty
298.2	101.325	770.3	0.4

System: dodecane; phases: Liquid
Property: Mass density, kg/m3 (Liquid); method: VIBTUB:dT:.005
Temperature, K	Pressure, kPa	Mass density, kg/m3	uncertainty
298.2	101.325	746.6	0.4

System: heptane; phases: Liquid
Property: Mass density, kg/m3 (Liquid); method: VIBTUB:dT:.005
Temperature, K	Pressure, kPa	Mass density, kg/m3	uncertainty
298.2	101.325	682.3	0.4

System: methanol; phases: Liquid
Property: Mass density, kg/m3 (Liquid); method: VIBTUB:dT:.005
Temperature, K	Pressure, kPa	Mass density, kg/m3	uncertainty
298.2	101.325	786.27	0.42

System: ethanol; phases: Liquid
Property: Mass density, kg/m3 (Liquid); method: VIBTUB:dT:.005
Temperature, K	Pressure, kPa	Mass density, kg/m3	uncertainty
298.2	101.325	784.93	0.42

System: methanol + heptane + 1-methyl-3-octylimidazolium chloride; phases: Liquid mixture 1, Liquid mixture 2
Fixed: Pressure, kPa = 100
Fixed: Temperature, K = 298.2
Property: Mole fraction of methanol (Liquid mixture 1); method: TITR:UFactor:2
Mole fraction of 1-methyl-3-octylimidazolium chloride	Mole fraction of methanol	uncertainty
0	0.902	0.006
0.007	0	0.001
0.09	0.85	0.012
0.183	0.728	0.017
0.235	0.697	0.019
0.282	0.641	0.022
0.384	0.533	0.029
0.463	0.447	0.028
0.466	0.439	0.027
0.546	0.365	0.024
0.551	0.346	0.023
0.622	0.274	0.017
0.737	0.179	0.011
0.935	0	0.001

System: methanol + heptane + 1-methyl-3-octylimidazolium chloride; phases: Liquid mixture 1, Liquid mixture 2
Fixed: Temperature, K = 298.2
Fixed: Pressure, kPa = 101.3
Property: Mole fraction of methanol (Liquid mixture 1); method: OTHER
Property: Mole fraction of 1-methyl-3-octylimidazolium chloride (Liquid mixture 2); method: OTHER
Property: Mole fraction of methanol (Liquid mixture 2); method: OTHER
Mole fraction of 1-methyl-3-octylimidazolium chloride	Mole fraction of methanol	uncertainty	Mole fraction of 1-methyl-3-octylimidazolium chloride	uncertainty	Mole fraction of methanol	uncertainty
0.183	0.728	0.003	0	0.001	0.02	
0.463	0.447	0.003	0	0.001	0.001	
0.546	0.365	0.003	0.001	0.001	0.0005	

System: methanol + hexadecane + 1-methyl-3-octylimidazolium chloride; phases: Liquid mixture 1, Liquid mixture 2
Fixed: Pressure, kPa = 100
Fixed: Temperature, K = 298.2
Property: Mole fraction of methanol (Liquid mixture 1); method: TITR:UFactor:2
Mole fraction of 1-methyl-3-octylimidazolium chloride	Mole fraction of methanol	uncertainty
0	0.008	0.002
0.01	0	0.001
0.1	0.898	0.016
0.139	0.859	0.009
0.245	0.75	0.016
0.295	0.7	0.019
0.411	0.582	0.026
0.492	0.501	0.031
0.69	0.297	0.018
0.712	0.278	0.017
0.873	0.111	0.007
0.903	0.078	0.005
0.981	0	0.001

System: methanol + hexadecane + 1-methyl-3-octylimidazolium chloride; phases: Liquid mixture 1, Liquid mixture 2
Fixed: Pressure, kPa = 101.3
Fixed: Temperature, K = 298.15
Property: Mole fraction of methanol (Liquid mixture 1); method: OTHER
Property: Mole fraction of methanol (Liquid mixture 2); method: OTHER
Property: Mole fraction of 1-methyl-3-octylimidazolium chloride (Liquid mixture 2); method: OTHER
Mole fraction of 1-methyl-3-octylimidazolium chloride	Mole fraction of methanol	uncertainty	Mole fraction of methanol	uncertainty	Mole fraction of 1-methyl-3-octylimidazolium chloride	uncertainty
0.873	0.111	0.003	0.0003	0.0003	0.001	
0.69	0.297	0.003	0.0003	0.0003	0.001	
0.411	0.582	0.003	0.0003	0.0003	0.001	
0.245	0.75	0.003	0.0003	0.0003	0.001	
0.139	0.859	0.003	0.0006	0.0006	0.0004	

System: ethanol + hexadecane + 1-methyl-3-octylimidazolium chloride; phases: Liquid mixture 1, Liquid mixture 2
Fixed: Pressure, kPa = 100
Fixed: Temperature, K = 298.2
Property: Mole fraction of ethanol (Liquid mixture 1); method: TITR:UFactor:2
Mole fraction of 1-methyl-3-octylimidazolium chloride	Mole fraction of ethanol	uncertainty
0	0.956	0.003
0.01	0	0.001
0.097	0.876	0.018
0.125	0.846	0.01
0.221	0.758	0.015
0.279	0.709	0.018
0.291	0.693	0.019
0.306	0.679	0.02
0.451	0.538	0.029
0.459	0.532	0.029
0.48	0.513	0.03
0.543	0.449	0.028
0.586	0.407	0.025
0.599	0.396	0.025
0.981	0	0.001

System: ethanol + hexadecane + 1-methyl-3-octylimidazolium chloride; phases: Liquid mixture 1, Liquid mixture 2
Fixed: Temperature, K = 298.2
Fixed: Pressure, kPa = 101.3
Property: Mole fraction of ethanol (Liquid mixture 1); method: OTHER
Property: Mole fraction of 1-methyl-3-octylimidazolium chloride (Liquid mixture 2); method: OTHER
Property: Mole fraction of ethanol (Liquid mixture 2); method: OTHER
Mole fraction of 1-methyl-3-octylimidazolium chloride	Mole fraction of ethanol	uncertainty	Mole fraction of 1-methyl-3-octylimidazolium chloride	uncertainty	Mole fraction of ethanol	uncertainty
0.125	0.846	0.003	0.001	0.001	0.002	
0.221	0.758	0.003	0	0.001	0.002	
0.306	0.679	0.003	0.001	0.001	0.001	
0.46	0.532	0.003	0.001	0.001	0	
0.587	0.407	0.003	0.001	0.001	0.0001	

System: ethanol + dodecane + 1-methyl-3-octylimidazolium chloride; phases: Liquid mixture 1, Liquid mixture 2
Fixed: Pressure, kPa = 100
Fixed: Temperature, K = 298.2
Property: Mole fraction of ethanol (Liquid mixture 1); method: TITR:UFactor:2
Mole fraction of 1-methyl-3-octylimidazolium chloride	Mole fraction of ethanol	uncertainty
0.008	0.535	0.046
0.009	0	0.001
0.027	0.875	0.021
0.077	0.86	0.009
0.098	0.859	0.009
0.14	0.81	0.012
0.27	0.684	0.02
0.286	0.672	0.02
0.315	0.651	0.022
0.43	0.532	0.029
0.481	0.482	0.03
0.5	0.478	0.03
0.694	0.294	0.018
0.89	0.009	0.004
0.923	0.064	0.004
0.976	0	0.001

System: ethanol + dodecane + 1-methyl-3-octylimidazolium chloride; phases: Liquid mixture 1, Liquid mixture 2
Fixed: Temperature, K = 298.2
Fixed: Pressure, kPa = 101.3
Property: Mole fraction of ethanol (Liquid mixture 1); method: OTHER
Property: Mole fraction of 1-methyl-3-octylimidazolium chloride (Liquid mixture 2); method: OTHER
Property: Mole fraction of ethanol (Liquid mixture 2); method: OTHER
Mole fraction of 1-methyl-3-octylimidazolium chloride	Mole fraction of ethanol	uncertainty	Mole fraction of 1-methyl-3-octylimidazolium chloride	uncertainty	Mole fraction of ethanol	uncertainty
0.923	0.064	0.003	0.001	0.001	0.006	
0.43	0.532	0.003	0.001	0.001	0.007	
0.27	0.684	0.003	0.001	0.001	0.007	
0.14	0.81	0.003	0.002	0.002	0.008	

System: ethanol + heptane + 1-methyl-3-octylimidazolium chloride; phases: Liquid mixture 1, Liquid mixture 2
Fixed: Pressure, kPa = 100
Fixed: Temperature, K = 298.2
Property: Mole fraction of ethanol (Liquid mixture 1); method: TITR:UFactor:2
Mole fraction of 1-methyl-3-octylimidazolium chloride	Mole fraction of ethanol	uncertainty
0.007	0	0.001
0.007	0.007	0.007
0.007	0.003	0.003
0.029	0.489	0.038
0.062	0.678	0.023
0.264	0.574	0.026
0.306	0.536	0.029
0.36	0.489	0.03
0.454	0.4	0.025
0.493	0.371	0.023
0.634	0.241	0.015
0.935	0	0.001

System: ethanol + heptane + 1-methyl-3-octylimidazolium chloride; phases: Liquid mixture 1, Liquid mixture 2
Fixed: Temperature, K = 298.2
Fixed: Pressure, kPa = 101.3
Property: Mole fraction of ethanol (Liquid mixture 1); method: OTHER
Property: Mole fraction of ethanol (Liquid mixture 2); method: OTHER
Property: Mole fraction of 1-methyl-3-octylimidazolium chloride (Liquid mixture 2); method: OTHER
Mole fraction of 1-methyl-3-octylimidazolium chloride	Mole fraction of ethanol	uncertainty	Mole fraction of ethanol	uncertainty	Mole fraction of 1-methyl-3-octylimidazolium chloride	uncertainty
0.493	0.371	0.003	0.007	0.002	0.007	
0.36	0.489	0.003	0.007	0.002	0.007	
0.264	0.574	0.003	0.007	0.002	0.007	
