Measured thermophysical data. Separation of Furfural from Ternary Mixtures
Source: J. Chem. Eng. Data, 2003, 10.1021/je020117y
Compound 1: 2-furaldehyde, C5H4O2, InChI=1S/C5H4O2/c6-4-5-2-1-3-7-5/h1-4H, purity 99%
Compound 2: 5-methylfurfural, C6H6O2, InChI=1S/C6H6O2/c1-5-2-3-6(4-7)8-5/h2-4H,1H3, purity 97%
Compound 3: acetic acid, C2H4O2, InChI=1S/C2H4O2/c1-2(3)4/h1H3,(H,3,4), purity 99.5%
Compound 4: water, H2O, InChI=1S/H2O/h1H2

System: 2-furaldehyde; phases: Liquid, Gas
Property: Vapor or sublimation pressure, kPa (Liquid); method: EBULLIO:UFactor:16
Temperature, K	Vapor or sublimation pressure, kPa	uncertainty
339.16	2.94	0.16
342.7	3.49	0.17
344.87	3.96	0.17
349.71	4.99	0.17
349.76	4.98	0.17
353.68	5.97	0.17
355.16	6.47	0.17
409.5	49.34	0.24
429.5	88.98	0.3

System: 5-methylfurfural; phases: Liquid, Gas
Property: Vapor or sublimation pressure, kPa (Liquid); method: EBULLIO:UFactor:16
Temperature, K	Vapor or sublimation pressure, kPa	uncertainty
359.95	3	0.16
363.45	3.49	0.17
365.85	3.99	0.17
370.63	5	0.17
370.7	4.98	0.17
374.39	5.85	0.17
374.75	5.99	0.17
376.55	6.49	0.17
415.9	29.68	0.21
422.86	36.73	0.22
433.44	49.52	0.24
450.19	78.69	0.29

System: acetic acid; phases: Liquid, Gas
Property: Vapor or sublimation pressure, kPa (Liquid); method: EBULLIO:UFactor:16
Temperature, K	Vapor or sublimation pressure, kPa	uncertainty
368.1	49.34	0.24
386.07	88.98	0.31

System: 2-furaldehyde + 5-methylfurfural; phases: Liquid, Gas
Fixed: Pressure, kPa = 3.49
Property: Boiling temperature at pressure P, K (Liquid); method: EBULLIO:UFactor:4
Mole fraction of 2-furaldehyde	Boiling temperature at pressure P, K	uncertainty
0	363.45	1.84
0.0734	362.55	1.84
0.1176	361.28	1.84
0.2034	358.54	1.84
0.3027	355.99	1.84
0.3768	354.45	1.84
0.4093	353.76	1.84
0.478	352.12	1.84
0.695	348.06	1.84
0.7522	346.94	1.84
0.8822	345.19	1.84
0.9653	344.04	1.84
0.9761	343.32	1.84
1	342.7	1.84

System: 2-furaldehyde + 5-methylfurfural; phases: Liquid, Gas
Fixed: Pressure, kPa = 4.98
Property: Boiling temperature at pressure P, K (Liquid); method: EBULLIO:UFactor:4
Mole fraction of 2-furaldehyde	Boiling temperature at pressure P, K	uncertainty
0	370.7	1.31
0.0733	369.2	1.31
0.1175	368	1.31
0.2036	364.72	1.31
0.3034	363.31	1.31
0.3776	360.69	1.31
0.4103	360.37	1.31
0.4791	358.48	1.31
0.6963	354.67	1.31
0.7535	353.55	1.31
0.8831	352.01	1.31
0.9657	350.49	1.31
0.9764	350.45	1.31
1	349.76	1.31

System: 2-furaldehyde + 5-methylfurfural; phases: Gas, Liquid
Fixed: Pressure, kPa = 3.49
Property: Mole fraction of 2-furaldehyde (Gas); method: CHROM:UFactor:4
Mole fraction of 2-furaldehyde	Mole fraction of 2-furaldehyde	uncertainty
0.0734	0.1497	0.0072
0.1176	0.2327	0.0112
0.2034	0.3806	0.0183
0.3027	0.5279	0.0227
0.3768	0.6215	0.0182
0.4093	0.6587	0.0164
0.478	0.7304	0.013
0.695	0.8923	0.0052
0.7522	0.9217	0.0038
0.8822	0.9707	0.0014
0.9653	0.9925	0.0004
0.9761	0.995	0.0002

System: 2-furaldehyde + 5-methylfurfural; phases: Gas, Liquid
Fixed: Pressure, kPa = 4.98
Property: Mole fraction of 2-furaldehyde (Gas); method: CHROM:UFactor:4
Mole fraction of 2-furaldehyde	Mole fraction of 2-furaldehyde	uncertainty
0.0733	0.151	0.0073
0.1175	0.2335	0.0112
0.2036	0.3794	0.0182
0.3034	0.521	0.023
0.3776	0.6142	0.0186
0.4103	0.6497	0.0169
0.4791	0.7201	0.0135
0.6963	0.8803	0.0058
0.7535	0.9103	0.0043
0.8831	0.9624	0.0018
0.9657	0.9891	0.0005
0.9764	0.9924	0.0004

System: acetic acid + 2-furaldehyde; phases: Liquid, Gas
Fixed: Pressure, kPa = 49.34
Property: Boiling temperature at pressure P, K (Liquid); method: EBULLIO:UFactor:32
Mole fraction of acetic acid	Boiling temperature at pressure P, K	uncertainty
0	409.5	1.5
0.1165	402.04	1.5
0.2336	395.45	1.5
0.3466	391.13	1.5
0.472	385.6	1.5
0.5689	382.27	1.5
0.6634	380.13	1.5
0.7522	376.37	1.5
0.8451	373.4	1.5
0.8962	371.98	1.5
0.9165	371.37	1.5
0.9281	371.06	1.5
0.9499	370.3	1.5
0.9799	369.12	1.5
1	368.1	1.5

System: acetic acid + 2-furaldehyde; phases: Liquid, Gas
Fixed: Pressure, kPa = 88.98
Property: Boiling temperature at pressure P, K (Liquid); method: EBULLIO:UFactor:32
Mole fraction of acetic acid	Boiling temperature at pressure P, K	uncertainty
0	429.5	1.05
0.1003	422.33	1.05
0.2344	415.08	1.05
0.3499	409.6	1.05
0.4677	404.86	1.05
0.5676	401.03	1.05
0.6715	397.05	1.05
0.7472	395.03	1.05
0.8436	391.67	1.05
0.9046	389.94	1.05
0.9277	388.9	1.05
0.9364	388.47	1.05
0.9587	387.79	1.05
0.9796	386.95	1.05
1	386.07	1.05

System: acetic acid + 2-furaldehyde; phases: Gas, Liquid
Fixed: Pressure, kPa = 49.34
Property: Mole fraction of acetic acid (Gas); method: CHROM:UFactor:4
Mole fraction of acetic acid	Mole fraction of acetic acid	uncertainty
0.1165	0.3431	0.0165
0.2336	0.5655	0.0209
0.3466	0.6973	0.0146
0.472	0.8046	0.0095
0.5689	0.8606	0.0068
0.6634	0.9016	0.0048
0.7522	0.9369	0.0031
0.8451	0.9614	0.0019
0.8962	0.976	0.0012
0.9165	0.9771	0.0011
0.9281	0.9819	0.0009
0.9499	0.9863	0.0007
0.9799	0.9936	0.0003

System: acetic acid + 2-furaldehyde; phases: Gas, Liquid
Fixed: Pressure, kPa = 88.98
Property: Mole fraction of acetic acid (Gas); method: CHROM:UFactor:4
Mole fraction of acetic acid	Mole fraction of acetic acid	uncertainty
0.1003	0.2936	0.0141
0.2344	0.5436	0.022
0.3499	0.6803	0.0154
0.4677	0.7893	0.0102
0.5676	0.8526	0.0072
0.6715	0.8959	0.0051
0.7472	0.9214	0.0038
0.8436	0.9559	0.0022
0.9046	0.9726	0.0013
0.9277	0.9786	0.001
0.9364	0.9817	0.0009
0.9587	0.9863	0.0007
0.9796	0.9935	0.0003

System: 5-methylfurfural + water; phases: Liquid, Gas
Fixed: Mole fraction of water = 0
Property: Activity coefficient of water (Liquid); method: OTHER
Temperature, K	Activity coefficient of water	uncertainty
360.38	5.24	0.01
365.99	5.04	0.01
370.64	4.88	0.01

System: 2-furaldehyde + 5-methylfurfural + water; phases: Liquid mixture 1, Liquid mixture 2
Fixed: Temperature, K = 298.15
Fixed: Pressure, kPa = 101.3
Property: Mole fraction of water (Liquid mixture 1); method: CHROM:UFactor:4
Property: Mole fraction of water (Liquid mixture 2); method: CHROM:UFactor:4
Property: Mole fraction of 5-methylfurfural (Liquid mixture 2); method: CHROM:UFactor:4
Mole fraction of 5-methylfurfural	Mole fraction of water	uncertainty	Mole fraction of water	uncertainty	Mole fraction of 5-methylfurfural	uncertainty
0.6172	0.2123	0.0085	0.9911	0.0007	0.006	
0.5124	0.2014	0.0081	0.9902	0.0008	0.005	
0.3759	0.2056	0.0082	0.9884	0.0009	0.0039	
0.299	0.2097	0.0084	0.9875	0.001	0.0032	
0.3955	0.2059	0.0082	0.9895	0.0008	0.0038	
0.15	0.2189	0.0088	0.9854	0.0012	0.0017	
0.2455	0.2047	0.0082	0.9873	0.001	0.0026	
