Measured thermophysical data. Infinite Dilution Activity Coefficients of Hydrocarbons in Triethylene Glycol and Tetraethylene Glycol
Source: J. Chem. Eng. Data, 2003, 10.1021/je020196d
Compound 1: triethylene glycol, C6H14O4, InChI=1S/C6H14O4/c7-1-3-9-5-6-10-4-2-8/h7-8H,1-6H2
Compound 2: tetraethylene glycol, C8H18O5, InChI=1S/C8H18O5/c9-1-3-11-5-7-13-8-6-12-4-2-10/h9-10H,1-8H2
Compound 3: benzene, C6H6, InChI=1S/C6H6/c1-2-4-6-5-3-1/h1-6H
Compound 4: toluene, C7H8, InChI=1S/C7H8/c1-7-5-3-2-4-6-7/h2-6H,1H3
Compound 5: ethylbenzene, C8H10, InChI=1S/C8H10/c1-2-8-6-4-3-5-7-8/h3-7H,2H2,1H3
Compound 6: heptane, C7H16, InChI=1S/C7H16/c1-3-5-7-6-4-2/h3-7H2,1-2H3
Compound 7: octane, C8H18, InChI=1S/C8H18/c1-3-5-7-8-6-4-2/h3-8H2,1-2H3
Compound 8: nonane, C9H20, InChI=1S/C9H20/c1-3-5-7-9-8-6-4-2/h3-9H2,1-2H3
Compound 9: decane, C10H22, InChI=1S/C10H22/c1-3-5-7-9-10-8-6-4-2/h3-10H2,1-2H3

System: triethylene glycol; phases: Liquid
Property: Refractive index (Na D-line) (Liquid); method: Standard Abbe refractometry
Temperature, K	Pressure, kPa	Refractive index (Na D-line)	uncertainty
293.15	101.325	1.4556	0.0007

System: triethylene glycol; phases: Liquid
Property: Mass density, kg/m3 (Liquid); method: UNKNOWN
Temperature, K	Pressure, kPa	Mass density, kg/m3	uncertainty
293.15	101.325	1127.8	5

System: tetraethylene glycol; phases: Liquid
Property: Refractive index (Na D-line) (Liquid); method: Standard Abbe refractometry
Temperature, K	Pressure, kPa	Refractive index (Na D-line)	uncertainty
293.15	101.325	1.4571	0.0007

System: tetraethylene glycol; phases: Liquid
Property: Mass density, kg/m3 (Liquid); method: UNKNOWN
Temperature, K	Pressure, kPa	Mass density, kg/m3	uncertainty
293.15	101.325	1125.6	5

System: benzene; phases: Liquid
Property: Refractive index (Na D-line) (Liquid); method: Standard Abbe refractometry
Temperature, K	Pressure, kPa	Refractive index (Na D-line)	uncertainty
293.15	101.325	1.5015	0.0007

System: benzene; phases: Liquid
Property: Mass density, kg/m3 (Liquid); method: UNKNOWN
Temperature, K	Pressure, kPa	Mass density, kg/m3	uncertainty
293.15	101.325	878.3	5

System: toluene; phases: Liquid
Property: Refractive index (Na D-line) (Liquid); method: Standard Abbe refractometry
Temperature, K	Pressure, kPa	Refractive index (Na D-line)	uncertainty
293.15	101.325	1.4962	0.0007

System: toluene; phases: Liquid
Property: Mass density, kg/m3 (Liquid); method: UNKNOWN
Temperature, K	Pressure, kPa	Mass density, kg/m3	uncertainty
293.15	101.325	866.7	5

System: ethylbenzene; phases: Liquid
Property: Refractive index (Na D-line) (Liquid); method: Standard Abbe refractometry
Temperature, K	Pressure, kPa	Refractive index (Na D-line)	uncertainty
293.15	101.325	1.4955	0.0007

System: ethylbenzene; phases: Liquid
Property: Mass density, kg/m3 (Liquid); method: UNKNOWN
Temperature, K	Pressure, kPa	Mass density, kg/m3	uncertainty
293.15	101.325	867.4	5

System: heptane; phases: Liquid
Property: Refractive index (Na D-line) (Liquid); method: Standard Abbe refractometry
Temperature, K	Pressure, kPa	Refractive index (Na D-line)	uncertainty
293.15	101.325	1.3878	0.0007

System: heptane; phases: Liquid
Property: Mass density, kg/m3 (Liquid); method: UNKNOWN
Temperature, K	Pressure, kPa	Mass density, kg/m3	uncertainty
293.15	101.325	683.5	5

System: octane; phases: Liquid
Property: Refractive index (Na D-line) (Liquid); method: Standard Abbe refractometry
Temperature, K	Pressure, kPa	Refractive index (Na D-line)	uncertainty
293.15	101.325	1.3975	0.0007

System: octane; phases: Liquid
Property: Mass density, kg/m3 (Liquid); method: UNKNOWN
Temperature, K	Pressure, kPa	Mass density, kg/m3	uncertainty
293.15	101.325	702.6	5

System: nonane; phases: Liquid
Property: Refractive index (Na D-line) (Liquid); method: Standard Abbe refractometry
Temperature, K	Pressure, kPa	Refractive index (Na D-line)	uncertainty
293.15	101.325	1.4057	0.0007

System: nonane; phases: Liquid
Property: Mass density, kg/m3 (Liquid); method: UNKNOWN
Temperature, K	Pressure, kPa	Mass density, kg/m3	uncertainty
293.15	101.325	717.8	5

System: decane; phases: Liquid
Property: Refractive index (Na D-line) (Liquid); method: Standard Abbe refractometry
Temperature, K	Pressure, kPa	Refractive index (Na D-line)	uncertainty
293.15	101.325	1.4113	0.0007

System: decane; phases: Liquid
Property: Mass density, kg/m3 (Liquid); method: UNKNOWN
Temperature, K	Pressure, kPa	Mass density, kg/m3	uncertainty
293.15	101.325	730.2	5

System: benzene + triethylene glycol; phases: Liquid, Gas
Fixed: Mole fraction of benzene = 0
Property: Activity coefficient of benzene (Liquid); method: Chromatography
Temperature, K	Activity coefficient of benzene	uncertainty
323.15	4.6238	0.2109
333.15	4.3759	0.1995
343.15	4.2634	0.1944
353.15	4.1021	0.1869
363.15	3.9713	0.1809
373.1	3.9159	0.1784
383.15	3.8227	0.1741
393.15	3.755	0.171

System: toluene + triethylene glycol; phases: Liquid, Gas
Fixed: Mole fraction of toluene = 0
Property: Activity coefficient of toluene (Liquid); method: Chromatography
Temperature, K	Activity coefficient of toluene	uncertainty
323.15	7.1078	0.3255
333.15	6.7965	0.3112
343.15	6.5103	0.2979
353.15	6.2512	0.286
363.15	5.9922	0.274
373.1	5.8481	0.2674
383.15	5.5627	0.2542
393.15	5.512	0.2519

System: ethylbenzene + triethylene glycol; phases: Liquid, Gas
Fixed: Mole fraction of ethylbenzene = 0
Property: Activity coefficient of ethylbenzene (Liquid); method: Chromatography
Temperature, K	Activity coefficient of ethylbenzene	uncertainty
323.15	10.8636	0.4995
333.15	10.2807	0.4724
343.15	9.7303	0.4469
353.15	9.1046	0.4179
363.15	8.7188	0.4001
373.1	8.3906	0.3849
383.15	7.942	0.3641
393.15	7.7208	0.3539

System: triethylene glycol + heptane; phases: Liquid, Gas
Fixed: Mole fraction of heptane = 0
Property: Activity coefficient of heptane (Liquid); method: Chromatography
Temperature, K	Activity coefficient of heptane	uncertainty
323.15	93.2555	4.3736
333.15	82.7251	3.8754
343.15	71.9152	3.3646
353.15	62.722	2.9307
363.15	55.342	2.5829
373.1	50.1877	2.3402
383.15	44.3104	2.0638
393.15	40.6484	1.8917

System: octane + triethylene glycol; phases: Liquid, Gas
Fixed: Mole fraction of octane = 0
Property: Activity coefficient of octane (Liquid); method: Chromatography
Temperature, K	Activity coefficient of octane	uncertainty
323.15	129.3399	6.0845
333.15	113.0827	5.313
343.15	99.452	4.667
353.15	86.864	4.0711
363.15	75.8312	3.5495
373.1	68.7312	3.2143
383.15	60.537	2.8277
393.15	56.689	2.6464

System: nonane + triethylene glycol; phases: Liquid, Gas
Fixed: Mole fraction of nonane = 0
Property: Activity coefficient of nonane (Liquid); method: Chromatography
Temperature, K	Activity coefficient of nonane	uncertainty
323.15	182.6414	8.6198
333.15	155.9893	7.3511
343.15	139.833	6.5829
353.15	119.0435	5.5958
363.15	103.0471	4.8373
373.1	92.9946	4.3612
383.15	81.4029	3.8129
393.15	73.9146	3.459

System: triethylene glycol + decane; phases: Liquid, Gas
Fixed: Mole fraction of decane = 0
Property: Activity coefficient of decane (Liquid); method: Chromatography
Temperature, K	Activity coefficient of decane	uncertainty
323.15	252.0811	11.9332
333.15	219.485	10.3766
343.15	196.3944	9.2752
353.15	161.912	7.6328
363.15	140.5329	6.6162
373.1	125.205	5.8882
383.15	107.3318	5.0404
393.15	95.5871	4.484

System: benzene + tetraethylene glycol; phases: Liquid, Gas
Fixed: Mole fraction of benzene = 0
Property: Activity coefficient of benzene (Liquid); method: Chromatography
Temperature, K	Activity coefficient of benzene	uncertainty
333.15	2.9879	0.1358
353.15	2.7258	0.1238
363.15	2.6546	0.1205
373.1	2.5004	0.1134
383.15	2.4147	0.1095
393.15	2.3738	0.1076
403.15	2.275	0.1031

System: toluene + tetraethylene glycol; phases: Liquid, Gas
Fixed: Mole fraction of toluene = 0
Property: Activity coefficient of toluene (Liquid); method: Chromatography
Temperature, K	Activity coefficient of toluene	uncertainty
333.15	4.4984	0.2052
353.15	4.0183	0.1831
363.15	3.8479	0.1753
373.1	3.6163	0.1646
383.15	3.4624	0.1575
393.15	3.3673	0.1532
403.15	3.212	0.1461

System: ethylbenzene + tetraethylene glycol; phases: Liquid, Gas
Fixed: Mole fraction of ethylbenzene = 0
Property: Activity coefficient of ethylbenzene (Liquid); method: Chromatography
Temperature, K	Activity coefficient of ethylbenzene	uncertainty
333.15	6.3899	0.2924
353.15	5.6277	0.2572
363.15	5.3088	0.2425
373.1	4.995	0.228
383.15	4.7324	0.2159
393.15	4.5773	0.2088
403.15	4.3538	0.1985

System: tetraethylene glycol + heptane; phases: Liquid, Gas
Fixed: Mole fraction of heptane = 0
Property: Activity coefficient of heptane (Liquid); method: Chromatography
Temperature, K	Activity coefficient of heptane	uncertainty
333.15	50.197	2.3407
353.15	37.6276	1.7499
363.15	32.1486	1.4929
373.1	29.7898	1.3824
383.15	26.0853	1.209
393.15	23.0581	1.0675
403.15	20.8123	0.9626

System: octane + tetraethylene glycol; phases: Liquid, Gas
Fixed: Mole fraction of octane = 0
Property: Activity coefficient of octane (Liquid); method: CHROM:UFactor:2
Temperature, K	Activity coefficient of octane	uncertainty
333.15	68.0508	6.3643
353.15	49.5303	4.6186
363.15	43.2492	4.0278
373.1	37.5451	3.492
383.15	32.414	3.0107
393.15	31.4054	2.9161
403.15	25.8207	2.3933

System: nonane + tetraethylene glycol; phases: Liquid, Gas
Fixed: Mole fraction of nonane = 0
Property: Activity coefficient of nonane (Liquid); method: Chromatography
Temperature, K	Activity coefficient of nonane	uncertainty
333.15	92.333	4.3299
353.15	64.686	3.0234
363.15	57.4205	2.6808
373.1	49.2577	2.2965
383.15	42.9453	1.9996
393.15	39.7168	1.848
403.15	34.137	1.5861

System: tetraethylene glycol + decane; phases: Liquid, Gas
Fixed: Mole fraction of decane = 0
Property: Activity coefficient of decane (Liquid); method: Chromatography
Temperature, K	Activity coefficient of decane	uncertainty
333.15	122.9813	5.7826
353.15	87.7984	4.1153
363.15	75.1279	3.5163
373.1	64.3745	3.0087
383.15	55.2339	2.5778
393.15	51.3082	2.393
403.15	42.9478	1.9997
