Measured thermophysical data. Liquid-Liquid Equilibria for the Binary Systems of N-Formylmorpholine with Branched Cycloalkanes
Source: J. Chem. Eng. Data, 2003, 10.1021/je020208v
Compound 1: methylcyclopentane, C6H12, InChI=1S/C6H12/c1-6-4-2-3-5-6/h6H,2-5H2,1H3, purity 95%
Compound 2: N-formylmorpholine, C5H9NO2, InChI=1S/C5H9NO2/c7-5-6-1-3-8-4-2-6/h5H,1-4H2, purity 99%
Compound 3: methylcyclohexane, C7H14, InChI=1S/C7H14/c1-7-5-3-2-4-6-7/h7H,2-6H2,1H3, purity 99%
Compound 4: ethylcyclohexane, C8H16, InChI=1S/C8H16/c1-2-8-6-4-3-5-7-8/h8H,2-7H2,1H3, purity 99%

System: methylcyclopentane + N-formylmorpholine; phases: Liquid mixture 1, Liquid mixture 2
Fixed: Pressure, kPa = 101.3
Property: Mole fraction of methylcyclopentane (Liquid mixture 1); method: CHROM:UFactor:16
Temperature, K	Mole fraction of methylcyclopentane	uncertainty
300.27	0.9835	0.002
311.55	0.9751	0.0031
319.28	0.9712	0.0036
328.84	0.9669	0.0041
338.8	0.9561	0.0054
348.93	0.9447	0.0069
358.33	0.9253	0.0093
368.06	0.8991	0.0125
373.19	0.8896	0.0137
378.18	0.8751	0.0155
383.12	0.8562	0.0178
387.07	0.8323	0.0208
390.95	0.8114	0.0234
395.44	0.7693	0.0286
398.73	0.7344	0.0329

System: methylcyclopentane + N-formylmorpholine; phases: Liquid mixture 2, Liquid mixture 1
Fixed: Pressure, kPa = 101.3
Property: Mole fraction of methylcyclopentane (Liquid mixture 2); method: CHROM:UFactor:16
Temperature, K	Mole fraction of methylcyclopentane	uncertainty
300.27	0.0673	0.0083
311.55	0.0806	0.01
319.28	0.088	0.0109
328.84	0.0942	0.0117
338.8	0.1057	0.0131
348.93	0.1329	0.0165
358.33	0.1539	0.0191
368.06	0.1903	0.0236
373.19	0.2217	0.0275
378.18	0.2544	0.0315
383.12	0.2789	0.0346
387.07	0.3073	0.0381
390.95	0.334	0.0414
395.44	0.3816	0.0473
398.73	0.421	0.0522

System: methylcyclohexane + N-formylmorpholine; phases: Liquid mixture 1, Liquid mixture 2
Fixed: Pressure, kPa = 101.3
Property: Mole fraction of methylcyclohexane (Liquid mixture 1); method: CHROM:UFactor:16
Temperature, K	Mole fraction of methylcyclohexane	uncertainty
301.24	0.9784	0.0027
309.04	0.9787	0.0026
323.96	0.9758	0.003
335.97	0.9679	0.004
345.8	0.959	0.0051
352.48	0.9521	0.0059
362.06	0.9484	0.0064
372.11	0.9362	0.0079
376.82	0.9247	0.0093
381.88	0.9067	0.0116
387.54	0.8713	0.016
392.81	0.8285	0.0213
398.53	0.7584	0.0299
401.17	0.7096	0.036
402.28	0.6905	0.0384

System: methylcyclohexane + N-formylmorpholine; phases: Liquid mixture 2, Liquid mixture 1
Fixed: Pressure, kPa = 101.3
Property: Mole fraction of methylcyclohexane (Liquid mixture 2); method: CHROM:UFactor:16
Temperature, K	Mole fraction of methylcyclohexane	uncertainty
301.24	0.0626	0.0078
309.04	0.0672	0.0083
323.96	0.0797	0.0099
335.97	0.0984	0.0122
345.8	0.1086	0.0135
352.48	0.1268	0.0157
362.06	0.1511	0.0187
372.11	0.185	0.0229
376.82	0.2083	0.0258
381.88	0.2292	0.0284
387.54	0.2539	0.0315
392.81	0.286	0.0354
398.53	0.3382	0.0419
401.17	0.3978	0.0493
402.28	0.4205	0.0521

System: ethylcyclohexane + N-formylmorpholine; phases: Liquid mixture 1, Liquid mixture 2
Fixed: Pressure, kPa = 101.3
Property: Mole fraction of ethylcyclohexane (Liquid mixture 1); method: CHROM:UFactor:16
Temperature, K	Mole fraction of ethylcyclohexane	uncertainty
297.85	0.9797	0.0025
311.01	0.9756	0.003
319.7	0.9714	0.0035
329.05	0.9679	0.004
338.63	0.9655	0.0043
348.67	0.9619	0.0047
358.01	0.9537	0.0057
362.87	0.9502	0.0062
368.63	0.939	0.0076
372.44	0.9316	0.0085
378.41	0.921	0.0098
383.34	0.9078	0.0114
387.97	0.8937	0.0132
392.81	0.8716	0.0159
397.46	0.8518	0.0184
403.13	0.822	0.0221
407.64	0.7737	0.028
408.62	0.7306	0.0334
409.63	0.6944	0.0379

System: ethylcyclohexane + N-formylmorpholine; phases: Liquid mixture 2, Liquid mixture 1
Fixed: Pressure, kPa = 101.3
Property: Mole fraction of ethylcyclohexane (Liquid mixture 2); method: CHROM:UFactor:16
Temperature, K	Mole fraction of ethylcyclohexane	uncertainty
297.85	0.0274	0.0034
311.01	0.0347	0.0043
319.7	0.0417	0.0052
329.05	0.0494	0.0061
338.63	0.0628	0.0078
348.67	0.0802	0.0099
358.01	0.1031	0.0128
362.87	0.1123	0.0139
368.63	0.1299	0.0161
372.44	0.1395	0.0173
378.41	0.1489	0.0185
383.34	0.1589	0.0197
387.97	0.1763	0.0218
392.81	0.1951	0.0242
397.46	0.2261	0.028
403.13	0.2652	0.0329
407.64	0.3214	0.0398
408.62	0.3629	0.045
409.63	0.3966	0.0492
