Measured thermophysical data. Excess Molar Enthalpies for Dimethyl Carbonate with o-Xylene, m-Xylene, p-Xylene, Ethylbenzene or Ethyl Benzoate at 298.15 K and 10.2 MPa
Source: J. Chem. Eng. Data, 2003, 10.1021/je020181f
Compound 1: dimethyl carbonate, C3H6O3, InChI=1S/C3H6O3/c1-5-3(4)6-2/h1-2H3, purity 99%
Compound 2: 1,2-dimethylbenzene, C8H10, InChI=1S/C8H10/c1-7-5-3-4-6-8(7)2/h3-6H,1-2H3, purity 99%
Compound 3: 1,3-dimethylbenzene, C8H10, InChI=1S/C8H10/c1-7-4-3-5-8(2)6-7/h3-6H,1-2H3, purity 99%
Compound 4: 1,4-dimethylbenzene, C8H10, InChI=1S/C8H10/c1-7-3-5-8(2)6-4-7/h3-6H,1-2H3, purity 99%
Compound 5: ethylbenzene, C8H10, InChI=1S/C8H10/c1-2-8-6-4-3-5-7-8/h3-7H,2H2,1H3, purity 99.8%
Compound 6: ethyl benzoate, C9H10O2, InChI=1S/C9H10O2/c1-2-11-9(10)8-6-4-3-5-7-8/h3-7H,2H2,1H3, purity 99%

System: dimethyl carbonate; phases: Liquid
Property: Mass density, kg/m3 (Liquid); method: Vibrating tube method
Temperature, K	Pressure, kPa	Mass density, kg/m3	uncertainty
298.15	101.325	1063.1	0.5

System: 1,2-dimethylbenzene; phases: Liquid
Property: Mass density, kg/m3 (Liquid); method: Vibrating tube method
Temperature, K	Pressure, kPa	Mass density, kg/m3	uncertainty
298.15	101.325	875	0.5

System: 1,3-dimethylbenzene; phases: Liquid
Property: Mass density, kg/m3 (Liquid); method: Vibrating tube method
Temperature, K	Pressure, kPa	Mass density, kg/m3	uncertainty
298.15	101.325	860	0.5

System: 1,4-dimethylbenzene; phases: Liquid
Property: Mass density, kg/m3 (Liquid); method: Vibrating tube method
Temperature, K	Pressure, kPa	Mass density, kg/m3	uncertainty
298.15	101.325	856.7	0.5

System: ethylbenzene; phases: Liquid
Property: Mass density, kg/m3 (Liquid); method: Vibrating tube method
Temperature, K	Pressure, kPa	Mass density, kg/m3	uncertainty
298.15	101.325	862.5	0.2

System: ethyl benzoate; phases: Liquid
Property: Mass density, kg/m3 (Liquid); method: Vibrating tube method
Temperature, K	Pressure, kPa	Mass density, kg/m3	uncertainty
298.15	101.325	1041.3	0.5

System: 1,2-dimethylbenzene + dimethyl carbonate; phases: Liquid
Fixed: Temperature, K = 298.15
Fixed: Pressure, kPa = 10200
Property: Excess molar enthalpy (molar enthalpy of mixing), kJ/mol (Liquid); method: FLOW:UFactor:2
Mole fraction of dimethyl carbonate	Excess molar enthalpy (molar enthalpy of mixing), kJ/mol	uncertainty
0.1005	0.1363	0.0043
0.1501	0.2408	0.0068
0.2014	0.3451	0.0093
0.2511	0.4269	0.0113
0.2992	0.4968	0.013
0.3516	0.5487	0.0143
0.3994	0.5861	0.0152
0.451	0.6032	0.0156
0.5009	0.6167	0.016
0.5515	0.61	0.0158
0.6004	0.591	0.0153
0.6499	0.5595	0.0146
0.6999	0.5166	0.0135
0.7502	0.458	0.0121
0.8006	0.3847	0.0103
0.8511	0.2965	0.0082
0.8997	0.193	0.0057

System: 1,3-dimethylbenzene + dimethyl carbonate; phases: Liquid
Fixed: Temperature, K = 298.15
Fixed: Pressure, kPa = 10200
Property: Excess molar enthalpy (molar enthalpy of mixing), kJ/mol (Liquid); method: FLOW:UFactor:2
Mole fraction of dimethyl carbonate	Excess molar enthalpy (molar enthalpy of mixing), kJ/mol	uncertainty
0.0503	0.0776	0.003
0.1007	0.2004	0.0058
0.1511	0.3137	0.0086
0.2016	0.3891	0.0104
0.2519	0.4688	0.0124
0.3005	0.5316	0.0139
0.3505	0.5772	0.015
0.4015	0.6085	0.0158
0.4505	0.6417	0.0166
0.4998	0.6487	0.0167
0.5506	0.6466	0.0167
0.5995	0.6317	0.0163
0.6521	0.6043	0.0157
0.7018	0.5652	0.0147
0.7517	0.5069	0.0133
0.8017	0.4326	0.0115
0.8516	0.3425	0.0093
0.9014	0.2305	0.0066
0.9509	0.1054	0.0036

System: 1,4-dimethylbenzene + dimethyl carbonate; phases: Liquid
Fixed: Temperature, K = 298.15
Fixed: Pressure, kPa = 10200
Property: Excess molar enthalpy (molar enthalpy of mixing), kJ/mol (Liquid); method: FLOW:UFactor:2
Mole fraction of dimethyl carbonate	Excess molar enthalpy (molar enthalpy of mixing), kJ/mol	uncertainty
0.0504	0.0668	0.0027
0.1026	0.1883	0.0056
0.1515	0.293	0.0081
0.202	0.356	0.0096
0.2524	0.4402	0.0117
0.3011	0.4981	0.0131
0.3511	0.5725	0.0149
0.4022	0.6134	0.0159
0.4514	0.6357	0.0164
0.5016	0.6402	0.0165
0.5524	0.6377	0.0165
0.6013	0.6207	0.0161
0.6507	0.5976	0.0155
0.7004	0.5521	0.0144
0.7503	0.4891	0.0128
0.8002	0.4324	0.0115
0.8502	0.3468	0.0094
0.9017	0.235	0.0067
0.9511	0.1074	0.0036

System: ethylbenzene + dimethyl carbonate; phases: Liquid
Fixed: Temperature, K = 298.15
Fixed: Pressure, kPa = 10200
Property: Excess molar enthalpy (molar enthalpy of mixing), kJ/mol (Liquid); method: FLOW:UFactor:2
Mole fraction of dimethyl carbonate	Excess molar enthalpy (molar enthalpy of mixing), kJ/mol	uncertainty
0.0501	0.1008	0.0035
0.1004	0.2125	0.0061
0.1491	0.2681	0.0075
0.2011	0.3616	0.0097
0.2514	0.446	0.0118
0.3	0.5125	0.0134
0.3528	0.5719	0.0149
0.4009	0.6116	0.0158
0.4528	0.6383	0.0165
0.5028	0.6525	0.0168
0.551	0.6516	0.0168
0.6023	0.6361	0.0164
0.6517	0.6087	0.0158
0.7014	0.5698	0.0148
0.7514	0.518	0.0136
0.8014	0.4488	0.0119
0.8514	0.3669	0.0099
0.9013	0.2706	0.0075
0.9508	0.146	0.0045

System: ethyl benzoate + dimethyl carbonate; phases: Liquid
Fixed: Temperature, K = 298.15
Fixed: Pressure, kPa = 10200
Property: Excess molar enthalpy (molar enthalpy of mixing), kJ/mol (Liquid); method: FLOW:UFactor:2
Mole fraction of dimethyl carbonate	Excess molar enthalpy (molar enthalpy of mixing), kJ/mol	uncertainty
0.1518	0.1074	0.0036
0.1995	0.1657	0.005
0.2486	0.2207	0.0063
0.2988	0.2656	0.0074
0.3499	0.2979	0.0082
0.4015	0.3255	0.0089
0.4507	0.345	0.0093
0.5	0.3568	0.0096
0.5496	0.3556	0.0096
0.5991	0.3475	0.0094
0.6507	0.3324	0.009
0.6994	0.3102	0.0085
0.7496	0.2775	0.0077
0.801	0.2445	0.0069
0.8509	0.1868	0.0055
0.8995	0.1194	0.0039
