Measured thermophysical data. Mixing Properties for the Ternary Mixture Methyl tert-Butyl Ether + 1-Butanol + Decane at 298.15 K
Source: J. Chem. Eng. Data, 2003, 10.1021/je025579q
Compound 1: 2-methoxy-2-methylpropane, C5H12O, InChI=1S/C5H12O/c1-5(2,3)6-4/h1-4H3
Compound 2: butan-1-ol, C4H10O, InChI=1S/C4H10O/c1-2-3-4-5/h5H,2-4H2,1H3
Compound 3: decane, C10H22, InChI=1S/C10H22/c1-3-5-7-9-10-8-6-4-2/h3-10H2,1-2H3

System: 2-methoxy-2-methylpropane; phases: Liquid
Property: Mass density, kg/m3 (Liquid); method: VIBTUB:UFactor:2:dT:0.01
Temperature, K	Pressure, kPa	Mass density, kg/m3	uncertainty
298.15	101.325	735.35	0.36

System: 2-methoxy-2-methylpropane; phases: Liquid
Property: Speed of sound, m/s (Liquid); method: OTHER
Temperature, K	Pressure, kPa	Speed of sound, m/s	uncertainty
298.15	101.325	1036.1	0.5

System: butan-1-ol; phases: Liquid
Property: Mass density, kg/m3 (Liquid); method: VIBTUB:UFactor:2:dT:0.01
Temperature, K	Pressure, kPa	Mass density, kg/m3	uncertainty
298.15	101.325	805.67	0.29

System: butan-1-ol; phases: Liquid
Property: Speed of sound, m/s (Liquid); method: OTHER
Temperature, K	Pressure, kPa	Speed of sound, m/s	uncertainty
298.15	101.325	1239.8	0.7

System: decane; phases: Liquid
Property: Mass density, kg/m3 (Liquid); method: VIBTUB:UFactor:2:dT:0.01:dT:0.01
Temperature, K	Pressure, kPa	Mass density, kg/m3	uncertainty
298.15	101.325	726.09	0.52

System: decane; phases: Liquid
Property: Speed of sound, m/s (Liquid); method: OTHER
Temperature, K	Pressure, kPa	Speed of sound, m/s	uncertainty
298.15	101.325	1234.7	1.1

System: butan-1-ol + decane; phases: Liquid
Fixed: Temperature, K = 298.15
Fixed: Pressure, kPa = 101.3
Property: Speed of sound, m/s (Liquid); method: Sing-around technique in a fixed-path interferometer
Mole fraction of butan-1-ol	Speed of sound, m/s	uncertainty
0	1234.7	1.4
0.04848	1230.8	1.3
0.09526	1228.9	1.3
0.20446	1225.6	1.2
0.2974	1223.9	1.2
0.39487	1222.7	1.1
0.44545	1222.5	1.1
0.49284	1222.4	1.1
0.55787	1222.7	1.1
0.59372	1222.9	1.1
0.70311	1224.6	1
0.79014	1226.7	1
0.87069	1230.4	1
0.94796	1235.3	0.9
1	1239.8	0.9

System: butan-1-ol + decane; phases: Liquid
Fixed: Temperature, K = 298.15
Fixed: Pressure, kPa = 101.3
Property: Mass density, kg/m3 (Liquid); method: VIBTUB:UFactor:2
Mole fraction of butan-1-ol	Mass density, kg/m3	uncertainty
0	726.09	0.46
0.04848	727.38	0.45
0.09526	728.99	0.44
0.20446	733.33	0.41
0.2974	737.65	0.39
0.39487	742.88	0.37
0.44545	745.96	0.36
0.49284	749.07	0.34
0.55787	753.72	0.33
0.59372	756.5	0.32
0.70311	766.17	0.3
0.79014	775.35	0.28
0.87069	785.36	0.26
0.94796	796.76	0.24
1	805.67	0.23

System: butan-1-ol + decane + 2-methoxy-2-methylpropane; phases: Liquid
Fixed: Temperature, K = 298.15
Fixed: Pressure, kPa = 101.3
Property: Speed of sound, m/s (Liquid); method: Sing-around technique in a fixed-path interferometer
Mole fraction of 2-methoxy-2-methylpropane	Mole fraction of butan-1-ol	Speed of sound, m/s	uncertainty
0.05594	0.89492	1224.2	0.8
0.07567	0.05136	1219.1	1.2
0.10539	0.79462	1211.9	0.8
0.10942	0.68862	1207.9	0.8
0.11075	0.48733	1205.6	0.9
0.11591	0.5936	1205.2	0.9
0.11609	0.29365	1206.6	1
0.11831	0.19174	1208.4	1.1
0.12213	0.37433	1204.6	1
0.12703	0.09686	1209.8	1.1
0.17056	0.09262	1203.4	1.1
0.20393	0.1974	1195.1	1
0.20558	0.59086	1190.9	0.8
0.20571	0.29305	1192.9	1
0.20608	0.48387	1190.4	0.9
0.2069	0.69301	1192.8	0.8
0.21656	0.39134	1189.5	0.9
0.29821	0.20497	1179.5	1
0.30081	0.10347	1182.1	1
0.3012	0.5967	1174.9	0.8
0.30265	0.29612	1176.6	0.9
0.3116	0.48392	1172.4	0.8
0.31164	0.37389	1173.5	0.9
0.39685	0.109	1165.5	1
0.39716	0.30324	1159.4	0.9
0.39959	0.39549	1157.4	0.8
0.403	0.19676	1161.6	0.9
0.40477	0.49466	1155.3	0.8
0.49493	0.09965	1147.5	0.9
0.49707	0.20468	1143.2	0.9
0.49794	0.40283	1138.3	0.8
0.49865	0.29721	1141.6	0.8
0.5938	0.20736	1123.7	0.8
0.59669	0.30118	1120	0.8
0.59831	0.09737	1126.3	0.9
0.69402	0.09939	1106	0.8
0.70033	0.1989	1100.8	0.8
0.79598	0.10258	1083.2	0.8
0.90528	0.04664	1058.4	0.8

System: butan-1-ol + decane + 2-methoxy-2-methylpropane; phases: Liquid
Fixed: Temperature, K = 298.15
Fixed: Pressure, kPa = 101.3
Property: Mass density, kg/m3 (Liquid); method: VIBTUB:UFactor:2
Mole fraction of 2-methoxy-2-methylpropane	Mole fraction of butan-1-ol	Mass density, kg/m3	uncertainty
0.05594	0.89492	793.58	0.24
0.07567	0.05136	727.86	0.43
0.10539	0.79462	783.09	0.26
0.10942	0.68862	770.37	0.28
0.11075	0.48733	751.92	0.32
0.11591	0.5936	761.08	0.3
0.11609	0.29365	739.37	0.37
0.11831	0.19174	734.12	0.39
0.12213	0.37433	744.34	0.35
0.12703	0.09686	729.94	0.41
0.17056	0.09262	730.12	0.4
0.20393	0.1974	735.5	0.37
0.20558	0.59086	764.91	0.28
0.20571	0.29305	740.98	0.35
0.20608	0.48387	754.83	0.31
0.2069	0.69301	776.86	0.26
0.21656	0.39134	747.84	0.32
0.29821	0.20497	737.32	0.35
0.30081	0.10347	731.8	0.37
0.3012	0.5967	770.81	0.27
0.30265	0.29612	743.23	0.33
0.3116	0.48392	759	0.29
0.31164	0.37389	749.24	0.31
0.39685	0.109	733.13	0.35
0.39716	0.30324	746.11	0.31
0.39959	0.39549	754.06	0.29
0.403	0.19676	738.6	0.33
0.40477	0.49466	764.63	0.27
0.49493	0.09965	733.87	0.33
0.49707	0.20468	741.06	0.31
0.49794	0.40283	758.95	0.27
0.49865	0.29721	748.62	0.29
0.5938	0.20736	743.69	0.29
0.59669	0.30118	752.52	0.28
0.59831	0.09737	735.29	0.32
0.69402	0.09939	737.23	0.3
0.70033	0.1989	746.11	0.28
0.79598	0.10258	739.89	0.29
0.90528	0.04664	737.5	0.28
