Measured thermophysical data. Apparent Molar Volumes and Viscosities of Lauric, Palmitic, and Stearic Acids in 2-Butanol at (20, 30, 40, and 60) C
Source: J. Chem. Eng. Data, 2003, 10.1021/je025538u
Compound 1: dodecanoic acid, C12H24O2, InChI=1S/C12H24O2/c1-2-3-4-5-6-7-8-9-10-11-12(13)14/h2-11H2,1H3,(H,13,14)
Compound 2: hexadecanoic acid, C16H32O2, InChI=1S/C16H32O2/c1-2-3-4-5-6-7-8-9-10-11-12-13-14-15-16(17)18/h2-15H2,1H3,(H,17,18)
Compound 3: octadecanoic acid, C18H36O2, InChI=1S/C18H36O2/c1-2-3-4-5-6-7-8-9-10-11-12-13-14-15-16-17-18(19)20/h2-17H2,1H3,(H,19,20)
Compound 4: butan-2-ol, C4H10O, InChI=1S/C4H10O/c1-3-4(2)5/h4-5H,3H2,1-2H3

System: butan-2-ol; phases: Liquid
Fixed: Pressure, kPa = 101.325
Property: Viscosity, Pa*s (Liquid); method: CAPTUB:UFactor:8
Temperature, K	Viscosity, Pa*s	uncertainty
293.15	0.003663	0.000163
303.15	0.002527	0.000115
313.15	0.001801	8.4e-05
333.15	0.001025	5.1e-05

System: butan-2-ol; phases: Liquid
Fixed: Pressure, kPa = 101.325
Property: Mass density, kg/m3 (Liquid); method: PYCNOM:UFactor:8
Temperature, K	Mass density, kg/m3	uncertainty
293.15	806.6	1.5
303.15	799.3	1.7
313.15	792.2	1.8
333.15	778	4

System: butan-2-ol + dodecanoic acid; phases: Liquid
Fixed: Pressure, kPa = 101.3
Property: Viscosity, Pa*s (Liquid); method: CAPTUB:UFactor:8
Temperature, K	Amount concentration (molarity), mol/dm3 of dodecanoic acid	Viscosity, Pa*s	uncertainty
293.15	0.0103	0.00358	0.000159
293.15	0.05	0.003665	0.000163
293.15	0.1003	0.0037	0.000164
293.15	0.15	0.003688	0.000164
293.15	0.2001	0.003744	0.000166
293.15	0.35	0.003841	0.00017
303.15	0.0103	0.002547	0.000116
303.15	0.05	0.002548	0.000116
303.15	0.1003	0.002573	0.000117
303.15	0.15	0.002585	0.000117
303.15	0.2001	0.002624	0.000119
303.15	0.35	0.002704	0.000122
313.15	0.0103	0.00181	8.4e-05
313.15	0.05	0.001818	8.5e-05
313.15	0.1003	0.001851	8.6e-05
313.15	0.15	0.001865	8.7e-05
313.15	0.2001	0.001877	8.7e-05
313.15	0.35	0.001951	9e-05
333.15	0.0103	0.00105	5.2e-05
333.15	0.05	0.00104	5.1e-05
333.15	0.1003	0.00107	5.3e-05
333.15	0.15	0.00108	5.3e-05
333.15	0.2001	0.0011	5.4e-05
333.15	0.35	0.00115	5.6e-05

System: butan-2-ol + dodecanoic acid; phases: Liquid
Fixed: Pressure, kPa = 101.3
Property: Mass density, kg/m3 (Liquid); method: PYCNOM:UFactor:8
Temperature, K	Amount concentration (molarity), mol/dm3 of dodecanoic acid	Mass density, kg/m3	uncertainty
293.15	0.0103	806.38	1.54
293.15	0.05	807.27	1.52
293.15	0.1003	807.29	1.53
293.15	0.15	808.85	1.53
293.15	0.2001	808.76	1.54
293.15	0.35	812.86	1.55
303.15	0.0103	798.71	1.69
303.15	0.05	800.23	1.68
303.15	0.1003	800.56	1.67
303.15	0.15	801.14	1.68
303.15	0.2001	801.85	1.68
303.15	0.35	805.19	1.71
313.15	0.0103	791.02	1.82
313.15	0.05	793.39	1.83
313.15	0.1003	794.11	1.83
313.15	0.15	794.51	1.83
313.15	0.2001	794.64	1.83
313.15	0.35	797.47	1.84
333.15	0.0103	778.39	2.14
333.15	0.05	779.62	2.15
333.15	0.1003	780.76	2.15
333.15	0.15	782	2.15
333.15	0.2001	782.9	2.15
333.15	0.35	785.3	2.15

System: hexadecanoic acid + butan-2-ol; phases: Liquid
Fixed: Pressure, kPa = 101.3
Property: Viscosity, Pa*s (Liquid); method: CAPTUB:UFactor:8
Temperature, K	Amount concentration (molarity), mol/dm3 of hexadecanoic acid	Viscosity, Pa*s	uncertainty
293.15	0.01	0.00353	0.000157
293.15	0.05	0.003616	0.000161
293.15	0.1	0.003613	0.000161
293.15	0.1501	0.0037	0.000164
293.15	0.2001	0.003828	0.00017
293.15	0.3501	0.004056	0.000179
303.15	0.01	0.002464	0.000112
303.15	0.05	0.002499	0.000114
303.15	0.1	0.002512	0.000114
303.15	0.1501	0.002585	0.000117
303.15	0.2001	0.002665	0.000121
303.15	0.3501	0.002834	0.000128
313.15	0.01	0.001751	8.2e-05
313.15	0.05	0.001789	8.3e-05
313.15	0.1	0.001808	8.4e-05
313.15	0.1501	0.00185	8.6e-05
313.15	0.2001	0.001921	8.9e-05
313.15	0.3501	0.002045	9.4e-05
333.15	0.05	0.00109	5.3e-05
333.15	0.1	0.00108	5.3e-05
333.15	0.1501	0.00113	5.5e-05
333.15	0.2001	0.00114	5.6e-05
333.15	0.3501	0.00127	6.1e-05

System: hexadecanoic acid + butan-2-ol; phases: Liquid
Fixed: Pressure, kPa = 101.3
Property: Mass density, kg/m3 (Liquid); method: PYCNOM:UFactor:8
Temperature, K	Amount concentration (molarity), mol/dm3 of hexadecanoic acid	Mass density, kg/m3	uncertainty
293.15	0.01	807.66	1.55
293.15	0.05	807.67	1.55
293.15	0.1	809.21	1.55
293.15	0.1501	810.16	1.53
293.15	0.2001	810.6	1.55
293.15	0.3501	813.04	1.53
303.15	0.01	799.68	1.69
303.15	0.05	800.09	1.69
303.15	0.1	801.34	1.69
303.15	0.1501	802.89	1.7
303.15	0.2001	802.96	1.7
303.15	0.3501	806.24	1.69
313.15	0.01	792.63	1.83
313.15	0.05	792.74	1.81
313.15	0.1	794.66	1.82
313.15	0.1501	795.01	1.83
313.15	0.2001	795.11	1.83
313.15	0.3501	799.34	1.84
333.15	0.05	782.3	2.14
333.15	0.1	782.9	2.15
333.15	0.1501	783.19	2.15
333.15	0.2001	783.51	2.14
333.15	0.3501	787.5	2.16

System: octadecanoic acid + butan-2-ol; phases: Liquid
Fixed: Pressure, kPa = 101.3
Property: Viscosity, Pa*s (Liquid); method: CAPTUB:UFactor:8
Temperature, K	Amount concentration (molarity), mol/dm3 of octadecanoic acid	Viscosity, Pa*s	uncertainty
293.15	0.01	0.003611	0.000161
293.15	0.05	0.003679	0.000163
293.15	0.1	0.003795	0.000168
293.15	0.15	0.003785	0.000168
293.15	0.2	0.003799	0.000168
293.15	0.3501	0.004177	0.000184
303.15	0.01	0.002499	0.000114
303.15	0.05	0.002531	0.000115
303.15	0.1	0.002466	0.000112
303.15	0.15	0.002627	0.000119
303.15	0.2	0.002584	0.000117
303.15	0.3501	0.002919	0.000132
313.15	0.01	0.001766	8.3e-05
313.15	0.05	0.001808	8.4e-05
313.15	0.1	0.00179	8.4e-05
313.15	0.15	0.001886	8.8e-05
313.15	0.2	0.001881	8.7e-05
313.15	0.3501	0.002017	9.3e-05
333.15	0.05	0.00109	5.3e-05
333.15	0.1	0.0011	5.4e-05
333.15	0.15	0.00116	5.6e-05
333.15	0.2	0.00116	5.6e-05
333.15	0.3501	0.00136	6.5e-05

System: octadecanoic acid + butan-2-ol; phases: Liquid
Fixed: Pressure, kPa = 101.3
Property: Mass density, kg/m3 (Liquid); method: PYCNOM:UFactor:8
Temperature, K	Amount concentration (molarity), mol/dm3 of octadecanoic acid	Mass density, kg/m3	uncertainty
293.15	0.01	806.45	1.54
293.15	0.05	806.9	1.58
293.15	0.1	813.95	8
293.15	0.15	810.78	1.57
293.15	0.2	811.62	1.54
293.15	0.3501	814.68	1.56
303.15	0.01	798.83	1.68
303.15	0.05	799.7	1.68
303.15	0.1	806.09	8
303.15	0.15	803.5	1.69
303.15	0.2	804.54	1.69
303.15	0.3501	806.92	1.7
313.15	0.01	792.46	1.82
313.15	0.05	792.65	1.81
313.15	0.1	796.45	1.84
313.15	0.15	796.91	1.83
313.15	0.2	797.76	1.83
313.15	0.3501	800.5	1.84
333.15	0.05	782.79	2.13
333.15	0.1	783.92	2.16
333.15	0.15	784.23	2.15
333.15	0.2	785.41	2.16
333.15	0.3501	788.89	2.16
