Measured thermophysical data. Excess molar volumes and enthalpies of mixing for the ternary system (butyl butyrate + 1-octanol + dodecane) at the temperature 308.15 K.
Source: J. Chem. Eng. Data, 2003, 10.1021/je020138s
Compound 1: octan-1-ol, C8H18O, InChI=1S/C8H18O/c1-2-3-4-5-6-7-8-9/h9H,2-8H2,1H3, purity 99.5%
Compound 2: dodecane, C12H26, InChI=1S/C12H26/c1-3-5-7-9-11-12-10-8-6-4-2/h3-12H2,1-2H3, purity 99%
Compound 3: butyl butanoate, C8H16O2, InChI=1S/C8H16O2/c1-3-5-7-10-8(9)6-4-2/h3-7H2,1-2H3, purity 99%

System: octan-1-ol + dodecane; phases: Liquid
Fixed: Temperature, K = 308.15
Fixed: Pressure, kPa = 101
Property: Excess molar enthalpy (molar enthalpy of mixing), kJ/mol (Liquid); method: Calvet calorimetry
Mole fraction of octan-1-ol	Excess molar enthalpy (molar enthalpy of mixing), kJ/mol	uncertainty
0.1345	0.721	0.009
0.1898	0.782	0.01
0.2658	0.828	0.011
0.3122	0.836	0.011
0.4077	0.831	0.011
0.4433	0.821	0.01
0.4591	0.812	0.01
0.5302	0.777	0.01
0.5667	0.749	0.01
0.6587	0.663	0.009
0.6595	0.668	0.009
0.7509	0.529	0.007
0.7661	0.504	0.007
0.8263	0.39	0.005
0.8566	0.327	0.004
0.8983	0.24	0.003
0.9353	0.153	0.002
0.97	0.071	0.002

System: octan-1-ol + dodecane; phases: Liquid
Fixed: Temperature, K = 308.15
Fixed: Pressure, kPa = 101
Property: Excess molar volume, m3/mol (Liquid); method: Calculated with densities of this investigation
Mole fraction of octan-1-ol	Excess molar volume, m3/mol	uncertainty
0.1048	2.039e-07	8.2e-09
0.1681	2.344e-07	8.3e-09
0.2366	2.548e-07	8.3e-09
0.3292	2.684e-07	8.4e-09
0.3848	2.648e-07	8.4e-09
0.439	2.636e-07	8.4e-09
0.5235	2.545e-07	8.3e-09
0.6646	1.953e-07	8.2e-09
0.7097	1.748e-07	8.2e-09
0.7531	1.531e-07	8.1e-09
0.7934	1.318e-07	8.1e-09
0.8325	1.098e-07	8e-09
0.8701	8.47e-08	7.9e-09
0.9093	5.95e-08	7.9e-09

System: butyl butanoate + dodecane; phases: Liquid
Fixed: Temperature, K = 308
Fixed: Pressure, kPa = 101
Property: Excess molar enthalpy (molar enthalpy of mixing), kJ/mol (Liquid); method: Calvet calorimetry
Mole fraction of butyl butanoate	Excess molar enthalpy (molar enthalpy of mixing), kJ/mol	uncertainty
0.0894	0.295	0.004
0.1261	0.392	0.005
0.1734	0.516	0.007
0.205	0.573	0.007
0.2668	0.689	0.009
0.3014	0.736	0.009
0.326	0.764	0.01
0.3509	0.787	0.01
0.4179	0.851	0.011
0.4544	0.869	0.011
0.517	0.866	0.011
0.5526	0.864	0.011
0.6779	0.777	0.01
0.7202	0.727	0.009
0.8233	0.537	0.007
0.8287	0.525	0.007
0.9006	0.338	0.005
0.9307	0.24	0.003

System: butyl butanoate + dodecane; phases: Liquid
Fixed: Temperature, K = 308.15
Fixed: Pressure, kPa = 101
Property: Excess molar volume, m3/mol (Liquid); method: SAME:UFactor:2
Mole fraction of butyl butanoate	Excess molar volume, m3/mol	uncertainty
0.086	2.25e-07	1.65e-08
0.1642	4.085e-07	1.74e-08
0.2326	4.99e-07	1.78e-08
0.3151	5.957e-07	1.83e-08
0.4238	6.386e-07	1.85e-08
0.4435	6.409e-07	1.85e-08
0.5057	6.525e-07	1.85e-08
0.5458	6.501e-07	1.85e-08
0.6564	5.883e-07	1.82e-08
0.6617	5.83e-07	1.82e-08
0.6962	5.604e-07	1.81e-08
0.7365	5.311e-07	1.8e-08
0.7625	4.759e-07	1.77e-08
0.7821	4.581e-07	1.76e-08
0.8186	4.073e-07	1.74e-08
0.8623	3.308e-07	1.7e-08
0.9593	1.15e-07	1.6e-08

System: butyl butanoate + octan-1-ol + dodecane; phases: Liquid
Fixed: Temperature, K = 308.15
Fixed: Pressure, kPa = 101
Property: Excess molar enthalpy (molar enthalpy of mixing), kJ/mol (Liquid); method: Calvet calorimetry
Mole fraction of butyl butanoate	Mole fraction of octan-1-ol	Excess molar enthalpy (molar enthalpy of mixing), kJ/mol	uncertainty
0.0485	0.1486	0.934	0.012
0.072	0.2202	1.078	0.014
0.0767	0.2349	1.113	0.014
0.1004	0.3073	1.212	0.015
0.1039	0.318	1.213	0.015
0.1226	0.3752	1.289	0.016
0.1309	0.4007	1.294	0.016
0.1542	0.1554	1.264	0.016
0.1574	0.4818	1.348	0.017
0.1731	0.5298	1.353	0.017
0.1786	0.5466	1.347	0.017
0.1921	0.1935	1.412	0.018
0.195	0.5966	1.32	0.017
0.2025	0.6198	1.309	0.016
0.2094	0.6409	1.287	0.016
0.2157	0.2173	1.487	0.019
0.2203	0.6743	1.246	0.016
0.2331	0.2349	1.523	0.019
0.2368	0.7247	1.178	0.015
0.2594	0.2617	1.589	0.02
0.2753	0.2774	1.638	0.021
0.3209	0.3233	1.707	0.021
0.3452	0.3479	1.739	0.022
0.3526	0.1191	1.514	0.019
0.3651	0.3679	1.748	0.022
0.379	0.128	1.555	0.019
0.3901	0.393	1.752	0.022
0.4108	0.1387	1.588	0.02
0.4109	0.414	1.757	0.022
0.4243	0.4276	1.732	0.022
0.4468	0.4502	1.716	0.021
0.4662	0.4697	1.678	0.021
0.4782	0.4818	1.655	0.021
0.48	0.1621	1.699	0.021
0.5106	0.1724	1.716	0.021
0.5529	0.1867	1.737	0.022
0.5701	0.1925	1.73	0.022
0.6208	0.2096	1.695	0.021
0.6259	0.2114	1.699	0.021
0.6659	0.2249	1.626	0.02

System: butyl butanoate + octan-1-ol + dodecane; phases: Liquid
Fixed: Temperature, K = 308.15
Fixed: Pressure, kPa = 101.3
Property: Molar enthalpy of mixing with solvent, kJ/mol of dodecane (Liquid); method: CALVET:UFactor:4
Mole fraction of butyl butanoate	Mole fraction of octan-1-ol	Molar enthalpy of mixing with solvent, kJ/mol of dodecane	uncertainty
0.0485	0.1486	0.712	0.032
0.072	0.2202	0.749	0.034
0.0767	0.2349	0.762	0.034
0.1004	0.3073	0.752	0.034
0.1039	0.318	0.738	0.034
0.1226	0.3752	0.728	0.033
0.1309	0.4007	0.695	0.032
0.1542	0.1554	0.766	0.035
0.1574	0.4818	0.628	0.029
0.1731	0.5298	0.561	0.026
0.1786	0.5466	0.531	0.025
0.1921	0.1935	0.792	0.036
0.195	0.5966	0.429	0.021
0.2025	0.6198	0.383	0.019
0.2094	0.6409	0.329	0.017
0.2157	0.2173	0.791	0.036
0.2203	0.6743	0.239	0.014
0.2331	0.2349	0.771	0.035
0.2368	0.7247	0.095	0.008
0.2594	0.2617	0.752	0.034
0.2753	0.2774	0.749	0.034
0.3209	0.3233	0.671	0.031
0.3452	0.3479	0.625	0.029
0.3526	0.1191	0.86	0.038
0.3651	0.3679	0.57	0.027
0.379	0.128	0.851	0.038
0.3901	0.393	0.493	0.024
0.4108	0.1387	0.825	0.037
0.4109	0.414	0.43	0.021
0.4243	0.4276	0.362	0.018
0.4468	0.4502	0.274	0.015
0.4662	0.4697	0.173	0.011
0.4782	0.4818	0.112	0.009
0.48	0.1621	0.808	0.036
0.5106	0.1724	0.768	0.035
0.5529	0.1867	0.711	0.032
0.5701	0.1925	0.672	0.031
0.6208	0.2096	0.543	0.026
0.6259	0.2114	0.538	0.026
0.6659	0.2249	0.391	0.02

System: butyl butanoate + octan-1-ol + dodecane; phases: Liquid
Fixed: Temperature, K = 308
Fixed: Pressure, kPa = 101
Property: Excess molar volume, m3/mol (Liquid); method: Calculated with densities of this investigation
Mole fraction of butyl butanoate	Mole fraction of octan-1-ol	Excess molar volume, m3/mol	uncertainty
0.0329	0.1466	2.737e-07	8.4e-09
0.0528	0.1407	3.119e-07	8.5e-09
0.0608	0.2707	3.497e-07	8.6e-09
0.0714	0.0216	2.471e-07	8.3e-09
0.0804	0.0096	2.374e-07	8.3e-09
0.0822	0.0915	3.415e-07	8.5e-09
0.0867	0.3858	3.739e-07	8.6e-09
0.0904	0.2409	3.984e-07	8.7e-09
0.091	0.4049	3.785e-07	8.6e-09
0.1057	0.0602	3.601e-07	8.6e-09
0.1092	0.4862	3.647e-07	8.6e-09
0.1273	0.3393	4.41e-07	8.8e-09
0.1299	0.5781	3.37e-07	8.5e-09
0.132	0.04	3.849e-07	8.6e-09
0.149	0.663	2.84e-07	8.4e-09
0.1523	0.0182	3.908e-07	8.7e-09
0.1529	0.1702	4.677e-07	8.8e-09
0.1629	0.4343	4.237e-07	8.7e-09
0.175	0.4665	4.228e-07	8.7e-09
0.2045	0.5451	3.887e-07	8.7e-09
0.2074	0.1183	5.247e-07	9e-09
0.2212	0.5895	3.468e-07	8.6e-09
0.2451	0.0742	5.583e-07	9e-09
0.2487	0.6627	2.854e-07	8.4e-09
0.2721	0.0325	5.568e-07	9e-09
0.2767	0.308	5.495e-07	9e-09
0.3019	0.336	5.277e-07	9e-09
0.345	0.1044	6.305e-07	9.2e-09
0.3751	0.2138	6.051e-07	9.2e-09
0.3811	0.4243	4.482e-07	8.8e-09
0.4041	0.2304	5.963e-07	9.1e-09
0.4064	0.0485	6.467e-07	9.2e-09
0.426	0.4742	3.641e-07	8.6e-09
0.4501	0.2566	5.651e-07	9.1e-09
0.4502	0.1363	6.429e-07	9.2e-09
0.4852	0.1469	6.297e-07	9.2e-09
0.5126	0.2922	4.895e-07	8.9e-09
0.6122	0.1853	5.044e-07	8.9e-09
0.6235	0.0744	5.868e-07	9.1e-09
0.6955	0.2105	3.616e-07	8.6e-09
0.7139	0.0851	4.83e-07	8.9e-09
0.8088	0.0965	3.124e-07	8.5e-09
