Measured thermophysical data. Excess Molar Volumes and Surface Tensions of Xylene with 2-propanol or 2-methyl-2-propanol at 298.15 K
Source: J. Chem. Eng. Data, 2003, 10.1021/je0256028
Compound 1: 1,2-dimethylbenzene, C8H10, InChI=1S/C8H10/c1-7-5-3-4-6-8(7)2/h3-6H,1-2H3, purity 99%
Compound 2: 1,3-dimethylbenzene, C8H10, InChI=1S/C8H10/c1-7-4-3-5-8(2)6-7/h3-6H,1-2H3, purity 99%
Compound 3: 1,4-dimethylbenzene, C8H10, InChI=1S/C8H10/c1-7-3-5-8(2)6-4-7/h3-6H,1-2H3, purity 99%
Compound 4: propan-2-ol, C3H8O, InChI=1S/C3H8O/c1-3(2)4/h3-4H,1-2H3, purity 99%
Compound 5: 2-methylpropan-2-ol, C4H10O, InChI=1S/C4H10O/c1-4(2,3)5/h5H,1-3H3, purity 99%

System: 1,2-dimethylbenzene; phases: Liquid
Property: Mass density, kg/m3 (Liquid); method: Vibrating tube method
Temperature, K	Pressure, kPa	Mass density, kg/m3	uncertainty
298.15	101.325	875.92	0.11

System: 1,2-dimethylbenzene; phases: Liquid, Air at 1 atmosphere
Property: Surface tension liquid-gas, N/m (Liquid); method: Pendant drop shape
Temperature, K	Surface tension liquid-gas, N/m	uncertainty
298.15	0.0296	0.0004

System: 1,3-dimethylbenzene; phases: Liquid
Property: Mass density, kg/m3 (Liquid); method: Vibrating tube method
Temperature, K	Pressure, kPa	Mass density, kg/m3	uncertainty
298.15	101.325	859.79	0.16

System: 1,3-dimethylbenzene; phases: Liquid, Air at 1 atmosphere
Property: Surface tension liquid-gas, N/m (Liquid); method: Pendant drop shape
Temperature, K	Surface tension liquid-gas, N/m	uncertainty
298.15	0.02836	0.00039

System: 1,4-dimethylbenzene; phases: Liquid
Property: Mass density, kg/m3 (Liquid); method: Vibrating tube method
Temperature, K	Pressure, kPa	Mass density, kg/m3	uncertainty
298.15	101.325	856.85	0.12

System: 1,4-dimethylbenzene; phases: Liquid, Air at 1 atmosphere
Property: Surface tension liquid-gas, N/m (Liquid); method: Pendant drop shape
Temperature, K	Surface tension liquid-gas, N/m	uncertainty
298.15	0.02789	0.00038

System: propan-2-ol; phases: Liquid
Property: Mass density, kg/m3 (Liquid); method: Vibrating tube method
Temperature, K	Pressure, kPa	Mass density, kg/m3	uncertainty
298.15	101.325	780.85	0.16

System: propan-2-ol; phases: Liquid, Air at 1 atmosphere
Property: Surface tension liquid-gas, N/m (Liquid); method: Pendant drop shape
Temperature, K	Surface tension liquid-gas, N/m	uncertainty
298.15	0.02093	0.00031

System: 2-methylpropan-2-ol; phases: Liquid
Property: Mass density, kg/m3 (Liquid); method: Vibrating tube method
Temperature, K	Pressure, kPa	Mass density, kg/m3	uncertainty
298.15	101.325	780.27	0.16

System: 2-methylpropan-2-ol; phases: Metastable liquid, Air at 1 atmosphere
Property: Surface tension liquid-gas, N/m (Metastable liquid); method: Pendant drop shape
Temperature, K	Surface tension liquid-gas, N/m	uncertainty
298.15	0.01997	0.0003

System: 2-methylpropan-2-ol + 1,2-dimethylbenzene; phases: Liquid, Air at 1 atmosphere
Fixed: Temperature, K = 298.15
Property: Surface tension liquid-gas, N/m (Liquid); method: Pendant drop shape
Mole fraction of 2-methylpropan-2-ol	Surface tension liquid-gas, N/m	uncertainty
0	0.0296	0.0004
0.1083	0.0278	0.00038
0.1992	0.02643	0.00036
0.3042	0.02527	0.00035
0.402	0.02432	0.00034
0.5007	0.0236	0.00034
0.5988	0.02282	0.00033
0.6992	0.02205	0.00032
0.8	0.02138	0.00031
0.8991	0.02071	0.00031
1	0.01997	0.0003

System: 2-methylpropan-2-ol + 1,2-dimethylbenzene; phases: Liquid
Fixed: Temperature, K = 298.15
Fixed: Pressure, kPa = 101
Property: Excess molar volume, m3/mol (Liquid); method: Calculated with densities of this investigation
Mole fraction of 2-methylpropan-2-ol	Excess molar volume, m3/mol	uncertainty
0.0536	1.44e-07	1e-08
0.1083	2.39e-07	1.1e-08
0.1489	2.83e-07	1.1e-08
0.1992	3.2e-07	1.1e-08
0.2507	3.64e-07	1.1e-08
0.3042	3.98e-07	1.1e-08
0.349	4.18e-07	1.1e-08
0.402	4.36e-07	1.1e-08
0.4532	4.53e-07	1.1e-08
0.5007	4.64e-07	1.1e-08
0.5513	4.65e-07	1.1e-08
0.5988	4.61e-07	1.1e-08
0.649	4.48e-07	1.1e-08
0.6992	4.27e-07	1.1e-08
0.7479	3.91e-07	1.1e-08
0.8	3.44e-07	1.1e-08
0.8494	2.82e-07	1.1e-08
0.8991	2.08e-07	1.1e-08
0.9452	1.21e-07	1e-08

System: 2-methylpropan-2-ol + 1,3-dimethylbenzene; phases: Liquid, Air at 1 atmosphere
Fixed: Temperature, K = 298.15
Property: Surface tension liquid-gas, N/m (Liquid); method: Pendant drop shape
Mole fraction of 2-methylpropan-2-ol	Surface tension liquid-gas, N/m	uncertainty
0	0.02836	0.00039
0.1028	0.02683	0.00037
0.201	0.02576	0.00036
0.3006	0.02484	0.00035
0.4009	0.02398	0.00034
0.4999	0.02321	0.00033
0.5994	0.02252	0.00033
0.6984	0.02184	0.00032
0.7981	0.02122	0.00031
0.895	0.02064	0.00031
1	0.01997	0.0003

System: 2-methylpropan-2-ol + 1,3-dimethylbenzene; phases: Liquid
Fixed: Temperature, K = 298.15
Fixed: Pressure, kPa = 101
Property: Excess molar volume, m3/mol (Liquid); method: Calculated with densities of this investigation
Mole fraction of 2-methylpropan-2-ol	Excess molar volume, m3/mol	uncertainty
0.0509	1.67e-07	1.1e-08
0.1028	2.77e-07	1.1e-08
0.1612	3.61e-07	1.1e-08
0.201	4.08e-07	1.1e-08
0.251	4.57e-07	1.1e-08
0.3006	5.01e-07	1.2e-08
0.3547	5.42e-07	1.2e-08
0.4009	5.68e-07	1.2e-08
0.4511	5.9e-07	1.2e-08
0.4999	6.03e-07	1.2e-08
0.5509	6.08e-07	1.2e-08
0.5994	5.99e-07	1.2e-08
0.6515	5.77e-07	1.2e-08
0.6984	5.5e-07	1.2e-08
0.7496	4.88e-07	1.1e-08
0.7981	4.38e-07	1.1e-08
0.849	3.56e-07	1.1e-08
0.895	2.6e-07	1.1e-08
0.9479	1.46e-07	1e-08

System: 2-methylpropan-2-ol + 1,4-dimethylbenzene; phases: Liquid, Air at 1 atmosphere
Fixed: Temperature, K = 298.15
Property: Surface tension liquid-gas, N/m (Liquid); method: Pendant drop shape
Mole fraction of 2-methylpropan-2-ol	Surface tension liquid-gas, N/m	uncertainty
0	0.02789	0.00038
0.1004	0.02669	0.00037
0.2113	0.02563	0.00036
0.3049	0.02473	0.00035
0.4065	0.0239	0.00034
0.498	0.02325	0.00033
0.6012	0.0225	0.00033
0.698	0.02182	0.00032
0.8007	0.02115	0.00031
0.9002	0.02058	0.00031
1	0.01997	0.0003

System: 2-methylpropan-2-ol + 1,4-dimethylbenzene; phases: Liquid
Fixed: Temperature, K = 298.15
Fixed: Pressure, kPa = 101
Property: Excess molar volume, m3/mol (Liquid); method: Calculated with densities of this investigation
Mole fraction of 2-methylpropan-2-ol	Excess molar volume, m3/mol	uncertainty
0.0518	1.59e-07	1e-08
0.1004	2.63e-07	1.1e-08
0.1484	3.27e-07	1.1e-08
0.2113	4e-07	1.1e-08
0.2501	4.37e-07	1.1e-08
0.3049	4.75e-07	1.1e-08
0.3532	5.08e-07	1.2e-08
0.4065	5.39e-07	1.2e-08
0.4507	5.54e-07	1.2e-08
0.498	5.65e-07	1.2e-08
0.5546	5.77e-07	1.2e-08
0.6012	5.73e-07	1.2e-08
0.6518	5.54e-07	1.2e-08
0.698	5.26e-07	1.2e-08
0.7504	4.85e-07	1.1e-08
0.8007	4.08e-07	1.1e-08
0.8473	3.39e-07	1.1e-08
0.9002	2.39e-07	1.1e-08
0.9485	1.24e-07	1e-08

System: propan-2-ol + 1,2-dimethylbenzene; phases: Liquid, Air at 1 atmosphere
Fixed: Temperature, K = 298.15
Property: Surface tension liquid-gas, N/m (Liquid); method: Pendant drop shape
Mole fraction of propan-2-ol	Surface tension liquid-gas, N/m	uncertainty
0	0.0296	0.0004
0.0992	0.02821	0.00038
0.1988	0.02711	0.00037
0.3024	0.02607	0.00036
0.4004	0.0253	0.00035
0.4979	0.02454	0.00035
0.5971	0.02398	0.00034
0.6988	0.02315	0.00033
0.8	0.0224	0.00032
0.8896	0.02172	0.00032
1	0.02093	0.00031

System: propan-2-ol + 1,2-dimethylbenzene; phases: Liquid
Fixed: Temperature, K = 298.15
Fixed: Pressure, kPa = 101
Property: Excess molar volume, m3/mol (Liquid); method: Calculated with densities of this investigation
Mole fraction of propan-2-ol	Excess molar volume, m3/mol	uncertainty
0.031	6.5e-08	1e-08
0.0506	9.2e-08	1e-08
0.0992	1.36e-07	1e-08
0.1493	1.61e-07	1e-08
0.1988	1.76e-07	1.1e-08
0.2523	1.82e-07	1.1e-08
0.3025	1.8e-07	1.1e-08
0.3504	1.7e-07	1.1e-08
0.4004	1.56e-07	1e-08
0.4474	1.44e-07	1e-08
0.4979	1.27e-07	1e-08
0.5457	1.04e-07	1e-08
0.5971	7.8e-08	1e-08
0.6525	5.4e-08	1e-08
0.6988	2.9e-08	1e-08
0.7457	1.2e-08	1e-08
0.8	-5e-09	1e-08
0.8493	-1.8e-08	1e-08
0.8996	-2.1e-08	1e-08
0.9223	-2.2e-08	1e-08
0.9448	-1.7e-08	1e-08
0.9715	-1.4e-08	1e-08

System: propan-2-ol + 1,3-dimethylbenzene; phases: Liquid, Air at 1 atmosphere
Fixed: Temperature, K = 298.15
Property: Surface tension liquid-gas, N/m (Liquid); method: Pendant drop shape
Mole fraction of propan-2-ol	Surface tension liquid-gas, N/m	uncertainty
0	0.02836	0.00039
0.1019	0.02715	0.00038
0.1933	0.02623	0.00037
0.2999	0.0254	0.00036
0.4024	0.02476	0.00035
0.4983	0.02418	0.00034
0.5957	0.02356	0.00034
0.7013	0.02287	0.00033
0.7952	0.02226	0.00032
0.8987	0.02158	0.00032
1	0.02093	0.00031

System: propan-2-ol + 1,3-dimethylbenzene; phases: Liquid
Fixed: Temperature, K = 298.15
Fixed: Pressure, kPa = 101
Property: Excess molar volume, m3/mol (Liquid); method: Calculated with densities of this investigation
Mole fraction of propan-2-ol	Excess molar volume, m3/mol	uncertainty
0.0304	5.7e-08	1e-08
0.0535	1.05e-07	1e-08
0.1053	1.66e-07	1.1e-08
0.161	2e-07	1.1e-08
0.2191	2.29e-07	1.1e-08
0.2512	2.41e-07	1.1e-08
0.3067	2.48e-07	1.1e-08
0.353	2.47e-07	1.1e-08
0.399	2.39e-07	1.1e-08
0.4437	2.32e-07	1.1e-08
0.499	2.18e-07	1.1e-08
0.549	1.98e-07	1.1e-08
0.6011	1.76e-07	1.1e-08
0.6492	1.51e-07	1e-08
0.699	1.26e-07	1e-08
0.7446	1e-07	1e-08
0.7977	6.9e-08	1e-08
0.8475	4.9e-08	1e-08
0.9044	2.2e-08	1e-08
0.95	1e-08	1e-08

System: propan-2-ol + 1,4-dimethylbenzene; phases: Liquid, Air at 1 atmosphere
Fixed: Temperature, K = 298.15
Property: Surface tension liquid-gas, N/m (Liquid); method: Pendant drop shape
Mole fraction of propan-2-ol	Surface tension liquid-gas, N/m	uncertainty
0	0.02789	0.00038
0.1029	0.02682	0.00037
0.2014	0.02603	0.00036
0.2993	0.02532	0.00035
0.403	0.02463	0.00035
0.4979	0.02406	0.00034
0.5985	0.02345	0.00033
0.6991	0.02286	0.00033
0.7982	0.02222	0.00032
0.9047	0.02152	0.00032
1	0.02093	0.00031

System: propan-2-ol + 1,4-dimethylbenzene; phases: Liquid
Fixed: Temperature, K = 298.15
Fixed: Pressure, kPa = 101
Property: Excess molar volume, m3/mol (Liquid); method: Calculated with densities of this investigation
Mole fraction of propan-2-ol	Excess molar volume, m3/mol	uncertainty
0.0349	6e-08	1e-08
0.0642	1.18e-07	1e-08
0.1019	1.59e-07	1e-08
0.1542	1.97e-07	1.1e-08
0.209	2.12e-07	1.1e-08
0.2638	2.22e-07	1.1e-08
0.3025	2.21e-07	1.1e-08
0.3511	2.17e-07	1.1e-08
0.3975	2.07e-07	1.1e-08
0.4608	1.9e-07	1.1e-08
0.499	1.74e-07	1.1e-08
0.5488	1.5e-07	1e-08
0.6	1.29e-07	1e-08
0.6536	1e-07	1e-08
0.697	7.4e-08	1e-08
0.751	5e-08	1e-08
0.7987	2.8e-08	1e-08
0.8509	7e-09	1e-08
0.8962	-1e-08	1e-08
0.9249	-1.3e-08	1e-08
0.9485	-1.5e-08	1e-08
0.9751	-1e-08	1e-08
