Measured thermophysical data. Critical Parameters and Vapor Pressures Measurements of Hydrofluoroethers at High Temperatures
Source: J. Chem. Eng. Data, 2003, 10.1021/je0201976
Compound 1: 1,1,1,2,2-pentafluoro-3-(1,1,2,2-tetrafluoroethoxy)propane, C5H3F9O, InChI=1S/C5H3F9O/c6-2(7)4(10,11)15-1-3(8,9)5(12,13)14/h2H,1H2
Compound 2: 1,1,2,2-tetrafluoro-3-(1,1,2,2-tetrafluoroethoxy)propane, C5H4F8O, InChI=1S/C5H4F8O/c6-2(7)4(10,11)1-14-5(12,13)3(8)9/h2-3H,1H2
Compound 3: 1,1,1,2,2,3,3-heptafluoro-4-methoxybutane, C5H5F7O, InChI=1S/C5H5F7O/c1-13-2-3(6,7)4(8,9)5(10,11)12/h2H2,1H3
Compound 4: 1,1,1,2,3,3-hexafluoro-3-(2,2,3,3,3-pentafluoropropoxy)propane, C6H3F11O, InChI=1S/C6H3F11O/c7-2(4(10,11)12)5(13,14)18-1-3(8,9)6(15,16)17/h2H,1H2
Compound 5: 1,1,1,2,3,3-hexafluoro-3-(2,2,3,3-tetrafluoropropoxy)propane, C6H4F10O, InChI=1S/C6H4F10O/c7-2(5(12,13)14)6(15,16)17-1-4(10,11)3(8)9/h2-3H,1H2
Compound 6: 1,1,2,2,3,3,4,4-octafluoro-5-methoxypentane, C6H6F8O, InChI=1S/C6H6F8O/c1-15-2-4(9,10)6(13,14)5(11,12)3(7)8/h3H,2H2,1H3
Compound 7: 1,1,1,2-tetrafluoroethane, C2H2F4, InChI=1S/C2H2F4/c3-1-2(4,5)6/h1H2
Compound 8: 1-chloro-1,1-difluoroethane, C2H3ClF2, InChI=1S/C2H3ClF2/c1-2(3,4)5/h1H3
Compound 9: 1,1,2,2,3,3-hexafluoro-1-methoxypropane, C4H4F6O, InChI=1S/C4H4F6O/c1-11-4(9,10)3(7,8)2(5)6/h2H,1H3
Compound 10: 1-ethoxy-1,1,2,2,3,3,4,4,4-nonafluorobutane, C6H5F9O, InChI=1S/C6H5F9O/c1-2-16-6(14,15)4(9,10)3(7,8)5(11,12)13/h2H2,1H3
Compound 11: 1,1,1-trifluoro-2-(difluoromethoxy)ethane, C3H3F5O, InChI=1S/C3H3F5O/c4-2(5)9-1-3(6,7)8/h2H,1H2
Compound 12: 2,2,2-trifluoroethyl 1,1,2,2-tetrafluoroethyl ether, C4H3F7O, InChI=1S/C4H3F7O/c5-2(6)4(10,11)12-1-3(7,8)9/h2H,1H2
Compound 13: difluoromethyl 2,2,3,3,3-pentafluoropropyl ether, C4H3F7O, InChI=1S/C4H3F7O/c5-2(6)12-1-3(7,8)4(9,10)11/h2H,1H2
Compound 14: 1,1,1-trifluoro-2-(2,2,2-trifluoroethoxy)ethane, C4H4F6O, InChI=1S/C4H4F6O/c5-3(6,7)1-11-2-4(8,9)10/h1-2H2
Compound 15: 1,1,2,2-tetrafluoro-2-(2,2-difluoroethoxy)ethane, C4H4F6O, InChI=1S/C4H4F6O/c5-2(6)1-11-4(9,10)3(7)8/h2-3H,1H2
Compound 16: 1,1,2,2-tetrafluoro-3-methoxypropane, C4H6F4O, InChI=1S/C4H6F4O/c1-9-2-4(7,8)3(5)6/h3H,2H2,1H3
Compound 17: 1,1,1,2,3,3-hexafluoro-3-(2,2,2-trifluoroethoxy)propane, C5H3F9O, InChI=1S/C5H3F9O/c6-2(4(10,11)12)5(13,14)15-1-3(7,8)9/h2H,1H2

System: 1,1,1,2,2-pentafluoro-3-(1,1,2,2-tetrafluoroethoxy)propane; phases: Liquid, Gas
Property: Critical pressure, kPa (Liquid); method: Direct measurement
Critical pressure, kPa	uncertainty
2244	5

System: 1,1,1,2,2-pentafluoro-3-(1,1,2,2-tetrafluoroethoxy)propane; phases: Liquid, Gas
Property: Critical temperature, K (Liquid); method: Visual observation in an unstirred cell
Critical temperature, K	uncertainty
473.01	0.1

System: 1,1,1,2,2-pentafluoro-3-(1,1,2,2-tetrafluoroethoxy)propane; phases: Liquid, Gas
Property: Critical density, kg/m3 (Liquid); method: OTHER
Critical density, kg/m3	uncertainty
550	2

System: 1,1,1,2,2-pentafluoro-3-(1,1,2,2-tetrafluoroethoxy)propane; phases: Liquid, Gas
Property: Vapor or sublimation pressure, kPa (Liquid); method: CCELL:UFactor:2
Temperature, K	Vapor or sublimation pressure, kPa	uncertainty
299.64	17.7	1
332.69	69.8	1
337.7	84	1
342.7	100.3	1
347.73	119.2	1.1
352.74	140.6	1.1
362.76	192.2	1.1
372.78	256.8	1.2
382.81	337.6	1.4
392.84	436.3	1.6
402.86	555.1	1.9
412.89	700	2.2
422.91	868.6	2.7
432.95	1066.1	3.3
442.97	1298	4.1
447.99	1427.4	4.5
453	1567.3	4.9
458.02	1718.4	5.4
464.03	1914.1	6
468.05	2055.2	6.4
473.08	2246.6	7

System: 1,1,2,2-tetrafluoro-3-(1,1,2,2-tetrafluoroethoxy)propane; phases: Liquid, Gas
Property: Critical pressure, kPa (Liquid); method: Direct measurement
Critical pressure, kPa	uncertainty
2581	5

System: 1,1,2,2-tetrafluoro-3-(1,1,2,2-tetrafluoroethoxy)propane; phases: Liquid, Gas
Property: Critical temperature, K (Liquid); method: Visual observation in an unstirred cell
Critical temperature, K	uncertainty
510.07	0.08

System: 1,1,2,2-tetrafluoro-3-(1,1,2,2-tetrafluoroethoxy)propane; phases: Liquid, Gas
Property: Critical density, kg/m3 (Liquid); method: OTHER
Critical density, kg/m3	uncertainty
530	2

System: 1,1,2,2-tetrafluoro-3-(1,1,2,2-tetrafluoroethoxy)propane; phases: Liquid, Gas
Property: Vapor or sublimation pressure, kPa (Liquid); method: CCELL:UFactor:2
Temperature, K	Vapor or sublimation pressure, kPa	uncertainty
322.65	20.9	1
332.65	31.6	1
342.71	46.8	1
352.73	67.9	1
362.77	95.4	1
372.77	131.3	1.1
382.81	177.3	1.1
402.88	308.1	1.3
412.91	395.4	1.5
422.94	500.2	1.8
432.96	628.3	2.1
442.99	773.9	2.4
453.01	946.9	3
463.24	1151.4	3.6
473.06	1378.5	4.3
481.12	1591	5
491.9	1907.6	6
501.73	2245.2	7
509.65	2552.5	8

System: 1,1,1,2,2,3,3-heptafluoro-4-methoxybutane; phases: Liquid, Gas
Property: Critical pressure, kPa (Liquid); method: Direct measurement
Critical pressure, kPa	uncertainty
2381	9

System: 1,1,1,2,2,3,3-heptafluoro-4-methoxybutane; phases: Liquid, Gas
Property: Critical temperature, K (Liquid); method: Visual observation in an unstirred cell
Critical temperature, K	uncertainty
481.54	0.17

System: 1,1,1,2,2,3,3-heptafluoro-4-methoxybutane; phases: Liquid, Gas
Property: Critical density, kg/m3 (Liquid); method: OTHER
Critical density, kg/m3	uncertainty
497	2

System: 1,1,1,2,2,3,3-heptafluoro-4-methoxybutane; phases: Liquid, Gas
Property: Vapor or sublimation pressure, kPa (Liquid); method: CCELL:UFactor:2
Temperature, K	Vapor or sublimation pressure, kPa	uncertainty
291.65	12.1	1
302.31	20.4	1
312.43	32.3	1
322.64	48.9	1
332.66	71.5	1
337.71	85.4	1
342.7	101.2	1
347.73	119.2	1.1
362.74	189.2	1.2
372.75	250.2	1.3
382.82	326.6	1.4
392.85	419.6	1.6
402.88	531.3	1.9
412.9	664.3	2.2
422.92	820.3	2.6
432.95	1004.6	3.2
442.98	1216.4	3.9
453	1462.9	4.7
463.01	1746.1	5.6
473.05	2071.1	6.7
478.44	2266.3	7.3
481.5	2382.5	7.6
481.66	2389.1	7.7

System: 1,1,1,2,3,3-hexafluoro-3-(2,2,3,3,3-pentafluoropropoxy)propane; phases: Liquid, Gas
Property: Critical pressure, kPa (Liquid); method: Direct measurement
Critical pressure, kPa	uncertainty
1950	7

System: 1,1,1,2,3,3-hexafluoro-3-(2,2,3,3,3-pentafluoropropoxy)propane; phases: Liquid, Gas
Property: Critical temperature, K (Liquid); method: Visual observation in an unstirred cell
Critical temperature, K	uncertainty
486.48	0.07

System: 1,1,1,2,3,3-hexafluoro-3-(2,2,3,3,3-pentafluoropropoxy)propane; phases: Liquid, Gas
Property: Critical density, kg/m3 (Liquid); method: OTHER
Critical density, kg/m3	uncertainty
567	2

System: 1,1,1,2,3,3-hexafluoro-3-(2,2,3,3,3-pentafluoropropoxy)propane; phases: Liquid, Gas
Property: Vapor or sublimation pressure, kPa (Liquid); method: CCELL:UFactor:2
Temperature, K	Vapor or sublimation pressure, kPa	uncertainty
312.48	14.7	1
342.64	54.8	1
352.72	79.1	1
362.78	113.1	1.1
372.77	157	1.1
382.71	211.7	1.2
402.89	360.6	1.4
412.9	460.7	1.7
422.79	575.4	1.9
432.96	717.1	2.3
443	881.9	2.8
453	1067.4	3.3
461.47	1255.3	3.9
473.07	1548.7	4.8
483.09	1842.8	5.7
486.67	1954.3	6.1

System: 1,1,1,2,3,3-hexafluoro-3-(2,2,3,3-tetrafluoropropoxy)propane; phases: Liquid, Gas
Property: Critical pressure, kPa (Liquid); method: DIRECT:unst
Critical pressure, kPa	uncertainty
2172	82

System: 1,1,1,2,3,3-hexafluoro-3-(2,2,3,3-tetrafluoropropoxy)propane; phases: Liquid, Gas
Property: Critical temperature, K (Liquid); method: VISOBSU:unst
Critical temperature, K	uncertainty
516.21	0.31

System: 1,1,1,2,3,3-hexafluoro-3-(2,2,3,3-tetrafluoropropoxy)propane; phases: Liquid, Gas
Property: Vapor or sublimation pressure, kPa (Liquid); method: CCELL:UFactor:32
Temperature, K	Vapor or sublimation pressure, kPa	uncertainty
285.28	6.2	1.1
302.65	12.5	1.3
312.63	19.8	1.5
322.62	30.9	1.9
332.69	45.8	2.5
342.69	62.9	3.4
352.75	88.5	4.6
362.72	129.9	6.7
372.8	175.3	8.9
382.83	229	11.6
392.86	294.8	14.9
402.89	374.7	18.8
412.92	469.1	23.5
422.94	581.8	29.1
432.97	715.5	35.7
443	870.9	43.4
453.03	1049.5	52.3
463.06	1252.9	62.4
473.08	1484.4	73.8
481.14	1745.4	86.8
490.97	2048	101.8
499.97	2137.8	400
500.79	2176.3	400

System: 1,1,2,2,3,3,4,4-octafluoro-5-methoxypentane; phases: Liquid, Gas
Property: Critical pressure, kPa (Liquid); method: DIRECT:unst
Critical pressure, kPa	uncertainty
2392	19

System: 1,1,2,2,3,3,4,4-octafluoro-5-methoxypentane; phases: Liquid, Gas
Property: Critical temperature, K (Liquid); method: VISOBSU:unst
Critical temperature, K	uncertainty
546.1	0.31

System: 1,1,2,2,3,3,4,4-octafluoro-5-methoxypentane; phases: Liquid, Gas
Property: Vapor or sublimation pressure, kPa (Liquid); method: CCELL:UFactor:32
Temperature, K	Vapor or sublimation pressure, kPa	uncertainty
301.49	2.3	1.1
312.42	4	1.1
322.54	6.9	1.1
332.62	11.2	1.2
342.67	18.1	1.4
352.72	29.1	1.8
362.75	48	2.6
372.79	74.3	3.9
382.81	106.8	5.5
392.83	147.1	7.5
402.86	193.8	9.9
412.89	250.4	12.7
422.92	320.1	16.1
432.94	395.7	19.9
442.97	482.8	24.2
452.99	585.8	29.3
463	710.7	35.5
473.04	849.5	42.4
483.07	1006.9	50.2
492.89	1184.9	59
502.72	1385.9	69
512.54	1615.9	80.4
522.34	1873.5	93.1
532.17	2168.7	107.8
541.94	2471.9	122.8
545.63	2602.5	129.3

System: 1,1,1,2-tetrafluoroethane; phases: Liquid, Gas
Property: Critical pressure, kPa (Liquid); method: Direct measurement
Critical pressure, kPa	uncertainty
4051	5

System: 1,1,1,2-tetrafluoroethane; phases: Liquid, Gas
Property: Critical temperature, K (Liquid); method: Visual observation in an unstirred cell
Critical temperature, K	uncertainty
374.13	0.07

System: 1,1,1,2-tetrafluoroethane; phases: Liquid, Gas
Property: Critical density, kg/m3 (Liquid); method: OTHER
Critical density, kg/m3	uncertainty
508	2

System: 1-chloro-1,1-difluoroethane; phases: Liquid, Gas
Property: Critical pressure, kPa (Liquid); method: Direct measurement
Critical pressure, kPa	uncertainty
4054	7

System: 1-chloro-1,1-difluoroethane; phases: Liquid, Gas
Property: Critical temperature, K (Liquid); method: Visual observation in an unstirred cell
Critical temperature, K	uncertainty
410.3	0.07

System: 1-chloro-1,1-difluoroethane; phases: Liquid, Gas
Property: Critical density, kg/m3 (Liquid); method: OTHER
Critical density, kg/m3	uncertainty
442	2

System: 1,1,2,2,3,3-hexafluoro-1-methoxypropane; phases: Liquid, Gas
Property: Critical pressure, kPa (Liquid); method: DIRECT:unst
Critical pressure, kPa	uncertainty
3032	102

System: 1,1,2,2,3,3-hexafluoro-1-methoxypropane; phases: Liquid, Gas
Property: Critical temperature, K (Liquid); method: VISOBSU:unst
Critical temperature, K	uncertainty
486.98	0.31

System: 1,1,2,2,3,3-hexafluoro-1-methoxypropane; phases: Liquid, Gas
Property: Vapor or sublimation pressure, kPa (Liquid); method: CCELL:UFactor:16
Temperature, K	Vapor or sublimation pressure, kPa	uncertainty
301.9	22.4	1.2
312.59	35	1.3
322.63	52.9	1.6
332.69	77	2.1
337.67	92.1	2.4
342.69	109.2	2.8
352.73	151.1	3.9
362.74	204.9	5.2
372.78	273.4	6.9
382.81	357.4	9
392.84	458.8	11.5
402.87	581.1	14.5
412.87	726.2	18.1
422.91	898.8	22.4
432.94	1100.7	27.4
442.97	1333.7	33.2
452.99	1605.1	39.9
463.02	1921.8	47.8
473.04	2276.4	56.6
480.12	2562.9	63.7

System: 1-ethoxy-1,1,2,2,3,3,4,4,4-nonafluorobutane; phases: Liquid, Gas
Property: Critical pressure, kPa (Liquid); method: Direct measurement
Critical pressure, kPa	uncertainty
1976	5

System: 1-ethoxy-1,1,2,2,3,3,4,4,4-nonafluorobutane; phases: Liquid, Gas
Property: Critical temperature, K (Liquid); method: Visual observation in an unstirred cell
Critical temperature, K	uncertainty
482.02	0.11

System: 1-ethoxy-1,1,2,2,3,3,4,4,4-nonafluorobutane; phases: Liquid, Gas
Property: Critical density, kg/m3 (Liquid); method: OTHER
Critical density, kg/m3	uncertainty
518	2

System: 1-ethoxy-1,1,2,2,3,3,4,4,4-nonafluorobutane; phases: Liquid, Gas
Property: Vapor or sublimation pressure, kPa (Liquid); method: CCELL:UFactor:2
Temperature, K	Vapor or sublimation pressure, kPa	uncertainty
309.21	22.5	1
332.68	57	1
342.71	80.7	1
347.73	95.4	1
382.82	271.9	1.3
392.84	349.2	1.4
402.87	443.3	1.6
412.66	553.4	1.9
422.65	684.8	2.2
432.89	835.3	2.6
443.2	1011.6	3.2
453.14	1212.9	3.8
473.46	1720.7	5.4

System: 1,1,1-trifluoro-2-(difluoromethoxy)ethane; phases: Liquid, Gas
Property: Critical pressure, kPa (Liquid); method: DIRECT:unst
Critical pressure, kPa	uncertainty
3457	19

System: 1,1,1-trifluoro-2-(difluoromethoxy)ethane; phases: Liquid, Gas
Property: Critical temperature, K (Liquid); method: VISOBSU:unst
Critical temperature, K	uncertainty
444.88	0.31

System: 1,1,1-trifluoro-2-(difluoromethoxy)ethane; phases: Liquid, Gas
Property: Vapor or sublimation pressure, kPa (Liquid); method: CCELL:UFactor:2
Temperature, K	Vapor or sublimation pressure, kPa	uncertainty
294.35	72.3	1
298.14	84.3	1
300.2	91.5	1
303.14	102.8	1
313.12	148.1	1.1
323.16	207.8	1.2
333.19	284.6	1.3
343.23	381.2	1.5
353.26	500.9	1.8
363.3	646.8	2.1
373.34	823	2.6
383.37	1031.9	3.2
393.42	1282.6	4
403.45	1575.8	4.9
413.47	1919.5	6
423.52	2334.2	7.3
433.56	2798.5	8.7
443.56	3339.2	10.4

System: 2,2,2-trifluoroethyl 1,1,2,2-tetrafluoroethyl ether; phases: Liquid, Gas
Property: Critical pressure, kPa (Liquid); method: Direct measurement
Critical pressure, kPa	uncertainty
2713	4

System: 2,2,2-trifluoroethyl 1,1,2,2-tetrafluoroethyl ether; phases: Liquid, Gas
Property: Critical temperature, K (Liquid); method: Visual observation in an unstirred cell
Critical temperature, K	uncertainty
463.89	0.07

System: 2,2,2-trifluoroethyl 1,1,2,2-tetrafluoroethyl ether; phases: Liquid, Gas
Property: Critical density, kg/m3 (Liquid); method: OTHER
Critical density, kg/m3	uncertainty
541	2

System: 2,2,2-trifluoroethyl 1,1,2,2-tetrafluoroethyl ether; phases: Liquid, Gas
Property: Vapor or sublimation pressure, kPa (Liquid); method: CCELL:UFactor:2
Temperature, K	Vapor or sublimation pressure, kPa	uncertainty
297.29	27.8	1
313.67	55.7	1
322.82	79.9	1
332.69	114.5	1.1
342.88	162	1.1
352.74	221.2	1.2
362.7	296.8	1.3
372.69	391.4	1.5
382.81	510.6	1.8
392.83	651.7	2.1
402.83	821.2	2.6
413.9	1046.2	3.3
422.92	1260.9	3.9
432.91	1536.4	4.8
442.98	1859.3	5.8
452.95	2231	6.9
462.99	2668.5	8.3
463.89	2713.3	8.4
463.94	2715.8	8.4

System: difluoromethyl 2,2,3,3,3-pentafluoropropyl ether; phases: Liquid, Gas
Property: Critical pressure, kPa (Liquid); method: Direct measurement
Critical pressure, kPa	uncertainty
2773	9

System: difluoromethyl 2,2,3,3,3-pentafluoropropyl ether; phases: Liquid, Gas
Property: Critical temperature, K (Liquid); method: Visual observation in an unstirred cell
Critical temperature, K	uncertainty
455.1	0.1

System: difluoromethyl 2,2,3,3,3-pentafluoropropyl ether; phases: Liquid, Gas
Property: Critical density, kg/m3 (Liquid); method: OTHER
Critical density, kg/m3	uncertainty
576	2

System: difluoromethyl 2,2,3,3,3-pentafluoropropyl ether; phases: Liquid, Gas
Property: Vapor or sublimation pressure, kPa (Liquid); method: CCELL:UFactor:2
Temperature, K	Vapor or sublimation pressure, kPa	uncertainty
298.42	44.2	1
322.49	111.5	1.1
332.63	157.2	1.1
342.7	216.6	1.2
352.65	290.7	1.3
362.73	384.1	1.5
372.78	498.1	1.8
382.79	637.5	2.1
392.82	807.7	2.5
402.86	1006.3	3.2
412.9	1244.5	3.9
422.93	1524.9	4.8
432.96	1858.4	5.8
442.98	2203.3	6.9
454.99	2769	8.7
455.27	2796.4	8.8

System: 1,1,1-trifluoro-2-(2,2,2-trifluoroethoxy)ethane; phases: Liquid, Gas
Property: Critical pressure, kPa (Liquid); method: Direct measurement
Critical pressure, kPa	uncertainty
2783	5

System: 1,1,1-trifluoro-2-(2,2,2-trifluoroethoxy)ethane; phases: Liquid, Gas
Property: Critical temperature, K (Liquid); method: Visual observation in an unstirred cell
Critical temperature, K	uncertainty
476.31	0.09

System: 1,1,1-trifluoro-2-(2,2,2-trifluoroethoxy)ethane; phases: Liquid, Gas
Property: Critical density, kg/m3 (Liquid); method: OTHER
Critical density, kg/m3	uncertainty
500	2

System: 1,1,1-trifluoro-2-(2,2,2-trifluoroethoxy)ethane; phases: Liquid, Gas
Property: Vapor or sublimation pressure, kPa (Liquid); method: CCELL:UFactor:2
Temperature, K	Vapor or sublimation pressure, kPa	uncertainty
293.4	18	1
293.59	18.2	1
303.09	27.9	1
303.12	28	1
313.12	42.6	1
313.14	42.8	1
323.15	63.3	1
323.17	63.4	1
333.2	91.3	1
333.2	91.4	1
338.22	109	1.1
338.22	109	1.1
343.24	129.2	1.1
343.24	129.2	1.1
353.27	178.3	1.1
353.28	178.3	1.1
363.31	241.1	1.2
363.31	241.1	1.2
373.34	320	1.4
373.35	320.1	1.4
383.38	417.4	1.6
383.38	417.3	1.6
393.43	536.2	1.8
393.43	536.3	1.8

System: 1,1,2,2-tetrafluoro-2-(2,2-difluoroethoxy)ethane; phases: Liquid, Gas
Property: Critical pressure, kPa (Liquid); method: Direct measurement
Critical pressure, kPa	uncertainty
3090	9

System: 1,1,2,2-tetrafluoro-2-(2,2-difluoroethoxy)ethane; phases: Liquid, Gas
Property: Critical temperature, K (Liquid); method: Visual observation in an unstirred cell
Critical temperature, K	uncertainty
501.08	0.08

System: 1,1,2,2-tetrafluoro-2-(2,2-difluoroethoxy)ethane; phases: Liquid, Gas
Property: Critical density, kg/m3 (Liquid); method: OTHER
Critical density, kg/m3	uncertainty
520	2

System: 1,1,2,2-tetrafluoro-2-(2,2-difluoroethoxy)ethane; phases: Liquid, Gas
Property: Vapor or sublimation pressure, kPa (Liquid); method: CCELL:UFactor:2
Temperature, K	Vapor or sublimation pressure, kPa	uncertainty
300.91	12.8	1
322.65	33.9	1
332.67	50.8	1
342.69	75	1
352.73	106.1	1.1
362.73	147.5	1.1
372.78	202.5	1.2
382.8	268.1	1.3
392.83	351.4	1.4
402.87	453.5	1.6
412.89	576.7	1.9
422.92	723.9	2.3
432.95	898.2	2.8
442.97	1102.4	3.4
453	1341.6	4.2
463.02	1615.4	5
473.05	1931	6
482.09	2256.7	7
491.9	2658.1	8.3
497.81	2932.7	9.1
501.3	3101.6	9.7

System: 1,1,2,2-tetrafluoro-3-methoxypropane; phases: Liquid, Gas
Property: Critical pressure, kPa (Liquid); method: Direct measurement
Critical pressure, kPa	uncertainty
3279	6

System: 1,1,2,2-tetrafluoro-3-methoxypropane; phases: Liquid, Gas
Property: Critical temperature, K (Liquid); method: Visual observation in an unstirred cell
Critical temperature, K	uncertainty
505.35	0.13

System: 1,1,2,2-tetrafluoro-3-methoxypropane; phases: Liquid, Gas
Property: Critical density, kg/m3 (Liquid); method: OTHER
Critical density, kg/m3	uncertainty
453	2

System: 1,1,2,2-tetrafluoro-3-methoxypropane; phases: Liquid, Gas
Property: Vapor or sublimation pressure, kPa (Liquid); method: CCELL:UFactor:2
Temperature, K	Vapor or sublimation pressure, kPa	uncertainty
342.68	84.8	1
347.65	101.2	1.1
352.72	120.5	1.1
362.75	166.1	1.1
372.76	222.7	1.2
382.79	293.4	1.3
392.8	379.9	1.5
402.8	484.3	1.8
412.88	610.7	2.1
422.91	758.8	2.5
432.93	934.8	3
442.97	1138.1	3.7
452.99	1373.5	4.5
463.01	1642.8	5.3
473.02	1952	6.3
480.13	2197.3	7.1
489.95	2573.3	8.3
499.77	3005.9	9.7
505.06	3262.8	10.6
505.35	3278.9	10.6

System: 1,1,1,2,3,3-hexafluoro-3-(2,2,2-trifluoroethoxy)propane; phases: Liquid, Gas
Property: Critical pressure, kPa (Liquid); method: Direct measurement
Critical pressure, kPa	uncertainty
2233	11

System: 1,1,1,2,3,3-hexafluoro-3-(2,2,2-trifluoroethoxy)propane; phases: Liquid, Gas
Property: Critical temperature, K (Liquid); method: Visual observation in an unstirred cell
Critical temperature, K	uncertainty
475.74	0.09

System: 1,1,1,2,3,3-hexafluoro-3-(2,2,2-trifluoroethoxy)propane; phases: Liquid, Gas
Property: Critical density, kg/m3 (Liquid); method: OTHER
Critical density, kg/m3	uncertainty
563	2

System: 1,1,1,2,3,3-hexafluoro-3-(2,2,2-trifluoroethoxy)propane; phases: Liquid, Gas
Property: Vapor or sublimation pressure, kPa (Liquid); method: CCELL:UFactor:2
Temperature, K	Vapor or sublimation pressure, kPa	uncertainty
302.76	18.7	1
312.63	29.6	1
322.65	44.6	1
332.64	65.7	1
342.72	93.9	1
352.73	131	1.1
362.77	179.1	1.1
372.79	239.7	1.2
382.83	315.9	1.4
392.84	408	1.5
402.89	521.2	1.8
412.92	657.3	2.1
422.94	814.3	2.6
432.97	1004.4	3.1
443	1225.6	3.8
453.02	1480.3	4.6
463.04	1778.5	5.5
473.06	2125	6.6
475.79	2236.1	7
