Measured thermophysical data. Excess Molar Enthalpies of Propyl Propanoate + 1-Hexanol + Benzene at the Temperatures of 25 :C and 35 :C
Source: J. Chem. Eng. Data, 2003, 10.1021/je0201370
Compound 1: propyl propanoate, C6H12O2, InChI=1S/C6H12O2/c1-3-5-8-6(7)4-2/h3-5H2,1-2H3, purity 99%
Compound 2: hexan-1-ol, C6H14O, InChI=1S/C6H14O/c1-2-3-4-5-6-7/h7H,2-6H2,1H3, purity 99%
Compound 3: benzene, C6H6, InChI=1S/C6H6/c1-2-4-6-5-3-1/h1-6H, purity 99.5%

System: propyl propanoate; phases: Liquid
Property: Mass density, kg/m3 (Liquid); method: VIBTUB:dT:0.01
Temperature, K	Pressure, kPa	Mass density, kg/m3	uncertainty
298.1	101.325	875.53	0.45

System: hexan-1-ol; phases: Liquid
Property: Mass density, kg/m3 (Liquid); method: VIBTUB:dT:0.01
Temperature, K	Pressure, kPa	Mass density, kg/m3	uncertainty
298.1	101.325	815.16	0.42

System: benzene; phases: Liquid
Property: Mass density, kg/m3 (Liquid); method: VIBTUB:dT:0.01
Temperature, K	Pressure, kPa	Mass density, kg/m3	uncertainty
298.1	101.325	873.45	0.23

System: propyl propanoate + hexan-1-ol; phases: Liquid
Fixed: Temperature, K = 308
Fixed: Pressure, kPa = 101
Property: Excess molar enthalpy (molar enthalpy of mixing), kJ/mol (Liquid); method: CALVET:UFactor:2
Mole fraction of propyl propanoate	Excess molar enthalpy (molar enthalpy of mixing), kJ/mol	uncertainty
0.0406	0.231	0.005
0.089	0.487	0.01
0.1367	0.713	0.014
0.1766	0.869	0.016
0.247	1.124	0.021
0.3217	1.32	0.024
0.3805	1.422	0.026
0.4198	1.486	0.027
0.4667	1.511	0.027
0.5259	1.536	0.028
0.5961	1.515	0.027
0.6484	1.459	0.026
0.6999	1.37	0.025
0.7542	1.25	0.023
0.7995	1.102	0.02
0.8595	0.859	0.016
0.9109	0.597	0.012
0.9496	0.365	0.008

System: benzene + hexan-1-ol; phases: Liquid
Fixed: Temperature, K = 298
Fixed: Pressure, kPa = 101
Property: Excess molar enthalpy (molar enthalpy of mixing), kJ/mol (Liquid); method: CALVET:UFactor:2
Mole fraction of hexan-1-ol	Excess molar enthalpy (molar enthalpy of mixing), kJ/mol	uncertainty
0.0619	0.647	0.012
0.0988	0.823	0.015
0.1383	0.968	0.018
0.1909	1.08	0.02
0.2287	1.142	0.021
0.2675	1.183	0.022
0.3137	1.21	0.022
0.3792	1.216	0.022
0.4153	1.19	0.022
0.4625	1.135	0.021
0.5107	1.093	0.02
0.5648	1.012	0.019
0.6192	0.908	0.017
0.7214	0.684	0.013
0.7711	0.582	0.011
0.8482	0.38	0.008
0.8884	0.289	0.006
0.979	0.057	0.003

System: benzene + hexan-1-ol; phases: Liquid
Fixed: Temperature, K = 308
Fixed: Pressure, kPa = 101
Property: Excess molar enthalpy (molar enthalpy of mixing), kJ/mol (Liquid); method: CALVET:UFactor:2
Mole fraction of hexan-1-ol	Excess molar enthalpy (molar enthalpy of mixing), kJ/mol	uncertainty
0.037	0.483	0.01
0.0647	0.723	0.014
0.1001	0.908	0.017
0.1428	1.07	0.02
0.1815	1.169	0.021
0.2272	1.253	0.023
0.2476	1.279	0.023
0.3195	1.327	0.024
0.3867	1.347	0.025
0.463	1.308	0.024
0.4675	1.298	0.024
0.5017	1.268	0.023
0.5463	1.204	0.022
0.593	1.115	0.02
0.6577	0.968	0.018
0.7485	0.739	0.014
0.8067	0.574	0.011
0.8318	0.498	0.01
0.8867	0.333	0.007
0.9323	0.2	0.005

System: benzene + propyl propanoate + hexan-1-ol; phases: Liquid
Fixed: Temperature, K = 298
Fixed: Pressure, kPa = 101
Property: Excess molar enthalpy (molar enthalpy of mixing), kJ/mol (Liquid); method: CALVET:UFactor:2
Mole fraction of propyl propanoate	Mole fraction of hexan-1-ol	Excess molar enthalpy (molar enthalpy of mixing), kJ/mol	uncertainty
0.0065	0.0193	0.281	0.006
0.015	0.015	0.23	0.005
0.0212	0.0633	0.639	0.012
0.0244	0.0079	0.126	0.004
0.0252	0.0753	0.701	0.013
0.035	0.1044	0.816	0.015
0.0404	0.0402	0.468	0.009
0.0472	0.1407	0.937	0.017
0.05	0.0498	0.529	0.01
0.056	0.1671	0.997	0.018
0.0561	0.0183	0.214	0.005
0.0673	0.2009	1.066	0.02
0.072	0.0235	0.289	0.006
0.0783	0.2337	1.115	0.02
0.0872	0.087	0.712	0.014
0.0888	0.2649	1.154	0.021
0.0897	0.0894	0.725	0.014
0.1015	0.3028	1.185	0.022
0.1085	0.1082	0.782	0.015
0.1157	0.3451	1.211	0.022
0.1293	0.3859	1.223	0.022
0.1346	0.1341	0.87	0.016
0.1388	0.4141	1.226	0.022
0.1558	0.4651	1.221	0.022
0.1566	0.156	0.929	0.017
0.1779	0.1773	0.977	0.018
0.1784	0.5323	1.223	0.022
0.1987	0.5929	1.215	0.022
0.2122	0.6332	1.195	0.022
0.2128	0.2122	1.059	0.02
0.2308	0.23	1.096	0.02
0.2322	0.693	1.179	0.022
0.2369	0.7069	1.176	0.022
0.2569	0.256	1.146	0.021
0.2774	0.0905	0.639	0.012
0.2798	0.2789	1.186	0.022
0.3011	0.0982	0.671	0.013
0.3152	0.3142	1.249	0.023
0.3418	0.1115	0.723	0.014
0.3715	0.3703	1.348	0.025
0.3764	0.1227	0.769	0.015
0.4062	0.405	1.433	0.026
0.4151	0.4138	1.449	0.026
0.4213	0.1374	0.833	0.016
0.4292	0.4279	1.471	0.027
0.4672	0.1523	0.886	0.017
0.4706	0.469	1.549	0.028
0.5166	0.1684	0.982	0.018
0.5734	0.187	0.107	0.004
0.6175	0.2013	1.127	0.021
0.6509	0.2122	1.179	0.022
0.7168	0.2337	1.291	0.024

System: benzene + propyl propanoate + hexan-1-ol; phases: Liquid
Fixed: Temperature, K = 308
Fixed: Pressure, kPa = 101
Property: Excess molar enthalpy (molar enthalpy of mixing), kJ/mol (Liquid); method: CALVET:UFactor:4
Mole fraction of propyl propanoate	Mole fraction of hexan-1-ol	Excess molar enthalpy (molar enthalpy of mixing), kJ/mol	uncertainty
0.0095	0.0195	0.299	0.012
0.0119	0.0119	0.194	0.009
0.0246	0.0507	0.587	0.021
0.0303	0.0102	0.15	0.008
0.0371	0.0765	0.739	0.026
0.0391	0.039	0.47	0.018
0.0478	0.0984	0.839	0.029
0.0488	0.0487	0.539	0.02
0.0568	0.0192	0.245	0.011
0.0588	0.1211	0.921	0.032
0.0674	0.0671	0.651	0.023
0.0726	0.0245	0.289	0.012
0.0749	0.1545	1.023	0.035
0.0807	0.1663	1.049	0.036
0.0884	0.1823	1.103	0.037
0.0886	0.0883	0.745	0.026
0.0989	0.0334	0.356	0.014
0.1076	0.2217	1.151	0.039
0.1106	0.1102	0.832	0.029
0.1189	0.2449	1.177	0.04
0.1221	0.0413	0.404	0.016
0.1316	0.1312	0.888	0.031
0.1322	0.2723	1.213	0.041
0.1522	0.3138	1.239	0.041
0.1543	0.1537	0.846	0.15
0.1615	0.0546	0.468	0.018
0.1714	0.3531	1.256	0.042
0.1864	0.1858	1.024	0.035
0.2025	0.0685	0.532	0.02
0.2034	0.2026	1.049	0.036
0.224	0.2232	1.078	0.037
0.2292	0.0776	0.566	0.021
0.2589	0.258	1.143	0.039
0.2626	0.0889	0.607	0.022
0.2799	0.2789	1.167	0.039
0.3055	0.1034	0.664	0.024
0.313	0.3119	1.212	0.041
0.3366	0.1139	0.719	0.025
0.3544	0.3532	1.262	0.042
0.3773	0.1277	0.736	0.026
0.435	0.1472	0.829	0.029
0.4655	0.1575	0.849	0.029
0.4955	0.1676	0.88	0.03
0.5824	0.197	1.037	0.035
0.618	0.2091	1.083	0.037
0.6804	0.2302	1.164	0.039
0.7055	0.2387	1.2	0.04

System: benzene + propyl propanoate + hexan-1-ol; phases: Liquid
Fixed: Temperature, K = 308
Fixed: Pressure, kPa = 101
Property: Excess molar enthalpy (molar enthalpy of mixing), kJ/mol (Liquid); method: CALVET:dHEX1:1%:UFactor:4
Mole fraction of propyl propanoate	Mole fraction of hexan-1-ol	Excess molar enthalpy (molar enthalpy of mixing), kJ/mol	uncertainty
0.0095	0.0195	0.261	0.015
0.0119	0.0119	0.158	0.01
0.0246	0.0507	0.487	0.024
0.0303	0.0102	0.099	0.008
0.0371	0.0765	0.589	0.028
0.0391	0.039	0.35	0.018
0.0478	0.0984	0.645	0.03
0.0488	0.0487	0.389	0.02
0.0568	0.0192	0.149	0.01
0.0588	0.1211	0.683	0.031
0.0674	0.0671	0.445	0.022
0.0726	0.0245	0.167	0.011
0.0749	0.1545	0.719	0.033
0.0807	0.1663	0.722	0.033
0.0884	0.1823	0.744	0.034
0.0886	0.0883	0.474	0.023
0.0989	0.0334	0.19	0.012
0.1076	0.2217	0.714	0.033
0.1106	0.1102	0.493	0.024
0.1189	0.2449	0.694	0.032
0.1221	0.0413	0.198	0.012
0.1316	0.1312	0.484	0.023
0.1322	0.2723	0.677	0.031
0.1522	0.3138	0.621	0.029
0.1543	0.1537	0.472	0.023
0.1615	0.0546	0.195	0.012
0.1714	0.3531	0.561	0.026
0.1864	0.1858	0.453	0.022
0.2025	0.0685	0.19	0.012
0.2034	0.2026	0.426	0.021
0.224	0.2232	0.391	0.02
0.2292	0.0776	0.179	0.011
0.2589	0.258	0.349	0.018
0.2626	0.0889	0.164	0.011
0.2799	0.2789	0.309	0.016
0.3055	0.1034	0.148	0.01
0.313	0.3119	0.252	0.014
0.3366	0.1139	0.15	0.01
0.3544	0.3532	0.175	0.011
0.3773	0.1277	0.099	0.008
0.435	0.1472	0.095	0.008
0.4655	0.1575	0.063	0.007
0.4955	0.1676	0.044	0.006
0.5824	0.197	0.054	0.006
0.618	0.2091	0.04	0.006
0.6804	0.2302	0.016	0.005
0.7055	0.2387	0.01	0.004

System: benzene + propyl propanoate + hexan-1-ol; phases: Liquid
Fixed: Temperature, K = 298
Fixed: Pressure, kPa = 101
Property: Excess molar enthalpy (molar enthalpy of mixing), kJ/mol (Liquid); method: CALVET:UFactor:2:dHEX1:1%
Mole fraction of propyl propanoate	Mole fraction of hexan-1-ol	Excess molar enthalpy (molar enthalpy of mixing), kJ/mol	uncertainty
0.0065	0.0193	0.251	0.006
0.015	0.015	0.182	0.004
0.0212	0.0633	0.541	0.011
0.0244	0.0079	0.083	0.003
0.0252	0.0753	0.584	0.011
0.035	0.1044	0.654	0.013
0.0404	0.0402	0.339	0.007
0.0472	0.1407	0.719	0.014
0.05	0.0498	0.369	0.008
0.056	0.1671	0.738	0.014
0.0561	0.0183	0.114	0.003
0.0673	0.2009	0.755	0.014
0.072	0.0235	0.161	0.004
0.0783	0.2337	0.753	0.014
0.0872	0.087	0.433	0.009
0.0888	0.2649	0.744	0.014
0.0897	0.0894	0.438	0.009
0.1015	0.3028	0.716	0.014
0.1085	0.1082	0.435	0.009
0.1157	0.3451	0.676	0.013
0.1293	0.3859	0.625	0.012
0.1346	0.1341	0.44	0.009
0.1388	0.4141	0.585	0.011
0.1558	0.4651	0.501	0.01
0.1566	0.156	0.428	0.009
0.1779	0.1773	0.408	0.008
0.1784	0.5323	0.398	0.008
0.1987	0.5929	0.297	0.006
0.2122	0.6332	0.214	0.005
0.2128	0.2122	0.379	0.008
0.2308	0.23	0.359	0.007
0.2322	0.693	0.106	0.003
0.2369	0.7069	0.081	0.003
0.2569	0.256	0.325	0.007
0.2774	0.0905	0.146	0.004
0.2798	0.2789	0.291	0.006
0.3011	0.0982	0.136	0.004
0.3152	0.3142	0.241	0.005
0.3418	0.1115	0.115	0.003
0.3715	0.3703	0.16	0.004
0.3764	0.1227	0.1	0.003
0.4062	0.405	0.135	0.004
0.4151	0.4138	0.122	0.003
0.4213	0.1374	0.084	0.003
0.4292	0.4279	0.099	0.003
0.4672	0.1523	0.056	0.002
0.4706	0.469	0.045	0.002
0.5166	0.1684	0.065	0.003
0.5734	0.187	0.055	0.002
0.6175	0.2013	0.03	0.002
0.6509	0.2122	0.022	0.002
0.7168	0.2337	0.017	0.002
