Measured thermophysical data. Thermodynamics of mixtures involving some linear or cyclic ketones and cyclic ethers. 2. Systems containing tetrahydropyran
Source: J. Chem. Eng. Data, 2003, 10.1021/je025649t
Compound 1: tetrahydropyran, C5H10O, InChI=1S/C5H10O/c1-2-4-6-5-3-1/h1-5H2, purity 99%
Compound 2: cyclopentanone, C5H8O, InChI=1S/C5H8O/c6-5-3-1-2-4-5/h1-4H2, purity 99%
Compound 3: cyclohexanone, C6H10O, InChI=1S/C6H10O/c7-6-4-2-1-3-5-6/h1-5H2, purity 99.8%
Compound 4: pentan-2-one, C5H10O, InChI=1S/C5H10O/c1-3-4-5(2)6/h3-4H2,1-2H3, purity 99%
Compound 5: 2-heptanone, C7H14O, InChI=1S/C7H14O/c1-3-4-5-6-7(2)8/h3-6H2,1-2H3, purity 98%

System: tetrahydropyran; phases: Liquid
Property: Molar heat capacity at constant pressure, J/K/mol (Liquid); method: Flow calorimetry
Temperature, K	Pressure, kPa	Molar heat capacity at constant pressure, J/K/mol	uncertainty
298.15	101.325	149.32	

System: tetrahydropyran; phases: Liquid
Property: Refractive index (Na D-line) (Liquid); method: REFRACT:monoch
Temperature, K	Pressure, kPa	Refractive index (Na D-line)	uncertainty
298.15	101.325	1.41865	

System: tetrahydropyran; phases: Liquid
Property: Mass density, kg/m3 (Liquid); method: Vibrating tube method
Temperature, K	Pressure, kPa	Mass density, kg/m3	uncertainty
298.15	101.325	878.91	

System: cyclopentanone + tetrahydropyran; phases: Liquid
Fixed: Temperature, K = 298.15
Fixed: Pressure, kPa = 101
Property: Heat capacity at constant pressure per volume, J/K/m3 (Liquid); method: Flow calorimetry
Mole fraction of tetrahydropyran	Heat capacity at constant pressure per volume, J/K/m3	uncertainty
0.0715	1697900	2600
0.1485	1683000	2600
0.2279	1667700	2600
0.3826	1638300	2500
0.4613	1623300	2500
0.5422	1608000	2500
0.6258	1592400	2500
0.6965	1579400	2400
0.777	1564600	2400
0.8588	1549700	2400
0.9378	1535300	2400

System: cyclopentanone + tetrahydropyran; phases: Liquid
Fixed: Temperature, K = 298.15
Fixed: Pressure, kPa = 101
Property: Excess molar enthalpy (molar enthalpy of mixing), kJ/mol (Liquid); method: Flow calorimetry
Mole fraction of tetrahydropyran	Excess molar enthalpy (molar enthalpy of mixing), kJ/mol	uncertainty
0.1	0.0531	0.00127
0.15	0.0757	0.00143
0.2	0.09607	0.00157
0.25	0.11325	0.00168
0.3	0.12734	0.00178
0.35	0.13865	0.00186
0.4	0.14762	0.00193
0.45	0.15411	0.00197
0.5	0.1577	0.002
0.55	0.15813	0.002
0.6	0.15535	0.00198
0.65	0.14943	0.00194
0.7	0.14056	0.00188
0.75	0.12811	0.00179
0.8	0.11157	0.00168
0.85	0.09162	0.00156
0.9	0.0659	0.00139

System: cyclopentanone + tetrahydropyran; phases: Liquid
Fixed: Temperature, K = 298.15
Fixed: Pressure, kPa = 101
Property: Refractive index (Na D-line) (Liquid); method: REFRACT:monoch
Mole fraction of tetrahydropyran	Refractive index (Na D-line)	uncertainty
0.0723	1.4337	0.00021
0.153	1.43231	0.00021
0.2311	1.43098	0.00021
0.3083	1.42967	0.00021
0.3514	1.42895	0.00021
0.3917	1.42828	0.00021
0.4314	1.42762	0.00021
0.4691	1.427	0.00021
0.5026	1.42645	0.00021
0.5485	1.42571	0.00021
0.5911	1.42502	0.00021
0.6215	1.42454	0.00021
0.6618	1.4239	0.00021
0.7097	1.42314	0.00021
0.7897	1.42189	0.00021
0.8648	1.42073	0.00021
0.9456	1.41948	0.00021

System: cyclopentanone + tetrahydropyran; phases: Liquid
Fixed: Temperature, K = 298.15
Fixed: Pressure, kPa = 101
Property: Mass density, kg/m3 (Liquid); method: Vibrating tube method
Mole fraction of tetrahydropyran	Mass density, kg/m3	uncertainty
0.0621	939.88	0.48
0.1532	933.66	0.48
0.2354	928.1	0.48
0.309	923.12	0.47
0.3167	922.64	0.47
0.346	920.67	0.47
0.3516	920.32	0.47
0.3936	917.52	0.47
0.3997	917.16	0.47
0.4297	915.15	0.47
0.4312	915.07	0.47
0.4661	912.74	0.47
0.4676	912.7	0.47
0.5105	909.9	0.47
0.5187	909.32	0.47
0.5466	907.55	0.47
0.5498	907.3	0.47
0.5959	904.37	0.46
0.6289	902.25	0.46
0.6335	901.96	0.46
0.6618	900.16	0.46
0.708	897.22	0.46
0.7941	891.79	0.46
0.8569	887.85	0.46
0.9351	882.98	0.45
0.939	882.71	0.45

System: cyclohexanone + tetrahydropyran; phases: Liquid
Fixed: Temperature, K = 298.15
Fixed: Pressure, kPa = 101
Property: Excess molar enthalpy (molar enthalpy of mixing), kJ/mol (Liquid); method: Flow calorimetry
Mole fraction of tetrahydropyran	Excess molar enthalpy (molar enthalpy of mixing), kJ/mol	uncertainty
0.1	0.02709	0.00101
0.15	0.03846	0.00109
0.2	0.04892	0.00117
0.25	0.05827	0.00124
0.3	0.06686	0.0013
0.35	0.07354	0.00135
0.4	0.07895	0.00139
0.45	0.08302	0.00142
0.5	0.08658	0.00145
0.55	0.08939	0.00147
0.6	0.08976	0.00147
0.65	0.08747	0.00146
0.7	0.0834	0.00143
0.75	0.07698	0.00138
0.8	0.06862	0.00132
0.85	0.05723	0.00125
0.9	0.042	0.00115

System: pentan-2-one + tetrahydropyran; phases: Liquid
Fixed: Temperature, K = 298.15
Fixed: Pressure, kPa = 101
Property: Heat capacity at constant pressure per volume, J/K/m3 (Liquid); method: Flow calorimetry
Mole fraction of tetrahydropyran	Heat capacity at constant pressure per volume, J/K/m3	uncertainty
0.0611	1698200	2600
0.1398	1685200	2600
0.2219	1670700	2600
0.3029	1656100	2600
0.3789	1641900	2500
0.457	1627300	2500
0.5376	1611700	2500
0.6153	1596800	2500
0.698	1580600	2400
0.7772	1565100	2400
0.8503	1550300	2400
0.9311	1533300	2400

System: pentan-2-one + tetrahydropyran; phases: Liquid
Fixed: Temperature, K = 298.15
Fixed: Pressure, kPa = 101
Property: Excess molar enthalpy (molar enthalpy of mixing), kJ/mol (Liquid); method: Flow calorimetry
Mole fraction of tetrahydropyran	Excess molar enthalpy (molar enthalpy of mixing), kJ/mol	uncertainty
0.1	0.0266	0.001
0.15	0.03851	0.0011
0.2	0.0497	0.00118
0.25	0.06014	0.00126
0.3	0.06865	0.00132
0.35	0.07603	0.00137
0.4	0.08257	0.00142
0.45	0.08751	0.00146
0.5	0.09128	0.00149
0.55	0.09307	0.0015
0.6	0.09308	0.0015
0.65	0.09158	0.00149
0.7	0.08891	0.00147
0.75	0.08245	0.00143
0.8	0.07267	0.00136
0.85	0.06084	0.00128
0.9	0.04487	0.00117

System: pentan-2-one + tetrahydropyran; phases: Liquid
Fixed: Temperature, K = 298.15
Fixed: Pressure, kPa = 101
Property: Refractive index (Na D-line) (Liquid); method: REFRACT:monoch
Mole fraction of tetrahydropyran	Refractive index (Na D-line)	uncertainty
0.0811	1.39011	0.00021
0.1565	1.39223	0.00021
0.2425	1.39468	0.00021
0.3122	1.39668	0.00021
0.3557	1.39796	0.00021
0.4037	1.39937	0.00021
0.4406	1.40047	0.00021
0.4757	1.40153	0.00021
0.5107	1.40259	0.00021
0.5449	1.40364	0.00021
0.5933	1.40514	0.00021
0.6252	1.40614	0.00021
0.6681	1.4075	0.00021
0.708	1.40878	0.00021
0.7915	1.4115	0.00021
0.8776	1.41439	0.00021
0.9411	1.41658	0.00021

System: pentan-2-one + tetrahydropyran; phases: Liquid
Fixed: Temperature, K = 298.15
Fixed: Pressure, kPa = 101
Property: Mass density, kg/m3 (Liquid); method: Vibrating tube method
Mole fraction of tetrahydropyran	Mass density, kg/m3	uncertainty
0.0708	806.39	0.42
0.1523	812.26	0.43
0.2361	818.39	0.43
0.3015	823.22	0.43
0.3529	827.06	0.43
0.3858	829.54	0.43
0.4384	833.53	0.43
0.4683	835.82	0.44
0.5046	838.6	0.44
0.5548	842.49	0.44
0.5825	844.66	0.44
0.6397	849.17	0.44
0.6747	851.95	0.44
0.7079	854.61	0.44
0.7776	860.26	0.45
0.8646	867.44	0.45
0.9428	874.02	0.45

System: 2-heptanone + tetrahydropyran; phases: Liquid
Fixed: Temperature, K = 298.15
Fixed: Pressure, kPa = 101
Property: Heat capacity at constant pressure per volume, J/K/m3 (Liquid); method: Flow calorimetry
Mole fraction of tetrahydropyran	Heat capacity at constant pressure per volume, J/K/m3	uncertainty
0.0687	1711900	2700
0.1469	1699600	2600
0.2226	1687400	2600
0.3113	1672200	2600
0.3855	1659100	2600
0.4613	1645000	2500
0.5449	1628000	2500
0.6288	1610700	2500
0.7034	1594700	2500
0.7801	1576700	2400
0.8581	1558500	2400
0.9388	1538500	2400

System: 2-heptanone + tetrahydropyran; phases: Liquid
Fixed: Temperature, K = 298.15
Fixed: Pressure, kPa = 101
Property: Excess molar enthalpy (molar enthalpy of mixing), kJ/mol (Liquid); method: Flow calorimetry
Mole fraction of tetrahydropyran	Excess molar enthalpy (molar enthalpy of mixing), kJ/mol	uncertainty
0.1	0.0148	0.0009
0.15	0.02219	0.00097
0.2	0.02913	0.00102
0.25	0.03429	0.00106
0.3	0.03957	0.0011
0.35	0.04454	0.00114
0.4	0.04952	0.00117
0.45	0.05386	0.0012
0.5	0.05773	0.00123
0.55	0.06031	0.00125
0.6	0.0613	0.00126
0.65	0.0611	0.00126
0.7	0.05941	0.00124
0.75	0.05587	0.00122
0.8	0.05035	0.00118
0.85	0.04328	0.00113
0.9	0.03319	0.00106

System: 2-heptanone + tetrahydropyran; phases: Liquid
Fixed: Temperature, K = 298.15
Fixed: Pressure, kPa = 101
Property: Refractive index (Na D-line) (Liquid); method: REFRACT:monoch
Mole fraction of tetrahydropyran	Refractive index (Na D-line)	uncertainty
0.0855	1.4075	0.00039
0.1588	1.4081	0.00037
0.2375	1.40879	0.00036
0.3113	1.40947	0.00034
0.3532	1.40988	0.00033
0.3936	1.41029	0.00033
0.4287	1.41065	0.00032
0.4658	1.41105	0.00031
0.5486	1.41198	0.0003
0.5896	1.41246	0.00029
0.6261	1.41291	0.00028
0.6665	1.41343	0.00027
0.7046	1.41393	0.00026
0.7855	1.41507	0.00025
0.8677	1.41633	0.00023
0.9473	1.41768	0.00022

System: 2-heptanone + tetrahydropyran; phases: Liquid
Fixed: Temperature, K = 298.15
Fixed: Pressure, kPa = 101
Property: Mass density, kg/m3 (Liquid); method: Vibrating tube method
Mole fraction of tetrahydropyran	Mass density, kg/m3	uncertainty
0.0796	814.73	0.81
0.1679	819.18	0.77
0.2235	822.12	0.75
0.3185	827.4	0.72
0.3518	829.33	0.7
0.4045	832.49	0.68
0.4377	834.53	0.67
0.4617	836.04	0.66
0.5166	839.61	0.64
0.5455	841.54	0.63
0.5907	844.65	0.61
0.6312	847.53	0.6
0.6667	850.14	0.58
0.7077	853.23	0.57
0.7101	853.42	0.57
0.7907	859.84	0.54
0.8696	866.59	0.5
0.9539	874.37	0.47
