Measured thermophysical data. Viscosities of Dimethyl Carbonate or Diethyl Carbonate with Alkanes at Four Temperatures. New UNIFAC-VISCO Parameters
Source: J. Chem. Eng. Data, 2003, 10.1021/je020131a
Compound 1: dimethyl carbonate, C3H6O3, InChI=1S/C3H6O3/c1-5-3(4)6-2/h1-2H3
Compound 2: diethyl carbonate, C5H10O3, InChI=1S/C5H10O3/c1-3-7-5(6)8-4-2/h3-4H2,1-2H3
Compound 3: hexane, C6H14, InChI=1S/C6H14/c1-3-5-6-4-2/h3-6H2,1-2H3
Compound 4: heptane, C7H16, InChI=1S/C7H16/c1-3-5-7-6-4-2/h3-7H2,1-2H3
Compound 5: octane, C8H18, InChI=1S/C8H18/c1-3-5-7-8-6-4-2/h3-8H2,1-2H3
Compound 6: cyclohexane, C6H12, InChI=1S/C6H12/c1-2-4-6-5-3-1/h1-6H2

System: dimethyl carbonate; phases: Liquid
Property: Mass density, kg/m3 (Liquid); method: Vibrating tube method
Temperature, K	Pressure, kPa	Mass density, kg/m3	uncertainty
298.15	101.325	1063.5	0.6

System: dimethyl carbonate; phases: Liquid
Fixed: Pressure, kPa = 101.3
Property: Viscosity, Pa*s (Liquid); method: Falling or rolling sphere viscometry
Temperature, K	Viscosity, Pa*s	uncertainty
293.15	0.000626	2.1e-05
298.15	0.000585	2.1e-05
303.15	0.000536	2.1e-05
313.15	0.000494	2e-05

System: diethyl carbonate; phases: Liquid
Property: Mass density, kg/m3 (Liquid); method: Vibrating tube method
Temperature, K	Pressure, kPa	Mass density, kg/m3	uncertainty
298.15	101.325	969.1	0.3

System: diethyl carbonate; phases: Liquid
Fixed: Pressure, kPa = 101.3
Property: Viscosity, Pa*s (Liquid); method: Falling or rolling sphere viscometry
Temperature, K	Viscosity, Pa*s	uncertainty
293.15	0.000795	2.1e-05
298.15	0.000749	2.1e-05
303.15	0.000699	2.1e-05
313.15	0.000623	2.1e-05

System: hexane; phases: Liquid
Property: Mass density, kg/m3 (Liquid); method: Vibrating tube method
Temperature, K	Pressure, kPa	Mass density, kg/m3	uncertainty
298.15	101.325	654.8	0.3

System: hexane; phases: Liquid
Fixed: Pressure, kPa = 101.3
Property: Viscosity, Pa*s (Liquid); method: Falling or rolling sphere viscometry
Temperature, K	Viscosity, Pa*s	uncertainty
293.15	0.000313	2e-05
298.15	0.000301	2e-05
303.15	0.000282	2e-05
313.15	0.000258	2e-05

System: heptane; phases: Liquid
Property: Mass density, kg/m3 (Liquid); method: Vibrating tube method
Temperature, K	Pressure, kPa	Mass density, kg/m3	uncertainty
298.15	101.325	679.4	0.3

System: heptane; phases: Liquid
Fixed: Pressure, kPa = 101.3
Property: Viscosity, Pa*s (Liquid); method: Falling or rolling sphere viscometry
Temperature, K	Viscosity, Pa*s	uncertainty
293.15	0.000411	2e-05
298.15	0.000388	2e-05
303.15	0.00037	2e-05
313.15	0.000334	2e-05
303.15	0.000375	2e-05

System: octane; phases: Liquid
Property: Mass density, kg/m3 (Liquid); method: Vibrating tube method
Temperature, K	Pressure, kPa	Mass density, kg/m3	uncertainty
298.15	101.325	698.5	0.4

System: octane; phases: Liquid
Fixed: Pressure, kPa = 101.3
Property: Viscosity, Pa*s (Liquid); method: Falling or rolling sphere viscometry
Temperature, K	Viscosity, Pa*s	uncertainty
293.15	0.000545	2.1e-05
298.15	0.000513	2.1e-05
303.15	0.000484	2e-05
313.15	0.000434	2e-05

System: cyclohexane; phases: Liquid
Property: Mass density, kg/m3 (Liquid); method: Vibrating tube method
Temperature, K	Pressure, kPa	Mass density, kg/m3	uncertainty
298.15	101.325	773.8	0.3

System: cyclohexane; phases: Liquid
Fixed: Pressure, kPa = 101.3
Property: Viscosity, Pa*s (Liquid); method: Falling or rolling sphere viscometry
Temperature, K	Viscosity, Pa*s	uncertainty
293.15	0.000976	2.1e-05
298.15	0.000894	2.1e-05
303.15	0.000813	2.1e-05
313.15	0.000697	2.1e-05

System: hexane + dimethyl carbonate; phases: Liquid
Fixed: Pressure, kPa = 101.3
Property: Viscosity, Pa*s (Liquid); method: Falling or rolling sphere viscometry
Temperature, K	Mole fraction of dimethyl carbonate	Viscosity, Pa*s	uncertainty
293.15	0	0.000313	2e-05
293.15	0.0722	0.000312	2e-05
293.15	0.1448	0.000315	2e-05
293.15	0.2286	0.000325	2e-05
293.15	0.3026	0.000338	2e-05
293.15	0.4102	0.000359	2e-05
293.15	0.5062	0.000384	2e-05
293.15	0.6026	0.000412	2e-05
293.15	0.7052	0.000451	2e-05
293.15	0.7974	0.000494	2e-05
293.15	0.901	0.000552	2.1e-05
293.15	0.9506	0.000585	2.1e-05
293.15	1	0.000626	2.1e-05
298.15	0	0.000301	2e-05
298.15	0.082	0.000306	2e-05
298.15	0.1269	0.000311	2e-05
298.15	0.2131	0.000322	2e-05
298.15	0.3197	0.000336	2e-05
298.15	0.3787	0.000345	2e-05
298.15	0.4712	0.000362	2e-05
298.15	0.5121	0.00037	2e-05
298.15	0.6067	0.000392	2e-05
298.15	0.6987	0.000423	2e-05
298.15	0.842	0.000487	2e-05
298.15	0.9248	0.00053	2.1e-05
298.15	0.9615	0.000555	2.1e-05
298.15	1	0.000585	2.1e-05
303.15	0	0.000282	2e-05
303.15	0.0468	0.000287	2e-05
303.15	0.0991	0.000293	2e-05
303.15	0.1951	0.000305	2e-05
303.15	0.295	0.000314	2e-05
303.15	0.3832	0.000327	2e-05
303.15	0.4865	0.000342	2e-05
303.15	0.5899	0.000363	2e-05
303.15	0.696	0.000394	2e-05
303.15	0.7947	0.000433	2e-05
303.15	0.8939	0.000478	2e-05
303.15	0.9436	0.000507	2e-05
303.15	1	0.000536	2.1e-05
313.15	0	0.000258	2e-05
313.15	0.0495	0.000267	2e-05
313.15	0.1	0.000274	2e-05
313.15	0.2092	0.000286	2e-05
313.15	0.3093	0.000296	2e-05
313.15	0.4043	0.000306	2e-05
313.15	0.4941	0.000321	2e-05
313.15	0.6052	0.000347	2e-05
313.15	0.7063	0.000379	2e-05
313.15	0.8046	0.000416	2e-05
313.15	0.9014	0.000458	2e-05
313.15	0.9497	0.000477	2e-05
313.15	1	0.000494	2e-05

System: heptane + dimethyl carbonate; phases: Liquid
Fixed: Pressure, kPa = 101.3
Property: Viscosity, Pa*s (Liquid); method: Falling or rolling sphere viscometry
Temperature, K	Mole fraction of dimethyl carbonate	Viscosity, Pa*s	uncertainty
293.15	0	0.000411	2e-05
293.15	0.05	0.000407	2e-05
293.15	0.094	0.000405	2e-05
293.15	0.2039	0.000407	2e-05
293.15	0.324	0.000413	2e-05
293.15	0.4062	0.000422	2e-05
293.15	0.5059	0.000441	2e-05
293.15	0.6099	0.000462	2e-05
293.15	0.6987	0.000488	2e-05
293.15	0.8086	0.000527	2.1e-05
293.15	0.9029	0.000567	2.1e-05
293.15	0.9504	0.000594	2.1e-05
293.15	1	0.000626	2.1e-05
298.15	0	0.000388	2e-05
298.15	0.0594	0.000383	2e-05
298.15	0.1204	0.000384	2e-05
298.15	0.2132	0.000385	2e-05
298.15	0.3135	0.000388	2e-05
298.15	0.4018	0.000397	2e-05
298.15	0.4716	0.000406	2e-05
298.15	0.6051	0.00043	2e-05
298.15	0.6946	0.000452	2e-05
298.15	0.8031	0.000489	2e-05
298.15	0.902	0.000528	2.1e-05
298.15	0.9477	0.000554	2.1e-05
298.15	1	0.000585	2.1e-05
303.15	0	0.00037	2e-05
303.15	0.0586	0.00037	2e-05
303.15	0.0873	0.000367	2e-05
303.15	0.1996	0.000368	2e-05
303.15	0.299	0.000375	2e-05
303.15	0.4009	0.000388	2e-05
303.15	0.5081	0.000403	2e-05
303.15	0.6069	0.000426	2e-05
303.15	0.6979	0.000454	2e-05
303.15	0.8051	0.000495	2e-05
303.15	0.9069	0.000518	2.1e-05
303.15	0.9638	0.000518	2.1e-05
303.15	1	0.000536	2.1e-05
313.15	0	0.000334	2e-05
313.15	0.0649	0.00033	2e-05
313.15	0.1157	0.000328	2e-05
313.15	0.3432	0.000334	2e-05
313.15	0.4378	0.000341	2e-05
313.15	0.5458	0.000355	2e-05
313.15	0.6259	0.00037	2e-05
313.15	0.7191	0.000393	2e-05
313.15	0.8128	0.000416	2e-05
313.15	0.8798	0.000443	2e-05
313.15	0.9536	0.000475	2e-05
313.15	0.9822	0.000485	2e-05
313.15	1	0.000494	2e-05

System: octane + dimethyl carbonate; phases: Liquid
Fixed: Pressure, kPa = 101.3
Property: Viscosity, Pa*s (Liquid); method: Falling or rolling sphere viscometry
Temperature, K	Mole fraction of dimethyl carbonate	Viscosity, Pa*s	uncertainty
293.15	0	0.000545	2.1e-05
293.15	0.0513	0.000532	2.1e-05
293.15	0.0997	0.000524	2.1e-05
293.15	0.2027	0.000508	2e-05
293.15	0.3063	0.000506	2e-05
293.15	0.3994	0.000502	2e-05
293.15	0.5123	0.000507	2e-05
293.15	0.6078	0.000512	2.1e-05
293.15	0.7137	0.000524	2.1e-05
293.15	0.8055	0.000541	2.1e-05
293.15	0.9061	0.000575	2.1e-05
293.15	0.9516	0.000596	2.1e-05
293.15	1	0.000626	2.1e-05
298.15	0	0.000513	2.1e-05
298.15	0.0558	0.000504	2e-05
298.15	0.096	0.000498	2e-05
298.15	0.1488	0.000489	2e-05
298.15	0.2289	0.000478	2e-05
298.15	0.2947	0.000477	2e-05
298.15	0.4216	0.000474	2e-05
298.15	0.4883	0.000475	2e-05
298.15	0.5931	0.000479	2e-05
298.15	0.6867	0.000491	2e-05
298.15	0.7879	0.000509	2.1e-05
298.15	0.8873	0.000541	2.1e-05
298.15	0.9502	0.000561	2.1e-05
298.15	1	0.000585	2.1e-05
303.15	0	0.000484	2e-05
303.15	0.0519	0.000478	2e-05
303.15	0.0827	0.000474	2e-05
303.15	0.1947	0.000457	2e-05
303.15	0.2829	0.000452	2e-05
303.15	0.3948	0.00045	2e-05
303.15	0.4942	0.000448	2e-05
303.15	0.5964	0.00045	2e-05
303.15	0.6983	0.00046	2e-05
303.15	0.7886	0.000473	2e-05
303.15	0.8946	0.0005	2e-05
303.15	0.9545	0.00052	2.1e-05
303.15	1	0.000536	2.1e-05
313.15	0	0.000434	2e-05
313.15	0.0512	0.000432	2e-05
313.15	0.1005	0.00043	2e-05
313.15	0.186	0.000419	2e-05
313.15	0.301	0.000413	2e-05
313.15	0.4072	0.000409	2e-05
313.15	0.5002	0.00041	2e-05
313.15	0.6042	0.000417	2e-05
313.15	0.709	0.00043	2e-05
313.15	0.7993	0.000446	2e-05
313.15	0.8465	0.000459	2e-05
313.15	0.9524	0.000485	2e-05
313.15	1	0.000494	2e-05

System: diethyl carbonate + hexane; phases: Liquid
Fixed: Pressure, kPa = 101.3
Property: Viscosity, Pa*s (Liquid); method: Falling or rolling sphere viscometry
Temperature, K	Mole fraction of diethyl carbonate	Viscosity, Pa*s	uncertainty
293.15	0	0.000313	2e-05
293.15	0.0576	0.000318	2e-05
293.15	0.1106	0.000326	2e-05
293.15	0.2219	0.000353	2e-05
293.15	0.3358	0.000388	2e-05
293.15	0.4303	0.000422	2e-05
293.15	0.5384	0.000471	2e-05
293.15	0.6357	0.000524	2e-05
293.15	0.7334	0.000588	2.1e-05
293.15	0.8246	0.000652	2.1e-05
293.15	0.9171	0.000721	2.1e-05
293.15	0.9589	0.000757	2.1e-05
293.15	1	0.000795	2.1e-05
298.15	0	0.000301	2e-05
298.15	0.0586	0.000318	2e-05
298.15	0.1024	0.000323	2e-05
298.15	0.2106	0.000347	2e-05
298.15	0.305	0.00037	2e-05
298.15	0.3592	0.000389	2e-05
298.15	0.4259	0.000412	2e-05
298.15	0.5719	0.000475	2e-05
298.15	0.7051	0.000546	2e-05
298.15	0.7965	0.000605	2.1e-05
298.15	0.8894	0.00067	2.1e-05
298.15	0.9095	0.000688	2.1e-05
298.15	0.9794	0.000737	2.1e-05
298.15	1	0.000749	2.1e-05
303.15	0	0.000282	2e-05
303.15	0.0583	0.000292	2e-05
303.15	0.0941	0.000299	2e-05
303.15	0.1925	0.000324	2e-05
303.15	0.2897	0.000347	2e-05
303.15	0.3927	0.000378	2e-05
303.15	0.5087	0.00042	2e-05
303.15	0.6072	0.000463	2e-05
303.15	0.7059	0.000512	2e-05
303.15	0.8002	0.000568	2e-05
303.15	0.8947	0.000628	2.1e-05
303.15	0.9532	0.000672	2.1e-05
303.15	1	0.000699	2.1e-05
313.15	0	0.000258	2e-05
313.15	0.0502	0.000264	2e-05
313.15	0.1001	0.000278	2e-05
313.15	0.2001	0.000295	2e-05
313.15	0.3008	0.000318	2e-05
313.15	0.4021	0.000344	2e-05
313.15	0.4972	0.000371	2e-05
313.15	0.5992	0.00041	2e-05
313.15	0.7005	0.000454	2e-05
313.15	0.8096	0.000509	2e-05
313.15	0.898	0.000558	2e-05
313.15	0.9671	0.000599	2.1e-05
313.15	1	0.000623	2.1e-05

System: diethyl carbonate + heptane; phases: Liquid
Fixed: Pressure, kPa = 101.3
Property: Viscosity, Pa*s (Liquid); method: Falling or rolling sphere viscometry
Temperature, K	Mole fraction of diethyl carbonate	Viscosity, Pa*s	uncertainty
293.15	0	0.000411	2e-05
293.15	0.049	0.00041	2e-05
293.15	0.0983	0.000413	2e-05
293.15	0.1973	0.000427	2e-05
293.15	0.297	0.000449	2e-05
293.15	0.3989	0.000477	2e-05
293.15	0.4952	0.000508	2e-05
293.15	0.601	0.000549	2e-05
293.15	0.7014	0.000594	2.1e-05
293.15	0.8012	0.000647	2.1e-05
293.15	0.8985	0.000707	2.1e-05
293.15	0.9482	0.000744	2.1e-05
293.15	1	0.000795	2.1e-05
298.15	0	0.000388	2e-05
298.15	0.0509	0.00039	2e-05
298.15	0.0977	0.000394	2e-05
298.15	0.1973	0.00041	2e-05
298.15	0.3052	0.00043	2e-05
298.15	0.3949	0.000453	2e-05
298.15	0.5028	0.000486	2e-05
298.15	0.5924	0.000516	2e-05
298.15	0.7096	0.000565	2e-05
298.15	0.8054	0.000612	2.1e-05
298.15	0.9028	0.000673	2.1e-05
298.15	0.9495	0.000709	2.1e-05
298.15	1	0.000749	2.1e-05
303.15	0	0.000375	2e-05
303.15	0.0506	0.000386	2e-05
303.15	0.1001	0.000389	2e-05
303.15	0.1991	0.000399	2e-05
303.15	0.301	0.000416	2e-05
303.15	0.4058	0.000438	2e-05
303.15	0.5006	0.000464	2e-05
303.15	0.6133	0.000501	2e-05
303.15	0.7037	0.000539	2e-05
303.15	0.8029	0.000584	2e-05
303.15	0.8988	0.000637	2.1e-05
303.15	0.946	0.000667	2.1e-05
303.15	1	0.000699	2.1e-05
313.15	0	0.000334	2e-05
313.15	0.0493	0.000337	2e-05
313.15	0.0986	0.000344	2e-05
313.15	0.1975	0.000362	2e-05
313.15	0.2962	0.000381	2e-05
313.15	0.3992	0.000403	2e-05
313.15	0.4943	0.000426	2e-05
313.15	0.5992	0.000456	2e-05
313.15	0.699	0.00049	2e-05
313.15	0.8009	0.000528	2e-05
313.15	0.8984	0.000573	2e-05
313.15	0.9508	0.000599	2.1e-05
313.15	1	0.000623	2.1e-05

System: diethyl carbonate + octane; phases: Liquid
Fixed: Pressure, kPa = 101.3
Property: Viscosity, Pa*s (Liquid); method: Falling or rolling sphere viscometry
Temperature, K	Mole fraction of diethyl carbonate	Viscosity, Pa*s	uncertainty
293.15	0	0.000545	2.1e-05
293.15	0.0504	0.000535	2.1e-05
293.15	0.099	0.000528	2.1e-05
293.15	0.1947	0.000529	2.1e-05
293.15	0.2939	0.000535	2.1e-05
293.15	0.3911	0.00055	2.1e-05
293.15	0.4965	0.000574	2.1e-05
293.15	0.6012	0.000604	2.1e-05
293.15	0.6971	0.000641	2.1e-05
293.15	0.7996	0.000684	2.1e-05
293.15	0.8871	0.000727	2.1e-05
293.15	0.9502	0.000763	2.1e-05
293.15	1	0.000795	2.1e-05
298.15	0	0.000513	2.1e-05
298.15	0.0568	0.000514	2.1e-05
298.15	0.1069	0.00051	2e-05
298.15	0.1985	0.000511	2e-05
298.15	0.2979	0.000515	2e-05
298.15	0.3968	0.000528	2e-05
298.15	0.5035	0.000551	2.1e-05
298.15	0.605	0.000578	2.1e-05
298.15	0.7054	0.000614	2.1e-05
298.15	0.8042	0.000653	2.1e-05
298.15	0.9035	0.000698	2.1e-05
298.15	0.9549	0.000728	2.1e-05
298.15	1	0.000749	2.1e-05
303.15	0	0.000484	2e-05
303.15	0.0504	0.000485	2e-05
303.15	0.1002	0.000485	2e-05
303.15	0.2035	0.000486	2e-05
303.15	0.2953	0.000494	2e-05
303.15	0.3942	0.000507	2e-05
303.15	0.5035	0.000525	2e-05
303.15	0.6019	0.00055	2e-05
303.15	0.7055	0.00058	2.1e-05
303.15	0.8011	0.000613	2.1e-05
303.15	0.8999	0.000654	2.1e-05
303.15	0.9498	0.000677	2.1e-05
303.15	1	0.000699	2.1e-05
313.15	0	0.000434	2e-05
313.15	0.0495	0.000436	2e-05
313.15	0.0984	0.00044	2e-05
313.15	0.1957	0.000448	2e-05
313.15	0.2957	0.000459	2e-05
313.15	0.3958	0.000472	2e-05
313.15	0.4982	0.000488	2e-05
313.15	0.6036	0.000508	2e-05
313.15	0.6992	0.000529	2e-05
313.15	0.7994	0.000554	2e-05
313.15	0.8992	0.000586	2.1e-05
313.15	0.9502	0.000608	2.1e-05
313.15	1	0.000623	2.1e-05

System: diethyl carbonate + cyclohexane; phases: Liquid
Fixed: Pressure, kPa = 101.3
Property: Viscosity, Pa*s (Liquid); method: Falling or rolling sphere viscometry
Temperature, K	Mole fraction of diethyl carbonate	Viscosity, Pa*s	uncertainty
293.15	0	0.000976	2.1e-05
293.15	0.0501	0.000906	2.1e-05
293.15	0.0992	0.00085	2.1e-05
293.15	0.1969	0.00078	2.1e-05
293.15	0.2923	0.000741	2.1e-05
293.15	0.4023	0.00072	2.1e-05
293.15	0.502	0.000712	2.1e-05
293.15	0.5984	0.000718	2.1e-05
293.15	0.6977	0.000728	2.1e-05
293.15	0.808	0.000742	2.1e-05
293.15	0.9037	0.000761	2.1e-05
293.15	0.9511	0.000776	2.1e-05
293.15	1	0.000795	2.1e-05
298.15	0	0.000894	2.1e-05
298.15	0.0531	0.000832	2.1e-05
298.15	0.094	0.000792	2.1e-05
298.15	0.1931	0.000725	2.1e-05
298.15	0.2865	0.000691	2.1e-05
298.15	0.3821	0.000676	2.1e-05
298.15	0.4802	0.000674	2.1e-05
298.15	0.6454	0.000685	2.1e-05
298.15	0.6801	0.000689	2.1e-05
298.15	0.7828	0.000701	2.1e-05
298.15	0.8852	0.000719	2.1e-05
298.15	0.9177	0.000726	2.1e-05
298.15	1	0.000749	2.1e-05
303.15	0	0.000813	2.1e-05
303.15	0.0497	0.00076	2.1e-05
303.15	0.1018	0.000717	2.1e-05
303.15	0.1958	0.000665	2.1e-05
303.15	0.293	0.000637	2.1e-05
303.15	0.3922	0.000628	2.1e-05
303.15	0.4767	0.000626	2.1e-05
303.15	0.5943	0.000635	2.1e-05
303.15	0.6778	0.000643	2.1e-05
303.15	0.7897	0.000657	2.1e-05
303.15	0.8649	0.000671	2.1e-05
303.15	0.94	0.000684	2.1e-05
303.15	1	0.000699	2.1e-05
313.15	0	0.000697	2.1e-05
313.15	0.0511	0.000659	2.1e-05
313.15	0.0983	0.000632	2.1e-05
313.15	0.2003	0.000594	2.1e-05
313.15	0.3002	0.000572	2e-05
313.15	0.3963	0.00056	2e-05
313.15	0.4953	0.000563	2e-05
313.15	0.5914	0.000568	2e-05
313.15	0.7001	0.000576	2e-05
313.15	0.8098	0.000589	2.1e-05
313.15	0.9014	0.000603	2.1e-05
313.15	0.9494	0.000613	2.1e-05
313.15	1	0.000623	2.1e-05

System: cyclohexane + dimethyl carbonate; phases: Liquid
Fixed: Pressure, kPa = 101.3
Property: Viscosity, Pa*s (Liquid); method: Falling or rolling sphere viscometry
Temperature, K	Mole fraction of dimethyl carbonate	Viscosity, Pa*s	uncertainty
293.15	0	0.000976	2.1e-05
293.15	0.0495	0.000886	2.1e-05
293.15	0.0987	0.000814	2.1e-05
293.15	0.2078	0.000709	2.1e-05
293.15	0.2961	0.00066	2.1e-05
293.15	0.3974	0.000626	2.1e-05
293.15	0.5014	0.000608	2.1e-05
293.15	0.6002	0.0006	2.1e-05
293.15	0.7028	0.000593	2.1e-05
293.15	0.7994	0.00059	2.1e-05
293.15	0.9017	0.000597	2.1e-05
293.15	0.9513	0.000609	2.1e-05
293.15	1	0.000626	2.1e-05
298.15	0	0.000894	2.1e-05
298.15	0.0378	0.000833	2.1e-05
298.15	0.0808	0.000776	2.1e-05
298.15	0.1764	0.000681	2.1e-05
298.15	0.2896	0.000619	2.1e-05
298.15	0.388	0.000587	2.1e-05
298.15	0.4938	0.000567	2.1e-05
298.15	0.5908	0.000557	2.1e-05
298.15	0.6864	0.000553	2.1e-05
298.15	0.7918	0.000555	2.1e-05
298.15	0.8976	0.000561	2.1e-05
298.15	0.9503	0.000572	2.1e-05
298.15	1	0.000585	2.1e-05
303.15	0	0.000813	2.1e-05
303.15	0.0391	0.000758	2.1e-05
303.15	0.0931	0.000703	2.1e-05
303.15	0.1875	0.000632	2.1e-05
303.15	0.2908	0.000581	2.1e-05
303.15	0.3897	0.000545	2e-05
303.15	0.4962	0.000522	2e-05
303.15	0.5958	0.000508	2e-05
303.15	0.6909	0.000504	2e-05
303.15	0.7975	0.000507	2e-05
303.15	0.8912	0.000522	2.1e-05
303.15	0.9441	0.000528	2.1e-05
303.15	1	0.000536	2.1e-05
313.15	0	0.000697	2.1e-05
313.15	0.101	0.000605	2.1e-05
313.15	0.1482	0.000574	2e-05
313.15	0.2563	0.000524	2e-05
313.15	0.3646	0.000495	2e-05
313.15	0.4661	0.000477	2e-05
313.15	0.572	0.000468	2e-05
313.15	0.6633	0.000465	2e-05
313.15	0.7699	0.00047	2e-05
313.15	0.8688	0.000479	2e-05
313.15	0.9757	0.000491	2e-05
313.15	0.9935	0.000493	2e-05
313.15	1	0.000494	2e-05
