Measured thermophysical data. Isobaric Phase Equilibria of Diethyl Carbonate with Five Alcohols at 101.3 kPa
Source: J. Chem. Eng. Data, 2003, 10.1021/je0201018
Compound 1: methanol, CH4O, InChI=1S/CH4O/c1-2/h2H,1H3, purity 99.8%
Compound 2: ethanol, C2H6O, InChI=1S/C2H6O/c1-2-3/h3H,2H2,1H3, purity 99.9%
Compound 3: propan-1-ol, C3H8O, InChI=1S/C3H8O/c1-2-3-4/h4H,2-3H2,1H3, purity 99.8%
Compound 4: butan-1-ol, C4H10O, InChI=1S/C4H10O/c1-2-3-4-5/h5H,2-4H2,1H3, purity 99.8%
Compound 5: pentan-1-ol, C5H12O, InChI=1S/C5H12O/c1-2-3-4-5-6/h6H,2-5H2,1H3, purity 99%
Compound 6: diethyl carbonate, C5H10O3, InChI=1S/C5H10O3/c1-3-7-5(6)8-4-2/h3-4H2,1-2H3, purity 99.5%

System: methanol; phases: Liquid, Gas
Property: Normal boiling temperature, K (Liquid); method: Distillation
Normal boiling temperature, K	uncertainty
337.83	0.08

System: methanol; phases: Liquid
Property: Refractive index (Na D-line) (Liquid); method: Standard Abbe refractometry
Temperature, K	Pressure, kPa	Refractive index (Na D-line)	uncertainty
298.15	101.325	1.32645	0.00072

System: methanol; phases: Liquid
Property: Mass density, kg/m3 (Liquid); method: Vibrating tube method
Temperature, K	Pressure, kPa	Mass density, kg/m3	uncertainty
298.15	101.325	786.6	0.2

System: ethanol; phases: Liquid, Gas
Property: Normal boiling temperature, K (Liquid); method: Distillation
Normal boiling temperature, K	uncertainty
351.49	0.08

System: ethanol; phases: Liquid
Property: Refractive index (Na D-line) (Liquid); method: Standard Abbe refractometry
Temperature, K	Pressure, kPa	Refractive index (Na D-line)	uncertainty
298.15	101.325	1.35922	0.00072

System: ethanol; phases: Liquid
Property: Mass density, kg/m3 (Liquid); method: Vibrating tube method
Temperature, K	Pressure, kPa	Mass density, kg/m3	uncertainty
298.15	101.325	785	0.2

System: propan-1-ol; phases: Liquid, Gas
Property: Normal boiling temperature, K (Liquid); method: Distillation
Normal boiling temperature, K	uncertainty
370.3	0.08

System: propan-1-ol; phases: Liquid
Property: Refractive index (Na D-line) (Liquid); method: Standard Abbe refractometry
Temperature, K	Pressure, kPa	Refractive index (Na D-line)	uncertainty
298.15	101.325	1.38307	0.00072

System: propan-1-ol; phases: Liquid
Property: Mass density, kg/m3 (Liquid); method: Vibrating tube method
Temperature, K	Pressure, kPa	Mass density, kg/m3	uncertainty
298.15	101.325	799.5	0.2

System: butan-1-ol; phases: Liquid, Gas
Property: Normal boiling temperature, K (Liquid); method: Distillation
Normal boiling temperature, K	uncertainty
390.91	0.08

System: butan-1-ol; phases: Liquid
Property: Refractive index (Na D-line) (Liquid); method: Standard Abbe refractometry
Temperature, K	Pressure, kPa	Refractive index (Na D-line)	uncertainty
298.15	101.325	1.39702	0.00072

System: butan-1-ol; phases: Liquid
Property: Mass density, kg/m3 (Liquid); method: Vibrating tube method
Temperature, K	Pressure, kPa	Mass density, kg/m3	uncertainty
298.15	101.325	805.9	0.2

System: pentan-1-ol; phases: Liquid, Gas
Property: Normal boiling temperature, K (Liquid); method: Distillation
Normal boiling temperature, K	uncertainty
411.11	0.08

System: pentan-1-ol; phases: Liquid
Property: Refractive index (Na D-line) (Liquid); method: Standard Abbe refractometry
Temperature, K	Pressure, kPa	Refractive index (Na D-line)	uncertainty
298.15	101.325	1.3824	0.00075

System: pentan-1-ol; phases: Liquid
Property: Mass density, kg/m3 (Liquid); method: Vibrating tube method
Temperature, K	Pressure, kPa	Mass density, kg/m3	uncertainty
298.15	101.325	810.9	0.3

System: diethyl carbonate; phases: Liquid, Gas
Property: Normal boiling temperature, K (Liquid); method: Distillation
Normal boiling temperature, K	uncertainty
399.32	0.08

System: diethyl carbonate; phases: Liquid
Property: Refractive index (Na D-line) (Liquid); method: Standard Abbe refractometry
Temperature, K	Pressure, kPa	Refractive index (Na D-line)	uncertainty
298.15	101.325	1.3824	0.00073

System: diethyl carbonate; phases: Liquid
Property: Mass density, kg/m3 (Liquid); method: Vibrating tube method
Temperature, K	Pressure, kPa	Mass density, kg/m3	uncertainty
298.15	101.325	969.1	0.2

System: methanol + diethyl carbonate; phases: Liquid, Gas
Fixed: Pressure, kPa = 101.3
Property: Boiling temperature at pressure P, K (Liquid); method: Ebulliometric method (Recirculating still)
Mole fraction of methanol	Boiling temperature at pressure P, K	uncertainty
0.0169	392.43	0.73
0.0339	386.24	0.71
0.0463	382.17	0.62
0.0613	377.77	0.55
0.0792	373.28	0.46
0.1004	368.84	0.4
0.1166	365.99	0.32
0.1399	362.68	0.27
0.1692	359.23	0.22
0.1971	356.86	0.18
0.2237	355.05	0.15
0.2585	352.99	0.14
0.2908	351.59	0.12
0.3118	350.97	0.1
0.3376	350.27	0.11
0.3603	349.42	0.11
0.3926	348.57	0.1
0.4297	347.78	0.1
0.4556	347.3	0.1
0.483	346.59	0.1
0.5164	346	0.1
0.5606	344.9	0.1
0.597	344.24	0.09
0.6349	343.56	0.09
0.6681	342.98	0.09
0.7222	341.97	0.09
0.7741	340.96	0.09
0.8082	340.28	0.09
0.8492	339.7	0.09
0.879	339.3	0.09
0.9048	339.07	0.09
0.9181	338.87	0.09
0.9387	338.58	0.09
0.9624	338.17	0.09
0.9837	337.98	0.09

System: methanol + diethyl carbonate; phases: Gas, Liquid
Fixed: Pressure, kPa = 101.3
Property: Mole fraction of methanol (Gas); method: Density calibration data
Mole fraction of methanol	Mole fraction of methanol	uncertainty
0.0169	0.1955	0.0174
0.0339	0.3425	0.0157
0.0463	0.4232	0.0119
0.0613	0.5029	0.0094
0.0792	0.573	0.0074
0.1004	0.6399	0.0062
0.1166	0.6798	0.0046
0.1399	0.7203	0.0037
0.1692	0.7597	0.0031
0.1971	0.7841	0.0026
0.2237	0.8018	0.0024
0.2585	0.8222	0.0023
0.2908	0.8363	0.0022
0.3118	0.8424	0.0021
0.3376	0.8505	0.0022
0.3603	0.8587	0.0021
0.3926	0.8668	0.0021
0.4297	0.8747	0.0021
0.4556	0.8793	0.0021
0.483	0.8868	0.0021
0.5164	0.8926	0.0021
0.5606	0.9036	0.0021
0.597	0.9103	0.002
0.6349	0.9168	0.002
0.6681	0.9227	0.002
0.7222	0.9335	0.002
0.7741	0.9436	0.002
0.8082	0.9513	0.0021
0.8492	0.9608	0.0021
0.879	0.9666	0.002
0.9048	0.9712	0.002
0.9181	0.9753	0.0021
0.9387	0.9798	0.0021
0.9624	0.987	0.0021
0.9837	0.994	0.0021

System: ethanol + diethyl carbonate; phases: Liquid, Gas
Fixed: Pressure, kPa = 101.3
Property: Boiling temperature at pressure P, K (Liquid); method: Ebulliometric method (Recirculating still)
Mole fraction of ethanol	Boiling temperature at pressure P, K	uncertainty
0.0157	396.02	0.46
0.0315	392.45	0.45
0.0464	389.31	0.4
0.0671	385.53	0.36
0.0851	382.53	0.32
0.1061	379.44	0.28
0.1341	375.88	0.25
0.1615	372.96	0.21
0.1951	370	0.18
0.2195	368.25	0.16
0.2472	366.5	0.14
0.2725	365.2	0.13
0.307	363.65	0.12
0.3425	362.36	0.11
0.3796	361.24	0.1
0.4168	360.27	0.1
0.4524	359.45	0.1
0.4836	358.73	0.1
0.5018	358.45	0.09
0.5395	357.67	0.09
0.5633	357.25	0.09
0.6074	356.47	0.09
0.6464	355.82	0.09
0.6905	355.12	0.09
0.7282	354.57	0.09
0.7895	353.78	0.09
0.8222	353.46	0.09
0.8528	353.15	0.09
0.8828	352.84	0.09
0.9112	352.5	0.09
0.9331	352.32	0.09
0.9541	352.1	0.09
0.9649	351.91	0.09
0.9861	351.73	0.09

System: ethanol + diethyl carbonate; phases: Gas, Liquid
Fixed: Pressure, kPa = 101.3
Property: Mole fraction of ethanol (Gas); method: Density calibration data
Mole fraction of ethanol	Mole fraction of ethanol	uncertainty
0.0157	0.1093	0.0119
0.0315	0.2018	0.011
0.0464	0.2756	0.0094
0.0671	0.3658	0.0085
0.0851	0.4344	0.007
0.1061	0.4949	0.0057
0.1341	0.5635	0.0049
0.1615	0.6169	0.004
0.1951	0.6659	0.0034
0.2195	0.6924	0.003
0.2472	0.7219	0.0028
0.2725	0.7409	0.0026
0.307	0.7658	0.0024
0.3425	0.7855	0.0023
0.3796	0.8026	0.0022
0.4168	0.8175	0.0022
0.4524	0.8303	0.0022
0.4836	0.8414	0.0021
0.5018	0.8462	0.0021
0.5395	0.8587	0.0021
0.5633	0.8658	0.0021
0.6074	0.8787	0.0021
0.6464	0.8901	0.0021
0.6905	0.9018	0.0021
0.7282	0.9123	0.0021
0.7895	0.9267	0.0021
0.8222	0.935	0.0021
0.8528	0.9425	0.0021
0.8828	0.9484	0.0021
0.9112	0.9576	0.0021
0.9331	0.966	0.0022
0.9541	0.9745	0.0022
0.9649	0.98	0.0023
0.9861	0.9918	0.0023

System: propan-1-ol + diethyl carbonate; phases: Liquid, Gas
Fixed: Pressure, kPa = 101.3
Property: Boiling temperature at pressure P, K (Liquid); method: Ebulliometric method (Recirculating still)
Mole fraction of propan-1-ol	Boiling temperature at pressure P, K	uncertainty
0.02	397.64	0.23
0.0352	395.99	0.22
0.0532	394.22	0.21
0.0679	392.87	0.2
0.094	390.65	0.18
0.1304	387.95	0.16
0.1764	384.92	0.15
0.2218	382.59	0.13
0.2718	380.55	0.11
0.3101	379.29	0.11
0.3366	378.54	0.1
0.369	377.7	0.1
0.4195	376.69	0.1
0.4525	376.06	0.09
0.4871	375.39	0.09
0.5355	374.74	0.09
0.5731	374.22	0.09
0.6089	373.68	0.09
0.6447	373.3	0.09
0.6867	372.8	0.09
0.7361	372.18	0.09
0.7764	371.76	0.09
0.8234	371.38	0.09
0.8641	371.07	0.09
0.9065	370.66	0.09
0.9458	370.45	0.09
0.9729	370.37	0.09
0.9887	370.35	0.09

System: propan-1-ol + diethyl carbonate; phases: Gas, Liquid
Fixed: Pressure, kPa = 101.3
Property: Mole fraction of propan-1-ol (Gas); method: Density calibration data
Mole fraction of propan-1-ol	Mole fraction of propan-1-ol	uncertainty
0.02	0.0719	0.0068
0.0352	0.1216	0.0066
0.0532	0.1762	0.0063
0.0679	0.2184	0.0056
0.094	0.2832	0.005
0.1304	0.3628	0.0044
0.1764	0.4427	0.0038
0.2218	0.5057	0.0034
0.2718	0.5599	0.0031
0.3101	0.5943	0.0028
0.3366	0.6148	0.0027
0.369	0.6393	0.0026
0.4195	0.6701	0.0025
0.4525	0.6893	0.0025
0.4871	0.7113	0.0024
0.5355	0.7335	0.0023
0.5731	0.752	0.0024
0.6089	0.7723	0.0023
0.6447	0.7874	0.0023
0.6867	0.8085	0.0023
0.7361	0.8373	0.0023
0.7764	0.8563	0.0023
0.8234	0.8811	0.0023
0.8641	0.9048	0.0023
0.9065	0.93	0.0023
0.9458	0.9537	0.0024
0.9729	0.9749	0.0026
0.9887	0.9894	0.0027

System: butan-1-ol + diethyl carbonate; phases: Liquid, Gas
Fixed: Pressure, kPa = 101.3
Property: Boiling temperature at pressure P, K (Liquid); method: Ebulliometric method (Recirculating still)
Mole fraction of butan-1-ol	Boiling temperature at pressure P, K	uncertainty
0.0135	398.97	0.11
0.0409	398.17	0.11
0.0682	397.2	0.1
0.091	396.45	0.11
0.1277	395.45	0.1
0.1498	394.86	0.1
0.1844	394.14	0.1
0.2033	393.73	0.09
0.2537	392.88	0.09
0.3038	392.15	0.09
0.3502	391.59	0.09
0.3807	391.3	0.09
0.425	390.87	0.09
0.4519	390.59	0.09
0.4835	390.35	0.09
0.5065	390.24	0.09
0.5422	390.03	0.09
0.5767	389.88	0.09
0.6047	389.73	0.09
0.6411	389.6	0.09
0.6837	389.52	0.09
0.7136	389.48	0.09
0.7542	389.47	0.09
0.793	389.52	0.09
0.8316	389.67	0.09
0.8784	389.85	0.09
0.9043	390.05	0.09
0.9314	390.22	0.09
0.9632	390.5	0.09
0.9901	390.77	0.09

System: butan-1-ol + diethyl carbonate; phases: Gas, Liquid
Fixed: Pressure, kPa = 101.3
Property: Mole fraction of butan-1-ol (Gas); method: Density calibration data
Mole fraction of butan-1-ol	Mole fraction of butan-1-ol	uncertainty
0.0135	0.0239	0.004
0.0409	0.0715	0.0039
0.0682	0.117	0.0038
0.091	0.1535	0.0036
0.1277	0.2056	0.0035
0.1498	0.2357	0.0033
0.1844	0.2809	0.0033
0.2033	0.3028	0.0031
0.2537	0.3589	0.003
0.3038	0.4114	0.003
0.3502	0.4547	0.0029
0.3807	0.4827	0.0029
0.425	0.5184	0.0029
0.4519	0.5407	0.0028
0.4835	0.5657	0.0027
0.5065	0.5797	0.0026
0.5422	0.6035	0.0027
0.5767	0.6294	0.0027
0.6047	0.648	0.0026
0.6411	0.6717	0.0025
0.6837	0.6967	0.0026
0.7136	0.7212	0.0026
0.7542	0.7465	0.0025
0.793	0.7762	0.0026
0.8316	0.8081	0.0027
0.8784	0.8521	0.0028
0.9043	0.8784	0.0029
0.9314	0.9079	0.0031
0.9632	0.9466	0.0033
0.9901	0.9846	0.0035

System: pentan-1-ol + diethyl carbonate; phases: Liquid, Gas
Fixed: Pressure, kPa = 101.3
Property: Boiling temperature at pressure P, K (Liquid); method: Ebulliometric method (Recirculating still)
Mole fraction of diethyl carbonate	Boiling temperature at pressure P, K	uncertainty
0.0244	410.19	0.12
0.0422	409.57	0.11
0.0689	408.71	0.11
0.1017	407.69	0.11
0.1427	406.71	0.1
0.1818	405.87	0.1
0.2176	405.12	0.1
0.257	404.45	0.1
0.2892	404	0.1
0.3254	403.54	0.1
0.3575	403.09	0.09
0.3885	402.8	0.09
0.4165	402.42	0.09
0.453	402.06	0.09
0.487	401.7	0.09
0.5232	401.37	0.09
0.564	401.02	0.09
0.6056	400.67	0.09
0.6481	400.36	0.09
0.6886	400.06	0.09
0.7457	399.75	0.09
0.7989	399.52	0.09
0.8555	399.28	0.09
0.9128	399.18	0.09
0.9491	399.2	0.09
0.9847	399.29	0.09

System: pentan-1-ol + diethyl carbonate; phases: Gas, Liquid
Fixed: Pressure, kPa = 101.3
Property: Mole fraction of diethyl carbonate (Gas); method: Density calibration data
Mole fraction of diethyl carbonate	Mole fraction of diethyl carbonate	uncertainty
0.0244	0.0566	0.0044
0.0422	0.0914	0.0043
0.0689	0.1424	0.0041
0.1017	0.1974	0.0036
0.1427	0.2521	0.0034
0.1818	0.301	0.0034
0.2176	0.3467	0.0034
0.257	0.3893	0.0033
0.2892	0.4171	0.0033
0.3254	0.4506	0.0035
0.3575	0.4812	0.0036
0.3885	0.5019	0.0037
0.4165	0.5297	0.0037
0.453	0.5561	0.0036
0.487	0.5869	0.0035
0.5232	0.6136	0.0034
0.564	0.6461	0.0033
0.6056	0.6749	0.0032
0.6481	0.7043	0.0031
0.6886	0.7332	0.003
0.7457	0.7726	0.0029
0.7989	0.814	0.0029
0.8555	0.8627	0.0028
0.9128	0.9102	0.0027
0.9491	0.9451	0.0028
0.9847	0.9818	0.0029
