Measured thermophysical data. Speed of Sound of Hexane + 1-Chlorohexane, Hexane + 1-Iodohexane, and 1-Chlorohexane + 1-Iodohexane at Saturation Condition
Source: J. Chem. Eng. Data, 2003, 10.1021/je0256129
Compound 1: hexane, C6H14, InChI=1S/C6H14/c1-3-5-6-4-2/h3-6H2,1-2H3, purity 99%
Compound 2: 1-chlorohexane, C6H13Cl, InChI=1S/C6H13Cl/c1-2-3-4-5-6-7/h2-6H2,1H3, purity 99%
Compound 3: 1-iodohexane, C6H13I, InChI=1S/C6H13I/c1-2-3-4-5-6-7/h2-6H2,1H3, purity 99%

System: hexane; phases: Liquid, Gas
Property: Speed of sound, m/s (Liquid); method: PULSEH:UFactor:2
Temperature, K	Speed of sound, m/s	uncertainty
293.15	1098.1	1.5
298.15	1076	1.5
303.15	1054.3	1.5
308.15	1031.8	1.5
313.15	1009.9	1.4
318.15	987.7	1.4
323.15	965.7	1.4
328.15	943.7	1.4
333.15	921.3	1.4
338.15	899.7	1.4
343.15	877.8	1.4
348.15	855.9	1.4
353.15	834.2	1.4
358.15	812.1	1.4
363.15	790.3	1.3
368.15	768.4	1.3
373.15	746.6	1.3

System: 1-chlorohexane; phases: Liquid, Gas
Property: Speed of sound, m/s (Liquid); method: PULSEH:UFactor:4
Temperature, K	Speed of sound, m/s	uncertainty
293.15	1219.1	2.6
298.15	1200.1	2.6
303.15	1181.9	2.5
308.15	1165.2	2.5
313.15	1143.7	2.5
318.15	1128.1	2.5
323.15	1106	2.5
328.15	1087	2.4
333.15	1068.8	2.4
338.15	1050.2	2.4
343.15	1031.7	2.4
348.15	1013.3	2.3
353.15	995	2.3
358.15	976.9	2.3
363.15	958.9	2.3
368.15	940.6	2.3
373.15	922.9	2.2

System: 1-iodohexane; phases: Liquid, Gas
Property: Speed of sound, m/s (Liquid); method: PULSEH:UFactor:2
Temperature, K	Speed of sound, m/s	uncertainty
293.15	1045.5	1.6
298.15	1031.3	1.5
303.15	1017.2	1.5
308.15	1003.2	1.5
313.15	989.2	1.5
318.15	975.4	1.5
323.15	961.6	1.5
328.15	947.9	1.5
333.15	934.2	1.5
338.15	920.7	1.5
343.15	907.2	1.5
348.15	893.8	1.5
353.15	880.5	1.5
358.15	867.3	1.5
363.15	854.1	1.5
368.15	841	1.5
373.15	828	1.5

System: hexane + 1-chlorohexane; phases: Liquid, Gas
Property: Speed of sound, m/s (Liquid); method: PULSEH:UFactor:2
Temperature, K	Mole fraction of 1-chlorohexane	Speed of sound, m/s	uncertainty
293.15	0	1098.1	1.5
293.15	0.1	1111.3	1.5
293.15	0.15	1121.1	1.5
293.15	0.2	1129.1	1.5
293.15	0.3	1135.3	1.5
293.15	0.5	1159.3	1.6
293.15	0.7	1179.6	1.6
293.15	0.9	1206.7	1.7
293.15	1	1219.1	1.7
298.15	0	1076	1.5
298.15	0.1	1089.2	1.5
298.15	0.15	1098.9	1.5
298.15	0.2	1106.9	1.5
298.15	0.3	1114.9	1.5
298.15	0.5	1138.3	1.6
298.15	0.7	1159.2	1.6
298.15	0.9	1186.4	1.6
298.15	1	1200.1	1.7
303.15	0	1054.3	1.5
303.15	0.1	1067.2	1.5
303.15	0.15	1076.7	1.5
303.15	0.2	1084.8	1.5
303.15	0.3	1094.3	1.5
303.15	0.5	1117.4	1.6
303.15	0.7	1139	1.6
303.15	0.9	1166.1	1.6
303.15	1	1181.9	1.7
308.15	0	1031.8	1.5
308.15	0.1	1045.2	1.5
308.15	0.15	1054.6	1.5
308.15	0.2	1062.8	1.5
308.15	0.3	1073.5	1.5
308.15	0.5	1096.6	1.5
308.15	0.7	1118.9	1.6
308.15	0.9	1146.1	1.6
308.15	1	1165.2	1.6
313.15	0	1009.9	1.4
313.15	0.1	1023.2	1.5
313.15	0.15	1032.6	1.5
313.15	0.2	1041	1.5
313.15	0.3	1052.6	1.5
313.15	0.5	1075.9	1.5
313.15	0.7	1098.8	1.6
313.15	0.9	1126.1	1.6
313.15	1	1143.7	1.6
318.15	0	987.7	1.4
318.15	0.1	1001.3	1.5
318.15	0.15	1010.6	1.5
318.15	0.2	1019.3	1.5
318.15	0.3	1031.5	1.5
318.15	0.5	1055.4	1.5
318.15	0.7	1078.9	1.6
318.15	0.9	1106.4	1.6
318.15	1	1128.1	1.6
323.15	0	965.7	1.4
323.15	0.1	979.5	1.4
323.15	0.15	988.8	1.4
323.15	0.2	997.7	1.5
323.15	0.3	1010.2	1.5
323.15	0.5	1035.1	1.5
323.15	0.7	1059.2	1.6
323.15	0.9	1086.7	1.6
323.15	1	1106	1.6
328.15	0	943.7	1.4
328.15	0.1	957.5	1.4
328.15	0.15	967.1	1.4
328.15	0.2	976.3	1.4
328.15	0.3	988.7	1.5
328.15	0.5	1014.9	1.5
328.15	0.7	1039.5	1.5
328.15	0.9	1067.3	1.6
328.15	1	1087	1.6
333.15	0	921.3	1.4
333.15	0.1	935.9	1.4
333.15	0.15	945.5	1.4
333.15	0.2	955	1.4
333.15	0.3	967.1	1.5
333.15	0.5	994.8	1.5
333.15	0.7	1020	1.5
333.15	0.9	1048	1.6
333.15	1	1068.8	1.6
338.15	0	899.7	1.4
338.15	0.1	914.3	1.4
338.15	0.15	923.9	1.4
338.15	0.2	933.8	1.4
338.15	0.3	949	1.4
338.15	0.5	974.8	1.5
338.15	0.7	1000.5	1.5
338.15	0.9	1028.9	1.6
338.15	1	1050.2	1.6
343.15	0	877.8	1.4
343.15	0.1	892.6	1.4
343.15	0.15	902.5	1.4
343.15	0.2	912.7	1.4
343.15	0.3	928.2	1.4
343.15	0.5	955	1.5
343.15	0.7	981.2	1.5
343.15	0.9	1009.8	1.6
343.15	1	1031.7	1.6
348.15	0	855.9	1.4
348.15	0.1	871.1	1.4
348.15	0.15	881.1	1.4
348.15	0.2	891.7	1.4
348.15	0.3	908.7	1.4
348.15	0.5	935.4	1.5
348.15	0.7	962.1	1.5
348.15	0.9	991	1.6
348.15	1	1013.3	1.6
353.15	0	834.2	1.4
353.15	0.1	849.5	1.4
353.15	0.15	859.9	1.4
353.15	0.2	870.9	1.4
353.15	0.3	888.7	1.4
353.15	0.5	915.9	1.5
353.15	0.7	943	1.5
353.15	0.9	972.2	1.5
353.15	1	995	1.6
358.15	0	812.1	1.4
358.15	0.1	828	1.4
358.15	0.15	838.7	1.4
358.15	0.2	850.2	1.4
358.15	0.3	868.8	1.4
358.15	0.5	896.5	1.4
358.15	0.7	924	1.5
358.15	0.9	953.7	1.5
358.15	1	976.9	1.6
363.15	0	790.3	1.3
363.15	0.1	806.6	1.4
363.15	0.15	817.6	1.4
363.15	0.2	829.6	1.4
363.15	0.3	849.1	1.4
363.15	0.5	877.3	1.4
363.15	0.7	905.2	1.5
363.15	0.9	935.2	1.5
363.15	1	958.9	1.6
368.15	0	768.4	1.3
368.15	0.1	785.2	1.4
368.15	0.15	796.6	1.4
368.15	0.2	809.1	1.4
368.15	0.3	829.5	1.4
368.15	0.5	858.2	1.4
368.15	0.7	886.5	1.5
368.15	0.9	917	1.5
368.15	1	940.6	1.5
373.15	0	746.6	1.3
373.15	0.1	763.9	1.3
373.15	0.15	775.7	1.4
373.15	0.2	788.8	1.4
373.15	0.3	810.1	1.4
373.15	0.5	839.3	1.4
373.15	0.7	867.9	1.5
373.15	0.9	898.9	1.5
373.15	1	922.9	1.5

System: hexane + 1-iodohexane; phases: Liquid, Gas
Property: Speed of sound, m/s (Liquid); method: PULSEH:UFactor:2
Temperature, K	Mole fraction of 1-iodohexane	Speed of sound, m/s	uncertainty
293.15	0	1098.1	1.5
293.15	0.05	1086.8	1.5
293.15	0.1	1075.4	1.5
293.15	0.2	1061.6	1.5
293.15	0.3	1049.3	1.5
293.15	0.5	1046.2	1.5
293.15	0.7	1044.4	1.5
293.15	0.9	1042.2	1.5
293.15	1	1045.5	1.6
298.15	0	1076	1.5
298.15	0.05	1064.7	1.5
298.15	0.1	1054.3	1.5
298.15	0.2	1041.6	1.5
298.15	0.3	1030.6	1.5
298.15	0.5	1028.8	1.5
298.15	0.7	1028.7	1.5
298.15	0.9	1027.3	1.5
298.15	1	1031.3	1.5
303.15	0	1054.3	1.5
303.15	0.05	1042.7	1.5
303.15	0.1	1033.4	1.5
303.15	0.2	1021.7	1.5
303.15	0.3	1011.9	1.5
303.15	0.5	1011.5	1.5
303.15	0.7	1013.1	1.5
303.15	0.9	1012.4	1.5
303.15	1	1017.2	1.5
308.15	0	1031.8	1.5
308.15	0.05	1020.7	1.5
308.15	0.1	1012.5	1.5
308.15	0.2	1001.8	1.5
308.15	0.3	993.4	1.5
308.15	0.5	994.3	1.5
308.15	0.7	997.5	1.5
308.15	0.9	997.7	1.5
308.15	1	1003.2	1.5
313.15	0	1009.9	1.4
313.15	0.05	998.9	1.4
313.15	0.1	991.6	1.4
313.15	0.2	982	1.4
313.15	0.3	974.9	1.4
313.15	0.5	977.2	1.5
313.15	0.7	982	1.5
313.15	0.9	983	1.5
313.15	1	989.2	1.5
318.15	0	987.7	1.4
318.15	0.05	977.1	1.4
318.15	0.1	970.8	1.4
318.15	0.2	962.2	1.4
318.15	0.3	956.6	1.4
318.15	0.5	960.2	1.5
318.15	0.7	966.6	1.5
318.15	0.9	968.5	1.5
318.15	1	975.4	1.5
323.15	0	965.7	1.4
323.15	0.05	955.5	1.4
323.15	0.1	950.1	1.4
323.15	0.2	942.5	1.4
323.15	0.3	938.3	1.4
323.15	0.5	943.3	1.5
323.15	0.7	951.3	1.5
323.15	0.9	954	1.5
323.15	1	961.6	1.5
328.15	0	943.7	1.4
328.15	0.05	933.9	1.4
328.15	0.1	929.4	1.4
328.15	0.2	922.9	1.4
328.15	0.3	920.2	1.4
328.15	0.5	926.5	1.4
328.15	0.7	936.1	1.5
328.15	0.9	939.6	1.5
328.15	1	947.9	1.5
333.15	0	921.3	1.4
333.15	0.05	912.5	1.4
333.15	0.1	908.7	1.4
333.15	0.2	903.3	1.4
333.15	0.3	902.2	1.4
333.15	0.5	909.8	1.4
333.15	0.7	921	1.5
333.15	0.9	925.4	1.5
333.15	1	934.2	1.5
338.15	0	899.7	1.4
338.15	0.05	891.1	1.4
338.15	0.1	888.1	1.4
338.15	0.2	883.8	1.4
338.15	0.3	884.2	1.4
338.15	0.5	893.2	1.4
338.15	0.7	905.9	1.5
338.15	0.9	911.2	1.5
338.15	1	920.7	1.5
343.15	0	877.8	1.4
343.15	0.05	869.8	1.4
343.15	0.1	867.6	1.4
343.15	0.2	864.4	1.4
343.15	0.3	866.4	1.4
343.15	0.5	876.7	1.4
343.15	0.7	891	1.4
343.15	0.9	897.1	1.5
343.15	1	907.2	1.5
348.15	0	855.9	1.4
348.15	0.05	848.6	1.4
348.15	0.1	847.1	1.4
348.15	0.2	845	1.4
348.15	0.3	848.6	1.4
348.15	0.5	860.3	1.4
348.15	0.7	876.1	1.4
348.15	0.9	883.1	1.5
348.15	1	893.8	1.5
353.15	0	834.2	1.4
353.15	0.05	827.5	1.4
353.15	0.1	826.7	1.4
353.15	0.2	825.6	1.4
353.15	0.3	830.9	1.4
353.15	0.5	844	1.4
353.15	0.7	861.3	1.4
353.15	0.9	869.2	1.5
353.15	1	880.5	1.5
358.15	0	812.1	1.4
358.15	0.05	806.6	1.4
358.15	0.1	806.4	1.4
358.15	0.2	806.3	1.4
358.15	0.3	813.4	1.4
358.15	0.5	827.8	1.4
358.15	0.7	846.6	1.4
358.15	0.9	855.4	1.5
358.15	1	867.3	1.5
363.15	0	790.3	1.3
363.15	0.05	785.5	1.3
363.15	0.1	786.1	1.3
363.15	0.2	787.1	1.4
363.15	0.3	796	1.4
363.15	0.5	811.7	1.4
363.15	0.7	832	1.4
363.15	0.9	841.7	1.4
363.15	1	854.1	1.5
368.15	0	768.4	1.3
368.15	0.05	764.7	1.3
368.15	0.1	765.8	1.3
368.15	0.2	767.9	1.3
368.15	0.3	778.6	1.4
368.15	0.5	795.8	1.4
368.15	0.7	817.5	1.4
368.15	0.9	828.1	1.4
368.15	1	841	1.5
373.15	0	746.6	1.3
373.15	0.05	744	1.3
373.15	0.1	745.6	1.3
373.15	0.2	748.8	1.3
373.15	0.3	761.4	1.4
373.15	0.5	779.9	1.4
373.15	0.7	803	1.4
373.15	0.9	814.6	1.4
373.15	1	828	1.5

System: 1-chlorohexane + 1-iodohexane; phases: Liquid, Gas
Property: Speed of sound, m/s (Liquid); method: PULSEH:UFactor:4
Temperature, K	Mole fraction of 1-iodohexane	Speed of sound, m/s	uncertainty
293.15	0	1219.1	2.6
293.15	0.1	1190.9	2.6
293.15	0.3	1144.7	2.5
293.15	0.5	1114.2	2.5
293.15	0.7	1082.2	2.4
293.15	0.9	1058.2	2.4
293.15	1	1045.5	2.4
298.15	0	1200.1	2.6
298.15	0.1	1172.6	2.5
298.15	0.3	1127.7	2.5
298.15	0.5	1097.5	2.4
298.15	0.7	1066.4	2.4
298.15	0.9	1043.3	2.4
298.15	1	1031.3	2.3
303.15	0	1181.9	2.5
303.15	0.1	1154.3	2.5
303.15	0.3	1110.7	2.5
303.15	0.5	1080.8	2.4
303.15	0.7	1050.8	2.4
303.15	0.9	1028.5	2.3
303.15	1	1017.2	2.3
308.15	0	1165.2	2.5
308.15	0.1	1136.2	2.5
308.15	0.3	1093.7	2.4
308.15	0.5	1064.4	2.4
308.15	0.7	1035.3	2.3
308.15	0.9	1013.8	2.3
308.15	1	1003.2	2.3
313.15	0	1143.7	2.5
313.15	0.1	1118	2.5
313.15	0.3	1076.8	2.4
313.15	0.5	1048.1	2.4
313.15	0.7	1019.8	2.3
313.15	0.9	999.3	2.3
313.15	1	989.2	2.3
318.15	0	1128.1	2.5
318.15	0.1	1100	2.4
318.15	0.3	1059.9	2.4
318.15	0.5	1031.9	2.4
318.15	0.7	1004.6	2.3
318.15	0.9	984.8	2.3
318.15	1	975.4	2.3
323.15	0	1106	2.5
323.15	0.1	1082	2.4
323.15	0.3	1043.1	2.4
323.15	0.5	1015.9	2.3
323.15	0.7	989.4	2.3
323.15	0.9	970.5	2.3
323.15	1	961.6	2.3
328.15	0	1087	2.4
328.15	0.1	1064.1	2.4
328.15	0.3	1026.3	2.4
328.15	0.5	1000	2.3
328.15	0.7	974.5	2.3
328.15	0.9	956.4	2.2
328.15	1	947.9	2.2
333.15	0	1068.8	2.4
333.15	0.1	1046.2	2.4
333.15	0.3	1009.5	2.3
333.15	0.5	984.3	2.3
333.15	0.7	959.6	2.3
333.15	0.9	942.3	2.2
333.15	1	934.2	2.2
338.15	0	1050.2	2.4
338.15	0.1	1028.4	2.4
338.15	0.3	992.8	2.3
338.15	0.5	968.7	2.3
338.15	0.7	944.8	2.2
338.15	0.9	928.4	2.2
338.15	1	920.7	2.2
343.15	0	1031.7	2.4
343.15	0.1	1010.6	2.3
343.15	0.3	976.1	2.3
343.15	0.5	953.3	2.3
343.15	0.7	930.2	2.2
343.15	0.9	914.6	2.2
343.15	1	907.2	2.2
348.15	0	1013.3	2.3
348.15	0.1	992.9	2.3
348.15	0.3	959.5	2.3
348.15	0.5	938	2.2
348.15	0.7	915.7	2.2
348.15	0.9	901	2.2
348.15	1	893.8	2.2
353.15	0	995	2.3
353.15	0.1	975.3	2.3
353.15	0.3	942.9	2.2
353.15	0.5	922.9	2.2
353.15	0.7	901.4	2.2
353.15	0.9	887.4	2.2
353.15	1	880.5	2.2
358.15	0	976.9	2.3
358.15	0.1	957.7	2.3
358.15	0.3	926.4	2.2
358.15	0.5	907.9	2.2
358.15	0.7	887.2	2.2
358.15	0.9	874	2.1
358.15	1	867.3	2.1
363.15	0	958.9	2.3
363.15	0.1	940.2	2.3
363.15	0.3	909.8	2.2
363.15	0.5	893	2.2
363.15	0.7	873.1	2.2
363.15	0.9	860.8	2.1
363.15	1	854.1	2.1
368.15	0	940.6	2.3
368.15	0.1	922.7	2.2
368.15	0.3	893.4	2.2
368.15	0.5	878.4	2.2
368.15	0.7	859.1	2.1
368.15	0.9	847.6	2.1
368.15	1	841	2.1
373.15	0	922.9	2.2
373.15	0.1	905.4	2.2
373.15	0.3	877	2.2
373.15	0.5	863.8	2.2
373.15	0.7	845.3	2.1
373.15	0.9	834.6	2.1
373.15	1	828	2.1
