Measured thermophysical data. Vapor-Liquid Equilibria for the Binary Mixture alpha-Pinene + Octane
Source: J. Chem. Eng. Data, 2003, 10.1021/je025631i
Compound 1: 2-pinene, C10H16, InChI=1S/C10H16/c1-7-4-5-8-6-9(7)10(8,2)3/h4,8-9H,5-6H2,1-3H3, purity 99.8%
Compound 2: octane, C8H18, InChI=1S/C8H18/c1-3-5-7-8-6-4-2/h3-8H2,1-2H3, purity 99.85%

System: 2-pinene; phases: Liquid
Property: Refractive index (Na D-line) (Liquid); method: ABBE:monoch
Temperature, K	Pressure, kPa	Refractive index (Na D-line)	uncertainty
293.15	101.325	1.4657	0.0003

System: 2-pinene; phases: Liquid
Property: Mass density, kg/m3 (Liquid); method: Vibrating tube method
Temperature, K	Pressure, kPa	Mass density, kg/m3	uncertainty
293.15	101.325	858.06	0.16

System: 2-pinene; phases: Liquid, Gas
Property: Vapor or sublimation pressure, kPa (Liquid); method: EBULLIO:UFactor:4
Temperature, K	Vapor or sublimation pressure, kPa	uncertainty
348.15	7.35	0.33
363.15	13.32	0.35
382.79	26.66	0.34
383.15	26.98	0.4
405.54	53.33	0.41
429.34	101.32	0.5

System: octane; phases: Liquid
Property: Refractive index (Na D-line) (Liquid); method: ABBE:monoch
Temperature, K	Pressure, kPa	Refractive index (Na D-line)	uncertainty
293.15	101.325	1.3973	0.0003

System: octane; phases: Liquid
Property: Mass density, kg/m3 (Liquid); method: Vibrating tube method
Temperature, K	Pressure, kPa	Mass density, kg/m3	uncertainty
293.15	101.325	702.44	0.18

System: octane; phases: Liquid, Gas
Property: Vapor or sublimation pressure, kPa (Liquid); method: EBULLIO:UFactor:4
Temperature, K	Vapor or sublimation pressure, kPa	uncertainty
348.15	19.31	0.37
356.74	26.66	0.3
363.15	33.52	0.42
376.95	53.33	0.36
383.15	64.25	0.52
398.79	101.3	0.5

System: 2-pinene + octane; phases: Liquid, Gas
Property: Vapor or sublimation pressure, kPa (Liquid); method: EBULLIO:UFactor:4
Temperature, K	Mole fraction of 2-pinene	Vapor or sublimation pressure, kPa	uncertainty
348.15	0	19.31	0.37
348.15	0.1121	18.21	0.37
348.15	0.2021	17.02	0.37
348.15	0.2529	16.59	0.36
348.15	0.3034	15.98	0.36
348.15	0.399	14.86	0.36
348.15	0.5015	13.75	0.35
348.15	0.5994	12.51	0.35
348.15	0.8003	10.05	0.34
348.15	0.8966	8.74	0.34
348.15	1	7.35	0.33
363.15	0	33.52	0.42
363.15	0.1121	31.26	0.41
363.15	0.2021	29.71	0.41
363.15	0.2529	28.63	0.4
363.15	0.3034	27.47	0.4
363.15	0.399	25.67	0.39
363.15	0.5015	23.65	0.39
363.15	0.5994	21.4	0.38
363.15	0.8003	17.54	0.37
363.15	0.8966	15.65	0.36
363.15	1	13.32	0.35
383.15	0	64.25	0.52
383.15	0.1121	61.57	0.51
383.15	0.2021	57.18	0.49
383.15	0.2529	55.08	0.49
383.15	0.3034	52.96	0.48
383.15	0.399	49.69	0.47
383.15	0.5015	45.54	0.45
383.15	0.5994	41.01	0.44
383.15	0.8003	34.51	0.42
383.15	0.8966	30.67	0.41
383.15	1	26.98	0.4

System: 2-pinene + octane; phases: Liquid, Gas
Property: Boiling temperature at pressure P, K (Liquid); method: EBULLIO:UFactor:4
Pressure, kPa	Mole fraction of 2-pinene	Boiling temperature at pressure P, K	uncertainty
26.66	0	356.74	0.3
26.66	0.1121	358.09	0.3
26.66	0.2021	359.62	0.32
26.66	0.2529	360.64	0.32
26.66	0.3034	361.8	0.32
26.66	0.399	363.73	0.33
26.66	0.5015	366.08	0.33
26.66	0.5994	369.12	0.34
26.66	0.8003	375.67	0.34
26.66	0.8966	378.94	0.34
26.66	1	382.79	0.34
53.33	0	376.95	0.36
53.33	0.1121	378.69	0.38
53.33	0.2021	381.29	0.39
53.33	0.2529	382.52	0.39
53.33	0.3034	383.06	0.39
53.33	0.399	385.89	0.4
53.33	0.5015	388.92	0.41
53.33	0.5994	392.37	0.41
53.33	0.8003	398.92	0.41
53.33	0.8966	401.82	0.41
53.33	1	405.54	0.41
