Measured thermophysical data. Excess Molar Enthalpies and Excess Molar Volumes of the Ternary System 1,2-Dichlorobenzene + Benzene +1-Chlorohexane at 298.15 K
Source: J. Chem. Eng. Data, 2003, 10.1021/je025625m
Compound 1: 1,2-dichlorobenzene, C6H4Cl2, InChI=1S/C6H4Cl2/c7-5-3-1-2-4-6(5)8/h1-4H, purity 99%
Compound 2: benzene, C6H6, InChI=1S/C6H6/c1-2-4-6-5-3-1/h1-6H, purity 99.9%
Compound 3: 1-chlorohexane, C6H13Cl, InChI=1S/C6H13Cl/c1-2-3-4-5-6-7/h2-6H2,1H3, purity 99%

System: benzene + 1-chlorohexane; phases: Liquid
Fixed: Temperature, K = 298.15
Fixed: Pressure, kPa = 101
Property: Excess molar enthalpy (molar enthalpy of mixing), kJ/mol (Liquid); method: CALVET:UFactor:2
Mole fraction of benzene	Excess molar enthalpy (molar enthalpy of mixing), kJ/mol	uncertainty
0.0723	0.0061	0.0016
0.0744	0.0071	0.0017
0.0805	0.0061	0.0016
0.0888	0.007	0.0017
0.1407	0.013	0.0018
0.1427	0.0147	0.0018
0.1437	0.0147	0.0018
0.2125	0.0225	0.0019
0.2862	0.0331	0.0021
0.3323	0.0415	0.0022
0.394	0.0531	0.0024
0.4431	0.0652	0.0026
0.5015	0.0789	0.0028
0.5375	0.0869	0.0029
0.541	0.0869	0.0029
0.5524	0.0911	0.003
0.582	0.0959	0.003
0.6153	0.1023	0.0031
0.6575	0.1071	0.0032
0.7164	0.1107	0.0033
0.7288	0.1115	0.0033
0.7352	0.1097	0.0032
0.7928	0.1046	0.0032
0.8215	0.1013	0.0031
0.8484	0.0939	0.003
0.8629	0.0864	0.0029
0.894	0.0727	0.0027
0.9274	0.0554	0.0024
0.9535	0.0384	0.0021

System: benzene + 1-chlorohexane; phases: Liquid
Fixed: Temperature, K = 298.15
Fixed: Pressure, kPa = 101
Property: Excess molar volume, m3/mol (Liquid); method: Calculated with densities of this investigation
Mole fraction of benzene	Excess molar volume, m3/mol	uncertainty
0.1036	4.79e-08	7.9e-09
0.1842	7.6e-08	7.9e-09
0.2877	1.218e-07	8e-09
0.3492	1.418e-07	8.1e-09
0.3994	1.625e-07	8.1e-09
0.4951	1.884e-07	8.2e-09
0.5461	1.99e-07	8.2e-09
0.5969	2.014e-07	8.2e-09
0.639	2.054e-07	8.2e-09
0.6739	2.047e-07	8.2e-09
0.6892	2.041e-07	8.2e-09
0.772	1.876e-07	8.2e-09
0.8038	1.765e-07	8.2e-09
0.848	1.526e-07	8.1e-09
0.8734	1.363e-07	8.1e-09
0.9086	1.093e-07	8e-09
0.9485	6.54e-08	7.9e-09
0.9642	4.99e-08	7.9e-09

System: benzene + 1,2-dichlorobenzene + 1-chlorohexane; phases: Liquid
Fixed: Temperature, K = 298.15
Fixed: Pressure, kPa = 101
Property: Excess molar enthalpy (molar enthalpy of mixing), kJ/mol (Liquid); method: CALVET:UFactor:2
Mole fraction of 1,2-dichlorobenzene	Mole fraction of benzene	Excess molar enthalpy (molar enthalpy of mixing), kJ/mol	uncertainty
0.0167	0.0499	0	0.002
0.0317	0.0311	-0.0071	0.0017
0.0346	0.1034	0	0.002
0.0468	0.0153	-0.0123	0.0017
0.0487	0.1457	0.0017	0.0016
0.0647	0.0635	-0.0124	0.0017
0.0671	0.2006	0.0053	0.0016
0.0784	0.2344	0.0081	0.0017
0.0831	0.0272	-0.021	0.0019
0.0893	0.0877	-0.0143	0.0018
0.0927	0.2775	0.0127	0.0017
0.1074	0.3212	0.0198	0.0019
0.1176	0.3518	0.026	0.002
0.1209	0.1188	-0.0156	0.0018
0.1318	0.3942	0.0362	0.0021
0.134	0.0438	-0.0289	0.002
0.1432	0.4283	0.0443	0.0022
0.1532	0.1505	-0.0148	0.0018
0.1614	0.4828	0.0592	0.0025
0.1711	0.5118	0.0692	0.0026
0.178	0.1748	-0.0109	0.0017
0.183	0.0598	-0.0336	0.0021
0.1832	0.548	0.078	0.0028
0.194	0.5789	0.0848	0.0029
0.2039	0.6099	0.0929	0.003
0.2046	0.201	-0.0071	0.0017
0.2129	0.6371	0.0995	0.0031
0.2285	0.0747	-0.0364	0.0021
0.2287	0.6841	0.1094	0.0032
0.2296	0.2255	-0.0022	0.0016
0.239	0.7151	0.113	0.0033
0.2415	0.7227	0.1146	0.0033
0.2612	0.2566	0.0057	0.0016
0.2677	0.0875	-0.0362	0.0021
0.2816	0.2765	0.0143	0.0018
0.3073	0.1004	-0.0347	0.0021
0.3187	0.313	0.0292	0.002
0.3325	0.1086	-0.0328	0.0021
0.3387	0.3326	0.0412	0.0022
0.3604	0.3539	0.049	0.0023
0.3638	0.1189	-0.0291	0.002
0.3875	0.3805	0.0688	0.0026
0.4066	0.3993	0.0824	0.0028
0.4087	0.1336	-0.0211	0.0019
0.4236	0.416	0.0939	0.003
0.4362	0.1426	-0.0164	0.0018
0.4465	0.4386	0.1115	0.0033
0.467	0.4587	0.1238	0.0035
0.4845	0.4759	0.1404	0.0037
0.5013	0.1638	0.0013	0.0016
0.5267	0.1721	0.0094	0.0017
0.5692	0.186	0.028	0.002
0.5959	0.1947	0.0401	0.0022
0.625	0.2043	0.0508	0.0023
0.6634	0.2168	0.0686	0.0026
0.6933	0.2266	0.0839	0.0029
0.7261	0.2373	0.0997	0.0031

System: benzene + 1,2-dichlorobenzene + 1-chlorohexane; phases: Liquid
Fixed: Temperature, K = 298.15
Fixed: Pressure, kPa = 101
Property: Excess molar volume, m3/mol (Liquid); method: Calculated with densities of this investigation
Mole fraction of 1,2-dichlorobenzene	Mole fraction of benzene	Excess molar volume, m3/mol	uncertainty
0.0153	0.0881	1.69e-08	7.8e-09
0.0248	0.1424	2.83e-08	7.8e-09
0.0291	0.071	-9.3e-09	7.8e-09
0.0476	0.2734	5.73e-08	7.9e-09
0.049	0.0605	-4.01e-08	7.8e-09
0.0523	0.1279	-1.37e-08	7.8e-09
0.0589	0.0405	-6.37e-08	7.9e-09
0.0681	0.3911	7.96e-08	7.9e-09
0.0729	0.0245	-8.58e-08	7.9e-09
0.0764	0.0944	-5.74e-08	7.9e-09
0.0875	0.5022	9.66e-08	8e-09
0.0923	0.2254	-1.5e-08	7.8e-09
0.0948	0.5444	9.87e-08	8e-09
0.098	0.01	-1.289e-07	8e-09
0.0996	0.0686	-9.92e-08	8e-09
0.105	0.6032	1.007e-07	8e-09
0.1188	0.0399	-1.279e-07	8e-09
0.12	0.6889	9.54e-08	8e-09
0.1326	0.3239	-1.24e-08	7.8e-09
0.1347	0.7733	8.22e-08	7.9e-09
0.1434	0.1771	-8.69e-08	7.9e-09
0.1551	0.0159	-1.844e-07	8.2e-09
0.169	0.4129	-5.8e-09	7.8e-09
0.1865	0.4557	-3.5e-09	7.8e-09
0.1877	0.1292	-1.522e-07	8.1e-09
0.2051	0.2533	-1e-07	8e-09
0.2065	0.5044	9e-09	7.8e-09
0.2178	0.1498	-1.642e-07	8.1e-09
0.2214	0.0744	-2.059e-07	8.2e-09
0.2352	0.5745	2.6e-08	7.8e-09
0.2596	0.3205	-1.017e-07	8e-09
0.2623	0.0881	-2.197e-07	8.3e-09
0.2635	0.6438	5.21e-08	7.9e-09
0.2697	0.0276	-2.662e-07	8.4e-09
0.2787	0.3442	-9.9e-08	8e-09
0.3101	0.3829	-8.56e-08	7.9e-09
0.3376	0.2323	-1.753e-07	8.2e-09
0.3601	0.4447	-4.76e-08	7.9e-09
0.3694	0.2542	-1.672e-07	8.1e-09
0.3897	0.0399	-3.111e-07	8.5e-09
0.4037	0.4985	1.08e-08	7.8e-09
0.4085	0.2811	-1.51e-07	8.1e-09
0.423	0.1421	-2.489e-07	8.3e-09
0.4629	0.1555	-2.367e-07	8.3e-09
0.475	0.3268	-1.011e-07	8e-09
0.5041	0.0516	-3.113e-07	8.5e-09
0.5108	0.1716	-2.167e-07	8.3e-09
0.5445	0.0558	-3.04e-07	8.5e-09
0.5958	0.2001	-1.547e-07	8.1e-09
0.6119	0.0627	-2.766e-07	8.4e-09
0.6735	0.2262	-6.1e-08	7.9e-09
0.7121	0.0729	-2.128e-07	8.2e-09
0.811	0.0831	-1.087e-07	8e-09
