Measured thermophysical data. High Pressure Phase Equilibrium of CO2 + 2-Phenylethanol and CO2 + 3-Methyl-1-butanol
Source: J. Chem. Eng. Data, 2003, 10.1021/je025600n
Compound 1: carbon dioxide, CO2, InChI=1S/CO2/c2-1-3, purity 99.95%
Compound 2: 2-phenylethanol, C8H10O, InChI=1S/C8H10O/c9-7-6-8-4-2-1-3-5-8/h1-5,9H,6-7H2, purity 99%
Compound 3: 3-methylbutan-1-ol, C5H12O, InChI=1S/C5H12O/c1-5(2)3-4-6/h5-6H,3-4H2,1-2H3, purity 99%

System: 2-phenylethanol + carbon dioxide; phases: Gas, Liquid
Property: Vapor or sublimation pressure, kPa (Gas); method: CCELL:UFactor:32
Temperature, K	Mole fraction of carbon dioxide	Vapor or sublimation pressure, kPa	uncertainty
313.1	0.978	22340	2220
313.1	0.9788	20050	1990
313.1	0.9808	18780	1860
313.1	0.981	17400	1730
313.1	0.982	14640	1450
313.1	0.9824	14740	1460
313.1	0.9829	12540	1240
313.1	0.9896	10240	1020
313.1	0.9899	9940	990
313.1	0.9967	8280	820
323.1	0.9748	22270	2210
323.1	0.9787	20730	2060
323.1	0.9794	17850	1770
323.1	0.9858	15050	1490
323.1	0.9903	12600	1250
323.1	0.9972	10360	1030
323.1	0.9974	8360	830

System: 2-phenylethanol + carbon dioxide; phases: Liquid, Gas
Property: Vapor or sublimation pressure, kPa (Liquid); method: CCELL:UFactor:32
Temperature, K	Mole fraction of carbon dioxide	Vapor or sublimation pressure, kPa	uncertainty
313.1	0.444	8280	820
313.1	0.488	10240	1020
313.1	0.495	14660	1450
313.1	0.497	12620	1250
313.1	0.506	16600	1650
313.1	0.51	17390	1720
313.1	0.533	20050	1990
313.1	0.559	22400	2220
323.1	0.431	8290	820
323.1	0.451	10290	1020
323.1	0.453	14990	1490
323.1	0.454	12940	1280
323.1	0.463	17780	1760
323.1	0.535	20670	2050
323.1	0.599	22670	2250
323.1	0.618	24410	2420

System: 3-methylbutan-1-ol + carbon dioxide; phases: Gas, Liquid
Property: Vapor or sublimation pressure, kPa (Gas); method: CCELL:UFactor:32
Temperature, K	Mole fraction of carbon dioxide	Vapor or sublimation pressure, kPa	uncertainty
313.1	0.9975	8020	800
313.1	0.9976	7850	780
313.1	0.998	7630	760
313.1	0.9982	5270	520
313.1	0.9983	5690	560
313.1	0.9984	7170	710
313.1	0.9985	6280	620
323.1	0.9966	9490	940
323.1	0.9968	6750	670
323.1	0.9969	7900	780
323.1	0.9971	9060	900
323.1	0.9977	8780	870
323.1	0.9979	8300	820

System: 3-methylbutan-1-ol + carbon dioxide; phases: Liquid, Gas
Property: Vapor or sublimation pressure, kPa (Liquid); method: CCELL:UFactor:32
Temperature, K	Mole fraction of carbon dioxide	Vapor or sublimation pressure, kPa	uncertainty
313.1	0.442	5200	520
313.1	0.534	5970	590
313.1	0.599	6480	640
313.1	0.638	7230	720
313.1	0.771	7880	780
313.1	0.852	8030	800
323.1	0.473	6700	660
323.1	0.608	7950	790
323.1	0.665	8490	840
323.1	0.734	9050	900
323.1	0.852	9490	940
