Measured thermophysical data. Volumetric Properties and Viscosities for Aqueous AMP Solutions from 25 0C to 70 0C
Source: J. Chem. Eng. Data, 2003, 10.1021/je0201119
Compound 1: 2-amino-2-methylpropan-1-ol, C4H11NO, InChI=1S/C4H11NO/c1-4(2,5)3-6/h6H,3,5H2,1-2H3
Compound 2: water, H2O, InChI=1S/H2O/h1H2, purity 100%

System: 2-amino-2-methylpropan-1-ol; phases: Liquid
Fixed: Pressure, kPa = 92
Property: Viscosity, Pa*s (Liquid); method: CAPTUB::UFactor:16
Temperature, K	Viscosity, Pa*s	uncertainty
313.15	0.0478	0.0032
323.15	0.0251	0.0017
333.15	0.0144	0.00104
343.15	0.00891	0.00069

System: 2-amino-2-methylpropan-1-ol; phases: Liquid
Fixed: Pressure, kPa = 92
Property: Mass density, kg/m3 (Liquid); method: Vibrating tube method
Temperature, K	Mass density, kg/m3	uncertainty
313.15	919.65	1.42
323.15	911.24	1.41
333.15	902.87	1.4
343.15	894.28	1.39

System: water; phases: Liquid
Fixed: Pressure, kPa = 92
Property: Viscosity, Pa*s (Liquid); method: CAPTUB::UFactor:16
Temperature, K	Viscosity, Pa*s	uncertainty
298.15	0.00089	8.9e-05
303.15	0.000805	8.2e-05
313.15	0.000653	6.9e-05
323.15	0.000547	6e-05
333.15	0.000466	5.3e-05
343.15	0.000405	4.7e-05

System: water; phases: Liquid
Fixed: Pressure, kPa = 92
Property: Mass density, kg/m3 (Liquid); method: Vibrating tube method
Temperature, K	Mass density, kg/m3	uncertainty
298.15	997.04	0.06
303.15	995.65	0.06
313.15	992.21	0.06
323.15	988.04	0.06
333.15	983.12	0.06
343.15	977.77	0.06

System: 2-amino-2-methylpropan-1-ol + water; phases: Liquid
Fixed: Pressure, kPa = 92
Property: Viscosity, Pa*s (Liquid); method: CAPTUB:UFactor:16
Temperature, K	Mole fraction of 2-amino-2-methylpropan-1-ol	Viscosity, Pa*s	uncertainty
298.15	0	0.00089	8.9e-05
298.15	0.0503	0.00232	0.00021
298.15	0.0704	0.00323	0.00029
298.15	0.1005	0.00501	0.00043
298.15	0.2006	0.01482	0.00104
298.15	0.2939	0.0227	0.0015
298.15	0.4075	0.0515	0.0006
298.15	0.4982	0.0768	0.0091
298.15	0.5996	0.1025	0.0202
298.15	0.7028	0.1243	0.031
298.15	0.8016	0.1407	0.0398
298.15	0.9001	0.1491	0.0445
303.15	0	0.000805	8.2e-05
303.15	0.0503	0.00198	0.000182
303.15	0.0704	0.00267	0.00024
303.15	0.1005	0.00405	0.00036
303.15	0.2006	0.01132	0.00083
303.15	0.2939	0.01696	0.00118
303.15	0.4075	0.0369	0.0024
303.15	0.4982	0.0543	0.0013
303.15	0.5996	0.0703	0.0067
303.15	0.7028	0.084	0.012
303.15	0.8016	0.094	0.0163
303.15	0.9001	0.0989	0.0186
313.15	0	0.000653	6.9e-05
313.15	0.0503	0.001608	0.000151
313.15	0.0704	0.001931	0.000178
313.15	0.1005	0.00279	0.00025
313.15	0.2006	0.007	0.00056
313.15	0.2939	0.01251	0.0009
313.15	0.4075	0.02037	0.00139
313.15	0.4982	0.0287	0.0019
313.15	0.5996	0.0361	0.0024
313.15	0.7028	0.0425	0.0028
313.15	0.8016	0.0462	0.003
313.15	0.9001	0.0479	0.0032
313.15	1	0.0478	0.0032
323.15	0	0.000547	6e-05
323.15	0.0503	0.001244	0.00012
323.15	0.0704	0.001466	0.000139
323.15	0.1005	0.00203	0.00019
323.15	0.2006	0.00466	0.00041
323.15	0.2939	0.00785	0.00061
323.15	0.4075	0.01217	0.00088
323.15	0.4982	0.01626	0.00114
323.15	0.5996	0.02	0.0014
323.15	0.7028	0.0227	0.0016
323.15	0.8016	0.0246	0.0017
323.15	0.9001	0.0253	0.0017
323.15	1	0.0251	0.0017
333.15	0	0.000466	5.3e-05
333.15	0.0503	0.000931	9.3e-05
333.15	0.0704	0.001154	0.000112
333.15	0.1005	0.00155	0.00015
333.15	0.2006	0.00327	0.00029
333.15	0.2939	0.00523	0.00045
333.15	0.4075	0.00763	0.0006
333.15	0.4982	0.01	0.00075
333.15	0.5996	0.01197	0.00087
333.15	0.7028	0.01333	0.00096
333.15	0.8016	0.01422	0.00102
333.15	0.9001	0.01453	0.00104
333.15	1	0.0144	0.00104
343.15	0	0.000405	4.7e-05
343.15	0.0503	0.000826	8.4e-05
343.15	0.0704	0.000933	9.3e-05
343.15	0.1005	0.00121	0.00012
343.15	0.2006	0.0024	0.00022
343.15	0.2939	0.00367	0.00032
343.15	0.4075	0.00494	0.00043
343.15	0.4982	0.00643	0.00052
343.15	0.5996	0.0075	0.00059
343.15	0.7028	0.00823	0.00064
343.15	0.8016	0.00888	0.00068
343.15	0.9001	0.00898	0.00069
343.15	1	0.00891	0.00069

System: 2-amino-2-methylpropan-1-ol + water; phases: Liquid
Fixed: Pressure, kPa = 92
Property: Mass density, kg/m3 (Liquid); method: Vibrating tube method
Temperature, K	Mole fraction of 2-amino-2-methylpropan-1-ol	Mass density, kg/m3	uncertainty
298.15	0	997.04	0.06
298.15	0.0503	996.94	0.1
298.15	0.0704	997.22	0.12
298.15	0.1005	997.05	0.16
298.15	0.2006	989.06	0.31
298.15	0.2939	978.77	0.44
298.15	0.4075	967.43	0.6
298.15	0.4982	959.61	0.73
298.15	0.5996	952.01	0.87
298.15	0.7028	945.34	1.02
298.15	0.8016	939.53	1.16
298.15	0.9001	934.8	1.3
303.15	0	995.65	0.06
303.15	0.0503	994.7	0.1
303.15	0.0704	994.6	0.12
303.15	0.1005	993.88	0.16
303.15	0.2006	985.15	0.3
303.15	0.2939	974.76	0.44
303.15	0.4075	963.43	0.6
303.15	0.4982	955.61	0.73
303.15	0.5996	948	0.87
303.15	0.7028	941.38	1.02
303.15	0.8016	935.53	1.15
303.15	0.9001	930.7	1.29
313.15	0	992.21	0.06
313.15	0.0503	989.66	0.1
313.15	0.0704	988.95	0.12
313.15	0.1005	987.5	0.16
313.15	0.2006	977.24	0.3
313.15	0.2939	966.67	0.43
313.15	0.4075	955.29	0.6
313.15	0.4982	947.43	0.72
313.15	0.5996	939.82	0.86
313.15	0.7028	933.1	1.01
313.15	0.8016	927.27	1.14
313.15	0.9001	923.35	1.28
313.15	1	919.65	1.42
323.15	0	988.04	0.06
323.15	0.0503	984.18	0.1
323.15	0.0704	982.83	0.12
323.15	0.1005	980.6	0.16
323.15	0.2006	969.17	0.3
323.15	0.2939	958.38	0.43
323.15	0.4075	946.98	0.59
323.15	0.4982	939.08	0.72
323.15	0.5996	931.58	0.86
323.15	0.7028	924.7	1
323.15	0.8016	918.85	1.13
323.15	0.9001	914.78	1.27
323.15	1	911.24	1.41
333.15	0	983.12	0.06
333.15	0.0503	978.15	0.1
333.15	0.0704	976.26	0.12
333.15	0.1005	973.43	0.16
333.15	0.2006	960.92	0.3
333.15	0.2939	949.92	0.43
333.15	0.4075	938.48	0.59
333.15	0.4982	930.56	0.71
333.15	0.5996	923.08	0.85
333.15	0.7028	915.97	0.99
333.15	0.8016	910.36	1.12
333.15	0.9001	906.31	1.26
333.15	1	902.87	1.4
343.15	0	977.77	0.06
343.15	0.0503	971.66	0.1
343.15	0.0704	969.29	0.12
343.15	0.1005	965.83	0.16
343.15	0.2006	952.44	0.3
343.15	0.2939	941.28	0.42
343.15	0.4075	930	0.58
343.15	0.4982	921.85	0.7
343.15	0.5996	914.39	0.84
343.15	0.7028	907	0.98
343.15	0.8016	901.65	1.11
343.15	0.9001	897.77	1.25
343.15	1	894.28	1.39
