Measured thermophysical data. Solubility of 2-Ethyl-1-hexanol, 2-Ethylhexanoic Acid, and Their Mixtures in Supercritical Carbon Dioxide
Source: J. Chem. Eng. Data, 2003, 10.1021/je020074l
Compound 1: carbon dioxide, CO2, InChI=1S/CO2/c2-1-3, purity 99.99%
Compound 2: 2-ethyl-1-hexanol, C8H18O, InChI=1S/C8H18O/c1-3-5-6-8(4-2)7-9/h8-9H,3-7H2,1-2H3
Compound 3: 2-ethylhexanoic acid, C8H16O2, InChI=1S/C8H16O2/c1-3-5-6-7(4-2)8(9)10/h7H,3-6H2,1-2H3,(H,9,10)

System: 2-ethyl-1-hexanol + carbon dioxide; phases: Fluid (supercritical or subcritical phases), Liquid
Property: Mole fraction of 2-ethyl-1-hexanol (Fluid (supercritical or subcritical phases)); method: CHROM:UFactor:8
Temperature, K	Pressure, kPa	Mole fraction of 2-ethyl-1-hexanol	uncertainty
313	6800	0.0006	0.0001
313	7200	0.0008	0.0001
313	8100	0.0016	0.0008
313	9000	0.015	0.0022
313	9900	0.0379	0.0028
313	11000	0.0445	0.0029
313	12000	0.0434	0.0028
313	12600	0.0447	0.0029
313	13500	0.0449	0.0029
313	14400	0.0445	0.0029
313	15300	0.0484	0.0031
313	18000	0.0458	0.0029
323	6800	0.0008	0.0001
323	7200	0.001	0.0001
323	8100	0.0014	0.0004
323	11000	0.0148	0.0014
323	12000	0.0446	0.0044
323	12600	0.0692	0.0046
323	13500	0.0666	0.0043
323	14400	0.0691	0.0044
323	15300	0.0664	0.0043
323	18000	0.0687	0.0044

System: carbon dioxide + 2-ethylhexanoic acid; phases: Fluid (supercritical or subcritical phases), Liquid
Property: Mole fraction of 2-ethylhexanoic acid (Fluid (supercritical or subcritical phases)); method: CHROM:UFactor:8
Temperature, K	Pressure, kPa	Mole fraction of 2-ethylhexanoic acid	uncertainty
313	6800	0.0007	0.0001
313	7200	0.0008	0.0001
313	9000	0.004	0.0006
313	9900	0.0181	0.0015
313	11000	0.0222	0.0016
313	12000	0.0336	0.0023
313	12600	0.0357	0.0023
313	13500	0.0359	0.0023
313	14400	0.0415	0.0027
313	15300	0.0438	0.0028
313	18000	0.0413	0.0027
323	6800	0.0009	0.0001
323	7200	0.0011	0.0001
323	9000	0.0024	0.0002
323	9900	0.0067	0.0008
323	11000	0.0147	0.0013
323	12000	0.0254	0.0022
323	12600	0.0392	0.0029
323	13500	0.0483	0.0031
323	14400	0.0473	0.003
323	15300	0.0531	0.0034
323	18000	0.0621	0.004

System: 2-ethyl-1-hexanol + carbon dioxide + 2-ethylhexanoic acid; phases: Fluid (supercritical or subcritical phases), Liquid
Fixed: Pressure, kPa = 13800
Property: Mole fraction of 2-ethyl-1-hexanol (Fluid (supercritical or subcritical phases)); method: CHROM:UFactor:8
Temperature, K	Mole fraction of 2-ethyl-1-hexanol	Mole fraction of 2-ethyl-1-hexanol	uncertainty
313	0.5	0.0302	0.0019
323	0.5	0.0258	0.0017
333	0.25	0.0136	0.0009
333	0.33	0.0165	0.0011
333	0.5	0.0234	0.0015
333	0.67	0.0259	0.0017
333	0.75	0.0318	0.002
333	0.5	0.0224	0.0014
343	0.5	0.015	0.001

System: 2-ethyl-1-hexanol + carbon dioxide + 2-ethylhexanoic acid; phases: Fluid (supercritical or subcritical phases), Liquid
Fixed: Pressure, kPa = 13800
Property: Mole fraction of 2-ethylhexanoic acid (Fluid (supercritical or subcritical phases)); method: CHROM:UFactor:8
Temperature, K	Mole fraction of 2-ethyl-1-hexanol	Mole fraction of 2-ethylhexanoic acid	uncertainty
313	0.5	0.0316	0.002
323	0.5	0.0251	0.0016
333	0.25	0.0293	0.0019
333	0.33	0.028	0.0018
333	0.5	0.023	0.0015
333	0.67	0.0135	0.0009
333	0.75	0.0117	0.0008
333	0.5	0.0217	0.0014
343	0.5	0.0126	0.0008
