Measured thermophysical data. Densities and Excess and Partial Molar Volumes of Aqueous Pyrrolidine at 25 and 50 C and Aqueous Morpholine at 25 and 60 C
Source: J. Chem. Eng. Data, 2003, 10.1021/je020191g
Compound 1: pyrrolidine, C4H9N, InChI=1S/C4H9N/c1-2-4-5-3-1/h5H,1-4H2, purity 99%
Compound 2: tetrahydro-1,4-oxazine, C4H9NO, InChI=1S/C4H9NO/c1-3-6-4-2-5-1/h5H,1-4H2, purity 99%
Compound 3: water, H2O, InChI=1S/H2O/h1H2

System: pyrrolidine; phases: Liquid
Fixed: Pressure, kPa = 101.325
Property: Mass density, kg/m3 (Liquid); method: BUOYAN:UFactor:32
Temperature, K	Mass density, kg/m3	uncertainty
298.15	854.6	4.2
323.15	833.7	4.1

System: tetrahydro-1,4-oxazine; phases: Liquid
Fixed: Pressure, kPa = 101.325
Property: Mass density, kg/m3 (Liquid); method: BUOYAN:UFactor:32
Temperature, K	Mass density, kg/m3	uncertainty
298.15	996	4.9
333.15	965.9	4.7

System: water; phases: Liquid
Fixed: Pressure, kPa = 101.325
Property: Mass density, kg/m3 (Liquid); method: BUOYAN:UFactor:32
Temperature, K	Mass density, kg/m3	uncertainty
298.15	997.05	4.91
323.15	988.04	4.86
333.15	983.2	4.8

System: pyrrolidine + water; phases: Liquid
Fixed: Pressure, kPa = 101.325
Property: Mass density, kg/m3 (Liquid); method: BUOYAN:UFactor:32
Temperature, K	Mole fraction of pyrrolidine	Mass density, kg/m3	uncertainty
298.15	0	997.05	4.91
298.15	0.099	976	4.8
298.15	0.1	973.9	4.8
298.15	0.199	956.6	4.7
298.15	0.204	952.8	4.7
298.15	0.297	934.7	4.6
298.15	0.299	938.8	4.7
298.15	0.396	925.8	4.6
298.15	0.399	925.4	4.6
298.15	0.497	912.1	4.5
298.15	0.498	911.5	4.5
298.15	0.589	901.1	4.4
298.15	0.596	900.2	4.4
298.15	0.675	893.8	4.4
298.15	0.697	893.4	4.4
298.15	0.786	879.9	4.3
298.15	0.796	877.1	4.3
298.15	0.882	865.3	4.3
298.15	0.888	865.6	4.3
298.15	0.995	852.9	4.2
298.15	0	997.05	4.91
298.15	0.995	856.2	4.2
323.15	0	988.04	4.86
323.15	0.099	960	4.7
323.15	0.1	963.6	4.8
323.15	0.199	941.5	4.6
323.15	0.204	937.2	4.6
323.15	0.297	921.2	4.6
323.15	0.299	924.5	4.6
323.15	0.396	904	4.5
323.15	0.399	907.4	4.5
323.15	0.497	891.1	4.4
323.15	0.498	891.2	4.4
323.15	0.589	883.5	4.4
323.15	0.596	879.9	4.3
323.15	0.675	871.3	4.3
323.15	0.697	868.5	4.3
323.15	0.786	858.3	4.2
323.15	0.796	858.6	4.2
323.15	0.882	843.5	4.2
323.15	0.888	845.6	4.2
323.15	0.995	834.6	4.1
323.15	0	988.04	4.86
323.15	0.995	832.8	4.1

System: tetrahydro-1,4-oxazine + water; phases: Liquid
Fixed: Pressure, kPa = 101.325
Property: Mass density, kg/m3 (Liquid); method: BUOYAN:UFactor:32
Temperature, K	Mole fraction of tetrahydro-1,4-oxazine	Mass density, kg/m3	uncertainty
298.15	0	997.05	4.91
298.15	0.1	1010.6	5
298.15	0.199	1025.9	5
298.15	0.298	1030.9	5.1
298.15	0.299	1029.6	5.1
298.15	0.398	1028.4	5
298.15	0.497	1023.4	5.1
298.15	0.498	1025.5	5.1
298.15	0.591	1016.8	5
298.15	0.597	1019.4	5
298.15	0.692	1013.5	5
298.15	0.696	1013.5	5
298.15	0.793	1005.7	4.9
298.15	0.796	1003.9	4.9
298.15	0.895	997.4	4.9
298.15	0.897	999.2	4.9
298.15	0.995	996	4.9
298.15	0	997.05	4.91
298.15	0.1	1023.2	5
298.15	0.199	1031.5	5.1
298.15	0.398	1029.8	5.1
298.15	0.995	994.9	4.9
333.15	0	983.2	4.8
333.15	0.1	1001.2	4.9
333.15	0.199	1010.5	5
333.15	0.298	1010.6	5.1
333.15	0.299	1006.8	5.1
333.15	0.398	1006.1	4.9
333.15	0.497	1000.6	5.3
333.15	0.498	996.6	5.3
333.15	0.591	990.3	4.9
333.15	0.597	999	4.9
333.15	0.692	982.6	4.9
333.15	0.696	989.6	4.9
333.15	0.793	976	4.8
333.15	0.796	976.4	4.8
333.15	0.895	968.9	4.8
333.15	0.897	969.3	4.8
333.15	0.995	967.3	4.7
333.15	0	983.2	4.8
333.15	0.1	1005.4	4.9
333.15	0.199	1006.2	4.9
333.15	0.398	1005.1	4.9
333.15	0.995	964.4	4.7
