Measured thermophysical data. Measurements of Binary Diffusion Coefficient and Partition Ratio at Infinite Dilution for Linoleic Acid and Arachidonic Acid in Supercritical Carbon Dioxide
Source: J. Chem. Eng. Data, 2003, 10.1021/je020205i
Compound 1: (Z,Z)-9,12-octadecadienoic acid, C18H32O2, InChI=1S/C18H32O2/c1-2-3-4-5-6-7-8-9-10-11-12-13-14-15-16-17-18(19)20/h6-7,9-10H,2-5,8,11-17H2,1H3,(H,19,20)/b7-6-,10-9-
Compound 2: 5,8,11,14-eicosatetraenoic acid, C20H32O2, InChI=1S/C20H32O2/c1-2-3-4-5-6-7-8-9-10-11-12-13-14-15-16-17-18-19-20(21)22/h6-7,9-10,12-13,15-16H,2-5,8,11,14,17-19H2,1H3,(H,21,22)
Compound 3: carbon dioxide, CO2, InChI=1S/CO2/c2-1-3

System: (Z,Z)-9,12-octadecadienoic acid + carbon dioxide; phases: Fluid (supercritical or subcritical phases)
Fixed: Mole fraction of (Z,Z)-9,12-octadecadienoic acid = 0
Property: Binary diffusion coefficient, m2/s (Fluid (supercritical or subcritical phases)); method: Taylor dispersion method
Temperature, K	Pressure, kPa	Binary diffusion coefficient, m2/s	uncertainty
308.15	8500	8.7e-09	0.4
308.15	8970	8.31e-09	0.38
308.15	10000	7.53e-09	0.34
308.15	11020	7.33e-09	0.33
308.15	12000	6.89e-09	0.31
308.15	14000	6.45e-09	0.29
308.15	16010	6.13e-09	0.28
308.15	17470	6.02e-09	0.27
308.15	18020	5.9e-09	0.27
308.15	20000	5.85e-09	0.27
308.15	21000	5.71e-09	0.26
308.15	22030	5.69e-09	0.26
308.15	25000	5.26e-09	0.24
308.15	26000	5.2e-09	0.24
308.15	28050	5.05e-09	0.23
308.15	30300	4.96e-09	0.23
313.21	9490	9.47e-09	0.43
313.21	10040	8.74e-09	0.4
313.21	10990	8.03e-09	0.37
313.21	12000	7.7e-09	0.35
313.21	14020	7.17e-09	0.33
313.21	15980	6.75e-09	0.31
313.21	17980	6.47e-09	0.3
313.21	20000	6.13e-09	0.28
313.21	21990	5.97e-09	0.27
313.21	24000	5.77e-09	0.26
313.21	26010	5.63e-09	0.26
313.21	27990	5.46e-09	0.25
313.21	30040	5.49e-09	0.25
313.21	30110	5.39e-09	0.25
323.15	12020	8.9e-09	0.41
323.15	12510	9.15e-09	0.42
323.15	13000	8.86e-09	0.4
323.15	14000	8.58e-09	0.39
323.15	16000	7.76e-09	0.35
323.15	18000	7.39e-09	0.34
323.15	20010	7.06e-09	0.32
323.15	22000	6.83e-09	0.31
323.15	24000	6.57e-09	0.3
323.15	26000	6.37e-09	0.29
323.15	28020	6.12e-09	0.28
323.15	30290	5.9e-09	0.27
333.15	13890	9.59e-09	0.44
333.15	14480	9.99e-09	0.45
333.15	15000	9.67e-09	0.44
333.15	15980	9.33e-09	0.42
333.15	18000	8.66e-09	0.39
333.15	20000	8.28e-09	0.38
333.15	20050	8.17e-09	0.37
333.15	22000	7.82e-09	0.36
333.15	24020	7.58e-09	0.35
333.15	26060	7.21e-09	0.33
333.15	27020	7.14e-09	0.33
333.15	28020	7.03e-09	0.32
333.15	29040	6.99e-09	0.32
333.15	30070	6.82e-09	0.31
343.15	16200	1.017e-08	0.46
343.15	16210	1.039e-08	0.47
343.15	16990	1.019e-08	0.46
343.15	17990	9.85e-09	0.45
343.15	18000	9.84e-09	0.45
343.15	18990	9.43e-09	0.43
343.15	20000	9.01e-09	0.41
343.15	20040	9.18e-09	0.42
343.15	22000	8.71e-09	0.4
343.15	24000	8.37e-09	0.38
343.15	26010	8.11e-09	0.37
343.15	26990	7.88e-09	0.36
343.15	28010	7.77e-09	0.35
343.15	29050	7.81e-09	0.36
343.15	30030	7.64e-09	0.35

System: carbon dioxide + 5,8,11,14-eicosatetraenoic acid; phases: Fluid (supercritical or subcritical phases)
Fixed: Mole fraction of 5,8,11,14-eicosatetraenoic acid = 0
Property: Binary diffusion coefficient, m2/s (Fluid (supercritical or subcritical phases)); method: Taylor dispersion method
Temperature, K	Pressure, kPa	Binary diffusion coefficient, m2/s	uncertainty
308.15	9500	7.5e-09	0.34
308.15	10000	7.17e-09	0.33
308.15	10520	7.03e-09	0.32
308.15	10870	6.75e-09	0.31
308.15	11000	6.58e-09	0.3
308.15	11500	6.57e-09	0.3
308.15	12010	6.7e-09	0.31
308.15	12020	6.48e-09	0.3
308.15	12490	6.27e-09	0.29
308.15	12990	6.18e-09	0.28
308.15	14000	6.17e-09	0.28
308.15	15990	5.9e-09	0.27
308.15	17990	5.63e-09	0.26
308.15	20010	5.48e-09	0.25
308.15	22000	5.38e-09	0.25
308.15	24000	5.25e-09	0.24
308.15	26000	5.11e-09	0.23
308.15	28010	5.02e-09	0.23
308.15	30240	4.99e-09	0.23
308.15	30490	4.85e-09	0.22
313.21	9500	9.04e-09	0.41
313.21	10000	8.41e-09	0.38
313.21	11010	7.76e-09	0.35
313.21	12010	7.1e-09	0.32
313.21	14000	6.66e-09	0.3
313.21	16000	6.29e-09	0.29
313.21	18000	6.06e-09	0.28
313.21	20000	5.78e-09	0.26
313.21	22010	5.64e-09	0.26
313.21	24010	5.53e-09	0.25
313.21	26010	5.36e-09	0.24
313.21	28020	5.24e-09	0.24
313.21	30040	5.1e-09	0.23
313.21	30130	5.1e-09	0.23
323.15	12010	9.02e-09	0.41
323.15	12500	9.07e-09	0.41
323.15	13020	8.66e-09	0.39
323.15	13480	8.28e-09	0.38
323.15	14010	8.15e-09	0.37
323.15	15990	7.44e-09	0.34
323.15	18000	7.03e-09	0.32
323.15	20020	6.78e-09	0.31
323.15	21990	6.42e-09	0.29
323.15	24000	6.21e-09	0.28
323.15	26000	6.02e-09	0.27
323.15	28020	5.88e-09	0.27
323.15	30050	5.64e-09	0.26
323.15	30060	5.82e-09	0.27
333.15	13890	1.053e-08	0.48
333.15	15030	9.16e-09	0.42
333.15	15500	9.04e-09	0.41
333.15	16980	8.47e-09	0.39
333.15	17500	8.32e-09	0.38
333.15	19010	7.91e-09	0.36
333.15	19990	7.67e-09	0.35
333.15	22010	7.26e-09	0.33
333.15	24000	7.01e-09	0.32
333.15	26010	6.81e-09	0.31
333.15	26060	6.78e-09	0.31
333.15	28030	6.68e-09	0.3
333.15	30160	6.49e-09	0.3
343.15	16200	1.005e-08	0.46
343.15	16990	9.57e-09	0.44
343.15	17490	9.45e-09	0.43
343.15	18010	9.14e-09	0.42
343.15	18990	8.93e-09	0.41
343.15	19990	8.61e-09	0.39
343.15	21000	8.46e-09	0.39
343.15	22010	8.32e-09	0.38
343.15	22980	7.87e-09	0.36
343.15	23990	7.79e-09	0.35
343.15	26000	7.58e-09	0.35
343.15	28000	7.12e-09	0.49
343.15	28050	7.3e-09	0.5
343.15	30260	7.13e-09	0.33
