Measured thermophysical data. Isobaric Vapor-Liquid Equilibria for Water + Acetic Acid + Sodium Acetate
Source: J. Chem. Eng. Data, 2003, 10.1021/je0255123
Compound 1: water, H2O, InChI=1S/H2O/h1H2
Compound 2: acetic acid, C2H4O2, InChI=1S/C2H4O2/c1-2(3)4/h1H3,(H,3,4), purity 99.8%
Compound 3: sodium ethanoate, C2H3NaO2, InChI=1S/C2H4O2.Na/c1-2(3)4;/h1H3,(H,3,4);/q;+1/p-1, purity 99.5%

System: sodium ethanoate + water; phases: Liquid, Gas
Fixed: Pressure, kPa = 100
Property: Mole fraction of sodium ethanoate (Liquid); method: OTHER
Temperature, K	Mole fraction of sodium ethanoate	uncertainty
373.05	0.006	0.0025
373.35	0.0105	0.0026
373.75	0.0179	0.0027
374.15	0.0247	0.0025
374.65	0.0312	0.0025
375.05	0.0377	0.0024
375.55	0.0439	0.0024
376.05	0.0504	0.0024
376.55	0.057	0.0024
377.05	0.0632	0.0024
377.45	0.0688	0.0023
378.05	0.0744	0.0023
378.45	0.0793	0.0023
378.95	0.0844	0.0022
379.55	0.0898	0.0022
379.95	0.0945	0.0024
380.25	0.0986	0.0023
380.65	0.103	0.0022
381.15	0.1076	0.0022
381.45	0.1112	0.0023
381.85	0.1153	0.0023
382.25	0.1197	0.0023

System: acetic acid + sodium ethanoate; phases: Liquid, Gas
Fixed: Pressure, kPa = 100
Property: Mole fraction of sodium ethanoate (Liquid); method: OTHER
Temperature, K	Mole fraction of sodium ethanoate	uncertainty
390.55	0.0008	0.0008
390.65	0.0028	0.0028
390.75	0.0056	0.0027
390.95	0.0091	0.0029
391.15	0.0131	0.0029
391.35	0.0175	0.003
391.55	0.0222	0.0031
391.75	0.027	0.003
391.95	0.0316	0.0029
392.15	0.0358	0.0029
392.35	0.0387	0.0027
392.45	0.0412	0.0024
392.65	0.0439	0.0024
392.95	0.0469	0.0024
393.05	0.0493	0.0024
393.25	0.0517	0.0025
393.45	0.0546	0.0025
393.65	0.0569	0.0025
393.75	0.0598	0.0025
393.95	0.0621	0.0026
394.15	0.0652	0.0024
394.25	0.0669	0.0024
394.45	0.069	0.0024
394.65	0.0712	0.0023
394.85	0.074	0.0023
395.25	0.0775	0.0023
395.55	0.0817	0.0024
395.55	0.0849	0.0023
395.65	0.0841	0.0024
395.75	0.0877	0.0026
395.95	0.0862	0.0024
396.05	0.09	0.0022
396.35	0.0931	0.0024
396.55	0.0961	0.0023
396.75	0.0987	0.0024
397.15	0.103	0.0023
397.45	0.1061	0.0023
397.75	0.1102	0.0024

System: acetic acid + sodium ethanoate + water; phases: Liquid, Gas
Fixed: Pressure, kPa = 100
Property: Mole fraction of sodium ethanoate (Liquid); method: OTHER
Temperature, K	Solvent: Mole fraction of water	Mole fraction of sodium ethanoate	uncertainty
373.35	0.959	0.0059	0.0025
373.65	0.929	0.0066	0.002
373.65	0.942	0.0087	0.0024
373.95	0.879	0.0058	0.002
374.05	0.894	0.0101	0.002
374.05	0.913	0.0127	0.002
374.15	0.822	0.004	0.0025
374.15	0.924	0.0144	0.0025
374.45	0.828	0.008	0.0025
374.45	0.947	0.0208	0.0025
374.55	0.854	0.0139	0.0025
374.55	0.882	0.0175	0.0026
374.75	0.774	0.0051	0.002
374.75	0.888	0.02	0.0025
374.75	0.915	0.0239	0.0025
375.05	0.775	0.0103	0.002
375.15	0.805	0.0183	0.002
375.15	0.843	0.0231	0.002
375.25	0.714	0.0064	0.002
375.25	0.88	0.0276	0.0024
375.35	0.945	0.0344	0.0025
375.45	0.758	0.0167	0.002
375.45	0.817	0.0225	0.0025
375.55	0.896	0.0327	0.0024
375.65	0.719	0.0128	0.002
375.65	0.914	0.0365	0.0025
375.75	0.661	0.0038	0.002
375.75	0.843	0.0307	0.0024
375.85	0.752	0.0235	0.0026
375.95	0.655	0.0077	0.0026
375.95	0.801	0.0296	0.0025
376.05	0.88	0.0381	0.0025
376.25	0.701	0.0206	0.002
376.25	0.762	0.0289	0.002
376.35	0.668	0.0151	0.0026
376.45	0.597	0.0045	0.0026
376.45	0.841	0.0409	0.0025
376.65	0.703	0.0282	0.002
376.65	0.948	0.0532	0.0024
376.75	0.753	0.0364	0.0024
376.75	0.919	0.0529	0.0024
376.85	0.589	0.0092	0.0027
376.85	0.884	0.051	0.0024
376.95	0.796	0.0434	0.0025
377.05	0.643	0.0248	0.002
377.05	0.844	0.0501	0.002
377.15	0.705	0.0355	0.002
377.25	0.6	0.0182	0.0026
377.25	0.797	0.0485	0.002
377.45	0.534	0.0052	0.0029
377.55	0.65	0.0331	0.0026
377.65	0.704	0.0433	0.002
377.65	0.738	0.0478	0.0024
377.85	0.524	0.0107	0.002
377.95	0.585	0.0287	0.0025
377.95	0.658	0.0406	0.002
377.95	0.918	0.0676	0.0024
377.95	0.949	0.0689	0.0024
378.05	0.883	0.066	0.0024
378.25	0.833	0.0661	0.0024
378.35	0.524	0.0216	0.002
378.45	0.46	0.006	0.0027
378.45	0.597	0.0377	0.0025
378.45	0.656	0.0498	0.002
378.45	0.785	0.0646	0.0023
378.75	0.613	0.046	0.002
378.85	0.448	0.0125	0.002
378.85	0.73	0.0634	0.0024
378.95	0.528	0.0327	0.0026
379.25	0.913	0.0837	0.0023
379.35	0.615	0.0558	0.002
379.35	0.671	0.0615	0.0024
379.35	0.876	0.082	0.0023
379.45	0.538	0.0433	0.0026
379.55	0.826	0.0812	0.0023
379.55	0.946	0.0899	0.0023
379.65	0.386	0.0069	0.002
379.65	0.448	0.025	0.0026
379.85	0.778	0.0792	0.0023
379.95	0.47	0.0366	0.0025
379.95	0.602	0.0601	0.0024
380.15	0.38	0.014	0.0026
380.25	0.5	0.0471	0.0025
380.25	0.719	0.0788	0.0024
380.35	0.533	0.0552	0.0024
380.35	0.568	0.0621	0.002
380.65	0.65	0.0779	0.0024
380.75	0.323	0.0076	0.0026
380.75	0.873	0.0977	0.0023
380.75	0.915	0.1004	0.0023
380.85	0.427	0.0396	0.0025
380.85	0.95	0.1023	0.0023
380.95	0.384	0.0281	0.0026
380.95	0.823	0.0979	0.0023
381.25	0.45	0.0519	0.0025
381.25	0.584	0.0762	0.0023
381.25	0.768	0.0971	0.0023
381.35	0.486	0.0604	0.0024
381.45	0.31	0.0156	0.0025
381.55	0.515	0.0694	0.002
381.55	0.709	0.0955	0.0023
381.95	0.26	0.0083	0.002
381.95	0.521	0.0742	0.0023
381.95	0.65	0.0932	0.0023
382.05	0.37	0.0435	0.0024
382.15	0.873	0.1135	0.0023
382.15	0.913	0.1146	0.0023
382.15	0.949	0.1173	0.0023
382.25	0.826	0.1124	0.0023
382.35	0.316	0.0313	0.0025
382.35	0.447	0.0647	0.0025
382.45	0.588	0.0908	0.0023
382.55	0.393	0.0575	0.0025
382.55	0.465	0.0715	0.0024
382.55	0.773	0.111	0.0023
382.65	0.249	0.017	0.0024
382.85	0.713	0.1098	0.0023
383.15	0.446	0.0797	0.0024
383.15	0.52	0.0892	0.0024
383.25	0.643	0.1089	0.0024
383.65	0.187	0.0091	0.002
383.65	0.301	0.048	0.0025
383.75	0.255	0.0341	0.0025
383.75	0.388	0.0713	0.0024
383.85	0.577	0.1071	0.0024
383.95	0.455	0.0869	0.0023
384.05	0.329	0.0634	0.0025
384.35	0.184	0.0184	0.0025
384.55	0.4	0.0851	0.0023
384.55	0.512	0.1052	0.0024
384.75	0.391	0.0849	0.0024
384.85	0.252	0.0515	0.0024
384.85	0.347	0.0759	0.0025
385.25	0.285	0.0669	0.0024
385.35	0.446	0.1036	0.0024
385.55	0.185	0.0375	0.0025
385.65	0.124	0.0099	0.002
386.05	0.301	0.0808	0.0023
386.25	0.12	0.0199	0.0026
386.25	0.2	0.0546	0.0025
386.35	0.382	0.1023	0.0023
386.55	0.326	0.0952	0.002
386.75	0.231	0.0714	0.0023
387.15	0.324	0.1001	0.0022
387.25	0.262	0.0853	0.0023
387.55	0.122	0.0398	0.0024
387.85	0.376	0.1179	0.0023
388.05	0.146	0.0587	0.0023
388.05	0.19	0.0749	0.0023
388.05	0.271	0.098	0.0023
388.45	0.051	0.0107	0.0027
388.65	0.222	0.0899	0.0023
388.85	0.319	0.1168	0.0023
389.05	0.051	0.0214	0.0026
389.15	0.247	0.1058	0.0024
389.65	0.147	0.0786	0.0023
389.75	0.265	0.1151	0.0023
389.95	0.096	0.0625	0.0023
390.15	0.179	0.0947	0.0023
390.45	0.051	0.0432	0.0025
390.75	0.221	0.1113	0.0023
391.25	0.19	0.1127	0.0024
391.45	0.116	0.0868	0.0023
391.55	0.099	0.083	0.0023
391.95	0.048	0.0653	0.0024
391.95	0.131	0.1011	0.0021
392.55	0.115	0.0999	0.0023
393.35	0.085	0.0966	0.0022
393.75	0.05	0.0873	0.0023
393.75	0.063	0.0918	0.0022
393.85	0.139	0.1185	0.0021
395.25	0.056	0.1046	0.0022
395.35	0.076	0.1131	0.0022

System: acetic acid + sodium ethanoate + water; phases: Gas, Liquid
Fixed: Pressure, kPa = 100
Property: Mole fraction of water (Gas); method: OTHER
Temperature, K	Solvent: Mole fraction of water	Mole fraction of water	uncertainty
373.35	0.959	0.972	0.002
373.65	0.929	0.95	0.002
373.65	0.942	0.957	0.002
373.95	0.879	0.913	0.002
374.05	0.894	0.925	0.002
374.05	0.913	0.94	0.002
374.15	0.822	0.881	0.002
374.15	0.924	0.942	0.002
374.45	0.828	0.882	0.002
374.45	0.947	0.956	0.002
374.55	0.854	0.899	0.002
374.55	0.882	0.92	0.002
374.75	0.774	0.848	0.002
374.75	0.888	0.92	0.002
374.75	0.915	0.936	0.002
375.05	0.775	0.847	0.002
375.15	0.805	0.87	0.002
375.15	0.843	0.895	0.002
375.25	0.714	0.809	0.002
375.25	0.88	0.914	0.002
375.35	0.945	0.957	0.002
375.45	0.758	0.84	0.002
375.45	0.817	0.873	0.002
375.55	0.896	0.928	0.002
375.65	0.719	0.809	0.002
375.65	0.914	0.94	0.002
375.75	0.661	0.768	0.002
375.75	0.843	0.892	0.002
375.85	0.752	0.838	0.002
375.95	0.655	0.764	0.002
375.95	0.801	0.868	0.002
376.05	0.88	0.917	0.002
376.25	0.701	0.801	0.002
376.25	0.762	0.84	0.002
376.35	0.668	0.768	0.002
376.45	0.597	0.717	0.002
376.45	0.841	0.894	0.002
376.65	0.703	0.801	0.002
376.65	0.948	0.967	0.002
376.75	0.753	0.84	0.002
376.75	0.919	0.946	0.002
376.85	0.589	0.71	0.002
376.85	0.884	0.923	0.002
376.95	0.796	0.867	0.002
377.05	0.643	0.755	0.002
377.05	0.844	0.898	0.002
377.15	0.705	0.804	0.002
377.25	0.6	0.715	0.002
377.25	0.797	0.869	0.002
377.45	0.534	0.656	0.002
377.55	0.65	0.764	0.002
377.65	0.704	0.808	0.002
377.65	0.738	0.834	0.002
377.85	0.524	0.646	0.002
377.95	0.585	0.708	0.002
377.95	0.658	0.772	0.002
377.95	0.918	0.947	0.002
377.95	0.949	0.968	0.002
378.05	0.883	0.925	0.002
378.25	0.833	0.899	0.002
378.35	0.524	0.652	0.002
378.45	0.46	0.588	0.002
378.45	0.597	0.724	0.002
378.45	0.656	0.778	0.002
378.45	0.785	0.869	0.002
378.75	0.613	0.738	0.002
378.85	0.448	0.578	0.002
378.85	0.73	0.835	0.002
378.95	0.528	0.659	0.002
379.25	0.913	0.949	0.002
379.35	0.615	0.745	0.002
379.35	0.671	0.79	0.002
379.35	0.876	0.925	0.002
379.45	0.538	0.677	0.002
379.55	0.826	0.899	0.002
379.55	0.946	0.969	0.002
379.65	0.386	0.516	0.002
379.65	0.448	0.581	0.002
379.85	0.778	0.868	0.002
379.95	0.47	0.606	0.002
379.95	0.602	0.732	0.002
380.15	0.38	0.505	0.002
380.25	0.5	0.638	0.002
380.25	0.719	0.832	0.002
380.35	0.533	0.673	0.002
380.35	0.568	0.713	0.002
380.65	0.65	0.787	0.002
380.75	0.323	0.45	0.002
380.75	0.873	0.929	0.002
380.75	0.915	0.952	0.002
380.85	0.427	0.558	0.002
380.85	0.95	0.971	0.002
380.95	0.384	0.508	0.002
380.95	0.823	0.905	0.002
381.25	0.45	0.592	0.002
381.25	0.584	0.734	0.002
381.25	0.768	0.874	0.002
381.35	0.486	0.633	0.002
381.45	0.31	0.435	0.002
381.55	0.515	0.669	0.002
381.55	0.709	0.84	0.002
381.95	0.26	0.38	0.002
381.95	0.521	0.674	0.002
381.95	0.65	0.796	0.002
382.05	0.37	0.498	0.002
382.15	0.873	0.933	0.002
382.15	0.913	0.955	0.002
382.15	0.949	0.972	0.002
382.25	0.826	0.908	0.002
382.35	0.316	0.438	0.002
382.35	0.447	0.593	0.002
382.45	0.588	0.745	0.002
382.55	0.393	0.534	0.002
382.55	0.465	0.614	0.002
382.55	0.773	0.88	0.002
382.65	0.249	0.367	0.002
382.85	0.713	0.846	0.002
383.15	0.446	0.61	0.002
383.15	0.52	0.683	0.002
383.25	0.643	0.802	0.002
383.65	0.187	0.295	0.002
383.65	0.301	0.424	0.002
383.75	0.255	0.368	0.002
383.75	0.388	0.534	0.002
383.85	0.577	0.75	0.002
383.95	0.455	0.616	0.002
384.05	0.329	0.468	0.002
384.35	0.184	0.287	0.002
384.55	0.4	0.556	0.002
384.55	0.512	0.691	0.003
384.75	0.391	0.543	0.002
384.85	0.252	0.369	0.002
384.85	0.347	0.491	0.002
385.25	0.285	0.417	0.002
385.35	0.446	0.624	0.003
385.55	0.185	0.285	0.002
385.65	0.124	0.207	0.002
386.05	0.301	0.44	0.002
386.25	0.12	0.202	0.002
386.25	0.2	0.305	0.002
386.35	0.382	0.551	0.003
386.55	0.326	0.483	0.002
386.75	0.231	0.353	0.002
387.15	0.324	0.478	0.002
387.25	0.262	0.396	0.002
387.55	0.122	0.198	0.002
387.85	0.376	0.559	0.003
388.05	0.146	0.231	0.002
388.05	0.19	0.301	0.002
388.05	0.271	0.411	0.002
388.45	0.051	0.093	0.002
388.65	0.222	0.347	0.002
388.85	0.319	0.485	0.002
389.05	0.051	0.092	0.002
389.15	0.247	0.392	0.002
389.65	0.147	0.237	0.002
389.75	0.265	0.414	0.002
389.95	0.096	0.159	0.002
390.15	0.179	0.288	0.002
390.45	0.051	0.087	0.002
390.75	0.221	0.349	0.002
391.25	0.19	0.315	0.002
391.45	0.116	0.186	0.002
391.55	0.099	0.165	0.002
391.95	0.048	0.084	0.002
391.95	0.131	0.22	0.002
392.55	0.115	0.19	0.002
393.35	0.085	0.136	0.002
393.75	0.05	0.085	0.002
393.75	0.063	0.104	0.002
393.85	0.139	0.22	0.002
395.25	0.056	0.089	0.002
395.35	0.076	0.123	0.002
