Measured thermophysical data. Comprehensive Study of Vapor Pressures and Enthalpies of Vaporization of Cyclohexyl Esters
Source: J. Chem. Eng. Data, 2003, 10.1021/je025634v
Compound 1: cyclohexyl ethanoate, C8H14O2, InChI=1S/C8H14O2/c1-7(9)10-8-5-3-2-4-6-8/h8H,2-6H2,1H3
Compound 2: cyclohexyl methanoate, C7H12O2, InChI=1S/C7H12O2/c8-6-9-7-4-2-1-3-5-7/h6-7H,1-5H2
Compound 3: cyclohexyl propanoate, C9H16O2, InChI=1S/C9H16O2/c1-2-9(10)11-8-6-4-3-5-7-8/h8H,2-7H2,1H3
Compound 4: cyclohexyl butanoate, C10H18O2, InChI=1S/C10H18O2/c1-2-6-10(11)12-9-7-4-3-5-8-9/h9H,2-8H2,1H3
Compound 5: pentanoic acid, cyclohexyl ester, C11H20O2, InChI=1S/C11H20O2/c1-2-3-9-11(12)13-10-7-5-4-6-8-10/h10H,2-9H2,1H3

System: cyclohexyl ethanoate; phases: Liquid, Gas
Property: Molar enthalpy of vaporization or sublimation, kJ/mol (Liquid); method: Static calorimetry
Temperature, K	Molar enthalpy of vaporization or sublimation, kJ/mol	uncertainty
300.11	52.16	0.36

System: cyclohexyl ethanoate; phases: Liquid, Gas
Property: Vapor or sublimation pressure, kPa (Liquid); method: Calculated from knudsen effusion weight loss
Temperature, K	Vapor or sublimation pressure, kPa	uncertainty
253.47	0.00364	0.00038
258.42	0.00591	0.00065
263.5	0.00966	0.00113
268.51	0.0153	0.0019
273.12	0.0228	0.003
278.73	0.0382	0.0053
283.67	0.0579	0.0084
283.67	0.0574	0.0084
283.67	0.058	0.0085

System: cyclohexyl ethanoate; phases: Liquid, Gas
Property: Vapor or sublimation pressure, kPa (Liquid); method: TRANSPIR:UFactor:2
Temperature, K	Vapor or sublimation pressure, kPa	uncertainty
274.1	0.0231	0.0023
276.1	0.0273	0.0027
278.4	0.0338	0.0034
280.1	0.0393	0.0039
282.2	0.0453	0.0045
283.2	0.0517	0.0052
285.2	0.0575	0.0058
288.2	0.0751	0.0075
291.3	0.0924	0.0092
293.1	0.1105	0.0111
294.3	0.1121	0.0112
297.4	0.1417	0.0142
298.2	0.158	0.0158
300.4	0.1755	0.0176
303.1	0.2229	0.0223
306.5	0.2579	0.0258
308.2	0.3108	0.0311
309.6	0.3155	0.0316
313.2	0.4273	0.0427
318.2	0.5836	0.0584

System: cyclohexyl methanoate; phases: Liquid, Gas
Property: Molar enthalpy of vaporization or sublimation, kJ/mol (Liquid); method: Static calorimetry
Temperature, K	Molar enthalpy of vaporization or sublimation, kJ/mol	uncertainty
303.52	48.82	0.46

System: cyclohexyl methanoate; phases: Liquid, Gas
Property: Vapor or sublimation pressure, kPa (Liquid); method: Calculated from knudsen effusion weight loss
Temperature, K	Vapor or sublimation pressure, kPa	uncertainty
242.71	0.00366	0.00038
243.01	0.00329	0.00034
248.25	0.00559	0.00061
253.02	0.00949	0.00111
253.47	0.0102	0.0012
258.09	0.0153	0.0019
258.5	0.0165	0.0021
263.13	0.0249	0.0033
263.64	0.0277	0.0037
265.94	0.0324	0.0044
268.44	0.0407	0.0057
271.24	0.0532	0.0077
273.15	0.057	0.0083
273.16	0.0592	0.0086
273.17	0.0612	0.009
273.18	0.0617	0.0091

System: cyclohexyl propanoate; phases: Liquid, Gas
Property: Molar enthalpy of vaporization or sublimation, kJ/mol (Liquid); method: Static calorimetry
Temperature, K	Molar enthalpy of vaporization or sublimation, kJ/mol	uncertainty
300.55	55.73	0.27

System: cyclohexyl propanoate; phases: Liquid, Gas
Property: Vapor or sublimation pressure, kPa (Liquid); method: Calculated from knudsen effusion weight loss
Temperature, K	Vapor or sublimation pressure, kPa	uncertainty
253.48	0.00111	0.0001
263.63	0.00313	0.00032
273.19	0.008	0.00091
278.71	0.0131	0.0016
287.63	0.0287	0.0038
289.63	0.035	0.0048
293.55	0.0473	0.0067
293.56	0.0471	0.0067
293.57	0.0475	0.0068

System: cyclohexyl propanoate; phases: Liquid, Gas
Property: Vapor or sublimation pressure, kPa (Liquid); method: Transpiration method
Temperature, K	Vapor or sublimation pressure, kPa	uncertainty
274.7	0.0084	0.0004
276.7	0.0104	0.0005
278.7	0.0121	0.0006
280.7	0.0146	0.0007
282.8	0.0172	0.0009
284.8	0.0198	0.001
286.8	0.0245	0.0012
288.8	0.0278	0.0014
290.9	0.0336	0.0017
292.9	0.0387	0.0019
294.9	0.0441	0.0022
297	0.052	0.0026
299	0.0606	0.003
301	0.0696	0.0035
303	0.0807	0.004
305.1	0.0945	0.0047
307.1	0.1081	0.0054
309.1	0.1226	0.0061
311.2	0.1428	0.0071
313.2	0.1635	0.0082

System: cyclohexyl butanoate; phases: Liquid, Gas
Property: Molar enthalpy of vaporization or sublimation, kJ/mol (Liquid); method: Static calorimetry
Temperature, K	Molar enthalpy of vaporization or sublimation, kJ/mol	uncertainty
315.57	58.72	0.46

System: cyclohexyl butanoate; phases: Liquid, Gas
Property: Vapor or sublimation pressure, kPa (Liquid); method: Calculated from knudsen effusion weight loss
Temperature, K	Vapor or sublimation pressure, kPa	uncertainty
273.17	0.00277	0.00028
282.9	0.00677	0.00076
285.4	0.00887	0.00103
287.95	0.0108	0.0013
290.33	0.0132	0.0016
295.19	0.0197	0.0025
300.19	0.0304	0.0041
305.21	0.0449	0.0064
305.23	0.0446	0.0063
305.24	0.045	0.0064
310.41	0.067	0.0099

System: cyclohexyl butanoate; phases: Liquid, Gas
Property: Vapor or sublimation pressure, kPa (Liquid); method: Transpiration method
Temperature, K	Vapor or sublimation pressure, kPa	uncertainty
278	0.0043	0.0002
280	0.0052	0.0003
282.1	0.0062	0.0003
282.1	0.0062	0.0003
284.1	0.0074	0.0004
287.2	0.0097	0.0005
288.1	0.01	0.0005
290.2	0.0128	0.0006
293.1	0.015	0.0008
293.2	0.0161	0.0008
296.3	0.0207	0.001
298.2	0.0243	0.0012
299.3	0.0262	0.0013
302.4	0.0331	0.0017
303.1	0.036	0.0018
305.4	0.0408	0.002
308.2	0.0515	0.0026
308.5	0.0522	0.0026
313.2	0.0759	0.0038

System: pentanoic acid, cyclohexyl ester; phases: Liquid, Gas
Property: Molar enthalpy of vaporization or sublimation, kJ/mol (Liquid); method: Static calorimetry
Temperature, K	Molar enthalpy of vaporization or sublimation, kJ/mol	uncertainty
299.54	63.6	0.33

System: pentanoic acid, cyclohexyl ester; phases: Liquid, Gas
Property: Vapor or sublimation pressure, kPa (Liquid); method: Calculated from knudsen effusion weight loss
Temperature, K	Vapor or sublimation pressure, kPa	uncertainty
273.16	0.000777	4.8e-05
283.54	0.00223	0.00022
288.55	0.00357	0.00037
293.49	0.00547	0.0006
298.34	0.00844	0.00097
303.34	0.0133	0.0016
308.35	0.0196	0.0025
313.26	0.0288	0.0039
318.18	0.0432	0.0061
318.18	0.0428	0.006
318.24	0.0428	0.006

System: pentanoic acid, cyclohexyl ester; phases: Liquid, Gas
Property: Vapor or sublimation pressure, kPa (Liquid); method: TRANSPIR:UFactor:2
Temperature, K	Vapor or sublimation pressure, kPa	uncertainty
293.2	0.0047	0.0005
293.2	0.0047	0.0005
293.2	0.0049	0.0005
296.2	0.0063	0.0006
297.2	0.0067	0.0007
299.2	0.0083	0.0008
300.2	0.0089	0.0009
302.2	0.0102	0.001
303.2	0.0112	0.0011
305.2	0.013	0.0013
306.2	0.0143	0.0014
308.2	0.0158	0.0016
308.2	0.0154	0.0015
308.2	0.0158	0.0016
309.2	0.0179	0.0018
311.2	0.02	0.002
312.2	0.0213	0.0021
314.2	0.025	0.0025
315.2	0.0264	0.0026
317.2	0.0315	0.0032
319.2	0.038	0.0038
320.2	0.0403	0.004
321.2	0.0433	0.0043
323.2	0.0482	0.0048
323.2	0.0482	0.0048
326.2	0.0601	0.006
326.2	0.0601	0.006
329.2	0.0783	0.0078
329.2	0.0783	0.0078
332.2	0.0936	0.0094
332.2	0.0936	0.0094
