Measured thermophysical data. Vapor-Liquid Equilibrium of CO2 in Aqueous Solutions of 2-Amino-2-methyl-1-propanol
Source: J. Chem. Eng. Data, 2003, 10.1021/je0201626
Compound 1: carbon dioxide, CO2, InChI=1S/CO2/c2-1-3, purity 99.995%
Compound 2: 2-amino-2-methylpropan-1-ol, C4H11NO, InChI=1S/C4H11NO/c1-4(2,5)3-6/h6H,3,5H2,1-2H3, purity 98%
Compound 3: water, H2O, InChI=1S/H2O/h1H2

System: carbon dioxide + 2-amino-2-methylpropan-1-ol + water; phases: Liquid, Gas
Property: Amount ratio of solute to solvent of carbon dioxide (Liquid); method: OTHER
Temperature, K	Amount concentration (molarity), mol/dm3 of 2-amino-2-methylpropan-1-ol	Pressure, kPa of carbon dioxide	Amount ratio of solute to solvent of carbon dioxide	uncertainty
303	2	4.41	0.674	0.021
303	2	7.94	0.792	0.024
303	2	10.3	0.82	0.025
303	2	27.2	0.907	0.027
303	2	39.4	0.929	0.028
303	2	52.2	0.946	0.028
303	2	90.1	0.966	0.029
303	2.8	4.05	0.689	0.021
303	2.8	8.71	0.74	0.022
303	2.8	10.9	0.784	0.024
303	2.8	16.2	0.82	0.025
303	2.8	18.4	0.842	0.025
303	2.8	24.1	0.85	0.026
303	2.8	48.1	0.901	0.027
303	2.8	58	0.911	0.027
303	2.8	64.8	0.92	0.028
303	2.8	76.2	0.932	0.028
303	2.8	87.5	0.938	0.028
303	3.4	3.86	0.599	0.019
303	3.4	6.78	0.665	0.02
303	3.4	8.37	0.693	0.021
303	3.4	16.2	0.757	0.023
303	3.4	30.5	0.813	0.024
303	3.4	53	0.848	0.025
303	3.4	94	0.889	0.027
313	2.8	3.25	0.527	0.017
313	2.8	4.49	0.566	0.018
313	2.8	8.39	0.656	0.02
313	2.8	16.8	0.743	0.022
313	2.8	26.2	0.804	0.024
313	2.8	57.8	0.897	0.027
313	2.8	71.4	0.911	0.027
313	2.8	91.5	0.924	0.028
313	3.4	3.2	0.475	0.015
313	3.4	4.8	0.525	0.017
313	3.4	12.8	0.673	0.02
313	3.4	24.6	0.756	0.023
313	3.4	47.6	0.801	0.024
313	3.4	64.8	0.851	0.026
313	3.4	93	0.876	0.026
323	2.8	4.62	0.43	0.013
323	2.8	15.2	0.605	0.018
323	2.8	29.2	0.713	0.021
323	2.8	55.8	0.802	0.024
323	2.8	71.4	0.825	0.025
323	2.8	91.1	0.841	0.025
323	3.4	5.25	0.412	0.013
323	3.4	9.89	0.532	0.016
323	3.4	22.3	0.623	0.019
323	3.4	52.2	0.746	0.022
323	3.4	88.2	0.781	0.023
