Measured thermophysical data. Solubility of Rofecoxib in the Presence of Methanol, Ethanol, and Sodium Lauryl Sulfate at (298.15, 303.15, and 308.15) K
Source: J. Chem. Eng. Data, 2003, 10.1021/je020213z
Compound 1: rofecoxib, C17H14O4S, InChI=1S/C17H14O4S/c1-22(19,20)14-9-7-12(8-10-14)15-11-21-17(18)16(15)13-5-3-2-4-6-13/h2-10H,11H2,1H3
Compound 2: methanol, CH4O, InChI=1S/CH4O/c1-2/h2H,1H3
Compound 3: ethanol, C2H6O, InChI=1S/C2H6O/c1-2-3/h3H,2H2,1H3
Compound 4: water, H2O, InChI=1S/H2O/h1H2
Compound 5: sodium dodecyl sulfate, C12H25NaO4S, InChI=1S/C12H26O4S.Na/c1-2-3-4-5-6-7-8-9-10-11-12-16-17(13,14)15;/h2-12H2,1H3,(H,13,14,15);/q;+1/p-1

System: methanol + water + rofecoxib; phases: Liquid, Crystal
Fixed: Pressure, kPa = 101
Property: Mass concentration, kg/m3 of rofecoxib (Liquid); method: OTHER
Temperature, K	Solvent: Mass fraction of methanol	Mass concentration, kg/m3 of rofecoxib	uncertainty
298.15	0	0.00819	0.00164
298.15	0.2	0.0243	0.005
298.15	0.4	0.1323	0.0266
298.15	0.6	0.5383	0.1077
298.15	0.8	1.22	0.245
298.15	1	1.4	0.281
303.15	0	0.00936	0.00187
303.15	0.2	0.02965	0.00594
303.15	0.4	0.1562	0.0313
303.15	0.6	0.7303	0.1463
303.15	0.8	1.509	0.302
303.15	1	1.961	0.393
308.15	0	0.01118	0.00224
308.15	0.2	0.04488	0.00941
308.15	0.4	0.2452	0.0502
308.15	0.6	0.9735	0.1952
308.15	0.8	1.977	0.396
308.15	1	2.751	0.551

System: ethanol + water + rofecoxib; phases: Liquid, Crystal
Fixed: Pressure, kPa = 101
Property: Mass concentration, kg/m3 of rofecoxib (Liquid); method: OTHER
Temperature, K	Solvent: Mass fraction of ethanol	Mass concentration, kg/m3 of rofecoxib	uncertainty
298.15	0	0.00819	0.00164
298.15	0.2	0.02526	0.00536
298.15	0.4	0.2287	0.0457
298.15	0.6	0.6335	0.1272
298.15	0.8	0.8792	0.1772
298.15	1	0.3905	0.0782
303.15	0	0.00936	0.00187
303.15	0.2	0.04244	0.00851
303.15	0.4	0.3066	0.0614
303.15	0.6	0.8653	0.1734
303.15	0.8	1.187	0.238
303.15	1	0.506	0.101
308.15	0	0.01118	0.00224
308.15	0.2	0.05561	0.0121
308.15	0.4	0.4187	0.0843
308.15	0.6	1.183	0.237
308.15	0.8	1.381	0.276
308.15	1	0.6144	0.123

System: sodium dodecyl sulfate + water + rofecoxib; phases: Liquid, Crystal
Fixed: Pressure, kPa = 101
Property: Mass concentration, kg/m3 of rofecoxib (Liquid); method: OTHER
Temperature, K	Solvent: Mass fraction of sodium dodecyl sulfate	Mass concentration, kg/m3 of rofecoxib	uncertainty
298.15	0	0.00819	0.00164
298.15	0.005	0.0429	0.0086
298.15	0.01	0.08608	0.01724
298.15	0.015	0.1177	0.0236
298.15	0.02	0.1457	0.0292
303.15	0	0.00936	0.00187
303.15	0.005	0.04903	0.00981
303.15	0.01	0.1038	0.0208
303.15	0.015	0.1448	0.029
303.15	0.02	0.1873	0.0375
308.15	0	0.01118	0.00224
308.15	0.005	0.0543	0.0109
308.15	0.01	0.1055	0.0211
308.15	0.015	0.1511	0.0302
308.15	0.02	0.1907	0.0381

System: water + rofecoxib; phases: Liquid, Crystal
Fixed: Pressure, kPa = 101
Property: Mass concentration, kg/m3 of rofecoxib (Liquid); method: OTHER
Temperature, K	Mass concentration, kg/m3 of rofecoxib	uncertainty
298.15	0.00819	0.00164
303.15	0.00936	0.00187
308.15	0.01118	0.00224
