Measured thermophysical data. Excess Molar Volumes, Viscosities, and Heat Capacities for the Mixtures of Ethylene Glycol + Water from 273.15 K to 353.15 K
Source: J. Chem. Eng. Data, 2003, 10.1021/je020140j
Compound 1: 1,2-ethanediol, C2H6O2, InChI=1S/C2H6O2/c3-1-2-4/h3-4H,1-2H2
Compound 2: water, H2O, InChI=1S/H2O/h1H2

System: 1,2-ethanediol; phases: Liquid
Fixed: Pressure, kPa = 101
Property: Mass density, kg/m3 (Liquid); method: PYCNOM:UFactor:16
Temperature, K	Mass density, kg/m3	uncertainty
293.15	1113.7	4.3
303.15	1103.2	4.6
313.15	1093.6	4.9
323.15	1084.7	5.3
333.15	1076.4	5.6
343.15	1067.5	5.9
353.15	1060	6.3

System: 1,2-ethanediol; phases: Liquid
Fixed: Pressure, kPa = 101
Property: Viscosity, Pa*s (Liquid); method: CAPTUB:UFactor:3
Temperature, K	Viscosity, Pa*s	uncertainty
293.15	0.020833	0.000267
303.15	0.013646	0.000183
313.15	0.009443	0.000133
323.15	0.006992	0.000105
333.15	0.00506	8.2e-05
343.15	0.003987	6.6e-05
353.15	0.003021	5.1e-05

System: 1,2-ethanediol; phases: Liquid
Fixed: Pressure, kPa = 101
Property: Molar heat capacity at constant pressure, J/K/mol (Liquid); method: Small sample (50 mg) DSC
Temperature, K	Molar heat capacity at constant pressure, J/K/mol	uncertainty
293.15	147.47318784	3.59993472
303.15	149.70763008	3.66200256
313.15	152.00414016	3.7240704
323.15	153.80410752	3.78613824
333.15	156.22475328	3.84820608
343.15	159.70055232	3.91027392
353.15	161.00397696	3.97234176
363.15	164.97631872	4.0344096
373.15	168.45211776	4.09647744

System: 1,2-ethanediol + water; phases: Liquid
Fixed: Pressure, kPa = 101
Property: Mass density, kg/m3 (Liquid); method: PYCNOM:UFactor:16
Mole fraction of 1,2-ethanediol	Temperature, K	Mass density, kg/m3	uncertainty
0	293.15	998.2	3.7
0	303.15	995.7	4.1
0	313.15	992.2	4.4
0	323.15	988.1	4.8
0	333.15	983.2	5.1
0	343.15	977.8	5.5
0	353.15	971.8	5.8
0.0312	293.15	1011.7	3.8
0.0312	303.15	1006.1	4.1
0.0312	313.15	1001.3	4.5
0.0312	323.15	994.9	4.8
0.0312	333.15	989.8	5.2
0.0312	343.15	983.7	5.5
0.0312	353.15	977.1	5.8
0.0676	293.15	1024.6	3.9
0.0676	303.15	1018.4	4.2
0.0676	313.15	1010.6	4.5
0.0676	323.15	1005.1	4.9
0.0676	333.15	997.9	5.2
0.0676	343.15	991.5	5.5
0.0676	353.15	984.7	5.9
0.1105	293.15	1037.2	3.9
0.1105	303.15	1030	4.3
0.1105	313.15	1021.9	4.6
0.1105	323.15	1015.1	4.9
0.1105	333.15	1007.2	5.3
0.1105	343.15	1000.4	5.6
0.1105	353.15	993.6	5.9
0.162	293.15	1051.3	4
0.162	303.15	1043.4	4.3
0.162	313.15	1034.7	4.6
0.162	323.15	1027.4	5
0.162	333.15	1019.2	5.3
0.162	343.15	1011.5	5.6
0.162	353.15	1003.8	6
0.2248	293.15	1064.8	4.1
0.2248	303.15	1056.2	4.4
0.2248	313.15	1046.8	4.7
0.2248	323.15	1038.6	5
0.2248	333.15	1030.3	5.4
0.2248	343.15	1022.3	5.7
0.2248	353.15	1014	6
0.3031	293.15	1076.7	4.1
0.3031	303.15	1067.5	4.4
0.3031	313.15	1057.9	4.8
0.3031	323.15	1049.2	5.1
0.3031	333.15	1040.6	5.4
0.3031	343.15	1031.9	5.7
0.3031	353.15	1023.7	6.1
0.4036	293.15	1087.8	4.2
0.4036	303.15	1078	5
0.4036	313.15	1067.9	4.8
0.4036	323.15	1059	5
0.4036	333.15	1050.3	5.5
0.4036	343.15	1041.3	5.8
0.4036	353.15	1033	6
0.537	293.15	1097.8	4.2
0.537	303.15	1087	5
0.537	313.15	1077.1	4.9
0.537	323.15	1068	5
0.537	333.15	1059.2	5.5
0.537	343.15	1050.1	5.8
0.537	353.15	1042	6
0.723	293.15	1105.7	4.3
0.723	303.15	1095.5	4.6
0.723	313.15	1085.8	4.9
0.723	323.15	1076.7	5.2
0.723	333.15	1068	6
0.723	343.15	1058.8	5.9
0.723	353.15	1050.9	6.2
1	293.15	1113.7	4.3
1	303.15	1103.2	4.6
1	313.15	1093.6	4.9
1	323.15	1084.7	5.3
1	333.15	1076.4	5.6
1	343.15	1067.5	5.9
1	353.15	1060	6.3

System: 1,2-ethanediol + water; phases: Liquid
Fixed: Pressure, kPa = 101
Property: Viscosity, Pa*s (Liquid); method: CAPTUB:UFactor:3
Mole fraction of 1,2-ethanediol	Temperature, K	Viscosity, Pa*s	uncertainty
0	293.15	0.001002	1.9e-05
0	303.15	0.000797	1.5e-05
0	313.15	0.000653	1.3e-05
0	323.15	0.000547	1.2e-05
0	333.15	0.000467	1.1e-05
0	343.15	0.000405	1e-05
0	353.15	0.000356	1e-05
0.0312	293.15	0.001337	2.4e-05
0.0312	303.15	0.001047	1.9e-05
0.0312	313.15	0.000835	1.6e-05
0.0312	323.15	0.000685	1.4e-05
0.0312	333.15	0.000576	1.2e-05
0.0312	343.15	0.000498	1.1e-05
0.0312	353.15	0.000434	1e-05
0.0676	293.15	0.001785	3.1e-05
0.0676	303.15	0.001331	2.4e-05
0.0676	313.15	0.001022	1.9e-05
0.0676	323.15	0.000868	1.6e-05
0.0676	333.15	0.000713	1.4e-05
0.0676	343.15	0.000597	1.3e-05
0.0676	353.15	0.000525	1.2e-05
0.1105	293.15	0.002272	3.9e-05
0.1105	303.15	0.001694	3e-05
0.1105	313.15	0.001319	2.4e-05
0.1105	323.15	0.001064	2e-05
0.1105	333.15	0.000875	1.7e-05
0.1105	343.15	0.000728	1.4e-05
0.1105	353.15	0.000629	1.3e-05
0.162	293.15	0.002951	5e-05
0.162	303.15	0.0022	3.8e-05
0.162	313.15	0.001677	2.9e-05
0.162	323.15	0.001322	2.4e-05
0.162	333.15	0.001073	2e-05
0.162	343.15	0.000881	1.7e-05
0.162	353.15	0.000758	1.5e-05
0.2248	293.15	0.003941	6.5e-05
0.2248	303.15	0.002832	4.8e-05
0.2248	313.15	0.002132	3.7e-05
0.2248	323.15	0.001657	2.9e-05
0.2248	333.15	0.001312	2.4e-05
0.2248	343.15	0.001071	2e-05
0.2248	353.15	0.000906	1.7e-05
0.3031	293.15	0.005102	8.3e-05
0.3031	303.15	0.003728	6.2e-05
0.3031	313.15	0.002756	4.7e-05
0.3031	323.15	0.002113	3.6e-05
0.3031	333.15	0.001626	2.9e-05
0.3031	343.15	0.00132	2.4e-05
0.3031	353.15	0.0011	2e-05
0.4036	293.15	0.006898	0.000104
0.4036	303.15	0.004955	8.1e-05
0.4036	313.15	0.003575	5.9e-05
0.4036	323.15	0.002709	4.6e-05
0.4036	333.15	0.002053	3.5e-05
0.4036	343.15	0.001648	2.9e-05
0.4036	353.15	0.001359	2.4e-05
0.537	293.15	0.009696	0.000136
0.537	303.15	0.006749	0.000102
0.537	313.15	0.004776	7.8e-05
0.537	323.15	0.003593	6e-05
0.537	333.15	0.002684	4.5e-05
0.537	343.15	0.002136	3.7e-05
0.537	353.15	0.001748	3.1e-05
0.723	293.15	0.014042	0.000187
0.723	303.15	0.009399	0.000133
0.723	313.15	0.006449	9.9e-05
0.723	323.15	0.004837	7.9e-05
0.723	333.15	0.00351	5.8e-05
0.723	343.15	0.002817	4.8e-05
0.723	353.15	0.002296	3.9e-05
1	293.15	0.020833	0.000267
1	303.15	0.013646	0.000183
1	313.15	0.009443	0.000133
1	323.15	0.006992	0.000105
1	333.15	0.00506	8.2e-05
1	343.15	0.003987	6.6e-05
1	353.15	0.003021	5.1e-05

System: 1,2-ethanediol + water; phases: Liquid
Fixed: Pressure, kPa = 101
Property: Molar heat capacity at constant pressure, J/K/mol (Liquid); method: Small sample (50 mg) DSC
Mole fraction of 1,2-ethanediol	Temperature, K	Molar heat capacity at constant pressure, J/K/mol	uncertainty
0.1105	293.15	86.70401997732	2.12812717284
0.1105	303.15	87.04726629552	2.12812717284
0.1105	313.15	87.48204496524	2.15101026072
0.1105	323.15	87.527811141	2.15101026072
0.1105	333.15	87.7566420198	2.15101026072
0.1105	343.15	88.30583612892	2.1738933486
0.1105	353.15	88.96944567744	2.1738933486
0.1105	363.15	89.26692581988	2.19677643648
0.1105	373.15	89.51863978656	2.19677643648
0.162	293.15	89.38947843488	2.18820614064
0.162	303.15	89.6661481768	2.18820614064
0.162	313.15	90.47100560784	2.21335793536
0.162	323.15	90.99919329696	2.23850973008
0.162	333.15	91.50222919136	2.23850973008
0.162	343.15	92.5586045696	2.2636615248
0.162	353.15	92.3070866224	2.2636615248
0.162	363.15	93.51437276896	2.28881331952
0.162	373.15	93.89164968976	2.28881331952
0.2248	293.15	93.610044771264	2.289300230016
0.2248	303.15	94.419675340416	2.317218525504
0.2248	313.15	94.894286363712	2.317218525504
0.2248	323.15	95.927263296768	2.345136820992
0.2248	333.15	96.59730238848	2.37305511648
0.2248	343.15	97.462769548608	2.400973411968
0.2248	353.15	98.607419663616	2.428891707456
0.2248	363.15	99.612478301184	2.428891707456
0.2248	373.15	100.22668080192	2.456810002944
0.3031	293.15	98.368827895296	2.415306042072
0.3031	303.15	99.153018168696	2.415306042072
0.3031	313.15	100.313619773328	2.446673653008
0.3031	323.15	101.882000320128	2.50940887488
0.3031	333.15	102.383882095104	2.50940887488
0.3031	343.15	103.638586532544	2.540776485816
0.3031	353.15	104.987393802792	2.572144096752
0.3031	363.15	106.524406738656	2.603511707688
0.3031	373.15	107.465435066736	2.634879318624
0.4036	293.15	104.664267763584	2.577232311552
0.4036	303.15	105.988678812576	2.613027204768
0.4036	313.15	108.064782619104	2.648822097984
0.4036	323.15	109.53237324096	2.6846169912
0.4036	333.15	110.999963862816	2.720411884416
0.4036	343.15	111.930631086432	2.756206777632
0.4036	353.15	113.82776042688	2.792001670848
0.4036	363.15	115.044786796224	2.827796564064
0.4036	373.15	116.011248913056	2.827796564064
0.537	293.15	114.30493744696	2.79199081624
0.537	303.15	115.72176860744	2.83366232096
0.537	313.15	117.68032932928	2.87533382568
0.537	323.15	119.76390456528	2.9170053304
0.537	333.15	121.18073572576	2.95867683512
0.537	343.15	122.84759591456	3.00034833984
0.537	353.15	124.97284265528	3.04201984456
0.537	363.15	126.80638886296	3.125362854
0.537	373.15	128.22322002344	3.125362854
0.723	293.15	127.9044454572	3.14151269544
0.723	303.15	129.45026916448	3.19137797632
0.723	313.15	131.19555399528	3.19137797632
0.723	323.15	133.389626354	3.29110853808
0.723	333.15	135.3842375892	3.34097381896
0.723	343.15	138.07696275672	3.39083909984
0.723	353.15	140.57022680072	3.44070438072
0.723	363.15	142.16591578888	3.4905696616
0.723	373.15	144.3599881476	3.54043494248
1	293.15	147.47318784	3.59993472
1	303.15	149.70763008	3.66200256
1	313.15	152.00414016	3.7240704
1	323.15	153.80410752	3.78613824
1	333.15	156.22475328	3.84820608
1	343.15	159.70055232	3.91027392
1	353.15	161.00397696	3.97234176
1	363.15	164.97631872	4.0344096
1	373.15	168.45211776	4.09647744
0	293.15	75.28585512	1.83755856
0	303.15	75.37593152	1.83755856
0	313.15	75.213794	1.83755856
0	323.15	75.23180928	1.83755856
0	333.15	75.213794	1.83755856
0	343.15	75.32188568	1.83755856
0	353.15	75.4840232	1.85557384
0.0312	293.15	88.02932821888	2.152258905792
0.0312	303.15	87.893600179776	2.152258905792
0.0312	313.15	88.358953456704	2.171648625664
0.0312	323.15	88.630409534912	2.171648625664
0.0312	333.15	88.80491701376	2.171648625664
0.0312	343.15	88.882475893248	2.171648625664
0.0312	353.15	89.153931971456	2.191038345536
0.0312	363.15	89.250880570816	2.191038345536
0.0676	293.15	87.604761542688	2.141309771712
0.0676	303.15	87.814693873248	2.141309771712
0.0676	313.15	88.192572068256	2.162303004768
0.0676	323.15	88.59144349632	2.162303004768
0.0676	333.15	88.990314924384	2.183296237824
0.0676	343.15	89.095281089664	2.183296237824
0.0676	353.15	89.473159284672	2.183296237824
0.0676	363.15	89.599118683008	2.20428947088
