Measured thermophysical data. Vapor-Liquid-Liquid Equilibrium (VLLE) and Vapor Pressure Data for the Systems 2-Methyl-1,3-dioxolane (2MD) + Water and 2,4-Dimethyl-1,3-dioxolane (24DMD) + Water
Source: J. Chem. Eng. Data, 2003, 10.1021/je025534p
Compound 1: 2-methyl-1,3-dioxolane, C4H8O2, InChI=1S/C4H8O2/c1-4-5-2-3-6-4/h4H,2-3H2,1H3
Compound 2: 2,4-dimethyl-1,3-dioxolane, C5H10O2, InChI=1S/C5H10O2/c1-4-3-6-5(2)7-4/h4-5H,3H2,1-2H3
Compound 3: water, H2O, InChI=1S/H2O/h1H2

System: 2-methyl-1,3-dioxolane; phases: Liquid, Gas
Property: Vapor or sublimation pressure, kPa (Liquid); method: Ebulliometric method (Recirculating still)
Temperature, K	Vapor or sublimation pressure, kPa	uncertainty
298	11.29	4
303	14.2	4
308	17.72	4
313	21.98	4
318	27.07	4.01
323	33.15	4.01
328	40.35	4.01
333	48.83	4.02
338	58.78	4.02
343	70.39	4.03
348	83.87	4.04
353	99.46	4.05
356	99	9.9

System: 2,4-dimethyl-1,3-dioxolane; phases: Liquid, Gas
Property: Vapor or sublimation pressure, kPa (Liquid); method: Ebulliometric method (Recirculating still)
Temperature, K	Vapor or sublimation pressure, kPa	uncertainty
298	8.89	4
303	11.17	4
308	13.9	4
313	17.17	4
318	21.04	4
323	25.62	4
328	30.97	4.01
333	37.21	4.01
338	44.43	4.01
343	52.75	4.02
348	62.29	4.02
353	73.16	4.03
358	85.51	4.03
363	99.46	4.04
366	99	9.9

System: water; phases: Liquid, Gas
Property: Vapor or sublimation pressure, kPa (Liquid); method: Ebulliometric method (Recirculating still)
Temperature, K	Vapor or sublimation pressure, kPa	uncertainty
373	99	9.9

System: 2-methyl-1,3-dioxolane + water; phases: Liquid mixture 1, Liquid mixture 2
Fixed: Pressure, kPa = 99
Property: Mole fraction of 2-methyl-1,3-dioxolane (Liquid mixture 1); method: Chromatography
Temperature, K	Mole fraction of 2-methyl-1,3-dioxolane	uncertainty
295.7	0.074	0.01
303.8	0.077	0.01
307.8	0.083	0.01
312.6	0.089	0.01
319.4	0.095	0.01
324.2	0.105	0.01
330	0.117	0.01
336.5	0.12	0.01
342.6	0.123	0.01

System: 2-methyl-1,3-dioxolane + water; phases: Liquid mixture 2, Liquid mixture 1
Fixed: Pressure, kPa = 99
Property: Mole fraction of 2-methyl-1,3-dioxolane (Liquid mixture 2); method: Chromatography
Temperature, K	Mole fraction of 2-methyl-1,3-dioxolane	uncertainty
295.7	0.616	0.037
303.8	0.61	0.037
307.8	0.607	0.037
312.6	0.6	0.036
319.4	0.595	0.036
324.2	0.59	0.036
330	0.585	0.035
336.5	0.582	0.035
342.6	0.58	0.035

System: 2-methyl-1,3-dioxolane + water; phases: Liquid, Gas
Fixed: Pressure, kPa = 99
Property: Boiling temperature at pressure P, K (Liquid); method: Ebulliometric method (Recirculating still)
Mole fraction of 2-methyl-1,3-dioxolane	Boiling temperature at pressure P, K	uncertainty
0.113	348.1	2
0.648	348.2	2
0.138	348.2	2
0.744	348.3	2
0.577	348.3	2
0.54	348.3	2
0.47	348.3	2
0.268	348.3	2
0.232	348.3	2
0.196	348.3	2
0.422	348.4	2
0.407	348.4	2
0.333	348.4	2
0.774	349.4	2
0.918	350.4	2
0.962	352.7	2
0.017	355.8	2
1	356	2
0.008	364.5	2
0	373	2

System: 2-methyl-1,3-dioxolane + water; phases: Gas, Liquid
Fixed: Pressure, kPa = 99
Property: Mole fraction of 2-methyl-1,3-dioxolane (Gas); method: Chromatography
Mole fraction of 2-methyl-1,3-dioxolane	Mole fraction of 2-methyl-1,3-dioxolane	uncertainty
0.113	0.609	0.064
0.648	0.632	0.064
0.138	0.573	0.064
0.744	0.694	0.064
0.577	0.673	0.064
0.54	0.622	0.064
0.47	0.617	0.064
0.268	0.68	0.064
0.232	0.661	0.064
0.196	0.601	0.064
0.422	0.674	0.064
0.407	0.674	0.064
0.333	0.672	0.064
0.774	0.816	0.064
0.918	0.863	0.064
0.962	0.922	0.064
0.017	0.449	0.064
1	1	
0.008	0.256	0.064
0	0	

System: 2,4-dimethyl-1,3-dioxolane + water; phases: Liquid mixture 1, Liquid mixture 2
Fixed: Pressure, kPa = 99
Property: Mole fraction of 2,4-dimethyl-1,3-dioxolane (Liquid mixture 1); method: Chromatography
Temperature, K	Mole fraction of 2,4-dimethyl-1,3-dioxolane	uncertainty
299.7	0.042	0.01
304.9	0.037	0.01
310.9	0.032	0.01
316.6	0.033	0.01
320.2	0.05	0.01
331.8	0.031	0.01
340.7	0.079	0.01

System: 2,4-dimethyl-1,3-dioxolane + water; phases: Liquid mixture 2, Liquid mixture 1
Fixed: Pressure, kPa = 99
Property: Mole fraction of 2,4-dimethyl-1,3-dioxolane (Liquid mixture 2); method: Chromatography
Temperature, K	Mole fraction of 2,4-dimethyl-1,3-dioxolane	uncertainty
299.7	0.876	0.053
304.9	0.873	0.052
310.9	0.852	0.051
316.6	0.814	0.049
320.2	0.806	0.048
331.8	0.753	0.045
340.7	0.793	0.048

System: 2,4-dimethyl-1,3-dioxolane + water; phases: Liquid, Gas
Fixed: Pressure, kPa = 99
Property: Boiling temperature at pressure P, K (Liquid); method: Ebulliometric method (Recirculating still)
Mole fraction of 2,4-dimethyl-1,3-dioxolane	Boiling temperature at pressure P, K	uncertainty
0.823	352.1	2
0.805	352.1	2
0.763	352.1	2
0.754	352.1	2
0.538	352.1	2
0.19	352.1	2
0.925	352.5	2
0.015	353	2
0.006	355.2	2
0.034	357.4	2
0.96	358	2
0.01	358	2
0.004	359.3	2
0.003	363	2
0.985	363	2
1	366	2
0.003	368	2
0.01	371.8	2
0	373	2

System: 2,4-dimethyl-1,3-dioxolane + water; phases: Gas, Liquid
Fixed: Pressure, kPa = 99
Property: Mole fraction of 2,4-dimethyl-1,3-dioxolane (Gas); method: Chromatography
Mole fraction of 2,4-dimethyl-1,3-dioxolane	Mole fraction of 2,4-dimethyl-1,3-dioxolane	uncertainty
0.823	0.625	0.064
0.805	0.667	0.064
0.763	0.653	0.064
0.754	0.528	0.064
0.538	0.609	0.064
0.19	0.553	0.064
0.925	0.631	0.064
0.015	0.52	0.064
0.006	0.436	0.064
0.034	0.509	0.064
0.96	0.725	0.064
0.01	0.3	0.064
0.004	0.239	0.064
0.003	0.16	0.064
0.985	0.9	0.064
1	1	
0.003	0.075	0.064
0.01	0.065	0.064
0	0	
