Measured thermophysical data. Virial Coefficients from Burnett Measurements for the Carbon Dioxide + Fluoromethane System
Source: J. Chem. Eng. Data, 2003, 10.1021/je025630q
Compound 1: carbon dioxide, CO2, InChI=1S/CO2/c2-1-3, purity 99.99%
Compound 2: fluoromethane, CH3F, InChI=1S/CH3F/c1-2/h1H3, purity 99.9%

System: fluoromethane; phases: Gas
Property: 2nd virial coefficient, m3/mol (Gas); method: DERIVED:3rdvir
Temperature, K	2nd virial coefficient, m3/mol	uncertainty
303.15	-0.0001961	1.7e-05
303.15	-0.0001975	1.7e-05
313.15	-0.0001822	1.7e-05
323.15	-0.000169	1.7e-05
323.15	-0.0001695	1.7e-05
333.15	-0.000158	1.7e-05
333.15	-0.0001571	1.7e-05
343.15	-0.000146	1.7e-05
343.15	-0.0001447	1.7e-05

System: fluoromethane; phases: Gas
Property: 3rd virial coefficient, m6/mol2 (Gas); method: Derived graphically
Temperature, K	3rd virial coefficient, m6/mol2	uncertainty
303.15	1.61e-08	3.5e-07
303.15	1.633e-08	3.5e-07
313.15	1.475e-08	3.5e-07
323.15	1.348e-08	3.5e-07
323.15	1.374e-08	3.5e-07
333.15	1.283e-08	3.5e-07
333.15	1.251e-08	3.5e-07
343.15	1.14e-08	3.5e-07
343.15	1.093e-08	3.5e-07

System: fluoromethane; phases: Gas
Property: Amount density, mol/m3 (Gas); method: Burnett expansion method
Temperature, K	Pressure, kPa	Amount density, mol/m3	uncertainty
303.15	126.9	50.65	0.41
303.15	130.5	52.13	0.41
303.15	188.7	75.81	0.41
303.15	194.1	78.04	0.41
303.15	280.1	113.48	0.41
303.15	288.2	116.81	0.41
303.15	414.3	169.87	0.42
303.15	426.2	174.86	0.42
303.15	609.6	254.28	0.43
303.15	626.9	261.75	0.43
303.15	889.6	380.63	0.46
303.15	914.2	391.81	0.46
303.15	1281.8	569.77	0.5
303.15	1316.1	586.5	0.5
303.15	1812.8	852.89	0.56
303.15	1859	877.93	0.56
303.15	2493	1276.69	0.7
303.15	2551.6	1314.17	0.7
303.15	3286.6	1911.07	0.99
303.15	3354.8	1967.18	0.99
313.15	137.6	53.14	0.39
313.15	204.6	79.55	0.4
313.15	303.9	119.08	0.4
313.15	449.6	178.25	0.41
313.15	661.9	266.82	0.43
313.15	966.6	399.41	0.46
313.15	1394.9	597.88	0.5
313.15	1977.2	894.96	0.58
313.15	2729.4	1339.67	0.78
313.15	3622.7	2005.35	0.91
323.15	134.3	50.2	0.4
323.15	143.3	53.58	0.37
323.15	199.9	75.15	0.38
323.15	213.1	80.21	0.38
323.15	297	112.49	0.38
323.15	316.6	120.06	0.38
323.15	440	168.39	0.39
323.15	468.8	179.72	0.39
323.15	649.1	252.06	0.4
323.15	690.9	269.03	0.4
323.15	950.8	377.31	0.42
323.15	1010.6	402.7	0.4
323.15	1378.5	564.8	0.5
323.15	1462.2	602.81	0.45
323.15	1968.1	845.45	0.5
323.15	2081	902.34	0.51
323.15	2746.2	1265.56	0.61
323.15	2890.7	1350.72	0.62
323.15	3706.5	1894.41	0.85
323.15	3876	2021.89	0.89
333.15	130.7	47.46	0.37
333.15	134.6	48.76	0.37
333.15	194.9	71.05	0.34
333.15	200.4	72.99	0.34
333.15	289.9	106.35	0.35
333.15	298	109.26	0.35
333.15	430.3	159.2	0.4
333.15	441.8	163.56	0.36
333.15	636	238.31	0.37
333.15	652.6	244.83	0.37
333.15	934.3	356.72	0.38
333.15	958	366.48	0.38
333.15	1360.2	533.98	0.41
333.15	1393.4	548.59	0.41
333.15	1953.6	799.31	0.44
333.15	1999	821.18	0.44
333.15	2751	1196.49	0.52
333.15	2810.2	1229.22	0.52
333.15	3764.6	1791.02	0.67
333.15	3836.8	1840.02	0.88
343.15	125.6	44.24	0.36
343.15	145.4	51.32	0.36
343.15	187.3	66.22	0.36
343.15	216.8	76.83	0.36
343.15	278.9	99.12	0.36
343.15	322.7	115	1
343.15	414.4	148.37	0.37
343.15	479.2	172.15	0.37
343.15	613.6	222.1	0.4
343.15	708.5	257.69	0.38
343.15	903.7	332.46	0.39
343.15	1041	385.73	0.4
343.15	1320.6	497.67	0.41
343.15	1515.7	577.41	0.43
343.15	1907.6	744.96	0.45
343.15	2177.6	864.32	0.48
343.15	2709	1115.12	0.51
343.15	3067.9	1293.8	0.6
343.15	3753.1	1669.23	0.66
343.15	4203.3	1936.69	0.7

System: carbon dioxide + fluoromethane; phases: Gas
Property: 2nd virial coefficient, m3/mol (Gas); method: DERIVED:3rdvir
Temperature, K	Mole fraction of carbon dioxide	2nd virial coefficient, m3/mol	uncertainty
303.15	0.202	-0.0001317	
303.15	0.41	-0.0001453	
303.15	0.598	-0.00016	
303.15	0.717	-0.0001703	
313.15	0.222	-0.0001224	
313.15	0.407	-0.0001326	
313.15	0.592	-0.000144	
313.15	0.794	-0.0001606	
323.15	0.209	-0.0001124	
323.15	0.381	-0.0001216	
323.15	0.622	-0.0001366	
323.15	0.811	-0.0001518	
333.15	0.207	-0.0001025	
333.15	0.428	-0.0001129	
333.15	0.608	-0.0001228	
333.15	0.781	-0.0001346	
343.15	0.213	-9.47e-05	
343.15	0.409	-0.0001065	
343.15	0.598	-0.0001167	
343.15	0.82	-0.0001324	

System: carbon dioxide + fluoromethane; phases: Gas
Property: 3rd virial coefficient, m6/mol2 (Gas); method: Derived graphically
Temperature, K	Mole fraction of carbon dioxide	3rd virial coefficient, m6/mol2	uncertainty
303.15	0.202	6.46e-09	
303.15	0.41	8.02e-09	
303.15	0.598	1.013e-08	
303.15	0.717	1.188e-08	
313.15	0.222	5.94e-09	
313.15	0.407	6.89e-09	
313.15	0.592	8.04e-09	
313.15	0.794	1.04e-08	
323.15	0.209	5.37e-09	
323.15	0.381	6.33e-09	
323.15	0.622	8.07e-09	
323.15	0.811	1.038e-08	
333.15	0.207	4.86e-09	
333.15	0.428	5.98e-09	
333.15	0.608	6.67e-09	
333.15	0.781	7.86e-09	
343.15	0.213	4.33e-09	
343.15	0.409	5.64e-09	
343.15	0.598	6.69e-09	
343.15	0.82	9.21e-09	

System: carbon dioxide + fluoromethane; phases: Gas
Property: Compressibility factor (Gas); method: Burnett expansion method
Temperature, K	Pressure, kPa	Mole fraction of carbon dioxide	Compressibility factor	uncertainty
303.15	126.9	0.283	0.995	0.0001
303.15	139.3	0.402	0.9955	0.0001
303.15	155.9	0.59	0.9951	0.0001
303.15	174.7	0.798	0.9946	0.0001
303.15	188.9	0.283	0.9896	0.0001
303.15	207.3	0.402	0.9896	0.0001
303.15	231.9	0.59	0.9892	0.0001
303.15	259.9	0.798	0.9886	0.0001
303.15	280.7	0.283	0.9823	0.0001
303.15	308	0.402	0.9821	0.0001
303.15	344.5	0.59	0.9815	0.0001
303.15	386	0.798	0.9807	0.0001
303.15	415.8	0.283	0.9721	0.0001
303.15	456.1	0.402	0.9715	0.0001
303.15	510	0.59	0.9708	0.0001
303.15	571.5	0.798	0.97	0.0001
303.15	613.1	0.283	0.9576	0.0001
303.15	672.2	0.402	0.9564	0.0001
303.15	751.4	0.59	0.9555	0.0001
303.15	842	0.798	0.9547	0.0001
303.15	897.8	0.283	0.9368	0.0001
303.15	983.5	0.402	0.9349	0.0001
303.15	1099.1	0.59	0.9337	0.0001
303.15	1231.1	0.798	0.9326	0.0001
303.15	1300.8	0.283	0.9066	0.0001
303.15	1423.2	0.402	0.9038	0.0001
303.15	1589.6	0.59	0.9021	0.0001
303.15	1779.6	0.798	0.9006	0.0001
303.15	1854.5	0.283	0.8635	0.0001
303.15	2025.1	0.402	0.8591	0.0001
303.15	2259.3	0.59	0.8566	0.0001
303.15	2527	0.798	0.8543	0.0001
303.15	2578.9	0.283	0.8022	0.0001
303.15	2808.4	0.402	0.7959	0.0001
303.15	3127.5	0.59	0.7921	0.0001
303.15	3455.9	0.283	0.7182	0.0001
303.15	3491.8	0.798	0.7886	0.0001
303.15	3745.5	0.402	0.7091	0.0001
303.15	4156.5	0.59	0.7033	0.0001
303.15	4628.3	0.798	0.6983	0.0001
313.15	128.9	0.206	0.9928	0.0001
313.15	139.2	0.778	1	0.0001
313.15	156.2	0.593	0.9925	0.0001
313.15	175	0.408	0.9921	0.0001
313.15	192.3	0.206	0.9894	0.0001
313.15	207.3	0.778	0.9946	0.0001
313.15	233	0.593	0.989	0.0001
313.15	260.7	0.408	0.9874	0.0001
313.15	286.2	0.206	0.9837	0.0001
313.15	308.2	0.778	0.9881	0.0001
313.15	346.7	0.593	0.9829	0.0001
313.15	387.2	0.408	0.9799	0.0001
313.15	424.5	0.206	0.9746	0.0001
313.15	457.5	0.778	0.9798	0.0001
313.15	514.3	0.593	0.974	0.0001
313.15	573.2	0.408	0.9689	0.0001
313.15	626.8	0.206	0.9613	0.0001
313.15	676.8	0.778	0.9683	0.0001
313.15	759.4	0.593	0.9608	0.0001
313.15	843.8	0.408	0.9529	0.0001
313.15	919.1	0.206	0.9417	0.0001
313.15	996	0.778	0.9519	0.0001
313.15	1113.9	0.593	0.9415	0.0001
313.15	1231.8	0.408	0.9293	0.0001
313.15	1334.2	0.206	0.9132	0.0001
313.15	1453.8	0.778	0.9282	0.0001
313.15	1617	0.593	0.913	0.0001
313.15	1775.9	0.408	0.895	0.0001
313.15	1907.6	0.206	0.8722	0.0001
313.15	2096.6	0.778	0.8943	0.0001
313.15	2311.9	0.593	0.8721	0.0001
313.15	2512.5	0.408	0.846	0.0001
313.15	2665.8	0.206	0.8143	0.0001
313.15	2967.7	0.778	0.8457	0.0001
313.15	3229.5	0.593	0.8138	0.0001
313.15	3455.2	0.408	0.7772	0.0001
313.15	3600.8	0.206	0.7348	0.0001
313.15	4083.3	0.778	0.7773	0.0001
313.15	4357.3	0.593	0.7335	0.0001
313.15	4556.4	0.408	0.6847	0.0001
313.15	4622.8	0.206	0.6302	0.0001
313.15	5382.3	0.778	0.6845	0.0001
313.15	5581	0.593	0.6277	0.0001
313.15	5645.6	0.408	0.5668	0.0001
323.15	133.2	0.378	0.9948	0.0001
323.15	137	0.791	0.995	0.0001
323.15	142.6	0.619	0.9967	0.0001
323.15	156.6	0.189	0.9918	0.0001
323.15	198.7	0.378	0.9914	0.0001
323.15	204.4	0.791	0.9921	0.0001
323.15	212.6	0.619	0.9926	0.0001
323.15	233.4	0.189	0.9875	0.0001
323.15	295.9	0.378	0.986	0.0001
323.15	304.7	0.791	0.9877	0.0001
323.15	316.4	0.619	0.9871	0.0001
323.15	347.1	0.189	0.9809	0.0001
323.15	439.4	0.378	0.9783	0.0001
323.15	453	0.791	0.9812	0.0001
323.15	469.9	0.619	0.9793	0.0001
323.15	514.3	0.189	0.971	0.0001
323.15	650.1	0.378	0.967	0.0001
323.15	671.5	0.791	0.9715	0.0001
323.15	695.4	0.619	0.9682	0.0001
323.15	758.3	0.189	0.9564	0.0001
323.15	956.3	0.378	0.9502	0.0001
323.15	990.6	0.791	0.9574	0.0001
323.15	1023.9	0.619	0.9523	0.0001
323.15	1109.6	0.189	0.9349	0.0001
323.15	1394.9	0.378	0.9259	0.0001
323.15	1451.1	0.791	0.9369	0.0001
323.15	1495.6	0.619	0.9293	0.0001
323.15	1606.1	0.189	0.904	0.0001
323.15	2009.1	0.378	0.8909	0.0001
323.15	2102.7	0.791	0.907	0.0001
323.15	2158.3	0.619	0.8959	0.0001
323.15	2286.6	0.189	0.8598	0.0001
323.15	2838.8	0.378	0.8409	0.0001
323.15	2997.8	0.791	0.8639	0.0001
323.15	3058.6	0.619	0.8482	0.0001
323.15	3176.6	0.189	0.798	0.0001
323.15	3899.6	0.378	0.7717	0.0001
323.15	4170	0.791	0.8027	0.0001
323.15	4217.2	0.619	0.7813	0.0001
323.15	4257.2	0.189	0.7144	0.0001
323.15	5138.4	0.378	0.6793	0.0001
323.15	5587.6	0.619	0.6915	0.0001
323.15	5596	0.791	0.7197	0.0001
333.15	120.3	0.392	0.9924	0.0001
333.15	128.5	0.793	0.9965	0.0001
333.15	130.5	0.572	0.9947	0.0001
333.15	141.4	0.219	0.9909	0.0001
333.15	179.8	0.392	0.9911	0.0001
333.15	191.9	0.793	0.9938	0.0001
333.15	194.8	0.572	0.9922	0.0001
333.15	211.2	0.219	0.9886	0.0001
333.15	268.3	0.392	0.9879	0.0001
333.15	286.2	0.793	0.9901	0.0001
333.15	290.4	0.572	0.9884	0.0001
333.15	314.8	0.219	0.9843	0.0001
333.15	399.3	0.392	0.9824	0.0001
333.15	426	0.793	0.9846	0.0001
333.15	432.2	0.572	0.9824	0.0001
333.15	467.7	0.219	0.977	0.0001
333.15	592.5	0.392	0.9737	0.0001
333.15	632.5	0.793	0.9765	0.0001
333.15	641.1	0.572	0.9736	0.0001
333.15	692.1	0.219	0.9657	0.0001
333.15	874.8	0.392	0.9605	0.0001
333.15	935.3	0.793	0.9647	0.0001
333.15	946.8	0.572	0.9606	0.0001
333.15	1017.9	0.219	0.9489	0.0001
333.15	1282.7	0.392	0.9408	0.0001
333.15	1375.1	0.793	0.9475	0.0001
333.15	1389.2	0.572	0.9416	0.0001
333.15	1484.9	0.219	0.9247	0.0001
333.15	1863.4	0.392	0.913	0.0001
333.15	2004.2	0.793	0.9226	0.0001
333.15	2018.3	0.572	0.9138	0.0001
333.15	2137.2	0.219	0.8891	0.0001
333.15	2666.7	0.392	0.8729	0.0001
333.15	2882	0.793	0.8863	0.0001
333.15	2888.7	0.572	0.8738	0.0001
333.15	3016.4	0.219	0.8383	0.0001
333.15	3728.6	0.392	0.8154	0.0001
333.15	4045.3	0.572	0.8174	0.0001
333.15	4063.7	0.793	0.8348	0.0001
333.15	4136	0.219	0.7679	0.0001
333.15	5046.6	0.392	0.7372	0.0001
333.15	5488.2	0.572	0.7409	0.0001
333.15	5565.8	0.793	0.7639	0.0001
343.15	125.5	0.402	0.9971	0.0001
343.15	125.6	0.787	0.996	0.0001
343.15	128.3	0.591	0.9967	0.0001
343.15	135.4	0.18	0.9953	0.0001
343.15	187.3	0.402	0.9939	0.0001
343.15	187.7	0.787	0.9941	0.0001
343.15	191.6	0.591	0.9938	0.0001
343.15	202	0.18	0.9914	0.0001
343.15	279.1	0.402	0.9895	0.0001
343.15	280.1	0.787	0.9911	0.0001
343.15	285.7	0.591	0.9901	0.0001
343.15	300.8	0.18	0.9865	0.0001
343.15	415.1	0.402	0.9834	0.0001
343.15	417.3	0.787	0.9864	0.0001
343.15	425.2	0.591	0.9845	0.0001
343.15	447	0.18	0.9794	0.0001
343.15	615.9	0.402	0.9747	0.0001
343.15	620.2	0.787	0.9794	0.0001
343.15	631.2	0.591	0.9764	0.0001
343.15	662	0.18	0.969	0.0001
343.15	910	0.402	0.962	0.0001
343.15	918.6	0.787	0.9691	0.0001
343.15	933.5	0.591	0.9646	0.0001
343.15	975.3	0.18	0.9536	0.0001
343.15	1336.1	0.402	0.9436	0.0001
343.15	1353.5	0.787	0.9539	0.0001
343.15	1372.4	0.591	0.9474	0.0001
343.15	1426.1	0.18	0.9315	0.0001
343.15	1943.4	0.402	0.9169	0.0001
343.15	1979.2	0.787	0.9318	0.0001
343.15	1999.6	0.591	0.9222	0.0001
343.15	2061.5	0.18	0.8996	0.0001
343.15	2787.5	0.402	0.8786	0.0001
343.15	2861	0.787	0.8998	0.0001
343.15	2876.3	0.591	0.8861	0.0001
343.15	2930.2	0.18	0.8542	0.0001
343.15	3914.8	0.402	0.8243	0.0001
343.15	4057.2	0.591	0.835	0.0001
343.15	4064.7	0.18	0.7916	0.0001
343.15	4064.8	0.787	0.8541	0.0001
343.15	5337.5	0.402	0.7508	0.0001
343.15	5565.1	0.591	0.7652	0.0001
343.15	5631.7	0.787	0.7905	0.0001
