Measured thermophysical data. Surface Tension of aqueous vinary mixtures of 1-amino-2-propanol and 3-amino-1-propanol, and aqueous ternary mixtures of these amines with diethanolamine, triethanolamine, and 2-amino-2-methyl-1-propanol from (298.15 to 323.15) K
Source: J. Chem. Eng. Data, 2003, 10.1021/je020048n
Compound 1: 1-amino-2-propanol, C3H9NO, InChI=1S/C3H9NO/c1-3(5)2-4/h3,5H,2,4H2,1H3
Compound 2: 3-amino-1-propanol, C3H9NO, InChI=1S/C3H9NO/c4-2-1-3-5/h5H,1-4H2
Compound 3: diethanolamine, C4H11NO2, InChI=1S/C4H11NO2/c6-3-1-5-2-4-7/h5-7H,1-4H2
Compound 4: triethanolamine, C6H15NO3, InChI=1S/C6H15NO3/c8-4-1-7(2-5-9)3-6-10/h8-10H,1-6H2
Compound 5: 2-amino-2-methylpropan-1-ol, C4H11NO, InChI=1S/C4H11NO/c1-4(2,5)3-6/h6H,3,5H2,1-2H3
Compound 6: water, H2O, InChI=1S/H2O/h1H2

System: 1-amino-2-propanol; phases: Liquid, Air at 1 atmosphere
Property: Surface tension liquid-gas, N/m (Liquid); method: Pendant drop shape
Temperature, K	Surface tension liquid-gas, N/m	uncertainty
298.15	0.03738	0.00041
303.15	0.03603	0.0004
308.15	0.03489	0.00039
313.15	0.03368	0.00038
318.15	0.03249	0.00037
323.15	0.03128	0.00036

System: 3-amino-1-propanol; phases: Liquid, Air at 1 atmosphere
Property: Surface tension liquid-gas, N/m (Liquid); method: Pendant drop shape
Temperature, K	Surface tension liquid-gas, N/m	uncertainty
298.15	0.0439	0.00047
303.15	0.04277	0.00046
308.15	0.04161	0.00045
313.15	0.04048	0.00044
318.15	0.03933	0.00043
323.15	0.03816	0.00042

System: water; phases: Liquid, Air at 1 atmosphere
Property: Surface tension liquid-gas, N/m (Liquid); method: Pendant drop shape
Temperature, K	Surface tension liquid-gas, N/m	uncertainty
298.15	0.07201	0.00064
303.15	0.07121	0.00063
308.15	0.07042	0.00062
313.15	0.06952	0.00062
318.15	0.06884	0.00061
323.15	0.06792	0.0006

System: 1-amino-2-propanol + water; phases: Liquid, Air at 1 atmosphere
Property: Surface tension liquid-gas, N/m (Liquid); method: Pendant drop shape
Temperature, K	Mole fraction of 1-amino-2-propanol	Surface tension liquid-gas, N/m	uncertainty
298.15	0	0.07201	0.00064
298.15	0.0125	0.06634	0.00059
298.15	0.0259	0.0622	0.00056
298.15	0.0565	0.05695	0.00052
298.15	0.0931	0.05359	0.00049
298.15	0.1378	0.05107	0.00047
298.15	0.1933	0.049	0.00046
298.15	0.2644	0.04718	0.00045
298.15	0.3586	0.0454	0.00044
298.15	0.4894	0.04343	0.00043
298.15	0.6832	0.04097	0.00042
298.15	1	0.03738	0.00041
303.15	0	0.07121	0.00063
303.15	0.0125	0.06498	0.00058
303.15	0.0259	0.0608	0.00055
303.15	0.0565	0.05545	0.00051
303.15	0.0931	0.05206	0.00048
303.15	0.1378	0.04959	0.00046
303.15	0.1933	0.04759	0.00045
303.15	0.2644	0.04581	0.00044
303.15	0.3586	0.04401	0.00043
303.15	0.4894	0.04208	0.00042
303.15	0.6832	0.03963	0.00041
303.15	1	0.03603	0.0004
308.15	0	0.07042	0.00062
308.15	0.0125	0.06365	0.00057
308.15	0.0259	0.05933	0.00054
308.15	0.0565	0.05395	0.0005
308.15	0.0931	0.05057	0.00047
308.15	0.1378	0.04824	0.00045
308.15	0.1933	0.0463	0.00044
308.15	0.2644	0.0446	0.00043
308.15	0.3586	0.04284	0.00042
308.15	0.4894	0.04094	0.00041
308.15	0.6832	0.03846	0.0004
308.15	1	0.03489	0.00039
313.15	0	0.06952	0.00062
313.15	0.0125	0.0625	0.00056
313.15	0.0259	0.05804	0.00053
313.15	0.0565	0.0526	0.00049
313.15	0.0931	0.0493	0.00046
313.15	0.1378	0.04695	0.00044
313.15	0.1933	0.04505	0.00043
313.15	0.2644	0.04334	0.00042
313.15	0.3586	0.04164	0.00041
313.15	0.4894	0.0397	0.0004
313.15	0.6832	0.03726	0.00039
313.15	1	0.03368	0.00038
318.15	0	0.06884	0.00061
318.15	0.0125	0.06131	0.00055
318.15	0.0259	0.05669	0.00052
318.15	0.0565	0.0512	0.00047
318.15	0.0931	0.04794	0.00045
318.15	0.1378	0.04563	0.00043
318.15	0.1933	0.04376	0.00042
318.15	0.2644	0.0421	0.00041
318.15	0.3586	0.04042	0.0004
318.15	0.4894	0.03851	0.00039
318.15	0.6832	0.03608	0.00038
318.15	1	0.03249	0.00037
323.15	0	0.06792	0.0006
323.15	0.0125	0.05982	0.00054
323.15	0.0259	0.05527	0.00051
323.15	0.0565	0.04975	0.00046
323.15	0.0931	0.04658	0.00044
323.15	0.1378	0.04433	0.00042
323.15	0.1933	0.04251	0.00041
323.15	0.2644	0.04088	0.0004
323.15	0.3586	0.03919	0.00039
323.15	0.4894	0.0373	0.00038
323.15	0.6832	0.03485	0.00037
323.15	1	0.03128	0.00036
298.15	0.1933	0.04898	0.00046
323.15	0.1933	0.0425	0.00041

System: 3-amino-1-propanol + water; phases: Liquid, Air at 1 atmosphere
Property: Surface tension liquid-gas, N/m (Liquid); method: Pendant drop shape
Temperature, K	Mole fraction of 3-amino-1-propanol	Surface tension liquid-gas, N/m	uncertainty
298.15	0	0.07201	0.00064
298.15	0.0125	0.06962	0.00062
298.15	0.0259	0.06745	0.0006
298.15	0.0565	0.06369	0.00057
298.15	0.0931	0.0605	0.00055
298.15	0.1378	0.05776	0.00053
298.15	0.1933	0.05529	0.00051
298.15	0.2644	0.05308	0.00049
298.15	0.3586	0.05101	0.00048
298.15	0.4894	0.04889	0.00047
298.15	0.6832	0.04665	0.00047
298.15	1	0.0439	0.00047
303.15	0	0.07121	0.00063
303.15	0.0125	0.06852	0.00061
303.15	0.0259	0.06616	0.00059
303.15	0.0565	0.06227	0.00056
303.15	0.0931	0.05912	0.00054
303.15	0.1378	0.05646	0.00052
303.15	0.1933	0.05414	0.0005
303.15	0.2644	0.05201	0.00049
303.15	0.3586	0.05001	0.00047
303.15	0.4894	0.04793	0.00046
303.15	0.6832	0.04567	0.00046
303.15	1	0.04277	0.00046
308.15	0	0.07042	0.00062
308.15	0.0125	0.06759	0.0006
308.15	0.0259	0.0652	0.00058
308.15	0.0565	0.06119	0.00055
308.15	0.0931	0.05803	0.00053
308.15	0.1378	0.05536	0.00051
308.15	0.1933	0.0531	0.00049
308.15	0.2644	0.05103	0.00048
308.15	0.3586	0.04905	0.00047
308.15	0.4894	0.04698	0.00046
308.15	0.6832	0.04465	0.00045
308.15	1	0.04161	0.00045
313.15	0	0.06952	0.00062
313.15	0.0125	0.06654	0.00059
313.15	0.0259	0.06397	0.00057
313.15	0.0565	0.0599	0.00054
313.15	0.0931	0.0568	0.00052
313.15	0.1378	0.05421	0.0005
313.15	0.1933	0.052	0.00048
313.15	0.2644	0.05005	0.00047
313.15	0.3586	0.04812	0.00046
313.15	0.4894	0.04608	0.00045
313.15	0.6832	0.04367	0.00044
313.15	1	0.04048	0.00044
318.15	0	0.06884	0.00061
318.15	0.0125	0.06547	0.00058
318.15	0.0259	0.06278	0.00056
318.15	0.0565	0.05866	0.00053
318.15	0.0931	0.0555	0.00051
318.15	0.1378	0.053	0.00049
318.15	0.1933	0.05087	0.00047
318.15	0.2644	0.04897	0.00046
318.15	0.3586	0.04705	0.00045
318.15	0.4894	0.04504	0.00044
318.15	0.6832	0.04263	0.00043
318.15	1	0.03933	0.00043
323.15	0	0.06792	0.0006
323.15	0.0125	0.06441	0.00058
323.15	0.0259	0.06162	0.00055
323.15	0.0565	0.05738	0.00052
323.15	0.0931	0.05431	0.0005
323.15	0.1378	0.05188	0.00048
323.15	0.1933	0.0498	0.00047
323.15	0.2644	0.04788	0.00045
323.15	0.3586	0.046	0.00044
323.15	0.4894	0.04403	0.00043
323.15	0.6832	0.04161	0.00042
323.15	1	0.03816	0.00042

System: 1-amino-2-propanol + diethanolamine + water; phases: Liquid, Air at 1 atmosphere
Property: Surface tension liquid-gas, N/m (Liquid); method: Pendant drop shape
Temperature, K	Mole fraction of 1-amino-2-propanol	Mole fraction of diethanolamine	Surface tension liquid-gas, N/m	uncertainty
298.15	0	0.1463	0.0572	0.00053
303.15	0	0.1463	0.05642	0.00052
308.15	0	0.1463	0.05562	0.00051
313.15	0	0.1463	0.05471	0.00051
318.15	0	0.1463	0.05401	0.0005
323.15	0	0.1463	0.05307	0.00049
298.15	0.0404	0.1157	0.05554	0.00051
303.15	0.0404	0.1157	0.05466	0.00051
308.15	0.0404	0.1157	0.0537	0.0005
313.15	0.0404	0.1157	0.05279	0.00049
318.15	0.0404	0.1157	0.05182	0.00048
323.15	0.0404	0.1157	0.05088	0.00048
298.15	0.08	0.0858	0.05391	0.0005
303.15	0.08	0.0858	0.05293	0.00049
308.15	0.08	0.0858	0.05192	0.00048
313.15	0.08	0.0858	0.05089	0.00048
318.15	0.08	0.0858	0.04986	0.00047
323.15	0.08	0.0858	0.04885	0.00046
298.15	0.1186	0.0566	0.05228	0.00049
303.15	0.1186	0.0566	0.05118	0.00048
308.15	0.1186	0.0566	0.05006	0.00047
313.15	0.1186	0.0566	0.04897	0.00046
318.15	0.1186	0.0566	0.04784	0.00045
323.15	0.1186	0.0566	0.04674	0.00044
298.15	0.1564	0.028	0.05062	0.00047
303.15	0.1564	0.028	0.0494	0.00046
308.15	0.1564	0.028	0.04818	0.00045
313.15	0.1564	0.028	0.04698	0.00044
318.15	0.1564	0.028	0.04581	0.00044
323.15	0.1564	0.028	0.04461	0.00043
298.15	0.1933	0	0.04898	0.00046
303.15	0.1933	0	0.04759	0.00045
308.15	0.1933	0	0.0463	0.00044
313.15	0.1933	0	0.04505	0.00043
318.15	0.1933	0	0.04376	0.00042
323.15	0.1933	0	0.0425	0.00041

System: 1-amino-2-propanol + triethanolamine + water; phases: Liquid, Air at 1 atmosphere
Property: Surface tension liquid-gas, N/m (Liquid); method: Pendant drop shape
Temperature, K	Mole fraction of 1-amino-2-propanol	Mole fraction of triethanolamine	Surface tension liquid-gas, N/m	uncertainty
298.15	0	0.1077	0.05288	0.00049
303.15	0	0.1077	0.05208	0.00048
308.15	0	0.1077	0.05129	0.00048
313.15	0	0.1077	0.05037	0.00047
318.15	0	0.1077	0.04968	0.00047
323.15	0	0.1077	0.04878	0.00046
298.15	0.0419	0.0843	0.05206	0.00048
303.15	0.0419	0.0843	0.05112	0.00048
308.15	0.0419	0.0843	0.0502	0.00047
313.15	0.0419	0.0843	0.04928	0.00046
318.15	0.0419	0.0843	0.0483	0.00045
323.15	0.0419	0.0843	0.0474	0.00045
298.15	0.0821	0.062	0.05124	0.00048
303.15	0.0821	0.062	0.05022	0.00047
308.15	0.0821	0.062	0.04928	0.00046
313.15	0.0821	0.062	0.04824	0.00045
318.15	0.0821	0.062	0.04716	0.00045
323.15	0.0821	0.062	0.04608	0.00044
298.15	0.1206	0.0405	0.0505	0.00047
303.15	0.1206	0.0405	0.04928	0.00046
308.15	0.1206	0.0405	0.0482	0.00045
313.15	0.1206	0.0405	0.04714	0.00045
318.15	0.1206	0.0405	0.04604	0.00044
323.15	0.1206	0.0405	0.04494	0.00043
298.15	0.1577	0.0198	0.0497	0.00047
303.15	0.1577	0.0198	0.04842	0.00046
308.15	0.1577	0.0198	0.04728	0.00045
313.15	0.1577	0.0198	0.0461	0.00044
318.15	0.1577	0.0198	0.0448	0.00043
323.15	0.1577	0.0198	0.04362	0.00042
298.15	0.1933	0	0.04898	0.00046
303.15	0.1933	0	0.04759	0.00045
308.15	0.1933	0	0.0463	0.00044
313.15	0.1933	0	0.04505	0.00043
318.15	0.1933	0	0.04376	0.00042
323.15	0.1933	0	0.0425	0.00041

System: 1-amino-2-propanol + 2-amino-2-methylpropan-1-ol + water; phases: Liquid, Air at 1 atmosphere
Property: Surface tension liquid-gas, N/m (Liquid); method: Pendant drop shape
Temperature, K	Mole fraction of 1-amino-2-propanol	Mole fraction of 2-amino-2-methylpropan-1-ol	Surface tension liquid-gas, N/m	uncertainty
298.15	0	0.1682	0.03958	0.00039
303.15	0	0.1682	0.03898	0.00039
308.15	0	0.1682	0.03837	0.00038
313.15	0	0.1682	0.03776	0.00038
318.15	0	0.1682	0.03714	0.00037
323.15	0	0.1682	0.0365	0.00037
298.15	0.0396	0.1337	0.04157	0.00041
303.15	0.0396	0.1337	0.04084	0.0004
308.15	0.0396	0.1337	0.0401	0.00039
313.15	0.0396	0.1337	0.03941	0.00039
318.15	0.0396	0.1337	0.03869	0.00038
323.15	0.0396	0.1337	0.03793	0.00038
298.15	0.0788	0.0997	0.04349	0.00042
303.15	0.0788	0.0997	0.04265	0.00042
308.15	0.0788	0.0997	0.04184	0.00042
313.15	0.0788	0.0997	0.04102	0.00043
318.15	0.0788	0.0997	0.0402	0.00043
323.15	0.0788	0.0997	0.03939	0.00049
298.15	0.1174	0.0661	0.04533	0.00043
303.15	0.1174	0.0661	0.04436	0.00042
308.15	0.1174	0.0661	0.04343	0.00042
313.15	0.1174	0.0661	0.04245	0.00041
318.15	0.1174	0.0661	0.04151	0.0004
323.15	0.1174	0.0661	0.04053	0.00039
298.15	0.1556	0.0328	0.04725	0.00045
303.15	0.1556	0.0328	0.0461	0.00044
308.15	0.1556	0.0328	0.04496	0.00043
313.15	0.1556	0.0328	0.04382	0.00042
318.15	0.1556	0.0328	0.04268	0.00041
323.15	0.1556	0.0328	0.04153	0.0004
298.15	0.1933	0	0.04898	0.00046
303.15	0.1933	0	0.04759	0.00045
308.15	0.1933	0	0.0463	0.00044
313.15	0.1933	0	0.04505	0.00043
318.15	0.1933	0	0.04376	0.00042
323.15	0.1933	0	0.0425	0.00041

System: diethanolamine + 3-amino-1-propanol + water; phases: Liquid, Air at 1 atmosphere
Property: Surface tension liquid-gas, N/m (Liquid); method: Pendant drop shape
Temperature, K	Mole fraction of 3-amino-1-propanol	Mole fraction of diethanolamine	Surface tension liquid-gas, N/m	uncertainty
298.15	0	0.1463	0.0572	0.00053
303.15	0	0.1463	0.05642	0.00052
308.15	0	0.1463	0.05562	0.00051
313.15	0	0.1463	0.05471	0.00051
318.15	0	0.1463	0.05401	0.0005
323.15	0	0.1463	0.05307	0.00049
298.15	0.0404	0.1157	0.05689	0.00052
303.15	0.0404	0.1157	0.05606	0.00052
308.15	0.0404	0.1157	0.05522	0.00051
313.15	0.0404	0.1157	0.05428	0.0005
318.15	0.0404	0.1157	0.05351	0.0005
323.15	0.0404	0.1157	0.05252	0.00049
298.15	0.08	0.0858	0.05657	0.00052
303.15	0.08	0.0858	0.05569	0.00051
308.15	0.08	0.0858	0.05481	0.00051
313.15	0.08	0.0858	0.05384	0.0005
318.15	0.08	0.0858	0.05299	0.00049
323.15	0.08	0.0858	0.05197	0.00048
298.15	0.1186	0.0566	0.05625	0.00052
303.15	0.1186	0.0566	0.05533	0.00051
308.15	0.1186	0.0566	0.05438	0.0005
313.15	0.1186	0.0566	0.05341	0.0005
318.15	0.1186	0.0566	0.05251	0.00049
323.15	0.1186	0.0566	0.05141	0.00048
298.15	0.1564	0.028	0.05592	0.00051
303.15	0.1564	0.028	0.05496	0.00051
308.15	0.1564	0.028	0.05397	0.0005
313.15	0.1564	0.028	0.05299	0.00049
318.15	0.1564	0.028	0.052	0.00048
323.15	0.1564	0.028	0.05086	0.00047
298.15	0.1933	0	0.05529	0.00051
303.15	0.1933	0	0.05414	0.0005
308.15	0.1933	0	0.0531	0.00049
313.15	0.1933	0	0.052	0.00048
318.15	0.1933	0	0.05087	0.00047
323.15	0.1933	0	0.0498	0.00047

System: triethanolamine + 3-amino-1-propanol + water; phases: Liquid, Air at 1 atmosphere
Property: Surface tension liquid-gas, N/m (Liquid); method: Pendant drop shape
Temperature, K	Mole fraction of 3-amino-1-propanol	Mole fraction of triethanolamine	Surface tension liquid-gas, N/m	uncertainty
298.15	0	0.1077	0.05288	0.00049
303.15	0	0.1077	0.05208	0.00048
308.15	0	0.1077	0.05129	0.00048
313.15	0	0.1077	0.05037	0.00047
318.15	0	0.1077	0.04968	0.00047
323.15	0	0.1077	0.04878	0.00046
298.15	0.0419	0.0843	0.05336	0.00049
303.15	0.0419	0.0843	0.0525	0.00049
308.15	0.0419	0.0843	0.05163	0.00048
313.15	0.0419	0.0843	0.05071	0.00047
318.15	0.0419	0.0843	0.0499	0.00047
323.15	0.0419	0.0843	0.04898	0.00046
298.15	0.0821	0.062	0.05384	0.0005
303.15	0.0821	0.062	0.05291	0.00049
308.15	0.0821	0.062	0.05201	0.00048
313.15	0.0821	0.062	0.05106	0.00048
318.15	0.0821	0.062	0.05016	0.00047
323.15	0.0821	0.062	0.04919	0.00046
298.15	0.1206	0.0405	0.05433	0.0005
303.15	0.1206	0.0405	0.05332	0.00049
308.15	0.1206	0.0405	0.05237	0.00049
313.15	0.1206	0.0405	0.05135	0.00048
318.15	0.1206	0.0405	0.0504	0.00047
323.15	0.1206	0.0405	0.04941	0.00046
298.15	0.1577	0.0198	0.05481	0.0005
303.15	0.1577	0.0198	0.05373	0.0005
308.15	0.1577	0.0198	0.05274	0.00049
313.15	0.1577	0.0198	0.05168	0.00048
318.15	0.1577	0.0198	0.05064	0.00047
323.15	0.1577	0.0198	0.0496	0.00046
298.15	0.1933	0	0.05529	0.00051
303.15	0.1933	0	0.05414	0.0005
308.15	0.1933	0	0.0531	0.00049
313.15	0.1933	0	0.052	0.00048
318.15	0.1933	0	0.05087	0.00047
323.15	0.1933	0	0.0498	0.00047

System: 2-amino-2-methylpropan-1-ol + 3-amino-1-propanol + water; phases: Liquid, Air at 1 atmosphere
Property: Surface tension liquid-gas, N/m (Liquid); method: Pendant drop shape
Temperature, K	Mole fraction of 3-amino-1-propanol	Mole fraction of 2-amino-2-methylpropan-1-ol	Surface tension liquid-gas, N/m	uncertainty
298.15	0	0.1682	0.03958	0.00039
303.15	0	0.1682	0.03898	0.00039
308.15	0	0.1682	0.03837	0.00038
313.15	0	0.1682	0.03776	0.00038
318.15	0	0.1682	0.03714	0.00037
323.15	0	0.1682	0.0365	0.00037
298.15	0.0396	0.1337	0.04292	0.00044
303.15	0.0396	0.1337	0.04225	0.00042
308.15	0.0396	0.1337	0.04157	0.00043
313.15	0.0396	0.1337	0.04091	0.00043
318.15	0.0396	0.1337	0.04025	0.00044
323.15	0.0396	0.1337	0.03956	0.00046
298.15	0.0788	0.0997	0.04606	0.00049
303.15	0.0788	0.0997	0.04537	0.00053
308.15	0.0788	0.0997	0.04458	0.00055
313.15	0.0788	0.0997	0.04384	0.00054
318.15	0.0788	0.0997	0.0431	0.00054
323.15	0.0788	0.0997	0.04232	0.0006
298.15	0.1174	0.0661	0.04895	0.00046
303.15	0.1174	0.0661	0.04807	0.00045
308.15	0.1174	0.0661	0.04724	0.00045
313.15	0.1174	0.0661	0.0464	0.00044
318.15	0.1174	0.0661	0.04554	0.00043
323.15	0.1174	0.0661	0.04461	0.00043
298.15	0.1556	0.0328	0.05219	0.00049
303.15	0.1556	0.0328	0.0512	0.00048
308.15	0.1556	0.0328	0.05015	0.00047
313.15	0.1556	0.0328	0.04917	0.00046
318.15	0.1556	0.0328	0.04821	0.00045
323.15	0.1556	0.0328	0.04725	0.00045
298.15	0.1933	0	0.05529	0.00051
303.15	0.1933	0	0.05414	0.0005
308.15	0.1933	0	0.0531	0.00049
313.15	0.1933	0	0.052	0.00048
318.15	0.1933	0	0.05087	0.00047
323.15	0.1933	0	0.0498	0.00047

System: diethanolamine + water; phases: Liquid, Air at 1 atmosphere
Fixed: Mole fraction of diethanolamine = 0.1463
Property: Surface tension liquid-gas, N/m (Liquid); method: Pendant drop shape
Temperature, K	Surface tension liquid-gas, N/m	uncertainty
298.15	0.0572	0.00053
303.15	0.05642	0.00052
308.15	0.05562	0.00051
313.15	0.05471	0.00051
318.15	0.05401	0.0005
323.15	0.05307	0.00049

System: triethanolamine + water; phases: Liquid, Air at 1 atmosphere
Fixed: Mole fraction of triethanolamine = 0.1077
Property: Surface tension liquid-gas, N/m (Liquid); method: Pendant drop shape
Temperature, K	Surface tension liquid-gas, N/m	uncertainty
298.15	0.05288	0.00049
303.15	0.05208	0.00048
308.15	0.05129	0.00048
313.15	0.05037	0.00047
318.15	0.04968	0.00047
323.15	0.04878	0.00046

System: 2-amino-2-methylpropan-1-ol + water; phases: Liquid, Air at 1 atmosphere
Fixed: Mole fraction of 2-amino-2-methylpropan-1-ol = 0.1682
Property: Surface tension liquid-gas, N/m (Liquid); method: Pendant drop shape
Temperature, K	Surface tension liquid-gas, N/m	uncertainty
298.15	0.03958	0.00039
303.15	0.03898	0.00039
308.15	0.03837	0.00038
313.15	0.03776	0.00038
318.15	0.03714	0.00037
323.15	0.0365	0.00037
