Measured thermophysical data. Phase Equilibria in the Binary and Ternary Systems Composed of Diethyl ketone, 2-Pentanone and 3-Pentanol at 101.3 kPa
Source: J. Chem. Eng. Data, 2003, 10.1021/je025651k
Compound 1: pentan-3-one, C5H10O, InChI=1S/C5H10O/c1-3-5(6)4-2/h3-4H2,1-2H3, purity 99.9%
Compound 2: pentan-2-one, C5H10O, InChI=1S/C5H10O/c1-3-4-5(2)6/h3-4H2,1-2H3, purity 99.88%
Compound 3: 3-pentanol, C5H12O, InChI=1S/C5H12O/c1-3-5(6)4-2/h5-6H,3-4H2,1-2H3, purity 99.91%

System: pentan-3-one; phases: Liquid
Property: Refractive index (Na D-line) (Liquid); method: Standard Abbe refractometry
Temperature, K	Pressure, kPa	Refractive index (Na D-line)	uncertainty
298.15	101.325	1.39	0.0006

System: pentan-3-one; phases: Liquid
Property: Mass density, kg/m3 (Liquid); method: Vibrating tube method
Temperature, K	Pressure, kPa	Mass density, kg/m3	uncertainty
298.15	101.325	809.43	0.11

System: pentan-3-one; phases: Liquid, Gas
Property: Vapor or sublimation pressure, kPa (Liquid); method: EBULLIO:UFactor:64
Temperature, K	Vapor or sublimation pressure, kPa	uncertainty
290	3.42	0.51
309.9	9.21	0.54
320	14.22	0.57
330.6	22.33	0.61
341.4	33.64	0.66
350.4	46.5	0.73
361.3	66.6	0.83
367.5	82.09	0.9
371	90.18	0.95
371.5	91.82	0.95
374.75	101.32	1
375.2	102.52	1.01

System: pentan-2-one; phases: Liquid
Property: Refractive index (Na D-line) (Liquid); method: ABBE:dT:0.01
Temperature, K	Pressure, kPa	Refractive index (Na D-line)	uncertainty
298.15	101.325	1.3881	

System: pentan-2-one; phases: Liquid
Property: Mass density, kg/m3 (Liquid); method: VIBTUB:dT:0.01
Temperature, K	Pressure, kPa	Mass density, kg/m3	uncertainty
298.15	101.325	801.47	

System: pentan-2-one; phases: Liquid, Gas
Property: Vapor or sublimation pressure, kPa (Liquid); method: EBULLIO:UFactor:64
Temperature, K	Vapor or sublimation pressure, kPa	uncertainty
329.8	20.44	0.6
336.3	26.55	0.63
342.1	33.04	0.66
347.2	39.99	0.69
351.5	46.57	0.73
355.5	53.47	0.76
358.9	59.95	0.79
362	66.61	0.83
365	73.28	0.86
367.7	79.91	0.89
370.3	86.76	0.93
372.6	93.11	0.96
375	100.06	1.03
375.09	101.32	1.04
377.2	106.83	1.03
379.3	113.61	1.06
381.2	120.11	1.09
383	126.54	1.13
384.8	133.92	1.16

System: 3-pentanol; phases: Liquid
Property: Refractive index (Na D-line) (Liquid); method: ABBE:dT:0.01
Temperature, K	Pressure, kPa	Refractive index (Na D-line)	uncertainty
298.15	101.325	1.4087	

System: 3-pentanol; phases: Liquid
Property: Mass density, kg/m3 (Liquid); method: VIBTUB:dT:0.01
Temperature, K	Pressure, kPa	Mass density, kg/m3	uncertainty
298.15	101.325	815.5	

System: 3-pentanol; phases: Liquid, Gas
Property: Vapor or sublimation pressure, kPa (Liquid); method: EBULLIO:UFactor:64
Temperature, K	Vapor or sublimation pressure, kPa	uncertainty
293.8	0.84	0.5
300.8	1.33	0.5
308	2.11	0.51
315.4	3.35	0.51
323	5.31	0.52
331.1	8.41	0.54
339.8	13.33	0.56
349.3	21.13	0.6
359.4	33.49	0.66
370.5	53.08	0.76
382.9	84.13	0.91
388.38	101.32	1
388.7	101.32	1

System: pentan-3-one + pentan-2-one; phases: Liquid, Gas
Fixed: Pressure, kPa = 101.3
Property: Boiling temperature at pressure P, K (Liquid); method: EBULLIO:UFactor:4
Mole fraction of pentan-3-one	Boiling temperature at pressure P, K	uncertainty
0	375.09	0.12
0.046	375.08	0.12
0.094	375.07	0.12
0.143	375.07	0.12
0.194	375.07	0.12
0.295	375.06	0.12
0.395	375.04	0.12
0.492	374.99	0.12
0.686	374.89	0.12
0.779	374.85	0.12
0.827	374.85	0.12
0.89	374.79	0.12
0.942	374.74	0.12
1	374.75	0.12

System: pentan-3-one + pentan-2-one; phases: Gas, Liquid
Fixed: Pressure, kPa = 101.3
Property: Mole fraction of pentan-3-one (Gas); method: CHROM:UFactor:4
Mole fraction of pentan-3-one	Mole fraction of pentan-3-one	uncertainty
0	0	0.001
0.046	0.047	0.002
0.094	0.096	0.004
0.143	0.145	0.006
0.194	0.196	0.007
0.295	0.298	0.011
0.395	0.398	0.015
0.492	0.495	0.018
0.686	0.688	0.012
0.779	0.781	0.008
0.827	0.829	0.006
0.89	0.891	0.004
0.942	0.942	0.002
1	1	0.001

System: pentan-3-one + 3-pentanol; phases: Liquid, Gas
Fixed: Pressure, kPa = 101.3
Property: Boiling temperature at pressure P, K (Liquid); method: EBULLIO:UFactor:4
Mole fraction of pentan-3-one	Boiling temperature at pressure P, K	uncertainty
0	388.38	0.12
0.019	387.94	0.13
0.048	387.34	0.12
0.095	386.4	0.12
0.137	385.58	0.12
0.167	385.16	0.12
0.237	383.85	0.12
0.292	383.01	0.12
0.343	382.23	0.12
0.404	381.34	0.12
0.448	380.7	0.12
0.494	380.07	0.12
0.536	379.51	0.12
0.583	379.02	0.12
0.629	378.5	0.12
0.674	377.83	0.12
0.721	377.4	0.12
0.765	376.91	0.12
0.811	376.48	0.12
0.857	375.99	0.12
0.9	375.48	0.12
0.942	375.11	0.12
0.974	374.85	0.12
1	374.75	0.12

System: pentan-3-one + 3-pentanol; phases: Gas, Liquid
Fixed: Pressure, kPa = 101.3
Property: Mole fraction of pentan-3-one (Gas); method: CHROM:UFactor:4
Mole fraction of pentan-3-one	Mole fraction of pentan-3-one	uncertainty
0	0	0.001
0.019	0.031	0.002
0.048	0.078	0.003
0.095	0.146	0.006
0.137	0.211	0.008
0.167	0.249	0.009
0.237	0.336	0.013
0.292	0.401	0.015
0.343	0.455	0.017
0.404	0.519	0.018
0.448	0.57	0.016
0.494	0.615	0.014
0.536	0.652	0.013
0.583	0.69	0.012
0.629	0.725	0.01
0.674	0.766	0.009
0.721	0.799	0.008
0.765	0.832	0.006
0.811	0.867	0.005
0.857	0.9	0.004
0.9	0.929	0.003
0.942	0.959	0.002
0.974	0.981	0.001
1	1	0.001

System: pentan-2-one + 3-pentanol; phases: Liquid, Gas
Fixed: Pressure, kPa = 101.3
Property: Boiling temperature at pressure P, K (Liquid); method: EBULLIO:UFactor:8
Mole fraction of pentan-2-one	Boiling temperature at pressure P, K	uncertainty
0	388.38	0.25
0.017	387.96	0.25
0.048	387.31	0.25
0.097	386.47	0.25
0.149	385.59	0.25
0.201	384.77	0.25
0.246	383.98	0.25
0.296	383.28	0.25
0.348	382.17	0.25
0.404	381.45	0.25
0.451	380.82	0.25
0.501	380.2	0.25
0.552	379.48	0.25
0.598	378.95	0.25
0.646	378.31	0.25
0.697	377.75	0.25
0.752	377.25	0.25
0.8	376.85	0.25
0.847	376.35	0.25
0.894	375.75	0.25
0.943	375.35	0.25
0.973	375.15	0.25
1	375.09	0.25

System: pentan-2-one + 3-pentanol; phases: Gas, Liquid
Fixed: Pressure, kPa = 101.3
Property: Mole fraction of pentan-2-one (Gas); method: CHROM:UFactor:4
Mole fraction of pentan-2-one	Mole fraction of pentan-2-one	uncertainty
0	0	0.001
0.017	0.029	0.002
0.048	0.079	0.003
0.097	0.152	0.006
0.149	0.227	0.009
0.201	0.289	0.011
0.246	0.346	0.013
0.296	0.402	0.015
0.348	0.465	0.017
0.404	0.519	0.018
0.451	0.566	0.016
0.501	0.612	0.014
0.552	0.66	0.013
0.598	0.698	0.011
0.646	0.743	0.01
0.697	0.782	0.008
0.752	0.822	0.007
0.8	0.859	0.005
0.847	0.896	0.004
0.894	0.929	0.003
0.943	0.962	0.002
0.973	0.982	0.001
1	1	0.001

System: pentan-3-one + pentan-2-one + 3-pentanol; phases: Liquid, Gas
Fixed: Pressure, kPa = 101.3
Property: Mole fraction of pentan-2-one (Liquid); method: CHROM:UFactor:4
Property: Mole fraction of pentan-2-one (Gas); method: CHROM:UFactor:4
Property: Mole fraction of pentan-3-one (Gas); method: CHROM:UFactor:4
Temperature, K	Mole fraction of pentan-3-one	Mole fraction of pentan-2-one	uncertainty	Mole fraction of pentan-2-one	uncertainty	Mole fraction of pentan-3-one	uncertainty
375.12	0.8688	0.0785	0.0024	0.0795	0.003	0.8846	
375.43	0.0602	0.8829	0.0036	0.9012	0.0037	0.0619	
375.51	0.4201	0.5009	0.0155	0.5122	0.0181	0.4345	
375.52	0.6059	0.3068	0.0095	0.3137	0.0117	0.6262	
375.59	0.2219	0.7055	0.0091	0.7209	0.0104	0.2298	
375.65	0.5127	0.3984	0.0123	0.3982	0.0148	0.5343	
375.71	0.3143	0.5989	0.0124	0.613	0.0144	0.3264	
375.75	0.7653	0.1029	0.0032	0.1063	0.004	0.8036	
375.85	0.1186	0.7864	0.0066	0.8116	0.007	0.1239	
375.88	0.6787	0.1834	0.0057	0.1898	0.0071	0.7146	
376.55	0.4198	0.3964	0.0123	0.4197	0.0156	0.4524	
376.78	0.6745	0.0949	0.0029	0.1021	0.0038	0.7351	
376.88	0.2855	0.5034	0.0154	0.5432	0.017	0.3123	
376.91	0.6983	0.0635	0.0021	0.0686	0.0026	0.7659	
376.95	0.2066	0.5825	0.0129	0.6276	0.0139	0.2266	
377.05	0.0973	0.6858	0.0097	0.7456	0.0095	0.1073	
377.06	0.4438	0.3163	0.0098	0.3437	0.0128	0.49	
377.44	0.5212	0.1994	0.0062	0.2181	0.0081	0.582	
377.71	0.5786	0.099	0.0031	0.1113	0.0041	0.6571	
377.73	0.3206	0.3917	0.0121	0.4346	0.0162	0.363	
377.85	0.3819	0.3028	0.0094	0.3394	0.0126	0.4362	
377.97	0.1855	0.5024	0.0154	0.5637	0.0162	0.2135	
378.31	0.073	0.6006	0.0124	0.682	0.0118	0.0848	
378.53	0.4253	0.2024	0.0063	0.2323	0.0086	0.4993	
378.85	0.4735	0.1013	0.0031	0.1185	0.0044	0.5672	
378.86	0.2238	0.4029	0.0125	0.4636	0.0172	0.264	
378.95	0.526	0.0529	0.0018	0.0625	0.0023	0.63	
378.95	0.2843	0.294	0.0091	0.3569	0.0133	0.3419	
379.18	0.0962	0.4865	0.0151	0.5781	0.0157	0.1189	
379.79	0.3272	0.1972	0.0061	0.2376	0.0088	0.4048	
380.11	0.3729	0.1021	0.0032	0.1276	0.0047	0.4787	
380.23	0.187	0.3049	0.0094	0.3757	0.014	0.238	
380.75	0.0854	0.39	0.0121	0.4868	0.0181	0.1106	
381.47	0.3353	0.0554	0.0019	0.0726	0.0027	0.4502	
381.55	0.1085	0.2849	0.0088	0.3749	0.0139	0.1489	
381.72	0.1835	0.2062	0.0064	0.2688	0.01	0.2482	
381.74	0.2756	0.1018	0.0032	0.1322	0.0049	0.3699	
383.16	0.1837	0.1021	0.0032	0.1404	0.0052	0.2621	
383.49	0.0813	0.1983	0.0061	0.2757	0.0103	0.1159	
384.56	0.1058	0.098	0.003	0.1421	0.0053	0.1599	
385.38	0.0951	0.0536	0.0018	0.0824	0.0031	0.155	
