Measured thermophysical data. Liquid-Liquid Equilibria for the Binary Systems of N-Formylmorpholine with Cycloalkanes
Source: J. Chem. Eng. Data, 2003, 10.1021/je020089j
Compound 1: N-formylmorpholine, C5H9NO2, InChI=1S/C5H9NO2/c7-5-6-1-3-8-4-2-6/h5H,1-4H2, purity 99%
Compound 2: cyclopentane, C5H10, InChI=1S/C5H10/c1-2-4-5-3-1/h1-5H2, purity 99%
Compound 3: cyclohexane, C6H12, InChI=1S/C6H12/c1-2-4-6-5-3-1/h1-6H2, purity 99.5%
Compound 4: cyclooctane, C8H16, InChI=1S/C8H16/c1-2-4-6-8-7-5-3-1/h1-8H2, purity 99.96%

System: cyclopentane + N-formylmorpholine; phases: Liquid mixture 1, Liquid mixture 2, Air at 1 atmosphere
Property: Upper consolute temperature, K (Liquid mixture 1); method: OTHER
Upper consolute temperature, K	uncertainty
381.145	2

System: cyclopentane + N-formylmorpholine; phases: Liquid mixture 1, Liquid mixture 2
Fixed: Pressure, kPa = 101.3
Property: Mole fraction of cyclopentane (Liquid mixture 1); method: CHROM:UFactor:8
Temperature, K	Mole fraction of cyclopentane	uncertainty
304.31	0.9833	0.001
310.8	0.9828	0.0011
320.72	0.9745	0.0016
330.41	0.9721	0.0017
340.5	0.9614	0.0024
350.15	0.9438	0.0035
354.82	0.9351	0.004
359.64	0.9257	0.0046
364.75	0.9142	0.0053
369.78	0.8953	0.0065
374.11	0.8704	0.008
376.49	0.8575	0.0088
379.39	0.8227	0.011
380.35	0.8121	0.0116

System: cyclopentane + N-formylmorpholine; phases: Liquid mixture 2, Liquid mixture 1
Fixed: Pressure, kPa = 101.3
Property: Mole fraction of cyclopentane (Liquid mixture 2); method: CHROM:UFactor:8
Temperature, K	Mole fraction of cyclopentane	uncertainty
304.31	0.1286	0.008
310.8	0.1354	0.0084
320.72	0.15	0.0093
330.41	0.1767	0.011
340.5	0.2117	0.0131
350.15	0.2647	0.0164
354.82	0.2834	0.0176
359.64	0.3148	0.0195
364.75	0.3581	0.0222
369.78	0.3958	0.0245
374.11	0.4365	0.027
376.49	0.4552	0.0282
379.39	0.5099	0.0304
380.35	0.5403	0.0285

System: cyclohexane + N-formylmorpholine; phases: Liquid mixture 1, Liquid mixture 2, Air at 1 atmosphere
Property: Upper consolute temperature, K (Liquid mixture 1); method: OTHER
Upper consolute temperature, K	uncertainty
392.047	2

System: cyclohexane + N-formylmorpholine; phases: Liquid mixture 1, Liquid mixture 2
Fixed: Pressure, kPa = 101.3
Property: Mole fraction of cyclohexane (Liquid mixture 1); method: CHROM:UFactor:8
Temperature, K	Mole fraction of cyclohexane	uncertainty
303.05	0.9868	0.0008
308.15	0.9867	0.0008
313.04	0.983	0.0011
322.78	0.9738	0.0016
333.24	0.9675	0.002
342.89	0.9601	0.0025
353.64	0.9478	0.0032
363.42	0.9346	0.0041
373.06	0.9129	0.0054
382.42	0.8809	0.0074
389.83	0.8169	0.0114
391.57	0.7793	0.0137
391.62	0.7656	0.0145

System: cyclohexane + N-formylmorpholine; phases: Liquid mixture 2, Liquid mixture 1
Fixed: Pressure, kPa = 101.3
Property: Mole fraction of cyclohexane (Liquid mixture 2); method: CHROM:UFactor:8
Temperature, K	Mole fraction of cyclohexane	uncertainty
303.05	0.0776	0.0048
308.15	0.0824	0.0051
313.04	0.0919	0.0057
322.78	0.1019	0.0063
333.24	0.1203	0.0075
342.89	0.136	0.0084
353.64	0.1567	0.0097
363.42	0.1863	0.0115
373.06	0.2315	0.0143
382.42	0.2961	0.0183
389.83	0.3836	0.0238
391.57	0.4448	0.0276
391.62	0.4289	0.0266

System: cyclooctane + N-formylmorpholine; phases: Liquid mixture 1, Liquid mixture 2, Air at 1 atmosphere
Property: Upper consolute temperature, K (Liquid mixture 1); method: OTHER
Upper consolute temperature, K	uncertainty
392.407	2

System: cyclooctane + N-formylmorpholine; phases: Liquid mixture 1, Liquid mixture 2
Fixed: Pressure, kPa = 101.3
Property: Mole fraction of cyclooctane (Liquid mixture 1); method: CHROM:UFactor:8
Temperature, K	Mole fraction of cyclooctane	uncertainty
301.99	0.9773	0.0014
310.99	0.9738	0.0016
320.88	0.9689	0.0019
330.36	0.9662	0.0021
340.5	0.9576	0.0026
349.95	0.9514	0.003
359.24	0.9405	0.0037
368.31	0.9264	0.0046
373.27	0.9128	0.0054
378.04	0.9012	0.0061
382.71	0.8812	0.0074
387.68	0.8532	0.0091
389.37	0.8396	0.0099
390.27	0.8253	0.0108
391.7	0.8026	0.0123
392.16	0.6893	0.0199

System: cyclooctane + N-formylmorpholine; phases: Liquid mixture 2, Liquid mixture 1
Fixed: Pressure, kPa = 101.3
Property: Mole fraction of cyclooctane (Liquid mixture 2); method: CHROM:UFactor:8
Temperature, K	Mole fraction of cyclooctane	uncertainty
301.99	0.0514	0.0032
310.99	0.0542	0.0034
320.88	0.0625	0.0039
330.36	0.0724	0.0045
340.5	0.0848	0.0053
349.95	0.0954	0.0059
359.24	0.1108	0.0069
368.31	0.1326	0.0082
373.27	0.1568	0.0097
378.04	0.1761	0.0109
382.71	0.201	0.0125
387.68	0.236	0.0146
389.37	0.2438	0.0151
390.27	0.2626	0.0163
391.7	0.2872	0.0178
392.16	0.4025	0.0254
