Measured thermophysical data. Determination of Ambient Temperature Vapor Pressures and Vaporization Enthalpies of Branched Ethers
Source: J. Chem. Eng. Data, 2003, 10.1021/je0255980
Compound 1: pentane, 2-hexoxy-2,4,4-trimethyl-, C14H30O, InChI=1S/C14H30O/c1-7-8-9-10-11-15-14(5,6)12-13(2,3)4/h7-12H2,1-6H3
Compound 2: pentane, 2-pentoxy-2,4,4-trimethyl-, C13H28O, InChI=1S/C13H28O/c1-7-8-9-10-14-13(5,6)11-12(2,3)4/h7-11H2,1-6H3
Compound 3: isobutyl tert-butyl ether, C8H18O, InChI=1S/C8H18O/c1-7(2)6-9-8(3,4)5/h7H,6H2,1-5H3
Compound 4: 2-methoxy-2-methylbutane, C6H14O, InChI=1S/C6H14O/c1-5-6(2,3)7-4/h5H2,1-4H3
Compound 5: 1,1-dimethylpropyl ethyl ether, C7H16O, InChI=1S/C7H16O/c1-5-7(3,4)8-6-2/h5-6H2,1-4H3
Compound 6: 1,1-dimethylpropyl propyl ether, C8H18O, InChI=1S/C8H18O/c1-5-7-9-8(3,4)6-2/h5-7H2,1-4H3
Compound 7: butyl 1,1-dimethylpropyl ether, C9H20O, InChI=1S/C9H20O/c1-5-7-8-10-9(3,4)6-2/h5-8H2,1-4H3
Compound 8: methyl 1,1,3,3-tetramethylbutyl ether, C9H20O, InChI=1S/C9H20O/c1-8(2,3)7-9(4,5)10-6/h7H2,1-6H3
Compound 9: ethyl 1,1,3,3-tetramethylbutyl ether, C10H22O, InChI=1S/C10H22O/c1-7-11-10(5,6)8-9(2,3)4/h7-8H2,1-6H3
Compound 10: pentane, 2-propoxy-2,4,4-trimethyl-, C11H24O, InChI=1S/C11H24O/c1-7-8-12-11(5,6)9-10(2,3)4/h7-9H2,1-6H3
Compound 11: butyl 1,1,3,3-tetramethylbutyl ether, C12H26O, InChI=1S/C12H26O/c1-7-8-9-13-12(5,6)10-11(2,3)4/h7-10H2,1-6H3

System: pentane, 2-hexoxy-2,4,4-trimethyl-; phases: Liquid, Gas
Property: Vapor or sublimation pressure, kPa (Liquid); method: TRANSPIR:UFactor:2:dPV:2%
Temperature, K	Vapor or sublimation pressure, kPa	uncertainty
295.8	0.0053	0.0004
298.8	0.0069	0.0005
301.9	0.0086	0.0007
304.9	0.0111	0.0009
308	0.0141	0.0011
311	0.0162	0.0013
314.1	0.0215	0.0017
317.1	0.0255	0.002
320.1	0.0321	0.0025
320.1	0.0321	0.0025
323.1	0.0406	0.0032
326.2	0.0502	0.0039

System: pentane, 2-pentoxy-2,4,4-trimethyl-; phases: Liquid, Gas
Property: Vapor or sublimation pressure, kPa (Liquid); method: TRANSPIR:UFactor:2:dPV:2%
Temperature, K	Vapor or sublimation pressure, kPa	uncertainty
277.5	0.0037	0.0003
279.5	0.0044	0.0003
281.5	0.0052	0.0004
283.5	0.0062	0.0005
285.6	0.0073	0.0006
288.6	0.0095	0.0007
291.6	0.0124	0.001
294.7	0.0155	0.0012
297.7	0.0194	0.0015
300.7	0.0247	0.0019
303.2	0.03	0.0023

System: isobutyl tert-butyl ether; phases: Liquid, Gas
Property: Vapor or sublimation pressure, kPa (Liquid); method: TRANSPIR:UFactor:2:dPV:2%
Temperature, K	Vapor or sublimation pressure, kPa	uncertainty
273.3	0.6788	0.0527
275.4	0.7463	0.0579
276.4	0.7981	0.062
278.5	0.9	0.0699
278.6	0.938	0.0728
280.4	0.9803	0.0763
282.5	1.2072	0.0943
283.5	1.362	0.1059
284.6	1.3976	0.1085
287.6	1.6638	0.1292
288.4	1.7687	0.1374
290.6	1.9957	0.155
293.4	2.3543	0.1829
293.6	2.4392	0.1895
295.6	2.6858	0.2087
298.4	3.1866	0.2472
298.7	3.1461	0.2441
301.8	3.7226	0.289
303.4	4.0255	0.3128
304.8	4.4514	0.3456
308.4	5.2242	0.4053

System: 2-methoxy-2-methylbutane; phases: Liquid, Gas
Property: Vapor or sublimation pressure, kPa (Liquid); method: TRANSPIR:UFactor:2:dPV:2%
Temperature, K	Vapor or sublimation pressure, kPa	uncertainty
274.2	2.6927	0.2091
276.2	2.9975	0.2327
278.2	3.3146	0.2576
280.2	3.7997	0.2953
282.8	4.4216	0.3434
283.8	4.6781	0.3633
287.8	5.6902	0.442
292.9	7.6025	0.5899
297.8	9.1416	0.7098
302.8	12.3132	0.9554
307.8	14.552	1.1282

System: 1,1-dimethylpropyl ethyl ether; phases: Liquid, Gas
Property: Vapor or sublimation pressure, kPa (Liquid); method: TRANSPIR:UFactor:2:dPV:2%
Temperature, K	Vapor or sublimation pressure, kPa	uncertainty
274.2	1.4125	0.1099
276.2	1.6139	0.1254
278.2	1.821	0.1415
280.2	2.0554	0.1598
282.2	2.3408	0.182
284.2	2.67	0.2076
287.2	3.2138	0.2496
290.2	3.744	0.2908
293.2	4.4393	0.3448
296.2	5.2725	0.4094
299.2	6.128	0.4758
302.2	7.1865	0.5578

System: 1,1-dimethylpropyl propyl ether; phases: Liquid, Gas
Property: Vapor or sublimation pressure, kPa (Liquid); method: TRANSPIR:UFactor:2:dPV:2%
Temperature, K	Vapor or sublimation pressure, kPa	uncertainty
274.2	0.4002	0.0311
276.2	0.4448	0.0346
278.1	0.5329	0.0415
280.2	0.6121	0.0476
282.2	0.7161	0.0557
284.2	0.7938	0.0616
285.1	0.8034	0.0626
287.3	0.9974	0.0776
290.3	1.1986	0.0931
293.3	1.4336	0.1115
296.2	1.7994	0.1398
299.2	2.0718	0.1607
302.2	2.3322	0.1809

System: butyl 1,1-dimethylpropyl ether; phases: Liquid, Gas
Property: Vapor or sublimation pressure, kPa (Liquid); method: TRANSPIR:UFactor:2:dPV:2%
Temperature, K	Vapor or sublimation pressure, kPa	uncertainty
274.2	0.11112	0.00865
276.2	0.12782	0.00998
278.2	0.1602	0.0125
278.2	0.15084	0.01174
281.3	0.18422	0.01434
283.2	0.2344	0.0182
283.2	0.21789	0.01697
285.2	0.2509	0.01946
286.2	0.26316	0.02054
288.2	0.3232	0.0251
290.2	0.35514	0.0277
293.2	0.4784	0.0372
293.2	0.43717	0.03402
296.2	0.5522	0.04293
298.2	0.6658	0.0517
298.2	0.61316	0.04766
301.2	0.74427	0.05783
303.2	0.901	0.07
304.2	0.90124	0.07011
308.2	1.1991	0.0932

System: methyl 1,1,3,3-tetramethylbutyl ether; phases: Liquid, Gas
Property: Vapor or sublimation pressure, kPa (Liquid); method: TRANSPIR:UFactor:2:dPV:2%
Temperature, K	Vapor or sublimation pressure, kPa	uncertainty
276.2	0.1656	0.013
277.3	0.1859	0.0145
278.3	0.1958	0.0153
280.3	0.2383	0.0185
283.2	0.2818	0.0219
283.3	0.2759	0.0215
286.3	0.356	0.0277
288.1	0.3919	0.0304
289.3	0.4126	0.0321
292.3	0.5102	0.0397
293.3	0.5636	0.0438
295.2	0.6069	0.0472
298	0.7478	0.0581
298.2	0.7352	0.0571
301.2	0.8887	0.0691
303.2	1.0218	0.0794
304.2	1.0702	0.0832
308	1.3393	0.104

System: ethyl 1,1,3,3-tetramethylbutyl ether; phases: Liquid, Gas
Property: Vapor or sublimation pressure, kPa (Liquid); method: TRANSPIR:UFactor:2:dPV:2%
Temperature, K	Vapor or sublimation pressure, kPa	uncertainty
274.3	0.0913	0.0071
277.2	0.1201	0.0093
280.1	0.1414	0.011
283.2	0.1829	0.0142
286.1	0.2218	0.0173
289.2	0.2772	0.0216
292.2	0.339	0.0264
295.2	0.4146	0.0322
298.2	0.5117	0.0398
301.2	0.6018	0.0467

System: pentane, 2-propoxy-2,4,4-trimethyl-; phases: Liquid, Gas
Property: Vapor or sublimation pressure, kPa (Liquid); method: TRANSPIR:UFactor:2:dPV:2%
Temperature, K	Vapor or sublimation pressure, kPa	uncertainty
274.3	0.0336	0.0026
277.3	0.0443	0.0035
278.2	0.0491	0.0038
280.2	0.058	0.0045
283.4	0.07	0.0055
286.2	0.0913	0.0071
289.3	0.1179	0.0092
292.3	0.1404	0.0109
294.4	0.1616	0.0126
296.3	0.1858	0.0145
297.4	0.2008	0.0156
297.8	0.2103	0.0164
298.3	0.2196	0.0171
299.3	0.2293	0.0178
300.3	0.2411	0.0187
301.2	0.2557	0.0199
302.2	0.2825	0.022
303.2	0.2956	0.023
304.3	0.3231	0.0251
305.2	0.3294	0.0256
306.2	0.3595	0.028
307.2	0.382	0.0296
308.2	0.3898	0.0302

System: butyl 1,1,3,3-tetramethylbutyl ether; phases: Liquid, Gas
Property: Vapor or sublimation pressure, kPa (Liquid); method: TRANSPIR:UFactor:2:dPV:2%
Temperature, K	Vapor or sublimation pressure, kPa	uncertainty
278.3	0.0128	0.001
281.3	0.0165	0.0013
284.3	0.0206	0.0016
287.3	0.0269	0.0021
290.3	0.0324	0.0025
293.3	0.0413	0.0032
296.3	0.053	0.0041
299.2	0.0654	0.0051
302.2	0.0797	0.0062
305.2	0.1003	0.0078
308.2	0.1155	0.009
311.2	0.1474	0.0115
314.2	0.1741	0.0135
