Measured thermophysical data. Compositions, Densities, and Refractive Indices of Potassium Chloride + Ethanol + Water and Sodium Chloride + Ethanol + Water Solutions at (298.15 and 313.15) K
Source: J. Chem. Eng. Data, 2003, 10.1021/je020173z
Compound 1: potassium chloride, ClK, InChI=1S/ClH.K/h1H;/q;+1/p-1
Compound 2: ethanol, C2H6O, InChI=1S/C2H6O/c1-2-3/h3H,2H2,1H3
Compound 3: water, H2O, InChI=1S/H2O/h1H2
Compound 4: sodium chloride, ClNa, InChI=1S/ClH.Na/h1H;/q;+1/p-1

System: potassium chloride + water; phases: Liquid, Crystal
Fixed: Pressure, kPa = 101.3
Property: Refractive index (Na D-line) (Liquid); method: ABBE:UFactor:4
Temperature, K	Refractive index (Na D-line)	uncertainty
298.15	1.3689	0.0012
313.15	1.3695	0.0012

System: potassium chloride + water; phases: Liquid, Crystal
Fixed: Pressure, kPa = 101.32
Property: Mass density, kg/m3 (Liquid); method: VIBTUB:UFactor:128
Temperature, K	Mass density, kg/m3	uncertainty
298.15	1177.2	4.91
313.15	1181.8	5.14

System: potassium chloride + water; phases: Liquid, Crystal
Fixed: Pressure, kPa = 101.3
Property: Mass fraction of potassium chloride (Liquid); method: OTHER
Temperature, K	Mass fraction of potassium chloride	uncertainty
298.15	0.2667	0.02
313.15	0.2841	0.02

System: ethanol + water; phases: Liquid
Fixed: Pressure, kPa = 101.3
Property: Refractive index (Na D-line) (Liquid); method: ABBE:UFactor:4
Temperature, K	Mass fraction of ethanol	Refractive index (Na D-line)	uncertainty
298.15	0.10835	1.3396	0.0012
298.15	0.12194	1.3405	0.0012
298.15	0.28589	1.3512	0.0012
298.15	0.29072	1.3516	0.0012
298.15	0.37367	1.3554	0.0012
298.15	0.37505	1.3555	0.0012
298.15	0.44319	1.3579	0.0012
298.15	0.44452	1.3577	0.0012
298.15	0.49979	1.3579	0.0012
298.15	0.50494	1.3596	0.0012
298.15	0.61933	1.3618	0.0012
298.15	0.62751	1.3618	0.0012
313.15	0.16716	1.3406	0.0012
313.15	0.28575	1.347	0.0012
313.15	0.2894	1.3463	0.0012
313.15	0.35254	1.3493	0.0012
313.15	0.37575	1.3508	0.0012
313.15	0.44202	1.3529	0.0012
313.15	0.44449	1.3529	0.0012
313.15	0.49817	1.3543	0.0012
313.15	0.50181	1.3542	0.0012
313.15	0.61803	1.3562	0.0012
313.15	0.62707	1.3562	0.0012
313.15	0.71144	1.3569	0.0012

System: ethanol + water; phases: Liquid
Fixed: Pressure, kPa = 101.3
Property: Mass density, kg/m3 (Liquid); method: VIBTUB:UFactor:64
Temperature, K	Mass fraction of ethanol	Mass density, kg/m3	uncertainty
298.15	0.10835	979.29	2.5
298.15	0.12194	977.47	5.09
298.15	0.28589	953.33	3.15
298.15	0.29072	952.58	6.34
298.15	0.37367	937.25	3.56
298.15	0.37505	936.69	7.14
298.15	0.44319	922.6	7.84
298.15	0.44452	922.55	3.92
298.15	0.49979	910.43	8.45
298.15	0.50494	908.96	4.27
298.15	0.61933	882.85	4.92
298.15	0.62751	880.81	9.94
313.15	0.16716	964.04	5.77
313.15	0.28575	943.6	3.4
313.15	0.2894	942.82	6.83
313.15	0.35254	930.27	3.73
313.15	0.37575	925.3	7.71
313.15	0.44202	911.19	8.41
313.15	0.44449	910.92	4.22
313.15	0.49817	898.47	9.05
313.15	0.50181	897.76	4.55
313.15	0.61803	870.51	5.23
313.15	0.62707	868.41	10.56
313.15	0.71144	848.29	5.78

System: sodium chloride + water; phases: Liquid, Crystal
Fixed: Pressure, kPa = 101.3
Property: Refractive index (Na D-line) (Liquid); method: ABBE:UFactor:4
Temperature, K	Refractive index (Na D-line)	uncertainty
298.15	1.3795	0.0012
313.15	1.3772	0.0012

System: sodium chloride + water; phases: Liquid, Crystal
Fixed: Pressure, kPa = 101.32
Property: Mass density, kg/m3 (Liquid); method: VIBTUB:UFactor:256
Temperature, K	Mass density, kg/m3	uncertainty
298.15	1197.78	11.88
313.15	1188.17	10.91

System: sodium chloride + water; phases: Liquid, Crystal
Fixed: Pressure, kPa = 101.3
Property: Mass fraction of sodium chloride (Liquid); method: OTHER
Temperature, K	Mass fraction of sodium chloride	uncertainty
298.15	0.2628	0.02
313.15	0.2693	0.02

System: ethanol + potassium chloride + water; phases: Liquid, Crystal
Fixed: Pressure, kPa = 101.3
Property: Refractive index (Na D-line) (Liquid); method: ABBE:UFactor:4
Temperature, K	Mass fraction of ethanol	Refractive index (Na D-line)	uncertainty
298.15	0	1.3689	0.0012
298.15	0.0842	1.3673	0.0012
298.15	0.2491	1.3658	0.0012
298.15	0.3328	1.3658	0.0012
298.15	0.4095	1.3653	0.0012
298.15	0.4797	1.3653	0.0012
298.15	0.5997	1.3647	0.0012
298.15	0.6997	1.3641	0.0012
298.15	0.8003	1.3632	0.0012
298.15	0.8999	1.3617	0.0012
313.15	0	1.3695	0.0012
313.15	0.1353	1.3664	0.0012
313.15	0.2446	1.3651	0.0012
313.15	0.3066	1.3639	0.0012
313.15	0.4012	1.3625	0.0012
313.15	0.4582	1.3618	0.0012
313.15	0.5954	1.3602	0.0012
313.15	0.6995	1.3586	0.0012
313.15	0.7997	1.3573	0.0012
313.15	0.8991	1.3566	0.0012

System: ethanol + potassium chloride + water; phases: Liquid, Crystal
Fixed: Pressure, kPa = 101.32
Property: Mass density, kg/m3 (Liquid); method: VIBTUB:UFactor:128
Temperature, K	Mass fraction of ethanol	Mass density, kg/m3	uncertainty
298.15	0	1177.2	4.91
298.15	0.0842	1129.59	2.53
298.15	0.2491	1030.42	2.45
298.15	0.3328	994.67	4.24
298.15	0.4095	968.82	5.53
298.15	0.4797	942.96	6.83
298.15	0.5997	898.53	9.05
298.15	0.6997	867.7	10.59
298.15	0.8003	834.17	12.27
298.15	0.8999	807.31	13.62
313.15	0	1181.8	5.14
313.15	0.1353	1095.31	0.82
313.15	0.2446	1035.11	2.22
313.15	0.3066	999.22	4.01
313.15	0.4012	967.89	5.58
313.15	0.4582	941.79	6.89
313.15	0.5954	883.65	9.79
313.15	0.6995	849.57	11.5
313.15	0.7997	819.03	13.03
313.15	0.8991	807.36	13.61

System: ethanol + potassium chloride + water; phases: Liquid, Crystal
Fixed: Pressure, kPa = 101.3
Property: Mass fraction of potassium chloride (Liquid); method: OTHER
Temperature, K	Mass fraction of ethanol	Mass fraction of potassium chloride	uncertainty
298.15	0	0.2667	0.02
298.15	0.0842	0.2221	0.02
298.15	0.2491	0.1287	0.02
298.15	0.3328	0.1094	0.02
298.15	0.4095	0.0787	0.02
298.15	0.4797	0.05	0.02
298.15	0.5997	0.0317	0.02
298.15	0.6997	0.0135	0.0135
298.15	0.8003	0.0046	0.0046
298.15	0.8999	0.001	0.001
313.15	0	0.2841	0.02
313.15	0.1353	0.1897	0.02
313.15	0.2446	0.144	0.02
313.15	0.3066	0.1194	0.02
313.15	0.4012	0.0974	0.02
313.15	0.4582	0.0869	0.02
313.15	0.5954	0.0366	0.02
313.15	0.6995	0.0168	0.0168
313.15	0.7997	0.0055	0.0055
313.15	0.8991	0.0029	0.0029

System: ethanol + potassium chloride + water; phases: Liquid
Fixed: Pressure, kPa = 101.3
Property: Refractive index (Na D-line) (Liquid); method: ABBE:UFactor:4
Temperature, K	Mass fraction of potassium chloride	Mass fraction of ethanol	Refractive index (Na D-line)	uncertainty
298.15	0	0.10835	1.3396	0.0012
298.15	0	0.28589	1.3512	0.0012
298.15	0	0.37367	1.3554	0.0012
298.15	0	0.44452	1.3577	0.0012
298.15	0	0.50494	1.3596	0.0012
298.15	0	0.61933	1.3618	0.0012
298.15	0.01	0.36991	1.3564	0.0012
298.15	0.01	0.44002	1.359	0.0012
298.15	0.01	0.49988	1.3606	0.0012
298.15	0.01	0.61315	1.3628	0.0012
298.15	0.02	0.28014	1.3535	0.0012
298.15	0.02	0.49484	1.3616	0.0012
298.15	0.02	0.60693	1.3637	0.0012
298.15	0.028	0.602	1.3645	0.0012
298.15	0.02999	0.36246	1.3585	0.0012
298.15	0.02999	0.43116	1.3608	0.0012
298.15	0.03	0.48979	1.3624	0.0012
298.15	0.03999	0.10396	1.3447	0.0012
298.15	0.03999	0.27442	1.3557	0.0012
298.15	0.04	0.48474	1.3635	0.0012
298.15	0.04998	0.42221	1.3629	0.0012
298.15	0.04999	0.35496	1.3607	0.0012
298.15	0.05999	0.26882	1.3581	0.0012
298.15	0.06498	0.41555	1.3643	0.0012
298.15	0.06999	0.34749	1.3625	0.0012
298.15	0.06999	0.41339	1.3648	0.0012
298.15	0.07999	0.26306	1.3603	0.0012
298.15	0.08	0.09963	1.3499	0.0012
298.15	0.08998	0.34005	1.3649	0.0012
298.15	0.09999	0.2573	1.3628	0.0012
298.15	0.12	0.09527	1.3551	0.0012
298.15	0.15998	0.09102	1.3604	0.0012
313.15	0	0.28575	1.347	0.0012
313.15	0	0.35254	1.3493	0.0012
313.15	0	0.44449	1.3529	0.0012
313.15	0	0.50181	1.3542	0.0012
313.15	0	0.61803	1.3562	0.0012
313.15	0	0.71144	1.3569	0.0012
313.15	0.00459	0.70818	1.3574	0.0012
313.15	0.00919	0.70491	1.3578	0.0012
313.15	0.01	0.61184	1.3572	0.0012
313.15	0.02	0.49178	1.3558	0.0012
313.15	0.03	0.4312	1.3556	0.0012
313.15	0.03	0.59948	1.3591	0.0012
313.15	0.04	0.33843	1.3542	0.0012
313.15	0.04	0.48171	1.3582	0.0012
313.15	0.04021	0.27424	1.3507	0.0012
313.15	0.06	0.41783	1.359	0.0012
313.15	0.07	0.32787	1.3577	0.0012
313.15	0.08	0.2629	1.3564	0.0012

System: ethanol + potassium chloride + water; phases: Liquid
Fixed: Pressure, kPa = 101.3
Property: Mass density, kg/m3 (Liquid); method: VIBTUB:UFactor:64
Temperature, K	Mass fraction of potassium chloride	Mass fraction of ethanol	Mass density, kg/m3	uncertainty
298.15	0	0.10835	979.29	2.5
298.15	0	0.28589	953.33	3.15
298.15	0	0.37367	937.25	3.56
298.15	0	0.44452	922.55	3.92
298.15	0	0.50494	908.96	4.27
298.15	0	0.61933	882.85	4.92
298.15	0.01	0.36991	942.97	3.41
298.15	0.01	0.44002	928.11	3.79
298.15	0.01	0.49988	914.63	4.12
298.15	0.01	0.61315	888.3	4.78
298.15	0.02	0.28014	965.28	2.85
298.15	0.02	0.49484	920.14	3.99
298.15	0.02	0.60693	893.93	4.64
298.15	0.028	0.602	897.9	4.54
298.15	0.02999	0.36246	954.46	3.13
298.15	0.02999	0.43116	939.45	3.5
298.15	0.03	0.48979	925.77	3.84
298.15	0.03999	0.10396	1004.54	1.87
298.15	0.03999	0.27442	977.28	2.55
298.15	0.04	0.48474	931.23	3.71
298.15	0.04998	0.42221	950.61	3.22
298.15	0.04999	0.35496	965.94	2.84
298.15	0.05999	0.26882	989.25	2.26
298.15	0.06498	0.41555	959.32	3.01
298.15	0.06999	0.34749	978.12	2.53
298.15	0.06999	0.41339	962.31	2.93
298.15	0.07999	0.26306	1001.48	1.95
298.15	0.08	0.09963	1030.26	1.23
298.15	0.08998	0.34005	989.23	2.26
298.15	0.09999	0.2573	1013.11	1.66
298.15	0.12	0.09527	1056.7	0.59
298.15	0.15998	0.09102	1083.66	0.22
313.15	0	0.28575	943.6	3.4
313.15	0	0.35254	930.27	3.73
313.15	0	0.44449	910.92	4.22
313.15	0	0.50181	897.76	4.55
313.15	0	0.61803	870.51	5.23
313.15	0	0.71144	848.29	5.78
313.15	0.00459	0.70818	850.59	5.73
313.15	0.00919	0.70491	853.16	5.66
313.15	0.01	0.61184	876.2	5.08
313.15	0.02	0.49178	910.26	4.23
313.15	0.03	0.4312	927.62	3.8
313.15	0.03	0.59948	887.23	4.81
313.15	0.04	0.33843	953.26	3.16
313.15	0.04	0.48171	919.58	4
313.15	0.04021	0.27424	967.37	2.8
313.15	0.06	0.41783	945.05	3.36
313.15	0.07	0.32787	971.22	2.71
313.15	0.08	0.2629	991.62	2.2

System: ethanol + sodium chloride + water; phases: Liquid, Crystal
Fixed: Pressure, kPa = 101.3
Property: Refractive index (Na D-line) (Liquid); method: ABBE:UFactor:4
Temperature, K	Mass fraction of ethanol	Refractive index (Na D-line)	uncertainty
298.15	0	1.3795	0.0012
298.15	0.0955	1.377	0.0012
298.15	0.1334	1.3765	0.0012
298.15	0.2391	1.3743	0.0012
298.15	0.3202	1.3728	0.0012
298.15	0.39	1.3718	0.0012
298.15	0.4478	1.3706	0.0012
298.15	0.5999	1.3673	0.0012
298.15	0.6999	1.3655	0.0012
298.15	0.7972	1.3638	0.0012
298.15	0.8837	1.3631	0.0012
313.15	0	1.3772	0.0012
313.15	0.135	1.3738	0.0012
313.15	0.2387	1.3718	0.0012
313.15	0.321	1.3703	0.0012
313.15	0.3937	1.3683	0.0012
313.15	0.4508	1.3667	0.0012
313.15	0.6001	1.3619	0.0012
313.15	0.6999	1.3602	0.0012
313.15	0.7995	1.3574	0.0012
313.15	0.8999	1.3551	0.0012

System: ethanol + sodium chloride + water; phases: Liquid, Crystal
Fixed: Pressure, kPa = 101.32
Property: Mass density, kg/m3 (Liquid); method: VIBTUB:UFactor:256
Temperature, K	Mass fraction of ethanol	Mass density, kg/m3	uncertainty
298.15	0	1197.78	11.88
298.15	0.0955	1136.24	5.72
298.15	0.1334	1115.06	3.6
298.15	0.2391	1068.03	1.14
298.15	0.3202	1029.53	4.98
298.15	0.39	993.04	8.63
298.15	0.4478	964.25	11.51
298.15	0.5999	899.6	17.99
298.15	0.6999	868.59	21.09
298.15	0.7972	832.79	24.68
298.15	0.8837	822.47	25.71
313.15	0	1188.17	10.91
313.15	0.135	1108.55	2.94
313.15	0.2387	1051.62	2.77
313.15	0.321	1012.02	6.73
313.15	0.3937	981.53	9.78
313.15	0.4508	958.11	12.13
313.15	0.6001	889.87	18.96
313.15	0.6999	853.28	22.63
313.15	0.7995	813.35	26.63
313.15	0.8999	786.88	29.28

System: ethanol + sodium chloride + water; phases: Liquid, Crystal
Fixed: Pressure, kPa = 101.3
Property: Mass fraction of sodium chloride (Liquid); method: OTHER
Temperature, K	Mass fraction of ethanol	Mass fraction of sodium chloride	uncertainty
298.15	0	0.2628	0.02
298.15	0.0955	0.2158	0.02
298.15	0.1334	0.2011	0.02
298.15	0.2391	0.1774	0.02
298.15	0.3202	0.1462	0.02
298.15	0.39	0.12	0.02
298.15	0.4478	0.104	0.02
298.15	0.5999	0.044	0.02
298.15	0.6999	0.0211	0.02
298.15	0.7972	0.0081	0.0081
298.15	0.8837	0.0053	0.0053
313.15	0	0.2693	0.02
313.15	0.135	0.1924	0.02
313.15	0.2387	0.1752	0.02
313.15	0.321	0.1457	0.02
313.15	0.3937	0.1093	0.02
313.15	0.4508	0.0951	0.02
313.15	0.6001	0.043	0.02
313.15	0.6999	0.0264	0.02
313.15	0.7995	0.0071	0.0071
313.15	0.8999	0.002	0.002

System: ethanol + sodium chloride + water; phases: Liquid
Fixed: Pressure, kPa = 101.3
Property: Refractive index (Na D-line) (Liquid); method: ABBE:UFactor:4
Temperature, K	Mass fraction of sodium chloride	Mass fraction of ethanol	Refractive index (Na D-line)	uncertainty
298.15	0	0.12194	1.3405	0.0012
298.15	0	0.29072	1.3516	0.0012
298.15	0	0.37505	1.3555	0.0012
298.15	0	0.44319	1.3579	0.0012
298.15	0	0.49979	1.3579	0.0012
298.15	0	0.62751	1.3618	0.0012
298.15	0.01	0.49478	1.3607	0.0012
298.15	0.01	0.62123	1.3631	0.0012
298.15	0.02	0.4343	1.3604	0.0012
298.15	0.02	0.48976	1.362	0.0012
298.15	0.02	0.61495	1.3643	0.0012
298.15	0.02499	0.28351	1.3552	0.0012
298.15	0.025	0.36566	1.359	0.0012
298.15	0.03001	0.60868	1.3654	0.0012
298.15	0.03999	0.11706	1.3472	0.0012
298.15	0.03999	0.42537	1.363	0.0012
298.15	0.04	0.47979	1.3644	0.0012
298.15	0.045	0.27612	1.3589	0.0012
298.15	0.04999	0.3563	1.3624	0.0012
298.15	0.05999	0.41661	1.3655	0.0012
298.15	0.06	0.46977	1.3668	0.0012
298.15	0.075	0.26888	1.3626	0.0012
298.15	0.075	0.34691	1.3658	0.0012
298.15	0.07998	0.40777	1.3682	0.0012
298.15	0.07999	0.11204	1.3538	0.0012
298.15	0.08	0.45978	1.3692	0.0012
298.15	0.09998	0.26169	1.3664	0.0012
298.15	0.09999	0.33756	1.3693	0.0012
298.15	0.09999	0.39882	1.3707	0.0012
298.15	0.11999	0.10716	1.3606	0.0012
298.15	0.12499	0.25435	1.37	0.0012
298.15	0.12499	0.32818	1.3727	0.0012
298.15	0.14999	0.24705	1.3737	0.0012
298.15	0.15997	0.1023	1.3675	0.0012
298.15	0.19997	0.09744	1.3744	0.0012
313.15	0	0.16716	1.3406	0.0012
313.15	0	0.2894	1.3463	0.0012
313.15	0	0.37575	1.3508	0.0012
313.15	0	0.44202	1.3529	0.0012
313.15	0	0.49817	1.3543	0.0012
313.15	0	0.62707	1.3562	0.0012
313.15	0.015	0.61766	1.3583	0.0012
313.15	0.025	0.48572	1.3575	0.0012
313.15	0.025	0.61138	1.3595	0.0012
313.15	0.03	0.42876	1.357	0.0012
313.15	0.04	0.36073	1.3558	0.0012
313.15	0.05	0.27493	1.3548	0.0012
313.15	0.055	0.47077	1.3614	0.0012
313.15	0.05999	0.15719	1.3503	0.0012
313.15	0.06	0.41547	1.3609	0.0012
313.15	0.08	0.3457	1.3621	0.0012
313.15	0.1	0.26045	1.3622	0.0012
313.15	0.11998	0.14709	1.3596	0.0012

System: ethanol + sodium chloride + water; phases: Liquid
Fixed: Pressure, kPa = 101.3
Property: Mass density, kg/m3 (Liquid); method: VIBTUB:UFactor:128
Temperature, K	Mass fraction of sodium chloride	Mass fraction of ethanol	Mass density, kg/m3	uncertainty
298.15	0	0.12194	977.47	5.09
298.15	0	0.29072	952.58	6.34
298.15	0	0.37505	936.69	7.14
298.15	0	0.44319	922.6	7.84
298.15	0	0.49979	910.43	8.45
298.15	0	0.62751	880.81	9.94
298.15	0.01	0.49478	916.04	8.17
298.15	0.01	0.62123	886.62	9.64
298.15	0.02	0.4343	934.77	7.23
298.15	0.02	0.48976	922.03	7.87
298.15	0.02	0.61495	892.46	9.35
298.15	0.02499	0.28351	968.81	5.53
298.15	0.025	0.36566	952.31	6.36
298.15	0.03001	0.60868	898.18	9.07
298.15	0.03999	0.11706	1005.44	3.69
298.15	0.03999	0.42537	946.98	6.62
298.15	0.04	0.47979	934.14	7.27
298.15	0.045	0.27612	985.17	4.71
298.15	0.04999	0.3563	968.09	5.57
298.15	0.05999	0.41661	959.22	6.01
298.15	0.06	0.46977	946.25	6.66
298.15	0.075	0.26888	1001.78	3.88
298.15	0.075	0.34691	984.01	4.77
298.15	0.07998	0.40777	971.58	5.39
298.15	0.07999	0.11204	1033.91	2.27
298.15	0.08	0.45978	959.21	6.01
298.15	0.09998	0.26169	1018.73	3.03
298.15	0.09999	0.33756	1000.05	3.97
298.15	0.09999	0.39882	984.74	4.73
298.15	0.11999	0.10716	1063.06	0.82
298.15	0.12499	0.25435	1035.47	2.19
298.15	0.12499	0.32818	1016.56	3.14
298.15	0.14999	0.24705	1052.82	1.34
298.15	0.15997	0.1023	1092.38	0.69
298.15	0.19997	0.09744	1123.82	2.25
313.15	0	0.16716	964.04	5.77
313.15	0	0.2894	942.82	6.83
313.15	0	0.37575	925.3	7.71
313.15	0	0.44202	911.19	8.41
313.15	0	0.49817	898.47	9.05
313.15	0	0.62707	868.41	10.56
313.15	0.015	0.61766	877.35	10.11
313.15	0.025	0.48572	914.17	8.27
313.15	0.025	0.61138	883.07	9.82
313.15	0.03	0.42876	929.47	7.5
313.15	0.04	0.36073	950.55	6.44
313.15	0.05	0.27493	975.26	5.21
313.15	0.055	0.47077	931.45	7.4
313.15	0.05999	0.15719	1004.74	3.73
313.15	0.06	0.41547	947.93	6.58
313.15	0.08	0.3457	975.21	5.21
313.15	0.1	0.26045	1008.42	3.55
313.15	0.11998	0.14709	1046.94	1.62
