Measured thermophysical data. Surface Tension of Binary Mixtures of Ethanol + Ethylene glycol from 20 to 50 oC
Source: J. Chem. Eng. Data, 2003, 10.1021/je025639s
Compound 1: ethanol, C2H6O, InChI=1S/C2H6O/c1-2-3/h3H,2H2,1H3, purity 99.8%
Compound 2: 1,2-ethanediol, C2H6O2, InChI=1S/C2H6O2/c3-1-2-4/h3-4H,1-2H2, purity 99.5%

System: ethanol; phases: Liquid, Air at 1 atmosphere
Property: Surface tension liquid-gas, N/m (Liquid); method: Ring tensiometer
Temperature, K	Surface tension liquid-gas, N/m	uncertainty
293.15	0.0223	0.0003
298.15	0.0218	0.0003
303.15	0.0214	0.0003
308.15	0.0211	0.0003
313.15	0.0208	0.0003
318.15	0.0205	0.0003
323.15	0.02	0.0003

System: 1,2-ethanediol; phases: Liquid, Air at 1 atmosphere
Property: Surface tension liquid-gas, N/m (Liquid); method: Ring tensiometer
Temperature, K	Surface tension liquid-gas, N/m	uncertainty
293.15	0.0489	0.0007
298.15	0.0486	0.0007
303.15	0.0481	0.0007
308.15	0.0475	0.0006
313.15	0.0471	0.0006
318.15	0.0464	0.0006
323.15	0.0459	0.0006

System: ethanol + 1,2-ethanediol; phases: Liquid, Air at 1 atmosphere
Property: Surface tension liquid-gas, N/m (Liquid); method: Ring tensiometer
Temperature, K	Mole fraction of ethanol	Surface tension liquid-gas, N/m	uncertainty
293.15	0	0.0489	0.0007
293.15	0.1	0.042	0.0006
293.15	0.3	0.0329	0.0005
293.15	0.5	0.0285	0.0004
293.15	0.6	0.0269	0.0004
293.15	0.7	0.025	0.0004
293.15	0.9	0.0231	0.0004
293.15	1	0.0223	0.0003
298.15	0	0.0486	0.0007
298.15	0.1	0.0418	0.0006
298.15	0.3	0.0327	0.0005
298.15	0.5	0.0283	0.0004
298.15	0.6	0.0264	0.0004
298.15	0.7	0.0249	0.0004
298.15	0.9	0.02268	0.00034
298.15	1	0.0218	0.0003
303.15	0	0.0481	0.0007
303.15	0.1	0.0414	0.0006
303.15	0.3	0.0322	0.0005
303.15	0.5	0.0278	0.0004
303.15	0.6	0.0261	0.0004
303.15	0.7	0.0247	0.0004
303.15	0.9	0.02233	0.00034
303.15	1	0.0214	0.0003
308.15	0	0.0475	0.0006
308.15	0.1	0.0412	0.0006
308.15	0.3	0.0316	0.0005
308.15	0.5	0.0274	0.0004
308.15	0.6	0.0258	0.0004
308.15	0.7	0.0244	0.0004
308.15	0.9	0.02205	0.00033
308.15	1	0.0211	0.0003
313.15	0	0.0471	0.0006
313.15	0.1	0.041	0.0006
313.15	0.3	0.0311	0.0004
313.15	0.5	0.027	0.0004
313.15	0.6	0.0254	0.0004
313.15	0.7	0.024	0.0004
313.15	0.9	0.0218	0.0003
313.15	1	0.0208	0.0003
318.15	0	0.0464	0.0006
318.15	0.1	0.0406	0.0006
318.15	0.3	0.0308	0.0004
318.15	0.5	0.0267	0.0004
318.15	0.6	0.025	0.0004
318.15	0.7	0.0236	0.0004
318.15	0.9	0.02155	0.00033
318.15	1	0.0205	0.0003
323.15	0	0.0459	0.0006
323.15	0.1	0.0398	0.0006
323.15	0.3	0.0307	0.0004
323.15	0.5	0.0265	0.0004
323.15	0.6	0.0248	0.0004
323.15	0.7	0.0232	0.0004
323.15	0.9	0.0211	0.0003
323.15	1	0.02	0.0003
