Measured thermophysical data. Vapour pressures, molar enthalpies of sublimation, and molar enthalpies of solution in water of selected amino derivatives of uracil and 5-nitrouracil
Source: J. Chem. Eng. Data, 2003, 10.1021/je020215j
Compound 1: 2,4-pyrimidinedione, 5-nitro-, C4H3N3O4, InChI=1S/C4H3N3O4/c8-3-2(7(10)11)1-5-4(9)6-3/h1H,(H2,5,6,8,9)
Compound 2: 6-aminouracil, C4H5N3O2, InChI=1S/C4H5N3O2/c5-2-1-3(8)7-4(9)6-2/h1H,(H4,5,6,7,8,9)
Compound 3: 6-amino-1-methyluracil, C5H7N3O2, InChI=1S/C5H7N3O2/c1-8-3(6)2-4(9)7-5(8)10/h2H,6H2,1H3,(H,7,9,10)
Compound 4: 6-amino-1,3-dimethyluracil, C6H9N3O2, InChI=1S/C6H9N3O2/c1-8-4(7)3-5(10)9(2)6(8)11/h3H,7H2,1-2H3
Compound 5: 2,4(1H,3H)-pyrimidinedione, 5-amino-, C4H5N3O2, InChI=1S/C4H5N3O2/c5-2-1-6-4(9)7-3(2)8/h1H,5H2,(H2,6,7,8,9)

System: 2,4-pyrimidinedione, 5-nitro-; phases: Crystal, Gas
Property: Vapor or sublimation pressure, kPa (Crystal); method: KNUDSEN:UFactor:2
Temperature, K	Vapor or sublimation pressure, kPa	uncertainty
431.25	7.18e-06	7.4e-07
433.14	8.41e-06	8.6e-07
434.95	9.75e-06	1e-06
434.98	1.014e-05	1.03e-06
436.81	1.154e-05	1.17e-06
438.63	1.3e-05	1.32e-06
440.46	1.62e-05	1.64e-06
442.17	2.096e-05	2.12e-06
442.27	1.978e-05	2e-06
445.93	2.924e-05	2.94e-06
447.76	3.338e-05	3.36e-06
453.11	6.104e-05	6.12e-06

System: 6-aminouracil; phases: Crystal, Gas
Property: Vapor or sublimation pressure, kPa (Crystal); method: KNUDSEN:UFactor:2
Temperature, K	Vapor or sublimation pressure, kPa	uncertainty
478.6	1.394e-05	1.41e-06
478.61	1.375e-05	1.4e-06
480.4	1.661e-05	1.68e-06
482.16	1.922e-05	1.94e-06
483.92	2.132e-05	2.15e-06
485.6	2.413e-05	2.43e-06
485.7	2.415e-05	2.44e-06
487.5	2.821e-05	2.84e-06
489.24	3.158e-05	3.18e-06
491	3.515e-05	3.54e-06
491.02	3.534e-05	3.55e-06
492.65	4.176e-05	4.2e-06

System: 6-amino-1-methyluracil; phases: Crystal, Gas
Property: Vapor or sublimation pressure, kPa (Crystal); method: KNUDSEN:UFactor:2
Temperature, K	Vapor or sublimation pressure, kPa	uncertainty
456.84	2.824e-05	2.84e-06
458.65	3.188e-05	3.21e-06
459.55	3.807e-05	3.83e-06
462.22	4.621e-05	4.64e-06
463.15	5.015e-05	5.04e-06
464.07	5.429e-05	5.45e-06
466.07	6.44e-05	6.46e-06
466.1	6.38e-05	6.4e-06
467.87	7.507e-05	7.53e-06
468.75	7.967e-05	7.99e-06
469.67	8.597e-05	8.62e-06
470.56	9.083e-05	9.1e-06

System: 6-amino-1,3-dimethyluracil; phases: Crystal, Gas
Property: Vapor or sublimation pressure, kPa (Crystal); method: KNUDSEN:UFactor:2
Temperature, K	Vapor or sublimation pressure, kPa	uncertainty
401.59	9.9e-06	1.01e-06
407.21	1.673e-05	1.69e-06
409	1.845e-05	1.87e-06
409.99	2.309e-05	2.33e-06
410.8	2.478e-05	2.5e-06
412.67	2.874e-05	2.89e-06
412.82	3.133e-05	3.15e-06
415.86	4.477e-05	4.5e-06
416.43	3.968e-05	3.99e-06
418.41	5.345e-05	5.37e-06
420.22	6.082e-05	6.1e-06
425.66	0.00010531	1.055e-05

System: 2,4(1H,3H)-pyrimidinedione, 5-amino-; phases: Crystal, Gas
Property: Vapor or sublimation pressure, kPa (Crystal); method: KNUDSEN:UFactor:2
Temperature, K	Vapor or sublimation pressure, kPa	uncertainty
433.11	1.941e-05	1.96e-06
433.16	2.072e-05	2.09e-06
436.7	2.56e-05	2.58e-06
438.65	3.333e-05	3.35e-06
440.48	3.89e-05	3.91e-06
442.32	4.794e-05	4.81e-06
444.14	5.231e-05	5.25e-06
445.07	5.373e-05	5.39e-06
445.96	6.018e-05	6.04e-06
445.97	5.707e-05	5.73e-06
447.76	6.664e-05	6.68e-06
453.1	9.97e-05	9.99e-06
