Measured thermophysical data. Excess Molar Enthalpies for the Binary Systems of Benzene or Cyclohexane with 1,1-Diethoxyethane at 323.15 K or with 2,2-Dimethoxybutane at 303.15 K and Infinite Dilution Activity Coefficients in 1,1-Diethoxyethane
Source: J. Chem. Eng. Data, 2003, 10.1021/je020195l
Compound 1: benzene, C6H6, InChI=1S/C6H6/c1-2-4-6-5-3-1/h1-6H, purity 99.9%
Compound 2: cyclohexane, C6H12, InChI=1S/C6H12/c1-2-4-6-5-3-1/h1-6H2, purity 99.9%
Compound 3: 2,2-dimethoxybutane, C6H14O2, InChI=1S/C6H14O2/c1-5-6(2,7-3)8-4/h5H2,1-4H3
Compound 4: 1,1-diethoxyethane, C6H14O2, InChI=1S/C6H14O2/c1-4-7-6(3)8-5-2/h6H,4-5H2,1-3H3, purity 99.7%

System: benzene + 1,1-diethoxyethane; phases: Liquid
Fixed: Temperature, K = 323.15
Fixed: Pressure, kPa = 1308
Property: Excess molar enthalpy (molar enthalpy of mixing), kJ/mol (Liquid); method: Flow calorimetry
Mole fraction of benzene	Excess molar enthalpy (molar enthalpy of mixing), kJ/mol	uncertainty
0.0778	-0.00826	0.00084
0.1511	-0.01525	0.00089
0.2204	-0.0202	0.00094
0.286	-0.02385	0.001
0.3481	-0.02583	0.00103
0.4071	-0.02678	0.00104
0.4631	-0.02678	0.00104
0.5165	-0.02589	0.00103
0.5672	-0.02415	0.001
0.6157	-0.02204	0.00097
0.6619	-0.01883	0.00092
0.7061	-0.01526	0.00089
0.7484	-0.01161	0.00086
0.7889	-0.00757	0.00083
0.8278	-0.00294	0.0008
0.865	3e-05	0.00077
0.9008	0.00283	0.0008
0.9351	0.00484	0.00081
0.9682	0.00476	0.00081

System: benzene + 1,1-diethoxyethane; phases: Liquid
Fixed: Pressure, kPa = 101
Fixed: Mole fraction of benzene = 0
Property: Activity coefficient of benzene (Liquid); method: OTHER
Temperature, K	Activity coefficient of benzene	uncertainty
293.21	0.64	0.05
303.16	0.58	0.05
313.11	0.56	0.05
323.13	0.62	0.05

System: benzene + 2,2-dimethoxybutane; phases: Liquid
Fixed: Temperature, K = 303.15
Fixed: Pressure, kPa = 1342
Property: Excess molar enthalpy (molar enthalpy of mixing), kJ/mol (Liquid); method: Flow calorimetry
Mole fraction of benzene	Excess molar enthalpy (molar enthalpy of mixing), kJ/mol	uncertainty
0.0747	0.0174	0.00091
0.1456	0.02829	0.00107
0.213	0.03791	0.00124
0.2772	0.04543	0.00137
0.3383	0.05372	0.00153
0.3966	0.05899	0.00163
0.4523	0.06299	0.00171
0.5056	0.06665	0.00178
0.5565	0.06913	0.00183
0.6053	0.06981	0.00184
0.6521	0.06923	0.00183
0.697	0.06771	0.0018
0.7402	0.06474	0.00174
0.7816	0.06055	0.00166
0.8215	0.05473	0.00155
0.8599	0.04681	0.0014
0.8968	0.0388	0.00125
0.9325	0.02723	0.00105

System: 1,1-diethoxyethane + cyclohexane; phases: Liquid
Fixed: Temperature, K = 323.15
Fixed: Pressure, kPa = 1308
Property: Excess molar enthalpy (molar enthalpy of mixing), kJ/mol (Liquid); method: Flow calorimetry
Mole fraction of cyclohexane	Excess molar enthalpy (molar enthalpy of mixing), kJ/mol	uncertainty
0.0648	0.1134	0.0027
0.1277	0.2116	0.0048
0.1887	0.2981	0.0066
0.2478	0.3692	0.0081
0.3052	0.4292	0.0094
0.3609	0.4773	0.0104
0.415	0.5135	0.0111
0.4676	0.5379	0.0117
0.5188	0.5511	0.0119
0.5685	0.5562	0.0121
0.6169	0.5449	0.0118
0.664	0.528	0.0115
0.7099	0.5013	0.0109
0.7546	0.4625	0.0101
0.7981	0.4127	0.009
0.8405	0.3553	0.0078
0.8819	0.2849	0.0063
0.9222	0.2012	0.0046
0.9616	0.1094	0.0026

System: 1,1-diethoxyethane + cyclohexane; phases: Liquid
Fixed: Pressure, kPa = 101
Fixed: Mole fraction of cyclohexane = 0
Property: Activity coefficient of cyclohexane (Liquid); method: OTHER
Temperature, K	Activity coefficient of cyclohexane	uncertainty
293.08	1.76	0.13
303.18	1.72	0.12
313.12	1.67	0.12
323.14	1.64	0.12

System: cyclohexane + 2,2-dimethoxybutane; phases: Liquid
Fixed: Temperature, K = 303.15
Fixed: Pressure, kPa = 1204
Property: Excess molar enthalpy (molar enthalpy of mixing), kJ/mol (Liquid); method: Flow calorimetry
Mole fraction of cyclohexane	Excess molar enthalpy (molar enthalpy of mixing), kJ/mol	uncertainty
0.0623	0.1077	0.0026
0.1229	0.1971	0.0045
0.1821	0.2808	0.0062
0.2397	0.353	0.0078
0.296	0.4121	0.009
0.3509	0.4588	0.01
0.4045	0.4966	0.0108
0.4568	0.5234	0.0114
0.5079	0.5358	0.0116
0.5578	0.5401	0.0117
0.6066	0.5345	0.0116
0.6542	0.5161	0.0112
0.7008	0.4854	0.0106
0.7464	0.4488	0.0098
0.791	0.4	0.0087
0.8346	0.3437	0.0076
0.8773	0.2748	0.0061
0.919	0.196	0.0044
0.9599	0.1082	0.0026
