Measured thermophysical data. Measurement and correlation of vapor-liquid equilibria for the 2-propanol + n-hexane system near the critical
Source: J. Chem. Eng. Data, 2003, 10.1021/je025604s
Compound 1: propan-2-ol, C3H8O, InChI=1S/C3H8O/c1-3(2)4/h3-4H,1-2H3, purity 99.9%
Compound 2: hexane, C6H14, InChI=1S/C6H14/c1-3-5-6-4-2/h3-6H2,1-2H3, purity 99.5%

System: propan-2-ol; phases: Liquid, Gas
Property: Vapor or sublimation pressure, kPa (Liquid); method: EBULLIO:UFactor:2
Temperature, K	Vapor or sublimation pressure, kPa	uncertainty
483.15	3081	7
493.15	3677	8
503.15	4362	9

System: hexane; phases: Liquid, Gas
Property: Vapor or sublimation pressure, kPa (Liquid); method: EBULLIO:UFactor:2
Temperature, K	Vapor or sublimation pressure, kPa	uncertainty
483.15	2109	5
493.15	2453	6
503.15	2838	7

System: propan-2-ol + hexane; phases: Liquid, Gas
Property: Critical pressure, kPa (Liquid); method: OTHER
Mole fraction of hexane	Critical pressure, kPa	uncertainty
0.099	4546	7
0.427	3921	7
0.558	3726	7
0.906	3214	7

System: propan-2-ol + hexane; phases: Liquid, Gas
Property: Critical temperature, K (Liquid); method: OTHER
Mole fraction of hexane	Critical temperature, K	uncertainty
0.099	503.15	0.06
0.427	493.15	0.06
0.558	493.15	0.06
0.906	503.15	0.06

System: propan-2-ol + hexane; phases: Liquid, Gas
Property: Vapor or sublimation pressure, kPa (Liquid); method: EBULLIO:UFactor:2
Mole fraction of hexane	Temperature, K	Vapor or sublimation pressure, kPa	uncertainty
0	483.15	3081	7
0	493.15	3677	8
0	503.15	4362	9
0.022	503.15	4420	9
0.029	483.15	3141	7
0.04	493.15	3760	8
0.048	503.15	4470	9
0.068	493.15	3810	8
0.078	483.15	3222	7
0.087	503.15	4546	9
0.099	503.15	4546	9
0.116	493.15	3878	8
0.165	483.15	3321	7
0.166	493.15	3932	8
0.218	493.15	3961	8
0.234	483.15	3359	7
0.287	493.15	3985	8
0.295	483.15	3375	7
0.328	483.15	3376	7
0.35	493.15	3978	8
0.379	493.15	3958	8
0.387	483.15	3354	7
0.418	493.15	3932	8
0.427	493.15	3921	8
0.466	483.15	3306	7
0.499	483.15	3274	7
0.558	493.15	3726	8
0.565	483.15	3194	7
0.566	493.15	3712	8
0.59	493.15	3671	8
0.624	483.15	3104	7
0.685	493.15	3468	8
0.748	483.15	2862	6
0.772	493.15	3239	7
0.802	483.15	2743	6
0.837	493.15	3050	7
0.897	493.15	2847	7
0.904	483.15	2431	6
0.906	503.15	3214	7
0.912	503.15	3200	7
0.928	503.15	3143	7
0.935	493.15	2680	6
0.947	503.15	3062	7
0.973	503.15	2945	7
1	483.15	2109	5
1	493.15	2453	6
1	503.15	2838	7

System: propan-2-ol + hexane; phases: Gas, Liquid
Property: Mole fraction of hexane (Gas); method: CHROM:UFactor:4
Mole fraction of hexane	Temperature, K	Mole fraction of hexane	uncertainty
0	483.15	0	0.001
0	493.15	0	0.001
0	503.15	0	0.001
0.022	503.15	0.027	0.001
0.029	483.15	0.042	0.002
0.04	493.15	0.045	0.002
0.048	503.15	0.055	0.003
0.068	493.15	0.079	0.004
0.078	483.15	0.092	0.004
0.087	503.15	0.091	0.004
0.099	503.15	0.099	0.005
0.116	493.15	0.123	0.006
0.165	483.15	0.178	0.009
0.166	493.15	0.171	0.008
0.218	493.15	0.222	0.011
0.234	483.15	0.241	0.012
0.287	493.15	0.281	0.014
0.295	483.15	0.301	0.014
0.328	483.15	0.327	0.016
0.35	493.15	0.342	0.016
0.379	493.15	0.371	0.018
0.387	483.15	0.375	0.018
0.418	493.15	0.409	0.02
0.427	493.15	0.427	0.021
0.466	483.15	0.444	0.021
0.499	483.15	0.479	0.023
0.558	493.15	0.558	0.021
0.565	483.15	0.534	0.022
0.566	493.15	0.565	0.021
0.59	493.15	0.584	0.02
0.624	483.15	0.591	0.02
0.685	493.15	0.667	0.016
0.748	483.15	0.704	0.014
0.772	493.15	0.748	0.012
0.802	483.15	0.758	0.012
0.837	493.15	0.815	0.009
0.897	493.15	0.878	0.006
0.904	483.15	0.878	0.006
0.906	503.15	0.906	0.005
0.912	503.15	0.908	0.005
0.928	503.15	0.921	0.004
0.935	493.15	0.924	0.004
0.947	503.15	0.941	0.003
0.973	503.15	0.97	0.002
1	483.15	1	0.001
1	493.15	1	0.001
1	503.15	1	0.001
