Measured thermophysical data. Critical Parameters and Vapor Pressure Measurements of Potential Replacements for Chlorofluorocarbons-Four Hydrofluorodetones and a Hydrolfuoroamine
Source: J. Chem. Eng. Data, 2003, 10.1021/je020210m
Compound 1: 1,1,1,2,2,3,3-heptafluoropentan-4-one, C5H3F7O, InChI=1S/C5H3F7O/c1-2(13)3(6,7)4(8,9)5(10,11)12/h1H3
Compound 2: 1,1,1,2,2-pentafluoropentan-3-one, C5H5F5O, InChI=1S/C5H5F5O/c1-2-3(11)4(6,7)5(8,9)10/h2H2,1H3
Compound 3: 1,1,2,2-tetrafluorobutan-3-one, C4H4F4O, InChI=1S/C4H4F4O/c1-2(9)4(7,8)3(5)6/h3H,1H3
Compound 4: 1,1,1,2,2,3,3,4,4-nonafluorohexan-5-one, C6H3F9O, InChI=1S/C6H3F9O/c1-2(16)3(7,8)4(9,10)5(11,12)6(13,14)15/h1H3
Compound 5: 2,2-difluoroethylbis(trifluoromethyl)amine, C4H3F8N, InChI=1S/C4H3F8N/c5-2(6)1-13(3(7,8)9)4(10,11)12/h2H,1H2

System: 1,1,1,2,2,3,3-heptafluoropentan-4-one; phases: Liquid, Gas
Property: Critical pressure, kPa (Liquid); method: Direct measurement
Critical pressure, kPa	uncertainty
2578	4

System: 1,1,1,2,2,3,3-heptafluoropentan-4-one; phases: Liquid, Gas
Property: Critical temperature, K (Liquid); method: Visual observation in an unstirred cell
Critical temperature, K	uncertainty
476.55	0.08

System: 1,1,1,2,2,3,3-heptafluoropentan-4-one; phases: Liquid, Gas
Property: Critical density, kg/m3 (Liquid); method: OTHER
Critical density, kg/m3	uncertainty
538	1

System: 1,1,1,2,2,3,3-heptafluoropentan-4-one; phases: Liquid, Gas
Property: Vapor or sublimation pressure, kPa (Liquid); method: CCELL:UFactor:2
Temperature, K	Vapor or sublimation pressure, kPa	uncertainty
302.45	25.1	1
314.15	41.4	1
323.18	59.6	1
352.69	166.6	1.1
362.68	224.3	1.2
372.77	302.4	1.3
382.79	395	1.5
392.82	503.1	1.8
402.82	641.5	2.1
412.86	797	2.5
422.87	976.9	3.1
432.93	1190.2	3.7
442.96	1434.6	4.5
452.99	1723	5.4
463.02	2043.2	6.4
468.04	2225.9	6.9
473.05	2422.3	7.5
475.51	2515	7.8
475.62	2520.5	7.8

System: 1,1,1,2,2-pentafluoropentan-3-one; phases: Liquid, Gas
Property: Critical pressure, kPa (Liquid); method: Direct measurement
Critical pressure, kPa	uncertainty
2642	5

System: 1,1,1,2,2-pentafluoropentan-3-one; phases: Liquid, Gas
Property: Critical temperature, K (Liquid); method: Visual observation in an unstirred cell
Critical temperature, K	uncertainty
475.54	0.1

System: 1,1,1,2,2-pentafluoropentan-3-one; phases: Liquid, Gas
Property: Critical density, kg/m3 (Liquid); method: OTHER
Critical density, kg/m3	uncertainty
494	2

System: 1,1,1,2,2-pentafluoropentan-3-one; phases: Liquid, Gas
Property: Vapor or sublimation pressure, kPa (Liquid); method: CCELL:UFactor:2
Temperature, K	Vapor or sublimation pressure, kPa	uncertainty
299.34	25.2	1
302.57	29.2	1
314.02	48	1
323.62	70	1
327.65	81.3	1
332.67	97.1	1
337.54	114.6	1.1
342.69	136	1.1
347.51	158.1	1.1
352.71	187.8	1.1
362.75	252.1	1.2
372.77	329.8	1.4
382.8	425.7	1.6
392.82	542.1	1.9
402.85	683.8	2.2
412.87	842.9	2.7
422.89	1034.8	3.3
432.92	1258.7	4
442.94	1510.2	4.8
452.98	1806	5.7
463.01	2147	6.8

System: 1,1,2,2-tetrafluorobutan-3-one; phases: Liquid, Gas
Property: Vapor or sublimation pressure, kPa (Liquid); method: CCELL:UFactor:2
Temperature, K	Vapor or sublimation pressure, kPa	uncertainty
297.98	19.5	1
303.14	25.4	1
312.49	39.2	1
324.19	61.2	1
333.6	87.8	1
337.67	101.3	1.1
342.64	120.3	1.1
352.81	168	1.1
362.75	226.6	1.2
372.78	300.6	1.4
382.74	390.4	1.5
392.81	501	1.8
402.85	633.2	2.1
412.87	788.4	2.6
422.89	980.3	3.2
432.92	1181.2	3.8
442.86	1422.9	4.6
452.97	1706.1	5.5
463	2025.5	6.6
473.03	2394.1	7.7
481.09	2723.6	8.8
489.16	3091.7	10
497.23	3465.3	11.2

System: 1,1,1,2,2,3,3,4,4-nonafluorohexan-5-one; phases: Liquid, Gas
Property: Critical pressure, kPa (Liquid); method: Direct measurement
Critical pressure, kPa	uncertainty
2198	5

System: 1,1,1,2,2,3,3,4,4-nonafluorohexan-5-one; phases: Liquid, Gas
Property: Critical temperature, K (Liquid); method: Visual observation in an unstirred cell
Critical temperature, K	uncertainty
498.97	0.08

System: 1,1,1,2,2,3,3,4,4-nonafluorohexan-5-one; phases: Liquid, Gas
Property: Critical density, kg/m3 (Liquid); method: OTHER
Critical density, kg/m3	uncertainty
520	2

System: 1,1,1,2,2,3,3,4,4-nonafluorohexan-5-one; phases: Liquid, Gas
Property: Vapor or sublimation pressure, kPa (Liquid); method: CCELL:UFactor:16
Temperature, K	Vapor or sublimation pressure, kPa	uncertainty
332.69	40.3	1.4
342.71	58.4	1.7
352.75	82.6	2.2
362.72	113.9	2.9
372.8	154.7	4
382.83	205.2	5.2
392.86	269.1	6.8
402.89	346	8.7
412.92	438.5	11
422.94	547.5	13.7
432.97	676	16.9
443	839.5	20.9
453.03	1014.8	25.3
463.06	1200.8	29.9
472.98	1452	36.1
481.14	1668.2	41.5

System: 2,2-difluoroethylbis(trifluoromethyl)amine; phases: Liquid, Gas
Property: Critical pressure, kPa (Liquid); method: Direct measurement
Critical pressure, kPa	uncertainty
2642	5

System: 2,2-difluoroethylbis(trifluoromethyl)amine; phases: Liquid, Gas
Property: Critical temperature, K (Liquid); method: Visual observation in an unstirred cell
Critical temperature, K	uncertainty
460.2	0.09

System: 2,2-difluoroethylbis(trifluoromethyl)amine; phases: Liquid, Gas
Property: Critical density, kg/m3 (Liquid); method: OTHER
Critical density, kg/m3	uncertainty
579	2

System: 2,2-difluoroethylbis(trifluoromethyl)amine; phases: Liquid, Gas
Property: Vapor or sublimation pressure, kPa (Liquid); method: CCELL:UFactor:2
Temperature, K	Vapor or sublimation pressure, kPa	uncertainty
293.1	29.7	1
303.11	45.7	1
313.12	67.6	1
323.16	97.6	1
333.2	137.7	1.1
343.24	190.3	1.1
353.28	257.7	1.2
363.3	341.4	1.4
373.35	444.5	1.6
383.38	572	1.9
393.44	721.9	2.3
403.49	900.3	2.8
413.53	1110.8	3.5
423.55	1356.6	4.2
433.59	1642.2	5.1
