Measured thermophysical data. Excess Enthalpies of the Ternary Mixtures: Tetrahydrofuran + (Hexane or Cyclohexane) + Decane at 298.15K
Source: J. Chem. Eng. Data, 2003, 10.1021/je020159m
Compound 1: tetrahydrofuran, C4H8O, InChI=1S/C4H8O/c1-2-4-5-3-1/h1-4H2, purity 99%
Compound 2: hexane, C6H14, InChI=1S/C6H14/c1-3-5-6-4-2/h3-6H2,1-2H3, purity 99%
Compound 3: cyclohexane, C6H12, InChI=1S/C6H12/c1-2-4-6-5-3-1/h1-6H2, purity 99%
Compound 4: decane, C10H22, InChI=1S/C10H22/c1-3-5-7-9-10-8-6-4-2/h3-10H2,1-2H3, purity 99%

System: tetrahydrofuran; phases: Liquid
Property: Mass density, kg/m3 (Liquid); method: Vibrating tube method
Temperature, K	Pressure, kPa	Mass density, kg/m3	uncertainty
298.15	101.325	882.09	0.46

System: hexane; phases: Liquid
Property: Mass density, kg/m3 (Liquid); method: Vibrating tube method
Temperature, K	Pressure, kPa	Mass density, kg/m3	uncertainty
298.15	101.325	655.42	0.4

System: cyclohexane; phases: Liquid
Property: Mass density, kg/m3 (Liquid); method: Vibrating tube method
Temperature, K	Pressure, kPa	Mass density, kg/m3	uncertainty
298.15	101.325	773.92	0.42

System: decane; phases: Liquid
Property: Mass density, kg/m3 (Liquid); method: Vibrating tube method
Temperature, K	Pressure, kPa	Mass density, kg/m3	uncertainty
298.15	101.325	726.37	0.41

System: tetrahydrofuran + hexane; phases: Liquid
Fixed: Pressure, kPa = 101.325
Fixed: Temperature, K = 298.15
Property: Excess molar enthalpy (molar enthalpy of mixing), kJ/mol (Liquid); method: Flow calorimetry
Mole fraction of tetrahydrofuran	Excess molar enthalpy (molar enthalpy of mixing), kJ/mol	uncertainty
0.05	0.15157	0.00236
0.1	0.28377	0.0033
0.1499	0.39402	0.00415
0.2001	0.49296	0.00495
0.25	0.57375	0.00561
0.2998	0.64355	0.00619
0.3503	0.68814	0.00656
0.4003	0.72495	0.00687
0.4504	0.74803	0.00707
0.5005	0.75072	0.00709
0.5508	0.75014	0.00709
0.6003	0.72939	0.00691
0.6503	0.69586	0.00663
0.7002	0.6461	0.00621
0.75	0.58102	0.00567
0.8015	0.49897	0.005
0.8501	0.39608	0.00417
0.8998	0.28983	0.00335
0.9499	0.15277	0.00239

System: tetrahydrofuran + cyclohexane; phases: Liquid
Fixed: Pressure, kPa = 101.325
Fixed: Temperature, K = 298.15
Property: Excess molar enthalpy (molar enthalpy of mixing), kJ/mol (Liquid); method: Flow calorimetry
Mole fraction of tetrahydrofuran	Excess molar enthalpy (molar enthalpy of mixing), kJ/mol	uncertainty
0.05	0.16126	0.00244
0.1	0.2967	0.00342
0.15	0.41331	0.00431
0.2001	0.50635	0.00505
0.2499	0.58532	0.0057
0.2997	0.63968	0.00615
0.35	0.68433	0.00653
0.4003	0.71405	0.00678
0.4504	0.72805	0.0069
0.4999	0.72998	0.00691
0.5498	0.72056	0.00683
0.6	0.69574	0.00662
0.65	0.65638	0.00629
0.7003	0.60399	0.00586
0.7498	0.52892	0.00523
0.8	0.45111	0.00458
0.8505	0.35888	0.00384
0.9003	0.25046	0.00301
0.95	0.12936	0.00216

System: tetrahydrofuran + decane; phases: Liquid
Fixed: Pressure, kPa = 101.325
Fixed: Temperature, K = 298.15
Property: Excess molar enthalpy (molar enthalpy of mixing), kJ/mol (Liquid); method: Flow calorimetry
Mole fraction of tetrahydrofuran	Excess molar enthalpy (molar enthalpy of mixing), kJ/mol	uncertainty
0.05	0.15522	0.00247
0.0999	0.30309	0.00352
0.15	0.43495	0.00453
0.2	0.54709	0.00543
0.2503	0.64562	0.00625
0.3	0.73121	0.00697
0.3498	0.80437	0.00758
0.4002	0.8643	0.00809
0.4509	0.89578	0.00835
0.4999	0.92084	0.00856
0.5499	0.92953	0.00864
0.6002	0.92192	0.00857
0.6501	0.8925	0.00833
0.7003	0.84366	0.00792
0.7502	0.77395	0.00734
0.8003	0.67828	0.00655
0.8502	0.56057	0.00561
0.9011	0.41024	0.00447
0.95	0.22808	0.00319

System: tetrahydrofuran + hexane + decane; phases: Liquid
Fixed: Pressure, kPa = 101.325
Fixed: Temperature, K = 298.15
Property: Excess molar enthalpy (molar enthalpy of mixing), kJ/mol (Liquid); method: FLOW:dHEX :0.5%:dHEX1:0.5%
Solvent: Amount ratio of component to other component of binary solvent of hexane	Mole fraction of tetrahydrofuran	Excess molar enthalpy (molar enthalpy of mixing), kJ/mol	uncertainty
0.3334	0.0501	0.16923	0.00244
0.3334	0.1	0.2955	0.00341
0.3334	0.15	0.42554	0.00445
0.3334	0.1999	0.53445	0.00532
0.3334	0.2499	0.629	0.0061
0.3334	0.3	0.71013	0.00678
0.3334	0.3502	0.78037	0.00737
0.3334	0.3999	0.83133	0.0078
0.3334	0.4503	0.85727	0.00802
0.3334	0.4995	0.87551	0.00817
0.3334	0.5501	0.88674	0.00827
0.3334	0.5999	0.87501	0.00817
0.3334	0.6499	0.84165	0.00789
0.3334	0.7001	0.79272	0.00748
0.3334	0.7502	0.72348	0.00691
0.3334	0.8	0.62277	0.00608
0.3334	0.8501	0.50976	0.00517
0.3334	0.8997	0.3702	0.00412
0.3334	0.9499	0.19441	0.00289
0.9999	0.0501	0.15895	0.00237
0.9999	0.0999	0.28813	0.00335
0.9999	0.15	0.41461	0.00434
0.9999	0.2002	0.51823	0.00518
0.9999	0.2502	0.61004	0.00594
0.9999	0.3002	0.68957	0.0066
0.9999	0.35	0.75143	0.00712
0.9999	0.4002	0.79179	0.00746
0.9999	0.45	0.82399	0.00773
0.9999	0.5001	0.8346	0.00782
0.9999	0.55	0.84349	0.00789
0.9999	0.5999	0.82964	0.00778
0.9999	0.6515	0.79477	0.00748
0.9999	0.7	0.74666	0.00708
0.9999	0.7499	0.67778	0.00651
0.9999	0.8002	0.58783	0.00577
0.9999	0.8498	0.47957	0.0049
0.9999	0.8999	0.34745	0.0039
0.9999	0.95	0.18546	0.00274
3.0014	0.0499	0.15016	0.00237
3.0014	0.1001	0.28725	0.00333
3.0014	0.15	0.39916	0.0042
3.0014	0.1999	0.50792	0.00508
3.0014	0.2501	0.59015	0.00576
3.0014	0.2998	0.66493	0.00638
3.0014	0.3502	0.72201	0.00686
3.0014	0.4005	0.75657	0.00715
3.0014	0.4502	0.78394	0.00738
3.0014	0.5002	0.79446	0.00747
3.0014	0.5503	0.79514	0.00748
3.0014	0.6001	0.78037	0.00735
3.0014	0.6502	0.7459	0.00706
3.0014	0.7	0.69695	0.00665
3.0014	0.7494	0.62869	0.00608
3.0014	0.8007	0.54501	0.00539
3.0014	0.8504	0.44259	0.00457
3.0014	0.8995	0.32244	0.00366
3.0014	0.95	0.16979	0.00258

System: tetrahydrofuran + cyclohexane + decane; phases: Liquid
Fixed: Pressure, kPa = 101.325
Fixed: Temperature, K = 298.15
Property: Excess molar enthalpy (molar enthalpy of mixing), kJ/mol (Liquid); method: FLOW:dHEX1:0.5%
Solvent: Amount ratio of component to other component of binary solvent of cyclohexane	Mole fraction of tetrahydrofuran	Excess molar enthalpy (molar enthalpy of mixing), kJ/mol	uncertainty
0.3413	0.0501	0.16048	0.00237
0.3413	0.1	0.28467	0.00329
0.3413	0.15	0.39624	0.00418
0.3413	0.2	0.50653	0.00508
0.3413	0.25	0.59433	0.0058
0.3413	0.3001	0.67435	0.00647
0.3413	0.3502	0.74068	0.00703
0.3413	0.4	0.7889	0.00743
0.3413	0.4511	0.81457	0.00765
0.3413	0.5006	0.83255	0.0078
0.3413	0.5501	0.83873	0.00785
0.3413	0.5996	0.82616	0.00775
0.3413	0.6498	0.79726	0.0075
0.3413	0.7001	0.74943	0.0071
0.3413	0.7498	0.68382	0.00656
0.3413	0.7996	0.59695	0.00584
0.3413	0.8503	0.48882	0.00497
0.3413	0.8999	0.3571	0.00398
0.3413	0.9499	0.19388	0.00282
0.9997	0.05	0.14612	0.0028
0.9997	0.0514	0.14647	0.0028
0.9997	0.1	0.27032	0.00317
0.9997	0.1501	0.37567	0.00399
0.9997	0.1999	0.47587	0.00481
0.9997	0.2001	0.47662	0.00481
0.9997	0.2503	0.56028	0.0055
0.9997	0.3	0.63263	0.0061
0.9997	0.3502	0.68616	0.00655
0.9997	0.4001	0.71991	0.00683
0.9997	0.4507	0.74845	0.00707
0.9997	0.5502	0.76086	0.00718
0.9997	0.5997	0.74824	0.00707
0.9997	0.6504	0.7184	0.00682
0.9997	0.7003	0.66821	0.0064
0.9997	0.7497	0.60383	0.00587
0.9997	0.7999	0.52624	0.00523
0.9997	0.8498	0.4266	0.00443
0.9997	0.8997	0.30704	0.00351
0.9997	0.9495	0.1666	0.00247
2.9976	0.05	0.14459	0.00223
2.9976	0.0999	0.26248	0.0031
2.9976	0.1501	0.37179	0.00395
2.9976	0.2	0.46071	0.00466
2.9976	0.2502	0.53776	0.0053
2.9976	0.3001	0.60345	0.00584
2.9976	0.3501	0.64421	0.00618
2.9976	0.3999	0.67846	0.00647
2.9976	0.4501	0.69778	0.00663
2.9976	0.4997	0.70198	0.00667
2.9976	0.5498	0.70215	0.00667
2.9976	0.6001	0.68414	0.00652
2.9976	0.6498	0.64535	0.00619
2.9976	0.7003	0.59956	0.00581
2.9976	0.7501	0.53728	0.00529
2.9976	0.7999	0.46059	0.00466
2.9976	0.8501	0.36648	0.00393
2.9976	0.9001	0.2417	0.00298
2.9976	0.95	0.11826	0.0021
