Measured thermophysical data. Isobaric Vapor-Liquid Equilibria and Excess Quantities for Binary Mixtures of an Ethyl Ester + tert-Butanol and a New Approach to VLE Data Processing
Source: J. Chem. Eng. Data, 2003, 10.1021/je0202073
Compound 1: 2-methylpropan-2-ol, C4H10O, InChI=1S/C4H10O/c1-4(2,3)5/h5H,1-3H3
Compound 2: ethyl methanoate, C3H6O2, InChI=1S/C3H6O2/c1-2-5-3-4/h3H,2H2,1H3
Compound 3: ethyl acetate, C4H8O2, InChI=1S/C4H8O2/c1-3-6-4(2)5/h3H2,1-2H3
Compound 4: ethyl propanoate, C5H10O2, InChI=1S/C5H10O2/c1-3-5(6)7-4-2/h3-4H2,1-2H3
Compound 5: ethyl butanoate, C6H12O2, InChI=1S/C6H12O2/c1-3-5-6(7)8-4-2/h3-5H2,1-2H3

System: 2-methylpropan-2-ol; phases: Liquid
Property: Refractive index (Na D-line) (Liquid); method: Standard Abbe refractometry
Temperature, K	Pressure, kPa	Refractive index (Na D-line)	uncertainty
303.15	101.325	1.382	0.0007

System: 2-methylpropan-2-ol; phases: Liquid
Property: Mass density, kg/m3 (Liquid); method: VIBTUB:dT:0.01
Temperature, K	Pressure, kPa	Mass density, kg/m3	uncertainty
303.15	101.325	775.37	0.19

System: 2-methylpropan-2-ol; phases: Liquid, Gas
Property: Vapor or sublimation pressure, kPa (Liquid); method: EBULLIO:dPV:0.02
Temperature, K	Vapor or sublimation pressure, kPa	uncertainty
332.3	37.4	0.18
333.03	38.69	0.17
333.45	39.34	0.18
334.6	41.37	0.2
335.29	42.93	0.2
335.87	43.85	0.19
336.43	45.01	0.22
337.17	46.69	0.23
337.8	48.06	0.22
338.37	49.27	0.21
338.86	50.27	0.23
339.5	51.81	0.24
340.08	53.17	0.23
340.59	54.25	0.25
341.17	55.83	0.25
341.63	56.78	0.26
342.18	58.37	0.27
342.68	59.61	0.24
343.13	60.61	0.27
343.7	62.3	0.27
344.13	63.27	0.28
344.68	64.99	0.28
345.06	65.81	0.26
345.49	67.05	0.31
346.11	69.05	0.31
346.51	70.21	0.29
346.83	71.11	0.3
347.28	72.45	0.28
347.68	73.43	0.32
348.2	75.35	0.33
348.54	76.17	0.3
348.9	77.42	0.33
349.34	78.76	0.32
349.74	80.07	0.34
350.1	81.3	0.34
350.53	82.71	0.34
350.9	83.96	0.37
351.33	85.66	0.35
351.67	86.64	0.35
352.05	88.15	0.36
352.45	89.39	0.34
352.8	90.67	0.4
353.13	92.07	0.39
353.5	93.39	0.38
353.81	94.63	0.38
354.18	95.95	0.35
354.51	97.04	0.37
354.85	98.36	0.43
355.23	100.07	0.4
355.5	100.88	0.37
355.58	101.32	0.36
355.83	102.22	0.41
356.22	103.92	0.45
356.52	105.27	0.43
356.86	106.62	0.39
357.15	107.71	0.43
357.45	109.12	0.45
357.77	110.47	0.4
358.06	111.51	0.41
358.35	112.83	0.47
358.68	114.36	0.44
358.96	115.48	0.45
359.27	117	0.46
359.84	119.53	0.46
360.13	120.87	0.46
360.46	122.36	0.47
360.64	123.08	0.46
360.97	124.73	0.5
361.26	126.15	0.46
361.47	126.96	0.45
361.73	128.2	0.49
362.02	129.63	0.49
362.54	132.15	0.51
362.75	133.36	0.53
363.03	134.71	0.51
363.08	134.81	0.51
363.56	137.4	0.55
363.82	138.8	0.5
364.09	140.03	0.5
364.33	141.29	0.52
364.66	142.96	0.54
365.09	145.34	0.55
365.27	146.36	0.55
365.62	148.18	0.53
366.1	150.66	0.56
366.51	153.08	0.58
366.81	154.69	0.55
367.08	156.16	0.58
367.49	158.58	0.57
367.83	160.39	0.58
368.23	162.82	0.62

System: ethyl methanoate; phases: Liquid, Gas
Property: Normal boiling temperature, K (Liquid); method: Ebulliometric method (Recirculating still)
Normal boiling temperature, K	uncertainty
327.29	0.13

System: ethyl methanoate; phases: Liquid
Property: Refractive index (Na D-line) (Liquid); method: ABBE:dT:0.01
Temperature, K	Pressure, kPa	Refractive index (Na D-line)	uncertainty
303.15	101.325	1.355	0.0006

System: ethyl methanoate; phases: Liquid
Property: Mass density, kg/m3 (Liquid); method: VIBTUB:dT:0.01
Temperature, K	Pressure, kPa	Mass density, kg/m3	uncertainty
298.15	101.325	914.53	0.94

System: ethyl acetate; phases: Liquid, Gas
Property: Normal boiling temperature, K (Liquid); method: Ebulliometric method (Recirculating still)
Normal boiling temperature, K	uncertainty
350.25	0.11

System: ethyl acetate; phases: Liquid
Property: Refractive index (Na D-line) (Liquid); method: ABBE:dT:0.01
Temperature, K	Pressure, kPa	Refractive index (Na D-line)	uncertainty
303.15	101.325	1.3675	0.0005

System: ethyl acetate; phases: Liquid
Property: Mass density, kg/m3 (Liquid); method: VIBTUB:dT:0.01
Temperature, K	Pressure, kPa	Mass density, kg/m3	uncertainty
298.15	101.325	894.44	0.46

System: ethyl propanoate; phases: Liquid, Gas
Property: Normal boiling temperature, K (Liquid); method: Ebulliometric method (Recirculating still)
Normal boiling temperature, K	uncertainty
371.91	0.11

System: ethyl propanoate; phases: Liquid
Property: Refractive index (Na D-line) (Liquid); method: ABBE:dT:0.01
Temperature, K	Pressure, kPa	Refractive index (Na D-line)	uncertainty
303.15	101.325	1.3791	0.0005

System: ethyl propanoate; phases: Liquid
Property: Mass density, kg/m3 (Liquid); method: VIBTUB:dT:0.01
Temperature, K	Pressure, kPa	Mass density, kg/m3	uncertainty
298.15	101.325	883.95	0.46

System: ethyl butanoate; phases: Liquid, Gas
Property: Normal boiling temperature, K (Liquid); method: Ebulliometric method (Recirculating still)
Normal boiling temperature, K	uncertainty
394.17	0.13

System: ethyl butanoate; phases: Liquid
Property: Refractive index (Na D-line) (Liquid); method: ABBE:dT:0.01
Temperature, K	Pressure, kPa	Refractive index (Na D-line)	uncertainty
303.15	101.325	1.388	0.0006

System: ethyl butanoate; phases: Liquid
Property: Mass density, kg/m3 (Liquid); method: VIBTUB:dT:0.01
Temperature, K	Pressure, kPa	Mass density, kg/m3	uncertainty
298.15	101.325	873.94	0.9

System: 2-methylpropan-2-ol + ethyl methanoate; phases: Liquid, Gas
Fixed: Pressure, kPa = 101.325
Property: Boiling temperature at pressure P, K (Liquid); method: EBULLIO:UFactor:2
Mole fraction of ethyl methanoate	Boiling temperature at pressure P, K	uncertainty
0.0197	354.13	0.16
0.038	352.79	0.15
0.0559	351.69	0.13
0.0694	350.93	0.13
0.0989	349.21	0.13
0.1136	348.4	0.13
0.1245	347.77	0.12
0.1528	346.3	0.12
0.172	345.38	0.12
0.1843	344.8	0.11
0.2037	344.04	0.11
0.2258	343.1	0.11
0.2433	342.41	0.1
0.2637	341.62	0.1
0.2889	340.71	0.1
0.3116	339.95	0.1
0.3409	339.02	0.09
0.3704	338.18	0.09
0.4025	337.3	0.09
0.4314	336.55	0.09
0.4599	335.87	0.09
0.499	335.01	0.09
0.5095	334.79	0.09
0.5396	334.19	0.09
0.5994	333.05	0.09
0.6664	331.85	0.09
0.6941	331.45	0.09
0.7579	330.5	0.09
0.8025	329.85	0.1
0.8464	329.23	0.1
0.888	328.66	0.1
0.9216	328.2	0.1
0.9544	327.78	0.1
0.9868	327.44	0.1

System: 2-methylpropan-2-ol + ethyl methanoate; phases: Gas, Liquid
Fixed: Pressure, kPa = 101.325
Property: Mole fraction of ethyl methanoate (Gas); method: OTHER
Mole fraction of ethyl methanoate	Mole fraction of ethyl methanoate	uncertainty
0.0197	0.0712	0.0068
0.038	0.1306	0.0065
0.0559	0.1837	0.0061
0.0694	0.221	0.0056
0.0989	0.2961	0.0054
0.1136	0.3303	0.0051
0.1245	0.353	0.0048
0.1528	0.4097	0.0049
0.172	0.4427	0.0049
0.1843	0.4626	0.0049
0.2037	0.4907	0.0052
0.2258	0.5224	0.0054
0.2433	0.5452	0.0053
0.2637	0.5679	0.0053
0.2889	0.5964	0.0054
0.3116	0.6194	0.0053
0.3409	0.646	0.0052
0.3704	0.6702	0.0052
0.4025	0.6939	0.0051
0.4314	0.7143	0.005
0.4599	0.7318	0.0049
0.499	0.7555	0.0047
0.5095	0.7611	0.0047
0.5396	0.777	0.0046
0.5994	0.8066	0.0043
0.6664	0.8393	0.004
0.6941	0.8525	0.0038
0.7579	0.8842	0.0034
0.8025	0.9044	0.0031
0.8464	0.9246	0.0029
0.888	0.9443	0.0026
0.9216	0.9611	0.0025
0.9544	0.9773	0.0023
0.9868	0.9933	0.0022

System: 2-methylpropan-2-ol + ethyl methanoate; phases: Liquid
Fixed: Pressure, kPa = 101.3
Property: Excess molar enthalpy (molar enthalpy of mixing), kJ/mol (Liquid); method: Calvet calorimetry
Temperature, K	Mole fraction of ethyl methanoate	Excess molar enthalpy (molar enthalpy of mixing), kJ/mol	uncertainty
299.15	0.0689	0.5879	0.0154
299.15	0.1401	1.0647	0.0182
299.15	0.2146	1.4819	0.0211
299.15	0.2869	1.7976	0.0236
299.15	0.3549	1.9993	0.0254
299.15	0.4172	2.1159	0.0265
299.15	0.4738	2.1663	0.027
299.15	0.5242	2.1639	0.0269
299.15	0.5696	2.1559	0.0269
299.15	0.571	2.1396	0.0267
299.15	0.6322	2.044	0.0258
299.15	0.6996	1.8688	0.0242
299.15	0.7701	1.6066	0.022
299.15	0.8357	1.2585	0.0194
299.15	0.8964	0.8928	0.0182
299.15	0.9485	0.4531	0.0179
318.15	0.0612	0.5205	0.0139
318.15	0.1263	0.9163	0.0167
318.15	0.2016	1.3653	0.02
318.15	0.2725	1.6751	0.0221
318.15	0.3389	1.8549	0.0236
318.15	0.3986	1.9723	0.0248
318.15	0.4509	2.0307	0.0253
318.15	0.4911	2.048	0.0255
318.15	0.511	2.0516	0.0255
318.15	0.5304	2.0485	0.0255
318.15	0.5696	2.0266	0.0253
318.15	0.6207	1.9869	0.0249
318.15	0.6806	1.8783	0.0238
318.15	0.7292	1.744	0.0227
318.15	0.786	1.5467	0.0209
318.15	0.8292	1.348	0.02
318.15	0.8754	1.092	0.018
318.15	0.9191	0.8054	0.0188
318.15	0.9757	0.305	0.018

System: 2-methylpropan-2-ol + ethyl methanoate; phases: Liquid
Fixed: Pressure, kPa = 101.3
Property: Excess molar volume, m3/mol (Liquid); method: SAME:UFactor:4
Temperature, K	Mole fraction of ethyl methanoate	Excess molar volume, m3/mol	uncertainty
303.15	0.0451	1.65e-06	9e-08
303.15	0.0901	3.35e-06	9e-08
303.15	0.1537	5.06e-06	9e-08
303.15	0.1973	6.07e-06	1e-07
303.15	0.2481	7.02e-06	1e-07
303.15	0.2631	7.32e-06	1e-07
303.15	0.3042	7.9e-06	1.1e-07
303.15	0.3255	8.1e-06	1.1e-07
303.15	0.3448	8.3e-06	1.1e-07
303.15	0.3957	8.6e-06	1.1e-07
303.15	0.4411	8.73e-06	1.1e-07
303.15	0.4445	8.75e-06	1.1e-07
303.15	0.4964	8.79e-06	1.1e-07
303.15	0.5013	8.8e-06	1.1e-07
303.15	0.5084	8.78e-06	1.1e-07
303.15	0.5344	8.7e-06	1.1e-07
303.15	0.5515	8.64e-06	1.1e-07
303.15	0.5677	8.58e-06	1.1e-07
303.15	0.5954	8.35e-06	1.1e-07
303.15	0.6467	7.94e-06	1.1e-07
303.15	0.6956	7.42e-06	1e-07
303.15	0.7432	6.59e-06	1e-07
303.15	0.8016	5.54e-06	9e-08
303.15	0.8477	4.63e-06	9e-08
303.15	0.9067	3.28e-06	8e-08
303.15	0.9465	2.17e-06	8e-08
318.15	0.1022	4.09e-06	9e-08
318.15	0.1289	4.86e-06	9e-08
318.15	0.232	7.07e-06	1e-07
318.15	0.2909	7.96e-06	1.1e-07
318.15	0.3356	8.41e-06	1.1e-07
318.15	0.4076	8.97e-06	1.2e-07
318.15	0.4696	9.17e-06	1.2e-07
318.15	0.4934	9.19e-06	1.2e-07
318.15	0.5055	9.2e-06	1.2e-07
318.15	0.5111	9.19e-06	1.2e-07
318.15	0.5267	9.13e-06	1.2e-07
318.15	0.536	9.09e-06	1.2e-07
318.15	0.5637	8.91e-06	1.1e-07
318.15	0.5859	8.75e-06	1.1e-07
318.15	0.639	8.21e-06	1.1e-07
318.15	0.6902	7.6e-06	1.1e-07
318.15	0.7388	6.82e-06	1e-07
318.15	0.7922	5.79e-06	9e-08
318.15	0.8429	4.71e-06	9e-08
318.15	0.8913	3.45e-06	8e-08
318.15	0.9414	2.04e-06	8e-08

System: 2-methylpropan-2-ol + ethyl acetate; phases: Liquid, Gas
Fixed: Pressure, kPa = 101.325
Property: Boiling temperature at pressure P, K (Liquid); method: EBULLIO:UFactor:2
Mole fraction of ethyl acetate	Boiling temperature at pressure P, K	uncertainty
0.0234	355.18	0.07
0.0334	355.06	0.07
0.0447	354.9	0.07
0.0686	354.57	0.07
0.0947	354.21	0.07
0.1235	353.88	0.07
0.1417	353.61	0.07
0.1573	353.41	0.07
0.1668	353.3	0.07
0.1857	353.08	0.07
0.2009	352.91	0.07
0.2139	352.77	0.07
0.2369	352.52	0.07
0.2599	352.27	0.07
0.2823	352.05	0.07
0.3063	351.84	0.07
0.3339	351.6	0.07
0.3625	351.36	0.07
0.3991	351.08	0.07
0.4386	350.81	0.07
0.4771	350.58	0.07
0.5052	350.41	0.07
0.5619	350.14	0.07
0.6098	349.97	0.07
0.6629	349.81	0.07
0.7244	349.68	0.07
0.7679	349.63	0.07
0.8102	349.6	0.07
0.8428	349.59	0.07
0.8878	349.74	0.07
0.9322	349.88	0.07
0.9778	350.1	0.07

System: 2-methylpropan-2-ol + ethyl acetate; phases: Gas, Liquid
Fixed: Pressure, kPa = 101.325
Property: Mole fraction of ethyl acetate (Gas); method: OTHER
Mole fraction of ethyl acetate	Mole fraction of ethyl acetate	uncertainty
0.0234	0.0358	0.0036
0.0334	0.0508	0.0036
0.0447	0.0671	0.0035
0.0686	0.1012	0.0034
0.0947	0.1367	0.0033
0.1235	0.1742	0.0033
0.1417	0.1969	0.0032
0.1573	0.2161	0.0032
0.1668	0.2281	0.0031
0.1857	0.2501	0.0031
0.2009	0.2682	0.0031
0.2139	0.2834	0.0031
0.2369	0.3086	0.0031
0.2599	0.3339	0.003
0.2823	0.3571	0.0031
0.3063	0.3821	0.0031
0.3339	0.4091	0.0031
0.3625	0.4361	0.0032
0.3991	0.4701	0.0033
0.4386	0.5056	0.0035
0.4771	0.5384	0.0036
0.5052	0.5635	0.0036
0.5619	0.6104	0.0035
0.6098	0.6478	0.0035
0.6629	0.6913	0.0035
0.7244	0.7416	0.0034
0.7679	0.7759	0.0033
0.8102	0.8129	0.0033
0.8428	0.8415	0.0032
0.8878	0.8823	0.0031
0.9322	0.9252	0.003
0.9778	0.9744	0.003

System: 2-methylpropan-2-ol + ethyl acetate; phases: Liquid, Gas
Property: Azeotropic composition: mole fraction of ethyl acetate (Liquid); method: By X=Y
Temperature, K	Azeotropic composition: mole fraction of ethyl acetate	uncertainty
349.59	0.832	0.003

System: 2-methylpropan-2-ol + ethyl acetate; phases: Liquid, Gas
Property: Azeotropic composition: mole fraction of ethyl acetate (Liquid); method: By X=Y
Pressure, kPa	Azeotropic composition: mole fraction of ethyl acetate	uncertainty
101.32	0.832	0.003

System: 2-methylpropan-2-ol + ethyl acetate; phases: Liquid
Fixed: Pressure, kPa = 101.3
Property: Excess molar enthalpy (molar enthalpy of mixing), kJ/mol (Liquid); method: Calvet calorimetry
Temperature, K	Mole fraction of ethyl acetate	Excess molar enthalpy (molar enthalpy of mixing), kJ/mol	uncertainty
299.15	0.0546	0.3761	0.013
299.15	0.1163	0.7463	0.0149
299.15	0.181	1.1004	0.0171
299.15	0.2456	1.3907	0.0192
299.15	0.3079	1.6109	0.0211
299.15	0.3672	1.7674	0.0225
299.15	0.4207	1.8621	0.0234
299.15	0.4707	1.9211	0.024
299.15	0.5157	1.9395	0.0242
299.15	0.5541	1.9324	0.0241
299.15	0.564	1.9257	0.024
299.15	0.6199	1.8558	0.0234
299.15	0.68	1.727	0.0222
299.15	0.7438	1.5256	0.0205
299.15	0.8091	1.2501	0.0184
299.15	0.8769	0.8872	0.0163
299.15	0.9385	0.4892	0.0144
318.15	0.0538	0.3342	0.0125
318.15	0.1146	0.6877	0.0143
318.15	0.1733	1.0047	0.0163
318.15	0.2313	1.2853	0.0182
318.15	0.2953	1.5104	0.02
318.15	0.3487	1.6582	0.0213
318.15	0.3987	1.7649	0.0223
318.15	0.4461	1.8337	0.023
318.15	0.4878	1.8625	0.0233
318.15	0.5176	1.873	0.0234
318.15	0.5676	1.8575	0.0232
318.15	0.6236	1.7939	0.0226
318.15	0.6844	1.6633	0.0215
318.15	0.7436	1.4708	0.0199
318.15	0.8108	1.194	0.0178
318.15	0.8797	0.8282	0.0155
318.15	0.9442	0.4333	0.0135

System: 2-methylpropan-2-ol + ethyl acetate; phases: Liquid
Fixed: Pressure, kPa = 101.3
Property: Excess molar volume, m3/mol (Liquid); method: SAME:UFactor:4
Temperature, K	Mole fraction of ethyl acetate	Excess molar volume, m3/mol	uncertainty
303.15	0.0458	1.14e-06	7e-08
303.15	0.0972	2.65e-06	8e-08
303.15	0.1702	4.43e-06	9e-08
303.15	0.1982	4.99e-06	8e-08
303.15	0.2483	5.78e-06	9e-08
303.15	0.2718	6.12e-06	9e-08
303.15	0.3074	6.6e-06	9e-08
303.15	0.3613	7.08e-06	1e-07
303.15	0.3973	7.3e-06	1e-07
303.15	0.4626	7.52e-06	1e-07
303.15	0.5178	7.55e-06	1e-07
303.15	0.5274	7.54e-06	1e-07
303.15	0.5449	7.51e-06	1e-07
303.15	0.5624	7.48e-06	1e-07
303.15	0.5722	7.42e-06	1e-07
303.15	0.5885	7.35e-06	1e-07
303.15	0.5998	7.3e-06	1e-07
303.15	0.6022	7.27e-06	1e-07
303.15	0.6086	7.2e-06	1e-07
303.15	0.6124	7.17e-06	1e-07
303.15	0.6336	7.06e-06	1e-07
303.15	0.6501	6.87e-06	1e-07
303.15	0.7084	6.24e-06	9e-08
303.15	0.7732	5.29e-06	9e-08
303.15	0.8111	4.6e-06	8e-08
303.15	0.8533	3.72e-06	8e-08
303.15	0.8915	2.84e-06	8e-08
303.15	0.9686	8.6e-07	7e-08
318.15	0.0796	2.37e-06	7e-08
318.15	0.1377	3.7e-06	8e-08
318.15	0.1899	4.83e-06	9e-08
318.15	0.2558	6.14e-06	1e-07
318.15	0.2985	6.84e-06	1e-07
318.15	0.3703	7.44e-06	1e-07
318.15	0.4344	7.86e-06	1e-07
318.15	0.4633	7.93e-06	1e-07
318.15	0.5377	7.95e-06	1.1e-07
318.15	0.5626	7.87e-06	1e-07
318.15	0.6284	7.55e-06	1e-07
318.15	0.6913	7e-06	1e-07
318.15	0.767	5.96e-06	9e-08
318.15	0.8516	4.18e-06	8e-08
318.15	0.8891	3.61e-06	8e-08
318.15	0.9294	2.37e-06	8e-08

System: 2-methylpropan-2-ol + ethyl propanoate; phases: Liquid, Gas
Fixed: Pressure, kPa = 101.325
Property: Boiling temperature at pressure P, K (Liquid); method: EBULLIO:UFactor:2
Mole fraction of ethyl propanoate	Boiling temperature at pressure P, K	uncertainty
0.0261	355.8	0.06
0.0458	355.88	0.06
0.0784	355.96	0.06
0.1102	356.19	0.06
0.1423	356.38	0.06
0.1865	356.63	0.07
0.2279	356.89	0.07
0.2791	357.31	0.07
0.3259	357.75	0.07
0.3552	357.99	0.07
0.4088	358.46	0.07
0.4565	358.94	0.07
0.4845	359.27	0.07
0.5141	359.64	0.07
0.5212	359.73	0.07
0.5421	360.01	0.07
0.5598	360.28	0.07
0.5739	360.49	0.07
0.6005	360.91	0.08
0.6033	360.97	0.08
0.6289	361.39	0.08
0.6597	361.96	0.08
0.6885	362.51	0.08
0.7081	362.93	0.08
0.7285	363.36	0.08
0.7628	364.11	0.09
0.8056	365.24	0.09
0.8115	365.38	0.09
0.8316	365.91	0.09
0.86	366.79	0.09
0.891	367.73	0.1
0.922	368.72	0.1
0.9522	369.94	0.11
0.9797	371.05	0.11

System: 2-methylpropan-2-ol + ethyl propanoate; phases: Gas, Liquid
Fixed: Pressure, kPa = 101.325
Property: Mole fraction of ethyl propanoate (Gas); method: OTHER
Mole fraction of ethyl propanoate	Mole fraction of ethyl propanoate	uncertainty
0.0261	0.0218	0.0026
0.0458	0.0378	0.0026
0.0784	0.0641	0.0026
0.1102	0.0896	0.0026
0.1423	0.1147	0.0025
0.1865	0.1485	0.0025
0.2279	0.1786	0.0025
0.2791	0.217	0.0025
0.3259	0.2517	0.0025
0.3552	0.271	0.0025
0.4088	0.3082	0.0025
0.4565	0.3424	0.0026
0.4845	0.3645	0.0027
0.5141	0.3871	0.0028
0.5212	0.3926	0.0028
0.5421	0.4091	0.0029
0.5598	0.4239	0.003
0.5739	0.4357	0.0031
0.6005	0.4573	0.0032
0.6033	0.4604	0.0032
0.6289	0.4832	0.0034
0.6597	0.5112	0.0036
0.6885	0.5394	0.0037
0.7081	0.5592	0.0038
0.7285	0.5811	0.0039
0.7628	0.62	0.0039
0.8056	0.6711	0.0041
0.8115	0.679	0.0041
0.8316	0.7055	0.0041
0.86	0.7456	0.0042
0.891	0.7921	0.0043
0.922	0.8444	0.0044
0.9522	0.8996	0.0045
0.9797	0.9552	0.0045

System: 2-methylpropan-2-ol + ethyl propanoate; phases: Liquid
Fixed: Pressure, kPa = 101.3
Property: Excess molar enthalpy (molar enthalpy of mixing), kJ/mol (Liquid); method: Calvet calorimetry
Temperature, K	Mole fraction of ethyl propanoate	Excess molar enthalpy (molar enthalpy of mixing), kJ/mol	uncertainty
299.15	0.0555	0.3352	0.012
299.15	0.1332	0.7669	0.014
299.15	0.2151	1.1348	0.0165
299.15	0.2979	1.4491	0.0193
299.15	0.3767	1.6629	0.0214
299.15	0.4164	1.7441	0.0221
299.15	0.4497	1.7895	0.0224
299.15	0.477	1.8085	0.0226
299.15	0.5513	1.7993	0.0225
299.15	0.6351	1.7229	0.0218
299.15	0.73	1.4817	0.0197
299.15	0.8294	1.076	0.017
299.15	0.9242	0.5511	0.0132
318.15	0.051	0.2926	0.0108
318.15	0.1094	0.5853	0.0125
318.15	0.1681	0.8751	0.0145
318.15	0.2276	1.1325	0.0165
318.15	0.2892	1.3715	0.0185
318.15	0.3477	1.5368	0.0199
318.15	0.4028	1.6543	0.0211
318.15	0.4347	1.7148	0.0217
318.15	0.4528	1.7382	0.0219
318.15	0.4786	1.7739	0.0222
318.15	0.5297	1.7801	0.0222
318.15	0.5872	1.7525	0.022
318.15	0.6499	1.6659	0.0212
318.15	0.7164	1.5067	0.0198
318.15	0.7897	1.2553	0.0178
318.15	0.8641	0.9084	0.0156
318.15	0.9381	0.479	0.0132

System: 2-methylpropan-2-ol + ethyl propanoate; phases: Liquid
Fixed: Pressure, kPa = 101.3
Property: Excess molar volume, m3/mol (Liquid); method: SAME:UFactor:4
Temperature, K	Mole fraction of ethyl propanoate	Excess molar volume, m3/mol	uncertainty
303.15	0.0345	7.6e-07	6e-08
303.15	0.0905	2.12e-06	7e-08
303.15	0.1495	3.31e-06	7e-08
303.15	0.1943	4.02e-06	7e-08
303.15	0.2497	4.82e-06	8e-08
303.15	0.2987	5.39e-06	8e-08
303.15	0.3496	5.77e-06	9e-08
303.15	0.3997	6.19e-06	9e-08
303.15	0.4466	6.39e-06	9e-08
303.15	0.4486	6.45e-06	9e-08
303.15	0.4998	6.48e-06	9e-08
303.15	0.5006	6.53e-06	9e-08
303.15	0.5163	6.52e-06	9e-08
303.15	0.5188	6.51e-06	9e-08
303.15	0.5569	6.47e-06	9e-08
303.15	0.5646	6.42e-06	9e-08
303.15	0.5964	6.31e-06	9e-08
303.15	0.6368	6.07e-06	9e-08
303.15	0.6458	6e-06	9e-08
303.15	0.7044	5.45e-06	8e-08
303.15	0.7533	4.87e-06	8e-08
303.15	0.8103	4.04e-06	8e-08
303.15	0.858	3.25e-06	7e-08
303.15	0.9096	2.24e-06	7e-08
303.15	0.9432	1.54e-06	6e-08
318.15	0.0694	1.85e-06	6e-08
318.15	0.1223	2.99e-06	7e-08
318.15	0.1759	3.87e-06	7e-08
318.15	0.2144	4.51e-06	8e-08
318.15	0.2746	5.29e-06	8e-08
318.15	0.3188	5.79e-06	9e-08
318.15	0.3648	6.16e-06	9e-08
318.15	0.4303	6.43e-06	9e-08
318.15	0.4669	6.5e-06	9e-08
318.15	0.5429	6.53e-06	9e-08
318.15	0.596	6.43e-06	9e-08
318.15	0.6662	6.05e-06	9e-08
318.15	0.7319	5.43e-06	8e-08
318.15	0.8088	4.45e-06	8e-08
318.15	0.8557	3.75e-06	8e-08
318.15	0.9183	2.28e-06	7e-08

System: 2-methylpropan-2-ol + ethyl butanoate; phases: Liquid, Gas
Fixed: Pressure, kPa = 101.325
Property: Boiling temperature at pressure P, K (Liquid); method: EBULLIO:UFactor:4
Mole fraction of ethyl butanoate	Boiling temperature at pressure P, K	uncertainty
0.0218	355.9	0.13
0.0454	356.38	0.13
0.0555	356.54	0.13
0.069	356.71	0.13
0.104	357.31	0.13
0.1201	357.49	0.13
0.1628	358.32	0.13
0.1983	358.85	0.13
0.2309	359.44	0.13
0.2797	360.2	0.13
0.3246	361.13	0.13
0.3871	362.37	0.14
0.4312	363.43	0.14
0.4661	364.21	0.14
0.5106	365.28	0.14
0.5503	366.42	0.14
0.5856	367.45	0.15
0.6169	368.42	0.15
0.6322	368.91	0.15
0.6619	369.93	0.15
0.6908	371.03	0.16
0.7301	372.63	0.16
0.7514	373.55	0.17
0.7901	375.45	0.17
0.8195	377.06	0.18
0.8425	378.52	0.19
0.86	379.66	0.2
0.8784	380.98	0.21
0.8901	381.96	0.22
0.9013	382.86	0.22
0.9105	383.63	0.23
0.9204	384.54	0.24
0.932	385.74	0.26
0.9424	386.87	0.26
0.951	387.84	0.27
0.9606	388.93	0.27
0.972	390.22	0.28
0.978	391.06	0.31
0.9855	392.07	0.31

System: 2-methylpropan-2-ol + ethyl butanoate; phases: Gas, Liquid
Fixed: Pressure, kPa = 101.325
Property: Mole fraction of ethyl butanoate (Gas); method: OTHER
Mole fraction of ethyl butanoate	Mole fraction of ethyl butanoate	uncertainty
0.0218	0.0098	0.002
0.0454	0.0204	0.002
0.0555	0.025	0.002
0.069	0.031	0.002
0.104	0.047	0.002
0.1201	0.0541	0.002
0.1628	0.0735	0.002
0.1983	0.0887	0.002
0.2309	0.1032	0.002
0.2797	0.1231	0.002
0.3246	0.1431	0.002
0.3871	0.1704	0.002
0.4312	0.1939	0.002
0.4661	0.2113	0.002
0.5106	0.2352	0.0021
0.5503	0.2602	0.0021
0.5856	0.2835	0.0022
0.6169	0.3055	0.0023
0.6322	0.3165	0.0023
0.6619	0.3384	0.0025
0.6908	0.3632	0.0026
0.7301	0.3993	0.003
0.7514	0.4207	0.0032
0.7901	0.4666	0.0039
0.8195	0.5076	0.0046
0.8425	0.5441	0.0047
0.86	0.5739	0.0048
0.8784	0.6082	0.0049
0.8901	0.6326	0.005
0.9013	0.6579	0.0049
0.9105	0.68	0.0049
0.9204	0.7058	0.0048
0.932	0.7369	0.0047
0.9424	0.7685	0.0045
0.951	0.7961	0.0043
0.9606	0.8295	0.004
0.972	0.8731	0.0034
0.978	0.8975	0.0031
0.9855	0.9299	0.0026

System: 2-methylpropan-2-ol + ethyl butanoate; phases: Liquid
Fixed: Pressure, kPa = 101.3
Property: Excess molar enthalpy (molar enthalpy of mixing), kJ/mol (Liquid); method: Calvet calorimetry
Temperature, K	Mole fraction of ethyl butanoate	Excess molar enthalpy (molar enthalpy of mixing), kJ/mol	uncertainty
299.15	0.0438	0.2518	0.0112
299.15	0.0937	0.5156	0.0123
299.15	0.1461	0.7789	0.0141
299.15	0.1991	1.0406	0.0157
299.15	0.2541	1.2374	0.0171
299.15	0.3061	1.4119	0.0187
299.15	0.3568	1.5494	0.0199
299.15	0.4053	1.6425	0.0209
299.15	0.4331	1.6966	0.0213
299.15	0.4818	1.7418	0.0218
299.15	0.5387	1.7519	0.0219
299.15	0.6024	1.7113	0.0215
299.15	0.6746	1.5961	0.0204
299.15	0.7522	1.3863	0.0187
299.15	0.833	1.0501	0.0164
299.15	0.9172	0.5989	0.0132
318.15	0.0394	0.2933	0.011
318.15	0.0951	0.5773	0.012
318.15	0.158	0.8507	0.0136
318.15	0.2201	1.0882	0.0157
318.15	0.2807	1.3101	0.0176
318.15	0.3377	1.46	0.019
318.15	0.385	1.5748	0.0201
318.15	0.4267	1.6382	0.0207
318.15	0.4576	1.6905	0.0212
318.15	0.4628	1.6943	0.0212
318.15	0.4938	1.7232	0.0216
318.15	0.5386	1.7382	0.0217
318.15	0.5934	1.714	0.022
318.15	0.6595	1.6195	0.0207
318.15	0.7407	1.4059	0.0189
318.15	0.8336	1.0404	0.0161
318.15	0.9223	0.5697	0.0129

System: 2-methylpropan-2-ol + ethyl butanoate; phases: Liquid
Fixed: Pressure, kPa = 101.3
Property: Excess molar volume, m3/mol (Liquid); method: SAME:UFactor:4
Temperature, K	Mole fraction of ethyl butanoate	Excess molar volume, m3/mol	uncertainty
303.15	0.0445	9.2e-07	6e-08
303.15	0.0966	2.08e-06	7e-08
303.15	0.1518	3.11e-06	7e-08
303.15	0.1999	3.83e-06	7e-08
303.15	0.2466	4.41e-06	8e-08
303.15	0.3111	5.13e-06	8e-08
303.15	0.3504	5.6e-06	8e-08
303.15	0.4043	5.91e-06	9e-08
303.15	0.4468	6.09e-06	9e-08
303.15	0.4837	6.11e-06	9e-08
303.15	0.5015	6.11e-06	9e-08
303.15	0.5259	6.07e-06	9e-08
303.15	0.5538	5.99e-06	9e-08
303.15	0.6004	5.74e-06	9e-08
303.15	0.6399	5.5e-06	8e-08
303.15	0.663	5.23e-06	8e-08
303.15	0.7129	4.83e-06	8e-08
303.15	0.7538	4.33e-06	8e-08
303.15	0.7934	3.77e-06	7e-08
303.15	0.8465	2.99e-06	7e-08
303.15	0.9017	2e-06	6e-08
303.15	0.9614	8.2e-07	6e-08
318.15	0.0604	1.83e-06	6e-08
318.15	0.1099	2.85e-06	7e-08
318.15	0.1559	3.63e-06	7e-08
318.15	0.2141	4.45e-06	8e-08
318.15	0.265	5.17e-06	8e-08
318.15	0.2982	5.41e-06	8e-08
318.15	0.3386	5.74e-06	9e-08
318.15	0.39	6.14e-06	9e-08
318.15	0.4477	6.44e-06	9e-08
318.15	0.4595	6.5e-06	9e-08
318.15	0.4778	6.53e-06	9e-08
318.15	0.4982	6.55e-06	9e-08
318.15	0.4996	6.56e-06	9e-08
318.15	0.5163	6.56e-06	9e-08
318.15	0.5222	6.55e-06	9e-08
318.15	0.5936	6.38e-06	9e-08
318.15	0.6597	6.03e-06	9e-08
318.15	0.7011	5.73e-06	9e-08
318.15	0.745	5.15e-06	8e-08
318.15	0.7968	4.5e-06	8e-08
318.15	0.8396	3.81e-06	8e-08
318.15	0.8701	3.15e-06	7e-08
318.15	0.9283	2.01e-06	6e-08
