Measured thermophysical data. Density, Viscosity, Refractive Index, and Speed of Sound in the Binary Mixtures of Ethyl Chloroacetate + Cyclohexanone, + Chlorobenzene, + Bromobenzene, or + Benzyl Alcohol at (298.15, 303.15, and 308.15) K
Source: J. Chem. Eng. Data, 2003, 10.1021/je0201828
Compound 1: ethyl chloroethanoate, C4H7ClO2, InChI=1S/C4H7ClO2/c1-2-7-4(6)3-5/h2-3H2,1H3, purity 99%
Compound 2: cyclohexanone, C6H10O, InChI=1S/C6H10O/c7-6-4-2-1-3-5-6/h1-5H2, purity 99%
Compound 3: chlorobenzene, C6H5Cl, InChI=1S/C6H5Cl/c7-6-4-2-1-3-5-6/h1-5H, purity 99%
Compound 4: bromobenzene, C6H5Br, InChI=1S/C6H5Br/c7-6-4-2-1-3-5-6/h1-5H, purity 99%
Compound 5: benzenemethanol, C7H8O, InChI=1S/C7H8O/c8-6-7-4-2-1-3-5-7/h1-5,8H,6H2, purity 99%

System: ethyl chloroethanoate; phases: Liquid
Fixed: Pressure, kPa = 101.325
Property: Refractive index (Na D-line) (Liquid); method: ABBE:UFactor:2
Temperature, K	Refractive index (Na D-line)	uncertainty
298.15	1.42	0.0007
303.15	1.4173	0.0007
308.15	1.4148	0.0007

System: ethyl chloroethanoate; phases: Liquid
Fixed: Pressure, kPa = 101.3
Property: Viscosity, Pa*s (Liquid); method: CAPTUB:UFactor:2
Temperature, K	Viscosity, Pa*s	uncertainty
298.15	0.001095	1.4e-05
303.15	0.001013	1.3e-05
308.15	0.00093	1.2e-05

System: ethyl chloroethanoate; phases: Liquid
Property: Speed of sound, m/s (Liquid); method: LVPAI:UFactor:2
Pressure, kPa	Temperature, K	Speed of sound, m/s	uncertainty
101.3	298.15	1250	3

System: ethyl chloroethanoate; phases: Liquid
Fixed: Pressure, kPa = 101.3
Property: Mass density, kg/m3 (Liquid); method: PYCNOM:UFactor:8
Temperature, K	Mass density, kg/m3	uncertainty
298.15	1145	2.4
303.15	1139	2.5
308.15	1132	2.5

System: cyclohexanone; phases: Liquid
Fixed: Pressure, kPa = 101.325
Property: Refractive index (Na D-line) (Liquid); method: ABBE::UFactor:2
Temperature, K	Refractive index (Na D-line)	uncertainty
298.15	1.4486	0.0007
303.15	1.4461	0.0007
308.15	1.444	0.0007

System: cyclohexanone; phases: Liquid
Fixed: Pressure, kPa = 101.3
Property: Viscosity, Pa*s (Liquid); method: CAPTUB::UFactor:2
Temperature, K	Viscosity, Pa*s	uncertainty
298.15	0.001963	2.5e-05
303.15	0.001768	2.2e-05
308.15	0.001602	2e-05

System: cyclohexanone; phases: Liquid
Property: Speed of sound, m/s (Liquid); method: LVPAI::UFactor:2
Pressure, kPa	Temperature, K	Speed of sound, m/s	uncertainty
101.3	298.15	1417	3

System: cyclohexanone; phases: Liquid
Fixed: Pressure, kPa = 101.3
Property: Mass density, kg/m3 (Liquid); method: PYCNOM::UFactor:8
Temperature, K	Mass density, kg/m3	uncertainty
298.15	942.5	1.9
303.15	937.3	2
308.15	932.3	2

System: chlorobenzene; phases: Liquid
Fixed: Pressure, kPa = 101.325
Property: Refractive index (Na D-line) (Liquid); method: ABBE::UFactor:2
Temperature, K	Refractive index (Na D-line)	uncertainty
298.15	1.5223	0.0007
303.15	1.5195	0.0007
308.15	1.5166	0.0007

System: chlorobenzene; phases: Liquid
Fixed: Pressure, kPa = 101.3
Property: Viscosity, Pa*s (Liquid); method: CAPTUB::UFactor:2
Temperature, K	Viscosity, Pa*s	uncertainty
298.15	0.000773	1.1e-05
303.15	0.000725	1e-05
308.15	0.000683	1e-05

System: chlorobenzene; phases: Liquid
Property: Speed of sound, m/s (Liquid); method: LVPAI::UFactor:2
Pressure, kPa	Temperature, K	Speed of sound, m/s	uncertainty
101.3	298.15	1271	3

System: chlorobenzene; phases: Liquid
Fixed: Pressure, kPa = 101.3
Property: Mass density, kg/m3 (Liquid); method: PYCNOM::UFactor:4
Temperature, K	Mass density, kg/m3	uncertainty
298.15	1101	1.2
303.15	1095	1.3
308.15	1090	1.3

System: bromobenzene; phases: Liquid
Fixed: Pressure, kPa = 101.325
Property: Refractive index (Na D-line) (Liquid); method: ABBE::UFactor:2
Temperature, K	Refractive index (Na D-line)	uncertainty
298.15	1.5577	0.0007
303.15	1.5542	0.0007
308.15	1.5514	0.0007

System: bromobenzene; phases: Liquid
Fixed: Pressure, kPa = 101.3
Property: Viscosity, Pa*s (Liquid); method: CAPTUB::UFactor:2
Temperature, K	Viscosity, Pa*s	uncertainty
298.15	0.00108	1.4e-05
303.15	0.001013	1.3e-05
308.15	0.000953	1.3e-05

System: bromobenzene; phases: Liquid
Property: Speed of sound, m/s (Liquid); method: LVPAI::UFactor:2
Pressure, kPa	Temperature, K	Speed of sound, m/s	uncertainty
101.3	298.15	1162	3

System: bromobenzene; phases: Liquid
Fixed: Pressure, kPa = 101.3
Property: Mass density, kg/m3 (Liquid); method: PYCNOM::UFactor:4
Temperature, K	Mass density, kg/m3	uncertainty
298.15	1489	1.8
303.15	1481	1.8
308.15	1473	1.8

System: benzenemethanol; phases: Liquid
Fixed: Pressure, kPa = 101.325
Property: Refractive index (Na D-line) (Liquid); method: ABBE::UFactor:2
Temperature, K	Refractive index (Na D-line)	uncertainty
298.15	1.5378	0.0007
303.15	1.5354	0.0007
308.15	1.5318	0.0007

System: benzenemethanol; phases: Liquid
Fixed: Pressure, kPa = 101.3
Property: Viscosity, Pa*s (Liquid); method: CAPTUB::UFactor:2
Temperature, K	Viscosity, Pa*s	uncertainty
298.15	0.005313	6.3e-05
303.15	0.004515	5.4e-05
308.15	0.003877	4.7e-05

System: benzenemethanol; phases: Liquid
Property: Speed of sound, m/s (Liquid); method: LVPAI::UFactor:2
Pressure, kPa	Temperature, K	Speed of sound, m/s	uncertainty
101.3	298.15	1541	3

System: benzenemethanol; phases: Liquid
Fixed: Pressure, kPa = 101.3
Property: Mass density, kg/m3 (Liquid); method: PYCNOM::UFactor:8
Temperature, K	Mass density, kg/m3	uncertainty
298.15	1041	2.1
303.15	1037	2.2
308.15	1033	2.3

System: ethyl chloroethanoate + cyclohexanone; phases: Liquid
Fixed: Pressure, kPa = 101.3
Fixed: Temperature, K = 298.15
Property: Speed of sound, m/s (Liquid); method: LVPAI:UFactor:2
Mole fraction of ethyl chloroethanoate	Speed of sound, m/s	uncertainty
0	1417	3
0.1084	1396	3
0.2069	1379	3
0.306	1361	3
0.3993	1345	3
0.5032	1328	3
0.6002	1312	3
0.6945	1297	3
0.7947	1283	3
0.8975	1267	3
1	1250	3

System: ethyl chloroethanoate + cyclohexanone; phases: Liquid
Fixed: Pressure, kPa = 101.3
Property: Viscosity, Pa*s (Liquid); method: CAPTUB:UFactor:2
Temperature, K	Mole fraction of ethyl chloroethanoate	Viscosity, Pa*s	uncertainty
298.15	0	0.001963	2.5e-05
298.15	0.1084	0.001745	2.2e-05
298.15	0.2069	0.001604	2e-05
298.15	0.306	0.001493	1.9e-05
298.15	0.3993	0.001403	1.8e-05
298.15	0.5032	0.001352	1.7e-05
298.15	0.6002	0.001283	1.7e-05
298.15	0.6945	0.00123	1.6e-05
298.15	0.7947	0.001191	1.6e-05
298.15	0.8975	0.001144	1.5e-05
298.15	1	0.001095	1.4e-05
303.15	0	0.001768	2.2e-05
303.15	0.1084	0.001595	2e-05
303.15	0.2069	0.00147	1.9e-05
303.15	0.306	0.001376	1.8e-05
303.15	0.3993	0.001298	1.7e-05
303.15	0.5032	0.001244	1.6e-05
303.15	0.6002	0.001184	1.5e-05
303.15	0.6945	0.001139	1.5e-05
303.15	0.7947	0.001101	1.5e-05
303.15	0.8975	0.001058	1.4e-05
303.15	1	0.001013	1.3e-05
308.15	0	0.001602	2e-05
308.15	0.1084	0.001444	1.9e-05
308.15	0.2069	0.001336	1.7e-05
308.15	0.306	0.001259	1.6e-05
308.15	0.3993	0.00119	1.6e-05
308.15	0.5032	0.001135	1.5e-05
308.15	0.6002	0.001087	1.4e-05
308.15	0.6945	0.001047	1.4e-05
308.15	0.7947	0.001011	1.3e-05
308.15	0.8975	0.000972	1.3e-05
308.15	1	0.00093	1.2e-05

System: ethyl chloroethanoate + cyclohexanone; phases: Liquid
Fixed: Pressure, kPa = 101.3
Property: Refractive index (Na D-line) (Liquid); method: ABBE:UFactor:2
Temperature, K	Mole fraction of ethyl chloroethanoate	Refractive index (Na D-line)	uncertainty
298.15	0	1.4486	0.0007
298.15	0.1084	1.4453	0.0007
298.15	0.2069	1.4424	0.0007
298.15	0.306	1.4395	0.0007
298.15	0.3993	1.4367	0.0007
298.15	0.5032	1.4337	0.0007
298.15	0.6002	1.4309	0.0007
298.15	0.6945	1.4283	0.0007
298.15	0.7947	1.4256	0.0007
298.15	0.8975	1.4228	0.0007
298.15	1	1.42	0.0007
303.15	0	1.4461	0.0007
303.15	0.1084	1.443	0.0007
303.15	0.2069	1.4399	0.0007
303.15	0.306	1.437	0.0007
303.15	0.3993	1.4342	0.0007
303.15	0.5032	1.4312	0.0007
303.15	0.6002	1.4286	0.0007
303.15	0.6945	1.4255	0.0007
303.15	0.7947	1.423	0.0007
303.15	0.8975	1.4203	0.0007
303.15	1	1.4173	0.0007
308.15	0	1.444	0.0007
308.15	0.1084	1.4406	0.0007
308.15	0.2069	1.4375	0.0007
308.15	0.306	1.4346	0.0007
308.15	0.3993	1.4319	0.0007
308.15	0.5032	1.4289	0.0007
308.15	0.6002	1.4262	0.0007
308.15	0.6945	1.4236	0.0007
308.15	0.7947	1.4207	0.0007
308.15	0.8975	1.4178	0.0007
308.15	1	1.4148	0.0007

System: ethyl chloroethanoate + cyclohexanone; phases: Liquid
Fixed: Pressure, kPa = 101.3
Property: Mass density, kg/m3 (Liquid); method: PYCNOM:UFactor:8
Temperature, K	Mole fraction of ethyl chloroethanoate	Mass density, kg/m3	uncertainty
298.15	0	942.5	1.9
298.15	0.1084	964.3	1.9
298.15	0.2069	984.4	2
298.15	0.306	1004	2
298.15	0.3993	1023	2.1
298.15	0.5032	1044	2.1
298.15	0.6002	1064	2.2
298.15	0.6945	1083	2.2
298.15	0.7947	1104	2.3
298.15	0.8975	1124	2.3
298.15	1	1145	2.4
303.15	0	937.3	2
303.15	0.1084	959.1	2
303.15	0.2069	979.1	2.1
303.15	0.306	999.6	2.1
303.15	0.3993	1018	2.2
303.15	0.5032	1038	2.2
303.15	0.6002	1058	2.3
303.15	0.6945	1077	2.3
303.15	0.7947	1097	2.4
303.15	0.8975	1118	2.4
303.15	1	1139	2.5
308.15	0	932.3	2
308.15	0.1084	954.3	2.1
308.15	0.2069	974.1	2.1
308.15	0.306	994	2.2
308.15	0.3993	1012	2.2
308.15	0.5032	1033	2.3
308.15	0.6002	1052	2.3
308.15	0.6945	1071	2.4
308.15	0.7947	1091	2.4
308.15	0.8975	1112	2.5
308.15	1	1132	2.5

System: ethyl chloroethanoate + chlorobenzene; phases: Liquid
Fixed: Pressure, kPa = 101.3
Fixed: Temperature, K = 298.15
Property: Speed of sound, m/s (Liquid); method: LVPAI:UFactor:2
Mole fraction of ethyl chloroethanoate	Speed of sound, m/s	uncertainty
0	1271	3
0.1064	1266	3
0.2055	1264	3
0.3	1262	3
0.3972	1261	3
0.5005	1261	3
0.5976	1261	3
0.6985	1260	3
0.7953	1258	3
0.8963	1254	3
1	1250	3

System: ethyl chloroethanoate + chlorobenzene; phases: Liquid
Fixed: Pressure, kPa = 101.3
Property: Viscosity, Pa*s (Liquid); method: CAPTUB:UFactor:2
Temperature, K	Mole fraction of ethyl chloroethanoate	Viscosity, Pa*s	uncertainty
298.15	0	0.000773	1.1e-05
298.15	0.1064	0.000799	1.1e-05
298.15	0.2055	0.000828	1.1e-05
298.15	0.3	0.000858	1.2e-05
298.15	0.3972	0.000889	1.2e-05
298.15	0.5005	0.000925	1.2e-05
298.15	0.5976	0.000959	1.3e-05
298.15	0.6985	0.000996	1.3e-05
298.15	0.7953	0.001031	1.4e-05
298.15	0.8963	0.001064	1.4e-05
298.15	1	0.001095	1.4e-05
303.15	0	0.000725	1e-05
303.15	0.1064	0.000752	1e-05
303.15	0.2055	0.000778	1.1e-05
303.15	0.3	0.000804	1.1e-05
303.15	0.3972	0.000834	1.1e-05
303.15	0.5005	0.000865	1.2e-05
303.15	0.5976	0.000895	1.2e-05
303.15	0.6985	0.000927	1.2e-05
303.15	0.7953	0.000959	1.3e-05
303.15	0.8963	0.000986	1.3e-05
303.15	1	0.001013	1.3e-05
308.15	0	0.000683	1e-05
308.15	0.1064	0.000706	1e-05
308.15	0.2055	0.000728	1e-05
308.15	0.3	0.000751	1e-05
308.15	0.3972	0.000776	1.1e-05
308.15	0.5005	0.000804	1.1e-05
308.15	0.5976	0.000831	1.1e-05
308.15	0.6985	0.000858	1.2e-05
308.15	0.7953	0.000885	1.2e-05
308.15	0.8963	0.00091	1.2e-05
308.15	1	0.00093	1.2e-05

System: ethyl chloroethanoate + chlorobenzene; phases: Liquid
Fixed: Pressure, kPa = 101.3
Property: Refractive index (Na D-line) (Liquid); method: ABBE:UFactor:2
Temperature, K	Mole fraction of ethyl chloroethanoate	Refractive index (Na D-line)	uncertainty
298.15	0	1.5223	0.0007
298.15	0.1064	1.5108	0.0007
298.15	0.2055	1.5002	0.0007
298.15	0.3	1.4902	0.0007
298.15	0.3972	1.4802	0.0007
298.15	0.5005	1.4696	0.0007
298.15	0.5976	1.4596	0.0007
298.15	0.6985	1.4493	0.0007
298.15	0.7953	1.439	0.0007
298.15	0.8963	1.4294	0.0007
298.15	1	1.42	0.0007
303.15	0	1.5195	0.0007
303.15	0.1064	1.5076	0.0007
303.15	0.2055	1.4972	0.0007
303.15	0.3	1.4878	0.0007
303.15	0.3972	1.4773	0.0007
303.15	0.5005	1.4665	0.0007
303.15	0.5976	1.4566	0.0007
303.15	0.6985	1.4467	0.0007
303.15	0.7953	1.4366	0.0007
303.15	0.8963	1.427	0.0007
303.15	1	1.4173	0.0007
308.15	0	1.5166	0.0007
308.15	0.1064	1.505	0.0007
308.15	0.2055	1.4946	0.0007
308.15	0.3	1.4846	0.0007
308.15	0.3972	1.4745	0.0007
308.15	0.5005	1.4639	0.0007
308.15	0.5976	1.4539	0.0007
308.15	0.6985	1.4438	0.0007
308.15	0.7953	1.4338	0.0007
308.15	0.8963	1.4243	0.0007
308.15	1	1.4148	0.0007

System: ethyl chloroethanoate + chlorobenzene; phases: Liquid
Fixed: Pressure, kPa = 101.3
Property: Mass density, kg/m3 (Liquid); method: PYCNOM:UFactor:4
Temperature, K	Mole fraction of ethyl chloroethanoate	Mass density, kg/m3	uncertainty
298.15	0	1101	1.2
298.15	0.1064	1106	1.2
298.15	0.2055	1111	1.2
298.15	0.3	1115	1.3
298.15	0.3972	1120	1.3
298.15	0.5005	1124	1.3
298.15	0.5976	1129	1.3
298.15	0.6985	1133	1.3
298.15	0.7953	1137	1.3
298.15	0.8963	1141	1.3
298.15	1	1145	1.3
303.15	0	1095	1.3
303.15	0.1064	1100	1.3
303.15	0.2055	1105	1.3
303.15	0.3	1109	1.3
303.15	0.3972	1113	1.3
303.15	0.5005	1118	1.3
303.15	0.5976	1122	1.3
303.15	0.6985	1126	1.3
303.15	0.7953	1130	1.3
303.15	0.8963	1134	1.3
303.15	1	1139	1.3
308.15	0	1090	1.3
308.15	0.1064	1094	1.3
308.15	0.2055	1099	1.3
308.15	0.3	1103	1.3
308.15	0.3972	1107	1.3
308.15	0.5005	1112	1.3
308.15	0.5976	1116	1.3
308.15	0.6985	1120	1.3
308.15	0.7953	1124	1.4
308.15	0.8963	1128	1.4
308.15	1	1132	1.4

System: ethyl chloroethanoate + bromobenzene; phases: Liquid
Fixed: Pressure, kPa = 101.3
Fixed: Temperature, K = 298.15
Property: Speed of sound, m/s (Liquid); method: LVPAI:UFactor:2
Mole fraction of ethyl chloroethanoate	Speed of sound, m/s	uncertainty
0	1162	3
0.1089	1170	3
0.2034	1176	3
0.3024	1183	3
0.3976	1190	3
0.5011	1199	3
0.6018	1209	3
0.6992	1218	3
0.7963	1222	6
0.8948	1239	3
1	1250	3

System: ethyl chloroethanoate + bromobenzene; phases: Liquid
Fixed: Pressure, kPa = 101.3
Property: Viscosity, Pa*s (Liquid); method: CAPTUB:UFactor:2
Temperature, K	Mole fraction of ethyl chloroethanoate	Viscosity, Pa*s	uncertainty
298.15	0	0.00108	1.4e-05
298.15	0.1089	0.001079	1.4e-05
298.15	0.2034	0.001079	1.4e-05
298.15	0.3024	0.00108	1.4e-05
298.15	0.3976	0.001082	1.4e-05
298.15	0.5011	0.001085	1.4e-05
298.15	0.6018	0.001087	1.4e-05
298.15	0.6992	0.001092	1.4e-05
298.15	0.7963	0.001096	1.4e-05
298.15	0.8948	0.001098	1.4e-05
298.15	1	0.001095	1.4e-05
303.15	0	0.001013	1.3e-05
303.15	0.1089	0.001012	1.3e-05
303.15	0.2034	0.001011	1.3e-05
303.15	0.3024	0.00101	1.3e-05
303.15	0.3976	0.001011	1.3e-05
303.15	0.5011	0.001012	1.3e-05
303.15	0.6018	0.001014	1.3e-05
303.15	0.6992	0.001017	1.4e-05
303.15	0.7963	0.001018	1.4e-05
303.15	0.8948	0.00101	1.3e-05
303.15	1	0.001013	1.3e-05
308.15	0	0.000953	1.3e-05
308.15	0.1089	0.000947	1.3e-05
308.15	0.2034	0.000943	1.3e-05
308.15	0.3024	0.00094	1.3e-05
308.15	0.3976	0.000938	1.3e-05
308.15	0.5011	0.000938	1.3e-05
308.15	0.6018	0.000942	1.3e-05
308.15	0.6992	0.000941	1.3e-05
308.15	0.7963	0.000941	1.3e-05
308.15	0.8948	0.000939	1.3e-05
308.15	1	0.00093	1.2e-05

System: ethyl chloroethanoate + bromobenzene; phases: Liquid
Fixed: Pressure, kPa = 101.3
Property: Refractive index (Na D-line) (Liquid); method: ABBE:UFactor:2
Temperature, K	Mole fraction of ethyl chloroethanoate	Refractive index (Na D-line)	uncertainty
298.15	0	1.5577	0.0007
298.15	0.1089	1.5419	0.0007
298.15	0.2034	1.5284	0.0007
298.15	0.3024	1.5145	0.0007
298.15	0.3976	1.5011	0.0007
298.15	0.5011	1.4868	0.0007
298.15	0.6018	1.473	0.0007
298.15	0.6992	1.4598	0.0007
298.15	0.7963	1.4469	0.0007
298.15	0.8948	1.4338	0.0007
298.15	1	1.42	0.0007
303.15	0	1.5542	0.0007
303.15	0.1089	1.5385	0.0007
303.15	0.2034	1.5256	0.0007
303.15	0.3024	1.5118	0.0007
303.15	0.3976	1.4982	0.0007
303.15	0.5011	1.4839	0.0007
303.15	0.6018	1.4705	0.0007
303.15	0.6992	1.4578	0.0007
303.15	0.7963	1.4444	0.0007
303.15	0.8948	1.4313	0.0007
303.15	1	1.4173	0.0007
308.15	0	1.5514	0.0007
308.15	0.1089	1.5358	0.0007
308.15	0.2034	1.5224	0.0007
308.15	0.3024	1.5086	0.0007
308.15	0.3976	1.4954	0.0007
308.15	0.5011	1.4812	0.0007
308.15	0.6018	1.4675	0.0007
308.15	0.6992	1.4543	0.0007
308.15	0.7963	1.4413	0.0007
308.15	0.8948	1.4284	0.0007
308.15	1	1.4148	0.0007

System: ethyl chloroethanoate + bromobenzene; phases: Liquid
Fixed: Pressure, kPa = 101.3
Property: Mass density, kg/m3 (Liquid); method: PYCNOM:UFactor:4
Temperature, K	Mole fraction of ethyl chloroethanoate	Mass density, kg/m3	uncertainty
298.15	0	1489	1.8
298.15	0.1089	1451	1.7
298.15	0.2034	1418	1.7
298.15	0.3024	1383	1.6
298.15	0.3976	1351	1.6
298.15	0.5011	1315	1.5
298.15	0.6018	1281	1.5
298.15	0.6992	1247	1.4
298.15	0.7963	1214	1.4
298.15	0.8948	1181	1.3
298.15	1	1145	1.3
303.15	0	1481	1.8
303.15	0.1089	1443	1.7
303.15	0.2034	1410	1.7
303.15	0.3024	1376	1.6
303.15	0.3976	1344	1.6
303.15	0.5011	1308	1.6
303.15	0.6018	1274	1.5
303.15	0.6992	1241	1.5
303.15	0.7963	1207	1.4
303.15	0.8948	1174	1.4
303.15	1	1139	1.3
308.15	0	1473	1.8
308.15	0.1089	1436	1.8
308.15	0.2034	1403	1.7
308.15	0.3024	1369	1.7
308.15	0.3976	1337	1.6
308.15	0.5011	1301	1.6
308.15	0.6018	1267	1.5
308.15	0.6992	1234	1.5
308.15	0.7963	1201	1.5
308.15	0.8948	1167	1.4
308.15	1	1132	1.4

System: benzenemethanol + ethyl chloroethanoate; phases: Liquid
Fixed: Pressure, kPa = 101.3
Fixed: Temperature, K = 298.15
Property: Speed of sound, m/s (Liquid); method: LVPAI:UFactor:2
Mole fraction of ethyl chloroethanoate	Speed of sound, m/s	uncertainty
0	1541	3
0.1072	1503	3
0.2035	1472	3
0.2998	1442	3
0.395	1412	3
0.5	1380	3
0.5984	1352	3
0.6981	1325	3
0.7972	1299	3
0.8941	1275	3
1	1250	3

System: benzenemethanol + ethyl chloroethanoate; phases: Liquid
Fixed: Pressure, kPa = 101.3
Property: Viscosity, Pa*s (Liquid); method: CAPTUB:UFactor:2
Temperature, K	Mole fraction of ethyl chloroethanoate	Viscosity, Pa*s	uncertainty
298.15	0	0.005313	6.3e-05
298.15	0.1072	0.004078	4.9e-05
298.15	0.2035	0.003295	4e-05
298.15	0.2998	0.002729	3.4e-05
298.15	0.395	0.002285	2.8e-05
298.15	0.5	0.001923	2.4e-05
298.15	0.5984	0.001669	2.1e-05
298.15	0.6981	0.001459	1.9e-05
298.15	0.7972	0.001326	1.7e-05
298.15	0.8941	0.001188	1.6e-05
298.15	1	0.001095	1.4e-05
303.15	0	0.004515	5.4e-05
303.15	0.1072	0.003567	4.3e-05
303.15	0.2035	0.002887	3.5e-05
303.15	0.2998	0.002428	3e-05
303.15	0.395	0.002036	2.6e-05
303.15	0.5	0.001747	2.2e-05
303.15	0.5984	0.001516	1.9e-05
303.15	0.6981	0.001334	1.7e-05
303.15	0.7972	0.001209	1.6e-05
303.15	0.8941	0.001092	1.4e-05
303.15	1	0.001013	1.3e-05
308.15	0	0.003877	4.7e-05
308.15	0.1072	0.003058	3.7e-05
308.15	0.2035	0.00248	3.1e-05
308.15	0.2998	0.002127	2.7e-05
308.15	0.395	0.001815	2.3e-05
308.15	0.5	0.001572	2e-05
308.15	0.5984	0.001365	1.8e-05
308.15	0.6981	0.001209	1.6e-05
308.15	0.7972	0.001093	1.4e-05
308.15	0.8941	0.000997	1.3e-05
308.15	1	0.00093	1.2e-05

System: benzenemethanol + ethyl chloroethanoate; phases: Liquid
Fixed: Pressure, kPa = 101.3
Property: Refractive index (Na D-line) (Liquid); method: ABBE:UFactor:2
Temperature, K	Mole fraction of ethyl chloroethanoate	Refractive index (Na D-line)	uncertainty
298.15	0	1.5378	0.0007
298.15	0.1072	1.5258	0.0007
298.15	0.2035	1.5142	0.0007
298.15	0.2998	1.503	0.0007
298.15	0.395	1.4918	0.0007
298.15	0.5	1.4794	0.0007
298.15	0.5984	1.4675	0.0007
298.15	0.6981	1.4556	0.0007
298.15	0.7972	1.4437	0.0007
298.15	0.8941	1.432	0.0007
298.15	1	1.42	0.0007
303.15	0	1.5354	0.0007
303.15	0.1072	1.5233	0.0007
303.15	0.2035	1.5114	0.0007
303.15	0.2998	1.5	0.0007
303.15	0.395	1.489	0.0007
303.15	0.5	1.4765	0.0007
303.15	0.6981	1.4528	0.0007
303.15	0.7972	1.441	0.0007
303.15	0.8941	1.4295	0.0007
303.15	1	1.4173	0.0007
308.15	0	1.5318	0.0007
308.15	0.1072	1.5208	0.0007
308.15	0.2035	1.5097	0.0007
308.15	0.2998	1.4982	0.0007
308.15	0.395	1.4866	0.0007
308.15	0.5	1.4738	0.0007
308.15	0.5984	1.462	0.0007
308.15	0.6981	1.4501	0.0007
308.15	0.7972	1.4384	0.0007
308.15	0.8941	1.427	0.0007
308.15	1	1.4148	0.0007

System: benzenemethanol + ethyl chloroethanoate; phases: Liquid
Fixed: Pressure, kPa = 101.3
Property: Mass density, kg/m3 (Liquid); method: PYCNOM:UFactor:8
Temperature, K	Mole fraction of ethyl chloroethanoate	Mass density, kg/m3	uncertainty
298.15	0	1041	2.1
298.15	0.1072	1053	2.2
298.15	0.2035	1064	2.2
298.15	0.2998	1075	2.2
298.15	0.395	1085	2.2
298.15	0.5	1096	2.3
298.15	0.5984	1106	2.3
298.15	0.6981	1116	2.3
298.15	0.7972	1126	2.3
298.15	0.8941	1135	2.4
298.15	1	1145	2.4
303.15	0	1037	2.2
303.15	0.1072	1050	2.2
303.15	0.2035	1060	2.3
303.15	0.2998	1070	2.3
303.15	0.395	1080	2.3
303.15	0.5	1091	2.3
303.15	0.5984	1100	2.4
303.15	0.6981	1113	5
303.15	0.7972	1119	2.4
303.15	0.8941	1128	2.4
303.15	1	1139	2.5
308.15	0	1033	2.3
308.15	0.1072	1045	2.3
308.15	0.2035	1055	2.3
308.15	0.2998	1065	2.4
308.15	0.395	1075	2.4
308.15	0.5	1085	2.4
308.15	0.5984	1095	2.4
308.15	0.6981	1104	2.5
308.15	0.7972	1114	2.5
308.15	0.8941	1122	2.5
308.15	1	1132	2.5
