Measured thermophysical data. Thermodynamic Properties of Mixtures Containing Precursors of Vitamin B5
Source: J. Chem. Eng. Data, 2003, 10.1021/je020060f
Compound 1: diethyl ether, C4H10O, InChI=1S/C4H10O/c1-3-5-4-2/h3-4H2,1-2H3
Compound 2: D-pantolactone, C6H10O3, InChI=1S/C6H10O3/c1-6(2)3-9-5(8)4(6)7/h4,7H,3H2,1-2H3/t4-/m0/s1
Compound 3: ethyl acetate, C4H8O2, InChI=1S/C4H8O2/c1-3-6-4(2)5/h3H2,1-2H3
Compound 4: toluene, C7H8, InChI=1S/C7H8/c1-7-5-3-2-4-6-7/h2-6H,1H3
Compound 5: pentane, C5H12, InChI=1S/C5H12/c1-3-5-4-2/h3-5H2,1-2H3
Compound 6: 4,4-dimethyl-2,3-furandione, C6H8O3, InChI=1S/C6H8O3/c1-6(2)3-9-5(8)4(6)7/h3H2,1-2H3
Compound 7: hexane, C6H14, InChI=1S/C6H14/c1-3-5-6-4-2/h3-6H2,1-2H3
Compound 8: heptane, C7H16, InChI=1S/C7H16/c1-3-5-7-6-4-2/h3-7H2,1-2H3
Compound 9: cyclohexane, C6H12, InChI=1S/C6H12/c1-2-4-6-5-3-1/h1-6H2
Compound 10: tetrahydrofuran, C4H8O, InChI=1S/C4H8O/c1-2-4-5-3-1/h1-4H2
Compound 11: ethanol, C2H6O, InChI=1S/C2H6O/c1-2-3/h3H,2H2,1H3
Compound 12: acetonitrile, C2H3N, InChI=1S/C2H3N/c1-2-3/h1H3
Compound 13: acetone, C3H6O, InChI=1S/C3H6O/c1-3(2)4/h1-2H3
Compound 14: carbon dioxide, CO2, InChI=1S/CO2/c2-1-3
Compound 15: benzene, C6H6, InChI=1S/C6H6/c1-2-4-6-5-3-1/h1-6H, purity 99%
Compound 16: octane, C8H18, InChI=1S/C8H18/c1-3-5-7-8-6-4-2/h3-8H2,1-2H3
Compound 17: ethylcyclohexane, C8H16, InChI=1S/C8H16/c1-2-8-6-4-3-5-7-8/h8H,2-7H2,1H3
Compound 18: methylcyclohexane, C7H14, InChI=1S/C7H14/c1-7-5-3-2-4-6-7/h7H,2-6H2,1H3
Compound 19: dipropyl ether, C6H14O, InChI=1S/C6H14O/c1-3-5-7-6-4-2/h3-6H2,1-2H3
Compound 20: propyl ethanoate, C5H10O2, InChI=1S/C5H10O2/c1-3-4-7-5(2)6/h3-4H2,1-2H3
Compound 21: 3-hydroxy-4,4-dimethyl-2-tetrahydrofuranone, C6H10O3, InChI=1S/C6H10O3/c1-6(2)3-9-5(8)4(6)7/h4,7H,3H2,1-2H3

System: diethyl ether + D-pantolactone; phases: Liquid
Fixed: Pressure, kPa = 100
Fixed: Mole fraction of diethyl ether = 0
Property: Activity coefficient of diethyl ether (Liquid); method: Chromatography
Temperature, K	Activity coefficient of diethyl ether	uncertainty
368.42	2.73	0.12
373.4	2.76	0.13

System: diethyl ether + D-pantolactone; phases: Liquid
Fixed: Mole fraction of diethyl ether = 0
Fixed: Pressure, kPa = 100
Property: Activity coefficient of diethyl ether (Liquid); method: Chromatography
Temperature, K	Activity coefficient of diethyl ether	uncertainty
368.42	2.8	0.13
373.4	2.83	0.13

System: diethyl ether + D-pantolactone; phases: Liquid
Fixed: Mole fraction of diethyl ether = 0
Fixed: Pressure, kPa = 100
Property: Fugacity coefficient of diethyl ether (Liquid); method: Inverse liquid-gas chromatography
Temperature, K	Fugacity coefficient of diethyl ether	uncertainty
368.49	16.95	0.01
373.36	17.99	0.01
378.27	19.89	0.01

System: ethyl acetate + D-pantolactone; phases: Liquid
Fixed: Mole fraction of ethyl acetate = 0
Fixed: Pressure, kPa = 100
Property: Activity coefficient of ethyl acetate (Liquid); method: Chromatography
Temperature, K	Activity coefficient of ethyl acetate	uncertainty
368.42	1.65	0.07
373.4	1.67	0.07

System: ethyl acetate + D-pantolactone; phases: Liquid
Fixed: Mole fraction of ethyl acetate = 0
Fixed: Pressure, kPa = 100
Property: Activity coefficient of ethyl acetate (Liquid); method: Chromatography
Temperature, K	Activity coefficient of ethyl acetate	uncertainty
368.42	1.63	0.07
373.4	1.65	0.07

System: ethyl acetate + D-pantolactone; phases: Liquid
Fixed: Mole fraction of ethyl acetate = 0
Fixed: Pressure, kPa = 100
Property: Fugacity coefficient of ethyl acetate (Liquid); method: Inverse liquid-gas chromatography
Temperature, K	Fugacity coefficient of ethyl acetate	uncertainty
368.49	2.89	0.01
373.36	3.22	0.01
378.27	3.71	0.01

System: toluene + D-pantolactone; phases: Liquid
Fixed: Mole fraction of toluene = 0
Fixed: Pressure, kPa = 100
Property: Activity coefficient of toluene (Liquid); method: Chromatography
Temperature, K	Activity coefficient of toluene	uncertainty
368.42	3.65	0.17
373.4	2.76	0.13

System: toluene + D-pantolactone; phases: Liquid
Fixed: Mole fraction of toluene = 0
Fixed: Pressure, kPa = 100
Property: Activity coefficient of toluene (Liquid); method: Chromatography
Temperature, K	Activity coefficient of toluene	uncertainty
368.42	3.48	0.16
373.4	3.52	0.16

System: toluene + D-pantolactone; phases: Liquid
Fixed: Mole fraction of toluene = 0
Fixed: Pressure, kPa = 100
Property: Fugacity coefficient of toluene (Liquid); method: Inverse liquid-gas chromatography
Temperature, K	Fugacity coefficient of toluene	uncertainty
368.49	2.39	0.01
373.36	2.66	0.01
378.27	3	0.01

System: pentane + 4,4-dimethyl-2,3-furandione; phases: Liquid
Fixed: Mole fraction of pentane = 0
Fixed: Pressure, kPa = 100
Property: Fugacity coefficient of pentane (Liquid); method: Inverse liquid-gas chromatography
Temperature, K	Fugacity coefficient of pentane	uncertainty
343.61	38.47	0.01
353.52	41.68	0.01
363.43	47.47	0.01
373.41	59.74	0.01

System: hexane + 4,4-dimethyl-2,3-furandione; phases: Liquid
Fixed: Mole fraction of hexane = 0
Fixed: Pressure, kPa = 100
Property: Fugacity coefficient of hexane (Liquid); method: Inverse liquid-gas chromatography
Temperature, K	Fugacity coefficient of hexane	uncertainty
343.61	19.11	0.01
353.52	23.81	0.01
363.43	25.53	0.01
373.41	32.14	0.01

System: heptane + 4,4-dimethyl-2,3-furandione; phases: Liquid
Fixed: Mole fraction of heptane = 0
Fixed: Pressure, kPa = 100
Property: Fugacity coefficient of heptane (Liquid); method: Inverse liquid-gas chromatography
Temperature, K	Fugacity coefficient of heptane	uncertainty
343.61	10.38	0.01
353.52	12.3	0.01
363.43	15.64	0.01
373.41	17.12	0.01

System: cyclohexane + 4,4-dimethyl-2,3-furandione; phases: Liquid
Fixed: Mole fraction of cyclohexane = 0
Fixed: Pressure, kPa = 100
Property: Fugacity coefficient of cyclohexane (Liquid); method: Inverse liquid-gas chromatography
Temperature, K	Fugacity coefficient of cyclohexane	uncertainty
343.61	8.33	0.01
353.52	9.78	0.01
363.43	12.18	0.01
373.41	14.01	0.01

System: diethyl ether + 4,4-dimethyl-2,3-furandione; phases: Liquid
Fixed: Mole fraction of diethyl ether = 0
Fixed: Pressure, kPa = 100
Property: Fugacity coefficient of diethyl ether (Liquid); method: Inverse liquid-gas chromatography
Temperature, K	Fugacity coefficient of diethyl ether	uncertainty
343.61	12.68	0.01
353.52	14.88	0.01
363.43	18.36	0.01
373.41	21.98	0.01

System: tetrahydrofuran + 4,4-dimethyl-2,3-furandione; phases: Liquid
Fixed: Mole fraction of tetrahydrofuran = 0
Fixed: Pressure, kPa = 100
Property: Fugacity coefficient of tetrahydrofuran (Liquid); method: Inverse liquid-gas chromatography
Temperature, K	Fugacity coefficient of tetrahydrofuran	uncertainty
343.61	1.3	0.01
353.52	1.75	0.01
363.43	2.36	0.01
373.41	3	0.01

System: ethanol + 4,4-dimethyl-2,3-furandione; phases: Liquid
Fixed: Mole fraction of ethanol = 0
Fixed: Pressure, kPa = 100
Property: Fugacity coefficient of ethanol (Liquid); method: Inverse liquid-gas chromatography
Temperature, K	Fugacity coefficient of ethanol	uncertainty
343.61	0.78	0.01
353.52	1.23	0.01
363.43	1.88	0.01
373.41	2.72	0.01

System: ethyl acetate + 4,4-dimethyl-2,3-furandione; phases: Liquid
Fixed: Mole fraction of ethyl acetate = 0
Fixed: Pressure, kPa = 100
Property: Fugacity coefficient of ethyl acetate (Liquid); method: Inverse liquid-gas chromatography
Temperature, K	Fugacity coefficient of ethyl acetate	uncertainty
343.61	1.05	0.01
353.52	1.51	0.01
363.43	2.1	0.01
373.41	2.72	0.01

System: acetonitrile + 4,4-dimethyl-2,3-furandione; phases: Liquid
Fixed: Mole fraction of acetonitrile = 0
Fixed: Pressure, kPa = 100
Property: Fugacity coefficient of acetonitrile (Liquid); method: Inverse liquid-gas chromatography
Temperature, K	Fugacity coefficient of acetonitrile	uncertainty
343.61	0.56	0.01
353.52	0.74	0.01
363.43	0.99	0.01
373.41	1.34	0.01

System: acetone + 4,4-dimethyl-2,3-furandione; phases: Liquid
Fixed: Mole fraction of acetone = 0
Fixed: Pressure, kPa = 100
Property: Fugacity coefficient of acetone (Liquid); method: Inverse liquid-gas chromatography
Temperature, K	Fugacity coefficient of acetone	uncertainty
343.61	1.39	0.01
353.52	1.82	0.01
363.43	2.41	0.01
373.41	3.16	0.01

System: carbon dioxide + 4,4-dimethyl-2,3-furandione; phases: Liquid
Fixed: Mole fraction of carbon dioxide = 0
Fixed: Pressure, kPa = 100
Property: Fugacity coefficient of carbon dioxide (Liquid); method: Inverse liquid-gas chromatography
Temperature, K	Fugacity coefficient of carbon dioxide	uncertainty
343.61	270.43	0.01
353.52	275.89	0.01
363.43	298.87	0.01
373.41	311.06	0.01

System: benzene + 4,4-dimethyl-2,3-furandione; phases: Liquid
Fixed: Mole fraction of benzene = 0
Fixed: Pressure, kPa = 100
Property: Fugacity coefficient of benzene (Liquid); method: Inverse liquid-gas chromatography
Temperature, K	Fugacity coefficient of benzene	uncertainty
343.61	1.7	0.01
353.52	2.18	0.01
363.43	2.83	0.01
373.41	3.67	0.01

System: toluene + 4,4-dimethyl-2,3-furandione; phases: Liquid
Fixed: Mole fraction of toluene = 0
Fixed: Pressure, kPa = 100
Property: Fugacity coefficient of toluene (Liquid); method: Inverse liquid-gas chromatography
Temperature, K	Fugacity coefficient of toluene	uncertainty
343.61	0.85	0.01
353.52	1.14	0.01
363.43	1.52	0.01
373.41	2.03	0.01

System: pentane + D-pantolactone; phases: Liquid
Fixed: Mole fraction of pentane = 0
Fixed: Pressure, kPa = 100
Property: Fugacity coefficient of pentane (Liquid); method: Inverse liquid-gas chromatography
Temperature, K	Fugacity coefficient of pentane	uncertainty
368.49	71.52	0.01
373.36	87.36	0.01
378.27	102.51	0.01

System: hexane + D-pantolactone; phases: Liquid
Fixed: Mole fraction of hexane = 0
Fixed: Pressure, kPa = 100
Property: Fugacity coefficient of hexane (Liquid); method: Inverse liquid-gas chromatography
Temperature, K	Fugacity coefficient of hexane	uncertainty
368.49	39.65	0.01
373.36	40.85	0.01
378.27	43.38	0.01

System: heptane + D-pantolactone; phases: Liquid
Fixed: Mole fraction of heptane = 0
Fixed: Pressure, kPa = 100
Property: Fugacity coefficient of heptane (Liquid); method: Inverse liquid-gas chromatography
Temperature, K	Fugacity coefficient of heptane	uncertainty
368.49	22.2	0.01
373.36	24.53	0.01
378.27	26.84	0.01

System: octane + D-pantolactone; phases: Liquid
Fixed: Mole fraction of octane = 0
Fixed: Pressure, kPa = 100
Property: Fugacity coefficient of octane (Liquid); method: Inverse liquid-gas chromatography
Temperature, K	Fugacity coefficient of octane	uncertainty
368.49	13.74	0.01
373.36	14.3	0.01
378.27	16.95	0.01

System: cyclohexane + D-pantolactone; phases: Liquid
Fixed: Mole fraction of cyclohexane = 0
Fixed: Pressure, kPa = 100
Property: Fugacity coefficient of cyclohexane (Liquid); method: Inverse liquid-gas chromatography
Temperature, K	Fugacity coefficient of cyclohexane	uncertainty
368.49	16.95	0.01
373.36	17.99	0.01
378.27	18.92	0.01

System: D-pantolactone + ethylcyclohexane; phases: Liquid
Fixed: Mole fraction of D-pantolactone = 0
Fixed: Pressure, kPa = 100
Property: Fugacity coefficient of D-pantolactone (Liquid); method: Inverse liquid-gas chromatography
Temperature, K	Fugacity coefficient of D-pantolactone	uncertainty
368.49	6.82	0.01
373.36	7.61	0.01
378.27	8.41	0.01

System: methylcyclohexane + D-pantolactone; phases: Liquid
Fixed: Mole fraction of methylcyclohexane = 0
Fixed: Pressure, kPa = 100
Property: Fugacity coefficient of methylcyclohexane (Liquid); method: Inverse liquid-gas chromatography
Temperature, K	Fugacity coefficient of methylcyclohexane	uncertainty
368.49	13.2	0.01
373.36	14.3	0.01
378.27	16.78	0.01

System: dipropyl ether + D-pantolactone; phases: Liquid
Fixed: Mole fraction of dipropyl ether = 0
Fixed: Pressure, kPa = 100
Property: Fugacity coefficient of dipropyl ether (Liquid); method: Inverse liquid-gas chromatography
Temperature, K	Fugacity coefficient of dipropyl ether	uncertainty
368.49	8.08	0.01
373.36	8.33	0.01
378.27	10.59	0.01

System: tetrahydrofuran + D-pantolactone; phases: Liquid
Fixed: Mole fraction of tetrahydrofuran = 0
Fixed: Pressure, kPa = 100
Property: Fugacity coefficient of tetrahydrofuran (Liquid); method: Inverse liquid-gas chromatography
Temperature, K	Fugacity coefficient of tetrahydrofuran	uncertainty
368.49	2.14	0.01
373.36	2.61	0.01
378.27	2.97	0.01

System: ethanol + D-pantolactone; phases: Liquid
Fixed: Mole fraction of ethanol = 0
Fixed: Pressure, kPa = 100
Property: Fugacity coefficient of ethanol (Liquid); method: Inverse liquid-gas chromatography
Temperature, K	Fugacity coefficient of ethanol	uncertainty
368.49	2.08	0.01
373.36	2.46	0.01
378.27	2.72	0.01

System: propyl ethanoate + D-pantolactone; phases: Liquid
Fixed: Mole fraction of propyl ethanoate = 0
Fixed: Pressure, kPa = 100
Property: Fugacity coefficient of propyl ethanoate (Liquid); method: Inverse liquid-gas chromatography
Temperature, K	Fugacity coefficient of propyl ethanoate	uncertainty
368.49	1.77	0.01
373.36	1.97	0.01
378.27	2.36	0.01

System: acetone + D-pantolactone; phases: Liquid
Fixed: Mole fraction of acetone = 0
Fixed: Pressure, kPa = 100
Property: Fugacity coefficient of acetone (Liquid); method: Inverse liquid-gas chromatography
Temperature, K	Fugacity coefficient of acetone	uncertainty
368.49	2.77	0.01
373.36	3.06	0.01
378.27	3.42	0.01

System: benzene + D-pantolactone; phases: Liquid
Fixed: Mole fraction of benzene = 0
Fixed: Pressure, kPa = 100
Property: Fugacity coefficient of benzene (Liquid); method: Inverse liquid-gas chromatography
Temperature, K	Fugacity coefficient of benzene	uncertainty
368.49	3.86	0.01
373.36	4.53	0.01
378.27	5.37	0.01

System: acetonitrile + D-pantolactone; phases: Liquid
Fixed: Mole fraction of acetonitrile = 0
Fixed: Pressure, kPa = 100
Property: Fugacity coefficient of acetonitrile (Liquid); method: Inverse liquid-gas chromatography
Temperature, K	Fugacity coefficient of acetonitrile	uncertainty
368.49	1.42	0.01
373.36	1.55	0.01
378.27	1.8	0.01

System: carbon dioxide + D-pantolactone; phases: Liquid
Fixed: Mole fraction of carbon dioxide = 0
Fixed: Pressure, kPa = 100
Property: Fugacity coefficient of carbon dioxide (Liquid); method: Inverse liquid-gas chromatography
Temperature, K	Fugacity coefficient of carbon dioxide	uncertainty
368.49	273.14	0.01
373.36	281.46	0.01
378.27	301.87	0.01

System: 3-hydroxy-4,4-dimethyl-2-tetrahydrofuranone + pentane; phases: Liquid
Fixed: Mole fraction of 3-hydroxy-4,4-dimethyl-2-tetrahydrofuranone = 0
Fixed: Pressure, kPa = 100
Property: Fugacity coefficient of 3-hydroxy-4,4-dimethyl-2-tetrahydrofuranone (Liquid); method: Inverse gas-liquid chromatography
Temperature, K	Fugacity coefficient of 3-hydroxy-4,4-dimethyl-2-tetrahydrofuranone	uncertainty
368.48	80.64	0.01
373.33	95.58	0.01
378.25	102.51	0.01

System: 3-hydroxy-4,4-dimethyl-2-tetrahydrofuranone + hexane; phases: Liquid
Fixed: Mole fraction of 3-hydroxy-4,4-dimethyl-2-tetrahydrofuranone = 0
Fixed: Pressure, kPa = 100
Property: Fugacity coefficient of 3-hydroxy-4,4-dimethyl-2-tetrahydrofuranone (Liquid); method: Inverse gas-liquid chromatography
Temperature, K	Fugacity coefficient of 3-hydroxy-4,4-dimethyl-2-tetrahydrofuranone	uncertainty
368.48	39.65	0.01
373.33	46.99	0.01
378.25	50.91	0.01

System: 3-hydroxy-4,4-dimethyl-2-tetrahydrofuranone + heptane; phases: Liquid
Fixed: Mole fraction of 3-hydroxy-4,4-dimethyl-2-tetrahydrofuranone = 0
Fixed: Pressure, kPa = 100
Property: Fugacity coefficient of 3-hydroxy-4,4-dimethyl-2-tetrahydrofuranone (Liquid); method: Inverse gas-liquid chromatography
Temperature, K	Fugacity coefficient of 3-hydroxy-4,4-dimethyl-2-tetrahydrofuranone	uncertainty
368.48	24.78	0.01
373.33	27.11	0.01
378.25	27.66	0.01

System: 3-hydroxy-4,4-dimethyl-2-tetrahydrofuranone + octane; phases: Liquid
Fixed: Mole fraction of 3-hydroxy-4,4-dimethyl-2-tetrahydrofuranone = 0
Fixed: Pressure, kPa = 100
Property: Fugacity coefficient of 3-hydroxy-4,4-dimethyl-2-tetrahydrofuranone (Liquid); method: Inverse gas-liquid chromatography
Temperature, K	Fugacity coefficient of 3-hydroxy-4,4-dimethyl-2-tetrahydrofuranone	uncertainty
368.48	13.6	0.01
373.33	14.15	0.01
378.25	16.78	0.01

System: 3-hydroxy-4,4-dimethyl-2-tetrahydrofuranone + cyclohexane; phases: Liquid
Fixed: Mole fraction of 3-hydroxy-4,4-dimethyl-2-tetrahydrofuranone = 0
Fixed: Pressure, kPa = 100
Property: Fugacity coefficient of 3-hydroxy-4,4-dimethyl-2-tetrahydrofuranone (Liquid); method: Inverse gas-liquid chromatography
Temperature, K	Fugacity coefficient of 3-hydroxy-4,4-dimethyl-2-tetrahydrofuranone	uncertainty
368.48	17.81	0.01
373.33	19.11	0.01
378.25	20.09	0.01

System: 3-hydroxy-4,4-dimethyl-2-tetrahydrofuranone + ethylcyclohexane; phases: Liquid
Fixed: Mole fraction of 3-hydroxy-4,4-dimethyl-2-tetrahydrofuranone = 0
Fixed: Pressure, kPa = 100
Property: Fugacity coefficient of 3-hydroxy-4,4-dimethyl-2-tetrahydrofuranone (Liquid); method: Inverse gas-liquid chromatography
Temperature, K	Fugacity coefficient of 3-hydroxy-4,4-dimethyl-2-tetrahydrofuranone	uncertainty
368.48	7.1	0.01
373.33	7.69	0.01
378.25	8.58	0.01

System: 3-hydroxy-4,4-dimethyl-2-tetrahydrofuranone + methylcyclohexane; phases: Liquid
Fixed: Mole fraction of 3-hydroxy-4,4-dimethyl-2-tetrahydrofuranone = 0
Fixed: Pressure, kPa = 100
Property: Fugacity coefficient of 3-hydroxy-4,4-dimethyl-2-tetrahydrofuranone (Liquid); method: Inverse gas-liquid chromatography
Temperature, K	Fugacity coefficient of 3-hydroxy-4,4-dimethyl-2-tetrahydrofuranone	uncertainty
368.48	12.68	0.01
373.33	14.73	0.01
378.25	15.8	0.01

System: diethyl ether + 3-hydroxy-4,4-dimethyl-2-tetrahydrofuranone; phases: Liquid
Fixed: Mole fraction of diethyl ether = 0
Fixed: Pressure, kPa = 100
Property: Fugacity coefficient of diethyl ether (Liquid); method: Inverse liquid-gas chromatography
Temperature, K	Fugacity coefficient of diethyl ether	uncertainty
368.48	16.44	0.01
373.33	17.99	0.01
378.25	20.09	0.01

System: 3-hydroxy-4,4-dimethyl-2-tetrahydrofuranone + dipropyl ether; phases: Liquid
Fixed: Mole fraction of 3-hydroxy-4,4-dimethyl-2-tetrahydrofuranone = 0
Fixed: Pressure, kPa = 100
Property: Fugacity coefficient of 3-hydroxy-4,4-dimethyl-2-tetrahydrofuranone (Liquid); method: Inverse gas-liquid chromatography
Temperature, K	Fugacity coefficient of 3-hydroxy-4,4-dimethyl-2-tetrahydrofuranone	uncertainty
368.48	8.25	0.01
373.33	9.21	0.01
378.25	10.28	0.01

System: 3-hydroxy-4,4-dimethyl-2-tetrahydrofuranone + tetrahydrofuran; phases: Liquid
Fixed: Mole fraction of 3-hydroxy-4,4-dimethyl-2-tetrahydrofuranone = 0
Fixed: Pressure, kPa = 100
Property: Fugacity coefficient of 3-hydroxy-4,4-dimethyl-2-tetrahydrofuranone (Liquid); method: Inverse gas-liquid chromatography
Temperature, K	Fugacity coefficient of 3-hydroxy-4,4-dimethyl-2-tetrahydrofuranone	uncertainty
368.48	2.32	0.01
373.33	2.69	0.01
378.25	3	0.01

System: ethanol + 3-hydroxy-4,4-dimethyl-2-tetrahydrofuranone; phases: Liquid
Fixed: Mole fraction of ethanol = 0
Fixed: Pressure, kPa = 100
Property: Fugacity coefficient of ethanol (Liquid); method: Inverse liquid-gas chromatography
Temperature, K	Fugacity coefficient of ethanol	uncertainty
368.48	2.1	0.01
373.33	2.44	0.01
378.25	2.89	0.01

System: 3-hydroxy-4,4-dimethyl-2-tetrahydrofuranone + ethyl acetate; phases: Liquid
Fixed: Mole fraction of 3-hydroxy-4,4-dimethyl-2-tetrahydrofuranone = 0
Fixed: Pressure, kPa = 100
Property: Fugacity coefficient of 3-hydroxy-4,4-dimethyl-2-tetrahydrofuranone (Liquid); method: Inverse gas-liquid chromatography
Temperature, K	Fugacity coefficient of 3-hydroxy-4,4-dimethyl-2-tetrahydrofuranone	uncertainty
368.48	2.89	0.01
373.33	3.32	0.01
378.25	3.78	0.01

System: 3-hydroxy-4,4-dimethyl-2-tetrahydrofuranone + propyl ethanoate; phases: Liquid
Fixed: Mole fraction of 3-hydroxy-4,4-dimethyl-2-tetrahydrofuranone = 0
Fixed: Pressure, kPa = 100
Property: Fugacity coefficient of 3-hydroxy-4,4-dimethyl-2-tetrahydrofuranone (Liquid); method: Inverse gas-liquid chromatography
Temperature, K	Fugacity coefficient of 3-hydroxy-4,4-dimethyl-2-tetrahydrofuranone	uncertainty
368.48	1.73	0.01
373.33	1.99	0.01
378.25	2.32	0.01

System: acetone + 3-hydroxy-4,4-dimethyl-2-tetrahydrofuranone; phases: Liquid
Fixed: Mole fraction of acetone = 0
Fixed: Pressure, kPa = 100
Property: Fugacity coefficient of acetone (Liquid); method: Inverse liquid-gas chromatography
Temperature, K	Fugacity coefficient of acetone	uncertainty
368.48	2.86	0.01
373.33	3.1	0.01
378.25	3.56	0.01

System: benzene + 3-hydroxy-4,4-dimethyl-2-tetrahydrofuranone; phases: Liquid
Fixed: Mole fraction of benzene = 0
Fixed: Pressure, kPa = 100
Property: Fugacity coefficient of benzene (Liquid); method: Inverse liquid-gas chromatography
Temperature, K	Fugacity coefficient of benzene	uncertainty
368.48	4.06	0.01
373.33	4.81	0.01
378.25	5.53	0.01

System: 3-hydroxy-4,4-dimethyl-2-tetrahydrofuranone + toluene; phases: Liquid
Fixed: Mole fraction of 3-hydroxy-4,4-dimethyl-2-tetrahydrofuranone = 0
Fixed: Pressure, kPa = 100
Property: Fugacity coefficient of 3-hydroxy-4,4-dimethyl-2-tetrahydrofuranone (Liquid); method: Inverse gas-liquid chromatography
Temperature, K	Fugacity coefficient of 3-hydroxy-4,4-dimethyl-2-tetrahydrofuranone	uncertainty
368.48	2.44	0.01
373.33	2.72	0.01
378.25	3.1	0.01

System: acetonitrile + 3-hydroxy-4,4-dimethyl-2-tetrahydrofuranone; phases: Liquid
Fixed: Mole fraction of acetonitrile = 0
Fixed: Pressure, kPa = 100
Property: Fugacity coefficient of acetonitrile (Liquid); method: Inverse liquid-gas chromatography
Temperature, K	Fugacity coefficient of acetonitrile	uncertainty
368.48	1.45	0.01
373.33	1.6	0.01
378.25	1.8	0.01

System: 3-hydroxy-4,4-dimethyl-2-tetrahydrofuranone + carbon dioxide; phases: Liquid
Fixed: Mole fraction of 3-hydroxy-4,4-dimethyl-2-tetrahydrofuranone = 0
Fixed: Pressure, kPa = 100
Property: Fugacity coefficient of 3-hydroxy-4,4-dimethyl-2-tetrahydrofuranone (Liquid); method: Inverse gas-liquid chromatography
Temperature, K	Fugacity coefficient of 3-hydroxy-4,4-dimethyl-2-tetrahydrofuranone	uncertainty
368.48	379.93	0.01
373.33	403.43	0.01
378.25	411.58	0.01
