Measured thermophysical data. Measurements, Correlations, and Predictions of Viscosities for the Ternary Mixture (2-Butanol + Hexane + 1-Chlorobutane) at 298.15 K and 313.15 K
Source: J. Chem. Eng. Data, 2003, 10.1021/je020114l
Compound 1: butan-2-ol, C4H10O, InChI=1S/C4H10O/c1-3-4(2)5/h4-5H,3H2,1-2H3, purity 99%
Compound 2: hexane, C6H14, InChI=1S/C6H14/c1-3-5-6-4-2/h3-6H2,1-2H3, purity 99%
Compound 3: 1-chlorobutane, C4H9Cl, InChI=1S/C4H9Cl/c1-2-3-4-5/h2-4H2,1H3, purity 99%

System: butan-2-ol; phases: Liquid
Fixed: Pressure, kPa = 101.325
Property: Viscosity, Pa*s (Liquid); method: Capillary tube (Ostwald; Ubbelohde) method
Temperature, K	Viscosity, Pa*s	uncertainty
298.15	0.0030804	2.7e-05
313.15	0.0017942	1.62e-05

System: hexane; phases: Liquid
Fixed: Pressure, kPa = 101.325
Property: Viscosity, Pa*s (Liquid); method: Capillary tube (Ostwald; Ubbelohde) method
Temperature, K	Viscosity, Pa*s	uncertainty
298.15	0.0002944	3.4e-06
313.15	0.0002537	3.1e-06

System: 1-chlorobutane; phases: Liquid
Fixed: Pressure, kPa = 101.325
Property: Viscosity, Pa*s (Liquid); method: Capillary tube (Ostwald; Ubbelohde) method
Temperature, K	Viscosity, Pa*s	uncertainty
298.15	0.0004273	4.5e-06
313.15	0.0003645	4e-06

System: butan-2-ol + 1-chlorobutane + hexane; phases: Liquid
Fixed: Pressure, kPa = 101.3
Property: Kinematic viscosity, m2/s (Liquid); method: Capillary tube (Ostwald; Ubbelohde) method
Temperature, K	Mole fraction of butan-2-ol	Mole fraction of hexane	Kinematic viscosity, m2/s	uncertainty
298.15	0.0497	0.1033	4.82e-07	4.2e-09
298.15	0.0501	0.0519	4.862e-07	4.2e-09
298.15	0.0504	0.848	4.572e-07	4e-09
298.15	0.0512	0.8989	4.58e-07	4e-09
298.15	0.0999	0.0503	5.009e-07	4.3e-09
298.15	0.102	0.2978	4.842e-07	4.2e-09
298.15	0.1021	0.5963	4.732e-07	4.1e-09
298.15	0.1025	0.8465	4.727e-07	4.1e-09
298.15	0.1028	0.099	5.037e-07	4.3e-09
298.15	0.1031	0.3972	4.797e-07	4.1e-09
298.15	0.1034	0.7964	4.724e-07	4.1e-09
298.15	0.1037	0.1985	4.907e-07	4.2e-09
298.15	0.1043	0.6952	4.726e-07	4.1e-09
298.15	0.1105	0.5333	4.759e-07	4.1e-09
298.15	0.2024	0.5994	5.116e-07	4.4e-09
298.15	0.2026	0.6979	5.107e-07	4.4e-09
298.15	0.2036	0.0993	5.413e-07	4.6e-09
298.15	0.2049	0.1983	5.332e-07	4.5e-09
298.15	0.2049	0.2981	5.257e-07	4.5e-09
298.15	0.2053	0.3961	5.201e-07	4.4e-09
298.15	0.2053	0.4966	5.158e-07	4.4e-09
298.15	0.2966	0.503	5.652e-07	4.8e-09
298.15	0.2969	0.5999	5.625e-07	4.7e-09
298.15	0.297	0.4005	5.706e-07	4.8e-09
298.15	0.2994	0.299	5.789e-07	4.9e-09
298.15	0.3023	0.0991	6.004e-07	5e-09
298.15	0.3039	0.199	5.909e-07	4.9e-09
298.15	0.3936	0.206	6.607e-07	5.5e-09
298.15	0.3954	0.0997	6.756e-07	5.6e-09
298.15	0.3959	0.4013	6.453e-07	5.3e-09
298.15	0.3974	0.5016	6.415e-07	5.3e-09
298.15	0.399	0.301	6.562e-07	5.4e-09
298.15	0.493	0.1037	7.864e-07	6.4e-09
298.15	0.4942	0.2066	7.724e-07	6.3e-09
298.15	0.4974	0.3004	7.664e-07	6.2e-09
298.15	0.4981	0.4006	7.604e-07	6.2e-09
298.15	0.5925	0.2058	9.354e-07	7.5e-09
298.15	0.5954	0.1029	9.566e-07	7.6e-09
298.15	0.5967	0.3019	9.447e-07	7.5e-09
298.15	0.6921	0.2066	1.193e-06	9e-09
298.15	0.6955	0.1016	1.216e-06	1e-08
298.15	0.7941	0.1033	1.6e-06	1.2e-08
298.15	0.8457	0.0521	1.957e-06	1.5e-08
298.15	0.8488	0.0996	1.973e-06	1.5e-08
298.15	0.8981	0.0511	2.402e-06	1.8e-08
298.15	0.8991	0.0493	2.41e-06	1.8e-08
313.15	0.0497	0.1033	4.201e-07	3.7e-09
313.15	0.0501	0.0519	4.225e-07	3.7e-09
313.15	0.0504	0.848	3.989e-07	3.5e-09
313.15	0.0512	0.8989	3.997e-07	3.6e-09
313.15	0.0999	0.0503	4.329e-07	3.8e-09
313.15	0.102	0.2978	4.194e-07	3.7e-09
313.15	0.1021	0.5963	4.107e-07	3.6e-09
313.15	0.1025	0.8465	4.111e-07	3.6e-09
313.15	0.1028	0.099	4.361e-07	3.8e-09
313.15	0.1031	0.3972	4.156e-07	3.7e-09
313.15	0.1034	0.7964	4.108e-07	3.6e-09
313.15	0.1037	0.1985	4.246e-07	3.7e-09
313.15	0.1043	0.6952	4.106e-07	3.6e-09
313.15	0.1105	0.5333	4.127e-07	3.6e-09
313.15	0.2024	0.5994	4.408e-07	3.9e-09
313.15	0.2026	0.6979	4.408e-07	3.9e-09
313.15	0.2036	0.0993	4.615e-07	4e-09
313.15	0.2049	0.1983	4.555e-07	4e-09
313.15	0.2049	0.2981	4.502e-07	3.9e-09
313.15	0.2053	0.3961	4.465e-07	3.9e-09
313.15	0.2053	0.4966	4.433e-07	3.9e-09
313.15	0.2966	0.503	4.793e-07	4.1e-09
313.15	0.2969	0.5999	4.773e-07	4.1e-09
313.15	0.297	0.4005	4.834e-07	4.2e-09
313.15	0.2994	0.299	4.876e-07	4.2e-09
313.15	0.3023	0.0991	5.031e-07	4.3e-09
313.15	0.3039	0.199	4.959e-07	4.3e-09
313.15	0.3936	0.206	5.449e-07	4.6e-09
313.15	0.3954	0.0997	5.551e-07	4.7e-09
313.15	0.3959	0.4013	5.341e-07	4.5e-09
313.15	0.3974	0.5016	5.319e-07	4.5e-09
313.15	0.399	0.301	5.411e-07	4.6e-09
313.15	0.493	0.1037	6.291e-07	5.2e-09
313.15	0.4942	0.2066	6.199e-07	5.2e-09
313.15	0.4974	0.3004	6.159e-07	5.1e-09
313.15	0.4981	0.4006	6.108e-07	5.1e-09
313.15	0.5925	0.2058	7.239e-07	5.9e-09
313.15	0.5954	0.1029	7.386e-07	6e-09
313.15	0.5967	0.3019	7.256e-07	5.9e-09
313.15	0.6921	0.2066	8.793e-07	7.1e-09
313.15	0.6955	0.1016	8.974e-07	7.2e-09
313.15	0.7941	0.1033	1.133e-06	9e-09
313.15	0.8457	0.0521	1.326e-06	1e-08
313.15	0.8488	0.0996	1.324e-06	1e-08
313.15	0.8981	0.0511	1.549e-06	1.2e-08
313.15	0.8991	0.0493	1.571e-06	1.2e-08
