Measured thermophysical data. Liquid-liquid equilibria for the ternary system water + decane + diethylene glycol monobutyl ether at 20 C, 30 C, and 40 C
Source: J. Chem. Eng. Data, 2003, 10.1021/je0255776
Compound 1: decane, C10H22, InChI=1S/C10H22/c1-3-5-7-9-10-8-6-4-2/h3-10H2,1-2H3
Compound 2: 3,6-dioxa-1-decanol, C8H18O3, InChI=1S/C8H18O3/c1-2-3-5-10-7-8-11-6-4-9/h9H,2-8H2,1H3
Compound 3: water, H2O, InChI=1S/H2O/h1H2

System: 3,6-dioxa-1-decanol + decane + water; phases: Liquid mixture 2, Liquid mixture 1
Fixed: Pressure, kPa = 101.3
Property: Mass fraction of water (Liquid mixture 2); method: Chromatography
Property: Mass fraction of water (Liquid mixture 1); method: Chromatography
Property: Mass fraction of 3,6-dioxa-1-decanol (Liquid mixture 1); method: Chromatography
Temperature, K	Mass fraction of 3,6-dioxa-1-decanol	Mass fraction of water	uncertainty	Mass fraction of water	uncertainty	Mass fraction of 3,6-dioxa-1-decanol	uncertainty
293.15	0.1683	0.8317	0.0013	0.00018	3e-05	0.0129	
293.15	0.2461	0.7539	0.0019	0.00022	2e-05	0.0134	
293.15	0.3252	0.6724	0.0025	0.00026	3e-05	0.0165	
293.15	0.4211	0.5733	0.0033	0.00031	2e-05	0.0183	
293.15	0.4932	0.4972	0.0039	0.00031	2e-05	0.0198	
293.15	0.5882	0.3941	0.0031	0.00032	3e-05	0.0221	
293.15	0.6444	0.3301	0.0026	0.00035	3e-05	0.0236	
293.15	0.6874	0.2773	0.0021	0.00044	2e-05	0.027	
293.15	0.7346	0.2068	0.0016	0.00048	3e-05	0.033	
293.15	0.7621	0.138	0.0011	0.0008	3e-05	0.0458	
293.15	0.7538	0.1033	0.0008	0.00129	4e-05	0.06	
293.15	0.5958	0.0413	0.0003	0.0084	0.0001	0.2	
303.15	0.1667	0.8333	0.0013	0.00023	3e-05	0.0195	
303.15	0.247	0.753	0.0019	0.00027	3e-05	0.0212	
303.15	0.3454	0.6507	0.0027	0.00032	2e-05	0.0228	
303.15	0.4257	0.5672	0.0034	0.00033	3e-05	0.0241	
303.15	0.5055	0.482	0.0037	0.00035	2e-05	0.0263	
303.15	0.5659	0.4151	0.0032	0.00037	2e-05	0.0278	
303.15	0.6384	0.3321	0.0026	0.00043	2e-05	0.0315	
303.15	0.674	0.2865	0.0022	0.00044	3e-05	0.0333	
303.15	0.7059	0.2405	0.0019	0.0006	3e-05	0.0382	
303.15	0.7422	0.1747	0.0014	0.00076	4e-05	0.0471	
303.15	0.7457	0.1191	0.0009	0.00162	4e-05	0.0679	
303.15	0.6976	0.0752	0.0006	0.004	0.0001	0.1199	
313.15	0.1575	0.8425	0.0012	0.00038	2e-05	0.0276	
313.15	0.2376	0.7624	0.0018	0.00041	2e-05	0.0303	
313.15	0.3109	0.6853	0.0024	0.00041	2e-05	0.0311	
313.15	0.3704	0.6227	0.0029	0.00042	2e-05	0.0321	
313.15	0.4492	0.5391	0.0036	0.00045	2e-05	0.0334	
313.15	0.5228	0.4595	0.0036	0.00046	2e-05	0.0351	
313.15	0.5668	0.4096	0.0032	0.00048	2e-05	0.0375	
313.15	0.63	0.3367	0.0026	0.00053	3e-05	0.0401	
313.15	0.678	0.2728	0.0021	0.0007	4e-05	0.044	
313.15	0.701	0.2379	0.0018	0.00081	2e-05	0.0478	
313.15	0.7229	0.1979	0.0015	0.00085	4e-05	0.0551	
313.15	0.7362	0.1539	0.0012	0.00141	4e-05	0.0659	
313.15	0.7189	0.1006	0.0008	0.0028	0.0001	0.0999	
