Measured thermophysical data. Critical Point Measurements for Five n-Alkylcyclohexanes (C6 to C10) by the Pulse-Heating Method
Source: J. Chem. Eng. Data, 2003, 10.1021/je0256535
Compound 1: cyclohexane, C6H12, InChI=1S/C6H12/c1-2-4-6-5-3-1/h1-6H2, purity 99.5%
Compound 2: methylcyclohexane, C7H14, InChI=1S/C7H14/c1-7-5-3-2-4-6-7/h7H,2-6H2,1H3, purity 99%
Compound 3: ethylcyclohexane, C8H16, InChI=1S/C8H16/c1-2-8-6-4-3-5-7-8/h8H,2-7H2,1H3, purity 99%
Compound 4: 1-cyclohexylpropane, C9H18, InChI=1S/C9H18/c1-2-6-9-7-4-3-5-8-9/h9H,2-8H2,1H3, purity 99%
Compound 5: butylcyclohexane, C10H20, InChI=1S/C10H20/c1-2-3-7-10-8-5-4-6-9-10/h10H,2-9H2,1H3, purity 99%

System: cyclohexane; phases: Liquid, Gas
Property: Critical pressure, kPa (Liquid); method: DIRECT:dissair
Critical pressure, kPa	uncertainty
4060	120

System: cyclohexane; phases: Liquid, Gas
Property: Critical temperature, K (Liquid); method: OTHER
Critical temperature, K	uncertainty
551	6

System: methylcyclohexane; phases: Liquid, Gas
Property: Critical pressure, kPa (Liquid); method: DIRECT:dissair
Critical pressure, kPa	uncertainty
3470	100

System: methylcyclohexane; phases: Liquid, Gas
Property: Critical temperature, K (Liquid); method: OTHER
Critical temperature, K	uncertainty
569	6

System: ethylcyclohexane; phases: Liquid, Gas
Property: Critical pressure, kPa (Liquid); method: DIRECT:dissair
Critical pressure, kPa	uncertainty
3250	100

System: ethylcyclohexane; phases: Liquid, Gas
Property: Critical temperature, K (Liquid); method: OTHER
Critical temperature, K	uncertainty
604	6

System: 1-cyclohexylpropane; phases: Liquid, Gas
Property: Critical pressure, kPa (Liquid); method: DIRECT:dissair
Critical pressure, kPa	uncertainty
2860	90

System: 1-cyclohexylpropane; phases: Liquid, Gas
Property: Critical temperature, K (Liquid); method: OTHER
Critical temperature, K	uncertainty
624	6

System: butylcyclohexane; phases: Liquid, Gas
Property: Critical pressure, kPa (Liquid); method: DIRECT:unst
Critical pressure, kPa	uncertainty
2560	80

System: butylcyclohexane; phases: Liquid, Gas
Property: Critical temperature, K (Liquid); method: OTHER
Critical temperature, K	uncertainty
650	6
