Measured thermophysical data. Determination of Isobaric Thermal Expansivity of Organic Compounds from 0.1 to 30 MPa at 30 C with an Isothermal Pressure Scanning Microcalorimeter
Source: J. Chem. Eng. Data, 2003, 10.1021/je025620p
Compound 1: hexane, C6H14, InChI=1S/C6H14/c1-3-5-6-4-2/h3-6H2,1-2H3, purity 99%
Compound 2: heptane, C7H16, InChI=1S/C7H16/c1-3-5-7-6-4-2/h3-7H2,1-2H3, purity 99.7%
Compound 3: toluene, C7H8, InChI=1S/C7H8/c1-7-5-3-2-4-6-7/h2-6H,1H3, purity 99.8%
Compound 4: cyclohexane, C6H12, InChI=1S/C6H12/c1-2-4-6-5-3-1/h1-6H2, purity 99.8%

System: hexane; phases: Liquid
Fixed: Temperature, K = 303.15
Property: Isobaric coefficient of expansion, 1/K (Liquid); method: OTHER
Pressure, kPa	Isobaric coefficient of expansion, 1/K	uncertainty
500	0.001353	3.3e-05
1000	0.001347	3.3e-05
2000	0.00133	3.3e-05
2700	0.001319	3.2e-05
4000	0.001299	3.2e-05
4900	0.001287	3.2e-05
6000	0.001262	3.1e-05
7000	0.00125	3.1e-05
8000	0.001237	3e-05
9000	0.001221	3e-05
10000	0.00121	3e-05
11000	0.001198	2.9e-05
12000	0.001187	2.9e-05
13000	0.001176	2.9e-05
14100	0.001164	2.9e-05
14500	0.001161	2.8e-05
16000	0.001147	2.8e-05
17000	0.001137	2.8e-05
18000	0.001127	2.8e-05
19000	0.001118	2.7e-05
20000	0.00111	2.7e-05
21000	0.0011	2.7e-05
22000	0.001092	2.7e-05
23000	0.001083	2.7e-05
24500	0.001071	2.6e-05
25000	0.001069	2.6e-05
26000	0.00106	2.6e-05
27000	0.001053	2.6e-05
28000	0.001045	2.6e-05
29000	0.001039	2.5e-05
30000	0.001033	2.5e-05

System: heptane; phases: Liquid
Fixed: Temperature, K = 303.15
Property: Isobaric coefficient of expansion, 1/K (Liquid); method: OTHER
Pressure, kPa	Isobaric coefficient of expansion, 1/K	uncertainty
500	0.00125	3.1e-05
1000	0.001243	3e-05
2000	0.001231	3e-05
3000	0.001218	3e-05
4000	0.001208	3e-05
5000	0.001188	2.9e-05
6000	0.001177	2.9e-05
7000	0.001167	2.9e-05
8000	0.001157	2.8e-05
9000	0.001147	2.8e-05
10000	0.001137	2.8e-05
11000	0.001127	2.8e-05
12000	0.001119	2.7e-05
13000	0.001109	2.7e-05
14000	0.001099	2.7e-05
15000	0.001092	2.7e-05
16000	0.001084	2.7e-05
17000	0.001075	2.6e-05
18000	0.001067	2.6e-05
19000	0.00106	2.6e-05
20000	0.00105	2.6e-05
21000	0.001043	2.6e-05
22000	0.001036	2.5e-05
23000	0.001028	2.5e-05
24000	0.001021	2.5e-05
25000	0.001014	2.5e-05
26000	0.001006	2.5e-05
27000	0.001002	2.5e-05
28000	0.000995	2.4e-05
29000	0.000988	2.4e-05
30000	0.000983	2.4e-05

System: toluene; phases: Liquid
Fixed: Temperature, K = 303.15
Property: Isobaric coefficient of expansion, 1/K (Liquid); method: OTHER
Pressure, kPa	Isobaric coefficient of expansion, 1/K	uncertainty
500	0.001044	2.6e-05
1000	0.001039	2.5e-05
2000	0.001033	2.5e-05
3000	0.001026	2.5e-05
4000	0.00102	2.5e-05
5000	0.001012	2.5e-05
6000	0.001007	2.5e-05
7000	0.001002	2.5e-05
8000	0.000996	2.4e-05
9000	0.00099	2.4e-05
10000	0.000984	2.4e-05
11000	0.000977	2.4e-05
12000	0.000973	2.4e-05
13000	0.000967	2.4e-05
14000	0.000962	2.4e-05
15000	0.000957	2.3e-05
16000	0.000952	2.3e-05
17000	0.000947	2.3e-05
18000	0.000942	2.3e-05
19000	0.000937	2.3e-05
20000	0.000932	2.3e-05
21000	0.000928	2.3e-05
22000	0.000923	2.3e-05
23000	0.000918	2.2e-05
24000	0.000914	2.2e-05
25000	0.000908	2.2e-05
26000	0.000904	2.2e-05
27000	0.000903	2.2e-05
28000	0.000896	2.2e-05
29000	0.000896	2.2e-05
30000	0.000892	2.2e-05

System: cyclohexane; phases: Liquid
Fixed: Temperature, K = 303.15
Property: Isobaric coefficient of expansion, 1/K (Liquid); method: OTHER
Pressure, kPa	Isobaric coefficient of expansion, 1/K	uncertainty
500	0.001176	2.9e-05
1000	0.001172	2.9e-05
2000	0.001163	2.8e-05
3000	0.001152	2.8e-05
4000	0.001145	2.8e-05
5000	0.001135	2.8e-05
6000	0.001126	2.8e-05
7000	0.001118	2.7e-05
8000	0.001109	2.7e-05
9000	0.001103	2.7e-05
10000	0.001092	2.7e-05
11000	0.001087	2.7e-05
12000	0.001079	2.6e-05
13000	0.001072	2.6e-05
14000	0.001065	2.6e-05
15000	0.001058	2.6e-05
16000	0.001052	2.6e-05
17000	0.001045	2.6e-05
18000	0.001038	2.5e-05
19000	0.001032	2.5e-05
20000	0.001025	2.5e-05
21000	0.001018	2.5e-05
22000	0.001012	2.5e-05
23000	0.001007	2.5e-05
24000	0.001001	2.5e-05
25000	0.000994	2.4e-05
26000	0.000988	2.4e-05
27000	0.000985	2.4e-05
28000	0.000977	2.4e-05
29000	0.000975	2.4e-05
30000	0.00097	2.4e-05
