Measured thermophysical data. Density, Viscosity and Thermal Conductivity of Aqueous Ethylene, Diethylene and Triethylene Glycol Mixtures between 290 K and 450 K
Source: J. Chem. Eng. Data, 2003, 10.1021/je025610o
Compound 1: 1,2-ethanediol, C2H6O2, InChI=1S/C2H6O2/c3-1-2-4/h3-4H,1-2H2, purity 99.8%
Compound 2: diethylene glycol, C4H10O3, InChI=1S/C4H10O3/c5-1-3-7-4-2-6/h5-6H,1-4H2, purity 99%
Compound 3: triethylene glycol, C6H14O4, InChI=1S/C6H14O4/c7-1-3-9-5-6-10-4-2-8/h7-8H,1-6H2, purity 99%
Compound 4: water, H2O, InChI=1S/H2O/h1H2, purity 99.99%

System: 1,2-ethanediol; phases: Liquid
Fixed: Pressure, kPa = 100
Property: Viscosity, Pa*s (Liquid); method: Capillary tube (Ostwald; Ubbelohde) method
Temperature, K	Viscosity, Pa*s	uncertainty
295.55	0.0191	0.0004
313.05	0.00974	0.0002
333.1	0.00524	0.00011
353.05	0.00313	7e-05
372.15	0.00206	4e-05
392.45	0.00144	3e-05
412.25	0.00107	2e-05
428.3	0.000867	1.8e-05

System: diethylene glycol; phases: Liquid
Fixed: Pressure, kPa = 100
Property: Viscosity, Pa*s (Liquid); method: Capillary tube (Ostwald; Ubbelohde) method
Temperature, K	Viscosity, Pa*s	uncertainty
294.2	0.0351	0.0007
313.05	0.0151	0.0003
333.05	0.00764	0.00016
353.05	0.00441	9e-05
373.6	0.00276	6e-05
393.4	0.00192	4e-05
413.25	0.00141	3e-05
428.15	0.00115	3e-05

System: triethylene glycol; phases: Liquid
Fixed: Pressure, kPa = 100
Property: Viscosity, Pa*s (Liquid); method: Capillary tube (Ostwald; Ubbelohde) method
Temperature, K	Viscosity, Pa*s	uncertainty
299.65	0.0351	0.0007
313.05	0.0195	0.0004
333.1	0.00966	0.00021
353.05	0.00555	0.00012
373.5	0.00341	7e-05
393.3	0.00236	5e-05
413.25	0.00171	4e-05
428.1	0.00139	3e-05

System: 1,2-ethanediol + water; phases: Liquid
Fixed: Pressure, kPa = 100
Property: Thermal conductivity, W/m/K (Liquid); method: Hot wire method
Mole fraction of 1,2-ethanediol	Temperature, K	Thermal conductivity, W/m/K	uncertainty
0.25	303.4	0.391	0.008
0.25	323.6	0.4	0.008
0.25	348.6	0.416	0.008
0.25	372	0.423	0.009
0.25	395.9	0.428	0.009
0.25	421	0.432	0.009
0.5	312.3	0.316	0.006
0.5	324.4	0.314	0.006
0.5	347.7	0.324	0.007
0.5	372.8	0.33	0.007
0.5	397	0.332	0.007
0.5	421.7	0.32	0.007
0.75	298.5	0.269	0.005
0.75	324.2	0.272	0.006
0.75	347.5	0.277	0.006
0.75	371.9	0.281	0.006
0.75	396.8	0.28	0.006
0.75	419.9	0.279	0.006
0.75	441.6	0.276	0.006

System: 1,2-ethanediol + water; phases: Liquid
Fixed: Pressure, kPa = 100
Property: Viscosity, Pa*s (Liquid); method: CAPTUB:UFactor:4
Mole fraction of 1,2-ethanediol	Temperature, K	Viscosity, Pa*s	uncertainty
0.25	296.45	0.00369	0.00011
0.25	313.05	0.00229	7e-05
0.25	333.05	0.00147	4e-05
0.25	353.05	0.00099	3e-05
0.25	378.85	0.000689	2.1e-05
0.25	400.95	0.000518	1.7e-05
0.25	421.15	0.000418	1.4e-05
0.25	435.55	0.000366	1.2e-05
0.5	297.05	0.00761	0.00021
0.5	313.05	0.00449	0.00013
0.5	333.1	0.00262	8e-05
0.5	353.05	0.0017	5e-05
0.5	380.05	0.00107	3e-05
0.5	394.25	0.00087	3e-05
0.5	410.05	0.000706	2.2e-05
0.5	427.55	0.000573	1.8e-05
0.5	440.65	0.0005	2e-05
0.75	297.35	0.0123	0.0003
0.75	313.05	0.00697	0.00019
0.75	333.1	0.00388	0.00011
0.75	353.05	0.00242	7e-05
0.75	373.45	0.00162	5e-05
0.75	383.35	0.00137	4e-05
0.75	393.2	0.00118	4e-05
0.75	403.15	0.00102	3e-05
0.75	407.75	0.000978	3e-05
0.75	413.15	0.000903	2.7e-05
0.75	422.35	0.000806	2.5e-05
0.75	435.95	0.000691	2.2e-05
0.75	449.85	0.000594	1.9e-05

System: 1,2-ethanediol + water; phases: Liquid
Fixed: Pressure, kPa = 100
Property: Mass density, kg/m3 (Liquid); method: PYCNOM:UFactor:2
Mole fraction of 1,2-ethanediol	Temperature, K	Mass density, kg/m3	uncertainty
0.25	296.4	1068	2
0.25	313.05	1058	2
0.25	333.05	1045	2
0.25	353.05	1030	2
0.25	374.85	1013	2
0.25	396.95	995.5	2.2
0.25	417.15	977.4	2.2
0.25	431.55	964.9	2.2
0.5	297.05	1094	2
0.5	313.05	1083	2
0.5	333.1	1069	2
0.5	353.05	1054	2
0.5	376.05	1035	2
0.5	390.25	1023	2
0.5	406.05	1010	2
0.5	423.55	994.5	2.2
0.5	436.65	982.5	2.2
0.75	297.35	1106	2
0.75	313.05	1094	2
0.75	333.1	1080	2
0.75	353.05	1065	2
0.75	373.45	1049	2
0.75	383.35	1041	2
0.75	393.2	1033	2
0.75	403.15	1025	2
0.75	404.75	1023	2
0.75	413.15	1016	2
0.75	418.35	1012	2
0.75	431.95	1000	2
0.75	445.85	987	2

System: diethylene glycol + water; phases: Liquid
Fixed: Pressure, kPa = 100
Property: Thermal conductivity, W/m/K (Liquid); method: Hot wire method
Mole fraction of diethylene glycol	Temperature, K	Thermal conductivity, W/m/K	uncertainty
0.25	294.4	0.291	0.006
0.25	323.4	0.31	0.006
0.25	347.4	0.315	0.006
0.25	373	0.322	0.007
0.25	396	0.325	0.007
0.25	421.5	0.33	0.007
0.25	447.5	0.328	0.007
0.5	295.9	0.235	0.005
0.5	322.1	0.244	0.005
0.5	347.8	0.249	0.005
0.5	371.9	0.258	0.005
0.5	395.6	0.257	0.005
0.5	422	0.256	0.005
0.5	447	0.253	0.005
0.75	296.4	0.209	0.004
0.75	323.8	0.213	0.004
0.75	349.6	0.217	0.004
0.75	373.2	0.219	0.004
0.75	396.9	0.217	0.004
0.75	421.6	0.222	0.005
0.75	446.8	0.213	0.004

System: diethylene glycol + water; phases: Liquid
Fixed: Pressure, kPa = 100
Property: Viscosity, Pa*s (Liquid); method: CAPTUB:UFactor:4
Mole fraction of diethylene glycol	Temperature, K	Viscosity, Pa*s	uncertainty
0.25	294.25	0.00979	0.00026
0.25	313.05	0.00488	0.00014
0.25	333.05	0.00276	8e-05
0.25	353.15	0.00176	5e-05
0.25	384.95	0.00103	3e-05
0.25	396.75	0.000912	2.8e-05
0.25	413.25	0.000743	2.3e-05
0.25	430.35	0.00061	1.9e-05
0.25	445.65	0.000521	1.7e-05
0.5	293.45	0.022	0.0006
0.5	312.95	0.00964	0.00026
0.5	332.95	0.00503	0.00014
0.5	352.95	0.00301	9e-05
0.5	382.55	0.00166	5e-05
0.5	394.25	0.00137	4e-05
0.5	409.35	0.00112	3e-05
0.5	428.25	0.000865	2.6e-05
0.5	447.05	0.000707	2.2e-05
0.75	294.05	0.0304	0.0008
0.75	313.05	0.0133	0.0004
0.75	333.05	0.00675	0.00019
0.75	353.05	0.0039	0.00011
0.75	385.05	0.002	6e-05
0.75	394.95	0.00172	5e-05
0.75	410.95	0.00135	4e-05
0.75	428.65	0.00105	3e-05
0.75	447.65	0.000838	2.6e-05

System: diethylene glycol + water; phases: Liquid
Fixed: Pressure, kPa = 100
Property: Mass density, kg/m3 (Liquid); method: PYCNOM:UFactor:2
Mole fraction of diethylene glycol	Temperature, K	Mass density, kg/m3	uncertainty
0.25	294.25	1095	2
0.25	313.05	1081	2
0.25	333.05	1066	2
0.25	353.15	1051	2
0.25	381.45	1027	2
0.25	392.75	1017	2
0.25	409.25	1004	2
0.25	426.35	987.6	2.2
0.25	441.65	973.3	2.2
0.5	293.45	1111	2
0.5	312.95	1097	2
0.5	332.95	1082	2
0.5	352.95	1066	2
0.5	380.05	1043	2
0.5	390.25	1035	2
0.5	405.35	1023	2
0.5	424.25	1006	2
0.5	443.05	988.2	2.3
0.75	294.05	1115	2
0.75	313.05	1101	2
0.75	333.05	1087	2
0.75	353.05	1071	2
0.75	382.55	1048	2
0.75	390.95	1042	2
0.75	406.95	1029	2
0.75	424.65	1014	2
0.75	443.65	996.3	2.3

System: triethylene glycol + water; phases: Liquid
Fixed: Pressure, kPa = 100
Property: Thermal conductivity, W/m/K (Liquid); method: Hot wire method
Mole fraction of triethylene glycol	Temperature, K	Thermal conductivity, W/m/K	uncertainty
0.25	295	0.258	0.005
0.25	323.8	0.268	0.005
0.25	349.1	0.275	0.006
0.25	373.8	0.28	0.006
0.25	396.4	0.285	0.006
0.25	421.3	0.292	0.006
0.25	445	0.282	0.006
0.5	295.5	0.21	0.004
0.5	324.6	0.216	0.004
0.5	349.5	0.219	0.004
0.5	373.6	0.22	0.005
0.5	396	0.221	0.005
0.5	421.9	0.221	0.005
0.5	448.3	0.216	0.004
0.75	295.5	0.195	0.004
0.75	327.1	0.197	0.004
0.75	349.8	0.201	0.004
0.75	372.7	0.202	0.004
0.75	397.6	0.2	0.004
0.75	422.5	0.198	0.004
0.75	446.5	0.195	0.004

System: triethylene glycol + water; phases: Liquid
Fixed: Pressure, kPa = 100
Property: Viscosity, Pa*s (Liquid); method: CAPTUB:UFactor:4
Mole fraction of triethylene glycol	Temperature, K	Viscosity, Pa*s	uncertainty
0.25	293.85	0.0192	0.0005
0.25	313.05	0.0086	0.0002
0.25	333.05	0.00452	0.00013
0.25	353.05	0.0027	8e-05
0.25	382.15	0.0015	4e-05
0.25	393.35	0.00127	4e-05
0.25	409.75	0.001	3e-05
0.25	427.35	0.000813	2.5e-05
0.25	446.45	0.000662	2.1e-05
0.5	294.05	0.036	0.0009
0.5	313.05	0.0152	0.0004
0.5	333.05	0.00752	0.0002
0.5	353.05	0.00432	0.00012
0.5	386.75	0.00209	6e-05
0.5	395.35	0.00184	5e-05
0.5	411.85	0.00143	4e-05
0.5	429.95	0.00111	3e-05
0.5	447.45	0.000903	2.8e-05
0.75	294.15	0.0432	0.0011
0.75	313.05	0.0183	0.0005
0.75	333.05	0.00904	0.00024
0.75	353.05	0.00519	0.00015
0.75	387.45	0.00241	7e-05
0.75	396.55	0.00211	6e-05
0.75	411.45	0.00168	5e-05
0.75	429.35	0.0013	4e-05
0.75	448.55	0.00103	3e-05

System: triethylene glycol + water; phases: Liquid
Fixed: Pressure, kPa = 100
Property: Mass density, kg/m3 (Liquid); method: PYCNOM:UFactor:2
Mole fraction of triethylene glycol	Temperature, K	Mass density, kg/m3	uncertainty
0.25	293.85	1108	2
0.25	313.05	1093	2
0.25	333.05	1078	2
0.25	353.05	1061	2
0.25	379.65	1039	2
0.25	389.35	1030	2
0.25	405.75	1016	2
0.25	423.35	999.2	2.2
0.25	442.45	980	2
0.5	294.05	1120	2
0.5	313.05	1105	2
0.5	333.05	1089	2
0.5	353.05	1073	2
0.5	384.25	1046	2
0.5	391.35	1041	2
0.5	407.85	1028	2
0.5	425.95	1011	2
0.5	443.45	995	2
0.75	294.15	1122	2
0.75	313.05	1108	2
0.75	333.05	1092	2
0.75	353.05	1076	2
0.75	384.95	1049	2
0.75	392.55	1044	2
0.75	407.45	1032	2
0.75	425.35	1016	2
0.75	444.55	999.5	2.3
