Measured thermophysical data. Surface Tension of Pure Liquids and Binary Liquid Mixtures
Source: J. Chem. Eng. Data, 2003, 10.1021/je0201323
Compound 1: heptane, C7H16, InChI=1S/C7H16/c1-3-5-7-6-4-2/h3-7H2,1-2H3, purity 99%
Compound 2: toluene, C7H8, InChI=1S/C7H8/c1-7-5-3-2-4-6-7/h2-6H,1H3, purity 99.5%
Compound 3: dimethylformamide, C3H7NO, InChI=1S/C3H7NO/c1-4(2)3-5/h3H,1-2H3, purity 99.5%
Compound 4: cyclohexane, C6H12, InChI=1S/C6H12/c1-2-4-6-5-3-1/h1-6H2, purity 99.5%
Compound 5: N-methylpyrrolidone, C5H9NO, InChI=1S/C5H9NO/c1-6-4-2-3-5(6)7/h2-4H2,1H3, purity 99.5%
Compound 6: acetone, C3H6O, InChI=1S/C3H6O/c1-3(2)4/h1-2H3, purity 99.5%

System: heptane; phases: Liquid, Air at 1 atmosphere
Property: Surface tension liquid-gas, N/m (Liquid); method: Pendant drop shape
Temperature, K	Surface tension liquid-gas, N/m	uncertainty
277.93	0.02173	0.00027
282.83	0.02118	0.00026
287.81	0.0207	0.00026
292.81	0.02017	0.00026
297.82	0.01963	0.00025
302.83	0.01915	0.00025
307.86	0.01868	0.00024
312.86	0.01817	0.00024
317.86	0.01776	0.00024
322.86	0.01722	0.00023
327.88	0.01668	0.00023
332.91	0.01621	0.00023
337.88	0.01579	0.00022
342.92	0.01529	0.00022

System: heptane; phases: Liquid
Fixed: Pressure, kPa = 101.3
Property: Mass density, kg/m3 (Liquid); method: VIBTUB:mpoint
Temperature, K	Mass density, kg/m3	uncertainty
278.15	696.3	0.4
283.15	692.2	0.4
288.15	688	0.4
293.15	683.8	0.4
298.15	679.5	0.4
303.15	675.2	0.4
308.15	670.9	0.4
313.15	666.5	0.3
318.15	662.1	0.3
323.15	657.7	0.3
328.15	653.2	0.3
333.15	648.7	0.3

System: toluene; phases: Liquid, Air at 1 atmosphere
Property: Surface tension liquid-gas, N/m (Liquid); method: Pendant drop shape
Temperature, K	Surface tension liquid-gas, N/m	uncertainty
277.85	0.03011	0.00032
287.81	0.02893	0.00031
297.82	0.02776	0.0003
302.83	0.02717	0.0003
307.86	0.0266	0.00029
312.87	0.02603	0.00029
317.86	0.02546	0.00028
327.88	0.02429	0.00027
337.88	0.02322	0.00026

System: toluene; phases: Liquid
Fixed: Pressure, kPa = 101.3
Property: Mass density, kg/m3 (Liquid); method: VIBTUB:mpoint
Temperature, K	Mass density, kg/m3	uncertainty
278.15	880.3	0.2
283.15	875.9	0.2
288.15	871.4	0.2
293.15	866.9	0.2
298.15	862.4	0.2
303.15	857.8	0.2
308.15	853.2	0.2
313.15	848.6	0.2
318.15	843.9	0.2
323.15	839.2	0.2
328.15	834.5	0.2
333.15	829.8	0.2

System: dimethylformamide; phases: Liquid, Air at 1 atmosphere
Property: Surface tension liquid-gas, N/m (Liquid); method: Pendant drop shape
Temperature, K	Surface tension liquid-gas, N/m	uncertainty
277.85	0.03816	0.00039
287.81	0.03696	0.00038
297.82	0.03583	0.00037
307.86	0.03465	0.00036
317.86	0.03337	0.00035
327.88	0.03203	0.00034
327.89	0.03203	0.00034

System: dimethylformamide; phases: Liquid
Fixed: Pressure, kPa = 101.3
Property: Mass density, kg/m3 (Liquid); method: VIBTUB:mpoint
Temperature, K	Mass density, kg/m3	uncertainty
278.15	963	0.3
283.15	958.3	0.3
288.15	953.7	0.3
293.15	949.1	0.3
298.15	944.5	0.3
303.15	939.9	0.3
308.15	935.4	0.3
313.15	930.9	0.3
318.15	926.3	0.3
323.15	921.7	0.3
328.15	917.9	0.2
333.15	913.2	0.2

System: cyclohexane; phases: Liquid, Air at 1 atmosphere
Property: Surface tension liquid-gas, N/m (Liquid); method: Pendant drop shape
Temperature, K	Surface tension liquid-gas, N/m	uncertainty
279.33	0.02637	0.00029
282.82	0.02599	0.00029
287.81	0.02534	0.00028
297.82	0.0242	0.00027
307.86	0.02302	0.00026
317.86	0.02184	0.00025
327.88	0.02071	0.00024
337.93	0.01957	0.00024

System: N-methylpyrrolidone; phases: Liquid, Air at 1 atmosphere
Property: Surface tension liquid-gas, N/m (Liquid); method: Pendant drop shape
Temperature, K	Surface tension liquid-gas, N/m	uncertainty
277.84	0.04261	0.00042
287.8	0.04135	0.00041
297.81	0.04025	0.0004
307.85	0.0391	0.00039
317.85	0.03791	0.00038
327.89	0.0368	0.00037
337.88	0.03566	0.00036

System: acetone; phases: Liquid, Air at 1 atmosphere
Property: Surface tension liquid-gas, N/m (Liquid); method: Pendant drop shape
Temperature, K	Surface tension liquid-gas, N/m	uncertainty
287.81	0.02394	0.00027
297.82	0.02278	0.00026
307.86	0.02159	0.00025
317.86	0.02033	0.00024
327.88	0.01901	0.00023

System: toluene + heptane; phases: Liquid, Air at 1 atmosphere
Fixed: Temperature, K = 287.81
Property: Surface tension liquid-gas, N/m (Liquid); method: Pendant drop shape
Mole fraction of heptane	Surface tension liquid-gas, N/m	uncertainty
0	0.02893	0.00031
0.299	0.02449	0.00028
0.449	0.02338	0.00027
0.595	0.02241	0.00027
0.749	0.02158	0.00026
1	0.0207	0.00026

System: toluene + heptane; phases: Liquid, Air at 1 atmosphere
Fixed: Temperature, K = 297.82
Property: Surface tension liquid-gas, N/m (Liquid); method: Pendant drop shape
Mole fraction of heptane	Surface tension liquid-gas, N/m	uncertainty
0	0.02776	0.0003
0.15	0.02516	0.00028
0.299	0.02347	0.00027
0.449	0.02217	0.00026
0.595	0.02135	0.00026
0.749	0.02056	0.00025
1	0.01963	0.00025

System: toluene + heptane; phases: Liquid, Air at 1 atmosphere
Fixed: Temperature, K = 307.86
Property: Surface tension liquid-gas, N/m (Liquid); method: Pendant drop shape
Mole fraction of heptane	Surface tension liquid-gas, N/m	uncertainty
0	0.0266	0.00029
0.15	0.02408	0.00027
0.299	0.02242	0.00026
0.449	0.02123	0.00025
0.595	0.02031	0.00025
0.749	0.01962	0.00025
1	0.01868	0.00024

System: toluene + heptane; phases: Liquid, Air at 1 atmosphere
Fixed: Temperature, K = 317.86
Property: Surface tension liquid-gas, N/m (Liquid); method: Pendant drop shape
Mole fraction of heptane	Surface tension liquid-gas, N/m	uncertainty
0	0.02546	0.00028
0.15	0.02303	0.00026
0.299	0.02139	0.00025
0.449	0.02028	0.00025
0.595	0.01937	0.00024
0.749	0.01862	0.00024
1	0.01776	0.00024

System: toluene + heptane; phases: Liquid, Air at 1 atmosphere
Fixed: Temperature, K = 327.88
Property: Surface tension liquid-gas, N/m (Liquid); method: Pendant drop shape
Mole fraction of heptane	Surface tension liquid-gas, N/m	uncertainty
0	0.02429	0.00027
0.15	0.02205	0.00026
0.299	0.02044	0.00025
0.449	0.01931	0.00024
0.595	0.01843	0.00024
0.749	0.01766	0.00023
1	0.01668	0.00023

System: toluene + heptane; phases: Liquid
Fixed: Pressure, kPa = 101.3
Property: Mass density, kg/m3 (Liquid); method: VIBTUB:mpoint
Mole fraction of heptane	Temperature, K	Mass density, kg/m3	uncertainty
0	278.15	880.3	0.2
0	283.15	875.9	0.2
0	288.15	871.4	0.2
0	293.15	866.9	0.2
0	298.15	862.4	0.2
0	303.15	857.8	0.2
0	308.15	853.2	0.2
0	313.15	848.6	0.2
0	318.15	843.9	0.2
0	323.15	839.2	0.2
0	328.15	834.5	0.2
0	333.15	829.8	0.2
0.15	278.15	843.7	0.3
0.15	283.15	839.3	0.3
0.15	288.15	834.9	0.3
0.15	293.15	830.5	0.3
0.15	298.15	826	0.3
0.15	303.15	821.5	0.3
0.15	308.15	817	0.3
0.15	313.15	812.4	0.3
0.15	318.15	807.8	0.3
0.15	323.15	803.1	0.3
0.15	328.15	798.5	0.3
0.15	333.15	793.8	0.2
0.299	278.15	811.3	0.3
0.299	283.15	807	0.3
0.299	288.15	802.7	0.3
0.299	293.15	798.3	0.3
0.299	298.15	794.1	0.3
0.299	303.15	789.4	0.3
0.299	308.15	784.9	0.3
0.299	313.15	780.4	0.3
0.299	318.15	775.8	0.3
0.299	323.15	771.2	0.3
0.299	328.15	766.5	0.3
0.299	333.15	761.8	0.3
0.449	278.15	782	0.3
0.449	283.15	777.8	0.3
0.449	288.15	773.5	0.3
0.449	293.15	769.1	0.3
0.449	298.15	764.7	0.3
0.449	303.15	760.3	0.3
0.449	308.15	755.8	0.3
0.449	313.15	751.3	0.3
0.449	318.15	746.8	0.3
0.449	323.15	742.2	0.3
0.449	328.15	737.6	0.3
0.449	333.15	733	0.3
0.595	278.15	756.4	0.3
0.595	283.15	752.2	0.3
0.595	288.15	747.9	0.3
0.595	293.15	743.6	0.3
0.595	298.15	739.2	0.3
0.595	303.15	734.8	0.3
0.595	308.15	730.4	0.3
0.595	313.15	725.9	0.3
0.595	318.15	721.4	0.3
0.595	323.15	716.9	0.3
0.595	328.15	712.3	0.3
0.595	333.15	707.7	0.3
0.749	278.15	732.6	0.3
0.749	283.15	728.4	0.3
0.749	288.15	724.2	0.3
0.749	293.15	719.9	0.3
0.749	298.15	715.6	0.3
0.749	303.15	711.2	0.3
0.749	308.15	706.8	0.3
0.749	313.15	702.4	0.3
0.749	318.15	697.9	0.3
0.749	323.15	693.4	0.3
0.749	328.15	688.8	0.3
0.749	333.15	684.2	0.3
1	278.15	696.3	0.4
1	283.15	692.2	0.4
1	288.15	688	0.4
1	293.15	683.8	0.4
1	298.15	679.5	0.4
1	303.15	675.2	0.4
1	308.15	670.9	0.4
1	313.15	666.5	0.3
1	318.15	662.1	0.3
1	323.15	657.7	0.3
1	328.15	653.2	0.3
1	333.15	648.7	0.3

System: dimethylformamide + toluene; phases: Liquid, Air at 1 atmosphere
Fixed: Temperature, K = 287.81
Property: Surface tension liquid-gas, N/m (Liquid); method: Pendant drop shape
Mole fraction of toluene	Surface tension liquid-gas, N/m	uncertainty
0	0.03696	0.00038
0.1502	0.03522	0.00036
0.3	0.03342	0.00035
0.4492	0.03215	0.00034
0.5998	0.0312	0.00033
0.7548	0.03017	0.00032
1	0.02893	0.00031

System: dimethylformamide + toluene; phases: Liquid, Air at 1 atmosphere
Fixed: Temperature, K = 297.82
Property: Surface tension liquid-gas, N/m (Liquid); method: Pendant drop shape
Mole fraction of toluene	Surface tension liquid-gas, N/m	uncertainty
0	0.03583	0.00037
0.1502	0.03397	0.00035
0.3	0.0325	0.00034
0.4492	0.03104	0.00033
0.5998	0.03004	0.00032
0.7548	0.02917	0.00031
1	0.02776	0.0003

System: dimethylformamide + toluene; phases: Liquid, Air at 1 atmosphere
Fixed: Temperature, K = 307.86
Property: Surface tension liquid-gas, N/m (Liquid); method: Pendant drop shape
Mole fraction of toluene	Surface tension liquid-gas, N/m	uncertainty
0	0.03465	0.00036
0.1502	0.03284	0.00034
0.3	0.0312	0.00033
0.4492	0.02986	0.00032
0.5998	0.02898	0.00031
0.7548	0.02806	0.0003
1	0.0266	0.00029

System: dimethylformamide + toluene; phases: Liquid, Air at 1 atmosphere
Fixed: Temperature, K = 317.86
Property: Surface tension liquid-gas, N/m (Liquid); method: Pendant drop shape
Mole fraction of toluene	Surface tension liquid-gas, N/m	uncertainty
0	0.03337	0.00035
0.1502	0.0317	0.00033
0.3	0.03021	0.00032
0.4492	0.02877	0.00031
0.5998	0.02761	0.0003
0.7548	0.02685	0.00029
1	0.02546	0.00028

System: dimethylformamide + toluene; phases: Liquid, Air at 1 atmosphere
Fixed: Temperature, K = 327.88
Property: Surface tension liquid-gas, N/m (Liquid); method: Pendant drop shape
Mole fraction of toluene	Surface tension liquid-gas, N/m	uncertainty
0	0.03203	0.00034
0.1502	0.0305	0.00033
0.3	0.02904	0.00032
0.4492	0.02762	0.00031
0.5998	0.02659	0.00031
0.7548	0.0257	0.0003
1	0.02429	0.00029

System: dimethylformamide + toluene; phases: Liquid
Fixed: Pressure, kPa = 101.3
Property: Mass density, kg/m3 (Liquid); method: VIBTUB:mpoint
Mole fraction of toluene	Temperature, K	Mass density, kg/m3	uncertainty
0	278.15	963	0.3
0	283.15	958.3	0.3
0	288.15	953.7	0.3
0	293.15	949.1	0.3
0	298.15	944.5	0.3
0	303.15	939.9	0.3
0	308.15	935.4	0.3
0	313.15	930.9	0.3
0	318.15	926.3	0.3
0	323.15	921.7	0.3
0	328.15	917.9	0.2
0	333.15	913.2	0.2
0.1502	278.15	949.1	0.3
0.1502	283.15	944.4	0.3
0.1502	288.15	939.9	0.3
0.1502	293.15	935.3	0.3
0.1502	298.15	930.6	0.3
0.1502	303.15	926.1	0.3
0.1502	308.15	921.5	0.3
0.1502	313.15	917	0.2
0.1502	318.15	912.4	0.2
0.1502	323.15	907.8	0.2
0.1502	328.15	903.3	0.2
0.1502	333.15	899	0.2
0.3	278.15	935.7	0.3
0.3	283.15	931.1	0.3
0.3	288.15	926.6	0.3
0.3	293.15	922	0.3
0.3	298.15	917.4	0.3
0.3	303.15	912.9	0.2
0.3	308.15	908.3	0.2
0.3	313.15	903.8	0.2
0.3	318.15	899.2	0.2
0.3	323.15	894.6	0.2
0.3	328.15	890.1	0.2
0.3	333.15	885.7	0.2
0.4492	278.15	923.1	0.3
0.4492	283.15	918.6	0.3
0.4492	288.15	914.1	0.3
0.4492	293.15	909.5	0.2
0.4492	298.15	905	0.2
0.4492	303.15	900.4	0.2
0.4492	308.15	895.9	0.2
0.4492	313.15	891.3	0.2
0.4492	318.15	886.7	0.2
0.4492	323.15	882	0.2
0.4492	328.15	877.5	0.2
0.4492	333.15	873	0.2
0.5998	278.15	911	0.2
0.5998	283.15	906.5	0.2
0.5998	288.15	902	0.2
0.5998	293.15	897.5	0.2
0.5998	298.15	892.9	0.2
0.5998	303.15	888.4	0.2
0.5998	308.15	883.8	0.2
0.5998	313.15	879.2	0.2
0.5998	318.15	874.6	0.2
0.5998	323.15	869.9	0.2
0.5998	328.15	865.3	0.2
0.5998	333.15	860.7	0.2
0.7548	278.15	898.9	0.2
0.7548	283.15	894.5	0.2
0.7548	288.15	890	0.2
0.7548	293.15	885.5	0.2
0.7548	298.15	880.9	0.2
0.7548	303.15	876.4	0.2
0.7548	308.15	871.8	0.2
0.7548	313.15	867.2	0.2
0.7548	318.15	862.5	0.2
0.7548	323.15	857.9	0.2
0.7548	328.15	853.2	0.2
0.7548	333.15	848.5	0.2
1	278.15	880.3	0.2
1	283.15	875.9	0.2
1	288.15	871.4	0.2
1	293.15	866.9	0.2
1	298.15	862.4	0.2
1	303.15	857.8	0.2
1	308.15	853.2	0.2
1	313.15	848.6	0.2
1	318.15	843.9	0.2
1	323.15	839.2	0.2
1	328.15	834.5	0.2
1	333.15	829.8	0.2
