Measured thermophysical data. Saturated Liquid Viscosity of Cyclopentane and Isopentane
Source: J. Chem. Eng. Data, 2003, 10.1021/je0202174
Compound 1: cyclopentane, C5H10, InChI=1S/C5H10/c1-2-4-5-3-1/h1-5H2, purity 99.79%
Compound 2: 2-methylbutane, C5H12, InChI=1S/C5H12/c1-4-5(2)3/h5H,4H2,1-3H3, purity 99.42%

System: cyclopentane; phases: Liquid, Gas
Property: Viscosity, Pa*s (Liquid); method: CAPTUB:UFactor:2
Temperature, K	Viscosity, Pa*s	uncertainty
253.15	0.0007268	1.22e-05
258.15	0.0006786	1.15e-05
263.15	0.0006347	1.09e-05
268.15	0.000593	1.03e-05
273.15	0.0005567	9.8e-06
278.15	0.0005224	9.3e-06
283.15	0.0004922	8.9e-06
288.15	0.0004646	8.5e-06
293.15	0.0004382	8.1e-06
298.15	0.0004148	7.8e-06
303.15	0.0003923	7.5e-06
308.15	0.0003714	7.2e-06
313.15	0.0003521	6.9e-06
318.15	0.000335	6.7e-06
323.15	0.000319	6.5e-06
328.15	0.0003048	6.3e-06
333.15	0.0002912	6.1e-06
338.15	0.0002793	5.9e-06
343.15	0.000269	5.8e-06
348.15	0.000259	5.6e-06
353.15	0.0002502	5.5e-06

System: 2-methylbutane; phases: Liquid, Gas
Property: Viscosity, Pa*s (Liquid); method: CAPTUB:UFactor:2
Temperature, K	Viscosity, Pa*s	uncertainty
253.15	0.0003893	7.5e-06
258.15	0.0003661	7.2e-06
263.15	0.0003439	6.9e-06
268.15	0.0003201	6.5e-06
273.15	0.0003023	6.3e-06
278.15	0.0002859	6.1e-06
283.15	0.0002703	5.8e-06
288.15	0.0002547	5.6e-06
293.15	0.0002399	5.4e-06
298.15	0.0002289	5.2e-06
303.15	0.0002144	5e-06
308.15	0.0002023	4.9e-06
313.15	0.000191	4.7e-06
318.15	0.0001813	4.6e-06
323.15	0.0001724	4.4e-06
328.15	0.0001611	4.3e-06
333.15	0.0001543	4.2e-06
338.15	0.000148	4.1e-06
343.15	0.0001411	4e-06
348.15	0.0001332	3.9e-06
353.15	0.0001287	3.8e-06
