Measured thermophysical data. Physicochemical Properties and the Crystallization Thermodynamics of the Pure Enantiomer and the Racemate for N-Methylephedrine
Source: J. Chem. Eng. Data, 2003, 10.1021/je020176b
Compound 1: (+)-N-methylephedrine, C11H17NO, InChI=1S/C11H17NO/c1-9(12(2)3)11(13)10-7-5-4-6-8-10/h4-9,11,13H,1-3H3/t9-,11-/m1/s1
Compound 2: (-)-N-methylephedrine, C11H17NO, InChI=1S/C11H17NO/c1-9(12(2)3)11(13)10-7-5-4-6-8-10/h4-9,11,13H,1-3H3/t9-,11-/m0/s1

System: (+)-N-methylephedrine; phases: Crystal, Liquid, Air at 1 atmosphere
Property: Molar enthalpy of transition or fusion, kJ/mol (Crystal); method: DSC
Molar enthalpy of transition or fusion, kJ/mol	uncertainty
30.531	0.869

System: (+)-N-methylephedrine; phases: Crystal, Liquid, Air at 1 atmosphere
Property: Normal melting temperature, K (Crystal); method: DTA
Normal melting temperature, K	uncertainty
359.75	2.03

System: (-)-N-methylephedrine + (+)-N-methylephedrine; phases: Crystal, Crystal, Liquid, Air at 1 atmosphere
Property: Eutectic temperature, K (Crystal); method: DIROBS
Eutectic temperature, K	uncertainty
336.65	2

System: (-)-N-methylephedrine + (+)-N-methylephedrine; phases: Liquid, Crystal
Fixed: Pressure, kPa = 101.3
Property: Solid-liquid equilibrium temperature, K (Liquid); method: DTA:UFactor:4
Mole fraction of (-)-N-methylephedrine	Solid-liquid equilibrium temperature, K	uncertainty
0	359.95	2
0.0001	359.75	2
0.0002	360.15	2
0.091	354.25	2
0.125	355.45	2
0.152	351.65	2
0.158	353.85	2
0.166	351.55	2
0.214	352.55	2
0.256	350.55	2
0.5	336.15	2
0.5	336.65	2
