Measured thermophysical data. Densities and Viscosities of Ternary Systems of Water + Glucose + Sodium Chloride at Several Temperatures
Source: J. Chem. Eng. Data, 2003, 10.1021/je020153x
Compound 1: water, H2O, InChI=1S/H2O/h1H2
Compound 2: D-glucose, C6H12O6, InChI=1S/C6H12O6/c7-1-3(9)5(11)6(12)4(10)2-8/h1,3-6,8-12H,2H2/t3-,4+,5+,6+/m0/s1
Compound 3: sodium chloride, ClNa, InChI=1S/ClH.Na/h1H;/q;+1/p-1

System: sodium chloride + water; phases: Liquid
Fixed: Pressure, kPa = 101.3
Property: Viscosity, Pa*s (Liquid); method: Capillary tube (Ostwald; Ubbelohde) method
Molality, mol/kg of sodium chloride	Temperature, K	Viscosity, Pa*s	uncertainty
0	293.15	0.001002	9e-06
0	303.15	0.000797	7e-06
0	313.15	0.000653	6e-06
0.5	293.15	0.001041	9e-06
0.5	303.15	0.000835	8e-06
0.5	313.15	0.000688	7e-06
1	293.15	0.001087	1e-05
1	303.15	0.000873	8e-06
1	313.15	0.000722	7e-06
1.5	293.15	0.001138	1e-05
1.5	303.15	0.000918	8e-06
1.5	313.15	0.00076	7e-06
2	293.15	0.001196	1e-05
2	303.15	0.000966	9e-06
2	313.15	0.000802	7e-06
2.5	293.15	0.001264	1.1e-05
2.5	303.15	0.001021	9e-06
2.5	313.15	0.000848	8e-06
3	293.15	0.001333	1.2e-05
3	303.15	0.001077	1e-05
3	313.15	0.000895	8e-06
3.5	293.15	0.001411	1.2e-05
3.5	303.15	0.00114	1e-05
3.5	313.15	0.000945	9e-06
4	293.15	0.001499	1.3e-05
4	303.15	0.001208	1.1e-05
4	313.15	0.001	9e-06

System: sodium chloride + water; phases: Liquid
Fixed: Pressure, kPa = 101.3
Property: Mass density, kg/m3 (Liquid); method: Vibrating tube method
Molality, mol/kg of sodium chloride	Temperature, K	Mass density, kg/m3	uncertainty
0	293.15	998.2	0.2
0	303.15	995.6	0.2
0	313.15	992.2	0.2
0.5	293.15	1018.6	0.2
0.5	303.15	1015.7	0.2
0.5	313.15	1011.9	0.2
1	293.15	1037.8	0.2
1	303.15	1034.4	0.2
1	313.15	1030.4	0.2
1.5	293.15	1056.3	0.2
1.5	303.15	1052.6	0.2
1.5	313.15	1048.4	0.2
2	293.15	1074.1	0.2
2	303.15	1070.1	0.2
2	313.15	1065.7	0.2
2.5	293.15	1091.4	0.2
2.5	303.15	1087.2	0.2
2.5	313.15	1082.5	0.2
3	293.15	1107.8	0.2
3	303.15	1103.4	0.2
3	313.15	1098.6	0.2
3.5	293.15	1123.9	0.3
3.5	303.15	1119.2	0.3
3.5	313.15	1114.3	0.3
4	293.15	1139.2	0.3
4	303.15	1134.4	0.3
4	313.15	1129.3	0.3

System: D-glucose + water; phases: Liquid
Fixed: Pressure, kPa = 101.3
Property: Viscosity, Pa*s (Liquid); method: Capillary tube (Ostwald; Ubbelohde) method
Molality, mol/kg of D-glucose	Temperature, K	Viscosity, Pa*s	uncertainty
0	293.15	0.001002	9e-06
0	303.15	0.000797	7e-06
0	313.15	0.000653	6e-06
0.5	293.15	0.001256	1.1e-05
0.5	303.15	0.000988	9e-06
0.5	313.15	0.000801	7e-06
1	293.15	0.001587	1.4e-05
1	303.15	0.001231	1.1e-05
1	313.15	0.000985	9e-06
1.5	293.15	0.001993	1.8e-05
1.5	303.15	0.001523	1.4e-05
1.5	313.15	0.001205	1.1e-05
2	293.15	0.002512	2.3e-05
2	303.15	0.00189	1.8e-05
2	313.15	0.001475	1.4e-05
2.5	293.15	0.003159	2.9e-05
2.5	303.15	0.002341	2.2e-05
2.5	313.15	0.001804	1.7e-05
3	293.15	0.003947	3.7e-05
3	303.15	0.002873	2.8e-05
3	313.15	0.002182	2.1e-05
3.5	293.15	0.00496	4.6e-05
3.5	303.15	0.003553	3.5e-05
3.5	313.15	0.00266	2.6e-05
4	293.15	0.006131	5.6e-05
4	303.15	0.004309	4.3e-05
4	313.15	0.003175	3.3e-05

System: D-glucose + water; phases: Liquid
Fixed: Pressure, kPa = 101.3
Property: Mass density, kg/m3 (Liquid); method: Vibrating tube method
Molality, mol/kg of D-glucose	Temperature, K	Mass density, kg/m3	uncertainty
0	293.15	998.2	0.2
0	303.15	995.6	0.2
0	313.15	992.2	0.2
0.5	293.15	1030.7	0.2
0.5	303.15	1027.7	0.2
0.5	313.15	1024	0.2
1	293.15	1059.7	0.2
1	303.15	1056.4	0.2
1	313.15	1052.4	0.2
1.5	293.15	1085.4	0.3
1.5	303.15	1081.8	0.3
1.5	313.15	1077.6	0.2
2	293.15	1108.8	0.3
2	303.15	1105	0.3
2	313.15	1100.6	0.3
2.5	293.15	1129.8	0.3
2.5	303.15	1125.7	0.3
2.5	313.15	1121.2	0.3
3	293.15	1148.8	0.3
3	303.15	1144.6	0.3
3	313.15	1139.9	0.3
3.5	293.15	1166.3	0.3
3.5	303.15	1161.9	0.3
3.5	313.15	1157.1	0.3
4	293.15	1182.2	0.3
4	303.15	1177.7	0.3
4	313.15	1172.7	0.3

System: D-glucose + sodium chloride + water; phases: Liquid
Fixed: Pressure, kPa = 101.3
Property: Viscosity, Pa*s (Liquid); method: Capillary tube (Ostwald; Ubbelohde) method
Molality, mol/kg of D-glucose	Molality, mol/kg of sodium chloride	Temperature, K	Viscosity, Pa*s	uncertainty
0.5	0.5	293.15	0.001309	1.2e-05
0.5	0.5	303.15	0.001035	9e-06
0.5	0.5	313.15	0.000843	8e-06
0.5	1	293.15	0.001368	1.2e-05
0.5	1	303.15	0.001085	1e-05
0.5	1	313.15	0.000886	8e-06
0.5	1.5	293.15	0.001433	1.3e-05
0.5	1.5	303.15	0.001139	1e-05
0.5	1.5	313.15	0.000932	9e-06
0.5	2	293.15	0.001506	1.3e-05
0.5	2	303.15	0.001199	1.1e-05
0.5	2	313.15	0.00098	9e-06
0.5	2.5	293.15	0.001589	1.4e-05
0.5	2.5	303.15	0.001264	1.1e-05
0.5	2.5	313.15	0.001036	9e-06
0.5	3	293.15	0.001681	1.5e-05
0.5	3	303.15	0.001336	1.2e-05
0.5	3	313.15	0.001093	1e-05
0.5	3.5	293.15	0.00178	1.5e-05
0.5	3.5	303.15	0.001414	1.3e-05
0.5	3.5	313.15	0.001155	1e-05
0.5	4	293.15	0.001891	1.6e-05
0.5	4	303.15	0.001498	1.3e-05
0.5	4	313.15	0.001221	1.1e-05
1	0.5	293.15	0.001653	1.5e-05
1	0.5	303.15	0.001287	1.2e-05
1	0.5	313.15	0.001044	1e-05
1	1	293.15	0.001727	1.6e-05
1	1	303.15	0.001349	1.3e-05
1	1	313.15	0.001087	1e-05
1	1.5	293.15	0.00181	1.7e-05
1	1.5	303.15	0.001417	1.3e-05
1	1.5	313.15	0.001143	1e-05
1	2	293.15	0.001903	1.8e-05
1	2	303.15	0.001489	1.4e-05
1	2	313.15	0.001203	1.1e-05
1	2.5	293.15	0.002006	1.9e-05
1	2.5	303.15	0.00157	1.4e-05
1	2.5	313.15	0.001266	1.1e-05
1	3	293.15	0.00212	2e-05
1	3	303.15	0.001658	1.6e-05
1	3	313.15	0.001336	1.2e-05
1	3.5	293.15	0.002248	2.1e-05
1	3.5	303.15	0.001754	1.7e-05
1	3.5	313.15	0.001413	1.3e-05
1	4	293.15	0.002385	2.2e-05
1	4	303.15	0.001854	1.7e-05
1	4	313.15	0.001494	1.3e-05
1.2	1.2	298.15	0.001701	1.5e-05
1.2	1.2	303.15	0.001506	1.4e-05
1.2	1.2	308.15	0.001345	1.2e-05
1.2	2.2	298.15	0.001879	1.7e-05
1.2	2.2	303.15	0.001664	1.5e-05
1.2	2.2	308.15	0.001486	1.3e-05
1.2	3.2	298.15	0.002094	1.9e-05
1.2	3.2	303.15	0.001853	1.7e-05
1.2	3.2	308.15	0.001653	1.5e-05
1.2	3.8	298.15	0.002244	2e-05
1.2	3.8	303.15	0.001982	1.8e-05
1.2	3.8	308.15	0.001767	1.6e-05
1.5	0.5	293.15	0.002083	1.9e-05
1.5	0.5	303.15	0.001598	1.5e-05
1.5	0.5	313.15	0.001267	1.2e-05
1.5	1	293.15	0.002177	1.9e-05
1.5	1	303.15	0.001674	1.7e-05
1.5	1	313.15	0.001329	1.2e-05
1.5	1.5	293.15	0.002287	1.9e-05
1.5	1.5	303.15	0.00176	1.7e-05
1.5	1.5	313.15	0.0014	1.2e-05
1.5	2	293.15	0.002405	2.1e-05
1.5	2	303.15	0.001852	1.9e-05
1.5	2	313.15	0.001473	1.3e-05
1.5	2.5	293.15	0.002538	2.1e-05
1.5	2.5	303.15	0.001952	1.9e-05
1.5	2.5	313.15	0.001553	1.3e-05
1.5	3	293.15	0.002676	2.3e-05
1.5	3	303.15	0.002055	2.1e-05
1.5	3	313.15	0.001632	1.4e-05
1.5	3.5	293.15	0.002848	2.4e-05
1.5	3.5	303.15	0.002177	1.9e-05
1.5	3.5	313.15	0.001727	1.5e-05
1.5	4	293.15	0.003029	2.6e-05
1.5	4	303.15	0.002315	2.2e-05
1.5	4	313.15	0.001825	1.6e-05
1.8	1.2	298.15	0.002226	2.2e-05
1.8	1.2	303.15	0.001951	1.8e-05
1.8	1.2	308.15	0.001727	1.5e-05
1.8	2.2	298.15	0.002453	2.3e-05
1.8	2.2	303.15	0.002151	1.9e-05
1.8	2.2	308.15	0.001902	1.7e-05
1.8	3.2	298.15	0.002732	2.6e-05
1.8	3.2	303.15	0.002393	2.2e-05
1.8	3.2	308.15	0.002115	1.8e-05
1.8	3.8	298.15	0.002926	2.8e-05
1.8	3.8	303.15	0.002558	2.3e-05
1.8	3.8	308.15	0.002258	1.9e-05
2	0.5	293.15	0.00263	2.4e-05
2	0.5	303.15	0.001985	1.8e-05
2	0.5	313.15	0.001554	1.4e-05
2	1	293.15	0.002751	2.5e-05
2	1	303.15	0.00208	1.9e-05
2	1	313.15	0.00163	1.4e-05
2	1.5	293.15	0.002887	2.5e-05
2	1.5	303.15	0.002184	1.9e-05
2	1.5	313.15	0.001712	1.5e-05
2	2	293.15	0.003031	2.7e-05
2	2	303.15	0.002293	2.1e-05
2	2	313.15	0.001799	1.6e-05
2	2.5	293.15	0.003194	2.8e-05
2	2.5	303.15	0.002414	2.1e-05
2	2.5	313.15	0.001891	1.6e-05
2	3	293.15	0.003378	3e-05
2	3	303.15	0.002548	2.3e-05
2	3	313.15	0.001993	1.7e-05
2	3.5	293.15	0.003572	3.1e-05
2	3.5	303.15	0.002688	2.4e-05
2	3.5	313.15	0.002098	1.8e-05
2	4	293.15	0.003788	3.3e-05
2	4	303.15	0.002842	2.5e-05
2	4	313.15	0.002214	1.9e-05
2.5	0.5	293.15	0.003314	3e-05
2.5	0.5	303.15	0.002462	2.3e-05
2.5	0.5	313.15	0.001905	1.8e-05
2.5	1	293.15	0.003466	3.4e-05
2.5	1	303.15	0.002575	2.6e-05
2.5	1	313.15	0.001989	1.9e-05
2.5	1.5	293.15	0.003622	3.6e-05
2.5	1.5	303.15	0.002693	2.5e-05
2.5	1.5	313.15	0.002083	1.9e-05
2.5	2	293.15	0.003809	3.8e-05
2.5	2	303.15	0.002829	2.8e-05
2.5	2	313.15	0.002187	2.1e-05
2.5	2.5	293.15	0.004011	3.9e-05
2.5	2.5	303.15	0.002975	2.8e-05
2.5	2.5	313.15	0.0023	2.1e-05
2.5	3	293.15	0.004234	4.2e-05
2.5	3	303.15	0.003135	3.2e-05
2.5	3	313.15	0.002418	2.3e-05
2.5	3.5	293.15	0.004481	4.4e-05
2.5	3.5	303.15	0.003308	3.4e-05
2.5	3.5	313.15	0.002541	2.4e-05
2.5	4	293.15	0.004757	4.7e-05
2.5	4	303.15	0.003496	3.4e-05
2.5	4	313.15	0.00268	2.5e-05
2.7	1.2	298.15	0.003296	3.2e-05
2.7	1.2	303.15	0.002843	2.7e-05
2.7	1.2	308.15	0.002482	2.2e-05
2.7	2.2	298.15	0.00363	3.5e-05
2.7	2.2	303.15	0.003135	2.9e-05
2.7	2.2	308.15	0.002734	2.5e-05
2.7	3.2	298.15	0.004051	3.8e-05
2.7	3.2	303.15	0.00349	3.3e-05
2.7	3.2	308.15	0.003036	2.8e-05
2.7	3.8	298.15	0.004314	4.2e-05
2.7	3.8	303.15	0.003711	3.5e-05
2.7	3.8	308.15	0.003229	2.9e-05
3	0.5	293.15	0.00414	3.8e-05
3	0.5	303.15	0.003021	2.9e-05
3	0.5	313.15	0.002296	2.2e-05
3	1	293.15	0.004328	4.4e-05
3	1	303.15	0.003159	3.3e-05
3	1	313.15	0.002405	2.3e-05
3	1.5	293.15	0.004538	4.5e-05
3	1.5	303.15	0.003312	3.3e-05
3	1.5	313.15	0.002521	2.4e-05
3	2	293.15	0.004773	4.8e-05
3	2	303.15	0.003479	3.6e-05
3	2	313.15	0.002648	2.6e-05
3	2.5	293.15	0.005023	5e-05
3	2.5	303.15	0.003656	3.7e-05
3	2.5	313.15	0.002779	2.6e-05
3	3	293.15	0.005303	5.4e-05
3	3	303.15	0.00385	4e-05
3	3	313.15	0.002923	2.8e-05
3	3.5	293.15	0.005616	5.5e-05
3	3.5	303.15	0.004065	4.1e-05
3	3.5	313.15	0.003077	2.9e-05
3	4	293.15	0.005956	5.9e-05
3	4	303.15	0.004297	4.4e-05
3	4	313.15	0.00324	3.1e-05
3.2	1.2	298.15	0.00408	3.8e-05
3.2	1.2	303.15	0.003492	3.3e-05
3.2	1.2	308.15	0.003027	2.9e-05
3.2	2.2	298.15	0.004499	4.2e-05
3.2	2.2	303.15	0.003849	3.7e-05
3.2	2.2	308.15	0.00333	3.2e-05
3.2	3.2	298.15	0.004997	4.7e-05
3.2	3.2	303.15	0.004258	4.1e-05
3.2	3.2	308.15	0.003677	3.5e-05
3.2	3.8	298.15	0.005341	4.9e-05
3.2	3.8	303.15	0.004549	4.3e-05
3.2	3.8	308.15	0.003923	3.8e-05
3.5	0.5	293.15	0.005159	4.8e-05
3.5	0.5	303.15	0.003693	3.6e-05
3.5	0.5	313.15	0.002769	2.7e-05
3.5	1	293.15	0.005401	4.9e-05
3.5	1	303.15	0.003868	3.4e-05
3.5	1	313.15	0.002898	2.6e-05
3.5	1.5	293.15	0.005664	4.9e-05
3.5	1.5	303.15	0.004052	3.5e-05
3.5	1.5	313.15	0.003035	2.7e-05
3.5	2	293.15	0.005953	5.3e-05
3.5	2	303.15	0.004255	3.7e-05
3.5	2	313.15	0.003183	2.9e-05
3.5	2.5	293.15	0.006274	5.3e-05
3.5	2.5	303.15	0.004475	3.8e-05
3.5	2.5	313.15	0.003342	3e-05
3.5	3	293.15	0.006624	5.9e-05
3.5	3	303.15	0.004709	4.2e-05
3.5	3	313.15	0.00351	3.2e-05
3.5	3.5	293.15	0.006994	5.9e-05
3.5	3.5	303.15	0.004959	4.7e-05
3.5	3.5	313.15	0.003688	3.3e-05
3.5	4	293.15	0.007418	6.3e-05
3.5	4	303.15	0.005236	4.5e-05
3.5	4	313.15	0.003888	3.5e-05
4	0.5	293.15	0.006421	5.8e-05
4	0.5	303.15	0.004526	4.5e-05
4	0.5	313.15	0.003336	3.4e-05
4	1	293.15	0.006727	6.1e-05
4	1	303.15	0.00473	4.7e-05
4	1	313.15	0.0035	3.6e-05
4	1.5	293.15	0.007055	6.3e-05
4	1.5	303.15	0.004956	4.9e-05
4	1.5	313.15	0.003657	3.7e-05
4	2	293.15	0.007414	6.6e-05
4	2	303.15	0.005203	5.2e-05
4	2	313.15	0.003832	3.9e-05
4	2.5	293.15	0.007807	7e-05
4	2.5	303.15	0.005466	5.4e-05
4	2.5	313.15	0.004026	4.1e-05
4	3	293.15	0.008237	7.3e-05
4	3	303.15	0.005744	5.7e-05
4	3	313.15	0.004218	4.3e-05
4	3.5	293.15	0.008719	7.7e-05
4	3.5	303.15	0.006071	6e-05
4	3.5	313.15	0.004437	4.6e-05
4	4	293.15	0.009235	8.2e-05
4	4	303.15	0.006404	6.4e-05
4	4	313.15	0.004669	4.9e-05

System: D-glucose + sodium chloride + water; phases: Liquid
Fixed: Pressure, kPa = 101.3
Property: Mass density, kg/m3 (Liquid); method: Vibrating tube method
Molality, mol/kg of D-glucose	Molality, mol/kg of sodium chloride	Temperature, K	Mass density, kg/m3	uncertainty
0.5	0.5	293.15	1049.2	0.2
0.5	0.5	303.15	1045.9	0.2
0.5	0.5	313.15	1041.9	0.2
0.5	1	293.15	1066.9	0.2
0.5	1	303.15	1063.3	0.2
0.5	1	313.15	1059	0.2
0.5	1.5	293.15	1084	0.2
0.5	1.5	303.15	1080	0.2
0.5	1.5	313.15	1075.6	0.2
0.5	2	293.15	1100.2	0.3
0.5	2	303.15	1096	0.3
0.5	2	313.15	1091.4	0.3
0.5	2.5	293.15	1116.2	0.3
0.5	2.5	303.15	1111.8	0.3
0.5	2.5	313.15	1107	0.3
0.5	3	293.15	1131.4	0.3
0.5	3	303.15	1126.8	0.3
0.5	3	313.15	1121.9	0.3
0.5	3.5	293.15	1146.2	0.3
0.5	3.5	303.15	1141.4	0.3
0.5	3.5	313.15	1136.4	0.3
0.5	4	293.15	1160.6	0.3
0.5	4	303.15	1155.7	0.3
0.5	4	313.15	1150.5	0.3
1	0.5	293.15	1076.6	0.2
1	0.5	303.15	1073	0.2
1	0.5	313.15	1068.8	0.2
1	1	293.15	1093	0.3
1	1	303.15	1089.1	0.3
1	1	313.15	1084.7	0.3
1	1.5	293.15	1108.7	0.3
1	1.5	303.15	1104.6	0.3
1	1.5	313.15	1099.9	0.3
1	2	293.15	1123.9	0.3
1	2	303.15	1119.5	0.3
1	2	313.15	1114.8	0.3
1	2.5	293.15	1138.4	0.3
1	2.5	303.15	1133.9	0.3
1	2.5	313.15	1128.9	0.3
1	3	293.15	1152.7	0.3
1	3	303.15	1148	0.3
1	3	313.15	1142.9	0.3
1	3.5	293.15	1166.4	0.3
1	3.5	303.15	1161.5	0.3
1	3.5	313.15	1156.4	0.3
1	4	293.15	1179.7	0.3
1	4	303.15	1174.7	0.3
1	4	313.15	1169.4	0.3
1.2	1.2	298.15	1106.7	0.3
1.2	1.2	303.15	1104.6	0.3
1.2	1.2	308.15	1102.4	0.3
1.2	2.2	298.15	1135.9	0.3
1.2	2.2	303.15	1133.6	0.3
1.2	2.2	308.15	1131.3	0.3
1.2	3.2	298.15	1163.5	0.3
1.2	3.2	303.15	1161	0.3
1.2	3.2	308.15	1158.5	0.3
1.2	3.8	298.15	1179.1	0.3
1.2	3.8	303.15	1176.6	0.3
1.2	3.8	308.15	1174	0.3
1.5	0.5	293.15	1101.2	0.3
1.5	0.5	303.15	1097.3	0.3
1.5	0.5	313.15	1092.8	0.3
1.5	1	293.15	1116.2	0.3
1.5	1	303.15	1112.2	0.3
1.5	1	313.15	1107.4	0.3
1.5	1.5	293.15	1131.4	0.3
1.5	1.5	303.15	1127.1	0.3
1.5	1.5	313.15	1122.3	0.3
1.5	2	293.15	1144.8	0.3
1.5	2	303.15	1140.3	0.3
1.5	2	313.15	1135.4	0.3
1.5	2.5	293.15	1158.4	0.3
1.5	2.5	303.15	1153.8	0.3
1.5	2.5	313.15	1148.8	0.3
1.5	3	293.15	1171.1	0.3
1.5	3	303.15	1166.3	0.3
1.5	3	313.15	1161.2	0.3
1.5	3.5	293.15	1184.4	0.3
1.5	3.5	303.15	1179.4	0.3
1.5	3.5	313.15	1174.2	0.3
1.5	4	293.15	1196.8	0.3
1.5	4	303.15	1191.7	0.3
1.5	4	313.15	1186.4	0.3
1.8	1.2	298.15	1133.1	0.3
1.8	1.2	303.15	1130.9	0.3
1.8	1.2	308.15	1128.5	0.3
1.8	2.2	298.15	1159.4	0.3
1.8	2.2	303.15	1157.1	0.3
1.8	2.2	308.15	1154.6	0.3
1.8	3.2	298.15	1184.8	0.3
1.8	3.2	303.15	1182.3	0.3
1.8	3.2	308.15	1179.7	0.3
1.8	3.8	298.15	1199.3	0.3
1.8	3.8	303.15	1196.8	0.3
1.8	3.8	308.15	1194.1	0.3
2	0.5	293.15	1123.3	0.3
2	0.5	303.15	1119.2	0.3
2	0.5	313.15	1114.4	0.3
2	1	293.15	1137.3	0.3
2	1	303.15	1133	0.3
2	1	313.15	1128.2	0.3
2	1.5	293.15	1150.9	0.3
2	1.5	303.15	1146.5	0.3
2	1.5	313.15	1141.6	0.3
2	2	293.15	1163.9	0.3
2	2	303.15	1159.3	0.3
2	2	313.15	1154.3	0.3
2	2.5	293.15	1176.6	0.3
2	2.5	303.15	1171.8	0.3
2	2.5	313.15	1166.7	0.3
2	3	293.15	1189	0.3
2	3	303.15	1184.1	0.3
2	3	313.15	1178.9	0.3
2	3.5	293.15	1200.9	0.3
2	3.5	303.15	1195.8	0.3
2	3.5	313.15	1190.6	0.3
2	4	293.15	1212.4	0.3
2	4	303.15	1207.3	0.3
2	4	313.15	1201.9	0.3
2.5	0.5	293.15	1143.3	0.3
2.5	0.5	303.15	1139.1	0.3
2.5	0.5	313.15	1134.3	0.3
2.5	1	293.15	1156.4	0.3
2.5	1	303.15	1152	0.3
2.5	1	313.15	1147.2	0.3
2.5	1.5	293.15	1169	0.3
2.5	1.5	303.15	1164.4	0.3
2.5	1.5	313.15	1159.4	0.3
2.5	2	293.15	1181.2	0.3
2.5	2	303.15	1176.5	0.3
2.5	2	313.15	1171.4	0.3
2.5	2.5	293.15	1193.1	0.3
2.5	2.5	303.15	1188.2	0.3
2.5	2.5	313.15	1183.1	0.3
2.5	3	293.15	1204.6	0.3
2.5	3	303.15	1199.6	0.3
2.5	3	313.15	1194.4	0.3
2.5	3.5	293.15	1215.8	0.3
2.5	3.5	303.15	1210.7	0.3
2.5	3.5	313.15	1205.4	0.3
2.5	4	293.15	1226.8	0.3
2.5	4	303.15	1221.6	0.3
2.5	4	313.15	1216.2	0.3
2.7	1.2	298.15	1166.3	0.3
2.7	1.2	303.15	1164	0.3
2.7	1.2	308.15	1161.6	0.3
2.7	2.2	298.15	1190.1	0.3
2.7	2.2	303.15	1187.6	0.3
2.7	2.2	308.15	1185.1	0.3
2.7	3.2	298.15	1212.5	0.3
2.7	3.2	303.15	1209.9	0.3
2.7	3.2	308.15	1207.3	0.3
2.7	3.8	298.15	1225.3	0.3
2.7	3.8	303.15	1222.7	0.3
2.7	3.8	308.15	1220	0.3
3	0.5	293.15	1161.6	0.3
3	0.5	303.15	1157.2	0.3
3	0.5	313.15	1152.4	0.3
3	1	293.15	1173.8	0.3
3	1	303.15	1169.3	0.3
3	1	313.15	1164.3	0.3
3	1.5	293.15	1185.7	0.3
3	1.5	303.15	1181	0.3
3	1.5	313.15	1175.9	0.3
3	2	293.15	1197.1	0.3
3	2	303.15	1192.3	0.3
3	2	313.15	1187.2	0.3
3	2.5	293.15	1208.2	0.3
3	2.5	303.15	1203.2	0.3
3	2.5	313.15	1198	0.3
3	3	293.15	1219	0.3
3	3	303.15	1214	0.3
3	3	313.15	1208.7	0.3
3	3.5	293.15	1229.6	0.3
3	3.5	303.15	1224.5	0.3
3	3.5	313.15	1219.1	0.3
3	4	293.15	1239.9	0.3
3	4	303.15	1234.7	0.3
3	4	313.15	1229.2	0.3
3.2	1.2	298.15	1182.6	0.3
3.2	1.2	303.15	1180.2	0.3
3.2	1.2	308.15	1177.7	0.3
3.2	2.2	298.15	1205	0.3
3.2	2.2	303.15	1202.5	0.3
3.2	2.2	308.15	1199.9	0.3
3.2	3.2	298.15	1226	0.3
3.2	3.2	303.15	1223.4	0.3
3.2	3.2	308.15	1220.8	0.3
3.2	3.8	298.15	1238.2	0.3
3.2	3.8	303.15	1235.5	0.3
3.2	3.8	308.15	1232.8	0.3
3.5	0.5	293.15	1178.1	0.3
3.5	0.5	303.15	1173.6	0.3
3.5	0.5	313.15	1168.7	0.3
3.5	1	293.15	1189.7	0.3
3.5	1	303.15	1185	0.3
3.5	1	313.15	1180	0.3
3.5	1.5	293.15	1200.7	0.3
3.5	1.5	303.15	1195.9	0.3
3.5	1.5	313.15	1190.8	0.3
3.5	2	293.15	1211.6	0.3
3.5	2	303.15	1206.7	0.3
3.5	2	313.15	1201.5	0.3
3.5	2.5	293.15	1221.9	0.3
3.5	2.5	303.15	1216.9	0.3
3.5	2.5	313.15	1211.6	0.3
3.5	3	293.15	1232.2	0.3
3.5	3	303.15	1227.1	0.3
3.5	3	313.15	1221.8	0.3
3.5	3.5	293.15	1242.1	0.3
3.5	3.5	303.15	1236.9	0.3
3.5	3.5	313.15	1231.5	0.3
3.5	4	293.15	1251.8	0.3
3.5	4	303.15	1246.5	0.3
3.5	4	313.15	1241.1	0.3
4	0.5	293.15	1193.3	0.3
4	0.5	303.15	1188.7	0.3
4	0.5	313.15	1183.6	0.3
4	1	293.15	1204.1	0.3
4	1	303.15	1199.4	0.3
4	1	313.15	1194.1	0.3
4	1.5	293.15	1214.6	0.3
4	1.5	303.15	1209.8	0.3
4	1.5	313.15	1204.6	0.3
4	2	293.15	1224.7	0.3
4	2	303.15	1219.7	0.3
4	2	313.15	1214.5	0.3
4	2.5	293.15	1234.6	0.3
4	2.5	303.15	1229.5	0.3
4	2.5	313.15	1224.2	0.3
4	3	293.15	1244.2	0.3
4	3	303.15	1239.1	0.3
4	3	313.15	1233.7	0.3
4	3.5	293.15	1253.7	0.3
4	3.5	303.15	1248.5	0.3
4	3.5	313.15	1243	0.3
4	4	293.15	1262.9	0.3
4	4	303.15	1257.6	0.3
4	4	313.15	1252.1	0.3
