Measured thermophysical data. Solubility of Organic Biocides in Supercritical CO2 and CO2 + Cosolvent Mixtures
Source: J. Chem. Eng. Data, 2003, 10.1021/je0255473
Compound 1: tebuconazole, C16H22ClN3O, InChI=1S/C16H22ClN3O/c1-15(2,3)16(21,10-20-12-18-11-19-20)9-8-13-4-6-14(17)7-5-13/h4-7,11-12,21H,8-10H2,1-3H3, purity 95%
Compound 2: diiodomethyl p-tolyl sulfone, C8H8I2O2S, InChI=1S/C8H8I2O2S/c1-6-2-4-7(5-3-6)13(11,12)8(9)10/h2-5,8H,1H3, purity 96%
Compound 3: thiocyanic acid, (2-benzothiazolylthio)methyl ester, C9H6N2S3, InChI=1S/C9H6N2S3/c10-5-12-6-13-9-11-7-3-1-2-4-8(7)14-9/h1-4H,6H2, purity 99%
Compound 4: 2,4,5,6-tetrachloro-1,3-benzenedicarbonitrile, C8Cl4N2, InChI=1S/C8Cl4N2/c9-5-3(1-13)6(10)8(12)7(11)4(5)2-14, purity 95%
Compound 5: carbon dioxide, CO2, InChI=1S/CO2/c2-1-3

System: carbon dioxide + tebuconazole; phases: Fluid (supercritical or subcritical phases), Crystal
Property: Mole fraction of tebuconazole (Fluid (supercritical or subcritical phases)); method: Chromatography
Temperature, K	Pressure, kPa	Mole fraction of tebuconazole	uncertainty
323.15	10000	6.3e-06	1.4e-06
323.15	11000	1.34e-05	3.2e-06
323.15	12500	4.78e-05	1.03e-05
323.15	15000	0.000165	3.32e-05
323.15	20000	0.0003343	6.69e-05
323.15	30000	0.0006421	0.0001287
338.15	10000	3.5e-06	7e-07
338.15	11000	5.7e-06	1.3e-06
338.15	12500	1.8e-05	4.1e-06
338.15	15000	8.08e-05	1.74e-05
338.15	20000	0.0004838	9.75e-05
338.15	30000	0.0018571	0.0003718

System: carbon dioxide + diiodomethyl p-tolyl sulfone; phases: Fluid (supercritical or subcritical phases), Crystal
Property: Mole fraction of diiodomethyl p-tolyl sulfone (Fluid (supercritical or subcritical phases)); method: Chromatography
Temperature, K	Pressure, kPa	Mole fraction of diiodomethyl p-tolyl sulfone	uncertainty
318.15	10000	1.22e-05	2.5e-06
318.15	17000	3.8e-05	7.6e-06
318.15	20000	3.9e-05	7.8e-06
318.15	22500	5.81e-05	1.16e-05
318.15	25000	6.2e-05	1.24e-05
318.15	30000	7.26e-05	1.45e-05
328.15	20000	6.38e-05	1.28e-05
328.15	22500	7.07e-05	1.42e-05
328.15	25000	8.98e-05	1.8e-05
328.15	30000	8.66e-05	1.73e-05
338.15	10000	6.3e-06	1.5e-06
338.15	12500	2.43e-05	4.9e-06
338.15	15000	3.67e-05	7.4e-06
338.15	17000	5.6e-05	1.12e-05
338.15	20000	8.45e-05	1.69e-05
338.15	22500	8.29e-05	1.66e-05
338.15	25000	9.63e-05	1.93e-05
338.15	30000	0.000115	2.3e-05

System: carbon dioxide + thiocyanic acid, (2-benzothiazolylthio)methyl ester; phases: Fluid (supercritical or subcritical phases), Liquid
Property: Mole fraction of thiocyanic acid, (2-benzothiazolylthio)methyl ester (Fluid (supercritical or subcritical phases)); method: Chromatography
Temperature, K	Pressure, kPa	Mole fraction of thiocyanic acid, (2-benzothiazolylthio)methyl ester	uncertainty
323.15	10000	8e-06	3e-06
323.15	11000	3.8e-05	9e-06
323.15	12500	0.000107	2.2e-05
323.15	15000	0.000256	5.2e-05
323.15	20000	0.00059	0.000118
323.15	30000	0.001115	0.000223
338.15	10000	2e-06	1e-06
338.15	11000	6e-06	2e-06
338.15	12500	2.3e-05	5e-06
338.15	15000	0.000111	2.4e-05
338.15	20000	0.000621	0.000125
338.15	30000	0.001396	0.000279

System: carbon dioxide + 2,4,5,6-tetrachloro-1,3-benzenedicarbonitrile; phases: Fluid (supercritical or subcritical phases), Crystal
Property: Mole fraction of 2,4,5,6-tetrachloro-1,3-benzenedicarbonitrile (Fluid (supercritical or subcritical phases)); method: Chromatography
Temperature, K	Pressure, kPa	Mole fraction of 2,4,5,6-tetrachloro-1,3-benzenedicarbonitrile	uncertainty
318.15	10000	1.32e-05	2.7e-06
318.15	15000	4.81e-05	9.7e-06
318.15	17000	8.49e-05	1.71e-05
318.15	20000	0.000132	2.6e-05
318.15	22500	0.000121	2.4e-05
318.15	25000	0.000132	2.6e-05
318.15	30000	0.000156	3.1e-05
328.15	10000	5.3e-06	1.9e-06
328.15	12500	4.62e-05	9.3e-06
328.15	15000	6.09e-05	1.22e-05
328.15	17000	7.99e-05	1.6e-05
328.15	20000	9.93e-05	1.99e-05
328.15	22500	0.000122	2.4e-05
328.15	25000	0.000141	2.8e-05
328.15	30000	0.00018	3.6e-05
338.15	10000	6.4e-06	1.3e-06
338.15	12500	1.06e-05	2.2e-06
338.15	15000	2.17e-05	4.5e-06
338.15	17000	5.43e-05	1.11e-05
338.15	20000	0.000137	2.7e-05
338.15	22500	0.000154	3.1e-05
338.15	25000	0.000192	3.8e-05
