Measured thermophysical data. Solubilities of C.I. Disperse Orange 25 and C.I. Disperse Blue 354 in Supercritical Carbon Dioxide
Source: J. Chem. Eng. Data, 2003, 10.1021/je0256131
Compound 1: ([2-[[4-(dihexylamino)-2-methylphenyl]methylene]-1,1-dioxidobenzo[b]thien-3(2H)-ylidene]propanedinitrile), C31H37N3O2S, InChI=1S/C31H37N3O2S/c1-4-6-8-12-18-34(19-13-9-7-5-2)27-17-16-25(24(3)20-27)21-30-31(26(22-32)23-33)28-14-10-11-15-29(28)37(30,35)36/h10-11,14-17,20-21H,4-9,12-13,18-19H2,1-3H3/b30-21-, purity 96%
Compound 2: propanenitrile, 3-[ethyl[4-[(4-nitrophenyl)azo]phenyl]amino]-, C17H17N5O2, InChI=1S/C17H17N5O2/c1-2-21(13-3-12-18)16-8-4-14(5-9-16)19-20-15-6-10-17(11-7-15)22(23)24/h4-11H,2-3,13H2,1H3, purity 96%
Compound 3: carbon dioxide, CO2, InChI=1S/CO2/c2-1-3

System: carbon dioxide + ([2-[[4-(dihexylamino)-2-methylphenyl]methylene]-1,1-dioxidobenzo[b]thien-3(2H)-ylidene]propanedinitrile); phases: Fluid (supercritical or subcritical phases), Crystal
Property: Mole fraction of ([2-[[4-(dihexylamino)-2-methylphenyl]methylene]-1,1-dioxidobenzo[b]thien-3(2H)-ylidene]propanedinitrile) (Fluid (supercritical or subcritical phases)); method: OTHER
Temperature, K	Pressure, kPa	Mole fraction of ([2-[[4-(dihexylamino)-2-methylphenyl]methylene]-1,1-dioxidobenzo[b]thien-3(2H)-ylidene]propanedinitrile)	uncertainty
323.15	10000	1.283e-08	1.283e-08
323.15	12000	1.906e-07	5.26e-08
323.15	15000	6.597e-07	6.87e-08
323.15	20000	1.556e-06	8.2e-08
323.15	25000	2.705e-06	9.8e-08
323.15	30000	3.991e-06	1.07e-07
353.15	10000	1.956e-09	1.291e-09
353.15	12000	1.424e-08	1.424e-08
353.15	15000	1.873e-07	8.66e-08
353.15	20000	1.662e-06	1.67e-07
353.15	25000	4.36e-06	2.56e-07
353.15	30000	8.062e-06	4.31e-07
383.15	10000	8.57e-09	4.136e-09
383.15	12000	2.925e-08	1.39e-08
383.15	15000	1.762e-07	8.54e-08
383.15	20000	1.661e-06	2.5e-07
383.15	25000	6.413e-06	6.18e-07
383.15	30000	1.709e-05	8.6e-07

System: carbon dioxide + propanenitrile, 3-[ethyl[4-[(4-nitrophenyl)azo]phenyl]amino]-; phases: Fluid (supercritical or subcritical phases), Crystal
Property: Mole fraction of propanenitrile, 3-[ethyl[4-[(4-nitrophenyl)azo]phenyl]amino]- (Fluid (supercritical or subcritical phases)); method: OTHER
Temperature, K	Pressure, kPa	Mole fraction of propanenitrile, 3-[ethyl[4-[(4-nitrophenyl)azo]phenyl]amino]-	uncertainty
323.15	10000	2.126e-08	2.126e-08
323.15	12000	6.29e-07	2.582e-07
323.15	15000	3.162e-06	4.79e-07
323.15	20000	1.003e-05	5.9e-07
323.15	25000	1.777e-05	7.1e-07
323.15	30000	2.784e-05	8.2e-07
353.15	12000	1.083e-08	1.083e-08
353.15	15000	3.152e-07	2.753e-07
353.15	20000	5.282e-06	8.02e-07
353.15	25000	2.036e-05	1.57e-06
353.15	30000	4.448e-05	1.4e-06
383.15	12000	6.711e-09	6.711e-09
383.15	15000	7.895e-08	7.895e-08
383.15	20000	1.799e-06	5.01e-07
383.15	25000	1.261e-05	1.57e-06
383.15	30000	4.095e-05	2.27e-06
