Measured thermophysical data. Speed of Sound in Concentrated Aqueous KCl Solutions from 278.15 to 338.15 K
Source: J. Chem. Eng. Data, 2003, 10.1021/je025605k
Compound 1: potassium chloride, ClK, InChI=1S/ClH.K/h1H;/q;+1/p-1
Compound 2: water, H2O, InChI=1S/H2O/h1H2

System: potassium chloride + water; phases: Liquid
Fixed: Pressure, kPa = 101.3
Property: Speed of sound, m/s (Liquid); method: LVPAI:UFactor:4:dM1:0.0002
Temperature, K	Molality, mol/kg of potassium chloride	Speed of sound, m/s	uncertainty
278.15	0.0905	6.12	1.57
278.15	0.1623	10.84	1.59
278.15	0.3595	23.14	1.63
278.15	0.7294	44.79	1.69
278.15	1.1888	71.92	1.78
278.15	1.7806	102.01	1.88
278.15	2.375	131.86	1.97
278.15	3.0293	160.52	2.07
278.15	3.6081	184.26	2.15
278.15	4.0201	205.43	2.22
288.15	0.1058	6.4	1.57
288.15	0.3983	23.38	1.63
288.15	0.8585	48.59	1.71
288.15	1.2483	68.67	1.77
288.15	2.0058	104.18	1.89
288.15	2.9535	143.3	2.01
288.15	3.7878	172.34	2.11
288.15	4.0355	180.91	2.14
308.15	0.0858	4.4	1.57
308.15	0.3364	18.69	1.61
308.15	0.5275	27.39	1.64
308.15	0.9595	45.68	1.7
308.15	1.1122	52.41	1.72
308.15	2.0853	90.85	1.85
308.15	3.0499	121.95	1.95
308.15	4.0057	146.52	2.03
308.15	4.385	155.96	2.06
318.15	0.2619	12.32	1.59
318.15	0.4815	22.13	1.62
318.15	0.7813	35.13	1.66
318.15	1.0515	46.12	1.7
318.15	2.0101	82.43	1.82
318.15	3.0159	112.13	1.92
318.15	3.9958	135.42	1.99
318.15	4.1899	139.56	2.01
328.15	0.2525	11.17	1.59
328.15	0.5135	22.21	1.62
328.15	1.0222	42.88	1.69
328.15	2.0598	86.77	1.83
328.15	3.0055	112.21	1.92
328.15	3.7853	132.41	1.98
328.15	4.0211	138.73	2
328.15	4.1998	143.25	2.02
338.15	0.3015	12.76	1.59
338.15	0.6815	28.29	1.64
338.15	0.9989	41.11	1.68
338.15	1.9959	80.81	1.81
338.15	3.0085	117.48	1.93
338.15	4.0198	146.64	2.03
338.15	4.2795	153.33	2.05
