Measured thermophysical data. Vapor Pressures and Sublimation Enthalpy of Gadolinium Trichloride, Tribromide, and Triiodide and Terbium Trichloride, Tribromide, and Triiodide
Source: J. Chem. Eng. Data, 2003, 10.1021/je020189p
Compound 1: gadolinium(III) chloride, Cl3Gd, InChI=1S/3ClH.Gd/h3*1H;/q;;;+3/p-3, purity 99.9%
Compound 2: gadolinium bromide (GdBr3), Br3Gd, InChI=1S/3BrH.Gd/h3*1H;/q;;;+3/p-3, purity 99.9%
Compound 3: gadolinium triiodide, GdI3, InChI=1S/Gd.3HI/h;3*1H/q+3;;;/p-3, purity 99.9%
Compound 4: terbium trichloride, Cl3Tb, InChI=1S/3ClH.Tb/h3*1H;/q;;;+3/p-3, purity 99.9%
Compound 5: terbium tribromide, Br3Tb, InChI=1S/3BrH.Tb/h3*1H;/q;;;+3/p-3, purity 99.9%
Compound 6: terbium triiodide, I3Tb, InChI=1S/3HI.Tb/h3*1H;/q;;;+3/p-3, purity 99.9%

System: gadolinium(III) chloride; phases: Liquid, Gas
Property: Molar enthalpy of vaporization or sublimation, kJ/mol (Liquid); method: Derived by Second law
Temperature, K	Molar enthalpy of vaporization or sublimation, kJ/mol	uncertainty
1071	251	7

System: gadolinium(III) chloride; phases: Liquid, Gas
Property: Vapor or sublimation pressure, kPa (Liquid); method: OTHER:dPV:30%
Temperature, K	Vapor or sublimation pressure, kPa	uncertainty
930	3.31e-05	1.01e-05
952	6.76e-05	2.05e-05
957	8.32e-05	2.5e-05
958	6.31e-05	1.89e-05
965	7.76e-05	2.39e-05
970	0.000129	3.9e-05
973	9.77e-05	2.94e-05
983	0.000141	4.3e-05
983	0.000178	5.4e-05
994	0.000195	5.9e-05
996	0.000224	6.8e-05
1002	0.000324	9.7e-05
1004	0.000251	7.6e-05
1011	0.000331	0.0001
1015	0.000355	0.000109
1022	0.000562	0.000169
1023	0.000479	0.000145
1024	0.00049	0.000148
1042	0.000794	0.000244
1044	0.001	0.0003
1046	0.001	0.0003
1052	0.00102	0.00031
1054	0.00141	0.00042
1061	0.00135	0.00041
1062	0.00138	0.00041
1071	0.00174	0.00052
1076	0.00219	0.00066
1082	0.00234	0.0007
1086	0.00269	0.00081
1090	0.00275	0.00083
1091	0.00339	0.00102
1093	0.00302	0.00091
1099	0.00339	0.00103
1103	0.00437	0.00131
1107	0.00417	0.00126
1107	0.00417	0.00126
1113	0.00575	0.00173
1116	0.00513	0.00154
1117	0.00603	0.00181
1120	0.00589	0.00178
1120	0.00603	0.00182
1126	0.00759	0.00229
1126	0.00661	0.00199
1134	0.00871	0.00262
1135	0.00794	0.00239
1138	0.00977	0.00294
1144	0.01	0.003
1147	0.0129	0.0039
1151	0.0126	0.0038
1154	0.0132	0.004
1156	0.0158	0.0048
1165	0.0182	0.0055
1170	0.0219	0.0066
1177	0.024	0.0072
1187	0.0324	0.0097
1190	0.0316	0.0095
1203	0.0407	0.0122
1213	0.0501	0.0151

System: gadolinium bromide (GdBr3); phases: Liquid, Gas
Property: Molar enthalpy of vaporization or sublimation, kJ/mol (Liquid); method: Derived by Second law
Temperature, K	Molar enthalpy of vaporization or sublimation, kJ/mol	uncertainty
1119	242	9

System: gadolinium bromide (GdBr3); phases: Crystal, Gas
Property: Molar enthalpy of vaporization or sublimation, kJ/mol (Crystal); method: Derived by Second law
Temperature, K	Molar enthalpy of vaporization or sublimation, kJ/mol	uncertainty
976	275	6

System: gadolinium bromide (GdBr3); phases: Liquid, Gas
Property: Vapor or sublimation pressure, kPa (Liquid); method: OTHER:dPV:30%
Temperature, K	Vapor or sublimation pressure, kPa	uncertainty
1060	0.00646	0.00198
1067	0.00933	0.0028
1073	0.00851	0.00256
1074	0.00741	0.00223
1078	0.012	0.0036
1085	0.0117	0.0035
1087	0.0145	0.0044
1091	0.0115	0.0035
1096	0.0158	0.0048
1098	0.0191	0.0058
1099	0.0138	0.0042
1105	0.0204	0.0061
1108	0.0178	0.0054
1108	0.0234	0.007
1114	0.024	0.0072
1119	0.0229	0.0069
1119	0.0302	0.0091
1123	0.0282	0.0086
1128	0.0372	0.0112
1130	0.0302	0.0091
1138	0.0468	0.0141
1140	0.0427	0.0129
1140	0.038	0.0115
1148	0.0513	0.0154
1150	0.049	0.0147
1150	0.0617	0.0186
1155	0.0617	0.0185
1159	0.0589	0.0177
1161	0.0794	0.0238
1168	0.0708	0.0213
1169	0.0912	0.0274
1179	0.0912	0.0274

System: gadolinium bromide (GdBr3); phases: Crystal, Gas
Property: Vapor or sublimation pressure, kPa (Crystal); method: OTHER:dPV:30%
Temperature, K	Vapor or sublimation pressure, kPa	uncertainty
895	3.31e-05	9.9e-06
910	4.17e-05	1.26e-05
914	6.31e-05	1.96e-05
917	7.76e-05	2.34e-05
919	8.91e-05	2.7e-05
920	7.76e-05	2.36e-05
926	0.000112	3.4e-05
928	7.76e-05	2.37e-05
929	0.000105	3.2e-05
932	0.000138	4.2e-05
934	0.000135	4.1e-05
937	0.000166	5e-05
941	0.00017	5.1e-05
945	0.000155	4.7e-05
945	0.000204	6.2e-05
947	0.000234	7.1e-05
951	0.000251	7.5e-05
951	0.000141	4.3e-05
953	0.000324	9.7e-05
956	0.000282	8.5e-05
956	0.000302	9.1e-05
957	0.000331	0.0001
957	0.000224	6.9e-05
959	0.000324	0.000101
962	0.000447	0.000135
964	0.000398	0.000121
965	0.000389	0.000118
967	0.000468	0.000141
968	0.000324	9.9e-05
968	0.000282	8.6e-05
969	0.000468	0.000142
969	0.000575	0.000174
971	0.00049	0.000152
973	0.00055	0.000169
974	0.00055	0.000171
977	0.000759	0.00023
979	0.000468	0.000143
979	0.000676	0.000205
979	0.000427	0.000131
980	0.000759	0.000228
981	0.000708	0.000214
983	0.000794	0.000239
984	0.000562	0.000175
986	0.000891	0.000268
987	0.001	0.00031
988	0.000933	0.000286
989	0.000708	0.000215
990	0.00107	0.00032
990	0.000617	0.000186
990	0.00115	0.00035
993	0.0011	0.00033
994	0.0011	0.00033
996	0.00123	0.00037
997	0.00145	0.00044
999	0.00102	0.00031
999	0.00155	0.00047
1000	0.00138	0.00041
1001	0.00155	0.00047
1002	0.000912	0.000288
1003	0.00148	0.00045
1004	0.00158	0.00047
1006	0.00162	0.00049
1008	0.00141	0.00043
1008	0.002	0.00061
1011	0.00219	0.00068
1011	0.002	0.00062
1012	0.00195	0.00059
1014	0.00245	0.00074
1014	0.00219	0.00066
1014	0.00135	0.00041
1015	0.0017	0.00051
1015	0.00219	0.00066
1018	0.00191	0.00058
1018	0.00275	0.00083
1019	0.00251	0.00076
1020	0.00288	0.00087
1023	0.00219	0.00067
1023	0.00275	0.00084
1025	0.00302	0.00091
1025	0.00302	0.00091
1026	0.002	0.00065
1026	0.00347	0.00107
1029	0.00372	0.00113
1029	0.00275	0.00084
1030	0.00363	0.00112
1032	0.00295	0.00089
1032	0.00372	0.00112
1034	0.00398	0.0012
1035	0.00339	0.00105
1036	0.00468	0.00142
1041	0.00513	0.00154
1041	0.00316	0.00095
1043	0.00513	0.00155
1043	0.00513	0.00155
1045	0.00575	0.00173
1049	0.00661	0.00198
1049	0.00417	0.00125
1051	0.00661	0.00198
1051	0.00661	0.00198
1057	0.00525	0.00159
1057	0.00776	0.00234
1057	0.00832	0.00251

System: gadolinium triiodide; phases: Crystal, Gas
Property: Molar enthalpy of vaporization or sublimation, kJ/mol (Crystal); method: Derived by Second law
Temperature, K	Molar enthalpy of vaporization or sublimation, kJ/mol	uncertainty
951	261	6

System: gadolinium triiodide; phases: Crystal, Gas
Property: Vapor or sublimation pressure, kPa (Crystal); method: OTHER:dPV:30%
Temperature, K	Vapor or sublimation pressure, kPa	uncertainty
890	4.47e-05	1.36e-05
891	5.62e-05	1.69e-05
901	6.76e-05	2.04e-05
901	8.32e-05	2.51e-05
901	5.62e-05	1.69e-05
905	8.51e-05	2.59e-05
911	0.000112	3.4e-05
912	8.91e-05	2.68e-05
913	0.000112	3.4e-05
914	8.91e-05	2.7e-05
914	0.000138	4.2e-05
916	0.000112	3.4e-05
918	0.000135	4.2e-05
919	0.000155	4.8e-05
920	0.000112	3.4e-05
922	0.000178	5.4e-05
924	0.000123	3.8e-05
925	0.000178	5.4e-05
927	0.000174	5.3e-05
927	0.000151	4.6e-05
928	0.000145	4.4e-05
928	0.000195	5.9e-05
928	0.000209	6.3e-05
929	0.000234	7e-05
933	0.000191	5.8e-05
934	0.000269	8.1e-05
936	0.0002	6.2e-05
937	0.000282	8.5e-05
937	0.000251	7.6e-05
938	0.000324	9.8e-05
939	0.000295	9.2e-05
942	0.000347	0.000105
942	0.000269	8.2e-05
943	0.000245	7.5e-05
944	0.000355	0.000107
946	0.000398	0.00012
947	0.000389	0.000117
948	0.000372	0.000112
951	0.000331	0.0001
952	0.00049	0.000149
954	0.000417	0.000132
955	0.000525	0.000158
955	0.000603	0.000181
957	0.000575	0.000176
957	0.000457	0.000142
959	0.000447	0.000136
962	0.000708	0.000213
962	0.000708	0.000213
964	0.000794	0.000241
966	0.000575	0.000174
966	0.000794	0.00024
966	0.000631	0.000191
967	0.000724	0.000218
970	0.000912	0.00028
973	0.00107	0.00032
974	0.00102	0.00031
975	0.00107	0.00032
975	0.000891	0.000267
978	0.000832	0.000253
978	0.00107	0.00032
979	0.00126	0.00038
983	0.00135	0.00041
983	0.00115	0.00035
984	0.00145	0.00044
985	0.00158	0.00047
987	0.00162	0.00049
988	0.00115	0.00035
990	0.00155	0.00047
992	0.00174	0.00054
992	0.00141	0.00044
993	0.00191	0.00057
993	0.00204	0.00061
995	0.00214	0.00065
997	0.00138	0.00042
1002	0.00251	0.00076
1002	0.00219	0.00066
1002	0.00251	0.00076
1003	0.00269	0.00081
1006	0.00191	0.00058
1011	0.00331	0.001
1011	0.00282	0.00085
1012	0.00355	0.00107
1019	0.00339	0.00105
1021	0.00389	0.00117
1023	0.00676	0.00203
1026	0.00407	0.00125
1033	0.00871	0.00262
1033	0.00537	0.00162
1040	0.00603	0.00183
1042	0.00692	0.00209
1045	0.0126	0.0038
1052	0.00871	0.00263
1054	0.00977	0.00297
1055	0.017	0.0052
1064	0.0219	0.0066
1066	0.0135	0.0041
1066	0.0145	0.0044
1074	0.0302	0.0091
1076	0.0209	0.0063
1082	0.0214	0.0065
1083	0.0398	0.012
1086	0.0282	0.0086
1094	0.0537	0.0162
1097	0.0372	0.0114
1102	0.0676	0.0212

System: terbium trichloride; phases: Liquid, Gas
Property: Molar enthalpy of vaporization or sublimation, kJ/mol (Liquid); method: Derived by Second law
Temperature, K	Molar enthalpy of vaporization or sublimation, kJ/mol	uncertainty
1019	234	6

System: terbium trichloride; phases: Liquid, Gas
Property: Vapor or sublimation pressure, kPa (Liquid); method: OTHER:dPV:35%
Temperature, K	Vapor or sublimation pressure, kPa	uncertainty
921	6.76e-05	2.39e-05
931	0.0001	3.5e-05
937	0.000135	4.8e-05
942	0.000209	7.3e-05
943	0.00017	6e-05
946	0.000166	5.8e-05
950	0.000204	7.2e-05
953	0.000219	7.9e-05
957	0.000331	0.000116
957	0.000245	8.6e-05
961	0.000288	0.000101
965	0.000302	0.000108
967	0.000331	0.000118
971	0.000501	0.000176
971	0.000372	0.000131
975	0.000407	0.000143
976	0.000331	0.000116
979	0.000447	0.000158
979	0.000331	0.000119
980	0.000501	0.000177
984	0.000537	0.000192
988	0.000832	0.000291
990	0.000661	0.000232
992	0.000501	0.000182
994	0.000708	0.000248
994	0.000741	0.00026
995	0.000501	0.000182
998	0.000794	0.000282
999	0.00107	0.00038
999	0.000912	0.000323
1006	0.00105	0.00037
1006	0.000741	0.000262
1009	0.000741	0.000262
1010	0.00123	0.00043
1010	0.00115	0.0004
1011	0.00148	0.00052
1017	0.00132	0.00046
1017	0.00135	0.00047
1017	0.000912	0.000319
1017	0.001	0.00035
1020	0.00158	0.00056
1021	0.00191	0.00067
1024	0.00166	0.00059
1026	0.00178	0.00062
1027	0.00123	0.00045
1028	0.00123	0.00044
1029	0.00209	0.00074
1033	0.00257	0.0009
1034	0.00214	0.00075
1035	0.00148	0.00052
1037	0.00251	0.00088
1037	0.00158	0.00056
1038	0.00257	0.00091
1043	0.00263	0.00092
1043	0.00191	0.00067
1045	0.00355	0.00124
1047	0.00331	0.00117
1048	0.00209	0.00075
1053	0.00447	0.00158
1054	0.00355	0.00126
1054	0.00245	0.00088
1056	0.00372	0.00131
1057	0.00417	0.00148
1058	0.00263	0.00095
1059	0.00389	0.00139
1064	0.00575	0.00201
1065	0.00513	0.00181
1067	0.00372	0.00131
1071	0.00676	0.00239
1071	0.00372	0.00134
1072	0.00525	0.00186
1073	0.00525	0.00187
1075	0.00617	0.00219
1081	0.00851	0.00298
1082	0.00537	0.00189
1091	0.00851	0.00301
1092	0.0112	0.0039
1093	0.00708	0.00251
1102	0.0141	0.0049
1105	0.00912	0.00319
1117	0.0117	0.0041

System: terbium tribromide; phases: Crystal, Gas
Property: Molar enthalpy of vaporization or sublimation, kJ/mol (Crystal); method: Derived by Second law
Temperature, K	Molar enthalpy of vaporization or sublimation, kJ/mol	uncertainty
1006	268	6

System: terbium tribromide; phases: Crystal, Gas
Property: Vapor or sublimation pressure, kPa (Crystal); method: OTHER:dPV:30%
Temperature, K	Vapor or sublimation pressure, kPa	uncertainty
904	4.79e-05	1.44e-05
908	4.68e-05	1.41e-05
912	3.8e-05	1.2e-05
915	7.59e-05	2.34e-05
915	4.79e-05	1.56e-05
915	4.17e-05	1.39e-05
917	8.13e-05	2.52e-05
920	8.51e-05	2.58e-05
920	8.32e-05	2.52e-05
920	4.79e-05	1.49e-05
921	7.59e-05	2.3e-05
922	8.32e-05	2.5e-05
922	6.17e-05	1.86e-05
924	0.000105	3.2e-05
925	7.24e-05	2.18e-05
928	9.55e-05	2.97e-05
930	0.000132	4e-05
930	8.51e-05	2.57e-05
931	0.00012	3.6e-05
933	9.55e-05	2.87e-05
934	8.51e-05	2.55e-05
934	0.00012	3.6e-05
935	0.000151	4.5e-05
937	0.000123	4.2e-05
937	0.000138	4.6e-05
939	0.000151	4.5e-05
940	0.000209	6.3e-05
940	0.000182	5.5e-05
940	0.000166	5e-05
940	0.00012	3.6e-05
941	0.000115	3.6e-05
943	0.000141	4.2e-05
944	0.000209	6.5e-05
944	0.000186	5.8e-05
945	0.000186	5.9e-05
947	0.000214	6.4e-05
948	0.00024	7.3e-05
948	0.000141	4.5e-05
950	0.000182	5.6e-05
950	0.000166	5.1e-05
954	0.000295	9.1e-05
955	0.000191	6e-05
955	0.000269	8.3e-05
956	0.000229	7.1e-05
957	0.000331	0.0001
957	0.000229	7e-05
957	0.000275	8.3e-05
958	0.000331	0.0001
958	0.000288	8.7e-05
960	0.000363	0.000109
960	0.000316	9.5e-05
962	0.000275	8.3e-05
962	0.000372	0.000112
962	0.00024	7.2e-05
962	0.000347	0.000104
964	0.000288	8.7e-05
964	0.000389	0.000117
968	0.000295	8.9e-05
969	0.000363	0.000112
970	0.000501	0.000153
971	0.000355	0.000116
973	0.000537	0.000161
973	0.000501	0.00015
974	0.000575	0.000173
974	0.000355	0.000107
975	0.000427	0.000133
976	0.000501	0.000151
977	0.000427	0.00013
977	0.000575	0.000174
978	0.000617	0.000189
980	0.000427	0.000129
981	0.000661	0.0002
983	0.000537	0.000171
983	0.000741	0.000228
988	0.000871	0.000268
989	0.000832	0.000256
990	0.000912	0.000279
991	0.001	0.0003
992	0.00107	0.00032
993	0.00107	0.00032
993	0.001	0.0003
999	0.00115	0.00035
1000	0.00126	0.00038
1002	0.00132	0.0004
1003	0.00138	0.00042
1004	0.00148	0.00045
1004	0.00158	0.00048
1004	0.00129	0.00039
1007	0.00155	0.00047
1012	0.00174	0.00052
1014	0.00166	0.0005
1014	0.00209	0.00063
1015	0.002	0.00061
1015	0.00224	0.00068
1019	0.00257	0.00077
1020	0.00224	0.00067
1024	0.0024	0.00072
1025	0.00263	0.00079
1025	0.00295	0.00089
1030	0.00295	0.00089
1032	0.00295	0.00089
1035	0.00331	0.001
1035	0.00417	0.00126
1039	0.00398	0.00123
1042	0.00537	0.00162
1045	0.00468	0.00141
1047	0.00575	0.00173
1049	0.00575	0.00174
1051	0.00676	0.00203
1054	0.00646	0.00194
1058	0.00708	0.00214
1059	0.00851	0.00257
1059	0.00832	0.00251
1064	0.00912	0.00274
1067	0.01	0.003
1068	0.011	0.0033
1068	0.0115	0.0035
1071	0.0112	0.0034
1076	0.0141	0.0043
1076	0.0141	0.0043
1076	0.0129	0.0039
1078	0.0141	0.0043
1085	0.0182	0.0055
1088	0.0174	0.0052
1088	0.0158	0.0048
1099	0.0229	0.0069
1108	0.0288	0.0087

System: terbium triiodide; phases: Crystal, Gas
Property: Molar enthalpy of vaporization or sublimation, kJ/mol (Crystal); method: Derived by Second law
Temperature, K	Molar enthalpy of vaporization or sublimation, kJ/mol	uncertainty
970	265	6

System: terbium triiodide; phases: Crystal, Gas
Property: Vapor or sublimation pressure, kPa (Crystal); method: OTHER:dPV:30%
Temperature, K	Vapor or sublimation pressure, kPa	uncertainty
861	1.91e-05	5.8e-06
871	2.82e-05	8.5e-06
879	3.31e-05	1e-05
883	4.27e-05	1.29e-05
884	3.8e-05	1.15e-05
884	5.01e-05	1.51e-05
885	5.01e-05	1.51e-05
891	4.79e-05	1.45e-05
892	6.17e-05	1.86e-05
895	7.08e-05	2.18e-05
897	6.61e-05	2.03e-05
897	5.75e-05	1.78e-05
900	0.0001	3e-05
902	9.12e-05	2.8e-05
903	7.59e-05	2.32e-05
907	0.000126	3.9e-05
909	0.000115	3.5e-05
909	9.55e-05	2.92e-05
911	0.000151	4.5e-05
912	0.000132	4e-05
913	0.000123	3.8e-05
915	0.000115	3.5e-05
917	0.000174	5.2e-05
920	0.000141	4.3e-05
921	0.0002	6e-05
922	0.000186	5.6e-05
926	0.000209	6.3e-05
927	0.000182	5.5e-05
927	0.000251	7.6e-05
928	0.000251	7.5e-05
929	0.000229	6.9e-05
930	0.00024	7.2e-05
931	0.000209	6.3e-05
935	0.00024	7.4e-05
936	0.000339	0.000103
937	0.000347	0.000105
938	0.000316	0.000114
939	0.000339	0.000116
940	0.000339	0.000103
940	0.000282	8.6e-05
942	0.000676	0.000204
944	0.000447	0.000135
945	0.000479	0.000148
947	0.000407	0.000123
947	0.000363	0.00011
948	0.000468	0.000141
948	0.000427	0.000129
951	0.00055	0.00018
952	0.001	0.00031
953	0.000447	0.000135
953	0.000603	0.000182
955	0.000955	0.000292
958	0.000661	0.000201
958	0.000631	0.000192
959	0.000692	0.000211
959	0.000741	0.000225
961	0.000776	0.00026
963	0.000661	0.0002
964	0.00135	0.00041
966	0.000891	0.000271
966	0.000955	0.00029
967	0.000912	0.000276
967	0.000977	0.000296
971	0.00105	0.00034
971	0.00166	0.00051
971	0.001	0.00032
972	0.00191	0.00059
972	0.0012	0.00038
973	0.00117	0.00035
973	0.00115	0.00035
973	0.000955	0.00029
975	0.00186	0.00056
976	0.00135	0.00041
977	0.00141	0.00043
979	0.00141	0.00042
980	0.00148	0.00044
980	0.00138	0.00041
981	0.00123	0.00037
983	0.00151	0.00046
983	0.0024	0.00072
985	0.00186	0.0006
986	0.00182	0.00058
986	0.0017	0.00055
987	0.00288	0.00089
987	0.00191	0.0006
988	0.00288	0.00087
988	0.00178	0.00054
988	0.00155	0.00047
990	0.00288	0.00087
992	0.00234	0.00071
993	0.00219	0.00067
994	0.00229	0.0007
994	0.00182	0.00056
995	0.0024	0.00076
995	0.00389	0.00119
998	0.0038	0.00114
998	0.00251	0.00076
998	0.00282	0.00085
998	0.00275	0.00083
1001	0.00282	0.00086
1002	0.0024	0.00073
1003	0.00288	0.00087
1003	0.00501	0.0015
1004	0.00479	0.00144
1004	0.00339	0.00102
1005	0.00479	0.00145
1006	0.00309	0.00093
1008	0.00339	0.00103
1008	0.00389	0.00118
1009	0.00282	0.00096
1009	0.0038	0.00122
1012	0.00575	0.00174
1012	0.00676	0.00204
1013	0.00447	0.00147
1015	0.00437	0.00132
1016	0.00708	0.00219
1017	0.00525	0.0017
1018	0.00501	0.00153
1019	0.00759	0.00229
1020	0.00912	0.00274
1021	0.00617	0.00186
1022	0.0055	0.00165
1026	0.00661	0.00199
1027	0.00977	0.00294
1028	0.00955	0.00288
1029	0.00676	0.00204
1029	0.0117	0.0035
1029	0.00692	0.00209
1033	0.00813	0.00258
1036	0.0129	0.0041
1037	0.00891	0.0028
1037	0.0132	0.004
1039	0.0162	0.0049
1043	0.0162	0.0049
1043	0.0162	0.0049
1044	0.0115	0.0035
1049	0.0195	0.0059
1049	0.0204	0.0062
1049	0.0224	0.0068
1050	0.0135	0.0042
1057	0.0245	0.0074
1058	0.0174	0.0052
1059	0.0263	0.0079
1059	0.0309	0.0093
1064	0.0209	0.0063
1064	0.0309	0.0093
1066	0.0316	0.0095
1066	0.038	0.0114
1070	0.0263	0.0079
1072	0.0389	0.0117
1077	0.0324	0.0098
1078	0.0457	0.0138
