Measured thermophysical data. Measurement and Estimation of Henry's Law Constants of Chlorinated Ethylenes in Aqueous Surfactant Solutions
Source: J. Chem. Eng. Data, 2003, 10.1021/je025553z
Compound 1: sodium dodecyl sulfate, C12H25NaO4S, InChI=1S/C12H26O4S.Na/c1-2-3-4-5-6-7-8-9-10-11-12-16-17(13,14)15;/h2-12H2,1H3,(H,13,14,15);/q;+1/p-1
Compound 2: water, H2O, InChI=1S/H2O/h1H2
Compound 3: tetrachloroethene, C2Cl4, InChI=1S/C2Cl4/c3-1(4)2(5)6
Compound 4: trichloroethene, C2HCl3, InChI=1S/C2HCl3/c3-1-2(4)5/h1H
Compound 5: (E)-1,2-dichloroethene, C2H2Cl2, InChI=1S/C2H2Cl2/c3-1-2-4/h1-2H/b2-1+
Compound 6: (Z)-1,2-dichloroethene, C2H2Cl2, InChI=1S/C2H2Cl2/c3-1-2-4/h1-2H/b2-1-
Compound 7: N,N,N-trimethyl-1-hexadecanaminium bromide, C19H42BrN, InChI=1S/C19H42N.BrH/c1-5-6-7-8-9-10-11-12-13-14-15-16-17-18-19-20(2,3)4;/h5-19H2,1-4H3;1H/q+1;/p-1

System: tetrachloroethene + water; phases: Gas, Liquid
Fixed: Amount concentration (molarity), mol/dm3 of tetrachloroethene = 0
Property: Amount concentration (molarity), mol/dm3 (Gas); method: OTHER
Temperature, K	Amount concentration (molarity), mol/dm3	uncertainty
274.95	0.22	0.04
294.75	0.64	0.09
313.15	1.33	0.13
323.15	1.77	0.26
333.15	2.52	0.62
343.15	4.16	0.79

System: trichloroethene + water; phases: Gas, Liquid
Fixed: Amount concentration (molarity), mol/dm3 of trichloroethene = 0
Property: Amount concentration (molarity), mol/dm3 (Gas); method: OTHER
Temperature, K	Amount concentration (molarity), mol/dm3	uncertainty
274.95	0.14	0.03
294.75	0.35	0.05
313.15	0.74	0.05
323.15	1	0.08
333.15	1.31	0.24
343.15	2.01	0.34

System: (Z)-1,2-dichloroethene + water; phases: Gas, Liquid
Fixed: Amount concentration (molarity), mol/dm3 of (Z)-1,2-dichloroethene = 0
Property: Amount concentration (molarity), mol/dm3 (Gas); method: OTHER
Temperature, K	Amount concentration (molarity), mol/dm3	uncertainty
274.95	0.09	0.03
294.75	0.14	0.02
313.15	0.29	0.01
323.15	0.37	0.02
333.15	0.48	0.08
343.15	0.67	0.15

System: (E)-1,2-dichloroethene + water; phases: Gas, Liquid
Fixed: Amount concentration (molarity), mol/dm3 of (E)-1,2-dichloroethene = 0
Property: Amount concentration (molarity), mol/dm3 (Gas); method: OTHER
Temperature, K	Amount concentration (molarity), mol/dm3	uncertainty
274.95	0.16	0.03
294.75	0.34	0.05
313.15	0.69	0.05
323.15	0.89	0.06
333.15	1.14	0.2
343.15	1.67	0.28

System: tetrachloroethene + sodium dodecyl sulfate + water; phases: Gas, Liquid
Fixed: Amount concentration (molarity), mol/dm3 of tetrachloroethene = 0
Property: Amount concentration (molarity), mol/dm3 of tetrachloroethene (Gas); method: OTHER
Temperature, K	Ratio of mass of solute to volume of solution, kg/m3 of sodium dodecyl sulfate	Amount concentration (molarity), mol/dm3 of tetrachloroethene	uncertainty
293.35	11.9	0.07	0.02
295.05	23.8	0.05	0.03
295.15	47.6	0.02	0.01
295.25	2.38	0.55	0.09
297.65	4.76	0.3	0.03
313.15	2.38	1.18	0.13
313.15	4.76	0.73	0.12
313.15	11.9	0.27	0.04
313.15	23.8	0.12	0.03
313.15	47.6	0.06	0.01
323.15	2.38	1.94	0.14
323.15	4.76	1.14	0.26
323.15	11.9	0.41	0.08
323.15	23.8	0.18	0.01
323.15	47.6	0.09	0.01
333.15	2.38	2.43	0.51
333.15	4.76	1.64	0.17
333.15	11.9	0.61	0.09
333.15	23.8	0.26	0.04
333.15	47.6	0.13	0.02
343.15	2.38	3.54	1.08
343.15	4.76	2.27	0.45
343.15	11.9	0.84	0.07
343.15	23.8	0.4	0.22
343.15	47.6	0.18	0.09

System: trichloroethene + sodium dodecyl sulfate + water; phases: Gas, Liquid
Fixed: Amount concentration (molarity), mol/dm3 of trichloroethene = 0
Property: Amount concentration (molarity), mol/dm3 of trichloroethene (Gas); method: OTHER
Temperature, K	Ratio of mass of solute to volume of solution, kg/m3 of sodium dodecyl sulfate	Amount concentration (molarity), mol/dm3 of trichloroethene	uncertainty
293.35	11.9	0.12	0.02
295.05	23.8	0.09	0.03
295.15	47.6	0.05	0.02
295.25	2.38	0.35	0.06
297.65	4.76	0.27	0.02
313.15	2.38	0.71	0.05
313.15	4.76	0.61	0.1
313.15	11.9	0.34	0.06
313.15	23.8	0.19	0.04
313.15	47.6	0.11	0.02
323.15	2.38	1.08	0.18
323.15	4.76	0.87	0.16
323.15	11.9	0.51	0.12
323.15	23.8	0.27	0.01
323.15	47.6	0.16	0.01
333.15	2.38	1.33	0.17
333.15	4.76	1.16	0.1
333.15	11.9	0.71	0.12
333.15	23.8	0.37	0.05
333.15	47.6	0.21	0.03
343.15	2.38	1.74	0.45
343.15	4.76	1.5	0.18
343.15	11.9	0.9	0.09
343.15	23.8	0.52	0.19
343.15	47.6	0.3	0.13

System: sodium dodecyl sulfate + (Z)-1,2-dichloroethene + water; phases: Gas, Liquid
Fixed: Amount concentration (molarity), mol/dm3 of (Z)-1,2-dichloroethene = 0
Property: Amount concentration (molarity), mol/dm3 of (Z)-1,2-dichloroethene (Gas); method: OTHER
Temperature, K	Ratio of mass of solute to volume of solution, kg/m3 of sodium dodecyl sulfate	Amount concentration (molarity), mol/dm3 of (Z)-1,2-dichloroethene	uncertainty
293.35	11.9	0.09	0.02
295.05	23.8	0.08	0.03
295.15	47.6	0.06	0.03
295.25	2.38	0.15	0.03
297.65	4.76	0.13	0.01
313.15	2.38	0.28	0.01
313.15	4.76	0.27	0.04
313.15	11.9	0.22	0.05
313.15	23.8	0.16	0.04
313.15	47.6	0.11	0.01
323.15	2.38	0.39	0.07
323.15	4.76	0.37	0.05
323.15	11.9	0.3	0.07
323.15	23.8	0.21	0.01
323.15	47.6	0.15	0.01
333.15	2.38	0.49	0.04
333.15	4.76	0.47	0.04
333.15	11.9	0.39	0.07
333.15	23.8	0.27	0.04
333.15	47.6	0.18	0.02
343.15	2.38	0.59	0.06
343.15	4.76	0.58	0.03
343.15	11.9	0.51	0.05
343.15	23.8	0.35	0.14
343.15	47.6	0.26	0.11

System: sodium dodecyl sulfate + (E)-1,2-dichloroethene + water; phases: Gas, Liquid
Fixed: Amount concentration (molarity), mol/dm3 of (E)-1,2-dichloroethene = 0
Property: Amount concentration (molarity), mol/dm3 of (E)-1,2-dichloroethene (Gas); method: OTHER
Temperature, K	Ratio of mass of solute to volume of solution, kg/m3 of sodium dodecyl sulfate	Amount concentration (molarity), mol/dm3 of (E)-1,2-dichloroethene	uncertainty
293.35	11.9	0.23	0.03
295.05	23.8	0.21	0.05
295.15	47.6	0.15	0.03
295.25	2.38	0.37	0.06
297.65	4.76	0.33	0.03
313.15	2.38	0.68	0.04
313.15	4.76	0.66	0.1
313.15	11.9	0.51	0.09
313.15	23.8	0.39	0.06
313.15	47.6	0.27	0.03
323.15	2.38	0.94	0.1
323.15	4.76	0.89	0.2
323.15	11.9	0.72	0.12
323.15	23.8	0.5	0.03
323.15	47.6	0.36	0.02
333.15	2.38	1.16	0.14
333.15	4.76	1.11	0.08
333.15	11.9	0.96	0.15
333.15	23.8	0.64	0.07
333.15	47.6	0.43	0.12
343.15	2.38	1.45	0.28
343.15	4.76	1.36	0.13
343.15	11.9	1.04	0.07
343.15	23.8	0.85	0.13
343.15	47.6	0.57	0.04

System: N,N,N-trimethyl-1-hexadecanaminium bromide + tetrachloroethene + water; phases: Gas, Liquid
Fixed: Amount concentration (molarity), mol/dm3 of tetrachloroethene = 0
Property: Amount concentration (molarity), mol/dm3 of tetrachloroethene (Gas); method: OTHER
Temperature, K	Ratio of mass of solute to volume of solution, kg/m3 of N,N,N-trimethyl-1-hexadecanaminium bromide	Amount concentration (molarity), mol/dm3 of tetrachloroethene	uncertainty
293.15	1.81	0.37	0.16
293.45	0.72	0.49	0.04
293.65	3.61	0.17	0.03
295.05	7.22	0.12	0.02
295.65	0.36	0.63	0.06
313.15	0.36	1.48	0.21
313.15	0.72	1.2	0.12
313.15	1.81	0.69	0.07
313.15	3.61	0.44	0.04
313.15	7.22	0.27	0.02
323.15	0.36	1.73	0.38
323.15	0.72	1.59	0.09
323.15	1.81	1.15	0.2
323.15	3.61	0.66	0.06
323.15	7.22	0.4	0.02
333.15	0.36	2.61	0.26
333.15	0.72	2.19	0.47
333.15	1.81	1.65	0.21
333.15	3.61	0.97	0.1
333.15	7.22	0.59	0.06
343.15	0.36	3.56	1.23
343.15	0.72	3.12	0.75
343.15	1.81	2.12	0.79
343.15	3.61	1.34	0.27
343.15	7.22	0.81	0.07

System: N,N,N-trimethyl-1-hexadecanaminium bromide + trichloroethene + water; phases: Gas, Liquid
Fixed: Amount concentration (molarity), mol/dm3 of trichloroethene = 0
Property: Amount concentration (molarity), mol/dm3 of trichloroethene (Gas); method: OTHER
Temperature, K	Ratio of mass of solute to volume of solution, kg/m3 of N,N,N-trimethyl-1-hexadecanaminium bromide	Amount concentration (molarity), mol/dm3 of trichloroethene	uncertainty
293.15	1.81	0.3	0.09
293.45	0.72	0.32	0.02
293.65	3.61	0.2	0.02
295.05	7.22	0.16	0.03
295.65	0.36	0.37	0.03
313.15	0.36	0.79	0.07
313.15	0.72	0.73	0.04
313.15	1.81	0.56	0.06
313.15	3.61	0.46	0.04
313.15	7.22	0.35	0.03
323.15	0.36	0.96	0.07
323.15	0.72	0.94	0.04
323.15	1.81	0.86	0.15
323.15	3.61	0.64	0.05
323.15	7.22	0.49	0.03
333.15	0.36	1.37	0.1
333.15	0.72	1.23	0.18
333.15	1.81	1.15	0.11
333.15	3.61	0.88	0.08
333.15	7.22	0.68	0.07
343.15	0.36	1.76	0.46
343.15	0.72	1.66	0.29
343.15	1.81	1.4	0.49
343.15	3.61	1.09	0.29
343.15	7.22	0.89	0.06

System: N,N,N-trimethyl-1-hexadecanaminium bromide + (Z)-1,2-dichloroethene + water; phases: Gas, Liquid
Fixed: Amount concentration (molarity), mol/dm3 of (Z)-1,2-dichloroethene = 0
Property: Amount concentration (molarity), mol/dm3 of (Z)-1,2-dichloroethene (Gas); method: OTHER
Temperature, K	Ratio of mass of solute to volume of solution, kg/m3 of N,N,N-trimethyl-1-hexadecanaminium bromide	Amount concentration (molarity), mol/dm3 of (Z)-1,2-dichloroethene	uncertainty
293.15	1.81	0.13	0.05
293.45	0.72	0.13	0.02
293.65	3.61	0.11	0.01
295.05	7.22	0.11	0.03
295.65	0.36	0.15	0.01
313.15	0.36	0.3	0.02
313.15	0.72	0.27	0.01
313.15	1.81	0.25	0.03
313.15	3.61	0.23	0.02
313.15	7.22	0.21	0.02
323.15	0.36	0.36	0.09
323.15	0.72	0.35	0.02
323.15	1.81	0.35	0.06
323.15	3.61	0.31	0.03
323.15	7.22	0.29	0.02
333.15	0.36	0.51	0.03
333.15	0.72	0.46	0.04
333.15	1.81	0.46	0.03
333.15	3.61	0.41	0.03
333.15	7.22	0.38	0.05
343.15	0.36	0.61	0.11
343.15	0.72	0.59	0.11
343.15	1.81	0.53	0.23
343.15	3.61	0.5	0.13
343.15	7.22	0.46	0.03

System: N,N,N-trimethyl-1-hexadecanaminium bromide + (E)-1,2-dichloroethene + water; phases: Gas, Liquid
Fixed: Amount concentration (molarity), mol/dm3 of (E)-1,2-dichloroethene = 0
Property: Amount concentration (molarity), mol/dm3 of (E)-1,2-dichloroethene (Gas); method: OTHER
Temperature, K	Ratio of mass of solute to volume of solution, kg/m3 of N,N,N-trimethyl-1-hexadecanaminium bromide	Amount concentration (molarity), mol/dm3 of (E)-1,2-dichloroethene	uncertainty
293.15	1.81	0.33	0.09
293.45	0.72	0.34	0.02
293.65	3.61	0.29	0.04
295.05	7.22	0.29	0.07
295.65	0.36	0.36	0.03
313.15	0.36	0.72	0.05
313.15	0.72	0.68	0.03
313.15	1.81	0.64	0.06
313.15	3.61	0.59	0.05
313.15	7.22	0.55	0.04
323.15	0.36	0.88	0.04
323.15	0.72	0.86	0.04
323.15	1.81	0.84	0.1
323.15	3.61	0.78	0.06
323.15	7.22	0.74	0.05
333.15	0.36	1.18	0.11
333.15	0.72	1.09	0.14
333.15	1.81	1.06	0.11
333.15	3.61	1.01	0.1
333.15	7.22	0.94	0.12
343.15	0.36	1.52	0.46
343.15	0.72	1.41	0.2
343.15	1.81	1.32	0.46
343.15	3.61	1.18	0.17
343.15	7.22	1.15	0.05
