Measured thermophysical data. Thermodynamics of Ternary Liquid Mixtures Containing Toluene, Ethylbenzene, and Chlorobenzene
Source: J. Chem. Eng. Data, 2003, 10.1021/je020186c
Compound 1: toluene, C7H8, InChI=1S/C7H8/c1-7-5-3-2-4-6-7/h2-6H,1H3
Compound 2: ethylbenzene, C8H10, InChI=1S/C8H10/c1-2-8-6-4-3-5-7-8/h3-7H,2H2,1H3
Compound 3: chlorobenzene, C6H5Cl, InChI=1S/C6H5Cl/c7-6-4-2-1-3-5-6/h1-5H

System: toluene; phases: Liquid
Property: Mass density, kg/m3 (Liquid); method: Pycnometric method
Temperature, K	Pressure, kPa	Mass density, kg/m3	uncertainty
298.15	101.325	862.2	0.8

System: ethylbenzene; phases: Liquid
Property: Mass density, kg/m3 (Liquid); method: Pycnometric method
Temperature, K	Pressure, kPa	Mass density, kg/m3	uncertainty
298.15	101.325	862.5	0.8

System: chlorobenzene; phases: Liquid
Property: Mass density, kg/m3 (Liquid); method: Pycnometric method
Temperature, K	Pressure, kPa	Mass density, kg/m3	uncertainty
298.15	101.325	1100.8	1

System: ethylbenzene + toluene; phases: Liquid, Gas
Property: Boiling temperature at pressure P, K (Liquid); method: EBULLIO:UFactor:4
Pressure, kPa	Mole fraction of toluene	Boiling temperature at pressure P, K	uncertainty
26.66	0	365.86	0.31
26.66	0.188	360.27	0.31
26.66	0.316	357.03	0.31
26.66	0.323	356.78	0.31
26.66	0.379	355.73	0.31
26.66	0.434	353.9	0.31
26.66	0.447	353.73	0.3
26.66	0.513	352.1	0.3
26.66	0.606	350.23	0.3
26.66	0.702	348.12	0.3
26.66	0.773	346.68	0.3
26.66	0.872	344.99	0.3
26.66	1	342.65	0.29
53.33	0	386.94	0.31
53.33	0.188	381.34	0.31
53.33	0.316	377.91	0.35
53.33	0.323	377.68	0.36
53.33	0.379	376.48	0.31
53.33	0.434	374.66	0.32
53.33	0.447	374.36	0.32
53.33	0.513	372.72	0.31
53.33	0.606	370.67	0.3
53.33	0.702	368.52	0.3
53.33	0.773	366.97	0.3
53.33	0.872	365.13	0.3
53.33	1	362.63	0.3
79.99	0	400.7	0.26
79.99	0.188	395.07	0.26
79.99	0.316	391.4	0.26
79.99	0.323	391.3	0.27
79.99	0.379	389.97	0.26
79.99	0.434	388.23	0.26
79.99	0.447	387.9	0.26
79.99	0.513	386.16	0.26
79.99	0.606	384.07	0.26
79.99	0.702	381.78	0.25
79.99	0.773	380.16	0.25
79.99	0.872	378.23	0.25
79.99	1	375.66	0.25
101.32	0	409.31	0.26
101.32	0.188	403.63	0.26
101.32	0.316	399.88	0.25
101.32	0.323	399.8	0.25
101.32	0.379	398.43	0.25
101.32	0.434	396.67	0.25
101.32	0.447	396.3	0.25
101.32	0.513	394.47	0.25
101.32	0.606	392.38	0.24
101.32	0.702	389.83	0.24
101.32	0.773	388.37	0.24
101.32	0.872	386.37	0.24
101.32	1	383.76	0.24

System: toluene + chlorobenzene; phases: Liquid, Gas
Property: Boiling temperature at pressure P, K (Liquid); method: EBULLIO:UFactor:4
Pressure, kPa	Mole fraction of toluene	Boiling temperature at pressure P, K	uncertainty
26.66	0	361.57	0.31
26.66	0.286	355.4	0.31
26.66	0.419	352.54	0.3
26.66	0.492	351.18	0.3
26.66	0.611	348.98	0.3
26.66	0.717	347.09	0.3
26.66	0.793	345.86	0.3
26.66	1	342.65	0.29
53.33	0	382.63	0.31
53.33	0.286	376.1	0.31
53.33	0.419	373.22	0.31
53.33	0.492	371.69	0.3
53.33	0.611	369.33	0.3
53.33	0.717	367.39	0.3
53.33	0.793	366.06	0.3
53.33	1	362.63	0.3
79.99	0	396.37	0.26
79.99	0.286	389.68	0.26
79.99	0.419	386.6	0.26
79.99	0.492	385.13	0.26
79.99	0.611	382.67	0.26
79.99	0.717	380.67	0.25
79.99	0.793	379.23	0.25
79.99	1	375.66	0.25
101.32	0	404.9	0.25
101.32	0.286	398.09	0.25
101.32	0.419	394.97	0.25
101.32	0.492	393.45	0.25
101.32	0.611	390.94	0.25
101.32	0.717	388.89	0.24
101.32	0.793	387.47	0.25
101.32	1	383.76	0.24

System: ethylbenzene + chlorobenzene; phases: Liquid, Gas
Property: Boiling temperature at pressure P, K (Liquid); method: EBULLIO:UFactor:4
Pressure, kPa	Mole fraction of ethylbenzene	Boiling temperature at pressure P, K	uncertainty
26.66	0	361.57	0.31
26.66	0.119	362.12	0.31
26.66	0.303	362.95	0.31
26.66	0.502	363.73	0.31
26.66	0.704	364.61	0.31
26.66	0.853	365.17	0.31
26.66	1	365.86	0.31
53.33	0	382.63	0.31
53.33	0.119	383.16	0.31
53.33	0.303	383.99	0.31
53.33	0.502	384.82	0.31
53.33	0.704	385.72	0.31
53.33	0.853	386.33	0.31
53.33	1	386.94	0.31
79.99	0	396.37	0.26
79.99	0.119	396.9	0.26
79.99	0.303	397.73	0.26
79.99	0.502	398.59	0.26
79.99	0.704	399.46	0.26
79.99	0.853	400.13	0.27
79.99	1	400.7	0.26
101.32	0	404.9	0.25
101.32	0.119	405.45	0.25
101.32	0.303	406.26	0.25
101.32	0.502	407.16	0.25
101.32	0.704	408.09	0.26
101.32	0.853	408.76	0.25
101.32	1	409.31	0.26

System: ethylbenzene + toluene + chlorobenzene; phases: Liquid
Fixed: Temperature, K = 298.15
Fixed: Pressure, kPa = 101.3
Property: Excess molar enthalpy (molar enthalpy of mixing), kJ/mol (Liquid); method: Calvet calorimetry
Mole fraction of toluene	Mole fraction of ethylbenzene	Excess molar enthalpy (molar enthalpy of mixing), kJ/mol	uncertainty
0	0.5	-0.153	0.004
0.115	0.115	-0.097	0.003
0.116	0.116	-0.098	0.003
0.125	0.125	-0.101	0.003
0.1275	0.745	-0.072	0.002
0.1715	0.657	-0.089	0.002
0.179	0.179	-0.123	0.003
0.1845	0.1845	-0.127	0.003
0.219	0.219	-0.131	0.003
0.223	0.554	-0.107	0.003
0.2595	0.2595	-0.134	0.003
0.267	0.466	-0.118	0.003
0.277	0.3615	-0.135	0.003
0.2955	0.2955	-0.133	0.003
0.3135	0.373	-0.126	0.003
0.33	0.335	-0.128	0.003
0.335	0.33	-0.128	0.003
0.335	0.335	-0.128	0.003
0.3405	0.3405	-0.126	0.003
0.3465	0.3465	-0.125	0.003
0.371	0.258	-0.131	0.003
0.381	0.381	-0.107	0.003
0.5	0	-0.119	0.003
0.5	0.5	-0.0092	0.0009
0.508	0.246	-0.104	0.003
0.522	0.239	-0.102	0.003
0.725	0.1375	-0.065	0.002

System: ethylbenzene + toluene + chlorobenzene; phases: Liquid, Gas
Property: Boiling temperature at pressure P, K (Liquid); method: EBULLIO:UFactor:4
Mole fraction of toluene	Mole fraction of ethylbenzene	Pressure, kPa	Boiling temperature at pressure P, K	uncertainty
0.126	0.748	26.66	361.87	0.22
0.126	0.748	53.33	382.79	0.27
0.126	0.748	79.99	396.47	0.26
0.126	0.748	101.32	405.01	0.25
0.195	0.537	26.66	359.41	0.31
0.195	0.537	53.33	380.3	0.31
0.195	0.537	79.99	393.99	0.26
0.195	0.537	101.32	402.53	0.25
0.232	0.384	26.66	358.04	0.31
0.232	0.384	53.33	378.78	0.31
0.232	0.384	79.99	392.4	0.26
0.232	0.384	101.32	400.88	0.25
0.251	0.25	26.66	357.4	0.31
0.251	0.25	53.33	378.12	0.31
0.251	0.25	79.99	391.72	0.26
0.251	0.25	101.32	400.23	0.25
0.334	0.333	26.66	355.69	0.31
0.334	0.333	53.33	376.39	0.31
0.334	0.333	79.99	389.97	0.26
0.334	0.333	101.32	398.45	0.25
0.352	0.432	26.66	355.27	0.31
0.352	0.432	53.33	376.13	0.31
0.352	0.432	79.99	389.68	0.26
0.352	0.432	101.32	398.16	0.25
0.4	0.2	26.66	353.73	0.31
0.4	0.2	53.33	374.39	0.31
0.4	0.2	79.99	387.88	0.26
0.4	0.2	101.32	396.29	0.25
0.492	0.339	26.66	352.11	0.31
0.492	0.339	53.33	372.77	0.31
0.492	0.339	79.99	386.22	0.26
0.492	0.339	101.32	394.62	0.25
0.53	0.235	26.66	351.03	0.3
0.53	0.235	53.33	371.67	0.31
0.53	0.235	79.99	385.11	0.26
0.53	0.235	101.32	393.46	0.25
0.606	0.131	26.66	349.48	0.3
0.606	0.131	53.33	369.92	0.3
0.606	0.131	79.99	383.23	0.25
0.606	0.131	101.32	391.5	0.25
0.702	0.199	26.66	347.87	0.3
0.702	0.199	53.33	368.24	0.3
0.702	0.199	79.99	381.52	0.26
0.702	0.199	101.32	389.83	0.25
0.759	0.12	26.66	346.64	0.3
0.759	0.12	53.33	366.9	0.3
0.759	0.12	79.99	380.12	0.25
0.759	0.12	101.32	388.35	0.24
