Measured thermophysical data. Viscosity and Density for Binary Mixtures of Carbon Tetrachloride + Chloroform, Carbon Tetrachloride + Dichloromethane, and Chloroform + Dichloromethane and One Ternary Mixture of Chloroform + 1:1 (Carbon Tetrachloride + Dichloromethane) at 303.15 K
Source: J. Chem. Eng. Data, 2003, 10.1021/je020067x
Compound 1: tetrachloromethane, CCl4, InChI=1S/CCl4/c2-1(3,4)5
Compound 2: trichloromethane, CHCl3, InChI=1S/CHCl3/c2-1(3)4/h1H
Compound 3: dichloromethane, CH2Cl2, InChI=1S/CH2Cl2/c2-1-3/h1H2

System: tetrachloromethane; phases: Liquid
Property: Mass density, kg/m3 (Liquid); method: Vibrating tube method
Temperature, K	Pressure, kPa	Mass density, kg/m3	uncertainty
303.15	101.325	1575	0.8

System: tetrachloromethane; phases: Liquid
Property: Viscosity, Pa*s (Liquid); method: Capillary tube (Ostwald; Ubbelohde) method
Temperature, K	Pressure, kPa	Viscosity, Pa*s	uncertainty
303.15	101.325	0.0008403	6.8e-06

System: trichloromethane; phases: Liquid
Property: Mass density, kg/m3 (Liquid); method: Vibrating tube method
Temperature, K	Pressure, kPa	Mass density, kg/m3	uncertainty
303.15	101.325	1470.5	0.8

System: trichloromethane; phases: Liquid
Property: Viscosity, Pa*s (Liquid); method: Capillary tube (Ostwald; Ubbelohde) method
Temperature, K	Pressure, kPa	Viscosity, Pa*s	uncertainty
303.15	101.325	0.0005118	4.4e-06

System: dichloromethane; phases: Liquid
Property: Mass density, kg/m3 (Liquid); method: Vibrating tube method
Temperature, K	Pressure, kPa	Mass density, kg/m3	uncertainty
303.15	101.325	1307.6	0.7

System: dichloromethane; phases: Liquid
Property: Viscosity, Pa*s (Liquid); method: Capillary tube (Ostwald; Ubbelohde) method
Temperature, K	Pressure, kPa	Viscosity, Pa*s	uncertainty
303.15	101.325	0.0003929	3.5e-06

System: tetrachloromethane + dichloromethane; phases: Liquid
Fixed: Pressure, kPa = 101.325
Fixed: Temperature, K = 303.15
Property: Viscosity, Pa*s (Liquid); method: Capillary tube (Ostwald; Ubbelohde) method
Mole fraction of tetrachloromethane	Viscosity, Pa*s	uncertainty
0.0375	0.0004008	3.7e-06
0.0622	0.0004061	3.7e-06
0.0791	0.0004097	3.8e-06
0.0889	0.000412	3.8e-06
0.1254	0.000421	3.8e-06
0.2047	0.000441	4e-06
0.2305	0.0004479	4e-06
0.297	0.0004669	4.2e-06
0.3695	0.0004897	4.3e-06
0.4985	0.0005369	4.7e-06
0.4986	0.0005374	4.7e-06
0.4997	0.0005375	4.7e-06
0.5631	0.000564	4.9e-06
0.609	0.0005853	5e-06
0.6845	0.0006223	5.3e-06
0.8006	0.0006894	5.8e-06
0.8032	0.0006915	5.8e-06
0.8652	0.0007331	6.1e-06
0.9279	0.0007792	6.4e-06
0.9677	0.0008116	6.6e-06

System: tetrachloromethane + dichloromethane; phases: Liquid
Fixed: Pressure, kPa = 101.325
Fixed: Temperature, K = 303.15
Property: Mass density, kg/m3 (Liquid); method: Vibrating tube method
Mole fraction of tetrachloromethane	Mass density, kg/m3	uncertainty
0.0375	1321.5	0.7
0.0622	1330.4	0.7
0.0791	1336.4	0.7
0.0889	1339.9	0.7
0.1254	1352.4	0.7
0.2047	1378.4	0.7
0.2305	1386.5	0.7
0.297	1406.7	0.7
0.3695	1427.7	0.7
0.4985	1462.5	0.8
0.4986	1462.5	0.8
0.4997	1462.8	0.8
0.5631	1478.9	0.8
0.609	1490.1	0.8
0.6845	1508	0.8
0.8006	1533.9	0.8
0.8032	1534.5	0.8
0.8652	1547.7	0.8
0.9279	1560.7	0.8
0.9677	1568.6	0.8

System: tetrachloromethane + trichloromethane; phases: Liquid
Fixed: Pressure, kPa = 101.325
Fixed: Temperature, K = 303.15
Property: Viscosity, Pa*s (Liquid); method: Capillary tube (Ostwald; Ubbelohde) method
Mole fraction of tetrachloromethane	Viscosity, Pa*s	uncertainty
0.0591	0.0005216	4.4e-06
0.075	0.0005248	4.5e-06
0.1297	0.0005343	4.5e-06
0.2236	0.0005538	4.7e-06
0.2777	0.0005658	4.8e-06
0.3416	0.0005811	4.9e-06
0.434	0.0006041	5e-06
0.4886	0.0006201	5.2e-06
0.5736	0.0006486	5.4e-06
0.6646	0.0006807	5.6e-06
0.7747	0.0007256	5.9e-06
0.8186	0.0007458	6.1e-06
0.8904	0.0007804	6.3e-06
0.9305	0.0008017	6.5e-06

System: tetrachloromethane + trichloromethane; phases: Liquid
Fixed: Pressure, kPa = 101.325
Fixed: Temperature, K = 303.15
Property: Mass density, kg/m3 (Liquid); method: Vibrating tube method
Mole fraction of tetrachloromethane	Mass density, kg/m3	uncertainty
0.0591	1477.2	0.8
0.075	1479	0.8
0.1297	1485.1	0.8
0.2236	1495.3	0.8
0.2777	1501.2	0.8
0.3416	1508.1	0.8
0.434	1517.9	0.8
0.4886	1523.6	0.8
0.5736	1532.5	0.8
0.6646	1541.8	0.8
0.7747	1552.9	0.8
0.8186	1557.3	0.8
0.8904	1564.4	0.8
0.9305	1568.3	0.8

System: trichloromethane + dichloromethane; phases: Liquid
Fixed: Pressure, kPa = 101.325
Fixed: Temperature, K = 303.15
Property: Viscosity, Pa*s (Liquid); method: Capillary tube (Ostwald; Ubbelohde) method
Mole fraction of dichloromethane	Viscosity, Pa*s	uncertainty
0.0633	0.000504	4.3e-06
0.1191	0.0004976	4.3e-06
0.1924	0.0004892	4.2e-06
0.3101	0.0004741	4.1e-06
0.3607	0.0004686	4.1e-06
0.4299	0.0004602	4e-06
0.5221	0.0004501	3.9e-06
0.6464	0.0004352	3.8e-06
0.6833	0.0004301	3.8e-06
0.74	0.0004236	3.7e-06
0.7979	0.0004163	3.7e-06
0.8681	0.0004083	3.6e-06
0.9034	0.000404	3.6e-06
0.9358	0.0004005	3.6e-06

System: trichloromethane + dichloromethane; phases: Liquid
Fixed: Pressure, kPa = 101.325
Fixed: Temperature, K = 303.15
Property: Mass density, kg/m3 (Liquid); method: Vibrating tube method
Mole fraction of dichloromethane	Mass density, kg/m3	uncertainty
0.0633	1462.3	0.8
0.1191	1454.8	0.8
0.1924	1444.7	0.7
0.3101	1427.8	0.7
0.3607	1420.3	0.7
0.4299	1409.7	0.7
0.5221	1395.1	0.7
0.6464	1374.3	0.7
0.6833	1367.8	0.7
0.74	1357.8	0.7
0.7979	1347.1	0.7
0.8681	1333.9	0.7
0.9034	1327	0.7
0.9358	1320.6	0.7

System: tetrachloromethane + trichloromethane + dichloromethane; phases: Liquid
Fixed: Pressure, kPa = 101.325
Fixed: Temperature, K = 303.15
Property: Viscosity, Pa*s (Liquid); method: Capillary tube (Ostwald; Ubbelohde) method
Mole fraction of tetrachloromethane	Mole fraction of dichloromethane	Viscosity, Pa*s	uncertainty
0.0259	0.0259	0.0005128	4.5e-06
0.0611	0.061	0.0005144	4.5e-06
0.1029	0.1029	0.0005168	4.5e-06
0.1295	0.1293	0.0005185	4.5e-06
0.1756	0.1754	0.0005212	4.6e-06
0.2494	0.2492	0.0005247	4.6e-06
0.2715	0.2713	0.000526	4.6e-06
0.3385	0.3382	0.0005292	4.6e-06
0.353	0.3528	0.0005302	4.8e-06
0.3684	0.3681	0.0005306	4.6e-06
0.4135	0.4131	0.0005334	4.6e-06
0.4443	0.4439	0.0005347	4.6e-06
0.466	0.4657	0.0005361	4.7e-06

System: tetrachloromethane + trichloromethane + dichloromethane; phases: Liquid
Fixed: Pressure, kPa = 101.325
Fixed: Temperature, K = 303.15
Property: Mass density, kg/m3 (Liquid); method: Vibrating tube method
Mole fraction of tetrachloromethane	Mole fraction of dichloromethane	Mass density, kg/m3	uncertainty
0.0259	0.0259	1470.1	0.8
0.0611	0.061	1469.5	0.8
0.1029	0.1029	1468.8	0.8
0.1295	0.1293	1468.5	0.8
0.1756	0.1754	1467.8	0.8
0.2494	0.2492	1466.8	0.8
0.2715	0.2713	1466.5	0.8
0.3385	0.3382	1465.8	0.8
0.353	0.3528	1465.6	0.8
0.3684	0.3681	1465.4	0.8
0.4135	0.4131	1464.7	0.8
0.4443	0.4439	1464.2	0.8
0.466	0.4657	1463.7	0.8
