Measured thermophysical data. Bubble Temperature Measurements on Binary Mixtures Formed by Cyclohexane at 94.7 kPa
Source: J. Chem. Eng. Data, 2003, 10.1021/je020148t
Compound 1: cyclohexane, C6H12, InChI=1S/C6H12/c1-2-4-6-5-3-1/h1-6H2
Compound 2: 1,1,1-trichloroethane, C2H3Cl3, InChI=1S/C2H3Cl3/c1-2(3,4)5/h1H3
Compound 3: 1,1,2,2-tetrachloroethane, C2H2Cl4, InChI=1S/C2H2Cl4/c3-1(4)2(5)6/h1-2H
Compound 4: 1-chloro-2,3-epoxypropane, C3H5ClO, InChI=1S/C3H5ClO/c4-1-3-2-5-3/h3H,1-2H2
Compound 5: 1,2-dimethoxyethane, C4H10O2, InChI=1S/C4H10O2/c1-5-3-4-6-2/h3-4H2,1-2H3
Compound 6: 1,4-dioxane, C4H8O2, InChI=1S/C4H8O2/c1-2-6-4-3-5-1/h1-4H2
Compound 7: 2-methylpyridine, C6H7N, InChI=1S/C6H7N/c1-6-4-2-3-5-7-6/h2-5H,1H3
Compound 8: dimethylformamide, C3H7NO, InChI=1S/C3H7NO/c1-4(2)3-5/h3H,1-2H3
Compound 9: N,N-dimethylethanamide, C4H9NO, InChI=1S/C4H9NO/c1-4(6)5(2)3/h1-3H3

System: cyclohexane; phases: Liquid
Property: Refractive index (Na D-line) (Liquid); method: Standard Abbe refractometry
Temperature, K	Pressure, kPa	Refractive index (Na D-line)	uncertainty
298.15	101.325	1.4235	0.0012

System: cyclohexane; phases: Liquid
Property: Mass density, kg/m3 (Liquid); method: Pycnometric method
Temperature, K	Pressure, kPa	Mass density, kg/m3	uncertainty
298.15	101.325	773.9	2.2

System: cyclohexane; phases: Liquid, Gas
Property: Vapor or sublimation pressure, kPa (Liquid); method: Ebulliometric method (Recirculating still)
Temperature, K	Vapor or sublimation pressure, kPa	uncertainty
351.75	94.7	4.8

System: 1,1,1-trichloroethane; phases: Liquid
Property: Refractive index (Na D-line) (Liquid); method: Standard Abbe refractometry
Temperature, K	Pressure, kPa	Refractive index (Na D-line)	uncertainty
298.15	101.325	1.4359	0.0012

System: 1,1,1-trichloroethane; phases: Liquid
Property: Mass density, kg/m3 (Liquid); method: Pycnometric method
Temperature, K	Pressure, kPa	Mass density, kg/m3	uncertainty
298.15	101.325	1329.9	3.7

System: 1,1,1-trichloroethane; phases: Liquid, Gas
Property: Vapor or sublimation pressure, kPa (Liquid); method: Ebulliometric method (Recirculating still)
Temperature, K	Vapor or sublimation pressure, kPa	uncertainty
345.25	94.7	4.8

System: 1,1,2,2-tetrachloroethane; phases: Liquid
Property: Refractive index (Na D-line) (Liquid); method: Standard Abbe refractometry
Temperature, K	Pressure, kPa	Refractive index (Na D-line)	uncertainty
298.15	101.325	1.4914	0.0012

System: 1,1,2,2-tetrachloroethane; phases: Liquid
Property: Mass density, kg/m3 (Liquid); method: Pycnometric method
Temperature, K	Pressure, kPa	Mass density, kg/m3	uncertainty
298.15	101.325	1586.7	4.4

System: 1,1,2,2-tetrachloroethane; phases: Liquid, Gas
Property: Vapor or sublimation pressure, kPa (Liquid); method: Ebulliometric method (Recirculating still)
Temperature, K	Vapor or sublimation pressure, kPa	uncertainty
416.95	94.7	4.8

System: 1-chloro-2,3-epoxypropane; phases: Liquid
Property: Refractive index (Na D-line) (Liquid); method: Standard Abbe refractometry
Temperature, K	Pressure, kPa	Refractive index (Na D-line)	uncertainty
298.15	101.325	1.4358	0.0012

System: 1-chloro-2,3-epoxypropane; phases: Liquid
Property: Mass density, kg/m3 (Liquid); method: Pycnometric method
Temperature, K	Pressure, kPa	Mass density, kg/m3	uncertainty
298.15	101.325	1174.6	3.1

System: 1-chloro-2,3-epoxypropane; phases: Liquid, Gas
Property: Vapor or sublimation pressure, kPa (Liquid); method: Ebulliometric method (Recirculating still)
Temperature, K	Vapor or sublimation pressure, kPa	uncertainty
388.85	94.7	4.8

System: 1,2-dimethoxyethane; phases: Liquid
Property: Refractive index (Na D-line) (Liquid); method: Standard Abbe refractometry
Temperature, K	Pressure, kPa	Refractive index (Na D-line)	uncertainty
298.15	101.325	1.3781	0.0012

System: 1,2-dimethoxyethane; phases: Liquid
Property: Mass density, kg/m3 (Liquid); method: Pycnometric method
Temperature, K	Pressure, kPa	Mass density, kg/m3	uncertainty
298.15	101.325	863.7	2.4

System: 1,2-dimethoxyethane; phases: Liquid, Gas
Property: Vapor or sublimation pressure, kPa (Liquid); method: Ebulliometric method (Recirculating still)
Temperature, K	Vapor or sublimation pressure, kPa	uncertainty
356.65	94.7	4.8

System: 1,4-dioxane; phases: Liquid
Property: Refractive index (Na D-line) (Liquid); method: Standard Abbe refractometry
Temperature, K	Pressure, kPa	Refractive index (Na D-line)	uncertainty
298.15	101.325	1.4203	0.0012

System: 1,4-dioxane; phases: Liquid
Property: Mass density, kg/m3 (Liquid); method: Pycnometric method
Temperature, K	Pressure, kPa	Mass density, kg/m3	uncertainty
298.15	101.325	1028	3

System: 1,4-dioxane; phases: Liquid, Gas
Property: Vapor or sublimation pressure, kPa (Liquid); method: Ebulliometric method (Recirculating still)
Temperature, K	Vapor or sublimation pressure, kPa	uncertainty
373.05	94.7	4.8

System: 2-methylpyridine; phases: Liquid
Property: Refractive index (Na D-line) (Liquid); method: Standard Abbe refractometry
Temperature, K	Pressure, kPa	Refractive index (Na D-line)	uncertainty
298.15	101.325	1.4984	0.0012

System: 2-methylpyridine; phases: Liquid
Property: Mass density, kg/m3 (Liquid); method: Pycnometric method
Temperature, K	Pressure, kPa	Mass density, kg/m3	uncertainty
298.15	101.325	939.8	2.6

System: 2-methylpyridine; phases: Liquid, Gas
Property: Vapor or sublimation pressure, kPa (Liquid); method: Ebulliometric method (Recirculating still)
Temperature, K	Vapor or sublimation pressure, kPa	uncertainty
400.25	94.7	4.8

System: dimethylformamide; phases: Liquid
Property: Refractive index (Na D-line) (Liquid); method: Standard Abbe refractometry
Temperature, K	Pressure, kPa	Refractive index (Na D-line)	uncertainty
298.15	101.325	1.4282	0.0012

System: dimethylformamide; phases: Liquid
Property: Mass density, kg/m3 (Liquid); method: Pycnometric method
Temperature, K	Pressure, kPa	Mass density, kg/m3	uncertainty
298.15	101.325	943.9	2.6

System: dimethylformamide; phases: Liquid, Gas
Property: Vapor or sublimation pressure, kPa (Liquid); method: Ebulliometric method (Recirculating still)
Temperature, K	Vapor or sublimation pressure, kPa	uncertainty
423.95	94.7	4.8

System: N,N-dimethylethanamide; phases: Liquid
Property: Refractive index (Na D-line) (Liquid); method: Standard Abbe refractometry
Temperature, K	Pressure, kPa	Refractive index (Na D-line)	uncertainty
298.15	101.325	1.4356	0.0012

System: N,N-dimethylethanamide; phases: Liquid
Property: Mass density, kg/m3 (Liquid); method: Pycnometric method
Temperature, K	Pressure, kPa	Mass density, kg/m3	uncertainty
298.15	101.325	936.3	2.6

System: N,N-dimethylethanamide; phases: Liquid, Gas
Property: Vapor or sublimation pressure, kPa (Liquid); method: Ebulliometric method (Recirculating still)
Temperature, K	Vapor or sublimation pressure, kPa	uncertainty
399.25	94.7	4.8

System: 1,1,1-trichloroethane + cyclohexane; phases: Liquid, Gas
Fixed: Pressure, kPa = 94.7
Property: Boiling temperature at pressure P, K (Liquid); method: EBULLIO:UFactor:32
Mole fraction of 1,1,1-trichloroethane	Boiling temperature at pressure P, K	uncertainty
0	351.75	1.04
0.1517	349.95	1.04
0.3003	348.35	1.04
0.4459	347.05	1.04
0.5885	346.05	1.04
0.7284	345.55	1.04
0.8655	345.35	1.04
1	345.25	1.04

System: 1,1,2,2-tetrachloroethane + cyclohexane; phases: Liquid, Gas
Fixed: Pressure, kPa = 94.7
Property: Boiling temperature at pressure P, K (Liquid); method: EBULLIO:UFactor:32
Mole fraction of cyclohexane	Boiling temperature at pressure P, K	uncertainty
0	416.95	1.04
0.1399	391.25	1.04
0.2808	377.35	1.04
0.4226	368.45	1.04
0.6373	360.25	1.04
0.7816	356.55	1.04
0.9269	353.45	1.04
1	351.75	1.04

System: 1-chloro-2,3-epoxypropane + cyclohexane; phases: Liquid, Gas
Fixed: Pressure, kPa = 94.7
Property: Boiling temperature at pressure P, K (Liquid); method: EBULLIO:UFactor:32
Mole fraction of cyclohexane	Boiling temperature at pressure P, K	uncertainty
0	388.85	1.04
0.1533	358.55	1.04
0.2805	354.75	1.04
0.4695	352.65	1.04
0.6282	351.55	1.04
0.7433	350.95	1.04
0.8669	350.65	1.04
0.9323	350.75	1.04
0.9726	351.15	1.04
1	351.75	1.04

System: 1,2-dimethoxyethane + cyclohexane; phases: Liquid, Gas
Fixed: Pressure, kPa = 94.7
Property: Boiling temperature at pressure P, K (Liquid); method: EBULLIO:UFactor:32
Mole fraction of cyclohexane	Boiling temperature at pressure P, K	uncertainty
0	356.65	1.04
0.0643	353.95	1.04
0.1382	352.45	1.04
0.2774	350.55	1.04
0.4191	349.85	1.04
0.5619	349.65	1.04
0.7063	349.85	1.04
0.8523	350.55	1.04
0.9013	350.85	1.04
0.9505	351.35	1.04
1	351.75	1.04

System: cyclohexane + 1,4-dioxane; phases: Liquid, Gas
Fixed: Pressure, kPa = 94.7
Property: Boiling temperature at pressure P, K (Liquid); method: EBULLIO:UFactor:32
Mole fraction of cyclohexane	Boiling temperature at pressure P, K	uncertainty
0	373.05	1.04
0.057	360.85	1.04
0.142	357.35	1.04
0.302	355.05	1.04
0.45	353.55	1.04
0.602	352.45	1.04
0.743	351.65	1.04
0.863	351.45	1.04
0.964	351.65	1.04
1	351.75	1.04

System: 2-methylpyridine + cyclohexane; phases: Liquid, Gas
Fixed: Pressure, kPa = 94.7
Property: Boiling temperature at pressure P, K (Liquid); method: EBULLIO:UFactor:32
Mole fraction of cyclohexane	Boiling temperature at pressure P, K	uncertainty
0	400.25	1.04
0.146	377.95	1.04
0.295	368.55	1.04
0.449	363.15	1.04
0.593	359.65	1.04
0.755	356.35	1.04
0.907	353.55	1.04
1	351.75	1.04
1	351.75	1.04

System: dimethylformamide + cyclohexane; phases: Liquid, Gas
Fixed: Pressure, kPa = 94.7
Property: Boiling temperature at pressure P, K (Liquid); method: EBULLIO:UFactor:32
Mole fraction of cyclohexane	Boiling temperature at pressure P, K	uncertainty
0	423.95	1.04
0.14	366.75	1.04
0.302	358.05	1.04
0.41	356.05	1.04
0.6	354.45	1.04
0.746	353.55	1.04
0.905	352.45	1.04
1	351.75	1.04

System: cyclohexane + N,N-dimethylethanamide; phases: Liquid, Gas
Fixed: Pressure, kPa = 94.7
Property: Boiling temperature at pressure P, K (Liquid); method: EBULLIO:UFactor:32
Mole fraction of cyclohexane	Boiling temperature at pressure P, K	uncertainty
0	399.25	1.04
0.1511	375.45	1.04
0.3032	364.25	1.04
0.4484	358.35	1.04
0.6077	354.65	1.04
0.7439	352.85	1.04
0.9018	351.75	1.04
0.9505	351.35	1.04
