Measured thermophysical data. Solubility of Benzimidazoles in Alcohols
Source: J. Chem. Eng. Data, 2003, 10.1021/je020228x
Compound 1: benzimidazole, C7H6N2, InChI=1S/C7H6N2/c1-2-4-7-6(3-1)8-5-9-7/h1-5H,(H,8,9), purity 98%
Compound 2: propan-1-ol, C3H8O, InChI=1S/C3H8O/c1-2-3-4/h4H,2-3H2,1H3, purity 99%
Compound 3: butan-1-ol, C4H10O, InChI=1S/C4H10O/c1-2-3-4-5/h5H,2-4H2,1H3
Compound 4: butan-2-ol, C4H10O, InChI=1S/C4H10O/c1-3-4(2)5/h4-5H,3H2,1-2H3, purity 99%
Compound 5: hexan-1-ol, C6H14O, InChI=1S/C6H14O/c1-2-3-4-5-6-7/h7H,2-6H2,1H3, purity 99%
Compound 6: 2-methylbenzimidazole, C8H8N2, InChI=1S/C8H8N2/c1-6-9-7-4-2-3-5-8(7)10-6/h2-5H,1H3,(H,9,10), purity 98%
Compound 7: 2-methylpropan-2-ol, C4H10O, InChI=1S/C4H10O/c1-4(2,3)5/h5H,1-3H3, purity 99.5%

System: benzimidazole; phases: Crystal, Liquid, Air at 1 atmosphere
Property: Normal melting temperature, K (Crystal); method: DTA
Normal melting temperature, K	uncertainty
445.51	

System: benzimidazole; phases: Crystal
Property: Molar heat capacity at constant pressure, J/K/mol (Crystal); method: Small sample (50 mg) DSC
Temperature, K	Pressure, kPa	Molar heat capacity at constant pressure, J/K/mol	uncertainty
445.51	101.325	49.09	

System: benzimidazole; phases: Crystal, Crystal of unknown type
Property: Molar enthalpy of transition or fusion, kJ/mol (Crystal); method: DSC
Temperature, K	Molar enthalpy of transition or fusion, kJ/mol	uncertainty
445.51	20.472	
384.43	0.71	

System: 2-methylbenzimidazole; phases: Crystal, Liquid, Air at 1 atmosphere
Property: Normal melting temperature, K (Crystal); method: DTA
Normal melting temperature, K	uncertainty
451.43	

System: 2-methylbenzimidazole; phases: Crystal
Property: Molar heat capacity at constant pressure, J/K/mol (Crystal); method: Small sample (50 mg) DSC
Temperature, K	Pressure, kPa	Molar heat capacity at constant pressure, J/K/mol	uncertainty
451.43	101.325	50.58	

System: 2-methylbenzimidazole; phases: Crystal, Crystal of unknown type
Property: Molar enthalpy of transition or fusion, kJ/mol (Crystal); method: DSC
Temperature, K	Molar enthalpy of transition or fusion, kJ/mol	uncertainty
451.43	20.486	
383.93	0.586	

System: 2-methylpropan-2-ol; phases: Crystal, Liquid, Air at 1 atmosphere
Property: Normal melting temperature, K (Crystal); method: VISOBS
Normal melting temperature, K	uncertainty
297.99	0.39

System: benzimidazole + propan-1-ol; phases: Liquid, Crystal 2
Fixed: Pressure, kPa = 101
Property: Solid-liquid equilibrium temperature, K (Liquid); method: VISOBS:UFactor:16
Mole fraction of benzimidazole	Solid-liquid equilibrium temperature, K	uncertainty
0.1055	287.56	2.48
0.1118	291.4	2.48
0.1216	296.91	2.48
0.129	300.82	2.48
0.1355	304.37	2.48
0.1431	310.23	2.48
0.1502	311.26	2.48
0.1666	317.72	2.48
0.1781	323.18	2.49
0.1808	326.96	2.49
0.1952	329.57	2.48
0.1974	330.88	2.48
0.209	333.81	2.48
0.2245	339.21	2.48
0.239	345.93	2.48
0.2565	350.27	2.48
0.264	351.94	2.48
0.2799	355.41	2.48
0.2831	357.17	2.48
0.2979	359.94	2.48

System: benzimidazole + butan-1-ol; phases: Liquid, Crystal 2
Fixed: Pressure, kPa = 101
Property: Solid-liquid equilibrium temperature, K (Liquid); method: VISOBS:UFactor:16
Mole fraction of benzimidazole	Solid-liquid equilibrium temperature, K	uncertainty
0.0919	286.6	2.49
0.0941	288.97	2.49
0.0998	294.57	2.48
0.1057	294.84	2.48
0.1075	297.96	2.5
0.1172	302.38	2.49
0.118	303.47	2.49
0.1277	308.83	2.49
0.1298	311.72	2.49
0.1391	314.5	2.48
0.15	318.9	2.49
0.1522	321.58	2.49
0.1648	326.3	2.48
0.1689	327.43	2.48
0.1734	329.99	2.48
0.182	333.72	2.48
0.1894	337.27	2.48
0.2044	342.17	2.48
0.2114	344.16	2.48
0.2162	344.14	2.48
0.2238	347.72	2.48
0.2308	350.36	2.48
0.2406	354.07	2.48
0.2502	355.87	2.48
0.2566	360.22	2.48

System: benzimidazole + butan-2-ol; phases: Liquid, Crystal 2
Fixed: Pressure, kPa = 101
Property: Solid-liquid equilibrium temperature, K (Liquid); method: VISOBS:UFactor:16
Mole fraction of benzimidazole	Solid-liquid equilibrium temperature, K	uncertainty
0.0902	284.37	2.48
0.0963	289.22	2.48
0.0998	291.73	2.48
0.11	297.98	2.48
0.1142	300.94	2.48
0.1191	302.41	2.48
0.1206	302.84	2.49
0.125	308.51	2.48
0.1321	310.85	2.48
0.136	311.25	2.48
0.1373	312.72	2.48
0.1401	314.24	2.48
0.1453	317.35	2.48
0.1538	321.55	2.48
0.1659	326.49	2.48
0.1732	328.7	2.48
0.1759	331.07	2.48
0.1924	335.54	2.48
0.2042	340.21	2.48
0.2156	342.69	2.48
0.2242	347.17	2.48
0.2345	351.61	2.48
0.248	352.49	2.48
0.2617	358.89	2.48
0.275	362.64	2.48
0.2817	362.9	2.48
0.2884	363.61	2.48

System: benzimidazole + 2-methylpropan-2-ol; phases: Liquid, Crystal 2
Fixed: Pressure, kPa = 101
Property: Solid-liquid equilibrium temperature, K (Liquid); method: VISOBS:UFactor:16
Mole fraction of benzimidazole	Solid-liquid equilibrium temperature, K	uncertainty
0.0947	286.6	2.48
0.1006	289.55	2.48
0.1057	293.83	2.48
0.1095	295.61	2.48
0.1177	297.56	2.48
0.1282	302.82	2.48
0.1304	303.77	2.48
0.1389	307.41	2.48
0.1487	313.77	2.48
0.1578	314.79	2.48
0.1656	325.94	2.88
0.1665	319.33	2.88
0.1783	329.86	2.48
0.1919	334.69	2.48
0.21	347.73	2.48
0.2209	350.44	2.48
0.2246	355.08	2.49

System: benzimidazole + 2-methylpropan-2-ol; phases: Liquid, Crystal 1
Fixed: Pressure, kPa = 101
Property: Solid-liquid equilibrium temperature, K (Liquid); method: VISOBS:UFactor:16
Mole fraction of benzimidazole	Solid-liquid equilibrium temperature, K	uncertainty
0	297.99	2.48
0.005	297.31	2.48
0.0087	296.95	2.48
0.0191	296.46	2.48
0.0314	295.55	2.48
0.0508	293.84	2.48
0.0595	292.49	2.48
0.0682	290.99	2.48
0.0772	289.72	2.48
0.086	287.79	2.48

System: benzimidazole + hexan-1-ol; phases: Liquid, Crystal 2
Fixed: Pressure, kPa = 101
Property: Solid-liquid equilibrium temperature, K (Liquid); method: VISOBS:UFactor:16
Mole fraction of benzimidazole	Solid-liquid equilibrium temperature, K	uncertainty
0.0962	273.59	2.53
0.0992	281.15	2.5
0.1058	288.15	2.49
0.1129	293.62	2.48
0.1199	296.9	2.48
0.1283	301.82	2.48
0.1373	308.12	2.48
0.149	313.53	2.48
0.1542	315.01	2.48
0.1573	316.84	2.48
0.1693	322.69	2.48
0.174	324.23	2.48
0.1864	329.68	2.48
0.1934	332.19	2.48
0.1989	333.55	2.48
0.2062	337.85	2.48
0.2139	342.46	2.48
0.232	346.11	2.48
0.2429	348.97	2.48
0.2638	355.75	2.48
0.2781	360.8	2.48
0.2916	363.81	2.48

System: propan-1-ol + 2-methylbenzimidazole; phases: Liquid, Crystal 2
Fixed: Pressure, kPa = 101
Property: Solid-liquid equilibrium temperature, K (Liquid); method: VISOBS:UFactor:16
Mole fraction of 2-methylbenzimidazole	Solid-liquid equilibrium temperature, K	uncertainty
0.1059	277.43	2.48
0.1189	282.77	2.48
0.1297	289.45	2.48
0.1398	294.09	2.48
0.1514	300.91	2.48
0.1581	307.31	2.69
0.1585	305.2	2.69
0.1644	305.99	2.48
0.1706	308.52	2.48
0.1826	313.71	2.48
0.1873	314.19	2.48
0.1941	317.88	2.48
0.1998	318.98	2.48
0.2141	323.92	2.48
0.2185	326.25	2.48
0.2258	327.65	2.48
0.2476	333.02	2.48
0.259	337.14	2.48
0.271	342.15	2.48
0.2859	346.78	2.48
0.3009	352.63	2.48
0.3222	358.03	2.48
0.3466	363.76	2.48
0.3593	366.87	2.48

System: butan-1-ol + 2-methylbenzimidazole; phases: Liquid, Crystal 2
Fixed: Pressure, kPa = 101
Property: Solid-liquid equilibrium temperature, K (Liquid); method: VISOBS:UFactor:16
Mole fraction of 2-methylbenzimidazole	Solid-liquid equilibrium temperature, K	uncertainty
0.113	278.04	2.48
0.1225	282.73	2.48
0.1253	286.75	2.48
0.1359	291.07	2.48
0.1481	297.12	2.48
0.1569	302.01	2.48
0.1624	305.5	2.48
0.1689	309.46	2.48
0.1745	314.63	2.48
0.1891	316.53	2.48
0.1947	320.58	2.48
0.2087	325.3	2.48
0.2212	330.66	2.48
0.2353	336.73	2.48
0.2438	339.56	2.48
0.2569	342.96	2.48
0.2687	347.1	2.48
0.2872	352.1	2.48
0.2981	356.64	2.48
0.3198	361.42	2.48

System: butan-2-ol + 2-methylbenzimidazole; phases: Liquid, Crystal 2
Fixed: Pressure, kPa = 101
Property: Solid-liquid equilibrium temperature, K (Liquid); method: VISOBS:UFactor:16
Mole fraction of 2-methylbenzimidazole	Solid-liquid equilibrium temperature, K	uncertainty
0.1054	283.43	2.49
0.1106	288.44	2.48
0.118	292.13	2.48
0.1279	297.42	2.48
0.1394	303.65	2.48
0.1456	308.47	2.48
0.1543	311.98	2.48
0.1625	315.04	2.48
0.1779	320.37	2.48
0.1898	325.74	2.48
0.2016	330.66	2.48
0.2173	334.16	2.48
0.2276	337.02	2.48
0.2362	340.57	2.48
0.2474	344.6	2.48
0.261	348.85	2.48
0.2732	352.64	2.48
0.2907	358.32	2.48

System: 2-methylpropan-2-ol + 2-methylbenzimidazole; phases: Liquid, Crystal 2
Fixed: Pressure, kPa = 101
Property: Solid-liquid equilibrium temperature, K (Liquid); method: VISOBS:UFactor:16
Mole fraction of 2-methylbenzimidazole	Solid-liquid equilibrium temperature, K	uncertainty
0.0967	281.71	2.48
0.1022	284.86	2.48
0.1071	288.25	2.49
0.1116	294.21	2.48
0.1191	294.76	2.48
0.1245	296.88	2.48
0.1292	300.99	2.48
0.1324	301.91	2.48
0.141	306.76	2.48
0.147	308.77	2.48
0.1536	312.72	2.48
0.1643	319.28	2.48
0.1778	325.81	2.48
0.1994	332.38	2.48
0.2074	335.43	2.48
0.2195	339.46	2.48
0.2305	344.49	2.48
0.2446	349.46	2.48
0.249	352.95	2.48

System: 2-methylpropan-2-ol + 2-methylbenzimidazole; phases: Liquid, Crystal 1
Fixed: Pressure, kPa = 101
Property: Solid-liquid equilibrium temperature, K (Liquid); method: VISOBS:UFactor:16
Mole fraction of 2-methylbenzimidazole	Solid-liquid equilibrium temperature, K	uncertainty
0	297.99	2.48
0.0018	297.6	2.48
0.0055	297	2.48
0.0145	296	2.48
0.0217	295.36	2.48
0.0297	294.91	2.48
0.0339	294.5	2.48
0.0376	292.99	2.48
0.0428	293	2.48
0.0576	289.84	2.48
0.0594	290.68	2.48
0.0667	289.8	2.48
0.0751	288.83	2.48
0.0811	287.08	2.48
0.0887	283.83	2.48

System: hexan-1-ol + 2-methylbenzimidazole; phases: Liquid, Crystal 2
Fixed: Pressure, kPa = 101
Property: Solid-liquid equilibrium temperature, K (Liquid); method: VISOBS:UFactor:16
Mole fraction of 2-methylbenzimidazole	Solid-liquid equilibrium temperature, K	uncertainty
0.1258	273.86	2.54
0.127	277.16	2.49
0.1304	280.13	2.49
0.1334	283.14	2.49
0.1343	283.87	2.48
0.1353	284.74	2.48
0.1379	286.04	2.48
0.139	286.62	2.48
0.1424	289.63	2.48
0.1465	291.13	2.48
0.1517	293.96	2.48
0.1558	294.71	2.48
0.1635	298.98	2.48
0.1694	302.95	2.48
0.1781	307.44	2.48
0.1889	313.58	2.48
0.198	319.12	2.48
0.2081	321.72	2.48
0.2166	325.18	2.48
0.2189	326.44	2.48
0.2353	332.42	2.48
0.25	340.48	2.48
0.2657	345.49	2.48
0.2767	351.01	2.48
0.2856	354.7	2.48
0.2972	356.85	2.48
0.3091	361.23	2.48
0.324	366.25	2.48
0.3394	368.67	2.48
