Measured thermophysical data. VLE and VLLE Measurements of Dimethyl Ether Containing Systems. 2
Source: J. Chem. Eng. Data, 2003, 10.1021/je025599s
Compound 1: carbon dioxide, CO2, InChI=1S/CO2/c2-1-3
Compound 2: dimethyl ether, C2H6O, InChI=1S/C2H6O/c1-3-2/h1-2H3
Compound 3: ethanol, C2H6O, InChI=1S/C2H6O/c1-2-3/h3H,2H2,1H3
Compound 4: propan-1-ol, C3H8O, InChI=1S/C3H8O/c1-2-3-4/h4H,2-3H2,1H3

System: propan-1-ol + carbon dioxide; phases: Liquid, Gas
Property: Vapor or sublimation pressure, kPa (Liquid); method: CCELL:UFactor:8
Mole fraction of carbon dioxide	Temperature, K	Vapor or sublimation pressure, kPa	uncertainty
0.0185	308.15	470	30
0.02	318.15	540	20
0.0359	308.15	820	30
0.0534	318.15	1210	30
0.0836	318.15	1840	50
0.0848	308.15	1630	50
0.1276	318.15	2500	60
0.1508	308.15	2560	80
0.1657	318.15	3220	80
0.2202	308.15	3570	110
0.2276	318.15	4050	100
0.2892	318.15	4920	130
0.3385	308.15	4850	150
0.3502	318.15	5670	150
0.4068	308.15	5470	170
0.4142	308.15	5570	180
0.4428	318.15	6660	180
0.5269	318.15	7370	230
0.5281	308.15	6430	200
0.6765	308.15	6910	220
0.7001	318.15	8330	260

System: propan-1-ol + carbon dioxide; phases: Gas, Liquid
Property: Mole fraction of carbon dioxide (Gas); method: Chromatography
Mole fraction of carbon dioxide	Temperature, K	Mole fraction of carbon dioxide	uncertainty
0.0185	308.15	0.9864	0.0021
0.02	318.15	0.9855	0.0021
0.0359	308.15	0.9924	0.002
0.0534	318.15	0.9934	0.002
0.0836	318.15	0.9958	0.002
0.0848	308.15	0.9964	0.002
0.1276	318.15	0.9964	0.002
0.1508	308.15	0.9968	0.002
0.1657	318.15	0.9965	0.002
0.2202	308.15	0.9964	0.002
0.2276	318.15	0.9971	0.002
0.2892	318.15	0.9966	0.002
0.3385	308.15	0.997	0.002
0.3502	318.15	0.9964	0.002
0.4068	308.15	0.9943	0.002
0.4142	308.15	0.9961	0.002
0.4428	318.15	0.9949	0.002
0.5269	318.15	0.9923	0.002
0.5281	308.15	0.9957	0.002
0.6765	308.15	0.9952	0.002
0.7001	318.15	0.9876	0.002

System: ethanol + dimethyl ether; phases: Liquid, Gas
Property: Mole fraction of dimethyl ether (Liquid); method: Chromatography
Temperature, K	Pressure, kPa	Mole fraction of dimethyl ether	uncertainty
298.15	420	0.5601	0.0051
308.15	530	0.5319	0.0052
318.15	610	0.4715	0.0052

System: ethanol + dimethyl ether; phases: Gas, Liquid
Property: Mole fraction of dimethyl ether (Gas); method: Chromatography
Temperature, K	Pressure, kPa	Mole fraction of dimethyl ether	uncertainty
298.15	420	0.9883	0.002
308.15	530	0.9846	0.002
318.15	610	0.9863	0.002

System: propan-1-ol + dimethyl ether; phases: Liquid, Gas
Property: Mole fraction of dimethyl ether (Liquid); method: Chromatography
Temperature, K	Pressure, kPa	Mole fraction of dimethyl ether	uncertainty
298.15	430	0.5901	0.0036
308.15	520	0.1741	0.0024
318.15	630	0.5707	0.0037

System: propan-1-ol + dimethyl ether; phases: Gas, Liquid
Property: Mole fraction of dimethyl ether (Gas); method: Chromatography
Temperature, K	Pressure, kPa	Mole fraction of dimethyl ether	uncertainty
298.15	430	0.995	0.002
308.15	520	0.9949	0.002
318.15	630	0.9937	0.002

System: ethanol + dimethyl ether + carbon dioxide; phases: Liquid, Gas
Property: Mole fraction of dimethyl ether (Liquid); method: Chromatography
Property: Mole fraction of dimethyl ether (Gas); method: Chromatography
Property: Mole fraction of carbon dioxide (Gas); method: Chromatography
Temperature, K	Pressure, kPa	Mole fraction of carbon dioxide	Mole fraction of dimethyl ether	uncertainty	Mole fraction of dimethyl ether	uncertainty	Mole fraction of carbon dioxide	uncertainty
298.15	420	0	0.5601	0.0051	0.9883	0.002	0	
298.15	1120	0.1153	0.4991	0.0053	0.3542	0.0036	0.6411	
298.15	1760	0.2242	0.4387	0.0051	0.212	0.0027	0.7846	
298.15	2170	0.2915	0.3974	0.0049	0.1701	0.0025	0.8269	
298.15	2550	0.3521	0.3698	0.0048	0.1381	0.0023	0.8591	
298.15	3180	0.4538	0.3132	0.0046	0.1068	0.0022	0.8904	
308.15	530	0	0.5319	0.0052	0.9846	0.002	0	
308.15	1070	0.0722	0.4921	0.0053	0.4811	0.0046	0.51	
308.15	1620	0.149	0.4558	0.0051	0.305	0.0033	0.6901	
308.15	2170	0.2235	0.4162	0.005	0.2239	0.0028	0.7712	
308.15	2650	0.2876	0.3832	0.0048	0.1761	0.0025	0.8202	
308.15	3110	0.3509	0.3504	0.0047	0.1452	0.0023	0.8517	
308.15	3570	0.4103	0.3181	0.0046	0.1256	0.0023	0.8711	
318.15	610	0	0.4715	0.0052	0.9863	0.002	0	
318.15	1150	0.0551	0.4435	0.0051	0.5243	0.0045	0.4675	
318.15	1580	0.1032	0.4231	0.005	0.3744	0.0038	0.6197	
318.15	2140	0.1638	0.3965	0.0049	0.2719	0.0031	0.7226	
318.15	2630	0.2168	0.37	0.0048	0.2198	0.0027	0.7755	
318.15	3130	0.2708	0.3473	0.0047	0.1793	0.0025	0.8168	
318.15	3800	0.3486	0.3133	0.0046	0.1441	0.0023	0.8521	

System: propan-1-ol + dimethyl ether + carbon dioxide; phases: Liquid, Gas
Property: Mole fraction of dimethyl ether (Liquid); method: Chromatography
Property: Mole fraction of dimethyl ether (Gas); method: Chromatography
Property: Mole fraction of carbon dioxide (Gas); method: Chromatography
Temperature, K	Pressure, kPa	Mole fraction of carbon dioxide	Mole fraction of dimethyl ether	uncertainty	Mole fraction of dimethyl ether	uncertainty	Mole fraction of carbon dioxide	uncertainty
298.15	430	0	0.5901	0.0036	0.995	0.002	0	
298.15	1080	0.1024	0.5518	0.0038	0.398	0.0039	0.5998	
298.15	1720	0.2118	0.4872	0.004	0.242	0.0029	0.7564	
298.15	2160	0.2792	0.4459	0.0038	0.1865	0.0026	0.812	
298.15	2720	0.3597	0.3953	0.0034	0.1409	0.0023	0.8577	
298.15	3130	0.3734	0.3827	0.0034	0.1197	0.0022	0.879	
308.15	520	0	0.1741	0.0024	0.9949	0.002	0	
308.15	1190	0.0836	0.4987	0.0041	0.4345	0.0042	0.5623	
308.15	1630	0.1429	0.4842	0.004	0.3136	0.0033	0.684	
308.15	2260	0.2232	0.4294	0.0037	0.2288	0.0028	0.7695	
308.15	2700	0.281	0.4012	0.0035	0.1852	0.0025	0.8128	
308.15	3230	0.3523	0.3624	0.0033	0.1509	0.0024	0.8474	
318.15	630	0	0.5707	0.0037	0.9937	0.002	0	
318.15	1220	0.06	0.5037	0.0041	0.5615	0.0043	0.4304	
318.15	1800	0.1246	0.4763	0.004	0.3599	0.0037	0.6367	
318.15	2270	0.1813	0.4552	0.0038	0.2756	0.0031	0.7219	
318.15	2920	0.248	0.416	0.0036	0.2203	0.0027	0.7774	
318.15	3510	0.316	0.377	0.0033	0.1801	0.0025	0.8176	
