Measured thermophysical data. Gaseous PVT Behavior of 1,1,1,2,3,3,3-Heptafluoropropane
Source: J. Chem. Eng. Data, 2003, 10.1021/je025582+
Compound 1: 1,1,1,2,3,3,3-heptafluoropropane, C3HF7, InChI=1S/C3HF7/c4-1(2(5,6)7)3(8,9)10/h1H, purity 99.9%

System: 1,1,1,2,3,3,3-heptafluoropropane; phases: Gas
Property: 2nd virial coefficient, m3/mol (Gas); method: DERIVED:3rdvir
Temperature, K	2nd virial coefficient, m3/mol	uncertainty
318.15	-0.0005603	1.7e-05
323.15	-0.0005381	1.7e-05
328.15	-0.000517	1.7e-05
333.15	-0.000497	1.7e-05
338.15	-0.0004781	1.7e-05
343.15	-0.0004601	1.7e-05
348.15	-0.000443	1.7e-05
380.15	-0.0003509	1.7e-05

System: 1,1,1,2,3,3,3-heptafluoropropane; phases: Gas
Property: Mass density, kg/m3 (Gas); method: OTHER
Temperature, K	Pressure, kPa	Mass density, kg/m3	uncertainty
318.15	122.2	8.07	0.1
318.15	167.7	11.21	0.11
318.15	230.1	15.57	0.11
318.15	312	21.61	0.12
318.15	421	30.01	0.13
318.15	561.3	41.67	0.15
318.15	734.2	57.85	0.17
321.15	123.2	8.06	0.1
321.15	169.3	11.2	0.1
321.15	232.2	15.54	0.11
321.15	315.4	21.58	0.12
321.15	425.5	29.97	0.13
321.15	568	41.61	0.15
321.15	744.1	57.77	0.16
324.15	124.4	8.05	0.1
324.15	170.9	11.18	0.1
324.15	234.2	15.53	0.11
324.15	318.6	21.56	0.12
324.15	430.2	29.93	0.13
324.15	574.9	41.56	0.14
324.15	754	57.71	0.16
327.15	125.7	8.04	0.1
327.15	172.6	11.17	0.1
327.15	236.2	15.51	0.11
327.15	321.9	21.53	0.11
327.15	434.8	29.9	0.12
327.15	581.5	41.52	0.14
327.15	763.9	57.65	0.17
327.15	982.1	80.04	0.2
330.15	126.8	8.04	0.1
330.15	132	8.39	0.1
330.15	174.3	11.16	0.1
330.15	181.5	11.64	0.1
330.15	238.5	15.5	0.11
330.15	248.3	16.17	0.11
330.15	325.2	21.51	0.11
330.15	338.6	22.45	0.11
330.15	439.5	29.87	0.12
330.15	457.7	31.17	0.12
330.15	588.3	41.48	0.13
330.15	611.2	43.28	0.14
330.15	774.3	57.59	0.15
330.15	803.6	60.09	0.16
330.15	998.1	79.97	0.2
333.15	128	8.03	0.1
333.15	175.9	11.15	0.1
333.15	240.7	15.48	0.1
333.15	328.6	21.5	0.11
333.15	444.3	29.85	0.12
333.15	595.3	41.45	0.14
333.15	784.6	57.55	0.16
333.15	1013.2	79.91	0.19
336.15	129	8.03	0.1
336.15	177.7	11.14	0.1
336.15	243.4	15.47	0.1
336.15	331.9	21.49	0.11
336.15	449.1	29.83	0.12
336.15	602.5	41.42	0.14
336.15	795.1	57.52	0.16
336.15	1029.1	79.86	0.19
339.15	130.1	8.02	0.1
339.15	179.3	11.14	0.1
339.15	245.7	15.47	0.1
339.15	334.9	21.48	0.11
339.15	454.4	29.82	0.12
339.15	609.6	41.4	0.13
339.15	804.6	57.49	0.16
339.15	1044.6	79.83	0.2
339.15	1310.5	110.84	0.24
342.15	131.3	8.02	0.09
342.15	181.1	11.14	0.1
342.15	248.2	15.46	0.1
342.15	338.6	21.47	0.11
342.15	459.3	29.81	0.12
342.15	616.9	41.39	0.13
342.15	815	57.47	0.16
342.15	1059.6	79.8	0.2
342.15	1333.9	110.8	0.24
345.15	132.5	8.02	0.09
345.15	182.4	11.13	0.1
345.15	250.2	15.46	0.1
345.15	341.9	21.47	0.11
345.15	464	29.81	0.12
345.15	624.2	41.39	0.13
345.15	826.2	57.46	0.15
345.15	1074.6	79.79	0.19
345.15	1358	110.79	0.23
380.15	269.4	14.93	0.09
380.15	369.5	20.73	0.09
380.15	503.4	28.78	0.1
380.15	683	39.96	0.11
380.15	918.3	55.48	0.13
380.15	1215.9	77.04	0.16
380.15	1582.9	106.97	0.21
380.15	2004.6	148.52	0.28
380.15	2446.1	206.22	0.4
380.15	2832.9	286.34	0.53
