Measured thermophysical data. Solubilities of Nonpolar Gases in Triethylene Glycol Dimethyl Ether, Tetraethylene Glycol Dimethyl Ether, Dimethyl Carbonate, and Diethyl Carbonate at 298.15 K and 101.33 kPa Partial Pressure of Gas
Source: J. Chem. Eng. Data, 2003, 10.1021/je020199q
Compound 1: 2,5,8,11-tetraoxadodecane, C8H18O4, InChI=1S/C8H18O4/c1-9-3-5-11-7-8-12-6-4-10-2/h3-8H2,1-2H3, purity 99%
Compound 2: helium, He, InChI=1S/He, purity 99.995%
Compound 3: neon, Ne, InChI=1S/Ne, purity 99.9%
Compound 4: argon, Ar, InChI=1S/Ar, purity 99.999%
Compound 5: krypton, Kr, InChI=1S/Kr, purity 99.95%
Compound 6: xenon, Xe, InChI=1S/Xe, purity 99.995%
Compound 7: hydrogen, H2, InChI=1S/H2/h1H, purity 99.99%
Compound 8: nitrogen, N2, InChI=1S/N2/c1-2, purity 99.998%
Compound 9: methane, CH4, InChI=1S/CH4/h1H4, purity 99.95%
Compound 10: ethene, C2H4, InChI=1S/C2H4/c1-2/h1-2H2, purity 99%
Compound 11: ethane, C2H6, InChI=1S/C2H6/c1-2/h1-2H3, purity 99.9%
Compound 12: tetrafluoromethane, CF4, InChI=1S/CF4/c2-1(3,4)5, purity 99.999%
Compound 13: sulfur hexafluoride, F6S, InChI=1S/F6S/c1-7(2,3,4,5)6, purity 99.5%
Compound 14: 2,5,8,11,14-pentaoxapentadecane, C10H22O5, InChI=1S/C10H22O5/c1-11-3-5-13-7-9-15-10-8-14-6-4-12-2/h3-10H2,1-2H3, purity 99%
Compound 15: dimethyl carbonate, C3H6O3, InChI=1S/C3H6O3/c1-5-3(4)6-2/h1-2H3, purity 99%
Compound 16: diethyl carbonate, C5H10O3, InChI=1S/C5H10O3/c1-3-7-5(6)8-4-2/h3-4H2,1-2H3, purity 99.5%

System: 2,5,8,11-tetraoxadodecane + helium; phases: Liquid, Gas
Property: Mole fraction of helium (Liquid); method: OTHER
Pressure, kPa of helium	Temperature, K	Mole fraction of helium	uncertainty
101.33	298.15	0.0001484	1.5e-06

System: 2,5,8,11-tetraoxadodecane + neon; phases: Liquid, Gas
Property: Mole fraction of neon (Liquid); method: OTHER
Pressure, kPa of neon	Temperature, K	Mole fraction of neon	uncertainty
101.33	298.15	0.0001582	1.6e-06

System: 2,5,8,11-tetraoxadodecane + argon; phases: Liquid, Gas
Property: Mole fraction of argon (Liquid); method: OTHER
Pressure, kPa of argon	Temperature, K	Mole fraction of argon	uncertainty
101.33	298.15	0.001095	1.1e-05

System: 2,5,8,11-tetraoxadodecane + krypton; phases: Liquid, Gas
Property: Mole fraction of krypton (Liquid); method: OTHER
Pressure, kPa of krypton	Temperature, K	Mole fraction of krypton	uncertainty
101.33	298.15	0.003175	3.2e-05

System: 2,5,8,11-tetraoxadodecane + xenon; phases: Liquid, Gas
Property: Mole fraction of xenon (Liquid); method: OTHER
Pressure, kPa of xenon	Temperature, K	Mole fraction of xenon	uncertainty
101.33	298.15	0.01284	0.00013

System: 2,5,8,11-tetraoxadodecane + hydrogen; phases: Liquid, Gas
Property: Mole fraction of hydrogen (Liquid); method: OTHER
Pressure, kPa of hydrogen	Temperature, K	Mole fraction of hydrogen	uncertainty
101.33	298.15	0.0003525	3.5e-06

System: 2,5,8,11-tetraoxadodecane + nitrogen; phases: Liquid, Gas
Property: Mole fraction of nitrogen (Liquid); method: OTHER
Pressure, kPa of nitrogen	Temperature, K	Mole fraction of nitrogen	uncertainty
101.33	298.15	0.0005574	5.6e-06

System: methane + 2,5,8,11-tetraoxadodecane; phases: Liquid, Gas
Property: Mole fraction of methane (Liquid); method: OTHER
Pressure, kPa of methane	Temperature, K	Mole fraction of methane	uncertainty
101.33	298.15	0.002436	2.4e-05

System: ethene + 2,5,8,11-tetraoxadodecane; phases: Liquid, Gas
Property: Mole fraction of ethene (Liquid); method: OTHER
Pressure, kPa of ethene	Temperature, K	Mole fraction of ethene	uncertainty
101.33	298.15	0.01585	0.00016

System: ethane + 2,5,8,11-tetraoxadodecane; phases: Liquid, Gas
Property: Mole fraction of ethane (Liquid); method: OTHER
Pressure, kPa of ethane	Temperature, K	Mole fraction of ethane	uncertainty
101.33	298.15	0.01407	0.00014

System: tetrafluoromethane + 2,5,8,11-tetraoxadodecane; phases: Liquid, Gas
Property: Mole fraction of tetrafluoromethane (Liquid); method: OTHER
Pressure, kPa of tetrafluoromethane	Temperature, K	Mole fraction of tetrafluoromethane	uncertainty
101.33	298.15	0.0005696	5.7e-06

System: 2,5,8,11-tetraoxadodecane + sulfur hexafluoride; phases: Liquid, Gas
Property: Mole fraction of sulfur hexafluoride (Liquid); method: OTHER
Pressure, kPa of sulfur hexafluoride	Temperature, K	Mole fraction of sulfur hexafluoride	uncertainty
101.33	298.15	0.002314	2.3e-05

System: 2,5,8,11,14-pentaoxapentadecane + helium; phases: Liquid, Gas
Property: Mole fraction of helium (Liquid); method: OTHER
Pressure, kPa of helium	Temperature, K	Mole fraction of helium	uncertainty
101.33	298.15	0.0001117	1.1e-06

System: 2,5,8,11,14-pentaoxapentadecane + neon; phases: Liquid, Gas
Property: Mole fraction of neon (Liquid); method: OTHER
Pressure, kPa of neon	Temperature, K	Mole fraction of neon	uncertainty
101.33	298.15	0.0001582	1.6e-06

System: 2,5,8,11,14-pentaoxapentadecane + argon; phases: Liquid, Gas
Property: Mole fraction of argon (Liquid); method: OTHER
Pressure, kPa of argon	Temperature, K	Mole fraction of argon	uncertainty
101.33	298.15	0.00115	1.2e-05

System: 2,5,8,11,14-pentaoxapentadecane + krypton; phases: Liquid, Gas
Property: Mole fraction of krypton (Liquid); method: OTHER
Pressure, kPa of krypton	Temperature, K	Mole fraction of krypton	uncertainty
101.33	298.15	0.003371	3.4e-05

System: 2,5,8,11,14-pentaoxapentadecane + xenon; phases: Liquid, Gas
Property: Mole fraction of xenon (Liquid); method: OTHER
Pressure, kPa of xenon	Temperature, K	Mole fraction of xenon	uncertainty
101.33	298.15	0.01365	0.00014

System: 2,5,8,11,14-pentaoxapentadecane + hydrogen; phases: Liquid, Gas
Property: Mole fraction of hydrogen (Liquid); method: OTHER
Pressure, kPa of hydrogen	Temperature, K	Mole fraction of hydrogen	uncertainty
101.33	298.15	0.0003726	3.7e-06

System: 2,5,8,11,14-pentaoxapentadecane + nitrogen; phases: Liquid, Gas
Property: Mole fraction of nitrogen (Liquid); method: OTHER
Pressure, kPa of nitrogen	Temperature, K	Mole fraction of nitrogen	uncertainty
101.33	298.15	0.0005719	5.7e-06

System: methane + 2,5,8,11,14-pentaoxapentadecane; phases: Liquid, Gas
Property: Mole fraction of methane (Liquid); method: OTHER
Pressure, kPa of methane	Temperature, K	Mole fraction of methane	uncertainty
101.33	298.15	0.002548	2.5e-05

System: ethene + 2,5,8,11,14-pentaoxapentadecane; phases: Liquid, Gas
Property: Mole fraction of ethene (Liquid); method: OTHER
Pressure, kPa of ethene	Temperature, K	Mole fraction of ethene	uncertainty
101.33	298.15	0.01677	0.00017

System: ethane + 2,5,8,11,14-pentaoxapentadecane; phases: Liquid, Gas
Property: Mole fraction of ethane (Liquid); method: OTHER
Pressure, kPa of ethane	Temperature, K	Mole fraction of ethane	uncertainty
101.33	298.15	0.01444	0.00014

System: tetrafluoromethane + 2,5,8,11,14-pentaoxapentadecane; phases: Liquid, Gas
Property: Mole fraction of tetrafluoromethane (Liquid); method: OTHER
Pressure, kPa of tetrafluoromethane	Temperature, K	Mole fraction of tetrafluoromethane	uncertainty
101.33	298.15	0.0005215	5.2e-06

System: 2,5,8,11,14-pentaoxapentadecane + sulfur hexafluoride; phases: Liquid, Gas
Property: Mole fraction of sulfur hexafluoride (Liquid); method: OTHER
Pressure, kPa of sulfur hexafluoride	Temperature, K	Mole fraction of sulfur hexafluoride	uncertainty
101.33	298.15	0.002184	2.2e-05

System: dimethyl carbonate + helium; phases: Liquid, Gas
Property: Mole fraction of helium (Liquid); method: OTHER
Pressure, kPa of helium	Temperature, K	Mole fraction of helium	uncertainty
101.33	298.15	0.0001001	1e-06

System: dimethyl carbonate + neon; phases: Liquid, Gas
Property: Mole fraction of neon (Liquid); method: OTHER
Pressure, kPa of neon	Temperature, K	Mole fraction of neon	uncertainty
101.33	298.15	0.0001264	1.3e-06

System: dimethyl carbonate + argon; phases: Liquid, Gas
Property: Mole fraction of argon (Liquid); method: OTHER
Pressure, kPa of argon	Temperature, K	Mole fraction of argon	uncertainty
101.33	298.15	0.0008042	8e-06

System: dimethyl carbonate + krypton; phases: Liquid, Gas
Property: Mole fraction of krypton (Liquid); method: OTHER
Pressure, kPa of krypton	Temperature, K	Mole fraction of krypton	uncertainty
101.33	298.15	0.002077	2.1e-05

System: dimethyl carbonate + xenon; phases: Liquid, Gas
Property: Mole fraction of xenon (Liquid); method: OTHER
Pressure, kPa of xenon	Temperature, K	Mole fraction of xenon	uncertainty
101.33	298.15	0.007227	7.2e-05

System: dimethyl carbonate + hydrogen; phases: Liquid, Gas
Property: Mole fraction of hydrogen (Liquid); method: OTHER
Pressure, kPa of hydrogen	Temperature, K	Mole fraction of hydrogen	uncertainty
101.33	298.15	0.0002417	2.4e-06

System: dimethyl carbonate + nitrogen; phases: Liquid, Gas
Property: Mole fraction of nitrogen (Liquid); method: OTHER
Pressure, kPa of nitrogen	Temperature, K	Mole fraction of nitrogen	uncertainty
101.33	298.15	0.000496	5e-06

System: methane + dimethyl carbonate; phases: Liquid, Gas
Property: Mole fraction of methane (Liquid); method: OTHER
Pressure, kPa of methane	Temperature, K	Mole fraction of methane	uncertainty
101.33	298.15	0.001604	1.6e-05

System: ethene + dimethyl carbonate; phases: Liquid, Gas
Property: Mole fraction of ethene (Liquid); method: OTHER
Pressure, kPa of ethene	Temperature, K	Mole fraction of ethene	uncertainty
101.33	298.15	0.009844	9.8e-05

System: ethane + dimethyl carbonate; phases: Liquid, Gas
Property: Mole fraction of ethane (Liquid); method: OTHER
Pressure, kPa of ethane	Temperature, K	Mole fraction of ethane	uncertainty
101.33	298.15	0.008388	8.4e-05

System: tetrafluoromethane + dimethyl carbonate; phases: Liquid, Gas
Property: Mole fraction of tetrafluoromethane (Liquid); method: OTHER
Pressure, kPa of tetrafluoromethane	Temperature, K	Mole fraction of tetrafluoromethane	uncertainty
101.33	298.15	0.0006871	6.9e-06

System: dimethyl carbonate + sulfur hexafluoride; phases: Liquid, Gas
Property: Mole fraction of sulfur hexafluoride (Liquid); method: OTHER
Pressure, kPa of sulfur hexafluoride	Temperature, K	Mole fraction of sulfur hexafluoride	uncertainty
101.33	298.15	0.002925	2.9e-05

System: diethyl carbonate + helium; phases: Liquid, Gas
Property: Mole fraction of helium (Liquid); method: OTHER
Pressure, kPa of helium	Temperature, K	Mole fraction of helium	uncertainty
101.33	298.15	0.000156	1.6e-06

System: diethyl carbonate + neon; phases: Liquid, Gas
Property: Mole fraction of neon (Liquid); method: OTHER
Pressure, kPa of neon	Temperature, K	Mole fraction of neon	uncertainty
101.33	298.15	0.0002087	2.1e-06

System: diethyl carbonate + argon; phases: Liquid, Gas
Property: Mole fraction of argon (Liquid); method: OTHER
Pressure, kPa of argon	Temperature, K	Mole fraction of argon	uncertainty
101.33	298.15	0.001338	1.3e-05

System: diethyl carbonate + krypton; phases: Liquid, Gas
Property: Mole fraction of krypton (Liquid); method: OTHER
Pressure, kPa of krypton	Temperature, K	Mole fraction of krypton	uncertainty
101.33	298.15	0.00368	3.7e-05

System: diethyl carbonate + xenon; phases: Liquid, Gas
Property: Mole fraction of xenon (Liquid); method: OTHER
Pressure, kPa of xenon	Temperature, K	Mole fraction of xenon	uncertainty
101.33	298.15	0.01312	0.00013

System: diethyl carbonate + hydrogen; phases: Liquid, Gas
Property: Mole fraction of hydrogen (Liquid); method: OTHER
Pressure, kPa of hydrogen	Temperature, K	Mole fraction of hydrogen	uncertainty
101.33	298.15	0.0003898	3.9e-06

System: diethyl carbonate + nitrogen; phases: Liquid, Gas
Property: Mole fraction of nitrogen (Liquid); method: OTHER
Pressure, kPa of nitrogen	Temperature, K	Mole fraction of nitrogen	uncertainty
101.33	298.15	0.0007657	7.7e-06

System: methane + diethyl carbonate; phases: Liquid, Gas
Property: Mole fraction of methane (Liquid); method: OTHER
Pressure, kPa of methane	Temperature, K	Mole fraction of methane	uncertainty
101.33	298.15	0.002729	2.7e-05

System: ethene + diethyl carbonate; phases: Liquid, Gas
Property: Mole fraction of ethene (Liquid); method: OTHER
Pressure, kPa of ethene	Temperature, K	Mole fraction of ethene	uncertainty
101.33	298.15	0.01573	0.00016

System: ethane + diethyl carbonate; phases: Liquid, Gas
Property: Mole fraction of ethane (Liquid); method: OTHER
Pressure, kPa of ethane	Temperature, K	Mole fraction of ethane	uncertainty
101.33	298.15	0.01559	0.00016

System: tetrafluoromethane + diethyl carbonate; phases: Liquid, Gas
Property: Mole fraction of tetrafluoromethane (Liquid); method: OTHER
Pressure, kPa of tetrafluoromethane	Temperature, K	Mole fraction of tetrafluoromethane	uncertainty
101.33	298.15	0.001072	1.1e-05

System: diethyl carbonate + sulfur hexafluoride; phases: Liquid, Gas
Property: Mole fraction of sulfur hexafluoride (Liquid); method: OTHER
Pressure, kPa of sulfur hexafluoride	Temperature, K	Mole fraction of sulfur hexafluoride	uncertainty
101.33	298.15	0.005189	5.2e-05
