Measured thermophysical data. Vapor Pressures and Vapor-Liquid Equilibria of the 2,2,2-Trifluoroethanol + Quinoline System
Source: J. Chem. Eng. Data, 2003, 10.1021/je025576d
Compound 1: quinoline, C9H7N, InChI=1S/C9H7N/c1-2-6-9-8(4-1)5-3-7-10-9/h1-7H, purity 98%
Compound 2: 2,2,2-trifluoroethanol, C2H3F3O, InChI=1S/C2H3F3O/c3-2(4,5)1-6/h6H,1H2, purity 99%

System: quinoline; phases: Liquid, Gas
Property: Boiling temperature at pressure P, K (Liquid); method: EBULLIO:UFactor:32
Pressure, kPa	Boiling temperature at pressure P, K	uncertainty
101.33	510.85	0.14

System: quinoline; phases: Liquid, Gas
Property: Boiling temperature at pressure P, K (Liquid); method: EBULLIO:UFactor:32
Pressure, kPa	Boiling temperature at pressure P, K	uncertainty
53.33	483.15	0.17

System: quinoline; phases: Liquid, Gas
Property: Boiling temperature at pressure P, K (Liquid); method: EBULLIO:UFactor:32
Pressure, kPa	Boiling temperature at pressure P, K	uncertainty
13.33	435.45	0.42

System: quinoline; phases: Liquid, Gas
Property: Vapor or sublimation pressure, kPa (Liquid); method: MANOM:UFactor:32
Temperature, K	Vapor or sublimation pressure, kPa	uncertainty
408.35	6.6	3.83
423.45	11.6	4.31
434.25	15.6	4.7
435.45	13.33	4.48
443.65	23.46	5.45
450.75	26.93	5.79
458.55	33.06	6.37
483.15	53.33	8.32
510.85	101.33	12.93

System: 2,2,2-trifluoroethanol; phases: Liquid, Gas
Property: Boiling temperature at pressure P, K (Liquid); method: EBULLIO:UFactor:32
Pressure, kPa	Boiling temperature at pressure P, K	uncertainty
101.33	347.15	0.14

System: 2,2,2-trifluoroethanol; phases: Liquid, Gas
Property: Boiling temperature at pressure P, K (Liquid); method: EBULLIO:UFactor:32
Pressure, kPa	Boiling temperature at pressure P, K	uncertainty
53.33	331.75	0.17

System: 2,2,2-trifluoroethanol; phases: Liquid, Gas
Property: Boiling temperature at pressure P, K (Liquid); method: EBULLIO:UFactor:32
Pressure, kPa	Boiling temperature at pressure P, K	uncertainty
13.33	304.05	0.42

System: 2,2,2-trifluoroethanol; phases: Liquid, Gas
Property: Vapor or sublimation pressure, kPa (Liquid); method: MANOM:UFactor:32
Temperature, K	Vapor or sublimation pressure, kPa	uncertainty
293.15	7.19	3.89
297.85	9.52	4.11
304.05	13.33	4.48
312.15	20.92	5.21
322.95	36	6.66
328.45	46.6	7.67
331.75	53.33	8.32
343.15	88.34	11.68
347.15	101.33	12.93

System: 2,2,2-trifluoroethanol + quinoline; phases: Liquid, Gas
Property: Vapor or sublimation pressure, kPa (Liquid); method: MANOM:UFactor:16
Temperature, K	Mass fraction of 2,2,2-trifluoroethanol	Vapor or sublimation pressure, kPa	uncertainty
293.15	1	7.19	1.95
297.85	1	9.52	2.06
312.15	1	20.92	2.6
312.75	0.7604	17.53	2.44
315.25	0.6065	11.8	2.17
322.95	1	36	3.33
326.95	0.7604	33.66	3.22
327.95	0.6065	22.33	2.67
328.45	1	46.6	3.84
330.45	0.7604	42.46	3.64
332.55	0.404	11.47	2.15
336.35	0.6065	33.46	3.21
338.15	0.7604	57.26	4.35
343.15	1	88.34	5.84
343.45	0.2038	6.93	1.93
346.45	0.7604	84.99	5.68
350.55	0.404	26.2	2.86
350.55	0.6065	61.39	4.55
351.15	0.7604	100.79	6.44
359.65	0.404	40.73	3.56
360.35	0.6065	91.93	6.02
362.95	0.6065	100.59	6.43
363.85	0.2038	16.73	2.4
365.35	0.404	52.66	4.13
374.85	0.404	70.73	5
376.75	0.2038	29.26	3.01
381.95	0.404	94.53	6.15
390.25	0.2038	51.06	4.06
399.15	0.2038	74.39	5.18
407.25	0.2038	97.79	6.3
408.35	0	6.6	1.92
423.45	0	11.6	2.16
434.25	0	15.6	2.35
443.65	0	23.46	2.73
450.75	0	26.93	2.89
458.55	0	33.06	3.19

System: 2,2,2-trifluoroethanol + quinoline; phases: Liquid, Gas
Property: Boiling temperature at pressure P, K (Liquid); method: EBULLIO:UFactor:16
Mole fraction of 2,2,2-trifluoroethanol	Pressure, kPa	Boiling temperature at pressure P, K	uncertainty
0	13.33	435.45	1.68
0	53.33	483.15	1.62
0	101.33	510.85	1.46
0.0202	13.33	425.65	1.6
0.0301	53.33	466.05	1.48
0.0301	101.33	491.25	1.43
0.0356	13.33	417.65	1.51
0.0387	53.33	460.15	1.54
0.0604	101.33	477.25	1.43
0.0732	53.33	443.85	1.49
0.0784	13.33	400.95	1.41
0.106	101.33	455.45	1.18
0.118	13.33	388.15	1.38
0.1197	53.33	428.25	1.36
0.1389	101.33	442.85	1.16
0.1594	53.33	417.15	1.27
0.1686	13.33	376.35	1.32
0.1907	101.33	429.55	1.05
0.2134	53.33	404.55	1.2
0.2473	101.33	416.45	1.04
0.2701	13.33	359.05	1.18
0.2959	53.33	389.45	1.1
0.2994	101.33	406.35	0.97
0.3517	13.33	347.45	1.13
0.3791	53.33	376.65	1.08
0.3833	101.33	394.25	1
0.4201	13.33	339.65	1.1
0.4557	53.33	367.65	1.02
0.5171	101.33	378.85	0.96
0.5318	13.33	328.85	1.11
0.5851	53.33	355.95	0.97
0.6054	101.33	369.35	0.84
0.6484	13.33	318.65	1.11
0.684	101.33	362.85	0.84
0.7804	53.33	341.05	0.95
0.8133	13.33	310.15	1.02
0.8377	101.33	353.55	0.86
0.8556	13.33	308.65	1.05
0.9584	53.33	332.55	0.92
1	13.33	304.05	0.97
1	53.33	331.75	0.92
1	101.33	347.15	0.8

System: 2,2,2-trifluoroethanol + quinoline; phases: Gas, Liquid
Property: Mole fraction of 2,2,2-trifluoroethanol (Gas); method: Chromatography
Mole fraction of 2,2,2-trifluoroethanol	Pressure, kPa	Mole fraction of 2,2,2-trifluoroethanol	uncertainty
0	13.33	0	0.0001
0	53.33	0	0.0001
0	101.33	0	0.0001
0.0202	13.33	0.2957	0.0046
0.0301	53.33	0.3641	0.0062
0.0301	101.33	0.3602	0.0061
0.0356	13.33	0.4829	0.0091
0.0387	53.33	0.4744	0.0089
0.0604	101.33	0.5581	0.0089
0.0732	53.33	0.6893	0.0067
0.0784	13.33	0.7397	0.0058
0.106	101.33	0.7822	0.0049
0.118	13.33	0.8536	0.0034
0.1197	53.33	0.8166	0.0042
0.1389	101.33	0.8521	0.0034
0.1594	53.33	0.8882	0.0026
0.1686	13.33	0.9159	0.002
0.1907	101.33	0.9098	0.0021
0.2134	53.33	0.931	0.0016
0.2473	101.33	0.9506	0.0012
0.2701	13.33	0.968	0.0007
0.2959	53.33	0.967	0.0008
0.2994	101.33	0.9704	0.0007
0.3517	13.33	0.9817	0.0004
0.3791	53.33	0.9834	0.0004
0.3833	101.33	0.9829	0.0004
0.4201	13.33	0.99	0.0002
0.4557	53.33	0.9922	0.0002
0.5171	101.33	0.9951	0.0001
0.5318	13.33	0.9945	0.0001
0.5851	53.33	0.9961	0.0001
0.6054	101.33	0.998	0.0001
0.6484	13.33	0.9965	0.0001
0.684	101.33	0.9985	0.0001
0.7804	53.33	0.9974	0.0001
0.8133	13.33	0.9978	0.0001
0.8377	101.33	0.999	0.0001
0.8556	13.33	0.9989	0.0001
0.9584	53.33	0.9982	0.0001
1	13.33	1	0.0001
1	53.33	1	0.0001
1	101.33	1	0.0001
