Measured thermophysical data. An apparatus for the on-line GC determination of hydrocarbon solubility in water: benzene and cyclohexane from 70 C to 150 C
Source: J. Chem. Eng. Data, 2003, 10.1021/je025609p
Compound 1: cyclohexane, C6H12, InChI=1S/C6H12/c1-2-4-6-5-3-1/h1-6H2
Compound 2: benzene, C6H6, InChI=1S/C6H6/c1-2-4-6-5-3-1/h1-6H
Compound 3: water, H2O, InChI=1S/H2O/h1H2

System: benzene + water; phases: Liquid mixture 1, Liquid mixture 2
Fixed: Pressure, kPa = 1700
Property: Mole fraction of benzene (Liquid mixture 1); method: Chromatography
Temperature, K	Mole fraction of benzene	uncertainty
343.15	0.000575	4e-06
373.95	0.000922	7e-06
404.25	0.00162	1.3e-05
424.35	0.00232	5e-05

System: cyclohexane + water; phases: Liquid mixture 1, Liquid mixture 2
Fixed: Pressure, kPa = 1700
Property: Mole fraction of cyclohexane (Liquid mixture 1); method: Chromatography
Temperature, K	Mole fraction of cyclohexane	uncertainty
343.15	1.97e-05	2e-07
373.25	3.5e-05	3e-07
373.25	3.45e-05	4e-07
403.65	6.1e-05	1e-06
424.15	0.000131	4e-06
