Measured thermophysical data. Viscosities and Densities of Binary Mixtures of 1,4-Dioxane, Carbon Tetrachloride, and Butanol at 303.15 K, 308.15 K, and 313.15 K
Source: J. Chem. Eng. Data, 2004, 10.1021/je030133a
Compound 1: butan-1-ol, C4H10O, InChI=1S/C4H10O/c1-2-3-4-5/h5H,2-4H2,1H3, purity 99%
Compound 2: 1,4-dioxane, C4H8O2, InChI=1S/C4H8O2/c1-2-6-4-3-5-1/h1-4H2, purity 99.4%
Compound 3: tetrachloromethane, CCl4, InChI=1S/CCl4/c2-1(3,4)5, purity 99.2%

System: butan-1-ol; phases: Liquid
Fixed: Pressure, kPa = 101.3
Property: Viscosity, Pa*s (Liquid); method: CAPTUB:UFactor:8
Temperature, K	Viscosity, Pa*s	uncertainty
303.15	0.002282	0.0001045
308.15	0.0019073	8.85e-05
308.15	0.0018947	8.8e-05
313.15	0.0016813	7.89e-05

System: butan-1-ol; phases: Liquid
Fixed: Pressure, kPa = 101.3
Property: Mass density, kg/m3 (Liquid); method: PYCNOM:UFactor:8
Temperature, K	Mass density, kg/m3	uncertainty
303.15	805.7	2.1
308.15	797.2	2.2
313.15	795.5	2.3

System: 1,4-dioxane; phases: Liquid
Fixed: Pressure, kPa = 101.3
Property: Viscosity, Pa*s (Liquid); method: CAPTUB:UFactor:4
Temperature, K	Viscosity, Pa*s	uncertainty
303.15	0.0010985	2.7e-05
303.15	0.0010983	5.36e-05
308.15	0.0010295	2.55e-05
313.15	0.0009575	2.39e-05

System: 1,4-dioxane; phases: Liquid
Fixed: Pressure, kPa = 101.3
Property: Mass density, kg/m3 (Liquid); method: PYCNOM::UFactor:8
Temperature, K	Mass density, kg/m3	uncertainty
303.15	1022.3	2.7
308.15	1016.7	2.8
313.15	1012	2.9

System: tetrachloromethane; phases: Liquid
Fixed: Pressure, kPa = 101.3
Property: Viscosity, Pa*s (Liquid); method: CAPTUB:UFactor:4
Temperature, K	Viscosity, Pa*s	uncertainty
303.15	0.0008689	2.21e-05
308.15	0.0008307	2.13e-05
313.15	0.000807	2.08e-05
313.15	0.0008072	4.12e-05

System: tetrachloromethane; phases: Liquid
Fixed: Pressure, kPa = 101.3
Property: Mass density, kg/m3 (Liquid); method: PYCNOM:UFactor:8
Temperature, K	Mass density, kg/m3	uncertainty
303.15	1580.6	6.9
308.15	1575.7	6.9
313.15	1570.9	6.9
313.15	1571.3	6.9

System: tetrachloromethane + 1,4-dioxane; phases: Liquid
Fixed: Pressure, kPa = 101.3
Property: Viscosity, Pa*s (Liquid); method: CAPTUB:UFactor:4
Temperature, K	Mole fraction of 1,4-dioxane	Viscosity, Pa*s	uncertainty
303.15	0	0.0008689	2.21e-05
303.15	0.1116	0.000945	2.38e-05
303.15	0.2204	0.0009938	2.48e-05
303.15	0.3265	0.0010364	2.57e-05
303.15	0.4299	0.0010729	2.65e-05
303.15	0.5307	0.0011099	2.73e-05
303.15	0.6291	0.0011356	2.78e-05
303.15	0.7252	0.0011446	2.8e-05
303.15	0.7724	0.0011449	2.8e-05
303.15	0.819	0.0011387	2.79e-05
303.15	0.865	0.0011314	2.77e-05
303.15	0.9105	0.0011233	2.75e-05
303.15	0.9555	0.0011171	2.74e-05
303.15	1	0.0010985	2.7e-05
308.15	0	0.0008307	2.13e-05
308.15	0.1116	0.0008954	2.27e-05
308.15	0.2204	0.0009391	2.36e-05
308.15	0.3265	0.0009771	2.44e-05
308.15	0.4299	0.0010097	2.51e-05
308.15	0.5307	0.0010436	2.59e-05
308.15	0.6291	0.0010656	2.63e-05
308.15	0.7252	0.0010663	2.63e-05
308.15	0.7724	0.0010629	2.62e-05
308.15	0.819	0.0010578	2.61e-05
308.15	0.865	0.0010521	2.6e-05
308.15	0.9105	0.0010501	2.59e-05
308.15	0.9555	0.0010458	2.58e-05
308.15	1	0.0010295	2.55e-05
313.15	0	0.000807	2.08e-05
313.15	0.1116	0.0008454	2.16e-05
313.15	0.2204	0.0008848	2.24e-05
313.15	0.3265	0.0009244	2.33e-05
313.15	0.4299	0.0009531	2.39e-05
313.15	0.5307	0.0009892	2.47e-05
313.15	0.6291	0.0010076	2.51e-05
313.15	0.7252	0.0009996	2.49e-05
313.15	0.7724	0.0009971	2.48e-05
313.15	0.819	0.0009881	2.46e-05
313.15	0.865	0.0009836	2.45e-05
313.15	0.9105	0.0009785	2.44e-05
313.15	0.9555	0.0009667	2.41e-05
313.15	1	0.0009575	2.39e-05

System: tetrachloromethane + 1,4-dioxane; phases: Liquid
Fixed: Pressure, kPa = 101.3
Property: Mass density, kg/m3 (Liquid); method: PYCNOM:UFactor:8
Temperature, K	Mole fraction of 1,4-dioxane	Mass density, kg/m3	uncertainty
303.15	0	1580.6	4.5
303.15	0.1116	1520.6	4.4
303.15	0.2204	1462.3	4.2
303.15	0.3265	1405.3	4
303.15	0.4299	1349	3.8
303.15	0.5307	1294.3	3.6
303.15	0.6291	1240.9	3.4
303.15	0.7252	1187.4	3.3
303.15	0.7724	1161.1	3.2
303.15	0.819	1134.4	3.1
303.15	0.865	1107.7	3
303.15	0.9105	1081	2.9
303.15	0.9555	1052.6	2.8
303.15	1	1022.3	2.7
308.15	0	1575.7	4.6
308.15	0.1116	1517.3	4.5
308.15	0.2204	1458.6	4.3
308.15	0.3265	1401.1	4.1
308.15	0.4299	1344.8	3.9
308.15	0.5307	1290.5	3.7
308.15	0.6291	1236.2	3.5
308.15	0.7252	1182.4	3.4
308.15	0.7724	1155.9	3.3
308.15	0.819	1128.5	3.2
308.15	0.865	1101.6	3.1
308.15	0.9105	1074.7	3
308.15	0.9555	1046.5	2.9
308.15	1	1016.7	2.8
313.15	0	1570.9	4.8
313.15	0.1116	1513.2	4.6
313.15	0.2204	1455.1	4.4
313.15	0.3265	1396.9	4.2
313.15	0.4299	1340.9	4
313.15	0.5307	1286.9	3.8
313.15	0.6291	1232.5	3.7
313.15	0.7252	1177.9	3.5
313.15	0.7724	1150.9	3.4
313.15	0.819	1123.2	3.3
313.15	0.865	1096	3.2
313.15	0.9105	1069.2	3.1
313.15	0.9555	1041.2	3
313.15	1	1012	2.9

System: tetrachloromethane + butan-1-ol; phases: Liquid
Fixed: Pressure, kPa = 101.3
Property: Viscosity, Pa*s (Liquid); method: CAPTUB:UFactor:8
Temperature, K	Mole fraction of tetrachloromethane	Viscosity, Pa*s	uncertainty
303.15	0	0.002282	0.0001045
303.15	0.0954	0.0020277	9.37e-05
303.15	0.1918	0.0017085	8e-05
303.15	0.2891	0.001496	7.09e-05
303.15	0.3875	0.0013561	6.49e-05
303.15	0.4869	0.0012482	6.02e-05
303.15	0.5874	0.0011567	5.63e-05
303.15	0.6889	0.0010695	5.25e-05
303.15	0.7401	0.001025	5.06e-05
303.15	0.7915	0.0010049	4.97e-05
303.15	0.8432	0.0009778	4.85e-05
303.15	0.8952	0.0009554	4.76e-05
303.15	0.9475	0.0009164	4.59e-05
303.15	1	0.0008689	4.38e-05
308.15	0	0.0019073	8.85e-05
308.15	0.0954	0.0016985	7.96e-05
308.15	0.1918	0.0014442	6.87e-05
308.15	0.2891	0.0012764	6.15e-05
308.15	0.3875	0.0011571	5.63e-05
308.15	0.4869	0.0010959	5.37e-05
308.15	0.5874	0.0010525	5.18e-05
308.15	0.6889	0.0010037	4.97e-05
308.15	0.7401	0.0009705	4.82e-05
308.15	0.7915	0.0009552	4.76e-05
308.15	0.8432	0.0009211	4.61e-05
308.15	0.8952	0.0008975	4.51e-05
308.15	0.9475	0.0008787	4.43e-05
308.15	1	0.0008307	4.22e-05
313.15	0	0.0016813	7.89e-05
313.15	0.0954	0.0014976	7.1e-05
313.15	0.1918	0.0012934	6.22e-05
313.15	0.2891	0.0011724	5.7e-05
313.15	0.3875	0.0010694	5.25e-05
313.15	0.4869	0.0010384	5.12e-05
313.15	0.5874	0.0009981	4.94e-05
313.15	0.6889	0.0009502	4.74e-05
313.15	0.7401	0.0009211	4.61e-05
313.15	0.7915	0.0008947	4.5e-05
313.15	0.8432	0.0008727	4.4e-05
313.15	0.8952	0.0008612	4.35e-05
313.15	0.9475	0.0008346	4.24e-05
313.15	1	0.0008072	4.12e-05

System: tetrachloromethane + butan-1-ol; phases: Liquid
Fixed: Pressure, kPa = 101.3
Property: Mass density, kg/m3 (Liquid); method: PYCNOM:UFactor:8
Temperature, K	Mole fraction of tetrachloromethane	Mass density, kg/m3	uncertainty
303.15	0	805.7	2.1
303.15	0.0954	885	2.3
303.15	0.1918	964.8	2.6
303.15	0.2891	1044.5	2.8
303.15	0.3875	1123.5	3.1
303.15	0.4869	1201.2	3.3
303.15	0.5874	1277.3	3.6
303.15	0.6889	1352.2	3.8
303.15	0.7401	1389.9	3.9
303.15	0.7915	1427.1	4.1
303.15	0.8432	1463.6	4.2
303.15	0.8952	1501.2	4.3
303.15	0.9475	1538.9	4.4
303.15	1	1580.6	4.5
308.15	0	797.2	2.2
308.15	0.0954	876	2.4
308.15	0.1918	955.5	2.7
308.15	0.2891	1034.7	2.9
308.15	0.3875	1113.8	3.2
308.15	0.4869	1191.8	3.4
308.15	0.5874	1268.5	3.7
308.15	0.6889	1344.8	3.9
308.15	0.7401	1382.7	4
308.15	0.7915	1420.2	4.2
308.15	0.8432	1457.8	4.3
308.15	0.8952	1495.7	4.4
308.15	0.9475	1534.3	4.5
308.15	1	1575.7	4.6
313.15	0	795.5	2.3
313.15	0.0954	873.9	2.5
313.15	0.1918	953	2.8
313.15	0.2891	1031.7	3
313.15	0.3875	1110.1	3.3
313.15	0.4869	1187.6	3.5
313.15	0.5874	1264.2	3.8
313.15	0.6889	1340.9	4
313.15	0.7401	1378.8	4.1
313.15	0.7915	1415.9	4.3
313.15	0.8432	1454.2	4.4
313.15	0.8952	1491.8	4.5
313.15	0.9475	1530.5	4.6
313.15	1	1571.3	4.8

System: butan-1-ol + 1,4-dioxane; phases: Liquid
Fixed: Pressure, kPa = 101.3
Property: Viscosity, Pa*s (Liquid); method: CAPTUB:UFactor:8
Temperature, K	Mole fraction of 1,4-dioxane	Viscosity, Pa*s	uncertainty
303.15	0	0.002282	0.0001045
303.15	0.1066	0.0020114	9.29e-05
303.15	0.2116	0.001635	7.68e-05
303.15	0.3151	0.0013702	6.54e-05
303.15	0.4171	0.001243	6e-05
303.15	0.5177	0.0011645	5.66e-05
303.15	0.6169	0.001093	5.35e-05
303.15	0.6659	0.0010639	5.22e-05
303.15	0.7146	0.0010382	5.11e-05
303.15	0.763	0.001016	5.01e-05
303.15	0.8111	0.0010147	5.01e-05
303.15	0.8588	0.0010306	5.08e-05
303.15	0.9062	0.0010646	5.22e-05
303.15	1	0.0010983	5.36e-05
308.15	0	0.0018947	8.8e-05
308.15	0.1066	0.001683	7.89e-05
308.15	0.2116	0.0013617	6.51e-05
308.15	0.3151	0.0011651	5.66e-05
308.15	0.4171	0.0010811	5.3e-05
308.15	0.5177	0.0010316	5.08e-05
308.15	0.6169	0.0010073	4.98e-05
308.15	0.6659	0.0009903	4.9e-05
308.15	0.7146	0.0009768	4.85e-05
308.15	0.763	0.0009543	4.75e-05
308.15	0.8111	0.0009484	4.72e-05
308.15	0.8588	0.0009507	4.73e-05
308.15	0.9062	0.0009793	4.85e-05
308.15	1	0.0010295	5.07e-05
313.15	0	0.0016813	7.89e-05
313.15	0.1066	0.0015218	7.2e-05
313.15	0.2116	0.0012812	6.16e-05
313.15	0.3151	0.0010938	5.36e-05
313.15	0.4171	0.0009963	4.93e-05
313.15	0.5177	0.0009565	4.76e-05
313.15	0.6169	0.0009426	4.7e-05
313.15	0.6659	0.0009289	4.64e-05
313.15	0.7146	0.000919	4.6e-05
313.15	0.763	0.0009043	4.53e-05
313.15	0.8111	0.0009234	4.61e-05
313.15	0.8588	0.0009384	4.68e-05
313.15	0.9062	0.0009315	4.65e-05
313.15	1	0.0009575	4.76e-05

System: butan-1-ol + 1,4-dioxane; phases: Liquid
Fixed: Pressure, kPa = 101.3
Property: Mass density, kg/m3 (Liquid); method: PYCNOM:UFactor:8
Temperature, K	Mole fraction of 1,4-dioxane	Mass density, kg/m3	uncertainty
303.15	0	805.7	2.1
303.15	0.1066	826.5	2.1
303.15	0.2116	847.6	2.2
303.15	0.3151	868.6	2.3
303.15	0.4171	889.9	2.3
303.15	0.5177	911.3	2.4
303.15	0.6169	932.8	2.5
303.15	0.6659	943.6	2.5
303.15	0.7146	954.6	2.5
303.15	0.763	965.6	2.6
303.15	0.8111	976.7	2.6
303.15	0.8588	987.9	2.6
303.15	0.9062	999.2	2.7
303.15	1	1022.3	2.7
308.15	0	797.2	2.2
308.15	0.1066	818.4	2.2
308.15	0.2116	839.9	2.3
308.15	0.3151	861.3	2.4
308.15	0.4171	882.7	2.4
308.15	0.5177	904.3	2.5
308.15	0.6169	926.2	2.6
308.15	0.6659	937.3	2.6
308.15	0.7146	948.4	2.6
308.15	0.763	959.6	2.7
308.15	0.8111	971	2.7
308.15	0.8588	982.3	2.7
308.15	0.9062	993.6	2.8
308.15	1	1016.7	2.8
313.15	0	795.5	2.3
313.15	0.1066	816.8	2.3
313.15	0.2116	837.9	2.4
313.15	0.3151	859	2.5
313.15	0.4171	880.2	2.5
313.15	0.5177	901.5	2.6
313.15	0.6169	923.1	2.7
313.15	0.6659	934	2.7
313.15	0.7146	945.2	2.7
313.15	0.763	956.3	2.8
313.15	0.8111	967.4	2.8
313.15	0.8588	978.6	2.8
313.15	0.9062	989.7	2.9
313.15	1	1012	2.9
