Measured thermophysical data. Solubility of Benzophenone in Binary Alkane + Carbon Tetrachloride Solvent Mixtures
Source: J. Chem. Eng. Data, 2003, 10.1021/je0340497
Compound 1: benzophenone, C13H10O, InChI=1S/C13H10O/c14-13(11-7-3-1-4-8-11)12-9-5-2-6-10-12/h1-10H
Compound 2: tetrachloromethane, CCl4, InChI=1S/CCl4/c2-1(3,4)5
Compound 3: hexane, C6H14, InChI=1S/C6H14/c1-3-5-6-4-2/h3-6H2,1-2H3
Compound 4: heptane, C7H16, InChI=1S/C7H16/c1-3-5-7-6-4-2/h3-7H2,1-2H3
Compound 5: octane, C8H18, InChI=1S/C8H18/c1-3-5-7-8-6-4-2/h3-8H2,1-2H3
Compound 6: nonane, C9H20, InChI=1S/C9H20/c1-3-5-7-9-8-6-4-2/h3-9H2,1-2H3
Compound 7: decane, C10H22, InChI=1S/C10H22/c1-3-5-7-9-10-8-6-4-2/h3-10H2,1-2H3
Compound 8: dodecane, C12H26, InChI=1S/C12H26/c1-3-5-7-9-11-12-10-8-6-4-2/h3-12H2,1-2H3

System: dodecane + benzophenone; phases: Liquid, Crystal
Property: Mole fraction of benzophenone (Liquid); method: OTHER
Pressure, kPa	Temperature, K	Mole fraction of benzophenone	uncertainty
101	298	0.0291	0.0058

System: tetrachloromethane + benzophenone; phases: Liquid, Crystal
Property: Mole fraction of benzophenone (Liquid); method: OTHER
Pressure, kPa	Temperature, K	Mole fraction of benzophenone	uncertainty
101	298	0.5503	0.1103

System: benzophenone + decane; phases: Liquid, Crystal
Property: Mole fraction of benzophenone (Liquid); method: OTHER
Pressure, kPa	Temperature, K	Mole fraction of benzophenone	uncertainty
101	298	0.0483	0.0097

System: nonane + benzophenone; phases: Liquid, Crystal
Property: Mole fraction of benzophenone (Liquid); method: OTHER
Pressure, kPa	Temperature, K	Mole fraction of benzophenone	uncertainty
101	298	0.0601	0.012

System: octane + benzophenone; phases: Liquid, Crystal
Property: Mole fraction of benzophenone (Liquid); method: OTHER
Pressure, kPa	Temperature, K	Mole fraction of benzophenone	uncertainty
101	298	0.0698	0.014

System: benzophenone + heptane; phases: Liquid, Crystal
Property: Mole fraction of benzophenone (Liquid); method: OTHER
Pressure, kPa	Temperature, K	Mole fraction of benzophenone	uncertainty
101	298	0.0426	0.0085

System: hexane + benzophenone; phases: Liquid, Crystal
Property: Mole fraction of benzophenone (Liquid); method: OTHER
Pressure, kPa	Temperature, K	Mole fraction of benzophenone	uncertainty
101	298	0.0235	0.0071

System: tetrachloromethane + dodecane + benzophenone; phases: Liquid, Crystal
Fixed: Pressure, kPa = 101
Fixed: Temperature, K = 298
Property: Mole fraction of benzophenone (Liquid); method: OTHER
Solvent: Mole fraction of tetrachloromethane	Mole fraction of benzophenone	uncertainty
0	0.0291	0.0058
0.1246	0.0342	0.0068
0.2086	0.0406	0.0081
0.2868	0.0415	0.0083
0.3888	0.0584	0.0117
0.4975	0.0788	0.0158
0.6001	0.1036	0.0207
0.7122	0.1447	0.0289
0.8225	0.1767	0.0354
0.9083	0.1853	0.0371
1	0.5503	0.1103

System: tetrachloromethane + benzophenone + decane; phases: Liquid, Crystal
Fixed: Pressure, kPa = 101
Fixed: Temperature, K = 298
Property: Mole fraction of benzophenone (Liquid); method: OTHER
Solvent: Mole fraction of tetrachloromethane	Mole fraction of benzophenone	uncertainty
0	0.0483	0.0097
0.054	0.0605	0.0121
0.1444	0.0679	0.0136
0.2268	0.0778	0.0156
0.3941	0.1238	0.0248
0.5323	0.1962	0.0393
0.5989	0.2322	0.0465
0.6424	0.241	0.0482
0.7351	0.2761	0.0552
0.8364	0.3418	0.0684
1	0.5503	0.1103

System: tetrachloromethane + nonane + benzophenone; phases: Liquid, Crystal
Fixed: Pressure, kPa = 101
Fixed: Temperature, K = 298
Property: Mole fraction of benzophenone (Liquid); method: OTHER
Solvent: Mole fraction of tetrachloromethane	Mole fraction of benzophenone	uncertainty
0	0.0601	0.012
0.0768	0.0643	0.0129
0.1373	0.0776	0.0155
0.2321	0.1086	0.0217
0.4267	0.1555	0.0311
0.5567	0.231	0.0462
0.6263	0.2806	0.0561
0.6637	0.289	0.0578
0.7181	0.2964	0.0593
0.9114	0.3597	0.072
1	0.5503	0.1103

System: tetrachloromethane + octane + benzophenone; phases: Liquid, Crystal
Fixed: Pressure, kPa = 101
Fixed: Temperature, K = 298
Property: Mole fraction of benzophenone (Liquid); method: OTHER
Solvent: Mole fraction of tetrachloromethane	Mole fraction of benzophenone	uncertainty
0	0.0698	0.014
0.1584	0.104	0.0208
0.288	0.1502	0.03
0.3126	0.152	0.0304
0.4439	0.2612	0.0523
0.5686	0.4056	0.0812
0.6451	0.4509	0.0903
0.7448	0.5155	0.1033
0.793	0.5337	0.1069
0.8928	0.5406	0.1083
1	0.5503	0.1103

System: tetrachloromethane + benzophenone + heptane; phases: Liquid, Crystal
Fixed: Pressure, kPa = 101
Fixed: Temperature, K = 298
Property: Mole fraction of benzophenone (Liquid); method: OTHER
Solvent: Mole fraction of tetrachloromethane	Mole fraction of benzophenone	uncertainty
0	0.0426	0.0085
0.1064	0.0585	0.0117
0.1829	0.0724	0.0145
0.3244	0.1379	0.0276
0.4041	0.2141	0.0428
0.5075	0.2571	0.0514
0.622	0.3012	0.0603
0.7094	0.3242	0.0649
0.8099	0.3542	0.0709
0.9158	0.3653	0.0731
1	0.5503	0.1103

System: tetrachloromethane + hexane + benzophenone; phases: Liquid, Crystal
Fixed: Pressure, kPa = 101
Fixed: Temperature, K = 298
Property: Mole fraction of benzophenone (Liquid); method: OTHER
Solvent: Mole fraction of tetrachloromethane	Mole fraction of benzophenone	uncertainty
0	0.0235	0.0071
0.0786	0.0309	0.0093
0.1698	0.0472	0.0142
0.361	0.1063	0.0319
0.6	0.1582	0.0475
0.7173	0.1582	0.0475
0.7776	0.1636	0.0491
0.8872	0.1714	0.0514
1	0.5503	0.1652
