Measured thermophysical data. Thermal Conductivity and Thermal Diffusivity of Twenty-Nine Liquids: Alkenes, Cyclic (Alkanes, Alkenes, Alkadienes, Aromatics), and Deuterated Hydrocarbons
Source: J. Chem. Eng. Data, 2004, 10.1021/je034162x
Compound 1: 1-pentene, C5H10, InChI=1S/C5H10/c1-3-5-4-2/h3H,1,4-5H2,2H3, purity 98%
Compound 2: hex-1-ene, C6H12, InChI=1S/C6H12/c1-3-5-6-4-2/h3H,1,4-6H2,2H3, purity 98%
Compound 3: 2,3-dimethyl-1-butene, C6H12, InChI=1S/C6H12/c1-5(2)6(3)4/h6H,1H2,2-4H3, purity 98%
Compound 4: 2,3-dimethyl-2-butene, C6H12, InChI=1S/C6H12/c1-5(2)6(3)4/h1-4H3, purity 98%
Compound 5: 1-heptene, C7H14, InChI=1S/C7H14/c1-3-5-7-6-4-2/h3H,1,4-7H2,2H3, purity 98%
Compound 6: oct-1-ene, C8H16, InChI=1S/C8H16/c1-3-5-7-8-6-4-2/h3H,1,4-8H2,2H3, purity 99%
Compound 7: cyclopentene, C5H8, InChI=1S/C5H8/c1-2-4-5-3-1/h1-2H,3-5H2, purity 97%
Compound 8: cyclohexene, C6H10, InChI=1S/C6H10/c1-2-4-6-5-3-1/h1-2H,3-6H2, purity 97%
Compound 9: cyclopentane, C5H10, InChI=1S/C5H10/c1-2-4-5-3-1/h1-5H2, purity 98%
Compound 10: cyclohexane, C6H12, InChI=1S/C6H12/c1-2-4-6-5-3-1/h1-6H2, purity 99.8%
Compound 11: cyclohexane-d12, C6D12, InChI=1S/C6H12/c1-2-4-6-5-3-1/h1-6H2/i1D2,2D2,3D2,4D2,5D2,6D2, purity 99.5%
Compound 12: methylcyclopentane, C6H12, InChI=1S/C6H12/c1-6-4-2-3-5-6/h6H,2-5H2,1H3, purity 98%
Compound 13: cycloheptane, C7H14, InChI=1S/C7H14/c1-2-4-6-7-5-3-1/h1-7H2, purity 97%
Compound 14: cyclooctane, C8H16, InChI=1S/C8H16/c1-2-4-6-8-7-5-3-1/h1-8H2, purity 98%
Compound 15: benzene, C6H6, InChI=1S/C6H6/c1-2-4-6-5-3-1/h1-6H, purity 99%
Compound 16: benzene-d6, C6D6, InChI=1S/C6H6/c1-2-4-6-5-3-1/h1-6H/i1D,2D,3D,4D,5D,6D, purity 99.6%
Compound 17: 1,3-cyclohexadiene, C6H8, InChI=1S/C6H8/c1-2-4-6-5-3-1/h1-4H,5-6H2, purity 97%
Compound 18: 1,4-cyclohexadiene, C6H8, InChI=1S/C6H8/c1-2-4-6-5-3-1/h1-2,5-6H,3-4H2, purity 97%
Compound 19: toluene-d8, C7D8, InChI=1S/C7H8/c1-7-5-3-2-4-6-7/h2-6H,1H3/i1D3,2D,3D,4D,5D,6D, purity 98%
Compound 20: bicyclo[2.2.1]hepta-2,5-diene, C7H8, InChI=1S/C7H8/c1-2-7-4-3-6(1)5-7/h1-4,6-7H,5H2, purity 98%
Compound 21: ethylbenzene, C8H10, InChI=1S/C8H10/c1-2-8-6-4-3-5-7-8/h3-7H,2H2,1H3, purity 98%
Compound 22: 1,2-dimethylbenzene, C8H10, InChI=1S/C8H10/c1-7-5-3-4-6-8(7)2/h3-6H,1-2H3, purity 98%
Compound 23: 1,3-dimethylbenzene, C8H10, InChI=1S/C8H10/c1-7-4-3-5-8(2)6-7/h3-6H,1-2H3, purity 98%
Compound 24: 1,4-dimethylbenzene, C8H10, InChI=1S/C8H10/c1-7-3-5-8(2)6-4-7/h3-6H,1-2H3, purity 98%
Compound 25: propylbenzene, C9H12, InChI=1S/C9H12/c1-2-6-9-7-4-3-5-8-9/h3-5,7-8H,2,6H2,1H3, purity 99%
Compound 26: isopropylbenzene, C9H12, InChI=1S/C9H12/c1-8(2)9-6-4-3-5-7-9/h3-8H,1-2H3, purity 99%
Compound 27: 1,2,3-trimethylbenzene, C9H12, InChI=1S/C9H12/c1-7-5-4-6-8(2)9(7)3/h4-6H,1-3H3, purity 95%
Compound 28: 1,2,4-trimethylbenzene, C9H12, InChI=1S/C9H12/c1-7-4-5-8(2)9(3)6-7/h4-6H,1-3H3, purity 98%
Compound 29: 1,3,5-trimethylbenzene, C9H12, InChI=1S/C9H12/c1-7-4-8(2)6-9(3)5-7/h4-6H,1-3H3, purity 97%

System: 1-pentene; phases: Liquid
Fixed: Pressure, kPa = 101.325
Property: Thermal conductivity, W/m/K (Liquid); method: Hot wire method
Temperature, K	Thermal conductivity, W/m/K	uncertainty
257.3646	0.12842	0.00102
257.672	0.12834	0.00102
257.932	0.12827	0.00102
276.4737	0.12098	0.00097
276.8231	0.12092	0.00097
277.0679	0.12035	0.00099
294.0431	0.11406	0.00092
294.4229	0.11394	0.00092
294.6572	0.1139	0.00092
301.0722	0.11128	0.0009
301.461	0.11116	0.0009
301.7464	0.1111	0.0009

System: 1-pentene; phases: Liquid
Fixed: Pressure, kPa = 101.325
Property: Thermal diffusivity, m2/s (Liquid); method: Hot wire method
Temperature, K	Thermal diffusivity, m2/s	uncertainty
258.9307	9.277e-08	1.78e-09
259.9055	9.284e-08	1.78e-09
260.5728	9.247e-08	1.77e-09
278.1052	8.646e-08	1.66e-09
279.1808	8.697e-08	1.67e-09
279.901	8.661e-08	1.66e-09
295.7979	8.202e-08	1.58e-09
296.8715	8.162e-08	1.57e-09
297.6698	8.163e-08	1.57e-09
302.8789	7.993e-08	1.54e-09
303.986	7.958e-08	1.53e-09
304.8002	7.957e-08	1.53e-09

System: hex-1-ene; phases: Liquid
Fixed: Pressure, kPa = 101.325
Property: Thermal conductivity, W/m/K (Liquid); method: Hot wire method
Temperature, K	Thermal conductivity, W/m/K	uncertainty
259.9269	0.13039	0.00104
260.1945	0.13048	0.00104
260.4739	0.13028	0.00104
275.9805	0.12475	0.001
276.28	0.12492	0.001
276.5988	0.12452	0.001
295.8434	0.11809	0.00095
296.2559	0.11777	0.00094
296.5258	0.11786	0.00095
301.2731	0.11609	0.00093
301.7333	0.116	0.00093
301.9609	0.11577	0.00093
314.6665	0.11186	0.00091
315.04	0.11148	0.0009
315.3809	0.11119	0.0009
329.1359	0.10713	0.00087
329.5259	0.107	0.00087
329.8928	0.10683	0.00086

System: hex-1-ene; phases: Liquid
Fixed: Pressure, kPa = 101.325
Property: Thermal diffusivity, m2/s (Liquid); method: Hot wire method
Temperature, K	Thermal diffusivity, m2/s	uncertainty
261.2446	9.12e-08	1.75e-09
262.1316	9.145e-08	1.75e-09
263.0438	9.138e-08	1.75e-09
277.3831	8.631e-08	1.66e-09
278.2963	8.692e-08	1.67e-09
279.2456	8.669e-08	1.67e-09
297.3355	8.252e-08	1.59e-09
298.5911	8.215e-08	1.58e-09
299.3271	8.197e-08	1.58e-09
302.7708	8.049e-08	1.55e-09
304.0773	8.065e-08	1.55e-09
304.806	8.042e-08	1.55e-09
316.2107	7.674e-08	1.48e-09
317.2655	7.707e-08	1.48e-09
318.3128	7.677e-08	1.48e-09
330.7631	7.418e-08	1.43e-09
331.8137	7.391e-08	1.42e-09
332.9584	7.397e-08	1.43e-09

System: 2,3-dimethyl-1-butene; phases: Liquid
Fixed: Pressure, kPa = 101.325
Property: Thermal conductivity, W/m/K (Liquid); method: Hot wire method
Temperature, K	Thermal conductivity, W/m/K	uncertainty
258.9758	0.117	0.00094
259.2916	0.11687	0.00094
259.3994	0.11679	0.00094
278.2929	0.11075	0.00089
278.6317	0.11064	0.00089
278.8724	0.11055	0.00089
294.1787	0.10578	0.00086
294.533	0.10561	0.00086
294.7823	0.10551	0.00085
312.8608	0.10021	0.00082
313.233	0.10001	0.00081
313.4993	0.09991	0.00081
322.5082	0.0974	0.00079
322.905	0.0973	0.00079
323.1754	0.0972	0.00079
326.5167	0.09639	0.00079
326.9124	0.09621	0.00079
327.2081	0.09612	0.00078

System: 2,3-dimethyl-1-butene; phases: Liquid
Fixed: Pressure, kPa = 101.325
Property: Thermal diffusivity, m2/s (Liquid); method: Hot wire method
Temperature, K	Thermal diffusivity, m2/s	uncertainty
260.365	8.168e-08	1.57e-09
261.2859	8.189e-08	1.57e-09
261.55	8.16e-08	1.57e-09
279.7339	7.655e-08	1.47e-09
280.7006	7.674e-08	1.48e-09
281.3892	7.679e-08	1.48e-09
295.65	7.3e-08	1.41e-09
296.6844	7.294e-08	1.41e-09
297.378	7.277e-08	1.4e-09
314.434	6.879e-08	1.33e-09
315.4473	6.843e-08	1.32e-09
316.1773	6.831e-08	1.32e-09
324.0674	6.6e-08	1.28e-09
325.1722	6.65e-08	1.29e-09
325.8986	6.622e-08	1.28e-09
328.1345	6.58e-08	1.27e-09
329.2153	6.585e-08	1.27e-09
330.0517	6.621e-08	1.28e-09

System: 2,3-dimethyl-2-butene; phases: Liquid
Fixed: Pressure, kPa = 101.325
Property: Thermal conductivity, W/m/K (Liquid); method: Hot wire method
Temperature, K	Thermal conductivity, W/m/K	uncertainty
258.8872	0.13562	0.00108
259.1689	0.13548	0.00108
259.3667	0.1354	0.00108
278.2114	0.12853	0.00103
278.505	0.12835	0.00102
278.7184	0.12827	0.00102
294.0899	0.12276	0.00098
294.4014	0.12257	0.00098
294.6299	0.12249	0.00098
312.7628	0.11621	0.00093
313.0948	0.11604	0.00093
313.3359	0.11595	0.00093
322.4042	0.11279	0.00091
322.7408	0.11258	0.00091
322.9804	0.11248	0.00091
326.4155	0.11163	0.0009
326.7733	0.11149	0.0009
327.0176	0.11137	0.0009

System: 2,3-dimethyl-2-butene; phases: Liquid
Fixed: Pressure, kPa = 101.325
Property: Thermal diffusivity, m2/s (Liquid); method: Hot wire method
Temperature, K	Thermal diffusivity, m2/s	uncertainty
260.1359	9.383e-08	1.8e-09
260.9647	9.413e-08	1.81e-09
261.5411	9.41e-08	1.8e-09
279.5403	8.879e-08	1.7e-09
280.3803	8.85e-08	1.7e-09
280.9992	8.855e-08	1.7e-09
295.4868	8.48e-08	1.63e-09
296.3673	8.436e-08	1.62e-09
297.0233	8.446e-08	1.62e-09
314.2047	7.956e-08	1.53e-09
315.1503	7.951e-08	1.53e-09
315.8232	7.944e-08	1.53e-09
323.8126	7.58e-08	1.46e-09
324.7323	7.557e-08	1.46e-09
325.3856	7.544e-08	1.45e-09
327.8933	7.601e-08	1.46e-09
328.8998	7.626e-08	1.47e-09
329.5674	7.592e-08	1.46e-09

System: 1-heptene; phases: Liquid
Fixed: Pressure, kPa = 101.325
Property: Thermal conductivity, W/m/K (Liquid); method: Hot wire method
Temperature, K	Thermal conductivity, W/m/K	uncertainty
262.4573	0.13253	0.00105
262.7543	0.13238	0.00105
262.9687	0.13237	0.00105
280.4848	0.12684	0.00101
280.8035	0.12671	0.00101
281.0269	0.12638	0.00102
297.3634	0.1213	0.00097
297.7142	0.12127	0.00097
297.9487	0.12117	0.00097
320.4737	0.11445	0.00092
320.8317	0.1143	0.00092
321.0827	0.11416	0.00092

System: 1-heptene; phases: Liquid
Fixed: Pressure, kPa = 101.325
Property: Thermal diffusivity, m2/s (Liquid); method: Hot wire method
Temperature, K	Thermal diffusivity, m2/s	uncertainty
263.8311	9.064e-08	1.74e-09
264.7399	9.11e-08	1.75e-09
265.3672	9.101e-08	1.75e-09
281.9304	8.665e-08	1.66e-09
282.873	8.674e-08	1.67e-09
283.5309	8.662e-08	1.66e-09
298.8858	8.275e-08	1.59e-09
299.8671	8.268e-08	1.59e-09
300.5458	8.253e-08	1.59e-09
322.0665	7.761e-08	1.49e-09
323.0984	7.757e-08	1.49e-09
323.8114	7.731e-08	1.49e-09

System: oct-1-ene; phases: Liquid
Fixed: Pressure, kPa = 101.325
Property: Thermal conductivity, W/m/K (Liquid); method: Hot wire method
Temperature, K	Thermal conductivity, W/m/K	uncertainty
259.6887	0.13536	0.0009
259.9044	0.13531	0.0009
260.0586	0.13525	0.0009
279.3395	0.12942	0.00087
279.5668	0.12937	0.00087
279.7229	0.129	0.00089
296.8777	0.124	0.00083
297.1424	0.12404	0.00083
297.2758	0.12402	0.00083
315.8217	0.11847	0.0008
316.0705	0.11856	0.0008
316.2427	0.11855	0.0008
326.4355	0.11549	0.00078
326.6961	0.11556	0.00078
326.8748	0.11556	0.00078

System: oct-1-ene; phases: Liquid
Fixed: Pressure, kPa = 101.325
Property: Thermal diffusivity, m2/s (Liquid); method: Hot wire method
Temperature, K	Thermal diffusivity, m2/s	uncertainty
260.4642	9.041e-08	1.69e-09
261.0203	9.074e-08	1.7e-09
261.4177	9.089e-08	1.7e-09
280.0833	8.389e-08	1.58e-09
280.6593	8.475e-08	1.59e-09
281.06	8.49e-08	1.59e-09
297.65	7.98e-08	1.5e-09
298.2761	7.997e-08	1.5e-09
298.6089	8.018e-08	1.5e-09
316.5743	7.494e-08	1.41e-09
317.1884	7.584e-08	1.43e-09
317.6107	7.61e-08	1.43e-09
327.1776	7.236e-08	1.37e-09
327.8186	7.347e-08	1.39e-09
328.2552	7.38e-08	1.39e-09

System: cyclopentene; phases: Liquid
Fixed: Pressure, kPa = 101.325
Property: Thermal conductivity, W/m/K (Liquid); method: Hot wire method
Temperature, K	Thermal conductivity, W/m/K	uncertainty
258.7201	0.14913	0.00145
258.9414	0.14887	0.00144
259.1003	0.14879	0.00144
276.9933	0.14087	0.00137
277.2298	0.14066	0.00137
277.3959	0.14056	0.00136
294.9158	0.13302	0.00129
295.1644	0.13284	0.00129
295.335	0.13272	0.00129
312.5802	0.12584	0.00123
312.8383	0.12563	0.00123
313.0161	0.12552	0.00122

System: cyclopentene; phases: Liquid
Fixed: Pressure, kPa = 101.325
Property: Thermal diffusivity, m2/s (Liquid); method: Hot wire method
Temperature, K	Thermal diffusivity, m2/s	uncertainty
259.642	1.1252e-07	2.24e-09
260.251	1.1241e-07	2.24e-09
260.6892	1.1238e-07	2.24e-09
277.9314	1.0467e-07	2.09e-09
278.5694	1.0467e-07	2.09e-09
279.0156	1.0457e-07	2.09e-09
295.8819	9.782e-08	1.95e-09
296.5415	9.784e-08	1.95e-09
296.9881	9.744e-08	1.95e-09
313.5461	9.094e-08	1.82e-09
314.2125	9.083e-08	1.82e-09
314.6662	9.05e-08	1.81e-09

System: cyclohexene; phases: Liquid
Fixed: Pressure, kPa = 101.325
Property: Thermal conductivity, W/m/K (Liquid); method: Hot wire method
Temperature, K	Thermal conductivity, W/m/K	uncertainty
257.2212	0.14059	0.00136
257.4221	0.14045	0.00136
257.5664	0.14038	0.00136
275.3699	0.13476	0.00131
275.5757	0.13461	0.00131
275.7278	0.13458	0.00131
295.5663	0.1284	0.00126
295.7661	0.12817	0.00125
295.9171	0.12811	0.00125
296.277	0.12783	0.00125
296.4891	0.12768	0.00124
296.6476	0.12759	0.00124
311.6669	0.12308	0.0012
311.8872	0.12293	0.0012
312.0378	0.12279	0.0012
327.8468	0.11801	0.00116
328.0711	0.11784	0.00115
328.2242	0.11773	0.00115

System: cyclohexene; phases: Liquid
Fixed: Pressure, kPa = 101.325
Property: Thermal diffusivity, m2/s (Liquid); method: Hot wire method
Temperature, K	Thermal diffusivity, m2/s	uncertainty
257.972	1.0124e-07	2.02e-09
258.4898	1.0121e-07	2.02e-09
258.862	1.0121e-07	2.02e-09
276.1235	9.551e-08	1.91e-09
276.6481	9.551e-08	1.91e-09
277.0345	9.562e-08	1.91e-09
296.2857	8.828e-08	1.77e-09
296.7731	8.777e-08	1.76e-09
297.0259	8.878e-08	1.78e-09
297.1457	8.788e-08	1.76e-09
297.5523	8.872e-08	1.78e-09
297.9437	8.88e-08	1.78e-09
312.4228	8.465e-08	1.69e-09
312.961	8.457e-08	1.69e-09
313.325	8.423e-08	1.69e-09
328.5871	7.972e-08	1.6e-09
329.1277	7.974e-08	1.6e-09
329.4908	7.941e-08	1.59e-09

System: cyclopentane; phases: Liquid
Fixed: Pressure, kPa = 101.325
Property: Thermal conductivity, W/m/K (Liquid); method: Hot wire method
Temperature, K	Thermal conductivity, W/m/K	uncertainty
257.0779	0.14283	0.00114
257.2675	0.14263	0.00113
257.3985	0.14252	0.00113
276.1337	0.13495	0.00107
276.3259	0.1348	0.00107
276.4722	0.13479	0.00107
293.634	0.12811	0.00103
293.8319	0.12791	0.00102
293.974	0.12781	0.00102
300.668	0.12539	0.001
300.8659	0.12525	0.001
301.0053	0.12514	0.001
316.2076	0.11948	0.00096
316.405	0.11931	0.00096
316.5421	0.11922	0.00096

System: cyclopentane; phases: Liquid
Fixed: Pressure, kPa = 101.325
Property: Thermal diffusivity, m2/s (Liquid); method: Hot wire method
Temperature, K	Thermal diffusivity, m2/s	uncertainty
257.7751	1.1145e-07	2.13e-09
258.2641	1.1148e-07	2.13e-09
258.5985	1.1121e-07	2.13e-09
276.8255	1.0301e-07	1.97e-09
277.3069	1.028e-07	1.97e-09
277.682	1.0341e-07	1.99e-09
294.3298	9.638e-08	1.85e-09
294.8179	9.616e-08	1.84e-09
295.1684	9.607e-08	1.84e-09
301.3442	9.297e-08	1.78e-09
301.8277	9.294e-08	1.78e-09
302.1676	9.278e-08	1.78e-09
316.8678	8.682e-08	1.67e-09
317.3411	8.665e-08	1.66e-09
317.6698	8.649e-08	1.66e-09

System: cyclohexane; phases: Liquid
Fixed: Pressure, kPa = 101.325
Property: Thermal conductivity, W/m/K (Liquid); method: Hot wire method
Temperature, K	Thermal conductivity, W/m/K	uncertainty
280.8347	0.12318	0.00077
281.0022	0.12309	0.00077
281.1459	0.12298	0.00077
295.5286	0.11898	0.00075
295.6998	0.11887	0.00075
295.8327	0.11874	0.00075
300.8393	0.11746	0.00075
300.9977	0.11729	0.00074
301.1408	0.11725	0.00074
318.6622	0.11242	0.00072
318.8212	0.11226	0.00072
318.9483	0.11215	0.00071

System: cyclohexane; phases: Liquid
Fixed: Pressure, kPa = 101.325
Property: Thermal diffusivity, m2/s (Liquid); method: Hot wire method
Temperature, K	Thermal diffusivity, m2/s	uncertainty
281.3808	8.754e-08	1.62e-09
281.7802	8.734e-08	1.62e-09
282.1222	8.753e-08	1.62e-09
296.047	8.246e-08	1.53e-09
296.4512	8.28e-08	1.54e-09
296.7645	8.244e-08	1.54e-09
301.3532	8.091e-08	1.51e-09
301.7258	8.061e-08	1.5e-09
302.0634	8.09e-08	1.51e-09
319.1641	7.599e-08	1.41e-09
319.5359	7.589e-08	1.41e-09
319.8357	7.561e-08	1.41e-09

System: cyclohexane-d12; phases: Liquid
Fixed: Pressure, kPa = 101.325
Property: Thermal conductivity, W/m/K (Liquid); method: Hot wire method
Temperature, K	Thermal conductivity, W/m/K	uncertainty
280.4626	0.11631	0.00075
280.6284	0.11619	0.00075
280.7361	0.11606	0.00075
291.1783	0.11331	0.00073
291.3442	0.11327	0.00073
291.453	0.11317	0.00073
303.673	0.11001	0.00071
303.8277	0.10987	0.00072
303.9235	0.10976	0.00072
315.9051	0.10667	0.00069
316.0621	0.10663	0.00069
316.1738	0.1066	0.00069
326.2968	0.10422	0.00069
326.4399	0.104	0.00068
326.5382	0.10397	0.00068

System: cyclohexane-d12; phases: Liquid
Fixed: Pressure, kPa = 101.325
Property: Thermal diffusivity, m2/s (Liquid); method: Hot wire method
Temperature, K	Thermal diffusivity, m2/s	uncertainty
280.9656	6.835e-08	1.28e-09
281.3496	6.846e-08	1.28e-09
281.5982	6.814e-08	1.28e-09
291.6532	6.504e-08	1.22e-09
292.0351	6.539e-08	1.22e-09
292.2861	6.529e-08	1.22e-09
304.1399	6.225e-08	1.17e-09
304.4942	6.223e-08	1.17e-09
304.7157	6.192e-08	1.17e-09
316.3493	5.907e-08	1.11e-09
316.7076	5.935e-08	1.12e-09
316.9634	5.955e-08	1.12e-09
326.7476	5.751e-08	1.08e-09
327.078	5.732e-08	1.08e-09
327.3054	5.721e-08	1.08e-09

System: methylcyclopentane; phases: Liquid
Fixed: Pressure, kPa = 101.325
Property: Thermal conductivity, W/m/K (Liquid); method: Hot wire method
Temperature, K	Thermal conductivity, W/m/K	uncertainty
258.7063	0.12729	0.00102
258.9562	0.12711	0.00102
259.1139	0.12701	0.00101
276.9992	0.12118	0.00097
277.2437	0.12109	0.00097
277.4087	0.121	0.00097
294.9022	0.11555	0.00093
295.1471	0.1154	0.00093
295.32	0.11532	0.00093
312.5732	0.11013	0.00089
312.8185	0.10995	0.00089
312.9931	0.10986	0.00089

System: methylcyclopentane; phases: Liquid
Fixed: Pressure, kPa = 101.325
Property: Thermal diffusivity, m2/s (Liquid); method: Hot wire method
Temperature, K	Thermal diffusivity, m2/s	uncertainty
259.5205	9.396e-08	1.8e-09
260.1643	9.368e-08	1.8e-09
260.5686	9.343e-08	1.79e-09
277.8603	8.804e-08	1.69e-09
278.4888	8.845e-08	1.7e-09
278.908	8.821e-08	1.69e-09
295.7585	8.242e-08	1.58e-09
296.3693	8.245e-08	1.59e-09
296.8	8.236e-08	1.58e-09
313.4418	7.769e-08	1.5e-09
314.0379	7.729e-08	1.49e-09
314.4626	7.714e-08	1.49e-09

System: cycloheptane; phases: Liquid
Fixed: Pressure, kPa = 101.325
Property: Thermal conductivity, W/m/K (Liquid); method: Hot wire method
Temperature, K	Thermal conductivity, W/m/K	uncertainty
262.1781	0.12721	0.00124
262.3677	0.12714	0.00124
262.4984	0.12706	0.00124
280.167	0.12282	0.0012
280.3468	0.12273	0.0012
280.4752	0.12268	0.0012
297.0137	0.11869	0.00116
297.1982	0.11853	0.00116
297.3276	0.11848	0.00116
320.0486	0.11322	0.00111
320.2317	0.11307	0.00111
320.3585	0.11298	0.00111

System: cycloheptane; phases: Liquid
Fixed: Pressure, kPa = 101.325
Property: Thermal diffusivity, m2/s (Liquid); method: Hot wire method
Temperature, K	Thermal diffusivity, m2/s	uncertainty
262.7731	8.837e-08	1.77e-09
263.2378	8.903e-08	1.78e-09
263.5556	8.912e-08	1.78e-09
280.7558	8.389e-08	1.68e-09
281.1868	8.396e-08	1.68e-09
281.4969	8.403e-08	1.68e-09
297.5913	7.965e-08	1.6e-09
298.0277	7.978e-08	1.6e-09
298.3333	7.982e-08	1.6e-09
320.62	7.466e-08	1.5e-09
321.0482	7.465e-08	1.5e-09
321.3434	7.456e-08	1.5e-09

System: cyclooctane; phases: Liquid
Fixed: Pressure, kPa = 101.325
Property: Thermal conductivity, W/m/K (Liquid); method: Hot wire method
Temperature, K	Thermal conductivity, W/m/K	uncertainty
288.6969	0.12047	0.00097
288.9557	0.1203	0.00096
289.1704	0.12023	0.00096
295.8451	0.1191	0.00096
295.8771	0.1191	0.00096
296.0891	0.11888	0.00096
296.2069	0.11882	0.00095
311.67	0.1156	0.00093
311.8843	0.11543	0.00093
312.1044	0.11536	0.00093
328.9944	0.11193	0.0009
329.2163	0.11181	0.0009
329.4307	0.11166	0.0009

System: cyclooctane; phases: Liquid
Fixed: Pressure, kPa = 101.325
Property: Thermal diffusivity, m2/s (Liquid); method: Hot wire method
Temperature, K	Thermal diffusivity, m2/s	uncertainty
289.342	7.481e-08	1.44e-09
289.9675	7.485e-08	1.44e-09
290.4847	7.485e-08	1.44e-09
296.4341	7.395e-08	1.54e-09
296.5084	7.352e-08	1.53e-09
297.0167	7.359e-08	1.42e-09
297.2995	7.357e-08	1.42e-09
312.3722	7.054e-08	1.36e-09
312.8743	7.027e-08	1.36e-09
313.3973	7.037e-08	1.36e-09
329.6959	6.754e-08	1.3e-09
330.2163	6.752e-08	1.3e-09
330.715	6.722e-08	1.3e-09

System: benzene; phases: Liquid
Fixed: Pressure, kPa = 101.325
Property: Thermal conductivity, W/m/K (Liquid); method: Hot wire method
Temperature, K	Thermal conductivity, W/m/K	uncertainty
281.1774	0.14637	0.00097
281.493	0.1462	0.00097
281.7553	0.14609	0.00097
295.921	0.14156	0.00094
296.2547	0.14142	0.00094
296.5306	0.14133	0.00094
301.2473	0.13987	0.00093
301.5858	0.13975	0.00093
301.8658	0.13956	0.00093
319.1402	0.13402	0.00089
319.4861	0.13382	0.00089
319.7856	0.13371	0.00089

System: benzene; phases: Liquid
Fixed: Pressure, kPa = 101.325
Property: Thermal diffusivity, m2/s (Liquid); method: Hot wire method
Temperature, K	Thermal diffusivity, m2/s	uncertainty
282.8596	9.74e-08	1.82e-09
283.9013	9.742e-08	1.82e-09
284.7549	9.715e-08	1.81e-09
297.6707	9.4e-08	1.76e-09
298.7768	9.443e-08	1.76e-09
299.6845	9.441e-08	1.76e-09
303.0205	9.293e-08	1.74e-09
304.1321	9.308e-08	1.74e-09
305.045	9.294e-08	1.74e-09
321.0382	8.973e-08	1.68e-09
322.1522	8.921e-08	1.67e-09
323.1178	8.896e-08	1.66e-09

System: benzene-d6; phases: Liquid
Fixed: Pressure, kPa = 101.325
Property: Thermal conductivity, W/m/K (Liquid); method: Hot wire method
Temperature, K	Thermal conductivity, W/m/K	uncertainty
280.7627	0.13976	0.00087
281.0553	0.13973	0.00087
281.2605	0.13959	0.00087
291.5266	0.13645	0.00085
291.8307	0.13632	0.00085
292.0436	0.13624	0.00085
304.0548	0.13234	0.00083
304.3706	0.13221	0.00083
304.5919	0.13212	0.00083
316.3353	0.12842	0.00081
316.6617	0.1283	0.00081
316.8909	0.1282	0.00081
326.7478	0.12523	0.00079
327.0801	0.12505	0.00079
327.3131	0.12491	0.00079

System: benzene-d6; phases: Liquid
Fixed: Pressure, kPa = 101.325
Property: Thermal diffusivity, m2/s (Liquid); method: Hot wire method
Temperature, K	Thermal diffusivity, m2/s	uncertainty
282.0907	8.096e-08	1.51e-09
282.9829	8.154e-08	1.52e-09
283.583	8.124e-08	1.51e-09
292.9163	7.931e-08	1.48e-09
293.8251	7.956e-08	1.48e-09
294.457	7.952e-08	1.48e-09
305.4938	7.696e-08	1.43e-09
306.4223	7.695e-08	1.43e-09
307.0766	7.694e-08	1.43e-09
317.8197	7.458e-08	1.39e-09
318.7706	7.45e-08	1.39e-09
319.4386	7.445e-08	1.39e-09
328.2586	7.25e-08	1.35e-09
329.2154	7.227e-08	1.35e-09
329.8808	7.203e-08	1.34e-09

System: 1,3-cyclohexadiene; phases: Liquid
Fixed: Pressure, kPa = 101.325
Property: Thermal conductivity, W/m/K (Liquid); method: Hot wire method
Temperature, K	Thermal conductivity, W/m/K	uncertainty
258.3466	0.14507	0.00141
258.5155	0.14491	0.00141
258.625	0.14479	0.00141
264.6639	0.14277	0.00139
264.8011	0.14257	0.00139
264.8884	0.14244	0.00139
279.1695	0.13801	0.00134
279.3149	0.1379	0.00134
279.4146	0.13778	0.00134
296.2508	0.13336	0.0013
296.5093	0.13323	0.0013
296.6903	0.13315	0.00129
313.9471	0.12776	0.00124
314.2156	0.12763	0.00124
314.4053	0.12751	0.00124
328.5633	0.12325	0.0012
328.8386	0.12311	0.0012
329.0763	0.12305	0.0012

System: 1,3-cyclohexadiene; phases: Liquid
Fixed: Pressure, kPa = 101.325
Property: Thermal diffusivity, m2/s (Liquid); method: Hot wire method
Temperature, K	Thermal diffusivity, m2/s	uncertainty
258.8867	8.415e-08	1.69e-09
259.2984	8.449e-08	1.69e-09
259.5583	8.413e-08	1.69e-09
265.0877	7.718e-08	1.55e-09
265.4073	7.725e-08	1.55e-09
265.6108	7.685e-08	1.55e-09
279.5905	7.363e-08	1.48e-09
279.9295	7.405e-08	1.49e-09
280.1613	7.41e-08	1.49e-09
297.2427	8.953e-08	1.79e-09
297.9359	8.979e-08	1.8e-09
298.4176	8.976e-08	1.79e-09
314.9638	8.512e-08	1.7e-09
315.6724	8.526e-08	1.71e-09
316.1666	8.514e-08	1.7e-09
329.6048	8.17e-08	1.64e-09
330.3185	8.168e-08	1.64e-09
330.9932	8.189e-08	1.64e-09

System: 1,4-cyclohexadiene; phases: Liquid
Fixed: Pressure, kPa = 101.325
Property: Thermal conductivity, W/m/K (Liquid); method: Hot wire method
Temperature, K	Thermal conductivity, W/m/K	uncertainty
258.465	0.15862	0.00154
258.6735	0.15837	0.00153
258.8239	0.15834	0.00153
264.8557	0.15639	0.00151
265.0753	0.15627	0.00151
265.2264	0.15622	0.00151
279.3799	0.15142	0.00147
279.6024	0.15124	0.00146
279.7608	0.15113	0.00146
296.2032	0.14553	0.00141
296.432	0.14526	0.00141
296.5964	0.14519	0.00141
313.897	0.13934	0.00136
314.1345	0.13903	0.00135
314.3057	0.13902	0.00135
328.5069	0.13427	0.00131
328.7519	0.13413	0.0013
328.9307	0.13399	0.0013

System: 1,4-cyclohexadiene; phases: Liquid
Fixed: Pressure, kPa = 101.325
Property: Thermal diffusivity, m2/s (Liquid); method: Hot wire method
Temperature, K	Thermal diffusivity, m2/s	uncertainty
259.3564	1.056e-07	2.11e-09
259.9306	1.0523e-07	2.1e-09
260.3542	1.0542e-07	2.1e-09
265.7491	1.0359e-07	2.07e-09
266.3576	1.0375e-07	2.07e-09
266.7743	1.0364e-07	2.07e-09
280.2924	9.954e-08	1.99e-09
280.8959	9.931e-08	1.98e-09
281.3267	9.923e-08	1.98e-09
297.1426	9.505e-08	1.9e-09
297.7513	9.448e-08	1.89e-09
298.1931	9.445e-08	1.89e-09
314.8554	9.009e-08	1.8e-09
315.4783	8.954e-08	1.79e-09
315.931	8.951e-08	1.79e-09
329.4778	8.612e-08	1.72e-09
330.1139	8.574e-08	1.72e-09
330.581	8.567e-08	1.71e-09

System: toluene-d8; phases: Liquid
Fixed: Pressure, kPa = 101.325
Property: Thermal conductivity, W/m/K (Liquid); method: Hot wire method
Temperature, K	Thermal conductivity, W/m/K	uncertainty
259.6884	0.13495	0.00107
259.9073	0.13483	0.00107
260.0585	0.13476	0.00107
279.3534	0.12982	0.00104
279.5747	0.1297	0.00103
279.7288	0.12959	0.00103
296.8975	0.12512	0.001
297.1258	0.12494	0.001
297.2837	0.12485	0.001
315.8448	0.12002	0.00096
316.0766	0.1199	0.00096
316.2398	0.11979	0.00096
326.4662	0.11731	0.00094
326.7039	0.11718	0.00094
326.8692	0.117	0.00094

System: toluene-d8; phases: Liquid
Fixed: Pressure, kPa = 101.325
Property: Thermal diffusivity, m2/s (Liquid); method: Hot wire method
Temperature, K	Thermal diffusivity, m2/s	uncertainty
260.4656	8.33e-08	1.6e-09
261.0306	8.365e-08	1.61e-09
261.4177	8.359e-08	1.61e-09
280.1381	7.896e-08	1.52e-09
280.6913	7.899e-08	1.52e-09
281.0768	7.881e-08	1.52e-09
297.6864	7.516e-08	1.45e-09
298.2513	7.514e-08	1.45e-09
298.6437	7.506e-08	1.45e-09
316.6507	7.149e-08	1.38e-09
317.2137	7.128e-08	1.38e-09
317.6092	7.112e-08	1.37e-09
327.2775	6.951e-08	1.34e-09
327.85	6.929e-08	1.34e-09
328.2466	6.904e-08	1.33e-09

System: bicyclo[2.2.1]hepta-2,5-diene; phases: Liquid
Fixed: Pressure, kPa = 101.325
Property: Thermal conductivity, W/m/K (Liquid); method: Hot wire method
Temperature, K	Thermal conductivity, W/m/K	uncertainty
258.5689	0.14849	0.00117
258.7028	0.14844	0.00117
258.7973	0.14838	0.00117
276.7775	0.14263	0.00114
276.8871	0.14302	0.00114
276.9663	0.14289	0.00114
296.2295	0.13708	0.00109
296.3469	0.13695	0.00109
296.4317	0.13684	0.00109
313.2664	0.13152	0.00105
313.3804	0.13142	0.00105
313.4613	0.13132	0.00105
331.8058	0.12564	0.00101
331.9059	0.12547	0.00102
331.9753	0.12539	0.00101

System: bicyclo[2.2.1]hepta-2,5-diene; phases: Liquid
Fixed: Pressure, kPa = 101.325
Property: Thermal diffusivity, m2/s (Liquid); method: Hot wire method
Temperature, K	Thermal diffusivity, m2/s	uncertainty
258.9945	1.0792e-07	2.07e-09
259.3196	1.0842e-07	2.08e-09
259.5497	1.0853e-07	2.08e-09
277.208	1.0237e-07	1.97e-09
277.4732	1.0175e-07	1.97e-09
277.6639	1.012e-07	1.96e-09
296.6105	9.432e-08	1.81e-09
296.8927	9.444e-08	1.81e-09
297.0975	9.451e-08	1.81e-09
313.6305	8.845e-08	1.7e-09
313.9024	8.86e-08	1.7e-09
314.0952	8.86e-08	1.7e-09
332.1531	8.252e-08	1.59e-09
332.4002	8.247e-08	1.59e-09
332.573	8.238e-08	1.58e-09

System: ethylbenzene; phases: Liquid
Fixed: Pressure, kPa = 101.325
Property: Thermal conductivity, W/m/K (Liquid); method: Hot wire method
Temperature, K	Thermal conductivity, W/m/K	uncertainty
257.9965	0.13753	0.00109
258.2928	0.13738	0.00109
258.5028	0.13728	0.00109
277.3403	0.13283	0.00106
277.6532	0.1327	0.00106
277.8773	0.13262	0.00106
295.8552	0.12816	0.00102
296.1866	0.12804	0.00102
296.42	0.12797	0.00102
312.3767	0.12395	0.00099
312.7196	0.12383	0.00099
312.9613	0.12375	0.00099
329.049	0.11986	0.00096
329.4062	0.11974	0.00096
329.6589	0.11964	0.00096

System: ethylbenzene; phases: Liquid
Fixed: Pressure, kPa = 101.325
Property: Thermal diffusivity, m2/s (Liquid); method: Hot wire method
Temperature, K	Thermal diffusivity, m2/s	uncertainty
259.4906	9.446e-08	1.81e-09
260.4131	9.434e-08	1.81e-09
261.0616	9.412e-08	1.81e-09
278.8795	9.038e-08	1.73e-09
279.8359	9.023e-08	1.73e-09
280.5253	9.024e-08	1.73e-09
297.4412	8.657e-08	1.66e-09
298.4514	8.67e-08	1.67e-09
299.1577	8.658e-08	1.66e-09
313.9852	8.29e-08	1.59e-09
315.0063	8.284e-08	1.59e-09
315.7264	8.279e-08	1.59e-09
330.6936	7.966e-08	1.53e-09
331.7449	7.959e-08	1.53e-09
332.4873	7.953e-08	1.53e-09

System: 1,2-dimethylbenzene; phases: Liquid
Fixed: Pressure, kPa = 101.325
Property: Thermal conductivity, W/m/K (Liquid); method: Hot wire method
Temperature, K	Thermal conductivity, W/m/K	uncertainty
257.754	0.13684	0.00109
257.9607	0.13687	0.00109
258.1018	0.13677	0.00109
277.0728	0.13341	0.00106
277.2707	0.13326	0.00106
277.421	0.13327	0.00106
295.5648	0.12964	0.00103
295.7762	0.12957	0.00103
295.9141	0.12937	0.00103
312.0749	0.12591	0.00101
312.2879	0.12583	0.00101
312.4365	0.12572	0.00101
328.7197	0.12219	0.00098
328.9384	0.12201	0.00098
329.0906	0.12193	0.00098

System: 1,2-dimethylbenzene; phases: Liquid
Fixed: Pressure, kPa = 101.325
Property: Thermal diffusivity, m2/s (Liquid); method: Hot wire method
Temperature, K	Thermal diffusivity, m2/s	uncertainty
258.4657	9.156e-08	1.76e-09
258.9979	9.207e-08	1.77e-09
259.3541	9.189e-08	1.76e-09
277.7851	8.779e-08	1.69e-09
278.2752	8.751e-08	1.68e-09
278.6565	8.794e-08	1.69e-09
296.2902	8.464e-08	1.63e-09
296.8147	8.482e-08	1.63e-09
297.1468	8.42e-08	1.63e-09
312.8166	8.182e-08	1.57e-09
313.338	8.171e-08	1.57e-09
313.6973	8.15e-08	1.57e-09
329.4536	7.831e-08	1.51e-09
329.9828	7.826e-08	1.51e-09
330.3484	7.808e-08	1.5e-09

System: 1,3-dimethylbenzene; phases: Liquid
Fixed: Pressure, kPa = 101.325
Property: Thermal conductivity, W/m/K (Liquid); method: Hot wire method
Temperature, K	Thermal conductivity, W/m/K	uncertainty
258.1655	0.13931	0.00111
258.4153	0.13914	0.0011
258.5808	0.13911	0.0011
275.0421	0.13534	0.00108
275.2765	0.13526	0.00107
275.4408	0.13516	0.00107
287.357	0.13227	0.00105
287.6013	0.13216	0.00105
287.7716	0.13204	0.00105
294.0684	0.13055	0.00104
294.3156	0.13047	0.00104
294.4887	0.13036	0.00104
311.7419	0.12605	0.00101
311.9998	0.12594	0.00101
312.1792	0.12584	0.00101
328.7881	0.12179	0.00098
329.0398	0.12162	0.00097
329.224	0.12152	0.00097

System: 1,3-dimethylbenzene; phases: Liquid
Fixed: Pressure, kPa = 101.325
Property: Thermal diffusivity, m2/s (Liquid); method: Hot wire method
Temperature, K	Thermal diffusivity, m2/s	uncertainty
259.0076	9.793e-08	1.88e-09
259.6711	9.786e-08	1.88e-09
260.1176	9.815e-08	1.88e-09
275.9509	9.458e-08	1.81e-09
276.5656	9.453e-08	1.81e-09
276.9999	9.438e-08	1.81e-09
288.2693	9.159e-08	1.76e-09
288.9121	9.187e-08	1.76e-09
289.3542	9.168e-08	1.76e-09
294.9928	9.03e-08	1.73e-09
295.6414	9.055e-08	1.74e-09
296.0875	9.035e-08	1.73e-09
312.6843	8.652e-08	1.66e-09
313.3444	8.659e-08	1.66e-09
313.8005	8.638e-08	1.66e-09
329.7372	8.276e-08	1.59e-09
330.3647	8.222e-08	1.58e-09
330.8294	8.217e-08	1.58e-09

System: 1,4-dimethylbenzene; phases: Liquid
Fixed: Pressure, kPa = 101.325
Property: Thermal conductivity, W/m/K (Liquid); method: Hot wire method
Temperature, K	Thermal conductivity, W/m/K	uncertainty
287.3328	0.12961	0.00103
287.5513	0.12949	0.00103
287.7259	0.12941	0.00103
294.0282	0.12785	0.00102
294.2703	0.12778	0.00102
294.4354	0.12772	0.00102
311.709	0.12343	0.00099
311.9418	0.12323	0.00099
312.1083	0.12311	0.00099
328.7486	0.11909	0.00096
328.9921	0.11897	0.00095
329.1643	0.1189	0.00095

System: 1,4-dimethylbenzene; phases: Liquid
Fixed: Pressure, kPa = 101.325
Property: Thermal diffusivity, m2/s (Liquid); method: Hot wire method
Temperature, K	Thermal diffusivity, m2/s	uncertainty
288.1859	8.957e-08	1.72e-09
288.7385	8.891e-08	1.71e-09
289.1933	8.92e-08	1.71e-09
294.8555	8.779e-08	1.69e-09
295.48	8.816e-08	1.69e-09
295.901	8.815e-08	1.69e-09
312.5604	8.411e-08	1.62e-09
313.141	8.378e-08	1.61e-09
313.5551	8.358e-08	1.61e-09
329.6038	8.029e-08	1.54e-09
330.2074	8.024e-08	1.54e-09
330.6317	8.01e-08	1.54e-09

System: propylbenzene; phases: Liquid
Fixed: Pressure, kPa = 101.325
Property: Thermal conductivity, W/m/K (Liquid); method: Hot wire method
Temperature, K	Thermal conductivity, W/m/K	uncertainty
261.1762	0.13576	0.0009
261.404	0.13567	0.0009
261.566	0.13558	0.0009
275.0909	0.13296	0.00089
275.3328	0.13283	0.00089
275.4964	0.13275	0.00089
294.1721	0.12857	0.00086
294.4249	0.12851	0.00086
294.5995	0.12845	0.00086
312.5374	0.12468	0.00084
312.793	0.12456	0.00084
312.9726	0.12452	0.00084
329.5355	0.12082	0.00081
329.7907	0.12074	0.00081
329.9802	0.12069	0.00081

System: propylbenzene; phases: Liquid
Fixed: Pressure, kPa = 101.325
Property: Thermal diffusivity, m2/s (Liquid); method: Hot wire method
Temperature, K	Thermal diffusivity, m2/s	uncertainty
262.0361	9.044e-08	1.69e-09
262.6348	9.065e-08	1.69e-09
263.0594	9.061e-08	1.69e-09
275.9753	8.836e-08	1.65e-09
276.6084	8.869e-08	1.66e-09
277.0303	8.845e-08	1.66e-09
295.0832	8.493e-08	1.59e-09
295.7387	8.53e-08	1.6e-09
296.1874	8.52e-08	1.6e-09
313.4542	8.143e-08	1.53e-09
314.1041	8.157e-08	1.53e-09
314.5594	8.148e-08	1.53e-09
330.4516	7.798e-08	1.46e-09
331.0881	7.791e-08	1.46e-09
331.5673	7.809e-08	1.47e-09

System: isopropylbenzene; phases: Liquid
Fixed: Pressure, kPa = 101.325
Property: Thermal conductivity, W/m/K (Liquid); method: Hot wire method
Temperature, K	Thermal conductivity, W/m/K	uncertainty
261.1275	0.12634	0.00085
261.3331	0.12624	0.00085
261.4788	0.1262	0.00085
275.0309	0.12383	0.00083
275.2438	0.12374	0.00083
275.3971	0.12369	0.00083
294.1091	0.12022	0.00082
294.3167	0.12002	0.00081
294.4704	0.11994	0.00081
312.4581	0.11636	0.00079
312.6821	0.11632	0.00079
312.8382	0.11622	0.00079
329.4519	0.11281	0.00077
329.675	0.11271	0.00077
329.8336	0.11264	0.00076

System: isopropylbenzene; phases: Liquid
Fixed: Pressure, kPa = 101.325
Property: Thermal diffusivity, m2/s (Liquid); method: Hot wire method
Temperature, K	Thermal diffusivity, m2/s	uncertainty
261.845	8.445e-08	1.58e-09
262.3555	8.447e-08	1.58e-09
262.7151	8.439e-08	1.58e-09
275.746	8.183e-08	1.53e-09
276.2724	8.207e-08	1.54e-09
276.6512	8.217e-08	1.54e-09
294.8498	7.919e-08	1.49e-09
295.3487	7.862e-08	1.48e-09
295.7245	7.862e-08	1.47e-09
313.1787	7.509e-08	1.41e-09
313.7192	7.537e-08	1.42e-09
314.0929	7.527e-08	1.41e-09
330.1745	7.207e-08	1.35e-09
330.7039	7.208e-08	1.35e-09
331.0819	7.207e-08	1.35e-09

System: 1,2,3-trimethylbenzene; phases: Liquid
Fixed: Pressure, kPa = 101.325
Property: Thermal conductivity, W/m/K (Liquid); method: Hot wire method
Temperature, K	Thermal conductivity, W/m/K	uncertainty
257.6199	0.13415	0.00187
257.8342	0.13399	0.00187
257.9923	0.13398	0.00187
276.3558	0.13121	0.00183
276.5777	0.13119	0.00183
276.7328	0.13114	0.00183
283.3505	0.13034	0.00182
283.5744	0.13021	0.00182
283.7377	0.13018	0.00182
295.5817	0.12807	0.00179
295.812	0.12794	0.00179
295.9861	0.12791	0.00179
312.7944	0.12521	0.00175
313.0391	0.12515	0.00175
313.2067	0.12506	0.00175
330.7384	0.12185	0.0017
330.9946	0.12179	0.0017
331.1666	0.1217	0.0017

System: 1,2,3-trimethylbenzene; phases: Liquid
Fixed: Pressure, kPa = 101.325
Property: Thermal diffusivity, m2/s (Liquid); method: Hot wire method
Temperature, K	Thermal diffusivity, m2/s	uncertainty
258.4505	8.597e-08	1.92e-09
258.9967	8.552e-08	1.91e-09
259.4049	8.557e-08	1.91e-09
277.1497	8.246e-08	1.85e-09
277.7093	8.212e-08	1.84e-09
278.0978	8.197e-08	1.84e-09
284.1668	8.155e-08	1.83e-09
284.7285	8.139e-08	1.82e-09
285.1434	8.15e-08	1.82e-09
296.4315	8.04e-08	1.8e-09
297.0065	8.01e-08	1.79e-09
297.4519	8.041e-08	1.8e-09
313.6496	7.791e-08	1.75e-09
314.2627	7.808e-08	1.75e-09
314.6756	7.78e-08	1.74e-09
331.5887	7.488e-08	1.68e-09
332.2287	7.534e-08	1.69e-09
332.6489	7.51e-08	1.68e-09

System: 1,2,4-trimethylbenzene; phases: Liquid
Fixed: Pressure, kPa = 101.325
Property: Thermal conductivity, W/m/K (Liquid); method: Hot wire method
Temperature, K	Thermal conductivity, W/m/K	uncertainty
257.5785	0.13452	0.00107
257.7864	0.1344	0.00107
257.9342	0.13441	0.00107
276.3315	0.1314	0.00105
276.539	0.13126	0.00105
276.6914	0.1312	0.00104
283.3176	0.13013	0.00104
283.5383	0.13002	0.00104
283.6809	0.12994	0.00104
295.5359	0.12774	0.00102
295.7558	0.12766	0.00102
295.9063	0.12751	0.00102
312.7539	0.12435	0.001
312.9783	0.1242	0.00099
313.1281	0.12412	0.00099
330.695	0.12051	0.00096
330.9313	0.12048	0.00096
331.0929	0.12041	0.00096

System: 1,2,4-trimethylbenzene; phases: Liquid
Fixed: Pressure, kPa = 101.325
Property: Thermal diffusivity, m2/s (Liquid); method: Hot wire method
Temperature, K	Thermal diffusivity, m2/s	uncertainty
258.3221	8.886e-08	1.71e-09
258.8534	8.911e-08	1.71e-09
259.2307	8.919e-08	1.71e-09
277.0893	8.609e-08	1.65e-09
277.6078	8.583e-08	1.65e-09
277.994	8.597e-08	1.65e-09
284.0733	8.478e-08	1.63e-09
284.6308	8.515e-08	1.64e-09
284.983	8.471e-08	1.63e-09
296.2955	8.262e-08	1.59e-09
296.8447	8.283e-08	1.59e-09
297.2144	8.255e-08	1.59e-09
313.5282	7.999e-08	1.54e-09
314.0816	8e-08	1.54e-09
314.4445	7.956e-08	1.54e-09
331.4647	7.65e-08	1.48e-09
332.0445	7.692e-08	1.48e-09
332.4349	7.676e-08	1.48e-09

System: 1,3,5-trimethylbenzene; phases: Liquid
Fixed: Pressure, kPa = 101.325
Property: Thermal conductivity, W/m/K (Liquid); method: Hot wire method
Temperature, K	Thermal conductivity, W/m/K	uncertainty
258.661	0.14344	0.00139
258.8346	0.14341	0.00139
258.9533	0.14332	0.00139
276.8788	0.13998	0.00136
277.0433	0.13982	0.00136
277.164	0.13982	0.00136
296.361	0.13576	0.00132
296.5344	0.13564	0.00132
296.659	0.13558	0.00132
313.4425	0.13194	0.00129
313.6042	0.13168	0.00128
313.7269	0.13167	0.00128
331.9897	0.12741	0.00124
332.1597	0.12736	0.00124
332.2755	0.12718	0.00124

System: 1,3,5-trimethylbenzene; phases: Liquid
Fixed: Pressure, kPa = 101.325
Property: Thermal diffusivity, m2/s (Liquid); method: Hot wire method
Temperature, K	Thermal diffusivity, m2/s	uncertainty
259.2335	9.774e-08	1.96e-09
259.6664	9.834e-08	1.96e-09
259.9599	9.823e-08	1.96e-09
277.4669	9.485e-08	1.9e-09
277.8667	9.438e-08	1.89e-09
278.1637	9.446e-08	1.89e-09
296.9285	8.995e-08	1.8e-09
297.349	9.015e-08	1.8e-09
297.6505	9.02e-08	1.8e-09
314.0258	8.711e-08	1.76e-09
314.409	8.627e-08	1.73e-09
314.7021	8.629e-08	1.73e-09
332.5626	8.277e-08	1.66e-09
332.963	8.248e-08	1.65e-09
333.2353	8.207e-08	1.65e-09
