Measured thermophysical data. Vapor Liquid Equilibrium for Binary System of 2-Propanol + 2-Ethoxy-2-methylpropane and Ethyl Ethanoate + 2-Ethoxy-2-methylpropane at 333 K and 2-Propanone + 2-Ethoxy-2-methylpropane at 323 K
Source: J. Chem. Eng. Data, 2004, 10.1021/je0342421
Compound 1: propan-2-ol, C3H8O, InChI=1S/C3H8O/c1-3(2)4/h3-4H,1-2H3
Compound 2: ethyl acetate, C4H8O2, InChI=1S/C4H8O2/c1-3-6-4(2)5/h3H2,1-2H3
Compound 3: acetone, C3H6O, InChI=1S/C3H6O/c1-3(2)4/h1-2H3
Compound 4: 2-ethoxy-2-methylpropane, C6H14O, InChI=1S/C6H14O/c1-5-7-6(2,3)4/h5H2,1-4H3

System: 2-ethoxy-2-methylpropane; phases: Liquid, Gas
Property: Vapor or sublimation pressure, kPa (Liquid); method: EBULLIO:UFactor:64
Temperature, K	Vapor or sublimation pressure, kPa	uncertainty
312.49	31.7	0.7
318.55	40.2	0.7
323.25	47.2	0.8
325.18	51.4	0.8
326.6	54.1	0.8
329.02	59	0.8
331.96	65.3	0.9
333.28	67.4	0.9
335.92	74.8	0.9
338.08	80.5	0.9
340.01	85.8	1
341.49	90.1	1
342.88	94.3	1
343.86	97	1
345.77	102.8	1.1

System: propan-2-ol + 2-ethoxy-2-methylpropane; phases: Liquid, Gas
Property: Azeotropic composition: mole fraction of propan-2-ol (Liquid); method: By X=Y
Temperature, K	Azeotropic composition: mole fraction of propan-2-ol	uncertainty
333	0.23	0.004

System: propan-2-ol + 2-ethoxy-2-methylpropane; phases: Liquid, Gas
Property: Azeotropic composition: mole fraction of propan-2-ol (Liquid); method: By X=Y
Pressure, kPa	Azeotropic composition: mole fraction of propan-2-ol	uncertainty
73.3	0.23	0.004

System: propan-2-ol + 2-ethoxy-2-methylpropane; phases: Liquid, Gas
Property: Vapor or sublimation pressure, kPa (Liquid); method: Ebulliometric method (Recirculating still)
Mole fraction of propan-2-ol	Temperature, K	Vapor or sublimation pressure, kPa	uncertainty
0	333.28	67.4	0.5
0.093	333.31	72.3	0.5
0.1472	333.34	73.2	0.5
0.2025	333.28	73.3	0.5
0.2594	333.3	73.2	0.5
0.3209	333.35	72.8	0.5
0.3776	333.31	72	0.5
0.4422	333.29	71.1	0.5
0.4979	333.34	70.1	0.5
0.5597	333.28	68.5	0.5
0.6145	333.28	66.9	0.5
0.6627	333.31	65.4	0.5
0.7102	333.31	63.5	0.4
0.7826	333.27	59.7	0.4
0.8337	333.35	56.5	0.4
0.87	333.28	53.6	0.4
0.8965	333.28	51.2	0.4
0.9221	333.27	48.6	0.4
0.9467	333.32	45.9	0.3
0.9652	333.31	43.7	0.3
0.98	333.26	41.7	0.3
0.9924	333.28	39.9	0.3
1	333.28	38.8	0.3

System: propan-2-ol + 2-ethoxy-2-methylpropane; phases: Gas, Liquid
Property: Mole fraction of propan-2-ol (Gas); method: Chromatography
Mole fraction of propan-2-ol	Temperature, K	Mole fraction of propan-2-ol	uncertainty
0	333.28	0	
0.093	333.31	0.1305	0.0016
0.1472	333.34	0.1781	0.0023
0.2025	333.28	0.2144	0.0028
0.2594	333.3	0.2454	0.0032
0.3209	333.35	0.2762	0.0037
0.3776	333.31	0.3019	0.0041
0.4422	333.29	0.3315	0.0045
0.4979	333.34	0.3557	0.0049
0.5597	333.28	0.3849	0.0054
0.6145	333.28	0.4121	0.0058
0.6627	333.31	0.4404	0.0063
0.7102	333.31	0.47	0.0067
0.7826	333.27	0.531	0.0068
0.8337	333.35	0.5872	0.006
0.87	333.28	0.637	0.0053
0.8965	333.28	0.6836	0.0046
0.9221	333.27	0.7439	0.0036
0.9467	333.32	0.8035	0.0027
0.9652	333.31	0.8639	0.0018
0.98	333.26	0.9175	0.0011
0.9924	333.28	0.9677	0.0004
1	333.28	1	

System: ethyl acetate + 2-ethoxy-2-methylpropane; phases: Liquid, Gas
Property: Azeotropic composition: mole fraction of ethyl acetate (Liquid); method: By X=Y
Pressure, kPa	Azeotropic composition: mole fraction of ethyl acetate	uncertainty
69.2	0.271	0.004

System: ethyl acetate + 2-ethoxy-2-methylpropane; phases: Liquid, Gas
Property: Azeotropic composition: mole fraction of ethyl acetate (Liquid); method: By X=Y
Temperature, K	Azeotropic composition: mole fraction of ethyl acetate	uncertainty
333	0.271	0.004

System: ethyl acetate + 2-ethoxy-2-methylpropane; phases: Liquid, Gas
Property: Vapor or sublimation pressure, kPa (Liquid); method: Ebulliometric method (Recirculating still)
Mole fraction of ethyl acetate	Temperature, K	Vapor or sublimation pressure, kPa	uncertainty
0	333.29	67.6	0.5
0.0517	333.31	68.2	0.5
0.0967	333.31	68.7	0.5
0.1377	333.3	68.9	0.5
0.1841	333.3	69.1	0.5
0.2313	333.32	69.2	0.5
0.2787	333.31	69.2	0.5
0.3365	333.31	69.1	0.5
0.3977	333.32	68.8	0.5
0.4539	333.29	68.3	0.5
0.5291	333.31	67.9	0.5
0.5888	333.28	67	0.5
0.6383	333.29	66.3	0.5
0.6891	333.27	65.4	0.5
0.7363	333.3	64.6	0.5
0.7845	333.27	63.4	0.4
0.828	333.31	62.4	0.4
0.8717	333.29	61	0.4
0.9065	333.28	59.9	0.4
0.9369	333.29	58.9	0.4
0.9744	333.28	57.3	0.4
1	333.29	56.2	0.4

System: ethyl acetate + 2-ethoxy-2-methylpropane; phases: Gas, Liquid
Property: Mole fraction of ethyl acetate (Gas); method: Chromatography
Mole fraction of ethyl acetate	Temperature, K	Mole fraction of ethyl acetate	uncertainty
0	333.29	0	
0.0517	333.31	0.0599	0.0007
0.0967	333.31	0.1079	0.0013
0.1377	333.3	0.1497	0.0019
0.1841	333.3	0.1935	0.0025
0.2313	333.32	0.2364	0.0031
0.2787	333.31	0.2775	0.0038
0.3365	333.31	0.3261	0.0046
0.3977	333.32	0.3764	0.0054
0.4539	333.29	0.4216	0.0062
0.5291	333.31	0.4826	0.0073
0.5888	333.28	0.5303	0.0073
0.6383	333.29	0.5739	0.0067
0.6891	333.27	0.6191	0.0061
0.7363	333.3	0.6636	0.0054
0.7845	333.27	0.7142	0.0046
0.828	333.31	0.7601	0.0039
0.8717	333.29	0.8118	0.003
0.9065	333.28	0.8566	0.0023
0.9369	333.29	0.8995	0.0016
0.9744	333.28	0.9568	0.0007
1	333.29	1	

System: acetone + 2-ethoxy-2-methylpropane; phases: Liquid, Gas
Property: Azeotropic composition: mole fraction of acetone (Liquid); method: By X=Y
Temperature, K	Azeotropic composition: mole fraction of acetone	uncertainty
323	0.821	0.003

System: acetone + 2-ethoxy-2-methylpropane; phases: Liquid, Gas
Property: Azeotropic composition: mole fraction of acetone (Liquid); method: By X=Y
Pressure, kPa	Azeotropic composition: mole fraction of acetone	uncertainty
84.35	0.821	0.003

System: acetone + 2-ethoxy-2-methylpropane; phases: Liquid, Gas
Property: Vapor or sublimation pressure, kPa (Liquid); method: Ebulliometric method (Recirculating still)
Mole fraction of acetone	Temperature, K	Vapor or sublimation pressure, kPa	uncertainty
0	323.3	47.2	0.4
0.0446	323.27	53.1	0.4
0.0775	323.23	57.1	0.4
0.1134	323.32	60.3	0.4
0.1562	323.22	63.5	0.5
0.2055	323.27	67.1	0.5
0.2614	323.22	70.3	0.5
0.3202	323.24	73.3	0.5
0.3799	323.3	75.8	0.5
0.5053	323.31	79.5	0.6
0.5625	323.29	80.8	0.6
0.615	323.3	82	0.6
0.6674	323.31	83	0.6
0.7127	323.28	83.6	0.6
0.7518	323.29	84	0.6
0.7909	323.29	84.2	0.6
0.8422	323.3	84.4	0.6
0.8854	323.29	84.1	0.6
0.9088	323.29	83.9	0.6
0.9339	323.31	83.6	0.6
0.9591	323.32	83.1	0.6
0.9702	323.3	82.9	0.6
0.9834	323.35	82.7	0.6
0.9945	323.35	82.3	0.6
1	323.35	82.1	0.6

System: acetone + 2-ethoxy-2-methylpropane; phases: Gas, Liquid
Property: Mole fraction of acetone (Gas); method: Chromatography
Mole fraction of acetone	Temperature, K	Mole fraction of acetone	uncertainty
0	323.3	0	
0.0446	323.27	0.1476	0.0019
0.0775	323.23	0.2337	0.0031
0.1134	323.32	0.2931	0.004
0.1562	323.22	0.3556	0.0051
0.2055	323.27	0.4162	0.0061
0.2614	323.22	0.469	0.0071
0.3202	323.24	0.5185	0.0074
0.3799	323.3	0.5593	0.0069
0.5053	323.31	0.632	0.0059
0.5625	323.29	0.6636	0.0054
0.615	323.3	0.6932	0.0049
0.6674	323.31	0.7236	0.0045
0.7127	323.28	0.7491	0.0041
0.7518	323.29	0.7732	0.0037
0.7909	323.29	0.7989	0.0033
0.8422	323.3	0.8372	0.0026
0.8854	323.29	0.8718	0.0021
0.9088	323.29	0.8934	0.0017
0.9339	323.31	0.9186	0.0013
0.9591	323.32	0.9469	0.0008
0.9702	323.3	0.9603	0.0006
0.9834	323.35	0.9771	0.0004
0.9945	323.35	0.9923	0.0001
1	323.35	1	
