Measured thermophysical data. Isobaric Vapor-Liquid and Vapor-Liquid-Liquid Equilibria Data for the System Water + Isopropanol + Isooctane
Source: J. Chem. Eng. Data, 2004, 10.1021/je0341211
Compound 1: water, H2O, InChI=1S/H2O/h1H2, purity 99.9%
Compound 2: propan-2-ol, C3H8O, InChI=1S/C3H8O/c1-3(2)4/h3-4H,1-2H3, purity 99.8%
Compound 3: 2,2,4-trimethylpentane, C8H18, InChI=1S/C8H18/c1-7(2)6-8(3,4)5/h7H,6H2,1-5H3, purity 99.5%

System: 2,2,4-trimethylpentane + water; phases: Liquid mixture 1, Liquid mixture 2, Gas
Property: Mole fraction of water (Liquid mixture 1); method: Chromatography
Temperature, K	Mole fraction of water	uncertainty
352.18	0.006	0.004

System: 2,2,4-trimethylpentane + water; phases: Liquid mixture 2, Liquid mixture 1, Gas
Property: Mole fraction of water (Liquid mixture 2); method: Chromatography
Temperature, K	Mole fraction of water	uncertainty
352.18	0.997	0.003

System: 2,2,4-trimethylpentane + water; phases: Gas, Liquid mixture 1, Liquid mixture 2
Property: Mole fraction of water (Gas); method: Chromatography
Temperature, K	Mole fraction of water	uncertainty
352.18	0.473	0.005

System: propan-2-ol + 2,2,4-trimethylpentane + water; phases: Gas, Liquid mixture 1, Liquid mixture 2
Fixed: Pressure, kPa = 101.3
Property: Mole fraction of propan-2-ol (Gas); method: Chromatography
Property: Mole fraction of propan-2-ol (Liquid mixture 1); method: Chromatography
Property: Mole fraction of propan-2-ol (Liquid mixture 2); method: Chromatography
Property: Mole fraction of 2,2,4-trimethylpentane (Gas); method: Chromatography
Property: Mole fraction of 2,2,4-trimethylpentane (Liquid mixture 1); method: Chromatography
Property: Mole fraction of 2,2,4-trimethylpentane (Liquid mixture 2); method: Chromatography
Temperature, K	Mole fraction of propan-2-ol	uncertainty	Mole fraction of propan-2-ol	uncertainty	Mole fraction of propan-2-ol	uncertainty	Mole fraction of 2,2,4-trimethylpentane	uncertainty	Mole fraction of 2,2,4-trimethylpentane	uncertainty	Mole fraction of 2,2,4-trimethylpentane	uncertainty
344.42	0.282	0.005	0.165	0.006	0.081	0.005	0.389	0.005	0.8	0.007	0.008	0.004
344.19	0.295	0.009	0.25	0.043	0.128	0.041	0.384	0.007	0.69	0.09	0.013	0.013
344.12	0.301	0.005	0.262	0.016	0.16	0.013	0.397	0.005	0.667	0.037	0.018	0.009
344.06	0.308	0.005	0.285	0.009	0.181	0.008	0.38	0.005	0.643	0.012	0.021	0.004
344	0.32	0.005	0.344	0.013	0.223	0.009	0.38	0.005	0.554	0.019	0.03	0.004
344.06	0.327	0.005	0.41	0.01	0.281	0.008	0.359	0.005	0.363	0.012	0.058	0.004
344.14	0.328	0.005	0.427	0.011	0.297	0.013	0.364	0.005	0.314	0.021	0.091	0.006

System: propan-2-ol + 2,2,4-trimethylpentane + water; phases: Liquid, Gas
Fixed: Pressure, kPa = 101.3
Property: Mole fraction of 2,2,4-trimethylpentane (Liquid); method: Chromatography
Property: Mole fraction of 2,2,4-trimethylpentane (Gas); method: Chromatography
Property: Mole fraction of propan-2-ol (Gas); method: Chromatography
Temperature, K	Mole fraction of propan-2-ol	Mole fraction of 2,2,4-trimethylpentane	uncertainty	Mole fraction of 2,2,4-trimethylpentane	uncertainty	Mole fraction of propan-2-ol	uncertainty
344.11	0.426	0.194	0.004	0.381	0.005	0.305	
344.5	0.422	0.508	0.005	0.385	0.005	0.334	
344.12	0.376	0.471	0.005	0.379	0.005	0.306	
344.77	0.432	0.439	0.005	0.359	0.005	0.375	
344.77	0.517	0.305	0.005	0.361	0.005	0.374	
344.66	0.476	0.367	0.005	0.36	0.005	0.362	
344.09	0.412	0.315	0.005	0.379	0.005	0.329	
344.4	0.481	0.252	0.004	0.369	0.005	0.349	
344.91	0.549	0.159	0.004	0.356	0.005	0.362	
344.8	0.492	0.087	0.004	0.364	0.005	0.341	
347.25	0.693	0.092	0.004	0.264	0.005	0.513	
346.83	0.528	0.436	0.005	0.372	0.005	0.491	
346.96	0.607	0.333	0.005	0.353	0.005	0.51	
347.8	0.689	0.243	0.004	0.32	0.005	0.565	
348.97	0.694	0.052	0.004	0.203	0.004	0.544	
347.45	0.725	0.141	0.004	0.271	0.005	0.555	
346.1	0.645	0.188	0.004	0.315	0.005	0.469	
346.53	0.649	0.102	0.004	0.293	0.005	0.457	
348.48	0.662	0.049	0.004	0.233	0.004	0.498	
345.25	0.556	0.093	0.004	0.327	0.005	0.387	
345.7	0.618	0.14	0.004	0.313	0.005	0.437	
345.39	0.59	0.233	0.004	0.33	0.005	0.444	
