Measured thermophysical data. Vapor-Liquid-Liquid Equilibria, Azeotropic, and Excess Enthalpy Data for the Binary System n-Undecane + Propionamide, and Pure Component Vapor Pressure and Density Data for Propionamide
Source: J. Chem. Eng. Data, 2004, 10.1021/je034255e
Compound 1: undecane, C11H24, InChI=1S/C11H24/c1-3-5-7-9-11-10-8-6-4-2/h3-11H2,1-2H3
Compound 2: propanamide, C3H7NO, InChI=1S/C3H7NO/c1-2-3(4)5/h2H2,1H3,(H2,4,5)

System: propanamide; phases: Liquid, Gas
Property: Vapor or sublimation pressure, kPa (Liquid); method: EBULLIO:UFactor:8
Temperature, K	Vapor or sublimation pressure, kPa	uncertainty
375.45	0.97	0.08
384.15	1.53	0.08
394.15	2.52	0.08
403.65	4.02	0.08
414.05	6.4	0.09
427.65	11.22	0.09
443.85	21.16	0.11
455.55	31.04	0.12
462.95	40.87	0.14
469.05	50.69	0.15
475.85	60.86	0.16

System: propanamide; phases: Liquid
Fixed: Pressure, kPa = 101.325
Property: Mass density, kg/m3 (Liquid); method: VIBTUB:mpoint:UFactor:4
Temperature, K	Mass density, kg/m3	uncertainty
355.65	963.2	0.3
358.15	961.2	0.3
363.15	957.2	0.3

System: propanamide + undecane; phases: Liquid
Fixed: Temperature, K = 413.15
Fixed: Pressure, kPa = 1620
Property: Excess molar enthalpy (molar enthalpy of mixing), kJ/mol (Liquid); method: Flow calorimetry
Mole fraction of undecane	Excess molar enthalpy (molar enthalpy of mixing), kJ/mol	uncertainty
0.0092	0.139	0.005
0.0284	0.241	0.005
0.049	0.254	0.005
0.1074	0.28	0.005
0.7646	0.556	0.006
0.9337	0.628	0.007
0.9661	0.644	0.007

System: propanamide + undecane; phases: Liquid mixture 1, Liquid mixture 2, Gas
Property: Vapor or sublimation pressure, kPa (Liquid mixture 1); method: EBULLIO:UFactor:2
Temperature, K	Vapor or sublimation pressure, kPa	uncertainty
380.2	7.23	0.26
391.95	11.89	0.3
416.65	29.99	0.44

System: propanamide + undecane; phases: Liquid mixture 1, Liquid mixture 2, Gas
Property: Mole fraction of undecane (Liquid mixture 1); method: OTHER
Temperature, K	Mole fraction of undecane	uncertainty
359.15	0.0066	0.0002
372.65	0.0113	0.0002
393.15	0.0173	0.0004
393.75	0.0138	0.0004
413.15	0.016	0.001
415.15	0.0189	0.0002

System: propanamide + undecane; phases: Liquid mixture 2, Liquid mixture 1, Gas
Property: Mole fraction of undecane (Liquid mixture 2); method: OTHER
Temperature, K	Mole fraction of undecane	uncertainty
342.65	0.994	0.0002
359.25	0.9932	0.0002
373.15	0.9867	0.0002
376.15	0.991	0.0002
393.15	0.9795	0.0002
415.15	0.9492	0.0002

System: propanamide + undecane; phases: Gas, Liquid, Liquid mixture 2
Property: Mole fraction of undecane (Gas); method: OTHER
Temperature, K	Mole fraction of undecane	uncertainty
372.65	0.8216	0.0003
380.2	0.7877	0.0003
391.95	0.7621	0.0002
415.15	0.7625	0.0011
416.65	0.7343	0.0011

System: propanamide + undecane; phases: Liquid, Gas
Property: Azeotropic composition: mole fraction of undecane (Liquid); method: By X=Y
Temperature, K	Azeotropic composition: mole fraction of undecane	uncertainty
372.65	0.8216	0.0024
380.2	0.7877	0.0028
391.95	0.7621	0.003
415.15	0.7625	0.0032
416.65	0.7343	0.0034
