Measured thermophysical data. Densities, Viscosities, Speeds of Sound, and Relative Permittivities for Water + Cyclic Amides (2-Pyrrolidinone, 1-Methyl-2-pyrrolidinone, and 1-Vinyl-2-pyrrolidinone) at Different Temperatures
Source: J. Chem. Eng. Data, 2004, 10.1021/je0340809
Compound 1: N-vinylpyrrolidone, C6H9NO, InChI=1S/C6H9NO/c1-2-7-5-3-4-6(7)8/h2H,1,3-5H2, purity 97%
Compound 2: water, H2O, InChI=1S/H2O/h1H2, purity 99.8%
Compound 3: 2-pyrrolidinone, C4H7NO, InChI=1S/C4H7NO/c6-4-2-1-3-5-4/h1-3H2,(H,5,6), purity 99%
Compound 4: N-methylpyrrolidone, C5H9NO, InChI=1S/C5H9NO/c1-6-4-2-3-5(6)7/h2-4H2,1H3, purity 98%

System: N-vinylpyrrolidone; phases: Liquid
Fixed: Pressure, kPa = 101.325
Property: Viscosity, Pa*s (Liquid); method: CAPTUB:UFactor:8
Temperature, K	Viscosity, Pa*s	uncertainty
298.15	0.004322	0.000246
308.15	0.002942	0.000171
318.15	0.00259	0.000151
328.15	0.002259	0.000133
338.15	0.001836	0.00011

System: N-vinylpyrrolidone; phases: Liquid
Fixed: Pressure, kPa = 101.325
Property: Speed of sound, m/s (Liquid); method: LVPAI:UFactor:4
Temperature, K	Speed of sound, m/s	uncertainty
298.15	1530.1	6.3
308.15	1499.4	6.2
318.15	1467.6	6.1
328.15	1430.2	6
338.15	1403.3	5.9

System: N-vinylpyrrolidone; phases: Liquid
Fixed: Pressure, kPa = 101.325
Property: Mass density, kg/m3 (Liquid); method: VIBTUB:UFactor:16
Temperature, K	Mass density, kg/m3	uncertainty
298.15	1042.04	0.771
308.15	1033.192	0.715
318.15	1024.385	0.66
328.15	1015.579	0.604
338.15	1006.769	0.549

System: water; phases: Liquid
Fixed: Pressure, kPa = 101.325
Property: Speed of sound, m/s (Liquid); method: LVPAI:UFactor:4
Temperature, K	Speed of sound, m/s	uncertainty
298.15	1498	6.2
308.15	1519	6.3
318.15	1535.1	6.3
328.15	1545	6.3
338.15	1551	6.4

System: 2-pyrrolidinone; phases: Liquid
Fixed: Pressure, kPa = 101.325
Property: Viscosity, Pa*s (Liquid); method: CAPTUB:UFactor:8
Temperature, K	Viscosity, Pa*s	uncertainty
298.15	0.013363	0.000476
308.15	0.008844	0.000336
318.15	0.006259	0.000256
328.15	0.004677	0.000204
338.15	0.003451	0.000153

System: 2-pyrrolidinone; phases: Liquid
Fixed: Pressure, kPa = 101.325
Property: Speed of sound, m/s (Liquid); method: LVPAI:UFactor:4
Temperature, K	Speed of sound, m/s	uncertainty
298.15	1633.2	6.6
308.15	1603.1	6.5
318.15	1563.2	6.4
328.15	1549.7	6.4
338.15	1520.1	6.3

System: 2-pyrrolidinone; phases: Liquid
Fixed: Pressure, kPa = 101.325
Property: Mass density, kg/m3 (Liquid); method: VIBTUB:UFactor:32
Temperature, K	Mass density, kg/m3	uncertainty
298.15	1107.019	2.36
308.15	1099.148	2.261
318.15	1091.057	2.159
328.15	1082.867	2.056
338.15	1070.679	1.902

System: N-methylpyrrolidone; phases: Liquid
Fixed: Pressure, kPa = 101.325
Property: Viscosity, Pa*s (Liquid); method: CAPTUB:UFactor:8
Temperature, K	Viscosity, Pa*s	uncertainty
298.15	0.001663	7.8e-05
308.15	0.001365	6.5e-05
318.15	0.00121	5.8e-05
328.15	0.001117	5.4e-05
338.15	0.000986	4.9e-05

System: N-methylpyrrolidone; phases: Liquid
Fixed: Pressure, kPa = 101.325
Property: Speed of sound, m/s (Liquid); method: LVPAI:UFactor:8
Temperature, K	Speed of sound, m/s	uncertainty
298.15	1545.1	12.7
308.15	1518.4	12.5
318.15	1477.8	12.3
328.15	1448.7	12.1
338.15	1407.3	11.8

System: N-methylpyrrolidone; phases: Liquid
Fixed: Pressure, kPa = 101.325
Property: Mass density, kg/m3 (Liquid); method: VIBTUB:UFactor:16
Temperature, K	Mass density, kg/m3	uncertainty
298.15	1028.311	0.684
308.15	1019.329	0.628
318.15	1010.108	0.57
328.15	1001.178	0.514
338.15	992.234	0.555

System: N-vinylpyrrolidone + water; phases: Liquid
Fixed: Pressure, kPa = 101.3
Property: Viscosity, Pa*s (Liquid); method: CAPTUB:UFactor:4
Mole fraction of water	Temperature, K	Viscosity, Pa*s	uncertainty
0.0557	298.15	0.004243	9.7e-05
0.0557	308.15	0.002907	6.7e-05
0.0557	318.15	0.002552	5.8e-05
0.0557	328.15	0.002221	5.1e-05
0.0557	338.15	0.001807	4.3e-05
0.1591	298.15	0.004052	9.2e-05
0.1591	308.15	0.002809	6.5e-05
0.1591	318.15	0.002454	5.6e-05
0.1591	328.15	0.002128	4.9e-05
0.1591	338.15	0.001736	4.1e-05
0.2543	298.15	0.003875	8.9e-05
0.2543	308.15	0.002718	6.3e-05
0.2543	318.15	0.002362	5.4e-05
0.2543	328.15	0.002042	4.7e-05
0.2543	338.15	0.001668	4e-05
0.3503	298.15	0.00375	8.6e-05
0.3503	308.15	0.002667	6.2e-05
0.3503	318.15	0.002305	5.3e-05
0.3503	328.15	0.001983	4.6e-05
0.3503	338.15	0.001624	3.9e-05
0.4525	298.15	0.003717	8.5e-05
0.4525	308.15	0.002694	6.2e-05
0.4525	318.15	0.00231	5.3e-05
0.4525	328.15	0.001975	4.6e-05
0.4525	338.15	0.001621	3.9e-05
0.5028	298.15	0.003742	8.5e-05
0.5028	308.15	0.002742	6.3e-05
0.5028	318.15	0.00234	5.4e-05
0.5028	328.15	0.001993	4.6e-05
0.5028	338.15	0.001639	3.9e-05
0.5539	298.15	0.003792	8.6e-05
0.5539	308.15	0.002807	6.5e-05
0.5539	318.15	0.002385	5.5e-05
0.5539	328.15	0.002025	4.7e-05
0.5539	338.15	0.001667	4e-05
0.6546	298.15	0.00391	8.8e-05
0.6546	308.15	0.002954	6.8e-05
0.6546	318.15	0.002488	5.7e-05
0.6546	328.15	0.002096	4.9e-05
0.6546	338.15	0.00173	4.1e-05
0.7505	298.15	0.003904	8.7e-05
0.7505	308.15	0.003001	6.9e-05
0.7505	318.15	0.002509	5.7e-05
0.7505	328.15	0.002103	4.9e-05
0.7505	338.15	0.001739	4.1e-05
0.8519	298.15	0.003466	7.8e-05
0.8519	308.15	0.002703	6.2e-05
0.8519	318.15	0.002249	5.2e-05
0.8519	328.15	0.001876	4.4e-05
0.8519	338.15	0.001557	3.7e-05
0.8751	298.15	0.003255	7.4e-05
0.8751	308.15	0.002545	5.9e-05
0.8751	318.15	0.002115	4.9e-05
0.8751	328.15	0.001763	4.1e-05
0.8751	338.15	0.001466	3.5e-05
0.8852	298.15	0.003145	7.1e-05
0.8852	308.15	0.002463	5.7e-05
0.8852	318.15	0.002046	4.8e-05
0.8852	328.15	0.001705	4e-05
0.8852	338.15	0.00142	3.4e-05
0.9001	298.15	0.002962	6.7e-05
0.9001	308.15	0.002324	5.4e-05
0.9001	318.15	0.001929	4.5e-05
0.9001	328.15	0.001609	3.8e-05
0.9001	338.15	0.00134	3.2e-05
0.9251	298.15	0.002591	5.9e-05
0.9251	308.15	0.00204	4.8e-05
0.9251	318.15	0.001692	4e-05
0.9251	328.15	0.001411	3.4e-05
0.9251	338.15	0.00118	2.9e-05
0.9357	298.15	0.002408	5.6e-05
0.9357	308.15	0.0019	4.5e-05
0.9357	318.15	0.001576	3.7e-05
0.9357	328.15	0.001314	3.2e-05
0.9357	338.15	0.0011	2.7e-05
0.9554	298.15	0.002021	4.7e-05
0.9554	308.15	0.0016	3.8e-05
0.9554	318.15	0.001326	3.2e-05
0.9554	328.15	0.001108	2.7e-05
0.9554	338.15	0.000931	2.3e-05
0.9649	298.15	0.001082	2.7e-05
0.9649	308.15	0.001437	3.4e-05
0.9649	318.15	0.001191	2.9e-05
0.9649	328.15	0.000995	2.5e-05
0.9649	338.15	0.00084	2.1e-05
0.9749	298.15	0.001573	3.7e-05
0.9749	308.15	0.001252	3.1e-05
0.9749	318.15	0.001037	2.6e-05
0.9749	328.15	0.000868	2.2e-05
0.9749	338.15	0.000736	1.9e-05
0.9903	298.15	0.001169	2.9e-05
0.9903	308.15	0.000932	2.4e-05
0.9903	318.15	0.000776	2e-05
0.9903	328.15	0.000652	1.7e-05
0.9903	338.15	0.00056	1.5e-05

System: N-vinylpyrrolidone + water; phases: Liquid
Fixed: Pressure, kPa = 101.3
Property: Speed of sound, m/s (Liquid); method: LVPAI:UFactor:4
Mole fraction of water	Temperature, K	Speed of sound, m/s	uncertainty
0.0557	298.15	1533.7	6.3
0.0557	308.15	1502.5	6.2
0.0557	318.15	1470.5	6.1
0.0557	328.15	1433	6
0.0557	338.15	1406	5.9
0.1591	298.15	1548.1	6.4
0.1591	308.15	1514.3	6.3
0.1591	318.15	1480.4	6.1
0.1591	328.15	1441.7	6
0.1591	338.15	1413.8	5.9
0.2543	298.15	1563.3	6.4
0.2543	308.15	1526.7	6.3
0.2543	318.15	1490.9	6.2
0.2543	328.15	1451.2	6.1
0.2543	338.15	1422.3	6
0.3503	298.15	1580.9	6.5
0.3503	308.15	1541.2	6.3
0.3503	318.15	1503.3	6.2
0.3503	328.15	1462.3	6.1
0.3503	338.15	1432.4	6
0.4525	298.15	1598.7	6.5
0.4525	308.15	1556.2	6.4
0.4525	318.15	1516.6	6.3
0.4525	328.15	1474.7	6.1
0.4525	338.15	1444.1	6
0.5028	298.15	1609.9	6.6
0.5028	308.15	1565.6	6.4
0.5028	318.15	1524.9	6.3
0.5028	328.15	1482.4	6.2
0.5028	338.15	1451.3	6.1
0.5539	298.15	1618.5	6.6
0.5539	308.15	1573.3	6.4
0.5539	318.15	1532.1	6.3
0.5539	328.15	1489.6	6.2
0.5539	338.15	1458.3	6.1
0.6546	298.15	1635.8	6.6
0.6546	308.15	1589.3	6.5
0.6546	318.15	1547.7	6.4
0.6546	328.15	1505.7	6.2
0.6546	338.15	1474.6	6.1
0.7505	298.15	1649.2	6.7
0.7505	308.15	1603.4	6.5
0.7505	318.15	1563.3	6.4
0.7505	328.15	1523.4	6.3
0.7505	338.15	1493.7	6.2
0.8519	298.15	1648.2	6.7
0.8519	308.15	1609.5	6.5
0.8519	318.15	1576	6.4
0.8519	328.15	1542.9	6.3
0.8519	338.15	1517.9	6.3
0.8751	298.15	1646.7	6.7
0.8751	308.15	1610.5	6.5
0.8751	318.15	1579.4	6.5
0.8751	328.15	1548.6	6.4
0.8751	338.15	1525.2	6.3
0.8852	298.15	1644.4	6.7
0.8852	308.15	1609.8	6.5
0.8852	318.15	1580.1	6.5
0.8852	328.15	1550.7	6.4
0.8852	338.15	1528.2	6.3
0.9001	298.15	1640	6.6
0.9001	308.15	1608.2	6.5
0.9001	318.15	1580.9	6.5
0.9001	328.15	1553.7	6.4
0.9001	338.15	1532.8	6.3
0.9251	298.15	1623.7	6.6
0.9251	308.15	1599.1	6.5
0.9251	318.15	1577.9	6.4
0.9251	328.15	1556.2	6.4
0.9251	338.15	1539.1	6.3
0.9357	298.15	1613.8	6.6
0.9357	308.15	1593.2	6.5
0.9357	318.15	1575.3	6.4
0.9357	328.15	1556.5	6.4
0.9357	338.15	1541.5	6.3
0.9554	298.15	1589.5	6.5
0.9554	308.15	1578.2	6.4
0.9554	318.15	1567.9	6.4
0.9554	328.15	1556.6	6.4
0.9554	338.15	1545.5	6.3
0.9649	298.15	1574.7	6.4
0.9649	308.15	1568.8	6.4
0.9649	318.15	1562.9	6.4
0.9649	328.15	1554.4	6.4
0.9649	338.15	1547	6.3
0.9749	298.15	1556.5	6.4
0.9749	308.15	1557.1	6.4
0.9749	318.15	1556.6	6.4
0.9749	328.15	1552.6	6.4
0.9749	338.15	1548.4	6.3
0.9903	298.15	1523.1	6.3
0.9903	308.15	1535.4	6.3
0.9903	318.15	1544.4	6.3
0.9903	328.15	1548.5	6.3
0.9903	338.15	1550.2	6.4
0.9903	318.15	1544.4	6.3
0.9903	328.15	1548.5	6.3
0.9903	338.15	1550.2	6.4

System: N-vinylpyrrolidone + water; phases: Liquid
Fixed: Pressure, kPa = 101.3
Property: Mass density, kg/m3 (Liquid); method: VIBTUB:UFactor:16
Mole fraction of water	Temperature, K	Mass density, kg/m3	uncertainty
0.0557	298.15	1042.304	0.768
0.0557	308.15	1033.434	0.713
0.0557	318.15	1024.6	0.659
0.0557	328.15	1015.769	0.604
0.0557	338.15	1006.935	0.551
0.1591	298.15	1043.326	0.774
0.1591	308.15	1034.356	0.718
0.1591	318.15	1025.414	0.663
0.1591	328.15	1016.485	0.608
0.1591	338.15	1007.563	0.554
0.2543	298.15	1044.19	0.779
0.2543	308.15	1035.141	0.723
0.2543	318.15	1026.107	0.667
0.2543	328.15	1017.096	0.611
0.2543	338.15	1008.099	0.556
0.3503	298.15	1044.828	0.782
0.3503	308.15	1035.732	0.726
0.3503	318.15	1026.633	0.669
0.3503	328.15	1017.56	0.613
0.3503	338.15	1008.507	0.558
0.4525	298.15	1045.461	0.786
0.4525	308.15	1036.326	0.729
0.4525	318.15	1027.164	0.672
0.4525	328.15	1018.032	0.616
0.4525	338.15	1008.921	0.56
0.5028	298.15	1045.817	0.788
0.5028	308.15	1036.61	0.73
0.5028	318.15	1027.464	0.674
0.5028	328.15	1018.298	0.617
0.5028	338.15	1009.155	0.561
0.5539	298.15	1046.189	0.79
0.5539	308.15	1037.014	0.733
0.5539	318.15	1027.781	0.675
0.5539	328.15	1018.581	0.618
0.5539	338.15	1009.403	0.562
0.6546	298.15	1046.564	0.791
0.6546	308.15	1037.407	0.734
0.6546	318.15	1028.145	0.677
0.6546	328.15	1018.911	0.62
0.6546	338.15	1009.695	0.563
0.7505	298.15	1045.062	0.781
0.7505	308.15	1036.163	0.726
0.7505	318.15	1027.084	0.67
0.7505	328.15	1017.997	0.614
0.7505	338.15	1008.9	0.558
0.8519	298.15	1037.72	0.735
0.8519	308.15	1029.801	0.686
0.8519	318.15	1021.556	0.635
0.8519	328.15	1013.181	0.583
0.8519	338.15	1004.69	0.531
0.8751	298.15	1034.499	0.715
0.8751	308.15	1026.99	0.668
0.8751	318.15	1019.104	0.619
0.8751	328.15	1011.04	0.569
0.8751	338.15	1002.815	0.519
0.8852	298.15	1032.842	0.705
0.8852	308.15	1025.541	0.659
0.8852	318.15	1017.84	0.611
0.8852	328.15	1009.936	0.563
0.8852	338.15	1001.85	0.513
0.9001	298.15	1030.078	0.687
0.9001	308.15	1023.121	0.644
0.9001	318.15	1015.727	0.598
0.9001	328.15	1008.088	0.551
0.9001	338.15	1000.229	0.503
0.9251	298.15	1024.449	0.652
0.9251	308.15	1018.185	0.613
0.9251	318.15	1011.411	0.571
0.9251	328.15	1004.31	0.527
0.9251	338.15	996.917	0.52
0.9357	298.15	1021.632	0.634
0.9357	308.15	1015.711	0.597
0.9357	318.15	1009.245	0.557
0.9357	328.15	1002.413	0.515
0.9357	338.15	995.252	0.53
0.9554	298.15	1015.596	0.596
0.9554	308.15	1010.402	0.564
0.9554	318.15	1004.593	0.528
0.9554	328.15	998.333	0.51
0.9554	338.15	991.671	0.552
0.9649	298.15	1012.265	0.575
0.9649	308.15	1007.469	0.546
0.9649	318.15	1002.02	0.512
0.9649	328.15	996.075	0.524
0.9649	338.15	989.687	0.564
0.9749	298.15	1008.427	0.551
0.9749	308.15	1004.085	0.524
0.9749	318.15	999.05	0.505
0.9749	328.15	993.467	0.54
0.9749	338.15	987.393	0.579
0.9903	298.15	1001.767	0.51
0.9903	308.15	998.206	0.51
0.9903	318.15	993.883	0.537
0.9903	328.15	988.924	0.568
0.9903	338.15	983.396	0.603

System: 2-pyrrolidinone + water; phases: Liquid
Fixed: Pressure, kPa = 101.3
Property: Viscosity, Pa*s (Liquid); method: CAPTUB:UFactor:4
Mole fraction of water	Temperature, K	Viscosity, Pa*s	uncertainty
0.0549	298.15	0.01302	0.000249
0.0549	308.15	0.008624	0.000179
0.0549	318.15	0.006104	0.000132
0.0549	328.15	0.004562	0.000103
0.0549	338.15	0.00337	7.9e-05
0.1506	298.15	0.012295	0.000238
0.1506	308.15	0.008126	0.00017
0.1506	318.15	0.005778	0.000126
0.1506	328.15	0.004323	9.8e-05
0.1506	338.15	0.003198	7.5e-05
0.2552	298.15	0.011766	0.000228
0.2552	308.15	0.007761	0.000164
0.2552	318.15	0.005543	0.000122
0.2552	328.15	0.004147	9.4e-05
0.2552	338.15	0.003076	7.2e-05
0.35	298.15	0.011319	0.00022
0.35	308.15	0.007452	0.000158
0.35	318.15	0.005344	0.000119
0.35	328.15	0.004	9.1e-05
0.35	338.15	0.002973	7e-05
0.4496	298.15	0.01063	0.000209
0.4496	308.15	0.006988	0.00015
0.4496	318.15	0.005034	0.000114
0.4496	328.15	0.003772	8.6e-05
0.4496	338.15	0.00281	6.6e-05
0.5	298.15	0.010127	0.0002
0.5	308.15	0.006657	0.000144
0.5	318.15	0.004807	0.000109
0.5	328.15	0.003605	8.3e-05
0.5	338.15	0.00269	6.3e-05
0.5566	298.15	0.009408	0.000188
0.5566	308.15	0.006188	0.000136
0.5566	318.15	0.00448	0.000102
0.5566	328.15	0.003364	7.7e-05
0.5566	338.15	0.002516	6e-05
0.6422	298.15	0.008014	0.000164
0.6422	308.15	0.005289	0.000121
0.6422	318.15	0.003845	8.8e-05
0.6422	328.15	0.002895	6.7e-05
0.6422	338.15	0.002177	5.2e-05
0.7532	298.15	0.005772	0.000126
0.7532	308.15	0.003853	9e-05
0.7532	318.15	0.002823	6.6e-05
0.7532	328.15	0.002143	5e-05
0.7532	338.15	0.00163	4e-05
0.8516	298.15	0.003645	8.4e-05
0.8516	308.15	0.002489	5.9e-05
0.8516	318.15	0.001852	4.4e-05
0.8516	328.15	0.001427	3.5e-05
0.8516	338.15	0.00111	2.8e-05
0.8714	298.15	0.003231	7.5e-05
0.8714	308.15	0.002224	5.3e-05
0.8714	318.15	0.001663	4e-05
0.8714	328.15	0.001288	3.2e-05
0.8714	338.15	0.001009	2.5e-05
0.8856	298.15	0.00294	6.8e-05
0.8856	308.15	0.002038	4.9e-05
0.8856	318.15	0.00153	3.7e-05
0.8856	328.15	0.001191	2.9e-05
0.8856	338.15	0.000938	2.4e-05
0.9	298.15	0.002651	6.2e-05
0.9	308.15	0.001852	4.5e-05
0.9	318.15	0.001398	3.4e-05
0.9	328.15	0.001095	2.7e-05
0.9	338.15	0.000867	2.2e-05
0.9249	298.15	0.002171	5.1e-05
0.9249	308.15	0.001544	3.8e-05
0.9249	318.15	0.001179	2.9e-05
0.9249	328.15	0.000932	2.4e-05
0.9249	338.15	0.000749	2e-05
0.9369	298.15	0.001948	4.6e-05
0.9369	308.15	0.001401	3.4e-05
0.9369	318.15	0.001078	2.7e-05
0.9369	328.15	0.000858	2.2e-05
0.9369	338.15	0.000695	1.8e-05
0.9526	298.15	0.001667	4e-05
0.9526	308.15	0.00122	3e-05
0.9526	318.15	0.00095	2.4e-05
0.9526	328.15	0.000764	2e-05
0.9526	338.15	0.000627	1.7e-05
0.9651	298.15	0.001451	3.5e-05
0.9651	308.15	0.001082	2.7e-05
0.9651	318.15	0.000851	2.2e-05
0.9651	328.15	0.00069	1.8e-05
0.9651	338.15	0.000574	1.6e-05
0.9748	298.15	0.00129	3.2e-05
0.9748	308.15	0.000977	2.5e-05
0.9748	318.15	0.000778	2e-05
0.9748	328.15	0.000637	1.7e-05
0.9748	338.15	0.000535	1.5e-05
0.9906	298.15	0.001036	2.6e-05
0.9906	308.15	0.000812	2.1e-05
0.9906	318.15	0.000662	1.8e-05
0.9906	328.15	0.000551	1.5e-05
0.9906	338.15	0.000473	1.3e-05

System: 2-pyrrolidinone + water; phases: Liquid
Fixed: Pressure, kPa = 101.3
Property: Speed of sound, m/s (Liquid); method: LVPAI:UFactor:4
Mole fraction of water	Temperature, K	Speed of sound, m/s	uncertainty
0.0549	298.15	1637.8	6.6
0.0549	308.15	1609.2	6.5
0.0549	318.15	1570	6.4
0.0549	328.15	1556	6.4
0.0549	338.15	1526.1	6.3
0.1506	298.15	1641.1	6.6
0.1506	308.15	1618.7	6.6
0.1506	318.15	1576.7	6.4
0.1506	328.15	1562.4	6.4
0.1506	338.15	1532.8	6.3
0.2552	298.15	1662	6.7
0.2552	308.15	1635.9	6.6
0.2552	318.15	1589.9	6.5
0.2552	328.15	1574.8	6.4
0.2552	338.15	1545	6.3
0.35	298.15	1691.1	6.8
0.35	308.15	1657.3	6.7
0.35	318.15	1608.9	6.5
0.35	328.15	1592.4	6.5
0.35	338.15	1562	6.4
0.4496	298.15	1711.7	6.9
0.4496	308.15	1679	6.8
0.4496	318.15	1630.3	6.6
0.4496	328.15	1612.3	6.6
0.4496	338.15	1581.5	6.5
0.5	298.15	1717.9	6.9
0.5	308.15	1688.1	6.8
0.5	318.15	1640.2	6.6
0.5	328.15	1621.7	6.6
0.5	338.15	1590.8	6.5
0.5566	298.15	1723.5	6.9
0.5566	308.15	1696.7	6.8
0.5566	318.15	1650.3	6.7
0.5566	328.15	1631.3	6.6
0.5566	338.15	1600.7	6.5
0.6422	298.15	1728.3	6.9
0.6422	308.15	1706.4	6.8
0.6422	318.15	1663.9	6.7
0.6422	328.15	1644.8	6.7
0.6422	338.15	1615.2	6.6
0.7532	298.15	1730.9	6.9
0.7532	308.15	1711.6	6.9
0.7532	318.15	1678.2	6.8
0.7532	328.15	1659.9	6.7
0.7532	338.15	1632.8	6.6
0.8516	298.15	1715.4	6.9
0.8516	308.15	1695.1	6.8
0.8516	318.15	1675	6.7
0.8516	328.15	1660.2	6.7
0.8516	338.15	1638.6	6.6
0.8714	298.15	1704.6	6.8
0.8714	308.15	1686.1	6.8
0.8714	318.15	1669.5	6.7
0.8714	328.15	1656.2	6.7
0.8714	338.15	1636.4	6.6
0.8856	298.15	1694.1	6.8
0.8856	308.15	1677.9	6.8
0.8856	318.15	1664	6.7
0.8856	328.15	1652	6.7
0.8856	338.15	1633.7	6.6
0.9	298.15	1681	6.8
0.9	308.15	1667.7	6.7
0.9	318.15	1656.8	6.7
0.9	328.15	1646.3	6.7
0.9	338.15	1629.8	6.6
0.9249	298.15	1650.9	6.7
0.9249	308.15	1645	6.6
0.9249	318.15	1639.6	6.6
0.9249	328.15	1632.4	6.6
0.9249	338.15	1619.7	6.6
0.9369	298.15	1632.7	6.6
0.9369	308.15	1631.3	6.6
0.9369	318.15	1628.8	6.6
0.9369	328.15	1623.5	6.6
0.9369	338.15	1613	6.5
0.9526	298.15	1605.5	6.5
0.9526	308.15	1610.1	6.5
0.9526	318.15	1611.8	6.5
0.9526	328.15	1609.4	6.5
0.9526	338.15	1602.2	6.5
0.9651	298.15	1580.7	6.4
0.9651	308.15	1590.4	6.5
0.9651	318.15	1595.5	6.5
0.9651	328.15	1595.8	6.5
0.9651	338.15	1591.6	6.5
0.9748	298.15	1559.8	6.4
0.9748	308.15	1573.1	6.4
0.9748	318.15	1581.1	6.4
0.9748	328.15	1583.8	6.5
0.9748	338.15	1582	6.5
0.9906	298.15	1522.6	6.3
0.9906	308.15	1540.9	6.3
0.9906	318.15	1553.7	6.4
0.9906	328.15	1560.8	6.4
0.9906	338.15	1563.7	6.4

System: 2-pyrrolidinone + water; phases: Liquid
Fixed: Pressure, kPa = 101.3
Property: Mass density, kg/m3 (Liquid); method: VIBTUB:UFactor:16
Mole fraction of water	Temperature, K	Mass density, kg/m3	uncertainty
0.0549	298.15	1106.526	1.168
0.0549	308.15	1098.695	1.119
0.0549	318.15	1090.542	1.069
0.0549	328.15	1082.327	1.018
0.0549	338.15	1070.159	0.943
0.1506	298.15	1105.773	1.163
0.1506	308.15	1097.661	1.112
0.1506	318.15	1089.509	1.062
0.1506	328.15	1081.196	1.01
0.1506	338.15	1069.046	0.936
0.2552	298.15	1104.431	1.154
0.2552	308.15	1095.978	1.101
0.2552	318.15	1087.868	1.051
0.2552	328.15	1079.483	0.999
0.2552	338.15	1067.398	0.925
0.35	298.15	1102.414	1.141
0.35	308.15	1093.809	1.087
0.35	318.15	1085.687	1.037
0.35	328.15	1077.266	0.985
0.35	338.15	1065.293	0.912
0.4496	298.15	1099.528	1.123
0.4496	308.15	1090.937	1.069
0.4496	318.15	1082.746	1.018
0.4496	328.15	1074.293	0.966
0.4496	338.15	1062.476	0.893
0.5	298.15	1097.707	1.111
0.5	308.15	1089.174	1.058
0.5	318.15	1080.944	1.007
0.5	328.15	1072.476	0.955
0.5	338.15	1060.756	0.883
0.5566	298.15	1095.198	1.095
0.5566	308.15	1086.763	1.043
0.5566	318.15	1078.508	0.991
0.5566	328.15	1070.034	0.939
0.5566	338.15	1058.452	0.868
0.6422	298.15	1089.778	1.061
0.6422	308.15	1081.571	1.01
0.6422	318.15	1073.382	0.959
0.6422	328.15	1064.97	0.907
0.6422	338.15	1053.706	0.839
0.7532	298.15	1077.068	0.981
0.7532	308.15	1069.46	0.934
0.7532	318.15	1061.724	0.886
0.7532	328.15	1053.715	0.837
0.7532	338.15	1043.279	0.774
0.8516	298.15	1056.032	0.85
0.8516	308.15	1049.571	0.81
0.8516	318.15	1042.81	0.768
0.8516	328.15	1035.738	0.724
0.8516	338.15	1026.746	0.669
0.8714	298.15	1050.24	0.814
0.8714	308.15	1044.114	0.776
0.8714	318.15	1037.634	0.735
0.8714	328.15	1030.836	0.693
0.8714	338.15	1022.241	0.641
0.8856	298.15	1045.714	0.785
0.8856	308.15	1039.853	0.749
0.8856	318.15	1033.594	0.71
0.8856	328.15	1027.01	0.669
0.8856	338.15	1018.725	0.618
0.9	298.15	1040.795	0.755
0.9	308.15	1035.224	0.72
0.9	318.15	1029.206	0.682
0.9	328.15	1022.853	0.643
0.9	338.15	1014.902	0.594
0.9249	298.15	1031.477	0.696
0.9249	308.15	1026.46	0.665
0.9249	318.15	1020.902	0.63
0.9249	328.15	1014.979	0.594
0.9249	338.15	1007.653	0.549
0.9369	298.15	1026.612	0.665
0.9369	308.15	1021.884	0.636
0.9369	318.15	1016.567	0.603
0.9369	328.15	1010.864	0.568
0.9369	338.15	1003.859	0.525
0.9526	298.15	1019.875	0.623
0.9526	308.15	1015.546	0.596
0.9526	318.15	1010.565	0.565
0.9526	328.15	1005.156	0.532
0.9526	338.15	998.592	0.509
0.9651	298.15	1014.212	0.588
0.9651	308.15	1010.216	0.563
0.9651	318.15	1005.519	0.534
0.9651	328.15	1000.348	0.502
0.9651	338.15	994.147	0.537
0.9748	298.15	1009.637	0.559
0.9748	308.15	1005.907	0.536
0.9748	318.15	1001.441	0.508
0.9748	328.15	996.455	0.521
0.9748	338.15	990.543	0.559
0.9906	298.15	1001.87	0.511
0.9906	308.15	995.75	5
0.9906	318.15	995.2	0.53
0.9906	328.15	989.833	0.562
0.9906	338.15	984.343	0.597

System: N-methylpyrrolidone + water; phases: Liquid
Fixed: Pressure, kPa = 101.3
Property: Viscosity, Pa*s (Liquid); method: CAPTUB:UFactor:4
Mole fraction of water	Temperature, K	Viscosity, Pa*s	uncertainty
0.0522	298.15	0.001721	4.1e-05
0.0522	308.15	0.001405	3.4e-05
0.0522	318.15	0.001232	3e-05
0.0522	328.15	0.001124	2.7e-05
0.0522	338.15	0.000987	2.5e-05
0.1684	298.15	0.001985	4.6e-05
0.1684	308.15	0.001588	3.8e-05
0.1684	318.15	0.00135	3.2e-05
0.1684	328.15	0.001194	2.9e-05
0.1684	338.15	0.001026	2.5e-05
0.2465	298.15	0.002147	5e-05
0.2465	308.15	0.001702	4e-05
0.2465	318.15	0.001429	3.4e-05
0.2465	328.15	0.001234	3e-05
0.2465	338.15	0.001048	2.6e-05
0.3481	298.15	0.002535	5.9e-05
0.3481	308.15	0.001979	4.7e-05
0.3481	318.15	0.001613	3.8e-05
0.3481	328.15	0.001357	3.3e-05
0.3481	338.15	0.001129	2.8e-05
0.4534	298.15	0.003346	7.6e-05
0.4534	308.15	0.002567	6e-05
0.4534	318.15	0.00203	4.8e-05
0.4534	328.15	0.001647	3.9e-05
0.4534	338.15	0.001332	3.2e-05
0.5018	298.15	0.003838	8.7e-05
0.5018	308.15	0.002925	6.7e-05
0.5018	318.15	0.002287	5.3e-05
0.5018	328.15	0.001827	4.3e-05
0.5018	338.15	0.00146	3.5e-05
0.5493	298.15	0.004338	9.7e-05
0.5493	308.15	0.003289	7.5e-05
0.5493	318.15	0.002547	5.9e-05
0.5493	328.15	0.002011	4.7e-05
0.5493	338.15	0.001591	3.8e-05
0.6504	298.15	0.005159	0.000113
0.6504	308.15	0.003885	8.8e-05
0.6504	318.15	0.002973	6.8e-05
0.6504	328.15	0.002308	5.4e-05
0.6504	338.15	0.001799	4.3e-05
0.752	298.15	0.005071	0.000111
0.752	308.15	0.003814	8.7e-05
0.752	318.15	0.002905	6.7e-05
0.752	328.15	0.002241	5.2e-05
0.752	338.15	0.00174	4.2e-05
0.8536	298.15	0.00365	8.3e-05
0.8536	308.15	0.00276	6.4e-05
0.8536	318.15	0.002117	5e-05
0.8536	328.15	0.001645	3.9e-05
0.8536	338.15	0.001292	3.2e-05
0.8742	298.15	0.003224	7.3e-05
0.8742	308.15	0.002446	5.7e-05
0.8742	318.15	0.001882	4.5e-05
0.8742	328.15	0.00147	3.5e-05
0.8742	338.15	0.001161	2.9e-05
0.8849	298.15	0.002992	6.8e-05
0.8849	308.15	0.002273	5.3e-05
0.8849	318.15	0.001754	4.2e-05
0.8849	328.15	0.001374	3.3e-05
0.8849	338.15	0.001089	2.7e-05
0.8996	298.15	0.002668	6.1e-05
0.8996	308.15	0.002034	4.8e-05
0.8996	318.15	0.001576	3.8e-05
0.8996	328.15	0.00124	3e-05
0.8996	338.15	0.00099	2.5e-05
0.9257	298.15	0.002093	4.9e-05
0.9257	308.15	0.001609	3.9e-05
0.9257	318.15	0.001261	3.1e-05
0.9257	328.15	0.001004	2.5e-05
0.9257	338.15	0.000813	2.1e-05
0.9368	298.15	0.001857	4.4e-05
0.9368	308.15	0.001435	3.5e-05
0.9368	318.15	0.00113	2.8e-05
0.9368	328.15	0.000907	2.3e-05
0.9368	338.15	0.00074	1.9e-05
0.9557	298.15	0.001487	3.6e-05
0.9557	308.15	0.00116	2.9e-05
0.9557	318.15	0.000928	2.3e-05
0.9557	328.15	0.000753	2e-05
0.9557	338.15	0.000627	1.7e-05
0.9641	298.15	0.001338	3.2e-05
0.9641	308.15	0.001051	2.6e-05
0.9641	318.15	0.000845	2.2e-05
0.9641	328.15	0.000692	1.8e-05
0.9641	338.15	0.00058	1.6e-05
0.9754	298.15	0.00116	2.9e-05
0.9754	308.15	0.00092	2.3e-05
0.9754	318.15	0.000747	1.9e-05
0.9754	328.15	0.000618	1.7e-05
0.9754	338.15	0.000524	1.5e-05
0.99	298.15	0.000978	2.5e-05
0.99	308.15	0.000785	2e-05
0.99	318.15	0.000645	1.7e-05
0.99	328.15	0.000541	1.5e-05
0.99	338.15	0.000467	1.3e-05

System: N-methylpyrrolidone + water; phases: Liquid
Fixed: Pressure, kPa = 101.3
Property: Speed of sound, m/s (Liquid); method: LVPAI:UFactor:4
Mole fraction of water	Temperature, K	Speed of sound, m/s	uncertainty
0.0522	298.15	1548.8	6.4
0.0522	308.15	1521.3	6.3
0.0522	318.15	1480.9	6.2
0.0522	328.15	1451.9	6.1
0.0522	338.15	1410.7	5.9
0.1684	298.15	1561	6.4
0.1684	308.15	1533.3	6.3
0.1684	318.15	1493	6.2
0.1684	328.15	1463.8	6.1
0.1684	338.15	1422.8	6
0.2465	298.15	1579.5	6.5
0.2465	308.15	1549.9	6.4
0.2465	318.15	1508.9	6.2
0.2465	328.15	1478.8	6.1
0.2465	338.15	1437.4	6
0.3481	298.15	1616.8	6.6
0.3481	308.15	1578.3	6.5
0.3481	318.15	1535.9	6.3
0.3481	328.15	1504.2	6.2
0.3481	338.15	1461.9	6.1
0.4534	298.15	1653.8	6.7
0.4534	308.15	1610.1	6.6
0.4534	318.15	1566.5	6.4
0.4534	328.15	1533.2	6.3
0.4534	338.15	1490.2	6.2
0.5018	298.15	1667.7	6.7
0.5018	308.15	1624.8	6.6
0.5018	318.15	1580.9	6.5
0.5018	328.15	1547.1	6.4
0.5018	338.15	1504	6.2
0.5493	298.15	1682	6.8
0.5493	308.15	1639.5	6.6
0.5493	318.15	1595.4	6.5
0.5493	328.15	1561.1	6.4
0.5493	338.15	1518	6.3
0.6504	298.15	1711.3	6.9
0.6504	308.15	1672	6.7
0.6504	318.15	1628.2	6.6
0.6504	328.15	1593.5	6.5
0.6504	338.15	1551	6.4
0.752	298.15	1738.2	6.9
0.752	308.15	1702.6	6.8
0.752	318.15	1661.2	6.7
0.752	328.15	1627.4	6.6
0.752	338.15	1587.1	6.5
0.8536	298.15	1748.1	7
0.8536	308.15	1707.3	6.9
0.8536	318.15	1674.5	6.7
0.8536	328.15	1646.4	6.7
0.8536	338.15	1613.3	6.6
0.8742	298.15	1738.4	6.9
0.8742	308.15	1700.3	6.8
0.8742	318.15	1670.7	6.7
0.8742	328.15	1645	6.7
0.8742	338.15	1614.4	6.6
0.8849	298.15	1730.9	6.9
0.8849	308.15	1694.9	6.8
0.8849	318.15	1667.3	6.7
0.8849	328.15	1643.2	6.6
0.8849	338.15	1614.4	6.6
0.8996	298.15	1716.8	6.9
0.8996	308.15	1685.4	6.8
0.8996	318.15	1660.9	6.7
0.8996	328.15	1639.2	6.6
0.8996	338.15	1613	6.6
0.9257	298.15	1681.1	6.8
0.9257	308.15	1661.1	6.7
0.9257	318.15	1643.6	6.6
0.9257	328.15	1627.2	6.6
0.9257	338.15	1602.6	6.5
0.9368	298.15	1661	6.7
0.9368	308.15	1647.4	6.7
0.9368	318.15	1633.5	6.6
0.9368	328.15	1619.9	6.6
0.9368	338.15	1602.1	6.5
0.9557	298.15	1621.2	6.6
0.9557	308.15	1618.8	6.6
0.9557	318.15	1611.9	6.5
0.9557	328.15	1603.9	6.5
0.9557	338.15	1591.8	6.5
0.9641	298.15	1600.8	6.5
0.9641	308.15	1603.6	6.5
0.9641	318.15	1600.4	6.5
0.9641	328.15	1595.2	6.5
0.9641	338.15	1585.9	6.5
0.9754	298.15	1571.3	6.4
0.9754	308.15	1580.6	6.4
0.9754	318.15	1582.7	6.5
0.9754	328.15	1581.7	6.5
0.9754	338.15	1576.7	6.4
0.99	298.15	1529.1	6.3
0.99	308.15	1546.1	6.3
0.99	318.15	1556.1	6.4
0.99	328.15	1561.2	6.4
0.99	338.15	1562.4	6.4

System: N-methylpyrrolidone + water; phases: Liquid
Fixed: Pressure, kPa = 101.3
Property: Mass density, kg/m3 (Liquid); method: VIBTUB:UFactor:16
Mole fraction of water	Temperature, K	Mass density, kg/m3	uncertainty
0.0522	298.15	1029.546	0.689
0.0522	308.15	1020.488	0.633
0.0522	318.15	1011.194	0.576
0.0522	328.15	1002.193	0.521
0.0522	338.15	993.182	0.55
0.1684	298.15	1032.904	0.709
0.1684	308.15	1023.583	0.652
0.1684	318.15	1014.093	0.593
0.1684	328.15	1004.899	0.537
0.1684	338.15	995.706	0.533
0.2465	298.15	1035.151	0.723
0.2465	308.15	1025.099	0.66
0.2465	318.15	1016.084	0.605
0.2465	328.15	1006.766	0.547
0.2465	338.15	997.455	0.522
0.3481	298.15	1038.132	0.741
0.3481	308.15	1028.583	0.682
0.3481	318.15	1018.811	0.621
0.3481	328.15	1009.335	0.563
0.3481	338.15	999.87	0.506
0.4534	298.15	1041.649	0.762
0.4534	308.15	1032.02	0.702
0.4534	318.15	1022.076	0.641
0.4534	328.15	1012.42	0.581
0.4534	338.15	1002.781	0.522
0.5018	298.15	1043.411	0.773
0.5018	308.15	1033.736	0.713
0.5018	318.15	1023.715	0.651
0.5018	328.15	1013.975	0.59
0.5018	338.15	1004.254	0.531
0.5493	298.15	1045.114	0.783
0.5493	308.15	1035.394	0.723
0.5493	318.15	1025.31	0.66
0.5493	328.15	1015.499	0.6
0.5493	338.15	1005.705	0.54
0.6504	298.15	1047.711	0.798
0.6504	308.15	1037.975	0.738
0.6504	318.15	1027.896	0.676
0.6504	328.15	1018.049	0.615
0.6504	338.15	1008.203	0.555
0.752	298.15	1046.062	0.787
0.752	308.15	1036.733	0.73
0.752	318.15	1027.117	0.67
0.752	328.15	1017.631	0.611
0.752	338.15	1008.086	0.554
0.8536	298.15	1035.211	0.72
0.8536	308.15	1027.316	0.671
0.8536	318.15	1019.085	0.62
0.8536	328.15	1010.769	0.568
0.8536	338.15	1002.251	0.516
0.8742	298.15	1031.435	0.696
0.8742	308.15	1024.016	0.65
0.8742	318.15	1016.222	0.601
0.8742	328.15	1008.282	0.552
0.8742	338.15	1000.096	0.502
0.8849	298.15	1029.241	0.682
0.8849	308.15	1022.098	0.638
0.8849	318.15	1014.555	0.591
0.8849	328.15	1006.831	0.543
0.8849	338.15	998.836	0.509
0.8996	298.15	1025.967	0.662
0.8996	308.15	1019.234	0.62
0.8996	318.15	1012.063	0.575
0.8996	328.15	1004.659	0.53
0.8996	338.15	996.948	0.52
0.9257	298.15	1019.428	0.621
0.9257	308.15	1013.517	0.584
0.9257	318.15	1007.083	0.544
0.9257	328.15	1000.316	0.502
0.9257	338.15	993.171	0.543
0.9368	298.15	1016.383	0.601
0.9368	308.15	1010.856	0.567
0.9368	318.15	1004.767	0.529
0.9368	328.15	998.296	0.511
0.9368	338.15	991.416	0.554
0.9557	298.15	1010.884	0.567
0.9557	308.15	1006.056	0.537
0.9557	318.15	1000.591	0.503
0.9557	328.15	994.66	0.533
0.9557	338.15	988.261	0.573
0.9641	298.15	1008.332	0.551
0.9641	308.15	1003.831	0.523
0.9641	318.15	998.66	0.508
0.9641	328.15	992.982	0.543
0.9641	338.15	986.808	0.582
0.9754	298.15	1004.822	0.529
0.9754	308.15	1000.775	0.504
0.9754	318.15	996.013	0.524
0.9754	328.15	990.687	0.557
0.9754	338.15	984.827	0.594
0.99	298.15	1000.208	0.5
0.99	308.15	996.769	0.519
0.99	318.15	992.557	0.545
0.99	328.15	987.705	0.576
0.99	338.15	982.266	0.61
