Measured thermophysical data. Vapor-Pressure Measurements of Liquid Solutions at Different Temperatures: Apparatus for Use over an Extended Temperature Range and Some New Data
Source: J. Chem. Eng. Data, 2004, 10.1021/je034197x
Compound 1: methanol, CH4O, InChI=1S/CH4O/c1-2/h2H,1H3, purity 99.8%
Compound 2: ethanol, C2H6O, InChI=1S/C2H6O/c1-2-3/h3H,2H2,1H3, purity 99.8%
Compound 3: propan-1-ol, C3H8O, InChI=1S/C3H8O/c1-2-3-4/h4H,2-3H2,1H3, purity 99.8%
Compound 4: propan-2-ol, C3H8O, InChI=1S/C3H8O/c1-3(2)4/h3-4H,1-2H3, purity 99.7%
Compound 5: butan-1-ol, C4H10O, InChI=1S/C4H10O/c1-2-3-4-5/h5H,2-4H2,1H3, purity 99.8%
Compound 6: butan-2-ol, C4H10O, InChI=1S/C4H10O/c1-3-4(2)5/h4-5H,3H2,1-2H3, purity 99.8%
Compound 7: water, H2O, InChI=1S/H2O/h1H2, purity 99.99%
Compound 8: sodium chloride, ClNa, InChI=1S/ClH.Na/h1H;/q;+1/p-1, purity 99.99%

System: methanol; phases: Liquid, Gas
Property: Vapor or sublimation pressure, kPa (Liquid); method: Closed cell (Static) method
Temperature, K	Vapor or sublimation pressure, kPa	uncertainty
298.15	16.954	0.046
303.15	21.884	0.058
308.15	27.977	0.073
313.15	35.51	0.092
318.15	44.585	0.114
323.15	55.646	0.141
328.15	68.94	0.174
333.15	84.617	0.212

System: ethanol; phases: Liquid, Gas
Property: Vapor or sublimation pressure, kPa (Liquid); method: Closed cell (Static) method
Temperature, K	Vapor or sublimation pressure, kPa	uncertainty
298.15	7.916	0.024
303.15	10.542	0.031
308.15	13.841	0.039
313.15	17.982	0.049
318.15	23.169	0.062
323.15	29.579	0.077
328.15	37.456	0.097
333.15	46.955	0.12
338.15	58.58	0.148
343.15	72.243	0.182
348.15	88.655	0.222

System: propan-1-ol; phases: Liquid, Gas
Property: Vapor or sublimation pressure, kPa (Liquid); method: Closed cell (Static) method
Temperature, K	Vapor or sublimation pressure, kPa	uncertainty
298.15	2.88	0.013
303.15	3.998	0.015
308.15	5.374	0.018
313.15	7.197	0.023
318.15	9.568	0.028
323.15	12.424	0.035
328.15	16.144	0.044
333.15	20.718	0.055
338.15	26.406	0.069
343.15	33.226	0.086
348.15	41.628	0.106
353.15	51.67	0.131
358.15	63.691	0.16
363.15	77.812	0.195

System: propan-2-ol; phases: Liquid, Gas
Property: Vapor or sublimation pressure, kPa (Liquid); method: Closed cell (Static) method
Temperature, K	Vapor or sublimation pressure, kPa	uncertainty
298.15	5.799	0.201
303.15	7.859	0.201
308.15	10.521	0.201
313.15	13.939	0.202
318.15	18.24	0.203
323.15	23.643	0.204
328.15	30.346	0.206
333.15	38.59	0.209
338.15	48.659	0.214
343.15	60.665	0.221
348.15	75.225	0.23
353.15	92.444	0.243

System: butan-1-ol; phases: Liquid, Gas
Property: Vapor or sublimation pressure, kPa (Liquid); method: Closed cell (Static) method
Temperature, K	Vapor or sublimation pressure, kPa	uncertainty
298.15	1.003	0.2
303.15	1.317	0.2
308.15	1.841	0.2
313.15	2.544	0.2
318.15	3.453	0.2
323.15	4.648	0.2
328.15	6.171	0.201
333.15	8.103	0.201
338.15	10.559	0.201
343.15	13.596	0.202
348.15	17.369	0.203
353.15	21.98	0.204
358.15	27.652	0.205
363.15	34.406	0.208

System: butan-2-ol; phases: Liquid, Gas
Property: Vapor or sublimation pressure, kPa (Liquid); method: Closed cell (Static) method
Temperature, K	Vapor or sublimation pressure, kPa	uncertainty
298.15	2.44	0.2
303.15	3.373	0.2
308.15	4.588	0.2
313.15	6.234	0.201
318.15	8.252	0.201
323.15	10.86	0.201
328.15	14.133	0.202
333.15	18.337	0.203
338.15	23.487	0.204
343.15	29.706	0.206
348.15	37.202	0.209
353.15	46.358	0.213
358.15	57.156	0.219
363.15	70.237	0.227

System: sodium chloride + water; phases: Liquid, Gas
Property: Vapor or sublimation pressure, kPa (Liquid); method: Closed cell (Static) method
Molality, mol/kg of sodium chloride	Temperature, K	Vapor or sublimation pressure, kPa	uncertainty
1.0684	298.15	3.046	0.201
1.0684	303.15	4.106	0.202
1.0684	308.15	5.421	0.202
1.0684	313.15	7.11	0.203
1.0684	318.15	9.244	0.204
1.0684	323.15	11.891	0.206
1.0684	328.15	15.177	0.208
1.0684	333.15	19.208	0.211
1.0684	338.15	24.136	0.216
1.0684	343.15	30.058	0.223
1.0684	348.15	37.171	0.233
1.0684	353.15	45.599	0.246
1.0684	358.15	55.691	0.264
1.0684	363.15	67.59	0.287
2.195	298.15	2.929	0.201
2.195	303.15	3.918	0.202
2.195	308.15	5.191	0.202
2.195	313.15	6.81	0.203
2.195	318.15	8.839	0.204
2.195	323.15	11.404	0.205
2.195	328.15	14.562	0.208
2.195	333.15	18.387	0.211
2.195	338.15	23.111	0.215
2.195	343.15	28.799	0.222
2.195	348.15	35.583	0.231
2.195	353.15	43.726	0.243
2.195	358.15	53.36	0.259
2.195	363.15	64.752	0.281
3.5714	298.15	2.739	0.201
3.5714	303.15	3.676	0.202
3.5714	308.15	4.862	0.202
3.5714	313.15	6.401	0.203
3.5714	318.15	8.325	0.204
3.5714	323.15	10.71	0.205
3.5714	328.15	13.676	0.207
3.5714	333.15	17.292	0.21
3.5714	338.15	21.693	0.214
3.5714	343.15	27.028	0.22
3.5714	348.15	33.429	0.228
3.5714	353.15	41.133	0.239
3.5714	358.15	50.155	0.254
3.5714	363.15	60.855	0.273
