Measured thermophysical data. Solubilities of 2-Carboxyethylphenylphosphinic Acid and 4-Carboxyphenylphenylphosphinic Acid in Water
Source: J. Chem. Eng. Data, 2003, 10.1021/je0340396
Compound 1: 3-(hydroxy(phenyl)phosphoryl)propanoic acid, C9H11O4P, InChI=1S/C9H11O4P/c10-9(11)6-7-14(12,13)8-4-2-1-3-5-8/h1-5H,6-7H2,(H,10,11)(H,12,13), purity 99%
Compound 2: 4-carboxyphenylphenylphosphinic acid, C13H11O4P, InChI=1S/C13H11O4P/c14-13(15)10-6-8-12(9-7-10)18(16,17)11-4-2-1-3-5-11/h1-9H,(H,14,15)(H,16,17), purity 99%
Compound 3: water, H2O, InChI=1S/H2O/h1H2

System: water + 3-(hydroxy(phenyl)phosphoryl)propanoic acid; phases: Liquid, Crystal
Fixed: Pressure, kPa = 101.3
Property: Mole fraction of 3-(hydroxy(phenyl)phosphoryl)propanoic acid (Liquid); method: Titration method
Temperature, K	Mole fraction of 3-(hydroxy(phenyl)phosphoryl)propanoic acid	uncertainty
298.25	0.001782	0.000178
308.66	0.003658	0.000366
318.07	0.006706	0.000671
327.17	0.01332	0.00133
337.55	0.02492	0.00249
342.75	0.03388	0.00339
345.06	0.04121	0.00412
349.47	0.05682	0.00568

System: water + 4-carboxyphenylphenylphosphinic acid; phases: Liquid, Crystal
Fixed: Pressure, kPa = 101.3
Property: Mole fraction of 4-carboxyphenylphenylphosphinic acid (Liquid); method: Titration method
Temperature, K	Mole fraction of 4-carboxyphenylphenylphosphinic acid	uncertainty
299.85	0.0002243	5e-07
307.36	0.0002526	6e-07
318.23	0.000303	7e-07
327.55	0.0003492	8e-07
337.3	0.0004727	1.1e-06
348.86	0.0006313	1.5e-06
357.53	0.0007954	1.8e-06
367.67	0.0009822	2.3e-06
