Measured thermophysical data. Solubility of ortho/para-Hydroxyacetophenones in Aqueous Solutions of Sodium Alkyl Benzene Sulfonate Hydrotropes
Source: J. Chem. Eng. Data, 2004, 10.1021/je034147s
Compound 1: 1-(2-hydroxyphenyl)ethanone, C8H8O2, InChI=1S/C8H8O2/c1-6(9)7-4-2-3-5-8(7)10/h2-5,10H,1H3, purity 98%
Compound 2: 4'-hydroxyacetophenone, C8H8O2, InChI=1S/C8H8O2/c1-6(9)7-2-4-8(10)5-3-7/h2-5,10H,1H3
Compound 3: sodium p-toluenesulfonate, C7H7NaO3S, InChI=1S/C7H8O3S.Na/c1-6-2-4-7(5-3-6)11(8,9)10;/h2-5H,1H3,(H,8,9,10);/q;+1/p-1, purity 92%
Compound 4: water, H2O, InChI=1S/H2O/h1H2

System: 4'-hydroxyacetophenone + water; phases: Liquid, Crystal
Fixed: Pressure, kPa = 101.3
Property: Amount concentration (molarity), mol/dm3 (Liquid); method: OTHER
Temperature, K	Amount concentration (molarity), mol/dm3	uncertainty
303	0.07	0.08
313	0.14	0.06
323	0.18	0.08

System: 1-(2-hydroxyphenyl)ethanone + water; phases: Liquid, Crystal
Fixed: Pressure, kPa = 101.3
Property: Amount concentration (molarity), mol/dm3 (Liquid); method: OTHER
Temperature, K	Amount concentration (molarity), mol/dm3	uncertainty
303	0.05	0.02
313	0.11	0.03
323	0.14	0.05

System: 4'-hydroxyacetophenone + sodium p-toluenesulfonate + water; phases: Liquid, Crystal
Fixed: Pressure, kPa = 101.3
Property: Amount concentration (molarity), mol/dm3 of 4'-hydroxyacetophenone (Liquid); method: OTHER
Temperature, K	Solvent: Amount concentration (molarity), mol/dm3 of sodium p-toluenesulfonate	Amount concentration (molarity), mol/dm3 of 4'-hydroxyacetophenone	uncertainty
303	0	0.07	0.08
303	0.1	0.11	0.04
303	0.2	0.16	0.1
303	0.4	0.23	0.14
303	0.5	0.24	0.16
303	0.8	0.29	0.12
303	1	0.36	0.14
303	2	0.59	0.18
313	0	0.14	0.06
313	0.1	0.24	0.14
313	0.2	0.3	0.09
313	0.4	0.39	0.16
313	0.5	0.41	0.18
313	0.8	0.79	0.24
313	1	0.91	0.28
313	2	1.55	0.47
323	0	0.18	0.08
323	0.1	0.41	0.14
323	0.2	0.53	0.16
323	0.4	0.71	0.21
323	0.5	0.8	0.32
323	0.8	1.4	0.42
323	1	1.68	0.5
323	2	2.57	0.77

System: 1-(2-hydroxyphenyl)ethanone + sodium p-toluenesulfonate + water; phases: Liquid, Crystal
Fixed: Pressure, kPa = 101.3
Property: Amount concentration (molarity), mol/dm3 of 1-(2-hydroxyphenyl)ethanone (Liquid); method: OTHER
Temperature, K	Solvent: Amount concentration (molarity), mol/dm3 of sodium p-toluenesulfonate	Amount concentration (molarity), mol/dm3 of 1-(2-hydroxyphenyl)ethanone	uncertainty
303	0	0.05	0.02
303	0.1	0.08	0.02
303	0.2	0.12	0.04
303	0.4	0.2	0.06
303	0.5	0.34	0.1
303	0.8	0.48	0.14
303	1	0.51	0.15
303	2	0.89	0.27
313	0	0.11	0.03
313	0.1	0.15	0.05
313	0.2	0.19	0.06
313	0.4	0.31	0.09
313	0.5	0.4	0.12
313	0.8	0.89	0.27
313	1	1.21	0.36
313	2	1.75	0.53
323	0	0.14	0.05
323	0.1	0.33	0.1
323	0.2	0.54	0.16
323	0.4	0.73	0.22
323	0.5	0.76	0.23
323	0.8	1.45	0.44
323	1	2.28	0.68
323	2	3.77	1.13
