Measured thermophysical data. Liquid-Liquid Equilibria for Monoethylene Glycol + Water + Alkane Systems in the Range (273 to 313) K and Atmospheric Pressure
Source: J. Chem. Eng. Data, 2004, 10.1021/je034270j
Compound 1: 1,2-ethanediol, C2H6O2, InChI=1S/C2H6O2/c3-1-2-4/h3-4H,1-2H2
Compound 2: hexane, C6H14, InChI=1S/C6H14/c1-3-5-6-4-2/h3-6H2,1-2H3
Compound 3: heptane, C7H16, InChI=1S/C7H16/c1-3-5-7-6-4-2/h3-7H2,1-2H3
Compound 4: octane, C8H18, InChI=1S/C8H18/c1-3-5-7-8-6-4-2/h3-8H2,1-2H3
Compound 5: nonane, C9H20, InChI=1S/C9H20/c1-3-5-7-9-8-6-4-2/h3-9H2,1-2H3
Compound 6: decane, C10H22, InChI=1S/C10H22/c1-3-5-7-9-10-8-6-4-2/h3-10H2,1-2H3
Compound 7: 3-methylpentane, C6H14, InChI=1S/C6H14/c1-4-6(3)5-2/h6H,4-5H2,1-3H3
Compound 8: 2,4-dimethylpentane, C7H16, InChI=1S/C7H16/c1-6(2)5-7(3)4/h6-7H,5H2,1-4H3
Compound 9: 2,2,4-trimethylpentane, C8H18, InChI=1S/C8H18/c1-7(2)6-8(3,4)5/h7H,6H2,1-5H3
Compound 10: water, H2O, InChI=1S/H2O/h1H2

System: 1,2-ethanediol + hexane + water; phases: Liquid mixture 1, Liquid mixture 2
Fixed: Pressure, kPa = 101.325
Property: Mole fraction of water (Liquid mixture 1); method: CHROM:UFactor:16
Property: Mole fraction of water (Liquid mixture 2); method: CHROM:UFactor:16
Property: Mole fraction of 1,2-ethanediol (Liquid mixture 2); method: CHROM:UFactor:16
Temperature, K	Mole fraction of 1,2-ethanediol	Mole fraction of water	uncertainty	Mole fraction of water	uncertainty	Mole fraction of 1,2-ethanediol	uncertainty
283.1	0.9699	0.015	0.0078	0.0056	0.0056	0.1718	
283.1	0.8014	0.1471	0.0191	0.0064	0.0061	0.0321	
283.1	0.7512	0.237	0.0303	0.0056	0.0056	0.0193	
283.1	0.6608	0.3286	0.0412	0.0077	0.0062	0.0124	
283.1	0.5602	0.429	0.0535	0.0077	0.0077	0.0089	
283.1	0.2966	0.7002	0.0377	0.0176	0.0176	0.0029	
283.1	0.2347	0.7646	0.0298	0.0089	0.0089	0.0022	
293.1	0.9487	0.0504	0.0103	0.0101	0.0061	0.1502	
293.1	0.825	0.1713	0.022	0.0096	0.0062	0.0387	
293.1	0.7195	0.2781	0.035	0.0094	0.0061	0.0192	
293.1	0.608	0.3915	0.0489	0.0104	0.0063	0.0131	
293.1	0.4983	0.5008	0.0621	0.0063	0.0063	0.0083	
293.1	0.4025	0.5919	0.0509	0.0069	0.0069	0.0052	
293.1	0.3382	0.6614	0.0424	0.0055	0.0055	0.0041	
303.1	0.9133	0.0821	0.0125	0.0329	0.0071	0.1233	
303.1	0.7907	0.2033	0.0259	0.0216	0.0067	0.0416	
303.1	0.659	0.3301	0.0414	0.0167	0.0067	0.0243	
303.1	0.5025	0.4926	0.0614	0.0107	0.0061	0.0129	
303.1	0.3486	0.65	0.0438	0.0169	0.0063	0.0066	
303.1	0.2814	0.7165	0.0356	0.0131	0.0066	0.0048	
303.1	0.1937	0.8032	0.0251	0.0108	0.0061	0.0029	
303.1	0.1684	0.8314	0.0221	0.0022	0.0022	0.0026	
313.1	0.7689	0.2245	0.0285	0.009	0.0061	0.0702	
313.1	0.653	0.3415	0.0428	0.0104	0.0061	0.0512	
313.1	0.5838	0.4108	0.0513	0.0116	0.0063	0.0298	
313.1	0.4434	0.5539	0.0556	0.0198	0.0067	0.0173	
313.1	0.2777	0.7205	0.0351	0.0174	0.0085	0.0089	
313.1	0.1986	0.7888	0.0267	0.0068	0.0068	0.0062	

System: 1,2-ethanediol + heptane + water; phases: Liquid mixture 1, Liquid mixture 2
Fixed: Temperature, K = 293.1
Fixed: Pressure, kPa = 101.325
Property: Mole fraction of water (Liquid mixture 1); method: CHROM:UFactor:16
Property: Mole fraction of water (Liquid mixture 2); method: CHROM:UFactor:16
Property: Mole fraction of 1,2-ethanediol (Liquid mixture 2); method: CHROM:UFactor:16
Mole fraction of 1,2-ethanediol	Mole fraction of water	uncertainty	Mole fraction of water	uncertainty	Mole fraction of 1,2-ethanediol	uncertainty
0.9233	0.076	0.012	0.0064	0.0061	0.0776	
0.8553	0.1431	0.0187	0.0084	0.0062	0.042	
0.7623	0.2369	0.03	0.0201	0.0064	0.0242	
0.7339	0.265	0.0334	0.0061	0.0061	0.0193	
0.6766	0.3219	0.0403	0.0039	0.0039	0.0159	

System: 1,2-ethanediol + octane + water; phases: Liquid mixture 1, Liquid mixture 2
Fixed: Temperature, K = 293.1
Fixed: Pressure, kPa = 101.325
Property: Mole fraction of water (Liquid mixture 1); method: CHROM:UFactor:16
Property: Mole fraction of water (Liquid mixture 2); method: CHROM:UFactor:16
Property: Mole fraction of 1,2-ethanediol (Liquid mixture 2); method: CHROM:UFactor:16
Mole fraction of 1,2-ethanediol	Mole fraction of water	uncertainty	Mole fraction of water	uncertainty	Mole fraction of 1,2-ethanediol	uncertainty
0.9481	0.0515	0.0103	0.0989	0.0128	0.1537	
0.8977	0.1021	0.0143	0.0771	0.0111	0.0743	
0.8498	0.1486	0.0194	0.0318	0.0111	0.0464	
0.8002	0.1989	0.0254	0.0213	0.0075	0.0345	
0.7389	0.2605	0.0328	0.0172	0.007	0.0236	
0.6847	0.3147	0.0394	0.0123	0.01	0.0171	
0.6151	0.3816	0.0476	0.0023	0.0023	0.0127	
0.5747	0.417	0.052	0.0022	0.0022	0.0111	
0.4215	0.5615	0.0546	0.0016	0.0016	0.006	

System: 1,2-ethanediol + nonane + water; phases: Liquid mixture 1, Liquid mixture 2
Fixed: Temperature, K = 293.1
Fixed: Pressure, kPa = 101.325
Property: Mole fraction of water (Liquid mixture 1); method: CHROM:UFactor:8
Property: Mole fraction of water (Liquid mixture 2); method: CHROM:UFactor:8
Property: Mole fraction of 1,2-ethanediol (Liquid mixture 2); method: CHROM:UFactor:8
Mole fraction of 1,2-ethanediol	Mole fraction of water	uncertainty	Mole fraction of water	uncertainty	Mole fraction of 1,2-ethanediol	uncertainty
0.9419	0.0565	0.0093	0.0164	0.0067	0.118	
0.8639	0.1349	0.0114	0.0117	0.006	0.0447	
0.7998	0.198	0.014	0.0121	0.0062	0.027	
0.663	0.3335	0.0215	0.0192	0.0066	0.015	
0.5617	0.4371	0.0278	0.0179	0.008	0.0105	
0.5174	0.4794	0.0303	0.0126	0.0126	0.0082	
0.9682	0.0223	0.0099	0.0745	0.0093	0.1796	

System: 1,2-ethanediol + decane + water; phases: Liquid mixture 1, Liquid mixture 2
Fixed: Temperature, K = 293.1
Fixed: Pressure, kPa = 101.325
Property: Mole fraction of water (Liquid mixture 1); method: CHROM:UFactor:16
Property: Mole fraction of water (Liquid mixture 2); method: CHROM:UFactor:16
Property: Mole fraction of 1,2-ethanediol (Liquid mixture 2); method: CHROM:UFactor:16
Mole fraction of 1,2-ethanediol	Mole fraction of water	uncertainty	Mole fraction of water	uncertainty	Mole fraction of 1,2-ethanediol	uncertainty
0.8884	0.1015	0.0143	0.0333	0.0074	0.062	
0.7979	0.1944	0.0249	0.0215	0.0067	0.029	
0.7235	0.273	0.0344	0.0218	0.0065	0.0191	
0.5979	0.3957	0.0494	0.0197	0.0155	0.0109	
0.5509	0.4411	0.055	0.0237	0.0121	0.0092	
0.4316	0.5621	0.0546	0.0122	0.0122	0.0056	

System: 3-methylpentane + 1,2-ethanediol + water; phases: Liquid mixture 1, Liquid mixture 2
Fixed: Pressure, kPa = 101.325
Property: Mole fraction of water (Liquid mixture 1); method: CHROM:UFactor:8
Property: Mole fraction of water (Liquid mixture 2); method: CHROM:UFactor:8
Property: Mole fraction of 1,2-ethanediol (Liquid mixture 2); method: CHROM:UFactor:8
Temperature, K	Mole fraction of 1,2-ethanediol	Mole fraction of water	uncertainty	Mole fraction of water	uncertainty	Mole fraction of 1,2-ethanediol	uncertainty
273.1	0.9365	0.0624	0.0091	0.0009	0.0009	0.0694	
273.1	0.8552	0.1412	0.0116	0.0033	0.0033	0.0285	
273.1	0.7522	0.2459	0.0164	0.0015	0.0015	0.015	
273.1	0.6359	0.3619	0.0232	0.0018	0.0018	0.0088	
273.1	0.4956	0.504	0.0313	0.0004	0.0004	0.0056	
283.1	0.9429	0.0514	0.0089	0.0097	0.0061	0.0934	
283.1	0.8512	0.1439	0.0118	0.0038	0.0038	0.0318	
283.1	0.736	0.2609	0.0173	0.0039	0.0039	0.0171	
283.1	0.6152	0.3839	0.0245	0.0051	0.0051	0.01	
283.1	0.5223	0.4767	0.0301	0.0011	0.0011	0.0069	
293.1	0.9403	0.0572	0.0092	0.0022	0.0022	0.1025	
293.1	0.8574	0.1419	0.0117	0.003	0.003	0.0428	
293.1	0.7843	0.2153	0.0148	0.0011	0.0011	0.026	
293.1	0.7099	0.2897	0.0189	0.001	0.001	0.0172	
293.1	0.6455	0.3537	0.0227	0.0009	0.0009	0.0129	
293.1	0.5976	0.4019	0.0256	0.0013	0.0013	0.0107	

System: 1,2-ethanediol + 2,4-dimethylpentane + water; phases: Liquid mixture 1, Liquid mixture 2
Fixed: Temperature, K = 293.1
Fixed: Pressure, kPa = 101.325
Property: Mole fraction of water (Liquid mixture 1); method: CHROM:UFactor:16
Property: Mole fraction of water (Liquid mixture 2); method: CHROM:UFactor:16
Property: Mole fraction of 1,2-ethanediol (Liquid mixture 2); method: CHROM:UFactor:16
Mole fraction of 1,2-ethanediol	Mole fraction of water	uncertainty	Mole fraction of water	uncertainty	Mole fraction of 1,2-ethanediol	uncertainty
0.8967	0.0673	0.0124	0.0881	0.0139	0.0944	
0.8339	0.1488	0.0197	0.021	0.0092	0.0418	
0.6953	0.2994	0.0377	0.0066	0.0066	0.0176	
0.6255	0.3698	0.0462	0.0101	0.0064	0.013	
0.5776	0.4171	0.0521	0.0084	0.0066	0.0108	
0.5057	0.4921	0.0613	0.0082	0.0061	0.0085	

System: 1,2-ethanediol + 2,2,4-trimethylpentane + water; phases: Liquid mixture 1, Liquid mixture 2
Fixed: Temperature, K = 293.1
Fixed: Pressure, kPa = 101.325
Property: Mole fraction of water (Liquid mixture 1); method: CHROM:UFactor:8
Property: Mole fraction of water (Liquid mixture 2); method: CHROM:UFactor:8
Property: Mole fraction of 1,2-ethanediol (Liquid mixture 2); method: CHROM:UFactor:8
Mole fraction of 1,2-ethanediol	Mole fraction of water	uncertainty	Mole fraction of water	uncertainty	Mole fraction of 1,2-ethanediol	uncertainty
0.937	0.0627	0.0092	0.0007	0.0007	0.1105	
0.8156	0.183	0.0134	0.0009	0.0009	0.041	
0.7587	0.2402	0.016	0.0021	0.0021	0.0271	
0.6344	0.3585	0.023	0.0012	0.0012	0.0168	
0.504	0.4936	0.0312	0.0018	0.0018	0.01	
