Measured thermophysical data. Volumetric Properties and Viscosities for Aqueous N-Methyl-2-pyrrolidone Solutions from 25 deg C to 70 deg C
Source: J. Chem. Eng. Data, 2004, 10.1021/je034073k
Compound 1: water, H2O, InChI=1S/H2O/h1H2, purity 99.9%
Compound 2: N-methylpyrrolidone, C5H9NO, InChI=1S/C5H9NO/c1-6-4-2-3-5(6)7/h2-4H2,1H3, purity 98%

System: N-methylpyrrolidone; phases: Liquid
Fixed: Pressure, kPa = 101.15
Property: Viscosity, Pa*s (Liquid); method: Capillary tube (Ostwald; Ubbelohde) method
Temperature, K	Viscosity, Pa*s	uncertainty
298.15	0.001656	2.5e-05
313.15	0.001322	2e-05
323.15	0.001175	1.8e-05
333.15	0.001035	1.6e-05
343.15	0.000921	1.4e-05

System: N-methylpyrrolidone; phases: Liquid
Fixed: Pressure, kPa = 101.15
Property: Mass density, kg/m3 (Liquid); method: VIBTUB:UFactor:4
Temperature, K	Mass density, kg/m3	uncertainty
298.15	1028.72	1.06
313.15	1015.19	1.05
323.15	1006.27	1.04
333.15	997.41	1.03
343.15	988.46	1.02

System: N-methylpyrrolidone + water; phases: Liquid
Fixed: Pressure, kPa = 101.15
Property: Viscosity, Pa*s (Liquid); method: Capillary tube (Ostwald; Ubbelohde) method
Temperature, K	Mole fraction of N-methylpyrrolidone	Viscosity, Pa*s	uncertainty
298.15	0	0.00089	1e-05
298.15	0.0501	0.00174	2e-05
298.15	0.0701	0.002137	2.4e-05
298.15	0.1001	0.002762	3.1e-05
298.15	0.2004	0.004555	5.2e-05
298.15	0.3004	0.005062	5.9e-05
298.15	0.4012	0.004505	5.4e-05
298.15	0.503	0.003729	4.6e-05
298.15	0.5937	0.003075	3.9e-05
298.15	0.7023	0.002503	3.3e-05
298.15	0.8066	0.002091	2.9e-05
298.15	0.9006	0.001836	2.7e-05
298.15	1	0.001656	2.5e-05
313.15	0	0.000653	8e-06
313.15	0.0501	0.001178	1.4e-05
313.15	0.0701	0.001402	1.6e-05
313.15	0.1001	0.001744	2e-05
313.15	0.2004	0.002684	3.1e-05
313.15	0.3004	0.002975	3.5e-05
313.15	0.4012	0.002777	3.3e-05
313.15	0.503	0.00244	3e-05
313.15	0.5937	0.002125	2.7e-05
313.15	0.7023	0.001818	2.4e-05
313.15	0.8066	0.001585	2.2e-05
313.15	0.9006	0.00143	2.1e-05
313.15	1	0.001322	2e-05
323.15	0	0.000547	6e-06
323.15	0.0501	0.000942	1.1e-05
323.15	0.0701	0.001106	1.3e-05
323.15	0.1001	0.001351	1.6e-05
323.15	0.2004	0.001995	2.3e-05
323.15	0.3004	0.002214	2.6e-05
323.15	0.4012	0.002116	2.6e-05
323.15	0.503	0.001935	2.4e-05
323.15	0.5937	0.00171	2.2e-05
323.15	0.7023	0.001509	2e-05
323.15	0.8066	0.001343	1.9e-05
323.15	0.9006	0.001236	1.8e-05
323.15	1	0.001175	1.8e-05
333.15	0	0.000466	6e-06
333.15	0.0501	0.000767	9e-06
333.15	0.0701	0.000901	1e-05
333.15	0.1001	0.001078	1.2e-05
333.15	0.2004	0.001537	1.8e-05
333.15	0.3004	0.001709	2e-05
333.15	0.4012	0.001663	2e-05
333.15	0.503	0.001548	1.9e-05
333.15	0.5937	0.001419	1.8e-05
333.15	0.7023	0.001274	1.7e-05
333.15	0.8066	0.001165	1.6e-05
333.15	0.9006	0.001078	1.6e-05
333.15	1	0.001035	1.6e-05
343.15	0	0.000405	5e-06
343.15	0.0501	0.000644	8e-06
343.15	0.0701	0.000749	9e-06
343.15	0.1001	0.000883	1e-05
343.15	0.2004	0.001232	1.4e-05
343.15	0.3004	0.00136	1.6e-05
343.15	0.4012	0.001343	1.6e-05
343.15	0.503	0.001273	1.6e-05
343.15	0.5937	0.001191	1.5e-05
343.15	0.7023	0.001097	1.5e-05
343.15	0.8066	0.001019	1.4e-05
343.15	0.9006	0.000951	1.4e-05
343.15	1	0.000921	1.4e-05

System: N-methylpyrrolidone + water; phases: Liquid
Fixed: Pressure, kPa = 101.15
Property: Mass density, kg/m3 (Liquid); method: VIBTUB:UFactor:4
Temperature, K	Mole fraction of N-methylpyrrolidone	Mass density, kg/m3	uncertainty
298.15	0	997.04	0.14
298.15	0.0501	1013.41	0.18
298.15	0.0701	1019.4	0.2
298.15	0.1001	1027.28	0.22
298.15	0.2004	1043.59	0.32
298.15	0.3004	1048.44	0.41
298.15	0.4012	1047.57	0.5
298.15	0.503	1045.28	0.59
298.15	0.5937	1042.09	0.68
298.15	0.7023	1038.39	0.78
298.15	0.8066	1034.68	0.88
298.15	0.9006	1031.07	0.97
298.15	1	1028.72	1.06
313.15	0	992.21	0.15
313.15	0.0501	1005.83	0.17
313.15	0.0701	1010.71	0.19
313.15	0.1001	1017.13	0.21
313.15	0.2004	1030.49	0.3
313.15	0.3004	1034.34	0.39
313.15	0.4012	1033.33	0.48
313.15	0.503	1031.16	0.58
313.15	0.5937	1028.2	0.66
313.15	0.7023	1024.65	0.76
313.15	0.8066	1021.04	0.86
313.15	0.9006	1017.59	0.95
313.15	1	1015.19	1.05
323.15	0	988.04	0.15
323.15	0.0501	1000.08	0.16
323.15	0.0701	1004.33	0.18
323.15	0.1001	1009.94	0.2
323.15	0.2004	1021.51	0.29
323.15	0.3004	1024.81	0.38
323.15	0.4012	1023.7	0.47
323.15	0.503	1021.6	0.57
323.15	0.5937	1018.85	0.65
323.15	0.7023	1015.62	0.75
323.15	0.8066	1011.92	0.85
323.15	0.9006	1008.6	0.94
323.15	1	1006.27	1.04
333.15	0	983.12	0.16
333.15	0.0501	993.9	0.17
333.15	0.0701	997.51	0.17
333.15	0.1001	1002.36	0.19
333.15	0.2004	1012.34	0.28
333.15	0.3004	1015.11	0.37
333.15	0.4012	1013.94	0.46
333.15	0.503	1011.96	0.56
333.15	0.5937	1009.35	0.64
333.15	0.7023	1006.23	0.74
333.15	0.8066	1002.76	0.84
333.15	0.9006	999.55	0.93
333.15	1	997.41	1.03
343.15	0	977.77	0.17
343.15	0.0501	987.04	0.17
343.15	0.0701	990.23	0.18
343.15	0.1001	994.46	0.2
343.15	0.2004	1002.99	0.27
343.15	0.3004	1005.26	0.36
343.15	0.4012	1004.05	0.46
343.15	0.503	1002.21	0.55
343.15	0.5937	999.76	0.63
343.15	0.7023	996.83	0.74
343.15	0.8066	993.56	0.84
343.15	0.9006	990.5	0.92
343.15	1	988.46	1.02
