Measured thermophysical data. Volumetric Properties of Monoethylene Glycol Dimethyl Ether and Diethylene Glycol Dimethyl Ether up to 60 MPa
Source: J. Chem. Eng. Data, 2003, 10.1021/je0340304
Compound 1: 1,2-dimethoxyethane, C4H10O2, InChI=1S/C4H10O2/c1-5-3-4-6-2/h3-4H2,1-2H3
Compound 2: 2,5,8-trioxanonane, C6H14O3, InChI=1S/C6H14O3/c1-7-3-5-9-6-4-8-2/h3-6H2,1-2H3

System: 1,2-dimethoxyethane; phases: Liquid
Property: Mass density, kg/m3 (Liquid); method: VIBTUB:UFactor:2
Temperature, K	Pressure, kPa	Mass density, kg/m3	uncertainty
293.15	100	866.7	0.2
293.15	5000	871.1	0.2
293.15	10000	875.3	0.3
293.15	15000	879.5	0.3
293.15	20000	883.2	0.3
293.15	25000	887.2	0.4
293.15	30000	890.9	0.4
293.15	35000	894.4	0.4
293.15	40000	897.8	0.5
293.15	45000	901.1	0.5
293.15	50000	904.3	0.5
293.15	55000	907.5	0.5
293.15	60000	910.4	0.6
303.15	100	855.5	0.2
303.15	5000	860.2	0.2
303.15	10000	864.8	0.3
303.15	15000	869.2	0.3
303.15	20000	873.4	0.4
303.15	25000	877.4	0.4
303.15	30000	881.3	0.4
303.15	35000	885.1	0.5
303.15	40000	888.5	0.5
303.15	45000	891.9	0.5
303.15	50000	895.5	0.6
303.15	55000	898.6	0.6
303.15	60000	901.7	0.6
313.15	100	844.4	0.2
313.15	5000	849.4	0.3
313.15	10000	854.4	0.3
313.15	15000	859.1	0.3
313.15	20000	863.5	0.4
313.15	25000	867.7	0.4
313.15	30000	871.7	0.5
313.15	35000	875.7	0.5
313.15	40000	879.4	0.5
313.15	45000	883.1	0.6
313.15	50000	886.7	0.6
313.15	55000	890	0.6
313.15	60000	893.3	0.6
323.15	100	833.1	0.2
323.15	5000	838.5	0.3
323.15	10000	843.9	0.3
323.15	15000	848.7	0.4
323.15	20000	853.4	0.4
323.15	25000	858	0.5
323.15	30000	862.3	0.5
323.15	35000	866.4	0.5
323.15	40000	870.2	0.6
323.15	45000	874.2	0.6
323.15	50000	877.8	0.6
323.15	55000	881.4	0.7
323.15	60000	885	0.7
333.15	100	821.6	0.2
333.15	5000	827.5	0.3
333.15	10000	833.2	0.3
333.15	15000	838.7	0.4
333.15	20000	843.6	0.4
333.15	25000	848.4	0.5
333.15	30000	853.1	0.5
333.15	35000	857.4	0.6
333.15	40000	861.7	0.6
333.15	45000	865.6	0.6
333.15	50000	869	0.7
333.15	55000	873.3	0.7
333.15	60000	876.7	0.7
343.15	100	809.9	0.2
343.15	5000	816.3	0.3
343.15	10000	822.5	0.4
343.15	15000	828.3	0.4
343.15	20000	833.8	0.5
343.15	25000	838.7	0.5
343.15	30000	843.5	0.6
343.15	35000	848	0.6
343.15	40000	852.6	0.6
343.15	45000	856.6	0.7
343.15	50000	860.6	0.7
343.15	55000	864.5	0.7
343.15	60000	868.3	0.8
353.15	100	797.6	0.3
353.15	5000	804.8	0.3
353.15	10000	811.4	0.4
353.15	15000	817.6	0.4
353.15	20000	823.2	0.5
353.15	25000	828.7	0.5
353.15	30000	833.8	0.6
353.15	35000	838.6	0.6
353.15	40000	843.1	0.7
353.15	45000	847.8	0.7
353.15	50000	852	0.8
353.15	55000	856	0.8
353.15	60000	859.8	0.8

System: 2,5,8-trioxanonane; phases: Liquid
Property: Mass density, kg/m3 (Liquid); method: VIBTUB:UFactor:2
Temperature, K	Pressure, kPa	Mass density, kg/m3	uncertainty
293.15	100	943.5	0.3
293.15	5000	947.3	0.3
293.15	10000	950.9	0.3
293.15	15000	954.4	0.3
293.15	20000	957.7	0.3
293.15	25000	960.9	0.3
293.15	30000	964	0.3
293.15	35000	967	0.3
293.15	40000	969.8	0.3
293.15	45000	972.8	0.3
293.15	50000	975.4	0.3
293.15	55000	978.2	0.3
293.15	60000	980.9	0.3
303.15	100	933.7	0.3
303.15	5000	937.6	0.3
303.15	10000	941.1	0.3
303.15	15000	945	0.3
303.15	20000	948.4	0.3
303.15	25000	951.8	0.3
303.15	30000	955.2	0.3
303.15	35000	958.2	0.3
303.15	40000	961.1	0.3
303.15	45000	964	0.3
303.15	50000	967.3	0.3
303.15	55000	970.1	0.3
303.15	60000	973.2	0.3
313.15	100	923.7	0.3
313.15	5000	927.9	0.3
313.15	10000	931.8	0.3
313.15	15000	935.7	0.3
313.15	20000	939.4	0.3
313.15	25000	942.6	0.3
313.15	30000	946.5	0.3
313.15	35000	949.7	0.3
313.15	40000	952.8	0.4
313.15	45000	956.1	0.4
313.15	50000	958.8	0.4
313.15	55000	961.9	0.4
313.15	60000	964.9	0.4
323.15	100	913.7	0.3
323.15	5000	918.2	0.3
323.15	10000	922.7	0.3
323.15	15000	926.4	0.3
323.15	20000	930.5	0.3
323.15	25000	934.2	0.3
323.15	30000	937.6	0.4
323.15	35000	941	0.4
323.15	40000	944.4	0.4
323.15	45000	947.6	0.4
323.15	50000	951	0.4
323.15	55000	953.9	0.4
323.15	60000	956.7	0.4
333.15	100	903.6	0.3
333.15	5000	908.3	0.3
333.15	10000	912.8	0.3
333.15	15000	917.3	0.3
333.15	20000	921	0.3
333.15	25000	925.3	0.4
333.15	30000	928.9	0.4
333.15	35000	932.6	0.4
333.15	40000	936.4	0.4
333.15	45000	939.8	0.4
333.15	50000	942.9	0.4
333.15	55000	946	0.4
333.15	60000	949.1	0.4
343.15	100	893.6	0.3
343.15	5000	898.5	0.3
343.15	10000	903.2	0.3
343.15	15000	907.8	0.3
343.15	20000	912.3	0.4
343.15	25000	916.2	0.4
343.15	30000	920.5	0.4
343.15	35000	924.2	0.4
343.15	40000	928	0.4
343.15	45000	931.4	0.4
343.15	50000	934.8	0.4
343.15	55000	938.2	0.4
343.15	60000	941.4	0.5
353.15	100	883.3	0.3
353.15	5000	888.7	0.3
353.15	10000	893.9	0.3
353.15	15000	898.7	0.4
353.15	20000	903.2	0.4
353.15	25000	907.6	0.4
353.15	30000	911.6	0.4
353.15	35000	915.5	0.4
353.15	40000	919.5	0.4
353.15	45000	923.1	0.5
353.15	50000	927	0.5
353.15	55000	930.4	0.5
353.15	60000	933.6	0.5
