Measured thermophysical data. Vapor Pressures and Vaporization Enthalpies of the n-Alkanes from C31 to C38 at T = 298.15 K by Correlation Gas Chromatography
Source: J. Chem. Eng. Data, 2004, 10.1021/je030236t
Compound 1: hentriacontane, C31H64, InChI=1S/C31H64/c1-3-5-7-9-11-13-15-17-19-21-23-25-27-29-31-30-28-26-24-22-20-18-16-14-12-10-8-6-4-2/h3-31H2,1-2H3, purity 99.5%
Compound 2: dotriacontane, C32H66, InChI=1S/C32H66/c1-3-5-7-9-11-13-15-17-19-21-23-25-27-29-31-32-30-28-26-24-22-20-18-16-14-12-10-8-6-4-2/h3-32H2,1-2H3
Compound 3: tritriacontane, C33H68, InChI=1S/C33H68/c1-3-5-7-9-11-13-15-17-19-21-23-25-27-29-31-33-32-30-28-26-24-22-20-18-16-14-12-10-8-6-4-2/h3-33H2,1-2H3, purity 99.5%
Compound 4: tetratriacontane, C34H70, InChI=1S/C34H70/c1-3-5-7-9-11-13-15-17-19-21-23-25-27-29-31-33-34-32-30-28-26-24-22-20-18-16-14-12-10-8-6-4-2/h3-34H2,1-2H3
Compound 5: pentatriacontane, C35H72, InChI=1S/C35H72/c1-3-5-7-9-11-13-15-17-19-21-23-25-27-29-31-33-35-34-32-30-28-26-24-22-20-18-16-14-12-10-8-6-4-2/h3-35H2,1-2H3, purity 99.5%
Compound 6: hexatriacontane, C36H74, InChI=1S/C36H74/c1-3-5-7-9-11-13-15-17-19-21-23-25-27-29-31-33-35-36-34-32-30-28-26-24-22-20-18-16-14-12-10-8-6-4-2/h3-36H2,1-2H3
Compound 7: heptatriacontane, C37H76, InChI=1S/C37H76/c1-3-5-7-9-11-13-15-17-19-21-23-25-27-29-31-33-35-37-36-34-32-30-28-26-24-22-20-18-16-14-12-10-8-6-4-2/h3-37H2,1-2H3, purity 99.5%
Compound 8: octatriacontane, C38H78, InChI=1S/C38H78/c1-3-5-7-9-11-13-15-17-19-21-23-25-27-29-31-33-35-37-38-36-34-32-30-28-26-24-22-20-18-16-14-12-10-8-6-4-2/h3-38H2,1-2H3, purity 99.5%
Compound 9: 1,3,5-triphenylbenzene, C24H18, InChI=1S/C24H18/c1-4-10-19(11-5-1)22-16-23(20-12-6-2-7-13-20)18-24(17-22)21-14-8-3-9-15-21/h1-18H

System: hentriacontane; phases: Liquid, Gas
Property: Molar enthalpy of vaporization or sublimation, kJ/mol (Liquid); method: OTHER
Temperature, K	Molar enthalpy of vaporization or sublimation, kJ/mol	uncertainty
298.15	157.3	8.2

System: hentriacontane; phases: Liquid, Gas
Property: Vapor or sublimation pressure, kPa (Liquid); method: OTHER
Temperature, K	Vapor or sublimation pressure, kPa	uncertainty
298.15	1.11e-11	2.2e-12
310	1.23e-10	2.5e-11
320	7.88e-10	1.58e-10
330	4.39e-09	8.8e-10
340	2.15e-08	4.3e-09
350	9.39e-08	1.88e-08
360	3.69e-07	7.4e-08
370	1.32e-06	2.6e-07
380	4.3e-06	8.6e-07
390	1.3e-05	2.6e-06
400	3.64e-05	7.3e-06
410	9.56e-05	1.91e-05
420	0.000236	4.7e-05
430	0.00055	0.00011
440	0.00122	0.00024
450	0.00256	0.00051
460	0.00517	0.00103
470	0.01	0.002
480	0.0187	0.0037
490	0.0336	0.0067
500	0.0585	0.0117
510	0.0989	0.0198
520	0.163	0.033
530	0.26	0.052
540	0.406	0.081
550	0.619	0.124
560	0.925	0.185
570	1.35	0.27
580	1.95	0.39

System: dotriacontane; phases: Liquid, Gas
Property: Molar enthalpy of vaporization or sublimation, kJ/mol (Liquid); method: OTHER
Temperature, K	Molar enthalpy of vaporization or sublimation, kJ/mol	uncertainty
298.15	162.5	8.4

System: dotriacontane; phases: Liquid, Gas
Property: Vapor or sublimation pressure, kPa (Liquid); method: OTHER
Temperature, K	Vapor or sublimation pressure, kPa	uncertainty
298.15	3.62e-12	7.3e-13
310	4.33e-11	8.7e-12
320	2.95e-10	5.9e-11
330	1.74e-09	3.5e-10
340	8.99e-09	1.8e-09
350	4.12e-08	8.2e-09
360	1.69e-07	3.4e-08
370	6.31e-07	1.26e-07
380	2.14e-06	4.3e-07
390	6.71e-06	1.34e-06
400	1.95e-05	3.9e-06
410	5.27e-05	1.05e-05
420	0.000134	2.7e-05
430	0.000321	6.4e-05
440	0.000729	0.000146
450	0.00158	0.00032
460	0.00325	0.00065
470	0.00643	0.00129
480	0.0122	0.0024
490	0.0224	0.0045
500	0.0398	0.008
510	0.0684	0.0137
520	0.114	0.023
530	0.185	0.037
540	0.294	0.059
550	0.454	0.091
560	0.687	0.137
570	1.02	0.2
580	1.48	0.3

System: tritriacontane; phases: Liquid, Gas
Property: Molar enthalpy of vaporization or sublimation, kJ/mol (Liquid); method: OTHER
Temperature, K	Molar enthalpy of vaporization or sublimation, kJ/mol	uncertainty
298.15	167.6	8.6

System: tritriacontane; phases: Liquid, Gas
Property: Vapor or sublimation pressure, kPa (Liquid); method: OTHER
Temperature, K	Vapor or sublimation pressure, kPa	uncertainty
298.15	1.19e-12	2.4e-13
310	1.54e-11	3.1e-12
320	1.11e-10	2.2e-11
330	6.95e-10	1.39e-10
340	3.79e-09	7.6e-10
350	1.82e-08	3.6e-09
360	7.83e-08	1.57e-08
370	3.04e-07	6.1e-08
380	1.07e-06	2.1e-07
390	3.49e-06	7e-07
400	1.05e-05	2.1e-06
410	2.92e-05	5.8e-06
420	7.65e-05	1.53e-05
430	0.000189	3.8e-05
440	0.000439	8.8e-05
450	0.000972	0.000194
460	0.00205	0.00041
470	0.00415	0.00083
480	0.00805	0.00161
490	0.015	0.003
500	0.0272	0.0054
510	0.0474	0.0095
520	0.0804	0.0161
530	0.133	0.027
540	0.213	0.043
550	0.334	0.067
560	0.511	0.102
570	0.767	0.153
580	1.13	0.23

System: tetratriacontane; phases: Liquid, Gas
Property: Molar enthalpy of vaporization or sublimation, kJ/mol (Liquid); method: OTHER
Temperature, K	Molar enthalpy of vaporization or sublimation, kJ/mol	uncertainty
298.15	172.7	8.8

System: tetratriacontane; phases: Liquid, Gas
Property: Vapor or sublimation pressure, kPa (Liquid); method: OTHER
Temperature, K	Vapor or sublimation pressure, kPa	uncertainty
298.15	3.83e-13	7.7e-14
310	5.39e-12	1.08e-12
320	4.16e-11	8.3e-12
330	2.75e-10	5.5e-11
340	1.58e-09	3.2e-10
350	7.97e-09	1.59e-09
360	3.59e-08	7.2e-09
370	1.45e-07	2.9e-08
380	5.34e-07	1.07e-07
390	1.8e-06	3.6e-07
400	5.58e-06	1.12e-06
410	1.61e-05	3.2e-06
420	4.34e-05	8.7e-06
430	0.00011	2.2e-05
440	0.000263	5.3e-05
450	0.000596	0.000119
460	0.00129	0.00026
470	0.00266	0.00053
480	0.00527	0.00105
490	0.01	0.002
500	0.0184	0.0037
510	0.0328	0.0066
520	0.0564	0.0113
530	0.0944	0.0189
540	0.154	0.031
550	0.244	0.049
560	0.379	0.076
570	0.575	0.115
580	0.856	0.171

System: pentatriacontane; phases: Liquid, Gas
Property: Molar enthalpy of vaporization or sublimation, kJ/mol (Liquid); method: OTHER
Temperature, K	Molar enthalpy of vaporization or sublimation, kJ/mol	uncertainty
298.15	178	9.2

System: pentatriacontane; phases: Liquid, Gas
Property: Vapor or sublimation pressure, kPa (Liquid); method: OTHER
Temperature, K	Vapor or sublimation pressure, kPa	uncertainty
298.15	1.22e-13	3.7e-14
310	1.86e-12	5.6e-13
320	1.53e-11	4.6e-12
330	1.07e-10	3.2e-11
340	6.52e-10	1.96e-10
350	3.46e-09	1.04e-09
360	1.63e-08	4.9e-09
370	6.91e-08	2.07e-08
380	2.64e-07	7.9e-08
390	9.25e-07	2.78e-07
400	2.97e-06	8.9e-07
410	8.87e-06	2.66e-06
420	2.46e-05	7.4e-06
430	6.42e-05	1.93e-05
440	0.000158	4.7e-05
450	0.000367	0.00011
460	0.000812	0.000244
470	0.00171	0.00051
480	0.00346	0.00104
490	0.00673	0.00202
500	0.0126	0.0038
510	0.0228	0.0068
520	0.0399	0.012
530	0.0678	0.0203
540	0.112	0.034
550	0.181	0.054
560	0.284	0.085
570	0.436	0.131
580	0.657	0.197

System: hexatriacontane; phases: Liquid, Gas
Property: Molar enthalpy of vaporization or sublimation, kJ/mol (Liquid); method: OTHER
Temperature, K	Molar enthalpy of vaporization or sublimation, kJ/mol	uncertainty
298.15	182.8	9.4

System: hexatriacontane; phases: Liquid, Gas
Property: Vapor or sublimation pressure, kPa (Liquid); method: OTHER
Temperature, K	Vapor or sublimation pressure, kPa	uncertainty
298.15	4.51e-14	1.36e-14
310	7.39e-13	2.22e-13
320	6.41e-12	1.92e-12
330	4.72e-11	1.42e-11
340	3e-10	9e-11
350	1.66e-09	5e-10
360	8.16e-09	2.45e-09
370	3.58e-08	1.07e-08
380	1.42e-07	4.3e-08
390	5.12e-07	1.54e-07
400	1.7e-06	5.1e-07
410	5.2e-06	1.56e-06
420	1.48e-05	4.4e-06
430	3.96e-05	1.19e-05
440	9.96e-05	2.99e-05
450	0.000237	7.1e-05
460	0.000534	0.00016
470	0.00115	0.00035
480	0.00236	0.00071
490	0.00467	0.0014
500	0.00888	0.00266
510	0.0163	0.0049
520	0.0289	0.0087
530	0.0498	0.0149
540	0.0834	0.025
550	0.136	0.041
560	0.216	0.065
570	0.336	0.101
580	0.51	0.153

System: heptatriacontane; phases: Liquid, Gas
Property: Molar enthalpy of vaporization or sublimation, kJ/mol (Liquid); method: OTHER
Temperature, K	Molar enthalpy of vaporization or sublimation, kJ/mol	uncertainty
298.15	187.5	9.6

System: heptatriacontane; phases: Liquid, Gas
Property: Vapor or sublimation pressure, kPa (Liquid); method: OTHER
Temperature, K	Vapor or sublimation pressure, kPa	uncertainty
298.15	1.49e-14	4.5e-15
310	2.63e-13	7.9e-14
320	2.43e-12	7.3e-13
330	1.89e-11	5.7e-12
340	1.26e-10	3.8e-11
350	7.35e-10	2.21e-10
360	3.77e-09	1.13e-09
370	1.72e-08	5.2e-09
380	7.09e-08	2.13e-08
390	2.65e-07	8e-08
400	9.09e-07	2.73e-07
410	2.87e-06	8.6e-07
420	8.43e-06	2.53e-06
430	2.31e-05	6.9e-06
440	5.96e-05	1.79e-05
450	0.000145	4.4e-05
460	0.000335	0.000101
470	0.000735	0.000221
480	0.00154	0.00046
490	0.0031	0.00093
500	0.006	0.0018
510	0.0112	0.0034
520	0.0202	0.0061
530	0.0353	0.0106
540	0.0598	0.0179
550	0.0987	0.0296
560	0.159	0.048
570	0.25	0.075
580	0.383	0.115

System: octatriacontane; phases: Liquid, Gas
Property: Molar enthalpy of vaporization or sublimation, kJ/mol (Liquid); method: OTHER
Temperature, K	Molar enthalpy of vaporization or sublimation, kJ/mol	uncertainty
298.15	192.6	9.8

System: octatriacontane; phases: Liquid, Gas
Property: Vapor or sublimation pressure, kPa (Liquid); method: OTHER
Temperature, K	Vapor or sublimation pressure, kPa	uncertainty
298.15	5.13e-15	1.55e-15
310	9.81e-14	2.94e-14
320	9.59e-13	2.88e-13
330	7.88e-12	2.36e-12
340	5.54e-11	1.66e-11
350	3.38e-10	1.01e-10
360	1.81e-09	5.4e-10
370	8.6e-09	2.58e-09
380	3.67e-08	1.1e-08
390	1.42e-07	4.3e-08
400	5.03e-07	1.51e-07
410	1.64e-06	4.9e-07
420	4.95e-06	1.49e-06
430	1.39e-05	4.2e-06
440	3.68e-05	1.1e-05
450	9.16e-05	2.75e-05
460	0.000216	6.5e-05
470	0.000484	0.000145
480	0.00104	0.00031
490	0.00212	0.00064
500	0.00417	0.00125
510	0.00791	0.00237
520	0.0145	0.0044
530	0.0257	0.0077
540	0.0441	0.0132
550	0.0738	0.0221
560	0.12	0.036
570	0.191	0.057
580	0.296	0.089

System: 1,3,5-triphenylbenzene; phases: Crystal, Liquid, Gas
Property: Molar enthalpy of transition or fusion, kJ/mol (Crystal); method: DSC
Molar enthalpy of transition or fusion, kJ/mol	uncertainty
31.1	0.9
