Measured thermophysical data. Densities of Water + Diethanolamine + Methanol and Water + N-Methyldiethanolamine + Methanol at Temperatures Ranging from (283.15 to 353.15) K
Source: J. Chem. Eng. Data, 2003, 10.1021/je034094e
Compound 1: water, H2O, InChI=1S/H2O/h1H2
Compound 2: diethanolamine, C4H11NO2, InChI=1S/C4H11NO2/c6-3-1-5-2-4-7/h5-7H,1-4H2, purity 99%
Compound 3: N-methyldiethanolamine, C5H13NO2, InChI=1S/C5H13NO2/c1-6(2-4-7)3-5-8/h7-8H,2-5H2,1H3, purity 98%
Compound 4: methanol, CH4O, InChI=1S/CH4O/c1-2/h2H,1H3, purity 99.8%

System: methanol + diethanolamine + water; phases: Liquid
Fixed: Pressure, kPa = 101.3
Property: Mass density, kg/m3 (Liquid); method: VIBTUB:UFactor:64
Mass fraction of diethanolamine	Mass fraction of methanol	Temperature, K	Mass density, kg/m3	uncertainty
0.2	0.2	293.15	990	2
0.2	0.2	298.15	987	2
0.2	0.2	303.15	985	2
0.2	0.2	308.15	982	3
0.2	0.2	313.15	978	3
0.2	0.2	323.05	972	3
0.2	0.2	333.05	965	3
0.2	0.2	343.05	957	3
0.2	0.2	352.95	950	3
0.2	0.4	293.15	950	3
0.2	0.4	298.15	947	3
0.2	0.4	303.15	944	3
0.2	0.4	308.15	940	4
0.2	0.4	313.15	936	4
0.2	0.4	323.05	928	4
0.2	0.4	333.05	919	4
0.2	0.4	343.05	911	4
0.2	0.4	352.95	902	4
0.3	0.2	293.15	1001	2
0.3	0.2	298.15	998	2
0.3	0.2	303.15	995	2
0.3	0.2	308.15	992	2
0.3	0.2	313.15	988	2
0.3	0.2	323.05	981	3
0.3	0.2	333.05	973	3
0.3	0.2	343.05	966	3
0.3	0.2	352.95	958	3
0.3	0.3	293.15	980	3
0.3	0.3	298.15	977	3
0.3	0.3	303.15	974	3
0.3	0.3	308.15	971	3
0.3	0.3	313.15	966	3
0.3	0.3	323.05	958	3
0.3	0.3	333.05	950	3
0.3	0.3	343.05	942	3
0.3	0.3	352.95	934	4
0.3	0.5	293.15	931	4
0.3	0.5	298.15	928	4
0.3	0.5	303.15	924	4
0.3	0.5	308.15	920	4
0.3	0.5	313.15	916	4
0.3	0.5	323.05	907	4
0.3	0.5	333.05	898	5
0.3	0.5	343.05	892	5
0.3	0.5	352.95	883	5
0.3	0.6	293.15	903	4
0.3	0.6	298.15	900	5
0.3	0.6	303.15	895	5
0.3	0.6	308.15	892	5
0.3	0.6	313.15	887	5
0.3	0.6	323.05	879	5
0.3	0.6	333.05	869	5
0.3	0.6	343.05	861	6
0.3	0.6	352.95	851	6
0.4	0.4	293.15	962	3
0.4	0.4	298.15	958	3
0.4	0.4	303.15	954	3
0.4	0.4	308.15	951	3
0.4	0.4	313.15	947	3
0.4	0.4	323.05	938	4
0.4	0.4	333.05	929	4
0.4	0.4	343.05	921	4
0.4	0.4	352.95	912	4

System: methanol + diethanolamine + water; phases: Liquid
Fixed: Pressure, kPa = 101.3
Property: Mass density, kg/m3 (Liquid); method: Vibrating tube method
Mass fraction of diethanolamine	Mass fraction of methanol	Temperature, K	Mass density, kg/m3	uncertainty
0.301	0.199	278.15	1009.1	0.3
0.301	0.199	283.14	1006.4	0.3
0.301	0.199	288.14	1003.6	0.3
0.301	0.199	293.15	1000.7	0.3
0.301	0.199	298.15	997.8	0.3
0.301	0.199	303.14	994.7	0.3
0.301	0.199	308.14	991.6	0.3
0.301	0.199	313.15	988.4	0.3
0.301	0.199	318.15	985.1	0.3
0.301	0.199	323.15	981.8	0.3
0.301	0.199	328.14	978.3	0.3
0.301	0.199	333.15	974.8	0.3
0.301	0.199	338.14	971.2	0.3
0.301	0.199	343.15	967.4	0.3
0.301	0.199	348.15	963.6	0.3
0.301	0.199	353.15	959.7	0.3
0.301	0.199	358.14	955.7	0.3
0.4	0.2	278.15	1016.2	0.3
0.4	0.2	293.15	1010.1	0.3
0.4	0.2	303.15	1003.7	0.3
0.4	0.2	308.15	1000.4	0.3
0.4	0.2	323.15	990.1	0.3
0.4	0.2	328.15	986.5	0.3
0.4	0.2	333.15	982.9	0.3
0.4	0.2	338.15	979.2	0.3
0.4	0.2	343.15	975.4	0.3
0.4	0.2	348.15	971.5	0.3
0.4	0.2	353.15	967.6	0.3
0.401	0.397	278.15	973.6	0.3
0.401	0.397	283.15	970	0.3
0.401	0.397	288.18	966.4	0.3
0.401	0.397	293.15	962.8	0.3
0.401	0.397	298.15	959.1	0.4
0.401	0.397	303.15	955.4	0.3
0.401	0.397	308.15	951.7	0.3
0.401	0.397	313.15	947.9	0.3
0.401	0.397	323.15	940.1	0.3
0.401	0.397	338.15	928.1	0.3
0.401	0.397	343.15	923.9	0.3
0.401	0.397	353.15	915.5	0.3

System: methanol + N-methyldiethanolamine + water; phases: Liquid
Fixed: Pressure, kPa = 101.3
Property: Mass density, kg/m3 (Liquid); method: VIBTUB:UFactor:64
Mass fraction of N-methyldiethanolamine	Mass fraction of methanol	Temperature, K	Mass density, kg/m3	uncertainty
0.2	0.2	293.15	985	2
0.2	0.2	298.15	982	3
0.2	0.2	303.15	978	3
0.2	0.2	313.15	972	3
0.2	0.2	323.05	965	3
0.2	0.2	333.05	958	3
0.2	0.2	343.05	950	3
0.2	0.2	352.95	941	4
0.2	0.4	293.15	945	3
0.2	0.4	298.15	941	4
0.2	0.4	303.15	938	4
0.2	0.4	313.15	929	4
0.2	0.4	323.05	921	4
0.2	0.4	333.05	913	4
0.2	0.4	343.05	904	4
0.2	0.4	352.95	894	5
0.3	0.3	293.15	971	3
0.3	0.3	298.15	967	3
0.3	0.3	303.15	964	3
0.3	0.3	308.15	960	3
0.3	0.3	313.15	956	3
0.3	0.3	323.05	948	3
0.3	0.3	333.05	939	4
0.3	0.3	343.05	930	4
0.3	0.3	352.95	922	4
0.3	0.5	293.15	920	4
0.3	0.5	298.15	916	4
0.3	0.5	303.15	912	4
0.3	0.5	313.15	904	4
0.3	0.5	323.05	895	5
0.3	0.5	333.05	886	5
0.3	0.5	343.05	877	5
0.3	0.5	352.95	867	5
0.4	0.2	293.15	997	2
0.4	0.2	298.15	994	2
0.4	0.2	303.15	990	2
0.4	0.2	308.15	986	2
0.4	0.2	313.15	982	3
0.4	0.2	323.05	974	3
0.4	0.2	333.05	965	3
0.4	0.2	343.05	956	3
0.4	0.2	352.95	948	3
0.4	0.4	293.15	946	3
0.4	0.4	298.15	942	4
0.4	0.4	303.15	939	4
0.4	0.4	308.15	935	4
0.4	0.4	313.15	930	4
0.4	0.4	323.05	922	4
0.4	0.4	333.05	912	4
0.4	0.4	343.05	903	4
0.4	0.4	352.95	894	5

System: methanol + N-methyldiethanolamine + water; phases: Liquid
Fixed: Pressure, kPa = 101.3
Property: Mass density, kg/m3 (Liquid); method: Vibrating tube method
Mass fraction of N-methyldiethanolamine	Mass fraction of methanol	Temperature, K	Mass density, kg/m3	uncertainty
0.2	0.401	283.15	950.9	0.3
0.2	0.401	293.15	943	0.3
0.2	0.401	303.15	934.8	0.3
0.2	0.401	313.15	926.5	0.3
0.2	0.401	323.15	918	0.3
0.2	0.401	333.15	909.3	0.3
0.2	0.401	343.15	900.5	0.3
0.2	0.401	353.15	891.4	0.3
0.302	0.396	283.15	951.2	0.4
0.302	0.396	293.15	943.7	0.4
0.302	0.396	303.15	936.3	0.4
0.302	0.396	313.15	928.6	0.4
0.302	0.396	323.15	920.6	0.4
0.302	0.396	333.15	912.2	0.4
0.302	0.396	343.15	903.6	0.4
0.302	0.396	353.15	894.6	0.4
0.303	0.495	283.15	926	0.4
0.303	0.495	293.15	917.7	0.4
0.303	0.495	303.15	909.4	0.4
0.303	0.495	313.15	900.9	0.4
0.303	0.495	323.15	892.3	0.4
0.303	0.495	333.15	883.4	0.4
0.303	0.495	343.15	874.4	0.4
0.303	0.495	353.15	865.1	0.4
0.398	0.301	283.15	979.9	0.5
0.398	0.301	293.15	972.4	0.5
0.398	0.301	303.15	964.5	0.5
0.398	0.301	313.15	956.4	0.5
0.398	0.301	323.15	948.1	0.5
0.398	0.301	333.15	939.6	0.5
0.398	0.301	343.15	930.9	0.5
0.398	0.301	353.15	921.8	0.5
0.399	0.301	283.15	979.9	0.5
0.399	0.301	293.15	972.3	0.5
0.399	0.301	303.15	964.5	0.5
0.399	0.301	313.15	956.4	0.5
0.399	0.301	323.15	948.1	0.5
0.399	0.301	333.15	939.6	0.5
0.399	0.301	343.15	930.8	0.5
0.399	0.301	353.15	921.8	0.5
0.399	0.495	283.15	929.1	0.5
0.399	0.495	293.15	921.1	0.5
0.399	0.495	303.15	912.9	0.5
0.399	0.495	313.15	904.5	0.5
0.399	0.495	323.15	895.9	0.5
0.399	0.495	333.15	887.1	0.5
0.399	0.495	343.15	878	0.5
0.399	0.495	353.15	868.7	0.5
0.4	0.398	283.15	954.1	0.5
0.4	0.398	293.15	946.2	0.5
0.4	0.398	303.15	938.1	0.5
0.4	0.398	313.15	929.8	0.5
0.4	0.398	323.15	921.4	0.5
0.4	0.398	333.15	912.7	0.5
0.4	0.398	343.15	903.8	0.5
0.4	0.398	353.15	894.6	0.5
0.496	0.3	283.15	980.3	0.6
0.496	0.3	293.15	972.5	0.6
0.496	0.3	303.15	964.7	0.6
0.496	0.3	313.15	956.7	0.6
0.496	0.3	323.15	948.6	0.6
0.496	0.3	333.15	940.1	0.6
0.496	0.3	343.15	931.5	0.6
0.496	0.3	353.15	922.5	0.6
0.498	0.397	283.15	954.7	0.6
0.498	0.397	293.15	947	0.6
0.498	0.397	303.15	939.2	0.6
0.498	0.397	313.15	931.2	0.6
0.498	0.397	323.15	922.9	0.6
0.498	0.397	333.15	914.4	0.6
0.498	0.397	343.15	905.5	0.6
0.498	0.397	353.15	896.4	0.6
