Measured thermophysical data. Solid and Liquid Phase Equilibria in Mixtures of 1,8-Cineole with Phenol, Cyclohexanol, and an n-Alkanol
Source: J. Chem. Eng. Data, 2003, 10.1021/je034064b
Compound 1: 1,3,3-trimethyl-2-oxabicyclo[2.2.2]octane, C10H18O, InChI=1S/C10H18O/c1-9(2)8-4-6-10(3,11-9)7-5-8/h8H,4-7H2,1-3H3, purity 99%
Compound 2: phenol, C6H6O, InChI=1S/C6H6O/c7-6-4-2-1-3-5-6/h1-5,7H, purity 99.5%
Compound 3: cyclohexanol, C6H12O, InChI=1S/C6H12O/c7-6-4-2-1-3-5-6/h6-7H,1-5H2, purity 99.5%
Compound 4: methanol, CH4O, InChI=1S/CH4O/c1-2/h2H,1H3, purity 99.5%
Compound 5: ethanol, C2H6O, InChI=1S/C2H6O/c1-2-3/h3H,2H2,1H3, purity 99.5%
Compound 6: propan-1-ol, C3H8O, InChI=1S/C3H8O/c1-2-3-4/h4H,2-3H2,1H3, purity 99.5%
Compound 7: butan-1-ol, C4H10O, InChI=1S/C4H10O/c1-2-3-4-5/h5H,2-4H2,1H3, purity 99.5%

System: 1,3,3-trimethyl-2-oxabicyclo[2.2.2]octane; phases: Crystal, Liquid
Property: Solid-liquid equilibrium temperature, K (Crystal); method: VISOBS
Pressure, kPa	Solid-liquid equilibrium temperature, K	uncertainty
101.3	274.42	0.2

System: phenol; phases: Crystal, Liquid
Property: Solid-liquid equilibrium temperature, K (Crystal); method: VISOBS
Pressure, kPa	Solid-liquid equilibrium temperature, K	uncertainty
101.3	313.65	0.2

System: cyclohexanol; phases: Crystal, Liquid
Property: Solid-liquid equilibrium temperature, K (Crystal); method: VISOBS
Pressure, kPa	Solid-liquid equilibrium temperature, K	uncertainty
101.3	298.3	0.2

System: methanol; phases: Crystal, Liquid
Property: Solid-liquid equilibrium temperature, K (Crystal); method: VISOBS
Pressure, kPa	Solid-liquid equilibrium temperature, K	uncertainty
101.3	175.49	0.2

System: ethanol; phases: Crystal, Liquid
Property: Solid-liquid equilibrium temperature, K (Crystal); method: VISOBS
Pressure, kPa	Solid-liquid equilibrium temperature, K	uncertainty
101.3	159.12	0.2

System: propan-1-ol; phases: Crystal, Liquid
Property: Solid-liquid equilibrium temperature, K (Crystal); method: VISOBS
Pressure, kPa	Solid-liquid equilibrium temperature, K	uncertainty
101.3	147.09	0.2

System: butan-1-ol; phases: Crystal, Liquid
Property: Solid-liquid equilibrium temperature, K (Crystal); method: VISOBS
Pressure, kPa	Solid-liquid equilibrium temperature, K	uncertainty
101.3	184.43	0.2

System: phenol + 1,3,3-trimethyl-2-oxabicyclo[2.2.2]octane; phases: Crystal, Crystal of intercomponent compound 1, Liquid, Air at 1 atmosphere
Property: Eutectic temperature, K (Crystal); method: Derived from phase diagram analysis
Eutectic temperature, K	uncertainty
256	0.1

System: phenol + 1,3,3-trimethyl-2-oxabicyclo[2.2.2]octane; phases: Crystal of intercomponent compound 1, Crystal, Liquid, Air at 1 atmosphere
Property: Eutectic temperature, K (Crystal of intercomponent compound 1); method: Derived from phase diagram analysis
Eutectic temperature, K	uncertainty
244.6	0.1

System: phenol + 1,3,3-trimethyl-2-oxabicyclo[2.2.2]octane; phases: Crystal, Crystal of intercomponent compound 1, Liquid, Air at 1 atmosphere
Property: Eutectic composition: mole fraction of phenol (Crystal); method: Derived from phase diagram analysis
Eutectic composition: mole fraction of phenol	uncertainty
0.28	0.002

System: phenol + 1,3,3-trimethyl-2-oxabicyclo[2.2.2]octane; phases: Crystal of intercomponent compound 1, Crystal, Liquid, Air at 1 atmosphere
Property: Eutectic composition: mole fraction of phenol (Crystal of intercomponent compound 1); method: Derived from phase diagram analysis
Eutectic composition: mole fraction of phenol	uncertainty
0.625	0.003

System: phenol + 1,3,3-trimethyl-2-oxabicyclo[2.2.2]octane; phases: Liquid, Crystal
Fixed: Pressure, kPa = 101.3
Property: Solid-liquid equilibrium temperature, K (Liquid); method: VISOBS
Mole fraction of phenol	Solid-liquid equilibrium temperature, K	uncertainty
0.6504	252.51	0.2
0.7003	266.39	0.2
0.7496	278.35	0.2
0.7996	288.63	0.2
0.8497	297.12	0.2
0.8999	304.15	0.2
0.9499	309.4	0.2
1	313.65	0.2

System: phenol + 1,3,3-trimethyl-2-oxabicyclo[2.2.2]octane; phases: Liquid, Crystal of intercomponent compound 1
Fixed: Pressure, kPa = 101.3
Property: Solid-liquid equilibrium temperature, K (Liquid); method: VISOBS
Mole fraction of phenol	Solid-liquid equilibrium temperature, K	uncertainty
0.3002	258.01	0.2
0.3505	262.71	0.2
0.3996	266.83	0.2
0.4498	269.73	0.2
0.5002	270.44	0.2
0.5499	266.49	0.2
0.5998	254.98	0.2

System: phenol + 1,3,3-trimethyl-2-oxabicyclo[2.2.2]octane; phases: Liquid, Crystal
Fixed: Pressure, kPa = 101.3
Property: Solid-liquid equilibrium temperature, K (Liquid); method: VISOBS
Mole fraction of phenol	Solid-liquid equilibrium temperature, K	uncertainty
0	274.42	0.2
0.0504	271.63	0.2
0.0998	268.68	0.2
0.1497	265.49	0.2
0.2002	262.13	0.2
0.2497	258.37	0.2

System: cyclohexanol + 1,3,3-trimethyl-2-oxabicyclo[2.2.2]octane; phases: Crystal, Crystal of intercomponent compound 1, Liquid, Air at 1 atmosphere
Property: Eutectic temperature, K (Crystal); method: Derived from phase diagram analysis
Eutectic temperature, K	uncertainty
249	0.1

System: cyclohexanol + 1,3,3-trimethyl-2-oxabicyclo[2.2.2]octane; phases: Crystal of intercomponent compound 1, Crystal, Liquid, Air at 1 atmosphere
Property: Eutectic temperature, K (Crystal of intercomponent compound 1); method: Derived from phase diagram analysis
Eutectic temperature, K	uncertainty
222.2	0.1

System: cyclohexanol + 1,3,3-trimethyl-2-oxabicyclo[2.2.2]octane; phases: Crystal, Crystal of intercomponent compound 1, Liquid, Air at 1 atmosphere
Property: Eutectic composition: mole fraction of cyclohexanol (Crystal); method: Derived from phase diagram analysis
Eutectic composition: mole fraction of cyclohexanol	uncertainty
0.442	0.003

System: cyclohexanol + 1,3,3-trimethyl-2-oxabicyclo[2.2.2]octane; phases: Crystal of intercomponent compound 1, Crystal, Liquid, Air at 1 atmosphere
Property: Eutectic composition: mole fraction of cyclohexanol (Crystal of intercomponent compound 1); method: Derived from phase diagram analysis
Eutectic composition: mole fraction of cyclohexanol	uncertainty
0.756	0.002

System: cyclohexanol + 1,3,3-trimethyl-2-oxabicyclo[2.2.2]octane; phases: Liquid, Crystal
Fixed: Pressure, kPa = 101.3
Property: Solid-liquid equilibrium temperature, K (Liquid); method: VISOBS
Mole fraction of cyclohexanol	Solid-liquid equilibrium temperature, K	uncertainty
0.7675	227.05	0.2
0.7995	239.76	0.2
0.8497	257.71	0.2
0.9001	273.18	0.2
0.9499	286.34	0.2
1	298.3	0.2

System: cyclohexanol + 1,3,3-trimethyl-2-oxabicyclo[2.2.2]octane; phases: Liquid, Crystal of intercomponent compound 1
Fixed: Pressure, kPa = 101.3
Property: Solid-liquid equilibrium temperature, K (Liquid); method: VISOBS
Mole fraction of cyclohexanol	Solid-liquid equilibrium temperature, K	uncertainty
0.4496	252	0.2
0.47	255.5	0.2
0.4999	257.33	0.2
0.54	255.5	0.2
0.5503	254.68	0.2
0.6005	248.98	0.2
0.6502	241.67	0.2
0.7	232.95	0.2
0.749	223.47	0.2

System: cyclohexanol + 1,3,3-trimethyl-2-oxabicyclo[2.2.2]octane; phases: Liquid, Crystal
Fixed: Pressure, kPa = 101.3
Property: Solid-liquid equilibrium temperature, K (Liquid); method: VISOBS
Mole fraction of cyclohexanol	Solid-liquid equilibrium temperature, K	uncertainty
0	274.42	0.2
0.0504	272.73	0.2
0.1002	271.07	0.2
0.1507	269.11	0.2
0.2002	266.71	0.2
0.2503	264.06	0.2
0.3024	260.78	0.2
0.3498	257.45	0.2
0.4003	253.5	0.2

System: methanol + 1,3,3-trimethyl-2-oxabicyclo[2.2.2]octane; phases: Crystal, Crystal, Liquid, Air at 1 atmosphere
Property: Eutectic temperature, K (Crystal); method: Derived from phase diagram analysis
Eutectic temperature, K	uncertainty
175.5	0.1

System: methanol + 1,3,3-trimethyl-2-oxabicyclo[2.2.2]octane; phases: Crystal, Crystal, Liquid, Air at 1 atmosphere
Property: Eutectic composition: mole fraction of methanol (Crystal); method: Derived from phase diagram analysis
Eutectic composition: mole fraction of methanol	uncertainty
0.995	0.001

System: methanol + 1,3,3-trimethyl-2-oxabicyclo[2.2.2]octane; phases: Liquid, Crystal
Fixed: Pressure, kPa = 101.3
Property: Solid-liquid equilibrium temperature, K (Liquid); method: VISOBS
Mole fraction of methanol	Solid-liquid equilibrium temperature, K	uncertainty
0	274.42	0.2
0.0512	271.9	0.2
0.105	270.17	0.2
0.1512	268.98	0.2
0.2063	267.59	0.2
0.2532	266.28	0.2
0.3172	264.15	0.2
0.3568	262.76	0.2
0.4026	261.03	0.2
0.4519	259.32	0.2
0.5017	257.74	0.2
0.5515	256.42	0.2
0.6017	255.29	0.2
0.6513	254.11	0.2
0.7004	252.46	0.2
0.7447	250.01	0.2
0.8003	244.59	0.2
0.8501	236.12	0.2
0.9	222.51	0.2
0.95	201.65	0.2
0.9701	190.56	0.2

System: methanol + 1,3,3-trimethyl-2-oxabicyclo[2.2.2]octane; phases: Liquid, Crystal
Property: Solid-liquid equilibrium temperature, K (Liquid); method: VISOBS
Mole fraction of methanol	Pressure, kPa	Solid-liquid equilibrium temperature, K	uncertainty
1	101.3	175.49	0.2

System: ethanol + 1,3,3-trimethyl-2-oxabicyclo[2.2.2]octane; phases: Crystal, Crystal, Liquid, Air at 1 atmosphere
Property: Eutectic temperature, K (Crystal); method: Derived from phase diagram analysis
Eutectic temperature, K	uncertainty
159.1	0.1

System: ethanol + 1,3,3-trimethyl-2-oxabicyclo[2.2.2]octane; phases: Crystal, Crystal, Liquid, Air at 1 atmosphere
Property: Eutectic composition: mole fraction of ethanol (Crystal); method: Derived from phase diagram analysis
Eutectic composition: mole fraction of ethanol	uncertainty
0.999	0.001

System: ethanol + 1,3,3-trimethyl-2-oxabicyclo[2.2.2]octane; phases: Liquid, Crystal
Fixed: Pressure, kPa = 101.3
Property: Solid-liquid equilibrium temperature, K (Liquid); method: VISOBS
Mole fraction of ethanol	Solid-liquid equilibrium temperature, K	uncertainty
0	274.42	0.2
0.0507	272.02	0.2
0.1019	270.5	0.2
0.1531	269.3	0.2
0.2082	267.88	0.2
0.2601	266.4	0.2
0.3063	264.88	0.2
0.3511	263.27	0.2
0.4019	261.47	0.2
0.4541	259.85	0.2
0.5008	258.59	0.2
0.5546	257.72	0.2
0.5994	257.16	0.2
0.6509	256.41	0.2
0.7002	255.22	0.2
0.7514	252.43	0.2
0.8011	246.96	0.2
0.8502	237.37	0.2
0.9002	221.18	0.2
0.9498	196.26	0.2
0.9748	179.34	0.2

System: ethanol + 1,3,3-trimethyl-2-oxabicyclo[2.2.2]octane; phases: Liquid, Crystal
Property: Solid-liquid equilibrium temperature, K (Liquid); method: VISOBS
Mole fraction of ethanol	Pressure, kPa	Solid-liquid equilibrium temperature, K	uncertainty
1	101.3	159.12	0.2

System: propan-1-ol + 1,3,3-trimethyl-2-oxabicyclo[2.2.2]octane; phases: Crystal, Crystal, Liquid, Air at 1 atmosphere
Property: Eutectic temperature, K (Crystal); method: Derived from phase diagram analysis
Eutectic temperature, K	uncertainty
147.1	0.1

System: propan-1-ol + 1,3,3-trimethyl-2-oxabicyclo[2.2.2]octane; phases: Crystal, Crystal, Liquid, Air at 1 atmosphere
Property: Eutectic composition: mole fraction of propan-1-ol (Crystal); method: Derived from phase diagram analysis
Eutectic composition: mole fraction of propan-1-ol	uncertainty
0.999	0.001

System: propan-1-ol + 1,3,3-trimethyl-2-oxabicyclo[2.2.2]octane; phases: Liquid, Crystal
Fixed: Pressure, kPa = 101.3
Property: Solid-liquid equilibrium temperature, K (Liquid); method: VISOBS
Mole fraction of propan-1-ol	Solid-liquid equilibrium temperature, K	uncertainty
0	274.42	0.2
0.0529	271.91	0.2
0.1017	270.34	0.2
0.1521	268.93	0.2
0.2007	267.56	0.2
0.251	266.02	0.2
0.3027	264.01	0.2
0.3525	261.88	0.2
0.4018	259.7	0.2
0.4516	257.52	0.2
0.501	255.6	0.2
0.5414	254.21	0.2
0.6009	252.32	0.2
0.6498	250.62	0.2
0.7002	248.11	0.2
0.7513	244.01	0.2
0.8001	237.34	0.2
0.8504	226.22	0.2
0.9	209.01	0.2
0.9501	182.9	0.2
0.9739	166.65	0.2

System: propan-1-ol + 1,3,3-trimethyl-2-oxabicyclo[2.2.2]octane; phases: Liquid, Crystal
Property: Solid-liquid equilibrium temperature, K (Liquid); method: VISOBS
Mole fraction of propan-1-ol	Pressure, kPa	Solid-liquid equilibrium temperature, K	uncertainty
1	101.3	147.09	0.2

System: butan-1-ol + 1,3,3-trimethyl-2-oxabicyclo[2.2.2]octane; phases: Crystal, Crystal, Liquid, Air at 1 atmosphere
Property: Eutectic temperature, K (Crystal); method: Derived from phase diagram analysis
Eutectic temperature, K	uncertainty
184.4	0.1

System: butan-1-ol + 1,3,3-trimethyl-2-oxabicyclo[2.2.2]octane; phases: Crystal, Crystal, Liquid, Air at 1 atmosphere
Property: Eutectic composition: mole fraction of butan-1-ol (Crystal); method: Derived from phase diagram analysis
Eutectic composition: mole fraction of butan-1-ol	uncertainty
0.987	0.001

System: butan-1-ol + 1,3,3-trimethyl-2-oxabicyclo[2.2.2]octane; phases: Liquid, Crystal
Fixed: Pressure, kPa = 101.3
Property: Solid-liquid equilibrium temperature, K (Liquid); method: VISOBS
Mole fraction of butan-1-ol	Solid-liquid equilibrium temperature, K	uncertainty
0	274.42	0.2
0.0592	271.67	0.2
0.1028	270.15	0.2
0.1531	268.62	0.2
0.2011	267.06	0.2
0.2508	265.44	0.2
0.3035	263.63	0.2
0.3517	261.71	0.2
0.4017	259.64	0.2
0.4508	257.64	0.2
0.5011	255.47	0.2
0.5513	253.27	0.2
0.6002	251	0.2
0.6506	248.26	0.2
0.7006	245.01	0.2
0.7505	240.61	0.2
0.7982	234.71	0.2
0.8504	225.61	0.2
0.8998	213.19	0.2
0.9483	196.2	0.2

System: butan-1-ol + 1,3,3-trimethyl-2-oxabicyclo[2.2.2]octane; phases: Liquid, Crystal
Property: Solid-liquid equilibrium temperature, K (Liquid); method: VISOBS
Mole fraction of butan-1-ol	Pressure, kPa	Solid-liquid equilibrium temperature, K	uncertainty
1	101.3	184.43	0.2
