Measured thermophysical data. Viscosities of Binary Mixtures of Isomeric Butanols or Isomeric Chlorobutanes with 2-Methyltetrahydrofuran
Source: J. Chem. Eng. Data, 2003, 10.1021/je030167i
Compound 1: butan-1-ol, C4H10O, InChI=1S/C4H10O/c1-2-3-4-5/h5H,2-4H2,1H3, purity 99.8%
Compound 2: butan-2-ol, C4H10O, InChI=1S/C4H10O/c1-3-4(2)5/h4-5H,3H2,1-2H3, purity 99%
Compound 3: 2-methyl-1-propanol, C4H10O, InChI=1S/C4H10O/c1-4(2)3-5/h4-5H,3H2,1-2H3, purity 99.5%
Compound 4: 2-methylpropan-2-ol, C4H10O, InChI=1S/C4H10O/c1-4(2,3)5/h5H,1-3H3, purity 99.5%
Compound 5: 1-chlorobutane, C4H9Cl, InChI=1S/C4H9Cl/c1-2-3-4-5/h2-4H2,1H3, purity 99.5%
Compound 6: 2-chlorobutane, C4H9Cl, InChI=1S/C4H9Cl/c1-3-4(2)5/h4H,3H2,1-2H3, purity 99%
Compound 7: 1-chloro-2-methylpropane, C4H9Cl, InChI=1S/C4H9Cl/c1-4(2)3-5/h4H,3H2,1-2H3, purity 99%
Compound 8: 2-chloro-2-methylpropane, C4H9Cl, InChI=1S/C4H9Cl/c1-4(2,3)5/h1-3H3, purity 99%
Compound 9: 2-methyltetrahydrofuran, C5H10O, InChI=1S/C5H10O/c1-5-3-2-4-6-5/h5H,2-4H2,1H3, purity 99%

System: butan-1-ol; phases: Liquid
Fixed: Pressure, kPa = 101.3
Property: Kinematic viscosity, m2/s (Liquid); method: CAPTUB::UFactor:4
Temperature, K	Kinematic viscosity, m2/s	uncertainty
298.15	3.1928e-06	9.27e-08
313.15	2.2249e-06	6.68e-08

System: butan-1-ol; phases: Liquid
Fixed: Pressure, kPa = 101.3
Property: Mass density, kg/m3 (Liquid); method: VIBTUB::UFactor:2
Temperature, K	Mass density, kg/m3	uncertainty
298.15	805.56	0.29
313.15	794.19	0.3

System: butan-2-ol; phases: Liquid
Fixed: Pressure, kPa = 101.3
Property: Kinematic viscosity, m2/s (Liquid); method: CAPTUB::UFactor:4
Temperature, K	Kinematic viscosity, m2/s	uncertainty
298.15	3.7345e-06	1.098e-07
313.15	2.2383e-06	6.97e-08

System: butan-2-ol; phases: Liquid
Fixed: Pressure, kPa = 101.3
Property: Mass density, kg/m3 (Liquid); method: VIBTUB::UFactor:2
Temperature, K	Mass density, kg/m3	uncertainty
298.15	802.25	0.49
313.15	789.44	0.5

System: 2-methyl-1-propanol; phases: Liquid
Fixed: Pressure, kPa = 101.3
Property: Kinematic viscosity, m2/s (Liquid); method: CAPTUB::UFactor:4
Temperature, K	Kinematic viscosity, m2/s	uncertainty
298.15	4.2484e-06	1.222e-07
313.15	2.7383e-06	8.23e-08

System: 2-methyl-1-propanol; phases: Liquid
Fixed: Pressure, kPa = 101.3
Property: Mass density, kg/m3 (Liquid); method: VIBTUB::UFactor:2
Temperature, K	Mass density, kg/m3	uncertainty
298.15	797.71	0.35
313.15	785.89	0.36

System: 2-methylpropan-2-ol; phases: Liquid
Fixed: Pressure, kPa = 101.3
Property: Kinematic viscosity, m2/s (Liquid); method: CAPTUB::UFactor:4
Temperature, K	Kinematic viscosity, m2/s	uncertainty
298.15	5.5926e-06	1.572e-07
313.15	2.7387e-06	8.84e-08

System: 2-methylpropan-2-ol; phases: Liquid
Fixed: Pressure, kPa = 101.3
Property: Mass density, kg/m3 (Liquid); method: VIBTUB::UFactor:2
Temperature, K	Mass density, kg/m3	uncertainty
298.15	780.67	0.36
313.15	765.33	0.37

System: 1-chlorobutane; phases: Liquid
Fixed: Pressure, kPa = 101.3
Property: Kinematic viscosity, m2/s (Liquid); method: CAPTUB::UFactor:4
Temperature, K	Kinematic viscosity, m2/s	uncertainty
298.15	4.783e-07	1.74e-08
313.15	4.209e-07	1.58e-08

System: 1-chlorobutane; phases: Liquid
Fixed: Pressure, kPa = 101.3
Property: Mass density, kg/m3 (Liquid); method: VIBTUB::UFactor:2
Temperature, K	Mass density, kg/m3	uncertainty
298.15	880.62	0.3
313.15	863.86	0.31

System: 2-chlorobutane; phases: Liquid
Fixed: Pressure, kPa = 101.3
Property: Kinematic viscosity, m2/s (Liquid); method: CAPTUB::UFactor:4
Temperature, K	Kinematic viscosity, m2/s	uncertainty
298.15	4.537e-07	1.68e-08
313.15	3.966e-07	1.52e-08

System: 2-chlorobutane; phases: Liquid
Fixed: Pressure, kPa = 101.3
Property: Mass density, kg/m3 (Liquid); method: VIBTUB::UFactor:2
Temperature, K	Mass density, kg/m3	uncertainty
298.15	867.31	0.49
313.15	850.23	0.49

System: 1-chloro-2-methylpropane; phases: Liquid
Fixed: Pressure, kPa = 101.3
Property: Kinematic viscosity, m2/s (Liquid); method: CAPTUB::UFactor:4
Temperature, K	Kinematic viscosity, m2/s	uncertainty
298.15	4.92e-07	1.79e-08
313.15	4.287e-07	1.61e-08

System: 1-chloro-2-methylpropane; phases: Liquid
Fixed: Pressure, kPa = 101.3
Property: Mass density, kg/m3 (Liquid); method: VIBTUB::UFactor:2
Temperature, K	Mass density, kg/m3	uncertainty
298.15	870.93	0.49
313.15	853.51	0.49

System: 2-chloro-2-methylpropane; phases: Liquid
Property: Kinematic viscosity, m2/s (Liquid); method: CAPTUB::UFactor:2
Temperature, K	Pressure, kPa	Kinematic viscosity, m2/s	uncertainty
298.15	101.3	5.656e-07	1.04e-08

System: 2-chloro-2-methylpropane; phases: Liquid
Property: Mass density, kg/m3 (Liquid); method: VIBTUB::UFactor:2
Temperature, K	Pressure, kPa	Mass density, kg/m3	uncertainty
298.15	101.3	835.75	0.49

System: 2-methyltetrahydrofuran; phases: Liquid
Fixed: Pressure, kPa = 101.3
Property: Kinematic viscosity, m2/s (Liquid); method: CAPTUB::UFactor:4
Temperature, K	Kinematic viscosity, m2/s	uncertainty
298.15	5.593e-07	1.98e-08
313.15	4.916e-07	1.79e-08

System: 2-methyltetrahydrofuran; phases: Liquid
Fixed: Pressure, kPa = 101.3
Property: Mass density, kg/m3 (Liquid); method: VIBTUB::UFactor:2
Temperature, K	Mass density, kg/m3	uncertainty
298.15	849.28	0.49
313.15	834.01	0.49

System: butan-1-ol + 2-methyltetrahydrofuran; phases: Liquid
Fixed: Pressure, kPa = 101.3
Property: Kinematic viscosity, m2/s (Liquid); method: CAPTUB:UFactor:4
Temperature, K	Mole fraction of butan-1-ol	Kinematic viscosity, m2/s	uncertainty
298.15	0	5.593e-07	1.98e-08
298.15	0.0488	5.913e-07	2.07e-08
298.15	0.1039	6.216e-07	2.16e-08
298.15	0.205	6.927e-07	2.35e-08
298.15	0.3006	7.699e-07	2.57e-08
298.15	0.4051	8.806e-07	2.88e-08
298.15	0.5099	1.0508e-06	3.35e-08
298.15	0.6036	1.2082e-06	3.79e-08
298.15	0.7034	1.4661e-06	4.51e-08
298.15	0.8042	1.8409e-06	5.55e-08
298.15	0.906	2.4024e-06	7.1e-08
298.15	0.9582	2.7999e-06	8.2e-08
298.15	1	3.1928e-06	9.27e-08
313.15	0	4.916e-07	1.79e-08
313.15	0.0488	5.106e-07	1.85e-08
313.15	0.1039	5.345e-07	1.91e-08
313.15	0.205	5.881e-07	2.06e-08
313.15	0.3006	6.515e-07	2.24e-08
313.15	0.4051	7.339e-07	2.47e-08
313.15	0.5099	8.412e-07	2.77e-08
313.15	0.6036	9.695e-07	3.12e-08
313.15	0.7034	1.1555e-06	3.64e-08
313.15	0.8042	1.3925e-06	4.31e-08
313.15	0.906	1.7561e-06	5.34e-08
313.15	0.9582	1.9934e-06	6.02e-08
313.15	1	2.2249e-06	6.68e-08

System: butan-1-ol + 2-methyltetrahydrofuran; phases: Liquid
Fixed: Pressure, kPa = 101.3
Property: Mass density, kg/m3 (Liquid); method: VIBTUB:UFactor:2
Temperature, K	Mole fraction of butan-1-ol	Mass density, kg/m3	uncertainty
298.15	0	849.28	0.49
298.15	0.0488	847.62	0.48
298.15	0.1039	845.56	0.46
298.15	0.205	841.78	0.43
298.15	0.3006	838.03	0.41
298.15	0.4051	833.86	0.38
298.15	0.5099	829.37	0.36
298.15	0.6036	825.28	0.34
298.15	0.7034	820.68	0.32
298.15	0.8042	815.8	0.31
298.15	0.906	810.56	0.3
298.15	0.9582	807.81	0.29
298.15	1	805.56	0.29
313.15	0	834.01	0.49
313.15	0.0488	832.35	0.48
313.15	0.1039	830.5	0.46
313.15	0.205	827.07	0.43
313.15	0.3006	823.64	0.41
313.15	0.4051	820	0.39
313.15	0.5099	815.98	0.36
313.15	0.6036	812.07	0.35
313.15	0.7034	807.96	0.33
313.15	0.8042	803.45	0.32
313.15	0.906	798.76	0.31
313.15	0.9582	796.23	0.3
313.15	1	794.19	0.3

System: butan-2-ol + 2-methyltetrahydrofuran; phases: Liquid
Fixed: Pressure, kPa = 101.3
Property: Kinematic viscosity, m2/s (Liquid); method: CAPTUB:UFactor:4
Temperature, K	Mole fraction of butan-2-ol	Kinematic viscosity, m2/s	uncertainty
298.15	0	5.593e-07	1.98e-08
298.15	0.0437	5.664e-07	2e-08
298.15	0.0915	6.07e-07	2.12e-08
298.15	0.1968	6.452e-07	2.23e-08
298.15	0.3024	7.162e-07	2.43e-08
298.15	0.3993	8.061e-07	2.69e-08
298.15	0.5051	9.497e-07	3.09e-08
298.15	0.6018	1.112e-06	3.56e-08
298.15	0.6999	1.3928e-06	4.36e-08
298.15	0.8077	1.8597e-06	5.68e-08
298.15	0.8708	2.2624e-06	6.83e-08
298.15	0.9361	2.898e-06	8.63e-08
298.15	1	3.7345e-06	1.098e-07
313.15	0	4.916e-07	1.79e-08
313.15	0.0437	4.909e-07	1.79e-08
313.15	0.0915	5.061e-07	1.84e-08
313.15	0.1968	5.543e-07	1.97e-08
313.15	0.3024	6.045e-07	2.11e-08
313.15	0.3993	6.705e-07	2.3e-08
313.15	0.5051	7.712e-07	2.59e-08
313.15	0.6018	8.777e-07	2.89e-08
313.15	0.6999	1.0525e-06	3.4e-08
313.15	0.8077	1.3404e-06	4.23e-08
313.15	0.8708	1.5651e-06	4.89e-08
313.15	0.9361	1.8563e-06	5.78e-08
313.15	1	2.2383e-06	6.97e-08

System: butan-2-ol + 2-methyltetrahydrofuran; phases: Liquid
Fixed: Pressure, kPa = 101.3
Property: Mass density, kg/m3 (Liquid); method: VIBTUB:UFactor:2
Temperature, K	Mole fraction of butan-2-ol	Mass density, kg/m3	uncertainty
298.15	0	849.28	0.49
298.15	0.0437	847.1	0.49
298.15	0.0915	844.81	0.49
298.15	0.1968	839.74	0.49
298.15	0.3024	834.82	0.49
298.15	0.3993	830.17	0.49
298.15	0.5051	825.31	0.49
298.15	0.6018	820.77	0.49
298.15	0.6999	816.27	0.49
298.15	0.8077	811.31	0.49
298.15	0.8708	808.35	0.49
298.15	0.9361	805.28	0.49
298.15	1	802.25	0.49
313.15	0	834.01	0.49
313.15	0.0437	831.74	0.49
313.15	0.0915	829.48	0.49
313.15	0.1968	824.64	0.49
313.15	0.3024	820.02	0.49
313.15	0.3993	815.81	0.49
313.15	0.5051	811.2	0.49
313.15	0.6018	806.88	0.49
313.15	0.6999	802.66	0.49
313.15	0.8077	797.97	0.49
313.15	0.8708	795.28	0.5
313.15	0.9361	792.38	0.5
313.15	1	789.44	0.5

System: 2-methyl-1-propanol + 2-methyltetrahydrofuran; phases: Liquid
Fixed: Pressure, kPa = 101.3
Property: Kinematic viscosity, m2/s (Liquid); method: CAPTUB:UFactor:4
Temperature, K	Mole fraction of 2-methyl-1-propanol	Kinematic viscosity, m2/s	uncertainty
298.15	0	5.593e-07	1.98e-08
298.15	0.0397	5.85e-07	2.06e-08
298.15	0.0951	6.173e-07	2.15e-08
298.15	0.1999	6.872e-07	2.34e-08
298.15	0.3008	7.773e-07	2.59e-08
298.15	0.3982	8.961e-07	2.93e-08
298.15	0.4988	1.0403e-06	3.33e-08
298.15	0.5992	1.2569e-06	3.94e-08
298.15	0.7013	1.5836e-06	4.86e-08
298.15	0.7995	2.0619e-06	6.2e-08
298.15	0.9048	2.9259e-06	8.6e-08
298.15	0.9557	3.546e-06	1.03e-07
298.15	1	4.2484e-06	1.222e-07
313.15	0	4.916e-07	1.79e-08
313.15	0.0397	5.064e-07	1.83e-08
313.15	0.0951	5.312e-07	1.9e-08
313.15	0.1999	5.877e-07	2.06e-08
313.15	0.3008	6.543e-07	2.25e-08
313.15	0.3982	7.473e-07	2.51e-08
313.15	0.4988	8.466e-07	2.79e-08
313.15	0.5992	9.964e-07	3.21e-08
313.15	0.7013	1.2155e-06	3.83e-08
313.15	0.7995	1.5132e-06	4.67e-08
313.15	0.9048	2.022e-06	6.13e-08
313.15	0.9557	2.3621e-06	7.12e-08
313.15	1	2.7383e-06	8.23e-08

System: 2-methyl-1-propanol + 2-methyltetrahydrofuran; phases: Liquid
Fixed: Pressure, kPa = 101.3
Property: Mass density, kg/m3 (Liquid); method: VIBTUB:UFactor:2
Temperature, K	Mole fraction of 2-methyl-1-propanol	Mass density, kg/m3	uncertainty
298.15	0	849.28	0.49
298.15	0.0397	847.52	0.48
298.15	0.0951	844.97	0.47
298.15	0.1999	840.08	0.45
298.15	0.3008	835.46	0.44
298.15	0.3982	830.71	0.42
298.15	0.4988	825.72	0.41
298.15	0.5992	820.51	0.39
298.15	0.7013	815.04	0.38
298.15	0.7995	809.54	0.37
298.15	0.9048	803.45	0.36
298.15	0.9557	800.39	0.35
298.15	1	797.71	0.35
313.15	0	834.01	0.49
313.15	0.0397	832.15	0.48
313.15	0.0951	829.82	0.47
313.15	0.1999	825.25	0.46
313.15	0.3008	820.88	0.44
313.15	0.3982	816.54	0.43
313.15	0.4988	811.84	0.41
313.15	0.5992	807.01	0.4
313.15	0.7013	801.97	0.39
313.15	0.7995	796.99	0.38
313.15	0.9048	791.39	0.37
313.15	0.9557	788.49	0.36
313.15	1	785.89	0.36

System: 2-methylpropan-2-ol + 2-methyltetrahydrofuran; phases: Liquid
Fixed: Pressure, kPa = 101.3
Property: Kinematic viscosity, m2/s (Liquid); method: CAPTUB:UFactor:4
Temperature, K	Mole fraction of 2-methylpropan-2-ol	Kinematic viscosity, m2/s	uncertainty
298.15	0	5.593e-07	1.98e-08
298.15	0.038	5.808e-07	2.04e-08
298.15	0.0906	6.072e-07	2.12e-08
298.15	0.191	6.72e-07	2.3e-08
298.15	0.3192	7.785e-07	2.6e-08
298.15	0.3935	8.656e-07	2.84e-08
298.15	0.4981	1.0312e-06	3.31e-08
298.15	0.5918	1.2469e-06	3.92e-08
298.15	0.6972	1.666e-06	5.1e-08
298.15	0.7952	2.1969e-06	6.62e-08
298.15	0.8989	3.3357e-06	9.83e-08
298.15	0.9532	4.3728e-06	1.272e-07
298.15	1	5.5926e-06	1.572e-07
313.15	0	4.916e-07	1.79e-08
313.15	0.038	5.036e-07	1.83e-08
313.15	0.0906	5.271e-07	1.89e-08
313.15	0.191	5.726e-07	2.02e-08
313.15	0.3192	6.489e-07	2.23e-08
313.15	0.3935	7.058e-07	2.39e-08
313.15	0.4981	8.153e-07	2.7e-08
313.15	0.5918	9.492e-07	3.08e-08
313.15	0.6972	1.1675e-06	3.72e-08
313.15	0.7952	1.4695e-06	4.59e-08
313.15	0.8989	1.9695e-06	6.13e-08
313.15	0.9532	2.3493e-06	7.41e-08
313.15	1	2.7387e-06	8.84e-08

System: 2-methylpropan-2-ol + 2-methyltetrahydrofuran; phases: Liquid
Fixed: Pressure, kPa = 101.3
Property: Mass density, kg/m3 (Liquid); method: VIBTUB:UFactor:2
Temperature, K	Mole fraction of 2-methylpropan-2-ol	Mass density, kg/m3	uncertainty
298.15	0	849.28	0.49
298.15	0.038	846.42	0.48
298.15	0.0906	842.39	0.47
298.15	0.191	835.27	0.46
298.15	0.3192	826.46	0.44
298.15	0.3935	821.4	0.43
298.15	0.4981	814.49	0.41
298.15	0.5918	808.4	0.4
298.15	0.6972	801.38	0.39
298.15	0.7952	795.17	0.38
298.15	0.8989	788.08	0.37
298.15	0.9532	784.19	0.37
298.15	1	780.67	0.36
313.15	0	834.01	0.49
313.15	0.038	831.02	0.48
313.15	0.0906	826.98	0.48
313.15	0.191	819.77	0.46
313.15	0.3192	811.22	0.44
313.15	0.3935	806.46	0.43
313.15	0.4981	799.58	0.42
313.15	0.5918	793.51	0.41
313.15	0.6972	786.72	0.4
313.15	0.7952	780.27	0.39
313.15	0.8989	773.14	0.38
313.15	0.9532	769.08	0.38
313.15	1	765.33	0.37

System: 2-methyltetrahydrofuran + 1-chlorobutane; phases: Liquid
Fixed: Pressure, kPa = 101.3
Property: Kinematic viscosity, m2/s (Liquid); method: CAPTUB:UFactor:4
Temperature, K	Mole fraction of 1-chlorobutane	Kinematic viscosity, m2/s	uncertainty
298.15	0	5.593e-07	1.98e-08
298.15	0.0494	5.556e-07	1.97e-08
298.15	0.1008	5.516e-07	1.96e-08
298.15	0.203	5.432e-07	1.93e-08
298.15	0.3004	5.348e-07	1.91e-08
298.15	0.3963	5.267e-07	1.88e-08
298.15	0.4969	5.181e-07	1.86e-08
298.15	0.5976	5.095e-07	1.83e-08
298.15	0.6993	5.012e-07	1.81e-08
298.15	0.7993	4.932e-07	1.78e-08
298.15	0.8988	4.853e-07	1.76e-08
298.15	0.9483	4.819e-07	1.75e-08
298.15	1	4.783e-07	1.74e-08
313.15	0	4.916e-07	1.79e-08
313.15	0.0494	4.881e-07	1.78e-08
313.15	0.1008	4.846e-07	1.77e-08
313.15	0.203	4.778e-07	1.75e-08
313.15	0.3004	4.71e-07	1.73e-08
313.15	0.3963	4.639e-07	1.71e-08
313.15	0.4969	4.564e-07	1.69e-08
313.15	0.5976	4.489e-07	1.66e-08
313.15	0.6993	4.414e-07	1.64e-08
313.15	0.7993	4.342e-07	1.62e-08
313.15	0.8988	4.275e-07	1.6e-08
313.15	0.9483	4.242e-07	1.59e-08
313.15	1	4.209e-07	1.58e-08

System: 2-methyltetrahydrofuran + 1-chlorobutane; phases: Liquid
Fixed: Pressure, kPa = 101.3
Property: Mass density, kg/m3 (Liquid); method: VIBTUB:UFactor:2
Temperature, K	Mole fraction of 1-chlorobutane	Mass density, kg/m3	uncertainty
298.15	0	849.28	0.49
298.15	0.0494	850.97	0.48
298.15	0.1008	852.97	0.47
298.15	0.203	856.41	0.45
298.15	0.3004	859.76	0.43
298.15	0.3963	862.73	0.41
298.15	0.4969	865.86	0.4
298.15	0.5976	869.09	0.38
298.15	0.6993	872.11	0.36
298.15	0.7993	874.9	0.34
298.15	0.8988	878.01	0.32
298.15	0.9483	879.23	0.31
298.15	1	880.62	0.3
313.15	0	834.01	0.49
313.15	0.0494	835.48	0.48
313.15	0.1008	837.19	0.47
313.15	0.203	840.52	0.45
313.15	0.3004	843.74	0.44
313.15	0.3963	846.73	0.42
313.15	0.4969	849.69	0.4
313.15	0.5976	852.75	0.38
313.15	0.6993	855.69	0.36
313.15	0.7993	858.36	0.35
313.15	0.8988	861.05	0.33
313.15	0.9483	862.56	0.32
313.15	1	863.86	0.31

System: 2-chlorobutane + 2-methyltetrahydrofuran; phases: Liquid
Fixed: Pressure, kPa = 101.3
Property: Kinematic viscosity, m2/s (Liquid); method: CAPTUB:UFactor:4
Temperature, K	Mole fraction of 2-chlorobutane	Kinematic viscosity, m2/s	uncertainty
298.15	0	5.593e-07	1.98e-08
298.15	0.035	5.552e-07	1.97e-08
298.15	0.0835	5.494e-07	1.95e-08
298.15	0.1742	5.382e-07	1.92e-08
298.15	0.2553	5.286e-07	1.9e-08
298.15	0.3568	5.165e-07	1.86e-08
298.15	0.4555	5.055e-07	1.83e-08
298.15	0.5396	4.963e-07	1.8e-08
298.15	0.697	4.806e-07	1.76e-08
298.15	0.797	4.714e-07	1.73e-08
298.15	0.8975	4.628e-07	1.71e-08
298.15	0.9487	4.582e-07	1.7e-08
298.15	1	4.537e-07	1.68e-08
313.15	0	4.916e-07	1.79e-08
313.15	0.035	4.88e-07	1.78e-08
313.15	0.0835	4.828e-07	1.77e-08
313.15	0.1742	4.736e-07	1.74e-08
313.15	0.2553	4.655e-07	1.72e-08
313.15	0.3568	4.556e-07	1.69e-08
313.15	0.4555	4.463e-07	1.66e-08
313.15	0.5396	4.382e-07	1.64e-08
313.15	0.697	4.236e-07	1.6e-08
313.15	0.797	4.145e-07	1.57e-08
313.15	0.8975	4.056e-07	1.55e-08
313.15	0.9487	4.011e-07	1.54e-08
313.15	1	3.966e-07	1.52e-08

System: 2-chlorobutane + 2-methyltetrahydrofuran; phases: Liquid
Fixed: Pressure, kPa = 101.3
Property: Mass density, kg/m3 (Liquid); method: VIBTUB:UFactor:2
Temperature, K	Mole fraction of 2-chlorobutane	Mass density, kg/m3	uncertainty
298.15	0	849.28	0.49
298.15	0.035	850.14	0.49
298.15	0.0835	851.29	0.49
298.15	0.1742	853.4	0.49
298.15	0.2553	854.9	0.49
298.15	0.3568	857.12	0.49
298.15	0.4555	858.75	0.49
298.15	0.5396	860.37	0.49
298.15	0.697	863.09	0.49
298.15	0.797	864.45	0.49
298.15	0.8975	866.03	0.49
298.15	0.9487	866.65	0.49
298.15	1	867.31	0.49
313.15	0	834.01	0.49
313.15	0.035	834.84	0.49
313.15	0.0835	835.54	0.49
313.15	0.1742	837.42	0.49
313.15	0.2553	839.1	0.49
313.15	0.3568	840.87	0.49
313.15	0.4555	842.26	0.49
313.15	0.5396	843.91	0.49
313.15	0.697	846.32	0.49
313.15	0.797	847.77	0.49
313.15	0.8975	848.87	0.49
313.15	0.9487	849.41	0.49
313.15	1	850.23	0.49

System: 2-methyltetrahydrofuran + 1-chloro-2-methylpropane; phases: Liquid
Fixed: Pressure, kPa = 101.3
Property: Kinematic viscosity, m2/s (Liquid); method: CAPTUB:UFactor:4
Temperature, K	Mole fraction of 1-chloro-2-methylpropane	Kinematic viscosity, m2/s	uncertainty
298.15	0	5.593e-07	1.98e-08
298.15	0.0484	5.556e-07	1.97e-08
298.15	0.0999	5.516e-07	1.96e-08
298.15	0.1962	5.441e-07	1.94e-08
298.15	0.3105	5.354e-07	1.92e-08
298.15	0.4006	5.286e-07	1.9e-08
298.15	0.4775	5.23e-07	1.88e-08
298.15	0.6006	5.146e-07	1.86e-08
298.15	0.7031	5.082e-07	1.84e-08
298.15	0.8026	5.026e-07	1.82e-08
298.15	0.9059	4.97e-07	1.81e-08
298.15	0.9506	4.946e-07	1.8e-08
298.15	1	4.92e-07	1.79e-08
313.15	0	4.916e-07	1.79e-08
313.15	0.0484	4.884e-07	1.78e-08
313.15	0.0999	4.848e-07	1.77e-08
313.15	0.1962	4.781e-07	1.75e-08
313.15	0.3105	4.705e-07	1.73e-08
313.15	0.4006	4.646e-07	1.72e-08
313.15	0.4775	4.598e-07	1.7e-08
313.15	0.6006	4.521e-07	1.68e-08
313.15	0.7031	4.46e-07	1.66e-08
313.15	0.8026	4.401e-07	1.65e-08
313.15	0.9059	4.341e-07	1.63e-08
313.15	0.9506	4.316e-07	1.62e-08
313.15	1	4.287e-07	1.61e-08

System: 2-methyltetrahydrofuran + 1-chloro-2-methylpropane; phases: Liquid
Fixed: Pressure, kPa = 101.3
Property: Mass density, kg/m3 (Liquid); method: VIBTUB:UFactor:2
Temperature, K	Mole fraction of 1-chloro-2-methylpropane	Mass density, kg/m3	uncertainty
298.15	0	849.28	0.49
298.15	0.0484	850.43	0.49
298.15	0.0999	852.07	0.49
298.15	0.1962	854.44	0.49
298.15	0.3105	857.3	0.49
298.15	0.4006	859.25	0.49
298.15	0.4775	860.99	0.49
298.15	0.6006	863.58	0.49
298.15	0.7031	865.6	0.49
298.15	0.8026	867.49	0.49
298.15	0.9059	869.22	0.49
298.15	0.9506	870.2	0.49
298.15	1	870.93	0.49
313.15	0	834.01	0.49
313.15	0.0484	834.97	0.49
313.15	0.0999	836.22	0.49
313.15	0.1962	838.53	0.49
313.15	0.3105	841.23	0.49
313.15	0.4006	843.09	0.49
313.15	0.4775	844.5	0.49
313.15	0.6006	846.94	0.49
313.15	0.7031	848.88	0.49
313.15	0.8026	850.49	0.49
313.15	0.9059	852.11	0.49
313.15	0.9506	852.87	0.49
313.15	1	853.51	0.49

System: 2-methyltetrahydrofuran + 2-chloro-2-methylpropane; phases: Liquid
Fixed: Temperature, K = 298.15
Fixed: Pressure, kPa = 101.3
Property: Kinematic viscosity, m2/s (Liquid); method: CAPTUB:UFactor:2
Mole fraction of 2-chloro-2-methylpropane	Kinematic viscosity, m2/s	uncertainty
0	5.593e-07	1.03e-08
0.0481	5.586e-07	1.03e-08
0.0972	5.575e-07	1.02e-08
0.196	5.554e-07	1.02e-08
0.2907	5.545e-07	1.02e-08
0.3874	5.539e-07	1.02e-08
0.4878	5.543e-07	1.02e-08
0.5888	5.554e-07	1.02e-08
0.7	5.571e-07	1.02e-08
0.7912	5.59e-07	1.03e-08
0.8945	5.615e-07	1.03e-08
0.9474	5.634e-07	1.03e-08
1	5.656e-07	1.04e-08

System: 2-methyltetrahydrofuran + 2-chloro-2-methylpropane; phases: Liquid
Fixed: Temperature, K = 298.15
Fixed: Pressure, kPa = 101.3
Property: Mass density, kg/m3 (Liquid); method: VIBTUB:UFactor:2
Mole fraction of 2-chloro-2-methylpropane	Mass density, kg/m3	uncertainty
0	849.28	0.49
0.0481	849.09	0.49
0.0972	848.97	0.49
0.196	848.4	0.49
0.2907	847.61	0.49
0.3874	846.54	0.49
0.4878	845.21	0.49
0.5888	843.72	0.49
0.7	842.04	0.49
0.7912	840.61	0.49
0.8945	838.65	0.49
0.9474	837.24	0.49
1	835.75	0.49
