Measured thermophysical data. Effect of addition of calcium chloride on vapor pressure of 2-methyl-1-butanol
Source: J. Chem. Eng. Data, 2004, 10.1021/je0340147
Compound 1: 2-methyl-1-butanol, C5H12O, InChI=1S/C5H12O/c1-3-5(2)4-6/h5-6H,3-4H2,1-2H3, purity 99%
Compound 2: calcium chloride, CaCl2, InChI=1S/Ca.2ClH/h;2*1H/q+2;;/p-2, purity 95%

System: 2-methyl-1-butanol; phases: Liquid, Gas
Property: Vapor or sublimation pressure, kPa (Liquid); method: EBULLIO:UFactor:64
Temperature, K	Vapor or sublimation pressure, kPa	uncertainty
364.85	23.3	0.7
370.45	30	0.7
373.05	33.3	0.7
375.15	36.7	0.8
379.05	43.3	0.8
382.75	50	0.8
385.65	56.6	0.9
388.95	63.3	0.9
391.65	70	1
394.15	76.6	1
396.65	83.3	1.1
398.85	90	1.1
401.05	96.6	1.1

System: 2-methyl-1-butanol + calcium chloride; phases: Liquid, Gas
Property: Boiling temperature at pressure P, K (Liquid); method: EBULLIO:UFactor:8
Mass fraction of calcium chloride	Pressure, kPa	Boiling temperature at pressure P, K	uncertainty
0.011	23.3	364.85	0.6
0.011	30	370.45	0.7
0.011	33.3	373.05	0.6
0.011	36.7	375.35	0.5
0.011	43.3	379.25	0.5
0.011	50	382.95	0.5
0.011	56.6	386.05	0.5
0.011	63.3	389.15	0.5
0.011	70	392.15	0.5
0.011	76.6	394.65	0.4
0.011	83.3	396.95	0.4
0.011	90	399.15	0.4
0.011	96.6	401.45	0.5
0.034	23.3	365.05	0.7
0.034	30	370.75	0.7
0.034	33.3	373.25	0.6
0.034	36.7	375.55	0.5
0.034	43.3	379.35	0.5
0.034	50	383.15	0.5
0.034	56.6	386.25	0.5
0.034	63.3	389.45	0.5
0.034	70	392.35	0.5
0.034	76.6	394.95	0.4
0.034	83.3	397.15	0.4
0.034	90	399.35	0.4
0.034	96.6	401.65	0.5
0.057	23.3	365.35	0.7
0.057	30	371.05	0.7
0.057	33.3	373.45	0.6
0.057	36.7	375.75	0.5
0.057	43.3	379.55	0.5
0.057	50	383.35	0.5
0.057	56.6	386.55	0.5
0.057	63.3	389.85	0.5
0.057	70	392.65	0.5
0.057	76.6	395.15	0.4
0.057	83.3	397.35	0.4
0.057	90	399.85	0.4
0.057	96.6	401.85	0.4
0.078	23.3	365.65	0.6
0.078	30	371.35	0.7
0.078	33.3	373.75	0.6
0.078	36.7	375.85	0.5
0.078	43.3	379.95	0.5
0.078	50	383.55	0.5
0.078	56.6	386.85	0.5
0.078	63.3	389.95	0.5
0.078	70	392.75	0.5
0.078	76.6	395.35	0.4
0.078	83.3	397.65	0.4
0.078	90	399.95	0.4
0.078	96.6	402.15	0.5
0.096	23.3	366.25	0.6
0.096	30	371.75	0.7
0.096	33.3	374.45	0.6
0.096	36.7	376.35	0.5
0.096	43.3	380.55	0.5
0.096	50	384.15	0.5
0.096	56.6	387.45	0.5
0.096	63.3	390.35	0.5
0.096	70	393.25	0.5
0.096	76.6	395.85	0.4
0.096	83.3	398.15	0.4
0.096	90	400.65	0.4
0.096	96.6	402.65	0.4
0.105	23.3	366.75	0.7
0.105	30	372.55	0.7
0.105	33.3	374.75	0.5
0.105	36.7	376.85	0.5
0.105	43.3	381.05	0.5
0.105	50	384.75	0.5
0.105	56.6	388.05	0.5
0.105	63.3	390.85	0.5
0.105	70	393.75	0.5
0.105	76.6	396.25	0.5
0.105	83.3	398.85	0.5
0.105	90	401.15	0.4
0.105	96.6	403.15	0.4
