Measured thermophysical data. Limiting Activity Coefficients by Comparative Tensimetry: 1-Propanol and 1-Butanol in Heptane and in Octane
Source: J. Chem. Eng. Data, 2004, 10.1021/je0302295
Compound 1: propan-1-ol, C3H8O, InChI=1S/C3H8O/c1-2-3-4/h4H,2-3H2,1H3
Compound 2: butan-1-ol, C4H10O, InChI=1S/C4H10O/c1-2-3-4-5/h5H,2-4H2,1H3
Compound 3: heptane, C7H16, InChI=1S/C7H16/c1-3-5-7-6-4-2/h3-7H2,1-2H3
Compound 4: octane, C8H18, InChI=1S/C8H18/c1-3-5-7-8-6-4-2/h3-8H2,1-2H3

System: propan-1-ol; phases: Liquid
Property: Refractive index (Na D-line) (Liquid); method: Standard Abbe refractometry
Temperature, K	Pressure, kPa	Refractive index (Na D-line)	uncertainty
293.15	101.325	1.3855	0.0007

System: propan-1-ol; phases: Liquid
Property: Mass density, kg/m3 (Liquid); method: VIBTUB:UFactor:2
Temperature, K	Pressure, kPa	Mass density, kg/m3	uncertainty
293.15	101.325	803.55	0.29

System: butan-1-ol; phases: Liquid
Property: Refractive index (Na D-line) (Liquid); method: Standard Abbe refractometry
Temperature, K	Pressure, kPa	Refractive index (Na D-line)	uncertainty
293.15	101.325	1.3992	0.0007

System: butan-1-ol; phases: Liquid
Property: Mass density, kg/m3 (Liquid); method: VIBTUB:UFactor:2
Temperature, K	Pressure, kPa	Mass density, kg/m3	uncertainty
293.15	101.325	809.68	0.29

System: heptane; phases: Liquid
Property: Refractive index (Na D-line) (Liquid); method: Standard Abbe refractometry
Temperature, K	Pressure, kPa	Refractive index (Na D-line)	uncertainty
293.15	101.325	1.3876	0.0007

System: heptane; phases: Liquid
Property: Mass density, kg/m3 (Liquid); method: Vibrating tube method
Temperature, K	Pressure, kPa	Mass density, kg/m3	uncertainty
293.15	101.325	683.79	0.21

System: octane; phases: Liquid
Property: Refractive index (Na D-line) (Liquid); method: Standard Abbe refractometry
Temperature, K	Pressure, kPa	Refractive index (Na D-line)	uncertainty
293.15	101.325	1.3973	0.0007

System: octane; phases: Liquid
Property: Mass density, kg/m3 (Liquid); method: Vibrating tube method
Temperature, K	Pressure, kPa	Mass density, kg/m3	uncertainty
293.15	101.325	702.76	0.2

System: propan-1-ol + heptane; phases: Liquid, Gas
Fixed: Mole fraction of propan-1-ol = 0
Property: Activity coefficient of propan-1-ol (Liquid); method: Static method
Temperature, K	Activity coefficient of propan-1-ol	uncertainty
303.15	36.2	1.1
313.15	27.2	0.7
323.15	21.2	1
333.15	15.8	0.4
343.15	12.5	0.2

System: propan-1-ol + octane; phases: Liquid, Gas
Fixed: Mole fraction of propan-1-ol = 0
Property: Activity coefficient of propan-1-ol (Liquid); method: Static method
Temperature, K	Activity coefficient of propan-1-ol	uncertainty
303.15	34.2	1.8
313.15	26.5	1.4
323.15	20.5	0.5
333.15	16.2	0.3
343.15	12.9	0.2

System: butan-1-ol + heptane; phases: Liquid, Gas
Fixed: Mole fraction of butan-1-ol = 0
Property: Activity coefficient of butan-1-ol (Liquid); method: Static method
Temperature, K	Activity coefficient of butan-1-ol	uncertainty
303.15	31.3	3
313.15	24.5	1
323.15	19.3	1
333.15	14.6	0.8
343.15	11.6	0.4

System: butan-1-ol + octane; phases: Liquid, Gas
Fixed: Mole fraction of butan-1-ol = 0
Property: Activity coefficient of butan-1-ol (Liquid); method: Static method
Temperature, K	Activity coefficient of butan-1-ol	uncertainty
303.15	32.1	1.6
313.15	23.9	0.8
323.15	18.4	0.4
333.15	14.5	0.4
343.15	11.2	0.8
