Measured thermophysical data. Excess Enthalpy and Vapor-Liquid Equilibrium at Atmospheric Pressure for the Binary Systems 2-Methyl-2-propanol + 2,4,4-Trimethyl-1-pentene and 2-Butanol + 2,4,4-Trimethyl-1-pentene
Source: J. Chem. Eng. Data, 2004, 10.1021/je0340912
Compound 1: 2,4,4-trimethyl-1-pentene, C8H16, InChI=1S/C8H16/c1-7(2)6-8(3,4)5/h1,6H2,2-5H3
Compound 2: butan-2-ol, C4H10O, InChI=1S/C4H10O/c1-3-4(2)5/h4-5H,3H2,1-2H3
Compound 3: 2-methylpropan-2-ol, C4H10O, InChI=1S/C4H10O/c1-4(2,3)5/h5H,1-3H3

System: 2,4,4-trimethyl-1-pentene; phases: Liquid
Property: Mass density, kg/m3 (Liquid); method: VIBTUB:UFactor:4
Temperature, K	Pressure, kPa	Mass density, kg/m3	uncertainty
298.15	101.325	711.3	1

System: 2,4,4-trimethyl-1-pentene; phases: Liquid, Gas
Fixed: Temperature, K = 374.34
Property: Vapor or sublimation pressure, kPa (Liquid); method: EBULLIO:UFactor:8
Vapor or sublimation pressure, kPa	uncertainty
101.4	0.3
101.3	0.3

System: butan-2-ol; phases: Liquid
Property: Mass density, kg/m3 (Liquid); method: VIBTUB:UFactor:4
Temperature, K	Pressure, kPa	Mass density, kg/m3	uncertainty
298.15	101.325	802.4	0.6

System: butan-2-ol; phases: Liquid, Gas
Property: Vapor or sublimation pressure, kPa (Liquid); method: EBULLIO:UFactor:8
Temperature, K	Vapor or sublimation pressure, kPa	uncertainty
372.14	100.5	0.2

System: 2-methylpropan-2-ol; phases: Liquid
Property: Mass density, kg/m3 (Liquid); method: VIBTUB:UFactor:4
Temperature, K	Pressure, kPa	Mass density, kg/m3	uncertainty
303.15	101.325	775.5	0.6

System: 2-methylpropan-2-ol; phases: Liquid, Gas
Property: Vapor or sublimation pressure, kPa (Liquid); method: EBULLIO:UFactor:8
Temperature, K	Vapor or sublimation pressure, kPa	uncertainty
355.13	100.6	0.2

System: 2-methylpropan-2-ol + 2,4,4-trimethyl-1-pentene; phases: Liquid
Fixed: Pressure, kPa = 101.32
Fixed: Temperature, K = 300.15
Property: Excess molar enthalpy (molar enthalpy of mixing), kJ/mol (Liquid); method: Flow calorimetry
Mole fraction of 2-methylpropan-2-ol	Excess molar enthalpy (molar enthalpy of mixing), kJ/mol	uncertainty
0.0529	0.5218	0.0062
0.0811	0.6304	0.0073
0.1559	0.7866	0.0089
0.2264	0.8696	0.0097
0.2928	0.9142	0.0101
0.3555	0.9394	0.0104
0.4148	0.9509	0.0105
0.471	0.952	0.0105
0.5241	0.9463	0.0105
0.5242	0.9429	0.0104
0.5747	0.93	0.0103
0.5747	0.9301	0.0103
0.6229	0.9029	0.01
0.6687	0.8659	0.0097
0.7124	0.8172	0.0092
0.7541	0.7542	0.0085
0.7939	0.6756	0.0078
0.832	0.5896	0.0069
0.8685	0.4925	0.0059
0.9034	0.3827	0.0048
0.9369	0.2621	0.0036
0.9691	0.1363	0.0024

System: 2-methylpropan-2-ol + 2,4,4-trimethyl-1-pentene; phases: Liquid, Gas
Property: Azeotropic composition: mole fraction of 2-methylpropan-2-ol (Liquid); method: By X=Y
Temperature, K	Azeotropic composition: mole fraction of 2-methylpropan-2-ol	uncertainty
352.83	0.73	0.01

System: 2-methylpropan-2-ol + 2,4,4-trimethyl-1-pentene; phases: Liquid, Gas
Property: Azeotropic composition: mole fraction of 2-methylpropan-2-ol (Liquid); method: By X=Y
Pressure, kPa	Azeotropic composition: mole fraction of 2-methylpropan-2-ol	uncertainty
100.5	0.73	0.01

System: 2-methylpropan-2-ol + 2,4,4-trimethyl-1-pentene; phases: Liquid, Gas
Property: Boiling temperature at pressure P, K (Liquid); method: EBULLIO:UFactor:8
Mole fraction of 2-methylpropan-2-ol	Pressure, kPa	Boiling temperature at pressure P, K	uncertainty
0	101.4	374.34	0.26
0.0182	101.5	371.26	0.26
0.0367	101.5	368.5	0.26
0.0693	101.5	364.78	0.26
0.1221	101.5	361.03	0.26
0.1776	101.5	358.79	0.26
0.3266	100.5	355.38	0.25
0.3637	100.6	354.97	0.25
0.4194	100.5	354.39	0.25
0.491	100.5	353.82	0.25
0.5432	100.5	353.51	0.25
0.5826	100.5	353.34	0.25
0.6274	100.5	353.18	0.25
0.6673	100.4	353.07	0.25
0.7037	100.5	353.05	0.25
0.741	100.5	353.04	0.25
0.7781	100.5	353.09	0.25
0.8144	100.5	353.2	0.25
0.8514	100.5	353.35	0.25
0.9113	100.5	353.8	0.25
0.9458	100.5	354.2	0.25
0.9692	100.6	354.55	0.25
0.9834	100.6	354.81	0.25
1	100.6	355.13	0.25

System: 2-methylpropan-2-ol + 2,4,4-trimethyl-1-pentene; phases: Gas, Liquid
Property: Mole fraction of 2-methylpropan-2-ol (Gas); method: CHROM:UFactor:2
Mole fraction of 2-methylpropan-2-ol	Pressure, kPa	Mole fraction of 2-methylpropan-2-ol	uncertainty
0	101.4	0	0.0001
0.0182	101.5	0.0931	0.0023
0.0367	101.5	0.1725	0.0043
0.0693	101.5	0.2719	0.0069
0.1221	101.5	0.3689	0.0096
0.1776	101.5	0.4304	0.0113
0.3266	100.5	0.5251	0.0127
0.3637	100.6	0.545	0.0121
0.4194	100.5	0.5745	0.0114
0.491	100.5	0.6064	0.0105
0.5432	100.5	0.633	0.0098
0.5826	100.5	0.6522	0.0093
0.6274	100.5	0.6755	0.0086
0.6673	100.4	0.6955	0.0081
0.7037	100.5	0.7158	0.0075
0.741	100.5	0.7446	0.0067
0.7781	100.5	0.7615	0.0063
0.8144	100.5	0.7872	0.0056
0.8514	100.5	0.819	0.0047
0.9113	100.5	0.8742	0.0032
0.9458	100.5	0.9155	0.0021
0.9692	100.6	0.9489	0.0013
0.9834	100.6	0.9721	0.0007
1	100.6	1	0.0001

System: butan-2-ol + 2,4,4-trimethyl-1-pentene; phases: Liquid
Fixed: Pressure, kPa = 101.32
Fixed: Temperature, K = 298.15
Property: Excess molar enthalpy (molar enthalpy of mixing), kJ/mol (Liquid); method: Flow calorimetry
Mole fraction of butan-2-ol	Excess molar enthalpy (molar enthalpy of mixing), kJ/mol	uncertainty
0.0544	0.542	0.0064
0.0832	0.665	0.0077
0.1597	0.8438	0.0094
0.2314	0.9492	0.0105
0.2987	1.0151	0.0112
0.3621	1.0485	0.0115
0.4217	1.0563	0.0116
0.4781	1.0405	0.0114
0.5313	1.0101	0.0111
0.5818	0.9579	0.0106
0.6296	0.8901	0.0099
0.675	0.8187	0.0092
0.7182	0.7385	0.0084
0.7593	0.6512	0.0075
0.7986	0.5595	0.0066
0.836	0.4669	0.0057
0.8717	0.3727	0.0047
0.9059	0.2783	0.0038
0.9386	0.1827	0.0028
0.9699	0.0915	0.0019

System: butan-2-ol + 2,4,4-trimethyl-1-pentene; phases: Liquid, Gas
Property: Azeotropic composition: mole fraction of butan-2-ol (Liquid); method: By X=Y
Temperature, K	Azeotropic composition: mole fraction of butan-2-ol	uncertainty
363.72	0.46	0.01

System: butan-2-ol + 2,4,4-trimethyl-1-pentene; phases: Liquid, Gas
Property: Azeotropic composition: mole fraction of butan-2-ol (Liquid); method: By X=Y
Pressure, kPa	Azeotropic composition: mole fraction of butan-2-ol	uncertainty
101.2	0.46	0.01

System: butan-2-ol + 2,4,4-trimethyl-1-pentene; phases: Liquid, Gas
Property: Boiling temperature at pressure P, K (Liquid); method: EBULLIO:UFactor:8
Mole fraction of butan-2-ol	Pressure, kPa	Boiling temperature at pressure P, K	uncertainty
0	101.3	374.34	0.26
0.0108	101.3	373.26	0.26
0.0373	101.3	370.9	0.26
0.078	101.3	368.4	0.26
0.1285	101.3	366.57	0.26
0.1823	101.3	365.4	0.26
0.2309	101.3	364.75	0.26
0.2732	101.3	364.37	0.25
0.3303	101.2	364.01	0.25
0.3814	101.2	363.83	0.25
0.4368	101.2	363.74	0.25
0.4884	101.2	363.73	0.25
0.5419	101.2	363.83	0.25
0.5895	101.2	363.99	0.25
0.6509	100.9	364.2	0.25
0.6659	100.9	364.31	0.25
0.6992	100.9	364.57	0.25
0.7231	100.8	364.77	0.25
0.7439	100.8	365.01	0.25
0.7716	100.8	365.35	0.25
0.8034	100.7	365.85	0.25
0.8398	100.6	366.51	0.25
0.8696	100.6	367.17	0.25
0.8973	100.5	367.93	0.25
0.9165	100.4	368.52	0.25
0.9314	100.3	369.01	0.25
0.9775	100.5	370.95	0.25
0.99	100.5	371.59	0.25
1	100.5	372.14	0.25

System: butan-2-ol + 2,4,4-trimethyl-1-pentene; phases: Gas, Liquid
Property: Mole fraction of butan-2-ol (Gas); method: CHROM:UFactor:2
Mole fraction of butan-2-ol	Pressure, kPa	Mole fraction of butan-2-ol	uncertainty
0	101.3	0	0.0001
0.0108	101.3	0.0383	0.0009
0.0373	101.3	0.1196	0.0029
0.078	101.3	0.2025	0.0051
0.1285	101.3	0.2704	0.0069
0.1823	101.3	0.3182	0.0082
0.2309	101.3	0.3513	0.0092
0.2732	101.3	0.3754	0.0099
0.3303	101.2	0.405	0.0107
0.3814	101.2	0.4285	0.0114
0.4368	101.2	0.4524	0.0121
0.4884	101.2	0.4745	0.0128
0.5419	101.2	0.498	0.0135
0.5895	101.2	0.5211	0.013
0.6509	100.9	0.5552	0.0121
0.6659	100.9	0.5626	0.0119
0.6992	100.9	0.5814	0.0114
0.7231	100.8	0.5964	0.0111
0.7439	100.8	0.6139	0.0106
0.7716	100.8	0.6316	0.0101
0.8034	100.7	0.6573	0.0094
0.8398	100.6	0.6915	0.0085
0.8696	100.6	0.7288	0.0074
0.8973	100.5	0.7653	0.0064
0.9165	100.4	0.8013	0.0054
0.9314	100.3	0.8224	0.0048
0.9775	100.5	0.9325	0.0018
0.99	100.5	0.9713	0.0008
1	100.5	1	0.0001
