Measured thermophysical data. Isothermal Vapor-Liquid Equilibria for the 2-Propanol + n-Heptane System near the Critical Region
Source: J. Chem. Eng. Data, 2004, 10.1021/je034066w
Compound 1: propan-2-ol, C3H8O, InChI=1S/C3H8O/c1-3(2)4/h3-4H,1-2H3, purity 99.5%
Compound 2: heptane, C7H16, InChI=1S/C7H16/c1-3-5-7-6-4-2/h3-7H2,1-2H3, purity 99.6%

System: propan-2-ol; phases: Liquid, Gas
Property: Critical pressure, kPa (Liquid); method: Direct measurement
Critical pressure, kPa	uncertainty
4755	48

System: propan-2-ol; phases: Liquid, Gas
Property: Critical temperature, K (Liquid); method: Visual observation in a stirred cell
Critical temperature, K	uncertainty
508.15	0.12

System: propan-2-ol + heptane; phases: Liquid, Gas
Property: Critical pressure, kPa (Liquid); method: Direct measurement
Mole fraction of heptane	Critical pressure, kPa	uncertainty
0.41	3967	40
0.725	3417	35

System: propan-2-ol + heptane; phases: Liquid, Gas
Property: Critical temperature, K (Liquid); method: Visual observation in a stirred cell
Mole fraction of heptane	Critical temperature, K	uncertainty
0.41	508.15	0.12
0.725	523.15	0.12

System: propan-2-ol + heptane; phases: Liquid, Gas
Property: Vapor or sublimation pressure, kPa (Liquid); method: EBULLIO:UFactor:16
Mole fraction of heptane	Temperature, K	Vapor or sublimation pressure, kPa	uncertainty
0	483.15	3101	40
0	498.15	4009	51
0	508.15	4755	61
0.039	483.15	3121	40
0.039	498.15	4021	51
0.051	498.15	4018	51
0.059	483.15	3116	40
0.101	498.15	3980	51
0.114	483.15	3089	40
0.158	498.15	3941	50
0.162	483.15	3041	39
0.229	483.15	2979	38
0.237	498.15	3811	49
0.31	483.15	2889	37
0.327	498.15	3661	47
0.41	508.15	3967	51
0.421	498.15	3437	44
0.421	508.15	3938	50
0.427	483.15	2726	35
0.517	498.15	3192	41
0.52	508.15	3630	46
0.57	483.15	2459	32
0.61	508.15	3329	43
0.636	498.15	2844	37
0.692	483.15	2168	28
0.713	508.15	2963	38
0.725	523.15	3417	44
0.731	523.15	3413	44
0.743	523.15	3381	43
0.765	498.15	2427	31
0.772	523.15	3268	42
0.814	508.15	2520	33
0.824	483.15	1790	24
0.824	523.15	3005	39
0.882	498.15	1970	26
0.892	508.15	2245	29
0.898	523.15	2679	35
0.908	483.15	1514	20
1	483.15	1160	16
1	498.15	1479	20
1	508.15	1725	23
1	523.15	2151	28

System: propan-2-ol + heptane; phases: Gas, Liquid
Property: Mole fraction of heptane (Gas); method: CHROM:UFactor:8
Mole fraction of heptane	Temperature, K	Mole fraction of heptane	uncertainty
0	483.15	0	0.001
0	498.15	0	0.001
0	508.15	0	0.001
0.039	483.15	0.039	0.004
0.039	498.15	0.039	0.004
0.051	498.15	0.046	0.004
0.059	483.15	0.054	0.005
0.101	498.15	0.094	0.009
0.114	483.15	0.109	0.01
0.158	498.15	0.148	0.014
0.162	483.15	0.151	0.015
0.229	483.15	0.208	0.02
0.237	498.15	0.219	0.021
0.31	483.15	0.266	0.026
0.327	498.15	0.295	0.028
0.41	508.15	0.41	0.039
0.421	498.15	0.365	0.035
0.421	508.15	0.406	0.039
0.427	483.15	0.35	0.034
0.517	498.15	0.433	0.042
0.52	508.15	0.475	0.046
0.57	483.15	0.487	0.047
0.61	508.15	0.53	0.045
0.636	498.15	0.537	0.045
0.692	483.15	0.588	0.04
0.713	508.15	0.632	0.035
0.725	523.15	0.725	0.026
0.731	523.15	0.724	0.027
0.743	523.15	0.714	0.028
0.765	498.15	0.665	0.032
0.772	523.15	0.723	0.027
0.814	508.15	0.732	0.026
0.824	483.15	0.73	0.026
0.824	523.15	0.763	0.023
0.882	498.15	0.806	0.019
0.892	508.15	0.837	0.016
0.898	523.15	0.848	0.015
0.908	483.15	0.853	0.014
1	483.15	1	0.001
1	498.15	1	0.001
1	508.15	1	0.001
1	523.15	1	0.001
