Measured thermophysical data. Physical Solubility and Diffusivity of N2O and CO2 into Aqueous Solutions of (2-Amino-2-methyl-1-propanol + Diethanolamine) and (N-Methyldiethanolamine + Diethanolamine)
Source: J. Chem. Eng. Data, 2004, 10.1021/je0301951
Compound 1: carbon dioxide, CO2, InChI=1S/CO2/c2-1-3, purity 99.995%
Compound 2: water, H2O, InChI=1S/H2O/h1H2
Compound 3: nitrous oxide, N2O, InChI=1S/N2O/c1-2-3
Compound 4: diethanolamine, C4H11NO2, InChI=1S/C4H11NO2/c6-3-1-5-2-4-7/h5-7H,1-4H2, purity 98%
Compound 5: 2-amino-2-methylpropan-1-ol, C4H11NO, InChI=1S/C4H11NO/c1-4(2,5)3-6/h6H,3,5H2,1-2H3, purity 98%
Compound 6: N-methyldiethanolamine, C5H13NO2, InChI=1S/C5H13NO2/c1-6(2-4-7)3-5-8/h7-8H,2-5H2,1H3, purity 98%

System: carbon dioxide + water; phases: Liquid, Gas
Fixed: Mass fraction of water = 1
Property: Binary diffusion coefficient, m2/s (Liquid); method: OTHER
Temperature, K	Binary diffusion coefficient, m2/s	uncertainty
293	1.71e-09	0.07
298	1.9e-09	0.08
303	2.13e-09	0.09
308	2.47e-09	0.1
313	2.86e-09	0.11

System: carbon dioxide + water; phases: Liquid, Gas
Fixed: Amount concentration (molarity), mol/dm3 of carbon dioxide = 0
Property: Henry's Law constant (amount concentration scale), kPa*dm3/mol of carbon dioxide (Liquid); method: OTHER
Temperature, K	Henry's Law constant (amount concentration scale), kPa*dm3/mol of carbon dioxide	uncertainty
293	2647	132
298	3096	155
303	3314	166
308	3765	188
313	4098	205

System: water + nitrous oxide; phases: Liquid, Gas
Fixed: Mass fraction of water = 1
Property: Binary diffusion coefficient, m2/s (Liquid); method: OTHER
Temperature, K	Binary diffusion coefficient, m2/s	uncertainty
293	1.54e-09	0.06
298	1.8e-09	0.1
303	1.98e-09	0.08
308	2.29e-09	0.09
313	2.58e-09	0.1

System: water + nitrous oxide; phases: Liquid, Gas
Fixed: Amount concentration (molarity), mol/dm3 of nitrous oxide = 1
Property: Henry's Law constant (amount concentration scale), kPa*dm3/mol of nitrous oxide (Liquid); method: OTHER
Temperature, K	Henry's Law constant (amount concentration scale), kPa*dm3/mol of nitrous oxide	uncertainty
293	3581	179
298	4091	205
303	4512	226
308	5023	251
313	5715	286

System: diethanolamine + water + nitrous oxide; phases: Liquid, Gas
Fixed: Pressure, kPa of nitrous oxide = 100
Property: Henry's Law constant (amount concentration scale), kPa*dm3/mol of nitrous oxide (Liquid); method: OTHER
Temperature, K	Amount concentration (molarity), mol/dm3 of diethanolamine	Henry's Law constant (amount concentration scale), kPa*dm3/mol of nitrous oxide	uncertainty
293	2	4525	226
293	2.5	4676	234
293	3	4795	240
298	2	5004	250
298	2.5	5101	255
298	3	5245	262
303	2	5471	274
303	2.5	5592	280
303	3	5690	285
308	2	6104	305
308	2.5	6235	312
308	3	6394	320
313	2	7247	362
313	2.5	7423	371
313	3	7621	381

System: 2-amino-2-methylpropan-1-ol + water + nitrous oxide; phases: Liquid, Gas
Fixed: Pressure, kPa of nitrous oxide = 100
Property: Henry's Law constant (amount concentration scale), kPa*dm3/mol of nitrous oxide (Liquid); method: OTHER
Temperature, K	Amount concentration (molarity), mol/dm3 of 2-amino-2-methylpropan-1-ol	Henry's Law constant (amount concentration scale), kPa*dm3/mol of nitrous oxide	uncertainty
293	2	4271	128
293	2.5	4385	132
293	3	4492	135
298	2	4805	144
298	2.5	4917	148
298	3	5045	151
303	2	5236	157
303	2.5	5325	160
303	3	5451	164
308	2	5877	176
308	2.5	5984	180
308	3	6072	182
313	2	6318	190
313	2.5	6441	193
313	3	6545	196

System: N-methyldiethanolamine + water + nitrous oxide; phases: Liquid, Gas
Fixed: Pressure, kPa of nitrous oxide = 100
Property: Henry's Law constant (amount concentration scale), kPa*dm3/mol of nitrous oxide (Liquid); method: OTHER
Temperature, K	Amount concentration (molarity), mol/dm3 of N-methyldiethanolamine	Henry's Law constant (amount concentration scale), kPa*dm3/mol of nitrous oxide	uncertainty
293	2	4276	128
293	2.5	4445	133
293	3	4697	141
298	2	4617	139
298	2.5	4890	147
298	3	5075	152
303	2	4903	147
303	2.5	5215	156
303	3	5345	160
308	2	5343	160
308	2.5	5475	164
308	3	5602	168
313	2	5811	174
313	2.5	5968	179
313	3	6095	183

System: diethanolamine + 2-amino-2-methylpropan-1-ol + nitrous oxide; phases: Liquid, Gas
Property: Binary diffusion coefficient, m2/s (Liquid); method: OTHER
Temperature, K	Mass fraction of 2-amino-2-methylpropan-1-ol	Mass fraction of diethanolamine	Binary diffusion coefficient, m2/s	uncertainty
293	0	0.3	1.04e-09	0.04
293	0.21	0.09	8.4e-10	0.04
293	0.225	0.075	8e-10	0.04
293	0.24	0.06	7.9e-10	0.04
293	0.255	0.045	7.7e-10	0.04
293	0.27	0.03	7.4e-10	0.04
293	0.285	0.015	7.2e-10	0.04
293	0.3	0	7.1e-10	0.04
298	0	0.3	1.12e-09	0.05
298	0.21	0.09	9.3e-10	0.05
298	0.225	0.075	9.1e-10	0.05
298	0.24	0.06	8.8e-10	0.05
298	0.255	0.045	8.7e-10	0.05
298	0.27	0.03	8.5e-10	0.05
298	0.285	0.015	8.4e-10	0.05
298	0.3	0	8.3e-10	0.05
303	0	0.3	1.25e-09	0.06
303	0.21	0.09	1.12e-09	0.06
303	0.225	0.075	1.08e-09	0.06
303	0.24	0.06	1.07e-09	0.06
303	0.255	0.045	1.05e-09	0.06
303	0.27	0.03	1.04e-09	0.06
303	0.285	0.015	1.02e-09	0.05
303	0.3	0	1.01e-09	0.05
308	0	0.3	1.38e-09	0.06
308	0.21	0.09	1.28e-09	0.06
308	0.225	0.075	1.27e-09	0.06
308	0.24	0.06	1.26e-09	0.06
308	0.255	0.045	1.24e-09	0.06
308	0.27	0.03	1.23e-09	0.06
308	0.285	0.015	1.2e-09	0.06
308	0.3	0	1.19e-09	0.06
313	0	0.3	1.57e-09	0.07
313	0.21	0.09	1.42e-09	0.06
313	0.225	0.075	1.39e-09	0.06
313	0.24	0.06	1.38e-09	0.06
313	0.255	0.045	1.36e-09	0.06
313	0.27	0.03	1.34e-09	0.06
313	0.285	0.015	1.33e-09	0.06
313	0.3	0	1.32e-09	0.06

System: diethanolamine + 2-amino-2-methylpropan-1-ol + nitrous oxide; phases: Liquid, Gas
Property: Henry's Law constant (amount concentration scale), kPa*dm3/mol of nitrous oxide (Liquid); method: OTHER
Temperature, K	Mass fraction of 2-amino-2-methylpropan-1-ol	Mass fraction of diethanolamine	Henry's Law constant (amount concentration scale), kPa*dm3/mol of nitrous oxide	uncertainty
293	0	0.3	4802	144
293	0.21	0.09	4663	140
293	0.225	0.075	4645	139
293	0.24	0.06	4607	138
293	0.255	0.045	4601	138
293	0.27	0.03	4574	137
293	0.285	0.015	4532	136
293	0.3	0	4502	135
298	0	0.3	5234	157
298	0.21	0.09	5192	156
298	0.225	0.075	5175	155
298	0.24	0.06	5140	154
298	0.255	0.045	5135	154
298	0.27	0.03	5105	153
298	0.285	0.015	5103	153
298	0.3	0	5060	152
303	0	0.3	5701	171
303	0.21	0.09	5542	166
303	0.225	0.075	5521	166
303	0.24	0.06	5492	165
303	0.255	0.045	5481	164
303	0.27	0.03	5479	164
303	0.285	0.015	5470	164
303	0.3	0	5475	164
308	0	0.3	6405	192
308	0.21	0.09	6198	186
308	0.225	0.075	6179	185
308	0.24	0.06	6167	185
308	0.255	0.045	6142	184
308	0.27	0.03	6125	184
308	0.285	0.015	6105	183
308	0.3	0	6095	183
313	0	0.3	7625	229
313	0.21	0.09	7402	222
313	0.225	0.075	7385	222
313	0.24	0.06	7345	220
313	0.255	0.045	7284	219
313	0.27	0.03	7125	214
313	0.285	0.015	6819	205
313	0.3	0	6582	197

System: N-methyldiethanolamine + diethanolamine + nitrous oxide; phases: Liquid, Gas
Property: Binary diffusion coefficient, m2/s (Liquid); method: OTHER
Temperature, K	Mass fraction of N-methyldiethanolamine	Mass fraction of diethanolamine	Binary diffusion coefficient, m2/s	uncertainty
293	0	0.3	1.04e-09	0.04
293	0.21	0.09	9.8e-10	0.04
293	0.225	0.075	9.7e-10	0.04
293	0.24	0.06	9.6e-10	0.04
293	0.255	0.045	9.6e-10	0.04
293	0.27	0.03	9.5e-10	0.04
293	0.285	0.015	9.4e-10	0.05
293	0.3	0	8.4e-10	0.04
298	0	0.3	1.12e-09	0.05
298	0.21	0.09	1.08e-09	0.05
298	0.225	0.075	1.07e-09	0.05
298	0.24	0.06	1.06e-09	0.05
298	0.255	0.045	1.05e-09	0.05
298	0.27	0.03	1.04e-09	0.05
298	0.285	0.015	1.04e-09	0.05
298	0.3	0	9.3e-10	0.05
303	0	0.3	1.25e-09	0.06
303	0.21	0.09	1.19e-09	0.05
303	0.225	0.075	1.17e-09	0.05
303	0.24	0.06	1.17e-09	0.05
303	0.255	0.045	1.15e-09	0.05
303	0.27	0.03	1.13e-09	0.05
303	0.285	0.015	1.12e-09	0.05
303	0.3	0	1.1e-09	0.05
308	0	0.3	1.38e-09	0.06
308	0.21	0.09	1.27e-09	0.06
308	0.225	0.075	1.25e-09	0.05
308	0.24	0.06	1.22e-09	0.05
308	0.255	0.045	1.19e-09	0.05
308	0.27	0.03	1.17e-09	0.05
308	0.285	0.015	1.15e-09	0.05
308	0.3	0	1.16e-09	0.05
313	0	0.3	1.57e-09	0.07
313	0.21	0.09	1.44e-09	0.07
313	0.225	0.075	1.39e-09	0.06
313	0.24	0.06	1.37e-09	0.06
313	0.255	0.045	1.32e-09	0.06
313	0.27	0.03	1.27e-09	0.06
313	0.285	0.015	1.24e-09	0.05
313	0.3	0	1.21e-09	0.05

System: N-methyldiethanolamine + diethanolamine + nitrous oxide; phases: Liquid, Gas
Property: Henry's Law constant (amount concentration scale), kPa*dm3/mol of nitrous oxide (Liquid); method: OTHER
Temperature, K	Mass fraction of N-methyldiethanolamine	Mass fraction of diethanolamine	Henry's Law constant (amount concentration scale), kPa*dm3/mol of nitrous oxide	uncertainty
293	0	0.3	4802	144
293	0.21	0.09	4675	140
293	0.225	0.075	4643	139
293	0.24	0.06	4596	138
293	0.255	0.045	4547	136
293	0.27	0.03	4505	135
293	0.285	0.015	4462	134
293	0.3	0	4423	133
298	0	0.3	5234	157
298	0.21	0.09	5097	153
298	0.225	0.075	5045	151
298	0.24	0.06	5015	150
298	0.255	0.045	4986	150
298	0.27	0.03	4945	148
298	0.285	0.015	4901	147
298	0.3	0	4879	146
303	0	0.3	5701	171
303	0.21	0.09	5502	165
303	0.225	0.075	5445	163
303	0.24	0.06	5399	162
303	0.255	0.045	5346	160
303	0.27	0.03	5297	159
303	0.285	0.015	5247	157
303	0.3	0	5205	156
308	0	0.3	6405	192
308	0.21	0.09	6015	180
308	0.225	0.075	5886	177
308	0.24	0.06	5742	172
308	0.255	0.045	5662	170
308	0.27	0.03	5607	168
308	0.285	0.015	5545	166
308	0.3	0	5498	165
313	0	0.3	7625	229
313	0.21	0.09	6723	202
313	0.225	0.075	6545	196
313	0.24	0.06	6401	192
313	0.255	0.045	6297	189
313	0.27	0.03	6145	184
313	0.285	0.015	6061	182
313	0.3	0	5979	179
