Measured thermophysical data. Thermophysical properties of two PAG-derivative lubricants from high pressure acoustic measurements
Source: J. Chem. Eng. Data, 2003, 10.1021/je034036t
Compound 1: 2,5,8,11-tetraoxadodecane, C8H18O4, InChI=1S/C8H18O4/c1-9-3-5-11-7-8-12-6-4-10-2/h3-8H2,1-2H3, purity 99%
Compound 2: 2,5,8,11,14-pentaoxapentadecane, C10H22O5, InChI=1S/C10H22O5/c1-11-3-5-13-7-9-15-10-8-14-6-4-12-2/h3-10H2,1-2H3, purity 99%

System: 2,5,8,11-tetraoxadodecane; phases: Liquid
Property: Speed of sound, m/s (Liquid); method: Pulse-echo method
Temperature, K	Pressure, kPa	Speed of sound, m/s	uncertainty
293.15	100	1361.9	1.8
293.15	10000	1403.1	1.9
293.15	20000	1442.5	1.9
293.15	30000	1479.3	1.9
293.15	40000	1514.7	2
293.15	50000	1547.8	2
293.15	60000	1579.5	2
293.15	70000	1610	2.1
293.15	80000	1639.3	2.1
293.15	90000	1667.4	2.1
293.15	100000	1694.6	2.1
303.15	100	1323.2	1.8
303.15	10000	1366.5	1.8
303.15	20000	1407.2	1.9
303.15	30000	1445.2	1.9
303.15	40000	1481.6	1.9
303.15	50000	1515.7	2
303.15	60000	1548.2	2
303.15	70000	1579.4	2
303.15	80000	1609.3	2.1
303.15	90000	1638.2	2.1
303.15	100000	1665.9	2.1
313.15	100	1285.1	1.8
313.15	10000	1330	1.8
313.15	20000	1372.2	1.8
313.15	30000	1411.8	1.9
313.15	40000	1448.8	1.9
313.15	50000	1484.1	1.9
313.15	60000	1517.5	2
313.15	70000	1549.7	2
313.15	80000	1580.3	2
313.15	90000	1609.9	2.1
313.15	100000	1638.1	2.1
323.15	100	1247.7	1.7
323.15	10000	1294.6	1.8
323.15	20000	1338.5	1.8
323.15	30000	1379.1	1.8
323.15	40000	1417.3	1.9
323.15	50000	1453.6	1.9
323.15	60000	1487.9	1.9
323.15	70000	1520.7	2
323.15	80000	1552	2
323.15	90000	1581.9	2
323.15	100000	1610.8	2.1
333.15	100	1210.9	1.7
333.15	10000	1259.5	1.7
333.15	20000	1304.8	1.8
333.15	30000	1346.9	1.8
333.15	40000	1386.3	1.9
333.15	50000	1423.4	1.9
333.15	60000	1458.8	1.9
333.15	70000	1492.1	2
333.15	80000	1524.3	2
333.15	90000	1554.8	2
333.15	100000	1584.3	2
343.15	100	1174.6	1.7
343.15	10000	1225.1	1.7
343.15	20000	1272	1.8
343.15	30000	1315.6	1.8
343.15	40000	1356.2	1.8
343.15	50000	1394.1	1.9
343.15	60000	1430.3	1.9
343.15	70000	1464.6	1.9
343.15	80000	1497.2	2
343.15	90000	1528.4	2
343.15	100000	1558.5	2
353.15	100	1138.7	1.7
353.15	10000	1191.5	1.7
353.15	20000	1240	1.7
353.15	30000	1284.6	1.8
353.15	40000	1326.2	1.8
353.15	50000	1365.6	1.8
353.15	60000	1402.4	1.9
353.15	70000	1437.6	1.9
353.15	80000	1470.9	1.9
353.15	90000	1502.6	2
353.15	100000	1533.4	2

System: 2,5,8,11,14-pentaoxapentadecane; phases: Liquid
Property: Speed of sound, m/s (Liquid); method: Pulse-echo method
Temperature, K	Pressure, kPa	Speed of sound, m/s	uncertainty
293.15	100	1400.2	1.9
293.15	10000	1439.3	1.9
293.15	20000	1477.3	1.9
293.15	30000	1512.3	2
293.15	40000	1546.2	2
293.15	50000	1578.2	2
293.15	60000	1609.1	2.1
293.15	70000	1638.4	2.1
293.15	80000	1666.8	2.1
293.15	90000	1694.2	2.1
293.15	100000	1720.6	2.2
303.15	100	1361.6	1.8
303.15	10000	1402.8	1.9
303.15	20000	1441.7	1.9
303.15	30000	1478.2	1.9
303.15	40000	1513	2
303.15	50000	1546.1	2
303.15	60000	1577.7	2
303.15	70000	1607.6	2.1
303.15	80000	1637	2.1
303.15	90000	1664.9	2.1
303.15	100000	1692	2.1
313.15	100	1324.5	1.8
313.15	10000	1367	1.8
313.15	20000	1407.3	1.9
313.15	30000	1444.9	1.9
313.15	40000	1480.9	1.9
313.15	50000	1514.8	2
313.15	60000	1547.2	2
313.15	70000	1578.1	2
313.15	80000	1607.8	2.1
313.15	90000	1636.4	2.1
313.15	100000	1663.9	2.1
323.15	100	1288	1.8
323.15	10000	1332.1	1.8
323.15	20000	1373.8	1.8
323.15	30000	1412.5	1.9
323.15	40000	1449.5	1.9
323.15	50000	1484.2	1.9
323.15	60000	1517.4	2
323.15	70000	1548.8	2
323.15	80000	1579.3	2
323.15	90000	1608.6	2.1
323.15	100000	1636.7	2.1
333.15	100	1252	1.7
333.15	10000	1297.9	1.8
333.15	20000	1340.7	1.8
333.15	30000	1380.8	1.8
333.15	40000	1418.3	1.9
333.15	50000	1454.2	1.9
333.15	60000	1488.4	1.9
333.15	70000	1520.7	2
333.15	80000	1551.9	2
333.15	90000	1581.5	2
333.15	100000	1610.2	2.1
343.15	100	1216.6	1.7
343.15	10000	1264.2	1.7
343.15	20000	1308.6	1.8
343.15	30000	1349.9	1.8
343.15	40000	1388.8	1.9
343.15	50000	1425.3	1.9
343.15	60000	1460.1	1.9
343.15	70000	1493.1	2
343.15	80000	1524.7	2
343.15	90000	1555.3	2
343.15	100000	1584.4	2
353.15	100	1181.6	1.7
353.15	10000	1231.2	1.7
353.15	20000	1276.9	1.8
353.15	30000	1319.8	1.8
353.15	40000	1359.8	1.8
353.15	50000	1397.1	1.9
353.15	60000	1432.8	1.9
353.15	70000	1466.5	1.9
353.15	80000	1498.9	2
353.15	90000	1529.8	2
353.15	100000	1559.5	2
