Measured thermophysical data. Experimental Solid + Liquid Equilibria and Excess Molar Volume of Alkanol + Octylamine Mixtures. Analysis in Terms of ERAS, DISQUAC, and Modified UNIFAC
Source: J. Chem. Eng. Data, 2004, 10.1021/je0301895
Compound 1: 1-octanamine, C8H19N, InChI=1S/C8H19N/c1-2-3-4-5-6-7-8-9/h2-9H2,1H3
Compound 2: octan-1-ol, C8H18O, InChI=1S/C8H18O/c1-2-3-4-5-6-7-8-9/h9H,2-8H2,1H3
Compound 3: nonan-1-ol, C9H20O, InChI=1S/C9H20O/c1-2-3-4-5-6-7-8-9-10/h10H,2-9H2,1H3
Compound 4: decan-1-ol, C10H22O, InChI=1S/C10H22O/c1-2-3-4-5-6-7-8-9-10-11/h11H,2-10H2,1H3
Compound 5: 1-undecanol, C11H24O, InChI=1S/C11H24O/c1-2-3-4-5-6-7-8-9-10-11-12/h12H,2-11H2,1H3

System: 1-octanamine; phases: Liquid
Property: Mass density, kg/m3 (Liquid); method: VIBTUB:mpoint:UFactor:4
Temperature, K	Pressure, kPa	Mass density, kg/m3	uncertainty
298.15	101.325	779.95	0.84

System: 1-octanamine; phases: Crystal, Liquid
Property: Solid-liquid equilibrium temperature, K (Crystal); method: VISOBS:UFactor:2
Pressure, kPa	Solid-liquid equilibrium temperature, K	uncertainty
101.3	273.37	0.4

System: octan-1-ol; phases: Liquid
Property: Mass density, kg/m3 (Liquid); method: VIBTUB:mpoint:UFactor:4
Temperature, K	Pressure, kPa	Mass density, kg/m3	uncertainty
298.15	101.325	822.21	0.28

System: octan-1-ol; phases: Crystal, Liquid
Property: Solid-liquid equilibrium temperature, K (Crystal); method: VISOBS::UFactor:2
Pressure, kPa	Solid-liquid equilibrium temperature, K	uncertainty
101.3	258.03	0.4

System: nonan-1-ol; phases: Liquid
Property: Mass density, kg/m3 (Liquid); method: VIBTUB:mpoint:UFactor:4
Temperature, K	Pressure, kPa	Mass density, kg/m3	uncertainty
298.15	101.325	824.6	0.28

System: nonan-1-ol; phases: Crystal, Liquid
Property: Solid-liquid equilibrium temperature, K (Crystal); method: VISOBS::UFactor:2
Pressure, kPa	Solid-liquid equilibrium temperature, K	uncertainty
101.3	268.1	0.4

System: decan-1-ol; phases: Liquid
Property: Mass density, kg/m3 (Liquid); method: VIBTUB:mpoint:UFactor:4
Temperature, K	Pressure, kPa	Mass density, kg/m3	uncertainty
298.15	101.325	826.64	0.28

System: decan-1-ol; phases: Crystal, Liquid
Property: Solid-liquid equilibrium temperature, K (Crystal); method: VISOBS::UFactor:2
Pressure, kPa	Solid-liquid equilibrium temperature, K	uncertainty
101.3	278.67	0.4

System: 1-undecanol; phases: Liquid
Property: Mass density, kg/m3 (Liquid); method: VIBTUB:mpoint:UFactor:4
Temperature, K	Pressure, kPa	Mass density, kg/m3	uncertainty
298.15	101.325	829.34	0.28

System: 1-undecanol; phases: Crystal, Liquid
Property: Solid-liquid equilibrium temperature, K (Crystal); method: VISOBS::UFactor:4
Pressure, kPa	Solid-liquid equilibrium temperature, K	uncertainty
101.3	289.63	0.8

System: 1-octanamine + octan-1-ol; phases: Liquid, Crystal
Fixed: Pressure, kPa = 101.3
Property: Solid-liquid equilibrium temperature, K (Liquid); method: VISOBS:UFactor:2
Mole fraction of octan-1-ol	Solid-liquid equilibrium temperature, K	uncertainty
0	273.37	0.4
0.0285	273.26	0.4
0.0535	272.93	0.4
0.0847	272.2	0.4
0.1097	271.87	0.4
0.1427	271.1	0.4
0.1709	270.72	0.4
0.1876	270.17	0.4
0.2277	269.27	0.4
0.2368	268.79	0.4
0.2486	268.45	0.4
0.28	267.7	0.4
0.2934	267.27	0.4
0.311	266.85	0.4
0.3395	266.17	0.4
0.3655	265.88	0.4

System: 1-octanamine + octan-1-ol; phases: Liquid, Crystal of intercomponent compound 1
Fixed: Pressure, kPa = 101.3
Property: Solid-liquid equilibrium temperature, K (Liquid); method: VISOBS:UFactor:2
Mole fraction of octan-1-ol	Solid-liquid equilibrium temperature, K	uncertainty
0.3949	266.03	0.4
0.4299	266.4	0.4
0.4567	266.85	0.4
0.4874	267.22	0.4
0.5161	267.32	0.4
0.5462	267.18	0.4
0.5778	266.77	0.4
0.6034	266.36	0.4
0.6338	265.71	0.4
0.6673	264.83	0.4
0.6892	264.1	0.4
0.717	263.14	0.4
0.7437	261.93	0.4
0.771	260.35	0.4
0.8031	258.35	0.4
0.8369	255.98	0.4

System: 1-octanamine + octan-1-ol; phases: Liquid, Crystal
Fixed: Pressure, kPa = 101.3
Property: Solid-liquid equilibrium temperature, K (Liquid); method: VISOBS:UFactor:2
Mole fraction of octan-1-ol	Solid-liquid equilibrium temperature, K	uncertainty
0.8713	253.88	0.4
0.8844	254.45	0.4
0.9022	255.15	0.4
0.9221	255.98	0.4
0.9381	256.6	0.4
0.9686	257.45	0.4
1	258.03	0.4

System: 1-octanamine + octan-1-ol; phases: Liquid
Fixed: Temperature, K = 298.15
Fixed: Pressure, kPa = 101
Property: Excess molar volume, m3/mol (Liquid); method: SAME:UFactor:2
Mole fraction of octan-1-ol	Excess molar volume, m3/mol	uncertainty
0.043	-1.921e-07	2.12e-08
0.13	-4.625e-07	2.28e-08
0.2358	-7.264e-07	2.44e-08
0.3041	-8.581e-07	2.51e-08
0.347	-9.393e-07	2.56e-08
0.4158	-1.0244e-06	2.61e-08
0.4571	-1.0621e-06	2.64e-08
0.5174	-1.0712e-06	2.64e-08
0.554	-1.0682e-06	2.64e-08
0.5877	-1.0515e-06	2.63e-08
0.6385	-1.0123e-06	2.61e-08
0.709	-9.034e-07	2.54e-08
0.7589	-8.079e-07	2.48e-08
0.875	-5.102e-07	2.31e-08
0.929	-3.207e-07	2.19e-08
0.992	-7.24e-08	2.04e-08

System: 1-octanamine + nonan-1-ol; phases: Liquid, Crystal
Fixed: Pressure, kPa = 101.3
Property: Solid-liquid equilibrium temperature, K (Liquid); method: VISOBS:UFactor:2
Mole fraction of nonan-1-ol	Solid-liquid equilibrium temperature, K	uncertainty
0	273.37	0.4
0.0964	271.21	0.4
0.1339	269.53	0.4

System: 1-octanamine + nonan-1-ol; phases: Liquid, Crystal of intercomponent compound 1
Fixed: Pressure, kPa = 101.3
Property: Solid-liquid equilibrium temperature, K (Liquid); method: VISOBS:UFactor:2
Mole fraction of nonan-1-ol	Solid-liquid equilibrium temperature, K	uncertainty
0.2182	266.49	0.4
0.2712	268.26	0.4
0.3384	269.85	0.4
0.3888	270.57	0.4
0.4284	270.86	0.4
0.4837	271.05	0.4
0.5079	271.15	0.4
0.5347	271.12	0.4
0.6054	270.68	0.4
0.6408	270.15	0.4
0.6852	268.99	0.4
0.7423	266.92	0.4
0.8157	258.35	0.4

System: 1-octanamine + nonan-1-ol; phases: Liquid, Crystal
Fixed: Pressure, kPa = 101.3
Property: Solid-liquid equilibrium temperature, K (Liquid); method: VISOBS:UFactor:2
Mole fraction of nonan-1-ol	Solid-liquid equilibrium temperature, K	uncertainty
0.8594	258.68	0.4
0.9446	266.04	0.4
1	268.1	0.4

System: 1-octanamine + nonan-1-ol; phases: Liquid
Fixed: Temperature, K = 298.15
Fixed: Pressure, kPa = 101
Property: Excess molar volume, m3/mol (Liquid); method: SAME:UFactor:2
Mole fraction of nonan-1-ol	Excess molar volume, m3/mol	uncertainty
0.0489	-1.701e-07	2.1e-08
0.1572	-4.742e-07	2.28e-08
0.2155	-6.354e-07	2.38e-08
0.2763	-7.661e-07	2.46e-08
0.3283	-8.704e-07	2.52e-08
0.356	-9.277e-07	2.56e-08
0.4125	-1.0052e-06	2.6e-08
0.4566	-1.0434e-06	2.63e-08
0.4998	-1.0553e-06	2.63e-08
0.5326	-1.057e-06	2.63e-08
0.5732	-1.049e-06	2.63e-08
0.6064	-1.0157e-06	2.61e-08
0.637	-9.761e-07	2.59e-08
0.6602	-9.511e-07	2.57e-08
0.7321	-8.074e-07	2.48e-08
0.7905	-6.629e-07	2.4e-08
0.8753	-4.313e-07	2.26e-08
0.961	-1.661e-07	2.1e-08

System: 1-octanamine + decan-1-ol; phases: Liquid, Crystal
Fixed: Pressure, kPa = 101.3
Property: Solid-liquid equilibrium temperature, K (Liquid); method: VISOBS:UFactor:2
Mole fraction of decan-1-ol	Solid-liquid equilibrium temperature, K	uncertainty
0	273.37	0.4
0.0239	272.43	0.4
0.0467	271.83	0.4
0.0655	271.27	0.4
0.0932	270.53	0.4
0.126	269.75	0.4
0.1448	269.17	0.4

System: 1-octanamine + decan-1-ol; phases: Liquid, Crystal of intercomponent compound 1
Fixed: Pressure, kPa = 101.3
Property: Solid-liquid equilibrium temperature, K (Liquid); method: VISOBS:UFactor:2
Mole fraction of decan-1-ol	Solid-liquid equilibrium temperature, K	uncertainty
0.162	269.04	0.4
0.1797	269.85	0.4
0.2119	271.35	0.4
0.2543	273.1	0.4
0.27	273.57	0.4
0.2928	274.22	0.4
0.3139	274.95	0.4
0.3342	275.55	0.4
0.3646	276.2	0.4
0.3903	276.67	0.4
0.4139	276.98	0.4
0.4462	277.28	0.4
0.4743	277.45	0.4
0.5009	277.42	0.4
0.5173	277.37	0.4
0.5342	277.26	0.4
0.5504	277.08	0.4
0.5715	276.87	0.4
0.5875	276.66	0.4
0.6087	276.32	0.4
0.6318	275.83	0.4
0.6589	275.32	0.4
0.686	274.47	0.4
0.7177	273.41	0.4
0.7526	271.85	0.4

System: 1-octanamine + decan-1-ol; phases: Liquid, Crystal
Fixed: Pressure, kPa = 101.3
Property: Solid-liquid equilibrium temperature, K (Liquid); method: VISOBS:UFactor:2
Mole fraction of decan-1-ol	Solid-liquid equilibrium temperature, K	uncertainty
0.7706	271.2	0.4
0.7856	271.76	0.4
0.8071	272.72	0.4
0.8392	273.64	0.4
0.8717	274.5	0.4
0.8919	275.21	0.4
0.9148	275.97	0.4
0.9433	276.76	0.4
0.9655	277.48	0.4
1	278.67	0.4

System: 1-octanamine + decan-1-ol; phases: Liquid
Fixed: Temperature, K = 298.15
Fixed: Pressure, kPa = 101
Property: Excess molar volume, m3/mol (Liquid); method: SAME:UFactor:2
Mole fraction of decan-1-ol	Excess molar volume, m3/mol	uncertainty
0.0791	-2.401e-07	2.14e-08
0.1302	-3.963e-07	2.24e-08
0.2056	-6.005e-07	2.36e-08
0.2788	-7.66e-07	2.46e-08
0.3263	-8.612e-07	2.52e-08
0.3863	-9.584e-07	2.58e-08
0.422	-1.0023e-06	2.6e-08
0.4623	-1.0302e-06	2.62e-08
0.5138	-1.0425e-06	2.63e-08
0.5525	-1.0393e-06	2.62e-08
0.5811	-1.0231e-06	2.61e-08
0.6153	-9.952e-07	2.6e-08
0.6452	-9.534e-07	2.57e-08
0.6956	-8.646e-07	2.52e-08
0.7565	-7.349e-07	2.44e-08
0.8463	-4.965e-07	2.3e-08
0.9025	-3.208e-07	2.19e-08
0.97	-1.278e-07	2.08e-08

System: 1-octanamine + 1-undecanol; phases: Liquid, Crystal
Fixed: Pressure, kPa = 101.3
Property: Solid-liquid equilibrium temperature, K (Liquid); method: VISOBS:UFactor:2
Mole fraction of 1-undecanol	Solid-liquid equilibrium temperature, K	uncertainty
0	273.37	0.4
0.037	271.97	0.4
0.0642	271.31	0.4
0.1033	270.3	0.4

System: 1-octanamine + 1-undecanol; phases: Liquid, Crystal of intercomponent compound 1
Fixed: Pressure, kPa = 101.3
Property: Solid-liquid equilibrium temperature, K (Liquid); method: VISOBS:UFactor:2
Mole fraction of 1-undecanol	Solid-liquid equilibrium temperature, K	uncertainty
0.1332	269.44	0.4
0.1933	273.23	0.4
0.2519	275.68	0.4
0.3184	277.13	0.4
0.3652	277.74	0.4
0.4016	278.65	0.4
0.4425	278.94	0.4
0.5109	279.01	0.4
0.5609	278.69	0.4
0.5965	278.2	0.4
0.6561	277.03	0.4

System: 1-octanamine + 1-undecanol; phases: Liquid, Crystal
Fixed: Pressure, kPa = 101.3
Property: Solid-liquid equilibrium temperature, K (Liquid); method: VISOBS:UFactor:4
Mole fraction of 1-undecanol	Solid-liquid equilibrium temperature, K	uncertainty
0.7002	276.75	0.8
0.7411	278.71	0.8
0.7727	280.57	0.8
0.858	284.1	0.8
0.8974	286.12	0.8
0.9537	287.72	0.8
1	289.63	0.8

System: 1-octanamine + 1-undecanol; phases: Liquid
Fixed: Temperature, K = 298.15
Fixed: Pressure, kPa = 101
Property: Excess molar volume, m3/mol (Liquid); method: SAME:UFactor:2
Mole fraction of 1-undecanol	Excess molar volume, m3/mol	uncertainty
0.0752	-2.147e-07	2.13e-08
0.1043	-2.984e-07	2.18e-08
0.1334	-3.833e-07	2.23e-08
0.2069	-5.724e-07	2.34e-08
0.3217	-8.29e-07	2.5e-08
0.4007	-9.437e-07	2.57e-08
0.4491	-9.846e-07	2.59e-08
0.4941	-1.0081e-06	2.6e-08
0.5463	-1.0078e-06	2.6e-08
0.5958	-9.803e-07	2.59e-08
0.639	-9.391e-07	2.56e-08
0.6894	-8.58e-07	2.51e-08
0.7458	-7.411e-07	2.44e-08
0.7961	-6.06e-07	2.36e-08
0.873	-4.122e-07	2.25e-08
0.9158	-2.804e-07	2.17e-08
