Measured thermophysical data. Measurement and Correlation of the Solid-Liquid-Gas Equilibria for the Carbon Dioxide + S-(+)-Ibuprofen and Carbon Dioxide + RS-(+/-)-Ibuprofen Systems
Source: J. Chem. Eng. Data, 2005, 10.1021/je034228o
Compound 1: carbon dioxide, CO2, InChI=1S/CO2/c2-1-3
Compound 2: benzoic acid, C7H6O2, InChI=1S/C7H6O2/c8-7(9)6-4-2-1-3-5-6/h1-5H,(H,8,9)
Compound 3: ibuprofen, C13H18O2, InChI=1S/C13H18O2/c1-9(2)8-11-4-6-12(7-5-11)10(3)13(14)15/h4-7,9-10H,8H2,1-3H3,(H,14,15), purity 99.94%
Compound 4: (S)-2-(4-isobutylphenyl)propanoic acid, C13H18O2, InChI=1S/C13H18O2/c1-9(2)8-11-4-6-12(7-5-11)10(3)13(14)15/h4-7,9-10H,8H2,1-3H3,(H,14,15)/t10-/m0/s1

System: ibuprofen; phases: Crystal, Liquid, Air at 1 atmosphere
Property: Normal melting temperature, K (Crystal); method: DTA
Normal melting temperature, K	uncertainty
349.2	0.5

System: (S)-2-(4-isobutylphenyl)propanoic acid; phases: Crystal, Liquid, Air at 1 atmosphere
Property: Normal melting temperature, K (Crystal); method: DTA
Normal melting temperature, K	uncertainty
324.2	0.5

System: carbon dioxide + (S)-2-(4-isobutylphenyl)propanoic acid; phases: Liquid, Crystal, Gas
Property: Vapor or sublimation pressure, kPa (Liquid); method: CCELL:UFactor:8
Temperature, K	Vapor or sublimation pressure, kPa	uncertainty
293.1	4790	230
295.1	4620	230
297	4490	230
303	3820	220
308	3250	220
313	2250	210
318	1160	210
324.2	100	200

System: carbon dioxide + ibuprofen; phases: Liquid, Crystal, Gas
Property: Vapor or sublimation pressure, kPa (Liquid); method: CCELL:UFactor:16
Temperature, K	Vapor or sublimation pressure, kPa	uncertainty
320.5	13100	3000
320.5	20300	8100
320.5	25900	13700
320.7	12300	3000
320.7	20700	10000
321	15800	5000
321	17600	5000
321.7	10100	800
323.1	8830	460
328.2	6970	380
333.2	5210	320
338.2	3770	270
343.3	1950	230
349.2	100	210

System: benzoic acid + carbon dioxide; phases: Liquid, Crystal, Gas
Property: Vapor or sublimation pressure, kPa (Liquid); method: CCELL:UFactor:8
Temperature, K	Vapor or sublimation pressure, kPa	uncertainty
371	22700	1000
372.2	17800	800
373.2	15000	700
378.4	11300	400
379.1	10600	400
382.9	7690	300
388.9	3460	250
395.2	100	230
