Measured thermophysical data. Fully Automated Workstation for Liquid-Liquid Equilibrium Measurements
Source: J. Chem. Eng. Data, 2003, 10.1021/je0340452
Compound 1: acetone, C3H6O, InChI=1S/C3H6O/c1-3(2)4/h1-2H3
Compound 2: toluene, C7H8, InChI=1S/C7H8/c1-7-5-3-2-4-6-7/h2-6H,1H3
Compound 3: water, H2O, InChI=1S/H2O/h1H2
Compound 4: 1-aza-2-cycloheptanone, C6H11NO, InChI=1S/C6H11NO/c8-6-4-2-1-3-5-7-6/h1-5H2,(H,7,8)
Compound 5: benzene, C6H6, InChI=1S/C6H6/c1-2-4-6-5-3-1/h1-6H

System: acetone + toluene + water; phases: Liquid, Liquid
Fixed: Pressure, kPa = 101
Fixed: Temperature, K = 293.15
Property: Mass fraction of acetone (Liquid); method: automated workstation
Mass fraction of acetone	Mass fraction of acetone	uncertainty
0.0205	0.0294	0.0041
0.0406	0.0523	0.0042
0.0812	0.0958	0.0045
0.2611	0.256	0.007
0.3975	0.334	0.008
0.5437	0.415	0.01

System: 1-aza-2-cycloheptanone + toluene + water; phases: Liquid, Liquid
Fixed: Pressure, kPa = 101
Fixed: Temperature, K = 313.15
Property: Mass fraction of 1-aza-2-cycloheptanone (Liquid); method: automated workstation
Mass fraction of 1-aza-2-cycloheptanone	Mass fraction of 1-aza-2-cycloheptanone	uncertainty
0.0037	0.0369	0.006
0.0082	0.0697	0.006
0.019	0.146	0.006
0.0419	0.279	0.008
0.0737	0.394	0.009
0.1547	0.541	0.011
0.0186	0.142	0.006
0.019	0.145	0.006
0.0189	0.142	0.006
0.0192	0.14	0.005
0.0186	0.143	0.006
0.0185	0.141	0.005
0.019	0.145	0.006

System: 1-aza-2-cycloheptanone + toluene + water; phases: Liquid, Liquid
Fixed: Pressure, kPa = 101
Fixed: Temperature, K = 313.15
Property: Mass fraction of 1-aza-2-cycloheptanone (Liquid); method: jacketed glass cell
Mass fraction of 1-aza-2-cycloheptanone	Mass fraction of 1-aza-2-cycloheptanone	uncertainty
0.001	0.0092	0.0003
0.0011	0.0105	0.0003
0.0048	0.0402	0.0012
0.0049	0.0446	0.0013
0.0098	0.0806	0.0024
0.0121	0.0889	0.0027
0.0283	0.179	0.005
0.0254	0.184	0.006
0.0428	0.278	0.008
0.0491	0.294	0.009
0.0741	0.392	0.012
0.125	0.5	0.02
0.1323	0.505	0.015
0.1234	0.51	0.02
0.1564	0.518	0.014
0.2654	0.561	0.013
0.2622	0.565	0.013

System: benzene + 1-aza-2-cycloheptanone + water; phases: Liquid, Liquid
Fixed: Pressure, kPa = 101
Fixed: Temperature, K = 293.15
Property: Mass fraction of 1-aza-2-cycloheptanone (Liquid); method: automated workstation
Mass fraction of 1-aza-2-cycloheptanone	Mass fraction of 1-aza-2-cycloheptanone	uncertainty
0.0038	0.0363	0.0057
0.0094	0.0737	0.0053
0.0226	0.138	0.005
0.0547	0.242	0.007
0.1114	0.364	0.009
0.1882	0.517	0.011

System: benzene + 1-aza-2-cycloheptanone + water; phases: Liquid, Liquid
Fixed: Pressure, kPa = 101
Fixed: Temperature, K = 293.15
Property: Mass fraction of 1-aza-2-cycloheptanone (Liquid); method: jacketed glass cell
Mass fraction of 1-aza-2-cycloheptanone	Mass fraction of 1-aza-2-cycloheptanone	uncertainty
0.0008	0.0071	0.0002
0.0008	0.0072	0.0002
0.001	0.0104	0.0003
0.0055	0.0426	0.0013
0.0051	0.0447	0.0013
0.0053	0.0462	0.0014
0.0117	0.0833	0.0025
0.0115	0.0836	0.0025
0.0158	0.0943	0.0028
0.0284	0.17	0.0051
0.0327	0.172	0.0052
0.037	0.177	0.0053
0.0604	0.272	0.0082
0.0665	0.288	0.0086
0.1003	0.352	0.0106
0.0927	0.354	0.0106
0.0965	0.364	0.0109
0.1655	0.431	0.0129
0.1563	0.444	0.0133
0.1817	0.452	0.0136
0.1883	0.465	0.014
0.2761	0.533	0.014
0.2823	0.544	0.0137
