Measured thermophysical data. Experimental P-T- and Enthalpy-Increment Measurements of Trichlorofluoromethane, R-11 (x=0.83) + Chlorodifluoromethane, R-22 (1-x)
Source: J. Chem. Eng. Data, 2003, 10.1021/je0301040
Compound 1: trichlorofluoromethane, CCl3F, InChI=1S/CCl3F/c2-1(3,4)5, purity 99.9%
Compound 2: chlorodifluoromethane, CHClF2, InChI=1S/CHClF2/c2-1(3)4/h1H, purity 99.9%

System: chlorodifluoromethane + trichlorofluoromethane; phases: Liquid
Property: Molar enthalpy, kJ/mol (Liquid); method: Flow calorimetry
Temperature, K	Mole fraction of trichlorofluoromethane	Pressure, kPa	Molar enthalpy, kJ/mol	uncertainty
230.291	0.8294	6408	-7.59106	0.036

System: chlorodifluoromethane + trichlorofluoromethane; phases: Liquid
Property: Molar enthalpy, kJ/mol (Liquid); method: Flow calorimetry
Temperature, K	Mole fraction of trichlorofluoromethane	Pressure, kPa	Molar enthalpy, kJ/mol	uncertainty
231.342	0.8294	6412	-7.35685	0.036

System: chlorodifluoromethane + trichlorofluoromethane; phases: Liquid
Property: Molar enthalpy, kJ/mol (Liquid); method: Flow calorimetry
Temperature, K	Mole fraction of trichlorofluoromethane	Pressure, kPa	Molar enthalpy, kJ/mol	uncertainty
239.418	0.8294	6473	-6.47666	0.037

System: chlorodifluoromethane + trichlorofluoromethane; phases: Liquid
Property: Molar enthalpy, kJ/mol (Liquid); method: Flow calorimetry
Temperature, K	Mole fraction of trichlorofluoromethane	Pressure, kPa	Molar enthalpy, kJ/mol	uncertainty
271.589	0.8294	6512	-2.96874	0.042

System: chlorodifluoromethane + trichlorofluoromethane; phases: Liquid
Property: Molar enthalpy, kJ/mol (Liquid); method: Flow calorimetry
Temperature, K	Mole fraction of trichlorofluoromethane	Pressure, kPa	Molar enthalpy, kJ/mol	uncertainty
341.008	0.8294	6708	4.98907	0.053

System: chlorodifluoromethane + trichlorofluoromethane; phases: Liquid
Property: Molar enthalpy, kJ/mol (Liquid); method: Flow calorimetry
Temperature, K	Mole fraction of trichlorofluoromethane	Pressure, kPa	Molar enthalpy, kJ/mol	uncertainty
361.614	0.8294	6518	7.40704	0.055

System: chlorodifluoromethane + trichlorofluoromethane; phases: Liquid
Property: Molar enthalpy, kJ/mol (Liquid); method: Flow calorimetry
Temperature, K	Mole fraction of trichlorofluoromethane	Pressure, kPa	Molar enthalpy, kJ/mol	uncertainty
365.572	0.8294	6498	8.0273	0.057

System: chlorodifluoromethane + trichlorofluoromethane; phases: Liquid
Property: Molar enthalpy, kJ/mol (Liquid); method: Flow calorimetry
Temperature, K	Mole fraction of trichlorofluoromethane	Pressure, kPa	Molar enthalpy, kJ/mol	uncertainty
390.656	0.8294	6528	10.8326	0.06

System: chlorodifluoromethane + trichlorofluoromethane; phases: Liquid
Property: Molar enthalpy, kJ/mol (Liquid); method: Flow calorimetry
Temperature, K	Mole fraction of trichlorofluoromethane	Pressure, kPa	Molar enthalpy, kJ/mol	uncertainty
393.65	0.8294	6514	11.3242	0.06

System: chlorodifluoromethane + trichlorofluoromethane; phases: Liquid
Property: Molar enthalpy, kJ/mol (Liquid); method: Flow calorimetry
Temperature, K	Mole fraction of trichlorofluoromethane	Pressure, kPa	Molar enthalpy, kJ/mol	uncertainty
416.865	0.8294	6490	14.21956	0.064

System: chlorodifluoromethane + trichlorofluoromethane; phases: Liquid
Property: Molar enthalpy, kJ/mol (Liquid); method: Flow calorimetry
Temperature, K	Mole fraction of trichlorofluoromethane	Pressure, kPa	Molar enthalpy, kJ/mol	uncertainty
229.692	0.8294	4423	-7.48425	0.036

System: chlorodifluoromethane + trichlorofluoromethane; phases: Liquid
Property: Molar enthalpy, kJ/mol (Liquid); method: Flow calorimetry
Temperature, K	Mole fraction of trichlorofluoromethane	Pressure, kPa	Molar enthalpy, kJ/mol	uncertainty
269.756	0.8294	4423	-3.04723	0.041

System: chlorodifluoromethane + trichlorofluoromethane; phases: Liquid
Property: Molar enthalpy, kJ/mol (Liquid); method: Flow calorimetry
Temperature, K	Mole fraction of trichlorofluoromethane	Pressure, kPa	Molar enthalpy, kJ/mol	uncertainty
228.576	0.8294	3030	-7.67084	0.035

System: chlorodifluoromethane + trichlorofluoromethane; phases: Liquid
Property: Molar enthalpy, kJ/mol (Liquid); method: Flow calorimetry
Temperature, K	Mole fraction of trichlorofluoromethane	Pressure, kPa	Molar enthalpy, kJ/mol	uncertainty
271.854	0.8294	3458	-2.93142	0.042

System: chlorodifluoromethane + trichlorofluoromethane; phases: Liquid
Property: Molar enthalpy, kJ/mol (Liquid); method: Flow calorimetry
Temperature, K	Mole fraction of trichlorofluoromethane	Pressure, kPa	Molar enthalpy, kJ/mol	uncertainty
390.987	0.831	2667	12.0576	0.061

System: chlorodifluoromethane + trichlorofluoromethane; phases: Liquid
Property: Molar enthalpy, kJ/mol (Liquid); method: Flow calorimetry
Temperature, K	Mole fraction of trichlorofluoromethane	Pressure, kPa	Molar enthalpy, kJ/mol	uncertainty
392.502	0.831	3354	12.1181	0.061

System: chlorodifluoromethane + trichlorofluoromethane; phases: Liquid
Property: Molar enthalpy, kJ/mol (Liquid); method: Flow calorimetry
Temperature, K	Mole fraction of trichlorofluoromethane	Pressure, kPa	Molar enthalpy, kJ/mol	uncertainty
465.649	0.831	4721	28.87046	0.072

System: chlorodifluoromethane + trichlorofluoromethane; phases: Liquid
Property: Molar enthalpy, kJ/mol (Liquid); method: Flow calorimetry
Temperature, K	Mole fraction of trichlorofluoromethane	Pressure, kPa	Molar enthalpy, kJ/mol	uncertainty
471.08	0.831	5498	26.96345	0.073

System: chlorodifluoromethane + trichlorofluoromethane; phases: Liquid
Property: Molar enthalpy, kJ/mol (Liquid); method: Flow calorimetry
Temperature, K	Mole fraction of trichlorofluoromethane	Pressure, kPa	Molar enthalpy, kJ/mol	uncertainty
472.788	0.831	6399	24.23362	0.073

System: chlorodifluoromethane + trichlorofluoromethane; phases: Gas
Property: Molar enthalpy, kJ/mol (Gas); method: Flow calorimetry
Temperature, K	Mole fraction of trichlorofluoromethane	Pressure, kPa	Molar enthalpy, kJ/mol	uncertainty
389.703	0.831	751	29.00309	0.103

System: chlorodifluoromethane + trichlorofluoromethane; phases: Gas
Property: Molar enthalpy, kJ/mol (Gas); method: Flow calorimetry
Temperature, K	Mole fraction of trichlorofluoromethane	Pressure, kPa	Molar enthalpy, kJ/mol	uncertainty
390.399	0.831	1270	27.90343	0.102

System: chlorodifluoromethane + trichlorofluoromethane; phases: Gas
Property: Molar enthalpy, kJ/mol (Gas); method: Flow calorimetry
Temperature, K	Mole fraction of trichlorofluoromethane	Pressure, kPa	Molar enthalpy, kJ/mol	uncertainty
404.861	0.831	737	30.52896	0.109

System: chlorodifluoromethane + trichlorofluoromethane; phases: Gas
Property: Molar enthalpy, kJ/mol (Gas); method: Flow calorimetry
Temperature, K	Mole fraction of trichlorofluoromethane	Pressure, kPa	Molar enthalpy, kJ/mol	uncertainty
405.894	0.831	1251	29.94951	0.108

System: chlorodifluoromethane + trichlorofluoromethane; phases: Gas
Property: Molar enthalpy, kJ/mol (Gas); method: Flow calorimetry
Temperature, K	Mole fraction of trichlorofluoromethane	Pressure, kPa	Molar enthalpy, kJ/mol	uncertainty
456.531	0.831	3200	31.64149	0.125

System: chlorodifluoromethane + trichlorofluoromethane; phases: Liquid
Fixed: Mole fraction of trichlorofluoromethane = 0.8336
Property: Mass density, kg/m3 (Liquid); method: Pycnometric method
Temperature, K	Pressure, kPa	Mass density, kg/m3	uncertainty
230.003	25860.3	1641.63	1.83
230.007	2374.4	1607.47	2.02
230.007	3067	1608.63	2.01
230.009	2689.9	1608.01	2.01
230.009	65252	1686.03	1.71
230.011	2033.3	1606.97	2.02
230.012	12706.8	1623.4	1.91
230.013	668.5	1604.47	2.03
230.013	1004	1605.02	2.03
230.014	3637.3	1609.58	2.01
230.016	1691.3	1606.39	2.02
230.018	51629	1672.95	1.75
230.019	38512.6	1657.76	1.8
269.993	2096.8	1502.82	1.87
269.993	41932.9	1573.88	1.33
269.994	21561.2	1541.21	1.45
269.995	2410	1503.54	1.87
269.995	35270.8	1563.81	1.36
269.996	3854.5	1506.62	1.85
269.997	1383.8	1501.23	1.87
269.997	7625.3	1514.59	1.6
269.997	62210.6	1601.52	1.29
269.999	696	1499.67	1.89
269.999	1081	1500.54	1.88
269.999	2708.1	1504.16	1.86
269.999	48894.2	1583.8	1.31
270	378	1498.95	1.9
270.001	3130	1505.05	1.86
270.002	14726.5	1528.68	1.75
270.003	55534.7	1592.86	1.29
270.004	1742	1502.02	1.88
270.004	27467.1	1551.32	1.66
298.141	3032.4	1445.59	1.78
298.142	2728.2	1444.75	1.79
298.143	1069.1	1439.09	1.82
298.143	1772.4	1441.18	1.81
298.144	49069.1	1542.62	1.4
298.144	63135	1564.13	1.38
298.145	2113.1	1442.22	1.8
298.145	21180	1490.62	1.56
298.146	3541.1	1447.03	1.78
298.146	14255.5	1474.84	1.63
298.147	390.2	1436.97	1.83
298.147	717.7	1438.05	1.83
298.147	7060.4	1456.68	1.71
298.147	27633.6	1504	1.51
298.147	35294.9	1518.86	1.46
298.148	2381.3	1443.01	1.79
298.148	42223.8	1531.13	1.44
298.148	56475.4	1554.44	1.39
298.148	67869.7	1570.81	1.5
298.149	1383.5	1440.04	1.81
298.149	2409.4	1443.8	1.79
319.984	1419.4	1381.39	2.12
319.984	2419.9	1385.12	2.1
319.985	27630.3	1456.91	1.69
319.985	49603.4	1501.44	1.57
319.985	66513.9	1534.42	1.55
319.986	20936.3	1440.83	1.76
319.987	690.7	1378.66	2.14
319.987	1087.6	1380.16	2.13
319.987	1721.1	1382.53	2.11
319.987	2054.4	1383.74	2.1
319.987	2726	1386.19	2.09
319.987	3805.2	1390.08	2.07
319.987	7368.4	1402.12	1.97
319.987	35180.1	1473.5	1.64
319.987	42217.8	1486.74	1.6
319.988	56548.8	1513.51	1.56
319.989	3165.8	1387.81	2.08
319.989	13992.8	1422.16	1.85
319.99	62595.1	1523.41	1.58
349.975	1087.3	1291.23	2.29
349.975	2081.3	1296.63	2.33
349.976	2408.9	1298.31	2.32
349.977	3091.9	1301.88	2.29
349.979	62677	1469.23	1.59
349.98	1418.4	1293.05	2.36
349.98	7457.3	1322.34	2.13
349.981	1769.1	1294.97	2.35
349.981	20906.8	1371.66	1.84
349.981	56565.6	1457.8	1.6
349.983	42532.1	1428.61	1.64
349.983	49571.3	1443.89	1.62
349.984	2747.4	1300.08	2.3
349.984	14287.1	1349.36	1.96
349.984	35596.1	1412.26	1.7
349.985	27703	1391.72	1.76
349.987	68231.2	1479.1	1.66
349.988	3577.6	1304.32	2.31
374.967	35188.2	1355.43	1.66
374.97	14051	1279.66	2.01
374.97	27844	1332.88	1.74
374.971	3116.9	1216.83	2.61
374.972	21566.5	1310.86	1.85
374.972	48935.9	1391.15	1.58
374.972	67438.3	1430.6	1.62
374.973	2454.5	1211.8	2.68
374.973	2781.1	1214.3	2.65
374.974	2140.4	1209.34	2.72
374.974	42212	1374.59	1.61
374.974	56118.3	1407.35	1.56
374.974	63201.1	1422.2	1.56
374.975	7519.3	1245.72	2.29
374.977	1802	1206.68	2.68
374.978	3500.8	1219.67	2.59
374.981	1592.7	1204.96	2.54
399.962	7536.5	1168.49	2.46
399.965	49152.3	1348.85	1.46
399.967	63213.5	1383.07	1.48
399.968	5333.9	1148.2	2.93
399.968	35354.2	1307.71	1.55
399.969	3101	1123.2	3.04
399.969	21523.2	1253.75	1.77
399.97	3459.9	1127.62	3.1
399.97	3838.5	1132.14	3.07
399.971	14526.2	1217.33	2
399.971	28490.7	1283.14	1.64
399.971	56281.2	1366.92	1.45
399.975	2791.2	1119.29	2.98
399.975	41887.9	1328.37	1.49
399.976	2379	1111.44	2.91
399.976	2438.9	1114.58	2.81
424.962	65344.5	1352.8	1.47
424.963	3854.3	1012.94	3.45
424.963	4517.9	1028.76	3.42
424.964	20744.4	1193.05	1.85
424.965	7331.5	1077.17	2.59
424.965	49661.6	1310.9	1.48
424.966	4190.2	1021.29	3.44
424.967	5457.4	1047.58	3
424.967	6169.4	1059.78	2.97
424.967	14202.8	1148.26	2.22
424.967	27900.3	1230.65	1.68
424.967	35700.3	1263.74	1.57
424.967	42738.4	1289.02	1.51
424.968	4853	1035.91	2.99
424.969	56282.5	1329.7	1.46
424.971	3592.7	1005.84	3.6
424.972	61979.9	1344.58	1.45

System: chlorodifluoromethane + trichlorofluoromethane; phases: Fluid (supercritical or subcritical phases)
Fixed: Mole fraction of trichlorofluoromethane = 0.832
Property: Mass density, kg/m3 (Fluid (supercritical or subcritical phases)); method: Burnett expansion method
Temperature, K	Pressure, kPa	Mass density, kg/m3	uncertainty
374.967	775.25	36.5414	0.7332
374.971	712.23	33.1519	0.6651
374.972	572.06	25.934	0.5203
374.972	705.75	32.8139	0.6583
374.974	140.1	5.9076	0.1185
374.974	155.55	6.5788	0.1319
374.975	99.9	4.192	0.0841
374.975	195.81	8.3248	0.1669
374.975	216.98	9.2699	0.1859
374.975	272.55	11.7304	0.2352
374.976	141.34	5.9685	0.1197
374.976	301.92	13.0615	0.2619
374.976	523.72	23.528	0.4719
374.977	100.73	4.2353	0.0849
374.977	197.47	8.4097	0.1686
374.977	518.62	23.2877	0.4671
374.978	377.56	16.5279	0.3315
374.979	381	16.6977	0.3349
374.98	275.03	11.8505	0.2376
374.981	417.41	18.4053	0.3692
424.959	715.19	28.1109	0.5637
424.961	418.92	15.9304	0.3194
424.962	76.05	2.7936	0.056
424.962	106.8	3.939	0.0789
424.963	191.33	7.117	0.1427
424.963	210.5	7.8282	0.1569
424.963	268.07	10.034	0.2012
424.963	293.85	11.0367	0.2213
424.964	373.9	14.1459	0.2836
424.964	567.37	21.9341	0.4399
424.965	136.17	5.049	0.1012
424.965	797.38	31.6606	0.6348
424.965	1085.99	44.6324	0.8956
424.966	977.19	39.6298	0.795
424.967	300.89	11.3011	0.2266
424.968	518.76	19.9414	0.4
424.969	153.48	5.6866	0.114
424.969	215.05	8.0157	0.1607
424.969	409.41	15.5588	0.3119
424.969	1317.45	55.8677	1.1209
424.972	150.03	5.5536	0.1113
424.973	580.12	22.4579	0.4504
474.951	4750	271.5137	5.5018
474.974	1107.99	39.0371	0.7825
474.975	1995.2	75.9597	1.5254
474.975	3296.58	144.5029	2.9021
474.977	1965.55	74.5021	1.4955
474.977	3255.77	142.1802	2.8586
474.977	4786.81	274.8775	5.5336
474.978	601.7	20.4396	0.41
474.98	322.47	10.7116	0.2148
474.981	5920.1	522.5236	11.0565
474.981	13635.05	993.788	19.8881
474.985	1126.12	39.9341	0.8005
474.987	590.67	20.1833	0.4048
474.988	1081.51	38.4124	0.77
474.992	1933.08	73.0924	1.4672
474.992	4708.08	264.7859	5.3664
474.994	3211.71	139.0887	2.7998
474.997	12412.88	958.8677	19.1858
474.998	5875.08	503.9422	10.8967
475	5905.76	518.0384	10.9934
475.012	13484.4	988.8223	19.7886

System: chlorodifluoromethane + trichlorofluoromethane; phases: Liquid
Fixed: Mole fraction of trichlorofluoromethane = 0.832
Property: Mass density, kg/m3 (Liquid); method: ISOCHOR
Temperature, K	Pressure, kPa	Mass density, kg/m3	uncertainty
232.008	367.9	1585.931	0.486
232.009	344.5	1585.932	0.486
233.007	1630.1	1585.802	0.486
234.009	2889.9	1585.673	0.486
245.007	363.7	1556.164	0.478
246.505	2106.6	1555.981	0.477
248.004	3865.5	1555.798	0.478
248.005	3843.5	1555.799	0.478
248.007	3870.3	1555.797	0.478
249.004	4990.8	1555.677	0.477
264.503	1262.1	1513.377	0.464
266.504	3302.5	1513.151	0.468
268.001	4830.1	1512.983	0.466
268.003	4846.4	1512.982	0.466
287.997	932.5	1464.291	0.451
289.995	2670	1464.085	0.452
292.996	5258.3	1463.777	0.455
292.996	5259.5	1463.777	0.455
305.992	2209.7	1419.961	0.447
305.994	2209.4	1419.961	0.447
308.993	4508.6	1419.673	0.449
311.989	6798.4	1419.386	0.446
311.99	6800.1	1419.386	0.446
325.989	1939.3	1362.854	0.433
328.987	3911.9	1362.59	0.432
331.985	5879.8	1362.326	0.436
331.986	5890.5	1362.325	0.436
351.98	3607.1	1298.784	0.43
354.979	5239.3	1298.544	0.418
357.978	6868	1298.305	0.422
357.979	6868.5	1298.305	0.422
357.979	6872.5	1298.305	0.422
357.981	6876.5	1298.305	0.422
375.975	3481.1	1216.372	0.412
375.976	3481.3	1216.372	0.412
380.974	5662.2	1216.016	0.411
385.972	7843.6	1215.66	0.403
385.974	7845.9	1215.66	0.403
409.966	5121.7	1111.12	0.395
415.966	7015.9	1110.751	0.394
421.966	8915.8	1110.383	0.399

System: chlorodifluoromethane + trichlorofluoromethane; phases: Gas
Fixed: Mole fraction of trichlorofluoromethane = 0.832
Property: Mass density, kg/m3 (Gas); method: ISOCHOR
Temperature, K	Pressure, kPa	Mass density, kg/m3	uncertainty
349.982	353.7	131.816	0.078
374.975	569	201.277	0.14
389.97	864.3	304.496	0.211
389.971	399.7	131.569	0.092
399.968	617	201.042	0.141
404.967	1209.7	426.452	0.329
404.968	909.7	304.283	0.236
414.966	1254.6	426.252	0.355
414.966	1558.2	556.482	0.458
419.964	1587.9	556.352	0.509
419.964	1924	715.93	0.639
424.963	445.3	131.354	0.093
424.963	1960.4	715.763	0.643
424.964	663.7	200.808	0.138
424.964	969	303.998	0.094
424.964	1298.4	426.053	0.33
424.964	1619.2	556.221	0.17
424.965	662.1	200.808	0.138
424.965	967.2	303.998	0.094
424.965	1299.4	426.053	0.33
424.965	1617.2	556.221	0.17
424.966	444.8	131.354	0.093
429.961	2000.6	715.595	0.218
429.962	2000.8	715.595	0.664
429.964	2002.4	715.595	0.218
