Measured thermophysical data. Liquid-Liquid Equilibria for Binary Mixtures of Water + Benzene, + Toluene, and + p-Xylene from 273 K to 458 K
Source: J. Chem. Eng. Data, 2003, 10.1021/je034033g
Compound 1: benzene, C6H6, InChI=1S/C6H6/c1-2-4-6-5-3-1/h1-6H, purity 99.9%
Compound 2: water, H2O, InChI=1S/H2O/h1H2
Compound 3: toluene, C7H8, InChI=1S/C7H8/c1-7-5-3-2-4-6-7/h2-6H,1H3, purity 99.8%
Compound 4: 1,4-dimethylbenzene, C8H10, InChI=1S/C8H10/c1-7-3-5-8(2)6-4-7/h3-6H,1-2H3, purity 99%

System: benzene + water; phases: Liquid mixture 2, Liquid mixture 1
Property: Mole fraction of benzene (Liquid mixture 2); method: Chromatography
Temperature, K	Pressure, kPa	Mole fraction of benzene	uncertainty
279.15	5.8	0.000406	4.1e-05
288.15	9.5	0.000408	4.1e-05
288.15	9.5	0.000408	4.1e-05
298.15	16	0.000406	4.1e-05
298.15	16	0.000406	4.1e-05
313.15	32	0.000441	4.4e-05
333.15	70	0.000531	5.3e-05
343.15	104	0.00061	6.1e-05
353.15	146	0.000673	6.7e-05
363.15	205	0.000759	7.6e-05
373.15	280	0.000879	8.8e-05
398.15	565	0.00132	0.000132
413.15	830	0.00179	0.000179
433.15	1320	0.00261	0.000262
453.15	2020	0.00384	0.000385

System: benzene + water; phases: Liquid mixture 1, Liquid mixture 2
Property: Mole fraction of water (Liquid mixture 1); method: Chromatography
Temperature, K	Pressure, kPa	Mole fraction of water	uncertainty
279.15	5.8	0.00168	0.00017
288.15	9.5	0.00223	0.00022
288.15	9.5	0.00234	0.00023
298.15	16	0.0032	0.0003
298.15	16	0.0032	0.0003
313.15	32	0.00492	0.00049
333.15	70	0.00901	0.0009
343.15	104	0.0113	0.0011
353.15	146	0.0157	0.0016
363.15	205	0.0204	0.002
373.15	280	0.0258	0.0026
398.15	565	0.0461	0.0046
413.15	830	0.063	0.0063
433.15	1320	0.0871	0.0087
453.15	2020	0.13	0.013

System: toluene + water; phases: Liquid mixture 2, Liquid mixture 1
Property: Mole fraction of toluene (Liquid mixture 2); method: Chromatography
Temperature, K	Pressure, kPa	Mole fraction of toluene	uncertainty
273.15	1.5	0.000124	1.2e-05
283.15	2.9	0.000114	1.1e-05
298.15	7	0.000116	1.2e-05
298.15	7	0.000111	1.1e-05
305.35	10.2	0.00012	1e-05
313.15	15	0.000123	1.2e-05
333.15	38	0.000152	1.5e-05
348.15	71	0.000189	1.9e-05
373.15	175	0.000284	2.8e-05
373.15	175	0.000284	2.8e-05
398.15	383	0.000445	4.5e-05
398.15	383	0.000445	4.5e-05
413.15	580	0.00066	6.6e-05
423.15	750	0.000828	8.3e-05
453.15	1520	0.001506	0.000151
458.15	1700	0.001699	0.00017

System: toluene + water; phases: Liquid mixture 1, Liquid mixture 2
Property: Mole fraction of water (Liquid mixture 1); method: Chromatography
Temperature, K	Pressure, kPa	Mole fraction of water	uncertainty
273.15	1.5	0.00118	0.00012
283.15	2.9	0.00169	0.00017
298.15	7	0.00273	0.00027
298.15	7	0.00273	0.00027
305.35	10.2	0.00334	0.00033
313.15	15	0.00432	0.00043
333.15	38	0.00792	0.00079
348.15	71	0.0122	0.0012
373.15	175	0.0226	0.0023
373.15	175	0.0239	0.0024
398.15	383	0.0427	0.0043
398.15	383	0.0425	0.0043
413.15	580	0.0598	0.006
423.15	750	0.0692	0.0069
453.15	1520	0.1202	0.0121
458.15	1700	0.1328	0.0133

System: 1,4-dimethylbenzene + water; phases: Liquid mixture 2, Liquid mixture 1
Property: Mole fraction of 1,4-dimethylbenzene (Liquid mixture 2); method: Chromatography
Temperature, K	Pressure, kPa	Mole fraction of 1,4-dimethylbenzene	uncertainty
288.15	2.4	2.98e-05	3e-06
298.15	4.4	3.15e-05	3.2e-06
313.15	10.3	3.98e-05	4e-06
333.15	27	5.3e-05	5e-06
348.15	52	6.38e-05	6.4e-06
373.15	136	9.29e-05	9.3e-06
398.15	310	0.000153	1.5e-05
423.15	630	0.000291	2.9e-05
448.15	1170	0.00056	6e-05

System: 1,4-dimethylbenzene + water; phases: Liquid mixture 1, Liquid mixture 2
Property: Mole fraction of water (Liquid mixture 1); method: Chromatography
Temperature, K	Pressure, kPa	Mole fraction of water	uncertainty
288.15	2.4	0.00245	0.00025
298.15	4.4	0.00328	0.00033
313.15	10.3	0.00465	0.00047
333.15	27	0.00822	0.00082
348.15	52	0.0124	0.0012
373.15	136	0.0216	0.0022
398.15	310	0.0398	0.004
423.15	630	0.0656	0.0066
448.15	1170	0.102	0.01
