Measured thermophysical data. High Pressure Phase Behavior of Carbon Dioxide + 1-Methyl-2-pyrrolidinone and Carbon Dioxide + 1-Ethyl-2-pyrrolidinone Systems
Source: J. Chem. Eng. Data, 2004, 10.1021/je0301545
Compound 1: carbon dioxide, CO2, InChI=1S/CO2/c2-1-3
Compound 2: N-methylpyrrolidone, C5H9NO, InChI=1S/C5H9NO/c1-6-4-2-3-5(6)7/h2-4H2,1H3
Compound 3: 1-ethyl-2-pyrrolidinone, C6H11NO, InChI=1S/C6H11NO/c1-2-7-5-3-4-6(7)8/h2-5H2,1H3

System: carbon dioxide + N-methylpyrrolidone; phases: Liquid, Gas
Property: Critical pressure, kPa (Liquid); method: Direct measurement
Mole fraction of N-methylpyrrolidone	Critical pressure, kPa	uncertainty
0.067	18290	800
0.117	24930	800

System: carbon dioxide + N-methylpyrrolidone; phases: Liquid, Gas
Property: Critical temperature, K (Liquid); method: Visual observation in an unstirred cell
Mole fraction of N-methylpyrrolidone	Critical temperature, K	uncertainty
0.067	358.15	1
0.117	398.15	1

System: carbon dioxide + N-methylpyrrolidone; phases: Liquid, Gas
Property: Vapor or sublimation pressure, kPa (Liquid); method: CCELL:UFactor:16
Temperature, K	Mole fraction of N-methylpyrrolidone	Vapor or sublimation pressure, kPa	uncertainty
318.15	0.012	10330	510
318.15	0.019	10330	510
318.15	0.043	10240	510
318.15	0.067	10190	510
318.15	0.117	10080	500
318.15	0.137	10070	500
318.15	0.22	9760	480
318.15	0.318	9660	480
318.15	0.385	9030	450
318.15	0.445	8650	430
318.15	0.54	8140	400
318.15	0.627	7140	350
318.15	0.725	6260	310
318.15	0.785	5550	280
318.15	0.843	4890	240
338.15	0.019	14210	700
338.15	0.043	14140	700
338.15	0.067	14080	700
338.15	0.117	14290	710
338.15	0.137	14240	710
338.15	0.22	13890	690
338.15	0.318	12550	620
338.15	0.385	11380	560
338.15	0.445	11070	550
338.15	0.54	10070	500
338.15	0.627	8410	420
338.15	0.725	7080	350
338.15	0.785	6030	300
338.15	0.843	5270	260
358.15	0.117	18540	920
358.15	0.137	18350	910
358.15	0.22	18170	900
358.15	0.318	16070	800
358.15	0.385	14380	710
358.15	0.445	13520	670
358.15	0.54	11760	580
358.15	0.627	9970	490
358.15	0.725	7840	390
358.15	0.785	6740	330
358.15	0.843	5550	280
378.15	0.117	22380	1110
378.15	0.137	22280	1100
378.15	0.22	21720	1080
378.15	0.318	19380	960
378.15	0.385	17240	850
378.15	0.445	16040	800
378.15	0.54	13720	680
378.15	0.627	11170	550
378.15	0.725	8610	430
378.15	0.785	7290	360
378.15	0.843	5890	290
398.15	0.137	24930	1240
398.15	0.22	24660	1220
398.15	0.318	22590	1120
398.15	0.385	19970	990
398.15	0.445	18350	910
398.15	0.54	15760	780
398.15	0.627	12620	630
398.15	0.725	9500	470
398.15	0.785	7870	390
398.15	0.843	6130	300

System: carbon dioxide + N-methylpyrrolidone; phases: Gas, Liquid
Property: Vapor or sublimation pressure, kPa (Gas); method: CCELL:UFactor:32
Temperature, K	Mole fraction of N-methylpyrrolidone	Vapor or sublimation pressure, kPa	uncertainty
338.15	0.012	14070	1400
358.15	0.012	15590	1550
358.15	0.019	15900	1580
358.15	0.043	17590	1740
378.15	0.012	15770	1560
378.15	0.019	17480	1730
378.15	0.043	20520	2040
378.15	0.067	21700	2150
378.15	0.012	15140	1500
378.15	0.019	18240	1810
378.15	0.043	22380	2220
378.15	0.067	24090	2390

System: carbon dioxide + 1-ethyl-2-pyrrolidinone; phases: Liquid, Gas
Property: Critical pressure, kPa (Liquid); method: Direct measurement
Mole fraction of 1-ethyl-2-pyrrolidinone	Critical pressure, kPa	uncertainty
0.075	12500	800
0.103	23170	800

System: carbon dioxide + 1-ethyl-2-pyrrolidinone; phases: Liquid, Gas
Property: Critical temperature, K (Liquid); method: Visual observation in an unstirred cell
Mole fraction of 1-ethyl-2-pyrrolidinone	Critical temperature, K	uncertainty
0.075	333.15	1
0.103	393.15	1

System: carbon dioxide + 1-ethyl-2-pyrrolidinone; phases: Liquid, Gas
Property: Vapor or sublimation pressure, kPa (Liquid); method: CCELL:UFactor:32
Temperature, K	Mole fraction of 1-ethyl-2-pyrrolidinone	Vapor or sublimation pressure, kPa	uncertainty
313.15	0.02	8370	830
313.15	0.04	8500	840
313.15	0.075	8350	830
313.15	0.103	8140	810
313.15	0.166	7960	790
313.15	0.245	7240	720
313.15	0.357	5980	590
313.15	0.451	5180	510
313.15	0.568	3690	370
313.15	0.585	3400	340
313.15	0.654	2620	260
313.15	0.761	1720	170
333.15	0.103	12570	1250
333.15	0.166	12040	1190
333.15	0.245	10450	1040
333.15	0.357	8410	830
333.15	0.451	7090	700
333.15	0.568	4850	480
333.15	0.585	4480	440
333.15	0.654	3550	350
333.15	0.761	2240	220
353.15	0.103	16830	1670
353.15	0.166	16300	1620
353.15	0.245	14260	1410
353.15	0.357	11140	1110
353.15	0.451	9350	930
353.15	0.568	6260	620
353.15	0.585	5860	580
353.15	0.654	4560	450
353.15	0.761	2710	270
373.1	0.103	20410	2020
373.1	0.166	20040	1990
373.1	0.245	17980	1780
373.1	0.357	13980	1390
373.1	0.451	11520	1140
373.1	0.568	7670	760
373.1	0.585	7240	720
373.1	0.654	5680	560
373.1	0.761	3210	320
393.15	0.166	23110	2290
393.15	0.245	21100	2090
393.15	0.357	16720	1660
393.15	0.451	13740	1360
393.15	0.568	9590	950
393.15	0.585	8880	880
393.15	0.654	7250	720
393.15	0.761	3720	370

System: carbon dioxide + 1-ethyl-2-pyrrolidinone; phases: Gas, Liquid
Property: Vapor or sublimation pressure, kPa (Gas); method: CCELL:UFactor:32
Temperature, K	Mole fraction of 1-ethyl-2-pyrrolidinone	Vapor or sublimation pressure, kPa	uncertainty
333.15	0.02	11590	1150
333.15	0.04	12200	1210
353.15	0.02	14310	1420
353.15	0.04	16380	1620
353.15	0.075	16720	1660
373.1	0.02	16050	1590
373.1	0.04	18830	1870
373.1	0.075	20160	2000
393.15	0.02	16470	1630
393.15	0.04	20850	2070
393.15	0.075	22830	2260
