Measured thermophysical data. Heat Capacities, Densities, and Speeds of Sound for {(1,5-Dichloropentane or 1,6-Dichlorohexane) + Dodecane}
Source: J. Chem. Eng. Data, 2004, 10.1021/je034177v
Compound 1: dodecane, C12H26, InChI=1S/C12H26/c1-3-5-7-9-11-12-10-8-6-4-2/h3-12H2,1-2H3
Compound 2: 1,5-dichloropentane, C5H10Cl2, InChI=1S/C5H10Cl2/c6-4-2-1-3-5-7/h1-5H2
Compound 3: 1,6-dichlorohexane, C6H12Cl2, InChI=1S/C6H12Cl2/c7-5-3-1-2-4-6-8/h1-6H2

System: dodecane; phases: Liquid
Fixed: Pressure, kPa = 101
Property: Molar heat capacity at constant pressure, J/K/mol (Liquid); method: Small sample (50 mg) DSC
Temperature, K	Molar heat capacity at constant pressure, J/K/mol	uncertainty
283.15	368.47	5.71
288.15	370.48	5.74
293.15	372.74	5.77
298.15	375.04	5.81
303.15	377.43	5.85
308.15	380.02	5.89
313.15	382.73	5.93
318.15	385.48	5.97
323.15	388.29	6.02

System: dodecane; phases: Liquid
Fixed: Pressure, kPa = 101
Property: Speed of sound, m/s (Liquid); method: Pulse-echo method
Temperature, K	Speed of sound, m/s	uncertainty
278.15	1357.05	1.05
283.15	1337.42	1.05
288.15	1317.62	1.04
293.15	1298.04	1.04
298.15	1278.49	1.03
303.15	1259.15	1.03
308.15	1240	1.02
313.15	1221.04	1.02
318.15	1202.28	1.01
323.15	1183.64	1.01
328.15	1165.12	1

System: dodecane; phases: Liquid
Fixed: Pressure, kPa = 101
Property: Mass density, kg/m3 (Liquid); method: Vibrating tube method
Temperature, K	Mass density, kg/m3	uncertainty
278.15	759.56	0.34
283.15	755.96	0.34
288.15	752.36	0.34
293.15	748.74	0.34
298.15	745.14	0.34
303.15	741.52	0.34
308.15	737.88	0.34
313.15	734.24	0.34
318.15	730.6	0.34
323.15	726.95	0.33
328.15	723.29	0.33

System: 1,5-dichloropentane; phases: Liquid
Fixed: Pressure, kPa = 101
Property: Molar heat capacity at constant pressure, J/K/mol (Liquid); method: Small sample (50 mg) DSC
Temperature, K	Molar heat capacity at constant pressure, J/K/mol	uncertainty
283.15	209.65	3.25
288.15	210.73	3.26
293.15	211.89	3.28
298.15	212.94	3.3
303.15	214.06	3.32
308.15	215.21	3.33
313.15	216.38	3.35
318.15	217.56	3.37
323.15	218.76	3.39

System: 1,5-dichloropentane; phases: Liquid
Fixed: Pressure, kPa = 101
Property: Speed of sound, m/s (Liquid); method: Pulse-echo method
Temperature, K	Speed of sound, m/s	uncertainty
278.15	1376.62	1.13
283.15	1358.93	1.13
288.15	1340.96	1.13
293.15	1323.21	1.12
298.15	1305.44	1.12
303.15	1287.86	1.11
308.15	1270.32	1.11
313.15	1252.99	1.11
318.15	1235.76	1.1
323.15	1218.65	1.1
328.15	1201.63	1.09

System: 1,5-dichloropentane; phases: Liquid
Fixed: Pressure, kPa = 101
Property: Mass density, kg/m3 (Liquid); method: Vibrating tube method
Temperature, K	Mass density, kg/m3	uncertainty
278.15	1115.28	0.52
283.15	1110.26	0.52
288.15	1105.2	0.52
293.15	1100.16	0.51
298.15	1095.11	0.51
303.15	1090.07	0.51
308.15	1085.02	0.51
313.15	1079.97	0.5
318.15	1074.95	0.5
323.15	1069.89	0.5
328.15	1064.93	0.5

System: 1,6-dichlorohexane; phases: Liquid
Fixed: Pressure, kPa = 101
Property: Molar heat capacity at constant pressure, J/K/mol (Liquid); method: Small sample (50 mg) DSC
Temperature, K	Molar heat capacity at constant pressure, J/K/mol	uncertainty
283.15	236.59	3.67
288.15	237.9	3.69
293.15	239.26	3.71
298.15	240.6	3.73
303.15	241.94	3.75
308.15	243.37	3.77
313.15	244.81	3.79
318.15	246.28	3.82
323.15	247.76	3.84

System: 1,6-dichlorohexane; phases: Liquid
Fixed: Pressure, kPa = 101
Property: Speed of sound, m/s (Liquid); method: Pulse-echo method
Temperature, K	Speed of sound, m/s	uncertainty
278.15	1387.42	0.85
283.15	1369.99	0.85
288.15	1352.28	0.84
293.15	1334.77	0.84
298.15	1317.28	0.83
303.15	1299.94	0.83
308.15	1282.7	0.82
313.15	1265.65	0.82
318.15	1248.65	0.81
323.15	1231.83	0.81
328.15	1215.11	0.8

System: 1,6-dichlorohexane; phases: Liquid
Fixed: Pressure, kPa = 101
Property: Mass density, kg/m3 (Liquid); method: Vibrating tube method
Temperature, K	Mass density, kg/m3	uncertainty
278.15	1082.7	0.3
283.15	1077.97	0.29
288.15	1073.22	0.29
293.15	1068.47	0.29
298.15	1063.74	0.29
303.15	1059	0.29
308.15	1054.25	0.29
313.15	1049.5	0.29
318.15	1044.78	0.28
323.15	1040.03	0.28
328.15	1035.37	0.28

System: dodecane + 1,5-dichloropentane; phases: Liquid
Fixed: Pressure, kPa = 101
Property: Molar heat capacity at constant pressure, J/K/mol (Liquid); method: Small sample (50 mg) DSC
Temperature, K	Mole fraction of 1,5-dichloropentane	Molar heat capacity at constant pressure, J/K/mol	uncertainty
283.15	0	368.47	5.71
283.15	0.05237	359.49	5.57
283.15	0.10136	351.13	5.44
283.15	0.20075	334.84	5.19
283.15	0.30395	318.47	4.93
283.15	0.3945	304.32	4.71
283.15	0.49832	288.13	4.46
283.15	0.60144	271.74	4.21
283.15	0.69872	256.4	3.97
283.15	0.79749	240.83	3.73
283.15	0.9021	224.47	3.48
283.15	0.94974	217.25	3.37
283.15	1	209.65	3.25
288.15	0	370.48	5.74
288.15	0.05237	361.46	5.6
288.15	0.10136	353.16	5.47
288.15	0.20075	336.79	5.22
288.15	0.30395	320.33	4.96
288.15	0.3945	305.98	4.74
288.15	0.49832	289.64	4.49
288.15	0.60144	273.2	4.23
288.15	0.69872	257.78	3.99
288.15	0.79749	242.08	3.75
288.15	0.9021	225.7	3.5
288.15	0.94974	218.41	3.38
288.15	1	210.73	3.26
293.15	0	372.74	5.77
293.15	0.05237	363.6	5.63
293.15	0.10136	355.31	5.5
293.15	0.20075	338.81	5.25
293.15	0.30395	322.17	4.99
293.15	0.3945	307.85	4.77
293.15	0.49832	291.34	4.51
293.15	0.60144	274.79	4.26
293.15	0.69872	259.23	4.02
293.15	0.79749	243.45	3.77
293.15	0.9021	226.92	3.52
293.15	0.94974	219.54	3.4
293.15	1	211.89	3.28
298.15	0	375.04	5.81
298.15	0.05237	365.89	5.67
298.15	0.10136	357.53	5.54
298.15	0.20075	340.93	5.28
298.15	0.30395	324.17	5.02
298.15	0.3945	309.6	4.8
298.15	0.49832	293.02	4.54
298.15	0.60144	276.35	4.28
298.15	0.69872	260.76	4.04
298.15	0.79749	244.78	3.79
298.15	0.9021	228.16	3.53
298.15	0.94974	220.73	3.42
298.15	1	212.94	3.3
303.15	0	377.43	5.85
303.15	0.05237	368.28	5.71
303.15	0.10136	359.81	5.57
303.15	0.20075	343.08	5.32
303.15	0.30395	326.18	5.05
303.15	0.3945	311.52	4.83
303.15	0.49832	294.78	4.57
303.15	0.60144	277.97	4.31
303.15	0.69872	262.21	4.06
303.15	0.79749	246.18	3.81
303.15	0.9021	229.39	3.55
303.15	0.94974	221.9	3.44
303.15	1	214.06	3.32
308.15	0	380.02	5.89
308.15	0.05237	370.79	5.74
308.15	0.10136	362.28	5.61
308.15	0.20075	345.47	5.35
308.15	0.30395	328.38	5.09
308.15	0.3945	313.55	4.86
308.15	0.49832	296.69	4.6
308.15	0.60144	279.71	4.33
308.15	0.69872	263.83	4.09
308.15	0.79749	247.69	3.84
308.15	0.9021	230.74	3.57
308.15	0.94974	223.14	3.46
308.15	1	215.21	3.33
313.15	0	382.73	5.93
313.15	0.05237	373.41	5.78
313.15	0.10136	364.84	5.65
313.15	0.20075	347.87	5.39
313.15	0.30395	330.63	5.12
313.15	0.3945	315.68	4.89
313.15	0.49832	298.58	4.63
313.15	0.60144	281.49	4.36
313.15	0.69872	265.47	4.11
313.15	0.79749	249.17	3.86
313.15	0.9021	232.08	3.6
313.15	0.94974	224.4	3.48
313.15	1	216.38	3.35
318.15	0	385.48	5.97
318.15	0.05237	376.07	5.83
318.15	0.10136	367.48	5.69
318.15	0.20075	350.35	5.43
318.15	0.30395	332.93	5.16
318.15	0.3945	317.86	4.92
318.15	0.49832	300.38	4.65
318.15	0.60144	283.32	4.39
318.15	0.69872	267.13	4.14
318.15	0.79749	250.73	3.88
318.15	0.9021	233.47	3.62
318.15	0.94974	225.7	3.5
318.15	1	217.56	3.37
323.15	0	388.29	6.02
323.15	0.05237	378.83	5.87
323.15	0.10136	370.16	5.73
323.15	0.20075	352.88	5.47
323.15	0.30395	335.27	5.19
323.15	0.3945	320.07	4.96
323.15	0.49832	302.59	4.69
323.15	0.60144	285.18	4.42
323.15	0.69872	268.85	4.17
323.15	0.79749	252.27	3.91
323.15	0.9021	234.85	3.64
323.15	0.94974	227.02	3.52
323.15	1	218.76	3.39

System: dodecane + 1,5-dichloropentane; phases: Liquid
Fixed: Pressure, kPa = 101
Property: Speed of sound, m/s (Liquid); method: Pulse-echo method
Temperature, K	Mole fraction of 1,5-dichloropentane	Speed of sound, m/s	uncertainty
278.15	0	1357.05	1.05
278.15	0.05237	1353.87	1.05
278.15	0.10136	1351.32	1.06
278.15	0.20075	1347.06	1.06
278.15	0.30395	1344.08	1.07
278.15	0.3945	1342.41	1.08
278.15	0.49832	1342.09	1.09
278.15	0.60144	1343.6	1.09
278.15	0.69872	1347.13	1.1
278.15	0.79749	1353.39	1.11
278.15	0.9021	1363.5	1.12
278.15	0.94974	1369.47	1.13
278.15	1	1376.62	1.13
283.15	0	1337.42	1.05
283.15	0.05237	1334.36	1.05
283.15	0.10136	1331.88	1.05
283.15	0.20075	1327.75	1.06
283.15	0.30395	1324.93	1.07
283.15	0.3945	1323.56	1.07
283.15	0.49832	1323.38	1.08
283.15	0.60144	1325.12	1.09
283.15	0.69872	1328.89	1.1
283.15	0.79749	1335.28	1.11
283.15	0.9021	1345.63	1.12
283.15	0.94974	1351.7	1.12
283.15	1	1358.93	1.13
288.15	0	1317.62	1.04
288.15	0.05237	1314.61	1.04
288.15	0.10136	1312.23	1.05
288.15	0.20075	1308.24	1.05
288.15	0.30395	1305.67	1.06
288.15	0.3945	1304.4	1.07
288.15	0.49832	1304.47	1.08
288.15	0.60144	1306.39	1.09
288.15	0.69872	1310.33	1.09
288.15	0.79749	1316.98	1.1
288.15	0.9021	1327.53	1.11
288.15	0.94974	1333.66	1.12
288.15	1	1340.96	1.13
293.15	0	1298.04	1.04
293.15	0.05237	1295.09	1.04
293.15	0.10136	1292.77	1.04
293.15	0.20075	1289.03	1.05
293.15	0.30395	1286.58	1.06
293.15	0.3945	1285.47	1.06
293.15	0.49832	1285.73	1.07
293.15	0.60144	1287.86	1.08
293.15	0.69872	1291.99	1.09
293.15	0.79749	1298.83	1.1
293.15	0.9021	1309.54	1.11
293.15	0.94974	1315.8	1.12
293.15	1	1323.21	1.12
298.15	0	1278.49	1.03
298.15	0.05237	1275.61	1.03
298.15	0.10136	1273.45	1.04
298.15	0.20075	1269.79	1.05
298.15	0.30395	1267.47	1.05
298.15	0.3945	1266.56	1.06
298.15	0.49832	1266.96	1.07
298.15	0.60144	1269.3	1.08
298.15	0.69872	1273.66	1.09
298.15	0.79749	1280.68	1.1
298.15	0.9021	1291.6	1.11
298.15	0.94974	1297.96	1.11
298.15	1	1305.44	1.12
303.15	0	1259.15	1.03
303.15	0.05237	1256.41	1.03
303.15	0.10136	1254.2	1.03
303.15	0.20075	1250.73	1.04
303.15	0.30395	1248.6	1.05
303.15	0.3945	1247.8	1.06
303.15	0.49832	1248.38	1.06
303.15	0.60144	1250.93	1.07
303.15	0.69872	1255.43	1.08
303.15	0.79749	1262.64	1.09
303.15	0.9021	1273.79	1.1
303.15	0.94974	1280.26	1.11
303.15	1	1287.86	1.11
308.15	0	1240	1.02
308.15	0.05237	1237.28	1.03
308.15	0.10136	1235.22	1.03
308.15	0.20075	1231.85	1.04
308.15	0.30395	1229.85	1.04
308.15	0.3945	1229.23	1.05
308.15	0.49832	1229.96	1.06
308.15	0.60144	1232.71	1.07
308.15	0.69872	1237.41	1.08
308.15	0.79749	1244.75	1.09
308.15	0.9021	1256.11	1.1
308.15	0.94974	1262.65	1.1
308.15	1	1270.32	1.11
313.15	0	1221.04	1.02
313.15	0.05237	1218.44	1.02
313.15	0.10136	1216.37	1.02
313.15	0.20075	1213.17	1.03
313.15	0.30395	1211.36	1.04
313.15	0.3945	1210.88	1.05
313.15	0.49832	1211.75	1.06
313.15	0.60144	1214.61	1.06
313.15	0.69872	1219.57	1.07
313.15	0.79749	1227.05	1.08
313.15	0.9021	1238.55	1.09
313.15	0.94974	1245.2	1.1
313.15	1	1252.99	1.11
318.15	0	1202.28	1.01
318.15	0.05237	1199.71	1.02
318.15	0.10136	1197.7	1.02
318.15	0.20075	1194.62	1.03
318.15	0.30395	1192.89	1.04
318.15	0.3945	1192.55	1.04
318.15	0.49832	1193.61	1.05
318.15	0.60144	1196.66	1.06
318.15	0.69872	1201.74	1.07
318.15	0.79749	1209.45	1.08
318.15	0.9021	1221.13	1.09
318.15	0.94974	1227.88	1.1
318.15	1	1235.76	1.1
323.15	0	1183.64	1.01
323.15	0.05237	1181.04	1.01
323.15	0.10136	1179.26	1.02
323.15	0.20075	1176.21	1.02
323.15	0.30395	1174.69	1.03
323.15	0.3945	1174.38	1.04
323.15	0.49832	1175.58	1.05
323.15	0.60144	1178.82	1.06
323.15	0.69872	1184.06	1.07
323.15	0.79749	1191.88	1.07
323.15	0.9021	1203.81	1.09
323.15	0.94974	1210.63	1.09
323.15	1	1218.65	1.1
328.15	0	1165.12	1
328.15	0.05237	1162.67	1.01
328.15	0.10136	1160.8	1.01
328.15	0.20075	1157.91	1.02
328.15	0.30395	1156.5	1.03
328.15	0.3945	1156.36	1.03
328.15	0.49832	1157.74	1.04
328.15	0.60144	1161.16	1.05
328.15	0.69872	1166.54	1.06
328.15	0.79749	1174.52	1.07
328.15	0.9021	1186.58	1.08
328.15	0.94974	1193.52	1.09
328.15	1	1201.63	1.09

System: dodecane + 1,5-dichloropentane; phases: Liquid
Fixed: Pressure, kPa = 101
Property: Mass density, kg/m3 (Liquid); method: Vibrating tube method
Temperature, K	Mole fraction of 1,5-dichloropentane	Mass density, kg/m3	uncertainty
278.15	0	759.56	0.34
278.15	0.05237	769.83	0.35
278.15	0.10136	780	0.35
278.15	0.20075	802.34	0.36
278.15	0.30395	827.99	0.37
278.15	0.3945	852.98	0.38
278.15	0.49832	884.91	0.4
278.15	0.60144	920.97	0.42
278.15	0.69872	959.17	0.44
278.15	0.79749	1003.24	0.46
278.15	0.9021	1056.96	0.49
278.15	0.94974	1084.25	0.51
278.15	1	1115.28	0.52
283.15	0	755.96	0.34
283.15	0.05237	766.19	0.35
283.15	0.10136	776.32	0.35
283.15	0.20075	798.55	0.36
283.15	0.30395	824.08	0.37
283.15	0.3945	848.97	0.38
283.15	0.49832	880.76	0.4
283.15	0.60144	916.68	0.42
283.15	0.69872	954.72	0.44
283.15	0.79749	998.63	0.46
283.15	0.9021	1052.15	0.49
283.15	0.94974	1079.35	0.5
283.15	1	1110.26	0.52
288.15	0	752.36	0.34
288.15	0.05237	762.54	0.35
288.15	0.10136	772.61	0.35
288.15	0.20075	794.74	0.36
288.15	0.30395	820.16	0.37
288.15	0.3945	844.93	0.38
288.15	0.49832	876.58	0.4
288.15	0.60144	912.36	0.41
288.15	0.69872	950.25	0.43
288.15	0.79749	993.99	0.46
288.15	0.9021	1047.3	0.49
288.15	0.94974	1074.4	0.5
288.15	1	1105.2	0.52
293.15	0	748.74	0.34
293.15	0.05237	758.89	0.34
293.15	0.10136	768.91	0.35
293.15	0.20075	790.94	0.36
293.15	0.30395	816.25	0.37
293.15	0.3945	840.9	0.38
293.15	0.49832	872.42	0.4
293.15	0.60144	908.04	0.41
293.15	0.69872	945.78	0.43
293.15	0.79749	989.35	0.45
293.15	0.9021	1042.45	0.48
293.15	0.94974	1069.46	0.5
293.15	1	1100.16	0.51
298.15	0	745.14	0.34
298.15	0.05237	755.23	0.34
298.15	0.10136	765.22	0.35
298.15	0.20075	787.14	0.36
298.15	0.30395	812.33	0.37
298.15	0.3945	836.86	0.38
298.15	0.49832	868.24	0.39
298.15	0.60144	903.71	0.41
298.15	0.69872	941.31	0.43
298.15	0.79749	984.72	0.45
298.15	0.9021	1037.61	0.48
298.15	0.94974	1064.51	0.5
298.15	1	1095.11	0.51
303.15	0	741.52	0.34
303.15	0.05237	751.58	0.34
303.15	0.10136	761.51	0.35
303.15	0.20075	783.32	0.36
303.15	0.30395	808.4	0.37
303.15	0.3945	832.82	0.38
303.15	0.49832	864.07	0.39
303.15	0.60144	899.38	0.41
303.15	0.69872	936.82	0.43
303.15	0.79749	980.06	0.45
303.15	0.9021	1032.76	0.48
303.15	0.94974	1059.56	0.49
303.15	1	1090.07	0.51
308.15	0	737.88	0.34
308.15	0.05237	747.91	0.34
308.15	0.10136	757.8	0.35
308.15	0.20075	779.49	0.35
308.15	0.30395	804.47	0.37
308.15	0.3945	828.76	0.38
308.15	0.49832	859.88	0.39
308.15	0.60144	895.05	0.41
308.15	0.69872	932.33	0.43
308.15	0.79749	975.41	0.45
308.15	0.9021	1027.91	0.48
308.15	0.94974	1054.61	0.49
308.15	1	1085.02	0.51
313.15	0	734.24	0.34
313.15	0.05237	744.24	0.34
313.15	0.10136	754.07	0.34
313.15	0.20075	775.66	0.35
313.15	0.30395	800.53	0.36
313.15	0.3945	824.71	0.38
313.15	0.49832	855.7	0.39
313.15	0.60144	890.7	0.41
313.15	0.69872	927.83	0.42
313.15	0.79749	970.74	0.45
313.15	0.9021	1023.05	0.47
313.15	0.94974	1049.66	0.49
313.15	1	1079.97	0.5
318.15	0	730.6	0.34
318.15	0.05237	740.56	0.34
318.15	0.10136	750.34	0.34
318.15	0.20075	771.82	0.35
318.15	0.30395	796.59	0.36
318.15	0.3945	820.64	0.37
318.15	0.49832	851.51	0.39
318.15	0.60144	886.36	0.4
318.15	0.69872	923.36	0.42
318.15	0.79749	966.1	0.44
318.15	0.9021	1018.21	0.47
318.15	0.94974	1044.74	0.49
318.15	1	1074.95	0.5
323.15	0	726.95	0.33
323.15	0.05237	736.88	0.34
323.15	0.10136	746.61	0.34
323.15	0.20075	767.98	0.35
323.15	0.30395	792.63	0.36
323.15	0.3945	816.57	0.37
323.15	0.49832	847.29	0.39
323.15	0.60144	882	0.4
323.15	0.69872	918.84	0.42
323.15	0.79749	961.42	0.44
323.15	0.9021	1013.35	0.47
323.15	0.94974	1039.77	0.49
323.15	1	1069.89	0.5
328.15	0	723.29	0.33
328.15	0.05237	733.17	0.34
328.15	0.10136	742.86	0.34
328.15	0.20075	764.14	0.35
328.15	0.30395	788.68	0.36
328.15	0.3945	812.52	0.37
328.15	0.49832	843.12	0.39
328.15	0.60144	877.69	0.4
328.15	0.69872	914.4	0.42
328.15	0.79749	956.8	0.44
328.15	0.9021	1008.57	0.47
328.15	0.94974	1034.9	0.48
328.15	1	1064.93	0.5

System: dodecane + 1,6-dichlorohexane; phases: Liquid
Fixed: Pressure, kPa = 101
Property: Molar heat capacity at constant pressure, J/K/mol (Liquid); method: Small sample (50 mg) DSC
Temperature, K	Mole fraction of 1,6-dichlorohexane	Molar heat capacity at constant pressure, J/K/mol	uncertainty
283.15	0	368.47	5.71
283.15	0.0498	361.24	5.6
283.15	0.1003	354.21	5.49
283.15	0.14973	347.4	5.38
283.15	0.25271	333.57	5.17
283.15	0.40173	314.16	4.87
283.15	0.50199	301.12	4.66
283.15	0.59998	288.34	4.47
283.15	0.70111	275.07	4.26
283.15	0.79862	262.36	4.06
283.15	0.89982	249.37	3.86
283.15	0.94934	242.86	3.76
283.15	0.96911	240.39	3.72
283.15	1	236.59	3.67
288.15	0	370.48	5.74
288.15	0.0498	363.25	5.63
288.15	0.1003	356.2	5.52
288.15	0.14973	349.35	5.41
288.15	0.25271	335.52	5.2
288.15	0.40173	315.92	4.89
288.15	0.50199	302.83	4.69
288.15	0.59998	289.93	4.49
288.15	0.70111	276.6	4.29
288.15	0.79862	263.83	4.09
288.15	0.89982	250.76	3.88
288.15	0.94934	244.24	3.78
288.15	0.96911	241.75	3.75
288.15	1	237.9	3.69
293.15	0	372.74	5.77
293.15	0.0498	365.49	5.66
293.15	0.1003	358.37	5.55
293.15	0.14973	351.58	5.45
293.15	0.25271	337.63	5.23
293.15	0.40173	317.89	4.92
293.15	0.50199	304.61	4.72
293.15	0.59998	291.62	4.52
293.15	0.70111	278.22	4.31
293.15	0.79862	265.4	4.11
293.15	0.89982	252.22	3.91
293.15	0.94934	245.67	3.81
293.15	0.96911	243.14	3.77
293.15	1	239.26	3.71
298.15	0	375.04	5.81
298.15	0.0498	367.75	5.7
298.15	0.1003	360.64	5.59
298.15	0.14973	353.74	5.48
298.15	0.25271	339.74	5.26
298.15	0.40173	319.79	4.95
298.15	0.50199	306.46	4.75
298.15	0.59998	293.38	4.55
298.15	0.70111	279.86	4.34
298.15	0.79862	266.9	4.13
298.15	0.89982	253.67	3.93
298.15	0.94934	247.09	3.83
298.15	0.96911	244.52	3.79
298.15	1	240.6	3.73
303.15	0	377.43	5.85
303.15	0.0498	370.17	5.73
303.15	0.1003	363.07	5.62
303.15	0.14973	356.06	5.52
303.15	0.25271	341.93	5.3
303.15	0.40173	321.84	4.99
303.15	0.50199	308.39	4.78
303.15	0.59998	295.19	4.57
303.15	0.70111	281.55	4.36
303.15	0.79862	268.5	4.16
303.15	0.89982	255.12	3.95
303.15	0.94934	248.51	3.85
303.15	0.96911	245.9	3.81
303.15	1	241.94	3.75
308.15	0	380.02	5.89
308.15	0.0498	372.73	5.77
308.15	0.1003	365.53	5.66
308.15	0.14973	358.52	5.55
308.15	0.25271	344.27	5.33
308.15	0.40173	323.95	5.02
308.15	0.50199	310.38	4.81
308.15	0.59998	297.07	4.6
308.15	0.70111	283.34	4.39
308.15	0.79862	270.16	4.19
308.15	0.89982	256.63	3.98
308.15	0.94934	249.99	3.87
308.15	0.96911	247.38	3.83
308.15	1	243.37	3.77
313.15	0	382.73	5.93
313.15	0.0498	375.36	5.82
313.15	0.1003	368.13	5.7
313.15	0.14973	361.02	5.59
313.15	0.25271	346.63	5.37
313.15	0.40173	326.16	5.05
313.15	0.50199	312.43	4.84
313.15	0.59998	299.01	4.63
313.15	0.70111	285.15	4.42
313.15	0.79862	271.87	4.21
313.15	0.89982	258.18	4
313.15	0.94934	251.5	3.9
313.15	0.96911	248.85	3.86
313.15	1	244.81	3.79
318.15	0	385.48	5.97
318.15	0.0498	378.07	5.86
318.15	0.1003	370.69	5.74
318.15	0.14973	363.62	5.63
318.15	0.25271	349.13	5.41
318.15	0.40173	328.4	5.09
318.15	0.50199	314.57	4.87
318.15	0.59998	300.97	4.66
318.15	0.70111	287	4.45
318.15	0.79862	273.6	4.24
318.15	0.89982	259.77	4.02
318.15	0.94934	253.03	3.92
318.15	0.96911	250.37	3.88
318.15	1	246.28	3.82
323.15	0	388.29	6.02
323.15	0.0498	380.85	5.9
323.15	0.1003	373.37	5.78
323.15	0.14973	366.28	5.67
323.15	0.25271	351.62	5.45
323.15	0.40173	330.71	5.12
323.15	0.50199	316.72	4.91
323.15	0.59998	303.01	4.69
323.15	0.70111	288.89	4.48
323.15	0.79862	275.38	4.27
323.15	0.89982	261.42	4.05
323.15	0.94934	254.57	3.94
323.15	0.96911	251.9	3.9
323.15	1	247.76	3.84

System: dodecane + 1,6-dichlorohexane; phases: Liquid
Fixed: Pressure, kPa = 101
Property: Speed of sound, m/s (Liquid); method: Pulse-echo method
Temperature, K	Mole fraction of 1,6-dichlorohexane	Speed of sound, m/s	uncertainty
278.15	0	1357.05	1.05
278.15	0.0498	1355.02	1.04
278.15	0.1003	1353.35	1.03
278.15	0.14973	1352.02	1.02
278.15	0.25271	1350.38	0.99
278.15	0.40173	1350.41	0.96
278.15	0.50199	1351.88	0.94
278.15	0.59998	1355.08	0.92
278.15	0.70111	1360.12	0.9
278.15	0.79862	1366.83	0.89
278.15	0.89982	1376.13	0.87
278.15	0.94934	1381.55	0.86
278.15	0.96911	1383.7	0.86
278.15	1	1387.42	0.85
283.15	0	1337.42	1.05
283.15	0.0498	1335.46	1.03
283.15	0.1003	1333.89	1.02
283.15	0.14973	1332.68	1.01
283.15	0.25271	1331.21	0.99
283.15	0.40173	1331.4	0.96
283.15	0.50199	1333.3	0.93
283.15	0.59998	1336.66	0.92
283.15	0.70111	1341.95	0.9
283.15	0.79862	1348.88	0.88
283.15	0.89982	1358.4	0.86
283.15	0.94934	1363.95	0.86
283.15	0.96911	1366.18	0.85
283.15	1	1369.99	0.85
288.15	0	1317.62	1.04
288.15	0.0498	1315.74	1.03
288.15	0.1003	1314.28	1.02
288.15	0.14973	1313.18	1.01
288.15	0.25271	1311.85	0.98
288.15	0.40173	1312.37	0.95
288.15	0.50199	1314.53	0.93
288.15	0.59998	1318.07	0.91
288.15	0.70111	1323.64	0.89
288.15	0.79862	1330.73	0.87
288.15	0.89982	1340.43	0.86
288.15	0.94934	1346.12	0.85
288.15	0.96911	1348.41	0.85
288.15	1	1352.28	0.84
293.15	0	1298.04	1.04
293.15	0.0498	1296.26	1.02
293.15	0.1003	1294.86	1.01
293.15	0.14973	1293.86	1
293.15	0.25271	1292.74	0.98
293.15	0.40173	1293.53	0.95
293.15	0.50199	1295.87	0.92
293.15	0.59998	1299.67	0.91
293.15	0.70111	1305.41	0.89
293.15	0.79862	1312.8	0.87
293.15	0.89982	1322.68	0.85
293.15	0.94934	1328.42	0.85
293.15	0.96911	1330.86	0.84
293.15	1	1334.77	0.84
298.15	0	1278.49	1.03
298.15	0.0498	1276.84	1.02
298.15	0.1003	1275.54	1.01
298.15	0.14973	1274.58	1
298.15	0.25271	1273.66	0.97
298.15	0.40173	1274.73	0.94
298.15	0.50199	1277.29	0.92
298.15	0.59998	1281.31	0.9
298.15	0.70111	1287.26	0.88
298.15	0.79862	1294.81	0.86
298.15	0.89982	1304.92	0.85
298.15	0.94934	1310.81	0.84
298.15	0.96911	1313.25	0.84
298.15	1	1317.28	0.83
303.15	0	1259.15	1.03
303.15	0.0498	1257.6	1.01
303.15	0.1003	1256.37	1
303.15	0.14973	1255.48	0.99
303.15	0.25271	1254.74	0.97
303.15	0.40173	1256.08	0.94
303.15	0.50199	1258.82	0.91
303.15	0.59998	1263.08	0.89
303.15	0.70111	1269.21	0.88
303.15	0.79862	1276.99	0.86
303.15	0.89982	1287.34	0.84
303.15	0.94934	1293.34	0.83
303.15	0.96911	1295.81	0.83
303.15	1	1299.94	0.83
308.15	0	1240	1.02
308.15	0.0498	1238.46	1.01
308.15	0.1003	1237.39	1
308.15	0.14973	1236.59	0.99
308.15	0.25271	1235.99	0.96
308.15	0.40173	1237.61	0.93
308.15	0.50199	1240.55	0.91
308.15	0.59998	1244.95	0.89
308.15	0.70111	1251.27	0.87
308.15	0.79862	1259.29	0.85
308.15	0.89982	1269.8	0.84
308.15	0.94934	1275.96	0.83
308.15	0.96911	1278.52	0.83
308.15	1	1282.7	0.82
313.15	0	1221.04	1.02
313.15	0.0498	1219.61	1.01
313.15	0.1003	1218.53	0.99
313.15	0.14973	1217.9	0.98
313.15	0.25271	1217.47	0.96
313.15	0.40173	1219.28	0.93
313.15	0.50199	1222.4	0.9
313.15	0.59998	1227.04	0.88
313.15	0.70111	1233.56	0.87
313.15	0.79862	1241.77	0.85
313.15	0.89982	1252.45	0.83
313.15	0.94934	1258.8	0.82
313.15	0.96911	1261.33	0.82
313.15	1	1265.65	0.82
318.15	0	1202.28	1.01
318.15	0.0498	1200.91	1
318.15	0.1003	1199.93	0.99
318.15	0.14973	1199.33	0.98
318.15	0.25271	1199.03	0.95
318.15	0.40173	1201.18	0.92
318.15	0.50199	1204.43	0.9
318.15	0.59998	1209.23	0.88
318.15	0.70111	1215.98	0.86
318.15	0.79862	1224.33	0.84
318.15	0.89982	1235.31	0.83
318.15	0.94934	1241.71	0.82
318.15	0.96911	1244.29	0.82
318.15	1	1248.65	0.81
323.15	0	1183.64	1.01
323.15	0.0498	1182.36	1
323.15	0.1003	1181.37	0.98
323.15	0.14973	1180.88	0.97
323.15	0.25271	1180.77	0.95
323.15	0.40173	1183.13	0.92
323.15	0.50199	1186.55	0.89
323.15	0.59998	1191.57	0.88
323.15	0.70111	1198.46	0.86
323.15	0.79862	1207.04	0.84
323.15	0.89982	1218.19	0.82
323.15	0.94934	1224.72	0.81
323.15	0.96911	1227.38	0.81
323.15	1	1231.83	0.81
328.15	0	1165.12	1
328.15	0.0498	1163.9	0.99
328.15	0.1003	1163.04	0.98
328.15	0.14973	1162.62	0.97
328.15	0.25271	1162.61	0.94
328.15	0.40173	1165.23	0.91
328.15	0.50199	1168.83	0.89
328.15	0.59998	1174.01	0.87
328.15	0.70111	1181.13	0.85
328.15	0.79862	1189.91	0.83
328.15	0.89982	1201.23	0.82
328.15	0.94934	1207.85	0.81
328.15	0.96911	1210.55	0.81
328.15	1	1215.11	0.8

System: dodecane + 1,6-dichlorohexane; phases: Liquid
Fixed: Pressure, kPa = 101
Property: Mass density, kg/m3 (Liquid); method: Vibrating tube method
Temperature, K	Mole fraction of 1,6-dichlorohexane	Mass density, kg/m3	uncertainty
278.15	0	759.56	0.34
278.15	0.0498	769.76	0.34
278.15	0.1003	780.41	0.34
278.15	0.14973	791.41	0.33
278.15	0.25271	815.84	0.33
278.15	0.40173	855.12	0.32
278.15	0.50199	884.56	0.32
278.15	0.59998	916.3	0.31
278.15	0.70111	952.18	0.31
278.15	0.79862	990.33	0.3
278.15	0.89982	1034.17	0.3
278.15	0.94934	1057.53	0.3
278.15	0.96911	1067.22	0.3
278.15	1	1082.7	0.3
283.15	0	755.96	0.34
283.15	0.0498	766.11	0.34
283.15	0.1003	776.72	0.34
283.15	0.14973	787.68	0.33
283.15	0.25271	812	0.33
283.15	0.40173	851.13	0.32
283.15	0.50199	880.48	0.31
283.15	0.59998	912.1	0.31
283.15	0.70111	947.86	0.3
283.15	0.79862	985.89	0.3
283.15	0.89982	1029.59	0.3
283.15	0.94934	1052.88	0.3
283.15	0.96911	1062.53	0.3
283.15	1	1077.97	0.29
288.15	0	752.36	0.34
288.15	0.0498	762.46	0.34
288.15	0.1003	773.04	0.34
288.15	0.14973	783.94	0.33
288.15	0.25271	808.17	0.33
288.15	0.40173	847.16	0.32
288.15	0.50199	876.39	0.31
288.15	0.59998	907.89	0.31
288.15	0.70111	943.53	0.3
288.15	0.79862	981.42	0.3
288.15	0.89982	1024.98	0.3
288.15	0.94934	1048.19	0.3
288.15	0.96911	1057.82	0.3
288.15	1	1073.22	0.29
293.15	0	748.74	0.34
293.15	0.0498	758.82	0.34
293.15	0.1003	769.35	0.33
293.15	0.14973	780.2	0.33
293.15	0.25271	804.33	0.33
293.15	0.40173	843.16	0.32
293.15	0.50199	872.29	0.31
293.15	0.59998	903.68	0.31
293.15	0.70111	939.19	0.3
293.15	0.79862	976.96	0.3
293.15	0.89982	1020.39	0.3
293.15	0.94934	1043.52	0.3
293.15	0.96911	1053.11	0.3
293.15	1	1068.47	0.29
298.15	0	745.14	0.34
298.15	0.0498	755.16	0.34
298.15	0.1003	765.66	0.33
298.15	0.14973	776.45	0.33
298.15	0.25271	800.48	0.33
298.15	0.40173	839.16	0.32
298.15	0.50199	868.18	0.31
298.15	0.59998	899.46	0.31
298.15	0.70111	934.87	0.3
298.15	0.79862	972.49	0.3
298.15	0.89982	1015.8	0.29
298.15	0.94934	1038.85	0.29
298.15	0.96911	1048.42	0.29
298.15	1	1063.74	0.29
303.15	0	741.52	0.34
303.15	0.0498	751.5	0.34
303.15	0.1003	761.96	0.33
303.15	0.14973	772.7	0.33
303.15	0.25271	796.64	0.32
303.15	0.40173	835.16	0.32
303.15	0.50199	864.08	0.31
303.15	0.59998	895.24	0.31
303.15	0.70111	930.52	0.3
303.15	0.79862	968.02	0.3
303.15	0.89982	1011.2	0.29
303.15	0.94934	1034.18	0.29
303.15	0.96911	1043.71	0.29
303.15	1	1059	0.29
308.15	0	737.88	0.34
308.15	0.0498	747.81	0.33
308.15	0.1003	758.26	0.33
308.15	0.14973	768.93	0.33
308.15	0.25271	792.76	0.32
308.15	0.40173	831.14	0.32
308.15	0.50199	859.96	0.31
308.15	0.59998	891.01	0.3
308.15	0.70111	926.17	0.3
308.15	0.79862	963.55	0.3
308.15	0.89982	1006.61	0.29
308.15	0.94934	1029.52	0.29
308.15	0.96911	1039	0.29
308.15	1	1054.25	0.29
313.15	0	734.24	0.34
313.15	0.0498	744.13	0.33
313.15	0.1003	754.53	0.33
313.15	0.14973	765.15	0.33
313.15	0.25271	788.89	0.32
313.15	0.40173	827.13	0.31
313.15	0.50199	855.84	0.31
313.15	0.59998	886.78	0.3
313.15	0.70111	921.82	0.3
313.15	0.79862	959.07	0.29
313.15	0.89982	1002	0.29
313.15	0.94934	1024.85	0.29
313.15	0.96911	1034.3	0.29
313.15	1	1049.5	0.29
318.15	0	730.6	0.34
318.15	0.0498	740.46	0.33
318.15	0.1003	750.82	0.33
318.15	0.14973	761.37	0.33
318.15	0.25271	785.03	0.32
318.15	0.40173	823.12	0.31
318.15	0.50199	851.72	0.31
318.15	0.59998	882.55	0.3
318.15	0.70111	917.48	0.3
318.15	0.79862	954.61	0.29
318.15	0.89982	997.44	0.29
318.15	0.94934	1020.2	0.29
318.15	0.96911	1029.61	0.29
318.15	1	1044.78	0.28
323.15	0	726.95	0.33
323.15	0.0498	736.76	0.33
323.15	0.1003	747.09	0.33
323.15	0.14973	757.6	0.33
323.15	0.25271	781.15	0.32
323.15	0.40173	819.09	0.31
323.15	0.50199	847.59	0.31
323.15	0.59998	878.32	0.3
323.15	0.70111	913.12	0.3
323.15	0.79862	950.13	0.29
323.15	0.89982	992.83	0.29
323.15	0.94934	1015.52	0.29
323.15	0.96911	1024.9	0.29
323.15	1	1040.03	0.28
328.15	0	723.29	0.33
328.15	0.0498	733.07	0.33
328.15	0.1003	743.36	0.33
328.15	0.14973	753.83	0.33
328.15	0.25271	777.28	0.32
328.15	0.40173	815.09	0.31
328.15	0.50199	843.49	0.31
328.15	0.59998	874.11	0.3
328.15	0.70111	908.81	0.3
328.15	0.79862	945.71	0.29
328.15	0.89982	988.3	0.29
328.15	0.94934	1010.92	0.29
328.15	0.96911	1020.27	0.29
328.15	1	1035.37	0.28
