Measured thermophysical data. Viscosity for Aqueous Li2SO4 Solutions at Temperatures from 298 to 575 K and at Pressures up to 30 MPa
Source: J. Chem. Eng. Data, 2003, 10.1021/je030177j
Compound 1: water, H2O, InChI=1S/H2O/h1H2
Compound 2: lithium sulfate, Li2O4S, InChI=1S/2Li.H2O4S/c;;1-5(2,3)4/h;;(H2,1,2,3,4)/q2*+1;/p-2

System: water; phases: Liquid
Property: Viscosity, Pa*s (Liquid); method: Capillary tube (Ostwald; Ubbelohde) method
Temperature, K	Pressure, kPa	Viscosity, Pa*s	uncertainty
297.88	10000	0.000893	1.43e-05
297.88	20000	0.0008933	1.43e-05
297.88	30000	0.0008935	1.44e-05
319.09	10000	0.0005912	9.6e-06
319.09	20000	0.000589	9.6e-06
319.09	30000	0.0005978	9.7e-06
340.98	10000	0.0004195	6.9e-06
340.98	20000	0.0004232	6.9e-06
340.98	30000	0.0004275	7e-06
370.39	10000	0.0002947	4.9e-06
370.39	20000	0.0002976	5e-06
370.39	30000	0.0003012	5e-06
408.77	10000	0.000206	3.5e-06
408.77	20000	0.0002107	3.6e-06
408.77	30000	0.0002132	3.7e-06
447.38	10000	0.0001576	2.8e-06
447.38	20000	0.000161	2.8e-06
447.38	30000	0.0001637	2.9e-06
483.66	10000	0.000129	2.4e-06
483.66	20000	0.0001314	2.4e-06
483.66	30000	0.000134	2.4e-06
538.57	10000	0.0001005	1.9e-06
538.57	20000	0.0001027	2e-06
538.57	30000	0.0001058	2e-06
574.32	10000	8.66e-05	1.7e-06
574.32	20000	9.03e-05	1.8e-06
574.32	30000	9.32e-05	1.8e-06

System: water + lithium sulfate; phases: Liquid
Property: Viscosity, Pa*s (Liquid); method: Capillary tube (Ostwald; Ubbelohde) method
Molality, mol/kg of lithium sulfate	Temperature, K	Pressure, kPa	Viscosity, Pa*s	uncertainty
0.1	298.15	100	0.000939	1.51e-05
0.1	298.35	10000	0.000936	1.5e-05
0.1	298.35	20000	0.0009361	1.5e-05
0.1	298.35	30000	0.0009363	1.5e-05
0.1	303.15	100	0.000862	1.38e-05
0.1	308.52	10000	0.0007647	1.23e-05
0.1	308.52	20000	0.0007659	1.23e-05
0.1	308.52	30000	0.0007682	1.24e-05
0.1	313.15	100	0.000707	1.14e-05
0.1	313.67	10000	0.0006899	1.11e-05
0.1	313.67	20000	0.0006927	1.12e-05
0.1	313.67	30000	0.0006955	1.12e-05
0.1	323.15	100	0.000578	9.4e-06
0.1	324.55	10000	0.000566	9.2e-06
0.1	324.55	20000	0.0005689	9.2e-06
0.1	324.55	30000	0.0005716	9.3e-06
0.1	331.86	10000	0.0005013	8.2e-06
0.1	331.86	20000	0.0005035	8.2e-06
0.1	331.86	30000	0.0005061	8.2e-06
0.1	333.15	100	0.00049	8e-06
0.1	339.74	10000	0.0004463	7.3e-06
0.1	339.74	20000	0.0004491	7.3e-06
0.1	339.74	30000	0.000452	7.4e-06
0.1	343.15	100	0.000429	7e-06
0.1	347.05	10000	0.0004034	6.6e-06
0.1	347.05	20000	0.0004061	6.7e-06
0.1	347.05	30000	0.0004088	6.7e-06
0.1	348.15	100	0.000401	6.6e-06
0.1	356.84	10000	0.0003566	5.9e-06
0.1	356.84	20000	0.000359	5.9e-06
0.1	356.84	30000	0.0003621	6e-06
0.1	358.15	100	0.000355	5.9e-06
0.1	365.04	10000	0.0003241	5.4e-06
0.1	365.04	20000	0.0003265	5.4e-06
0.1	365.04	30000	0.0003291	5.5e-06
0.1	378.85	10000	0.0002812	4.7e-06
0.1	378.85	20000	0.0002836	4.7e-06
0.1	378.85	30000	0.0002862	4.8e-06
0.1	389.16	10000	0.0002554	4.3e-06
0.1	389.16	20000	0.0002577	4.3e-06
0.1	389.16	30000	0.0002599	4.4e-06
0.1	400.84	10000	0.0002306	3.9e-06
0.1	400.84	20000	0.0002331	4e-06
0.1	400.84	30000	0.000236	4e-06
0.1	410.95	10000	0.0002126	3.6e-06
0.1	410.95	20000	0.000215	3.7e-06
0.1	410.95	30000	0.0002192	3.7e-06
0.1	420.67	10000	0.000198	3.4e-06
0.1	420.67	20000	0.000201	3.5e-06
0.1	420.67	30000	0.0002031	3.5e-06
0.1	431.72	10000	0.0001829	3.2e-06
0.1	431.72	20000	0.0001849	3.2e-06
0.1	431.72	30000	0.0001871	3.2e-06
0.1	449.55	10000	0.000163	2.9e-06
0.1	449.55	20000	0.0001654	2.9e-06
0.1	449.55	30000	0.000168	3e-06
0.1	459.89	10000	0.0001532	2.7e-06
0.1	459.89	20000	0.0001553	2.8e-06
0.1	459.89	30000	0.0001577	2.8e-06
0.1	468.97	10000	0.0001454	2.6e-06
0.1	468.97	20000	0.0001477	2.6e-06
0.1	468.97	30000	0.00015	2.7e-06
0.1	473.25	10000	0.0001421	2.6e-06
0.1	473.25	20000	0.0001467	2.6e-06
0.1	473.25	30000	0.000149	2.7e-06
0.1	482.35	10000	0.0001352	2.5e-06
0.1	482.35	20000	0.0001378	2.5e-06
0.1	482.35	30000	0.0001404	2.5e-06
0.1	490.35	10000	0.0001297	2.4e-06
0.1	490.35	20000	0.0001322	2.4e-06
0.1	490.35	30000	0.0001354	2.5e-06
0.1	501.3	10000	0.0001228	2.3e-06
0.1	501.3	20000	0.000125	2.3e-06
0.1	501.3	30000	0.0001275	2.3e-06
0.1	510.93	10000	0.0001172	2.2e-06
0.1	510.93	20000	0.0001199	2.2e-06
0.1	510.93	30000	0.0001235	2.3e-06
0.1	521.75	10000	0.0001115	2.1e-06
0.1	521.75	20000	0.0001143	2.1e-06
0.1	521.75	30000	0.000117	2.2e-06
0.1	530.53	10000	0.0001072	2e-06
0.1	530.53	20000	0.0001097	2.1e-06
0.1	530.53	30000	0.0001122	2.1e-06
0.1	541.04	10000	0.0001024	2e-06
0.1	541.04	20000	0.0001052	2e-06
0.1	541.04	30000	0.0001087	2.1e-06
0.1	547.35	10000	9.98e-05	1.9e-06
0.1	547.35	20000	0.0001027	2e-06
0.1	547.35	30000	0.0001055	2e-06
0.1	560.43	10000	9.48e-05	1.8e-06
0.1	560.43	20000	9.77e-05	1.9e-06
0.1	560.43	30000	9.99e-05	1.9e-06
0.1	569.15	10000	9.17e-05	1.8e-06
0.1	569.15	20000	9.45e-05	1.8e-06
0.1	569.15	30000	9.77e-05	1.9e-06
0.1	574.75	10000	8.97e-05	1.8e-06
0.1	574.75	20000	9.28e-05	1.8e-06
0.1	574.75	30000	9.57e-05	1.9e-06
0.28	298.15	100	0.001037	1.66e-05
0.28	298.25	10000	0.001035	1.66e-05
0.28	298.25	20000	0.001035	1.66e-05
0.28	298.25	30000	0.001036	1.66e-05
0.28	303.15	100	0.000951	1.53e-05
0.28	307.93	10000	0.0008517	1.37e-05
0.28	307.93	20000	0.0008546	1.37e-05
0.28	307.93	30000	0.000857	1.38e-05
0.28	312.27	10000	0.000778	1.25e-05
0.28	312.27	20000	0.0007812	1.26e-05
0.28	312.27	30000	0.000784	1.26e-05
0.28	313.15	100	0.000778	1.25e-05
0.28	321.55	10000	0.0006508	1.05e-05
0.28	321.55	20000	0.0006539	1.06e-05
0.28	321.55	30000	0.0006569	1.06e-05
0.28	323.15	100	0.00063	1.02e-05
0.28	329.44	10000	0.000567	9.2e-06
0.28	329.44	20000	0.00057	9.3e-06
0.28	329.44	30000	0.0005731	9.3e-06
0.28	333.15	100	0.000532	8.7e-06
0.28	338.71	10000	0.0004914	8e-06
0.28	338.71	20000	0.0004942	8.1e-06
0.28	338.71	30000	0.0004979	8.1e-06
0.28	343.15	100	0.000462	7.6e-06
0.28	343.35	10000	0.0004594	7.5e-06
0.28	343.35	20000	0.0004623	7.6e-06
0.28	343.35	30000	0.0004653	7.6e-06
0.28	348.15	100	0.000433	7.1e-06
0.28	351.04	10000	0.000415	6.8e-06
0.28	351.04	20000	0.0004183	6.9e-06
0.28	351.04	30000	0.0004215	6.9e-06
0.28	358.15	100	0.000381	6.3e-06
0.28	362.74	10000	0.0003601	6e-06
0.28	362.74	20000	0.000363	6e-06
0.28	362.74	30000	0.0003662	6e-06
0.28	375.75	10000	0.0003127	5.2e-06
0.28	375.75	20000	0.0003153	5.2e-06
0.28	375.75	30000	0.0003181	5.3e-06
0.28	383.06	10000	0.0002916	4.9e-06
0.28	383.06	20000	0.0002942	4.9e-06
0.28	383.06	30000	0.0002974	5e-06
0.28	390.42	10000	0.0002721	4.6e-06
0.28	390.42	20000	0.000275	4.6e-06
0.28	390.42	30000	0.0002784	4.7e-06
0.28	399.95	10000	0.0002502	4.2e-06
0.28	399.95	20000	0.0002528	4.3e-06
0.28	399.95	30000	0.0002555	4.3e-06
0.28	409.36	10000	0.0002314	3.9e-06
0.28	409.36	20000	0.000234	4e-06
0.28	409.36	30000	0.0002369	4e-06
0.28	417.42	10000	0.0002175	3.7e-06
0.28	417.42	20000	0.0002199	3.8e-06
0.28	417.42	30000	0.0002227	3.8e-06
0.28	423.55	10000	0.000208	3.6e-06
0.28	423.55	20000	0.0002106	3.6e-06
0.28	423.55	30000	0.0002133	3.7e-06
0.28	430.73	10000	0.0001975	3.4e-06
0.28	430.73	20000	0.0001999	3.4e-06
0.28	430.73	30000	0.0002024	3.5e-06
0.28	440.04	10000	0.0001858	3.2e-06
0.28	440.04	20000	0.0001885	3.3e-06
0.28	440.04	30000	0.000191	3.3e-06
0.28	449.35	10000	0.000175	3.1e-06
0.28	449.35	20000	0.0001776	3.1e-06
0.28	449.35	30000	0.0001803	3.1e-06
0.28	458.17	10000	0.0001658	2.9e-06
0.28	458.17	20000	0.0001682	3e-06
0.28	458.17	30000	0.0001704	3e-06
0.28	462.13	10000	0.000162	2.9e-06
0.28	462.13	20000	0.0001649	2.9e-06
0.28	462.13	30000	0.0001674	2.9e-06
0.28	468.74	10000	0.0001558	2.8e-06
0.28	468.74	20000	0.0001582	2.8e-06
0.28	468.74	30000	0.0001612	2.9e-06
0.28	475.55	10000	0.00015	2.7e-06
0.28	475.55	20000	0.0001528	2.7e-06
0.28	475.55	30000	0.0001555	2.8e-06
0.28	485.17	10000	0.0001424	2.6e-06
0.28	485.17	20000	0.0001452	2.6e-06
0.28	485.17	30000	0.0001475	2.6e-06
0.28	495.14	10000	0.0001352	2.5e-06
0.28	495.14	20000	0.0001377	2.5e-06
0.28	495.14	30000	0.00014	2.5e-06
0.28	515.27	10000	0.0001224	2.3e-06
0.28	515.27	20000	0.0001247	2.3e-06
0.28	515.27	30000	0.0001271	2.3e-06
0.28	525.95	10000	0.0001166	2.2e-06
0.28	525.95	20000	0.0001196	2.2e-06
0.28	525.95	30000	0.0001225	2.3e-06
0.28	540.08	10000	0.0001096	2.1e-06
0.28	540.08	20000	0.0001125	2.1e-06
0.28	540.08	30000	0.0001156	2.2e-06
0.28	560.12	10000	0.0001011	1.9e-06
0.28	560.12	20000	0.000104	2e-06
0.28	560.12	30000	0.0001075	2e-06
0.28	573.45	10000	9.62e-05	1.9e-06
0.28	573.45	20000	9.95e-05	1.9e-06
0.28	573.45	30000	0.0001025	2e-06
0.56	298.15	100	0.001195	1.92e-05
0.56	298.15	10000	0.0011945	1.91e-05
0.56	298.15	20000	0.0011945	1.91e-05
0.56	298.15	30000	0.0011947	1.92e-05
0.56	303.15	100	0.001096	1.76e-05
0.56	306.19	10000	0.001013	1.63e-05
0.56	306.19	20000	0.0010157	1.63e-05
0.56	306.19	30000	0.0010179	1.64e-05
0.56	311.24	10000	0.0009141	1.47e-05
0.56	311.24	20000	0.0009168	1.48e-05
0.56	311.24	30000	0.0009192	1.48e-05
0.56	313.15	100	0.000891	1.43e-05
0.56	322.35	10000	0.0007352	1.19e-05
0.56	322.35	20000	0.0007388	1.19e-05
0.56	322.35	30000	0.0007422	1.2e-05
0.56	323.15	100	0.000722	1.17e-05
0.56	331.27	10000	0.0006319	1.03e-05
0.56	331.27	20000	0.0006354	1.03e-05
0.56	331.27	30000	0.0006372	1.03e-05
0.56	333.15	100	0.00061	9.9e-06
0.56	340.73	10000	0.0005456	8.9e-06
0.56	340.73	20000	0.0005484	8.9e-06
0.56	340.73	30000	0.0005514	9e-06
0.56	343.15	100	0.00053	8.6e-06
0.56	348.15	100	0.000495	8.1e-06
0.56	349.55	10000	0.0004831	7.9e-06
0.56	349.55	20000	0.0004864	8e-06
0.56	349.55	30000	0.0004897	8e-06
0.56	358.15	100	0.000437	7.2e-06
0.56	361.24	10000	0.0004168	6.9e-06
0.56	361.24	20000	0.0004191	6.9e-06
0.56	361.24	30000	0.0004222	6.9e-06
0.56	372.13	10000	0.0003691	6.1e-06
0.56	372.13	20000	0.0003721	6.2e-06
0.56	372.13	30000	0.0003752	6.2e-06
0.56	384.05	10000	0.0003274	5.4e-06
0.56	384.05	20000	0.0003304	5.5e-06
0.56	384.05	30000	0.0003335	5.5e-06
0.56	390.35	10000	0.0003089	5.2e-06
0.56	390.35	20000	0.0003124	5.2e-06
0.56	390.35	30000	0.0003154	5.3e-06
0.56	401.73	10000	0.0002797	4.7e-06
0.56	401.73	20000	0.0002827	4.7e-06
0.56	401.73	30000	0.0002855	4.8e-06
0.56	411.05	10000	0.0002584	4.4e-06
0.56	411.05	20000	0.0002613	4.4e-06
0.56	411.05	30000	0.0002644	4.5e-06
0.56	415.13	10000	0.0002502	4.2e-06
0.56	415.13	20000	0.0002531	4.3e-06
0.56	415.13	30000	0.0002564	4.3e-06
0.56	418.18	10000	0.0002443	4.1e-06
0.56	418.18	20000	0.0002469	4.2e-06
0.56	418.18	30000	0.0002497	4.2e-06
0.56	424.55	10000	0.000233	4e-06
0.56	424.55	20000	0.0002359	4e-06
0.56	424.55	30000	0.000239	4.1e-06
0.56	431.83	10000	0.0002212	3.8e-06
0.56	431.83	20000	0.0002231	3.8e-06
0.56	431.83	30000	0.0002251	3.8e-06
0.56	437.24	10000	0.000213	3.7e-06
0.56	437.24	20000	0.0002154	3.7e-06
0.56	437.24	30000	0.0002185	3.7e-06
0.56	446.35	10000	0.0002	3.5e-06
0.56	446.35	20000	0.000203	3.5e-06
0.56	446.35	30000	0.000206	3.5e-06
0.56	452.17	10000	0.0001927	3.3e-06
0.56	452.17	20000	0.0001957	3.4e-06
0.56	452.17	30000	0.0001984	3.4e-06
0.56	459.12	10000	0.0001843	3.2e-06
0.56	459.12	20000	0.0001878	3.3e-06
0.56	459.12	30000	0.00019	3.3e-06
0.56	468.13	10000	0.000175	3.1e-06
0.56	468.13	20000	0.0001787	3.1e-06
0.56	468.13	30000	0.0001813	3.2e-06
0.56	479.55	10000	0.0001637	2.9e-06
0.56	479.55	20000	0.0001668	2.9e-06
0.56	479.55	30000	0.0001699	3e-06
0.56	490.76	10000	0.0001538	2.7e-06
0.56	490.76	20000	0.0001567	2.8e-06
0.56	490.76	30000	0.0001595	2.8e-06
0.56	510.12	10000	0.0001391	2.5e-06
0.56	510.12	20000	0.000142	2.6e-06
0.56	510.12	30000	0.0001455	2.6e-06
0.56	522.75	10000	0.0001308	2.4e-06
0.56	522.75	20000	0.0001341	2.4e-06
0.56	522.75	30000	0.0001373	2.5e-06
0.56	532.85	10000	0.000125	2.3e-06
0.56	532.85	20000	0.0001281	2.3e-06
0.56	532.85	30000	0.000131	2.4e-06
0.56	551.24	10000	0.0001151	2.2e-06
0.56	551.24	20000	0.0001184	2.2e-06
0.56	551.24	30000	0.0001214	2.2e-06
0.56	560.72	10000	0.0001106	2.1e-06
0.56	560.72	20000	0.0001132	2.1e-06
0.56	560.72	30000	0.000115	2.2e-06
0.56	572.05	10000	0.0001056	2e-06
0.56	572.05	20000	0.0001092	2.1e-06
0.56	572.05	30000	0.0001126	2.1e-06
0.885	298.15	100	0.001411	2.27e-05
0.885	298.45	10000	0.0014039	2.26e-05
0.885	298.45	20000	0.0014042	2.26e-05
0.885	298.45	30000	0.0014045	2.26e-05
0.885	303.15	100	0.001294	2.08e-05
0.885	307.35	10000	0.0011698	1.88e-05
0.885	307.35	20000	0.0011733	1.89e-05
0.885	307.35	30000	0.0011764	1.89e-05
0.885	313.15	100	0.001054	1.7e-05
0.885	314.12	10000	0.0010162	1.64e-05
0.885	314.12	20000	0.0010194	1.64e-05
0.885	314.12	30000	0.0010226	1.65e-05
0.885	322.55	10000	0.0008649	1.4e-05
0.885	322.55	20000	0.0008691	1.41e-05
0.885	322.55	30000	0.0008731	1.41e-05
0.885	323.15	100	0.000853	1.38e-05
0.885	330.24	10000	0.0007558	1.23e-05
0.885	330.24	20000	0.0007598	1.23e-05
0.885	330.24	30000	0.0007639	1.24e-05
0.885	333.15	100	0.000718	1.17e-05
0.885	340.72	10000	0.0006414	1.04e-05
0.885	340.72	20000	0.0006452	1.05e-05
0.885	340.72	30000	0.0006494	1.06e-05
0.885	343.15	100	0.000624	1.02e-05
0.885	348.15	100	0.000582	9.5e-06
0.885	348.95	10000	0.0005714	9.3e-06
0.885	348.95	20000	0.0005753	9.4e-06
0.885	348.95	30000	0.0005792	9.5e-06
0.885	358.15	100	0.000511	8.4e-06
0.885	359.14	10000	0.0004999	8.2e-06
0.885	359.14	20000	0.0005041	8.3e-06
0.885	359.14	30000	0.000508	8.3e-06
0.885	369.72	10000	0.0004415	7.3e-06
0.885	369.72	20000	0.0004452	7.3e-06
0.885	369.72	30000	0.0004495	7.4e-06
0.885	379.05	10000	0.0003993	6.6e-06
0.885	379.05	20000	0.0004028	6.7e-06
0.885	379.05	30000	0.0004065	6.7e-06
0.885	384.27	10000	0.0003782	6.3e-06
0.885	384.27	20000	0.000382	6.3e-06
0.885	384.27	30000	0.0003861	6.4e-06
0.885	390.72	10000	0.000355	5.9e-06
0.885	390.72	20000	0.0003591	6e-06
0.885	390.72	30000	0.0003633	6e-06
0.885	397.35	10000	0.0003337	5.6e-06
0.885	397.35	20000	0.0003371	5.6e-06
0.885	397.35	30000	0.0003406	5.7e-06
0.885	405.24	10000	0.0003115	5.2e-06
0.885	405.24	20000	0.0003152	5.3e-06
0.885	405.24	30000	0.0003194	5.3e-06
0.885	415.76	10000	0.000286	4.8e-06
0.885	415.76	20000	0.0002901	4.9e-06
0.885	415.76	30000	0.0002944	4.9e-06
0.885	424.05	10000	0.0002687	4.5e-06
0.885	424.05	20000	0.0002721	4.6e-06
0.885	424.05	30000	0.0002756	4.7e-06
0.885	430.26	10000	0.0002564	4.4e-06
0.885	430.26	20000	0.0002601	4.4e-06
0.885	430.26	30000	0.000264	4.5e-06
0.885	439.37	10000	0.0002402	4.1e-06
0.885	439.37	20000	0.000244	4.2e-06
0.885	439.37	30000	0.0002479	4.2e-06
0.885	449.15	10000	0.0002248	3.9e-06
0.885	449.15	20000	0.0002283	3.9e-06
0.885	449.15	30000	0.0002318	4e-06
0.885	458.12	10000	0.0002109	3.6e-06
0.885	458.12	20000	0.0002139	3.7e-06
0.885	458.12	30000	0.0002179	3.7e-06
0.885	466.79	10000	0.0002003	3.5e-06
0.885	466.79	20000	0.0002038	3.5e-06
0.885	466.79	30000	0.0002071	3.6e-06
0.885	476.95	10000	0.0001885	3.3e-06
0.885	476.95	20000	0.000192	3.3e-06
0.885	476.95	30000	0.0001956	3.4e-06
0.885	485.13	10000	0.0001797	3.2e-06
0.885	485.13	20000	0.0001835	3.2e-06
0.885	485.13	30000	0.0001871	3.3e-06
0.885	492.49	10000	0.0001725	3e-06
0.885	492.49	20000	0.0001761	3.1e-06
0.885	492.49	30000	0.000179	3.1e-06
0.885	500.43	10000	0.0001653	2.9e-06
0.885	500.43	20000	0.0001688	3e-06
0.885	500.43	30000	0.0001722	3e-06
0.885	509.17	10000	0.000158	2.8e-06
0.885	509.17	20000	0.0001614	2.9e-06
0.885	509.17	30000	0.0001649	2.9e-06
0.885	517.75	10000	0.0001513	2.7e-06
0.885	517.75	20000	0.000155	2.8e-06
0.885	517.75	30000	0.0001586	2.8e-06
0.885	526.12	10000	0.0001453	2.6e-06
0.885	526.12	20000	0.0001491	2.7e-06
0.885	526.12	30000	0.0001527	2.7e-06
0.885	538.24	10000	0.0001372	2.5e-06
0.885	538.24	20000	0.0001408	2.6e-06
0.885	538.24	30000	0.0001443	2.6e-06
0.885	550.72	10000	0.0001297	2.4e-06
0.885	550.72	20000	0.0001335	2.4e-06
0.885	550.72	30000	0.0001372	2.5e-06
0.885	560.18	10000	0.0001246	2.3e-06
0.885	560.18	20000	0.0001282	2.4e-06
0.885	560.18	30000	0.0001318	2.4e-06
0.885	574.55	10000	0.0001176	2.2e-06
0.885	574.55	20000	0.0001217	2.3e-06
0.885	574.55	30000	0.0001255	2.3e-06
