Measured thermophysical data. Solid-Liquid Equilibria of Several Systems Containing Acetic Acid
Source: J. Chem. Eng. Data, 2004, 10.1021/je034114c
Compound 1: 4-methylbenzoic acid, C8H8O2, InChI=1S/C8H8O2/c1-6-2-4-7(5-3-6)8(9)10/h2-5H,1H3,(H,9,10), purity 99%
Compound 2: water, H2O, InChI=1S/H2O/h1H2
Compound 3: acetic acid, C2H4O2, InChI=1S/C2H4O2/c1-2(3)4/h1H3,(H,3,4)
Compound 4: 4-carboxybenzaldehyde, C8H6O3, InChI=1S/C8H6O3/c9-5-6-1-3-7(4-2-6)8(10)11/h1-5H,(H,10,11), purity 98.5%
Compound 5: 1,4-benzenedicarboxylic acid, C8H6O4, InChI=1S/C8H6O4/c9-7(10)5-1-2-6(4-3-5)8(11)12/h1-4H,(H,9,10)(H,11,12), purity 99.95%

System: 4-methylbenzoic acid + water; phases: Liquid, Crystal
Fixed: Pressure, kPa = 101
Property: Solid-liquid equilibrium temperature, K (Liquid); method: OTHER
Mole fraction of 4-methylbenzoic acid	Solid-liquid equilibrium temperature, K	uncertainty
2.445e-05	290.25	1
3.869e-05	299.55	1
4.168e-05	301.35	1
5.93e-05	311.25	1
7.884e-05	317.25	1
8.685e-05	320.05	1
0.0001134	327.75	1
0.0001466	335.35	1
0.0001673	339.85	1
0.0001937	344.95	1
0.0002076	348.35	1

System: acetic acid + 4-methylbenzoic acid; phases: Liquid, Crystal
Fixed: Pressure, kPa = 101
Property: Solid-liquid equilibrium temperature, K (Liquid); method: OTHER
Mole fraction of 4-methylbenzoic acid	Solid-liquid equilibrium temperature, K	uncertainty
0.03421	291.95	1.06
0.0344	292.45	1.06
0.03724	297.35	1.05
0.04006	301.65	1.04
0.04488	307.75	1.03
0.04829	311.95	1.02
0.05505	318.25	1.01
0.06397	324.95	1.01
0.06868	328.25	1.01
0.08225	335.05	1
0.09625	340.45	1
0.1093	344.45	1
0.127	348.85	1
0.1303	349.75	1

System: acetic acid + 4-carboxybenzaldehyde; phases: Liquid, Crystal
Fixed: Pressure, kPa = 101
Property: Solid-liquid equilibrium temperature, K (Liquid); method: OTHER
Mole fraction of 4-carboxybenzaldehyde	Solid-liquid equilibrium temperature, K	uncertainty
0.001318	288.95	2
0.001437	292.85	2
0.001729	293.55	4
0.001849	298.65	1.58
0.002332	303.85	1.57
0.002678	308.75	1.59
0.003266	315.45	1.39
0.004103	322.55	1.28
0.005063	329.95	1.26

System: acetic acid + 4-methylbenzoic acid + water; phases: Liquid, Crystal
Fixed: Solvent: Mass fraction of acetic acid = 0.842
Fixed: Pressure, kPa = 101
Property: Solid-liquid equilibrium temperature, K (Liquid); method: OTHER
Mole fraction of 4-methylbenzoic acid	Solid-liquid equilibrium temperature, K	uncertainty
0.009119	290.55	2.07
0.01367	302.65	2.05
0.01914	312.95	2.03
0.02397	319.75	2.01
0.02958	323.35	2.01
0.03712	329.45	2.01
0.04899	338.95	2
0.06921	349.05	2
0.07723	350.85	2

System: acetic acid + 1,4-benzenedicarboxylic acid + water; phases: Liquid, Crystal
Fixed: Pressure, kPa = 101
Property: Solid-liquid equilibrium temperature, K (Liquid); method: OTHER
Solvent: Mass fraction of acetic acid	Mole fraction of 1,4-benzenedicarboxylic acid	Solid-liquid equilibrium temperature, K	uncertainty
0.746	2.138e-06	312.9	2.08
0.746	4.55e-06	321.65	2.27
0.746	8.337e-06	328.95	2.66
0.746	1.3e-05	334.75	3.17
0.746	2.483e-05	341.15	4.69
0.746	3.228e-05	345.35	5.45
0.746	3.793e-05	347.75	6.03
0.746	3.945e-05	349.15	6.04
0.746	6.683e-05	354.55	8.01
0.746	9.419e-05	360.3	10.25
0.746	0.0001592	368.6	10.23
0.746	0.0002483	379.3	7.72
0.746	0.0003715	389.9	6.31
0.746	0.0007379	404.65	3.73
0.746	0.001081	412.2	3.05
0.746	0.0013	417.65	2.66
0.746	0.00191	427.15	2.33
0.746	0.002748	435.05	2.21
0.842	2.426e-06	312.63	2.09
0.842	4.027e-06	318.89	2.24
0.842	1.3e-05	330.95	3.66
0.842	1.69e-05	334.35	4.44
0.842	2.333e-05	335.55	5.88
0.842	4.457e-05	344.3	7.02
0.842	8.69e-05	355.35	13.63
0.842	0.0002333	371.15	11.66
0.842	0.0004365	383.65	6.17
0.842	0.0005916	396.75	4.94
0.842	0.0007691	404.35	4.7
0.842	0.001151	414.15	2.81
0.842	0.00156	419.85	2.27
0.842	0.002307	426.55	2.08
0.842	0.004563	437.95	2.06
0.9136	2.333e-06	310.6	2.07
0.9136	3.228e-06	313.95	2.13
0.9136	5.035e-06	319.45	2.25
0.9136	1.69e-05	330.1	3.49
0.9136	3.296e-05	337.1	5.34
0.9136	5.572e-05	342.95	7.95
0.9136	9.419e-05	350.2	10.25
0.9136	0.0001327	356.95	9.84
0.9136	0.000257	370.75	9.64
0.9136	0.000389	381.65	6.11
0.9136	0.0004074	384.35	6.1
0.9136	0.0005623	391.85	5.41
0.9136	0.000912	403.95	3.73
0.9136	0.001122	409.25	2.39
0.9136	0.001862	417.15	2.26
0.9136	0.002399	422.65	2.06
0.9136	0.004454	431.25	2.03
0.9136	0.006846	439.35	2.03

System: acetic acid + 4-carboxybenzaldehyde + water; phases: Liquid, Crystal
Fixed: Solvent: Mass fraction of acetic acid = 0.842
Fixed: Pressure, kPa = 101
Property: Solid-liquid equilibrium temperature, K (Liquid); method: OTHER
Mole fraction of 4-carboxybenzaldehyde	Solid-liquid equilibrium temperature, K	uncertainty
0.0009656	288.25	2.59
0.001269	293.25	3.01
0.001574	301.95	2.84
0.002062	309.65	2.62
0.002454	316.95	2.43
0.00304	323.35	2.22
0.003838	330.35	2.14
0.004727	336.45	2.08
0.006257	344.35	2.07
