Measured thermophysical data. Investigation of the Thermal Behaviour of Trielaidin Between 10 K and 360 K
Source: J. Chem. Eng. Data, 2003, 10.1021/je034048e
Compound 1: trielaidin, C57H104O6, InChI=1S/C57H104O6/c1-4-7-10-13-16-19-22-25-28-31-34-37-40-43-46-49-55(58)61-52-54(63-57(60)51-48-45-42-39-36-33-30-27-24-21-18-15-12-9-6-3)53-62-56(59)50-47-44-41-38-35-32-29-26-23-20-17-14-11-8-5-2/h25-30,54H,4-24,31-53H2,1-3H3/b28-25+,29-26+,30-27+, purity 99%

System: trielaidin; phases: Crystal, Liquid, Gas
Property: Molar enthalpy of transition or fusion, kJ/mol (Crystal); method: Adiabatic calorimetry
Molar enthalpy of transition or fusion, kJ/mol	uncertainty
157.075647444	3.18844084806

System: trielaidin; phases: Crystal, Liquid, Gas
Property: Triple point temperature, K (Crystal); method: Adiabatic calorimetry
Triple point temperature, K	uncertainty
314.83	1

System: trielaidin; phases: Liquid
Fixed: Pressure, kPa = 101.325
Property: Molar heat capacity at constant pressure, J/K/mol (Liquid); method: Small (less than 1 g) adiabatic calorimetry
Temperature, K	Molar heat capacity at constant pressure, J/K/mol	uncertainty
317.71	1884.19942368	38.07357858
318.99	1886.85571986	38.07357858
320.03	1891.28288016	38.07357858
321	1895.71004046	38.07357858
322.34	1893.93917634	38.07357858
323.01	1896.59547252	38.07357858
324.66	1901.90806488	38.07357858
325.03	1902.79349694	38.07357858
326.98	1907.22065724	38.95901064
327.05	1906.33522518	38.95901064
329.07	1911.64781754	38.95901064
329.29	1913.41868166	38.95901064
331.09	1916.07497784	38.95901064
331.61	1918.73127402	38.95901064
333.11	1918.73127402	38.95901064
333.92	1922.27300226	38.95901064
335.13	1922.27300226	38.95901064
336.24	1926.70016256	38.95901064
337.15	1926.70016256	38.95901064
338.55	1932.89818698	38.95901064
339.17	1933.78361904	38.95901064
340.87	1940.86707552	38.95901064
343.19	1946.17966788	38.95901064
345.51	1950.60682818	39.8355883794
347.83	1954.14855642	39.8355883794
350.15	1963.00287702	39.8355883794

System: trielaidin; phases: Crystal
Fixed: Pressure, kPa = 101.325
Property: Molar heat capacity at constant pressure, J/K/mol (Crystal); method: SMALLAD:UFactor:2
Temperature, K	Molar heat capacity at constant pressure, J/K/mol	uncertainty
10.52	3.54172824	0.88543206
11.9	8.8543206	0.88543206
12.76	23.90666562	0.88543206
14.41	29.21925798	0.88543206
16.16	44.271603	1.77086412
17.98	59.32394802	1.77086412
19.96	75.2617251	1.77086412
22.02	93.85579836	2.65629618
24.22	111.56443956	2.65629618
26.5	130.15851282	3.54172824
28.88	149.63801814	3.54172824
32.4	229.32690354	5.31259236
35.94	215.15999058	4.4271603
38.34	255.00443328	5.31259236
40.46	267.40048212	5.31259236
42.73	264.74418594	5.31259236
45.11	290.42171568	6.19802442
47.47	311.67208512	7.08345648
49.86	329.38072632	7.08345648
52.29	347.97479958	7.08345648
54.77	367.4543049	7.96888854
57.28	389.5901064	7.96888854
59.83	409.06961172	8.8543206
62.4	409.95504378	8.8543206
65.01	435.63257352	9.73975266
67.64	457.76837502	9.73975266
70.3	473.7061521	9.73975266
72.97	489.64392918	10.6340390406
75.67	503.81084214	10.6340390406
78.39	521.51948334	11.51061678
81.12	535.6863963	11.51061678
83.86	550.73874132	11.51061678
86.62	565.79108634	12.39604884
89.39	580.84343136	12.39604884
92.18	595.01034432	12.39604884
95.56	609.17725728	12.39604884
99.01	629.54219466	13.2814809
104.65	654.33429234	13.2814809
107.48	666.73034118	14.16691296
110.32	677.3555259	14.16691296
113.16	689.75157474	14.16691296
116	701.26219152	15.05234502
118.85	713.65824036	15.05234502
121.7	725.16885714	15.05234502
124.56	734.02317774	15.05234502
127.41	742.87749834	15.93777708
130.27	758.81527542	15.93777708
133.13	766.78416396	15.93777708
135.99	775.63848456	15.93777708
138.85	786.26366928	16.82320914
141.71	796.00342194	16.82320914
144.57	804.85774254	16.82320914
147.42	815.48292726	16.82320914
150.23	826.99354404	17.7086412
153.02	837.61872876	17.7086412
155.77	850.0147776	17.7086412
158.51	861.52539438	17.7086412
161.21	871.26514704	18.59407326
163.89	883.66119588	18.59407326
166.55	893.40094854	18.59407326
169.18	904.91156532	18.59407326
171.79	914.65131798	19.47950532
174.38	927.04736682	19.47950532
176.95	936.78711948	19.47950532
179.5	947.4123042	19.47950532
182.03	958.03748892	20.3560830594
184.54	970.43353776	20.3560830594
187.03	978.4024263	20.3560830594
189.51	989.02761102	20.3560830594
191.97	998.76736368	21.25036944
194.42	1008.50711634	21.25036944
196.84	1020.01773312	21.25036944
199.25	1028.87205372	21.25036944
201.65	1037.72637432	21.25036944
206.39	1058.0913117	22.1358015
208.74	1067.83106436	22.1358015
211.08	1077.57081702	22.1358015
213.41	1087.31056968	23.02123356
215.72	1097.9357544	23.02123356
218.01	1108.56093912	23.02123356
220.3	1117.41525972	23.02123356
222.57	1127.15501238	23.90666562
224.83	1137.7801971	23.90666562
227.07	1149.29081388	23.90666562
229.31	1160.80143066	23.90666562
231.53	1169.65575126	24.79209768
233.74	1180.28093598	24.79209768
235.94	1190.9061207	24.79209768
238.13	1201.53130542	24.79209768
240.31	1212.15649014	25.67752974
242.48	1222.78167486	25.67752974
244.64	1235.1777237	25.67752974
246.79	1245.80290842	25.67752974
248.93	1256.42809314	26.5629618
251.06	1268.82414198	26.5629618
253.19	1279.4493267	26.5629618
255.3	1292.7308076	26.5629618
257.41	1305.12685644	27.44839386
259.5	1320.17920146	27.44839386
261.59	1332.5752503	27.44839386
263.67	1345.8567312	28.33382592
265.75	1360.90907622	28.33382592
267.81	1374.19055712	28.33382592
269.86	1389.24290214	29.21925798
271.91	1403.4098151	29.21925798
273.95	1419.34759218	29.21925798
275.98	1437.94166544	30.10469004
278	1454.76487458	30.10469004
280.02	1471.58808372	30.9901221
282.03	1489.29672492	30.9901221
284.04	1509.6616623	31.8844084806
288.03	1543.30808058	31.8844084806
290.02	1560.13128972	32.76098622
292	1580.4962271	32.76098622
293.98	1601.74659654	33.64641828
295.95	1622.11153392	33.64641828
297.92	1646.9036316	34.53185034
299.88	1669.92486516	34.53185034
301.84	1708.8838758	35.4172824
303.79	1742.53029408	36.30271446
305.74	1795.65621768	37.18814652
307.67	1890.3974481	38.95901064
309.58	2118.83891958	44.271603

System: trielaidin; phases: Metastable crystal
Fixed: Pressure, kPa = 101.325
Property: Molar heat capacity at constant pressure, J/K/mol (Metastable crystal); method: Small (less than 1 g) adiabatic calorimetry
Temperature, K	Molar heat capacity at constant pressure, J/K/mol	uncertainty
8.85	2.65629618	0.88543206
9.73	8.8543206	0.88543206
10.55	11.51061678	0.88543206
11.43	19.47950532	0.88543206
12.54	24.79209768	0.88543206
13.08	28.33382592	0.88543206
14.42	36.30271446	0.88543206
14.92	40.72987476	0.88543206
16.44	50.46962742	0.88543206
16.93	56.66765184	1.77086412
18.55	70.8345648	1.77086412
18.95	75.2617251	1.77086412
20.71	89.42863806	1.77086412
21.09	93.85579836	1.77086412
22.99	110.6790075	2.65629618
23.34	113.33530368	2.65629618
25.34	130.15851282	2.65629618
25.67	134.58567312	2.65629618
27.78	148.75258608	3.54172824
28.07	150.5234502	3.54172824
30.29	168.2320914	3.54172824
30.55	171.77381964	3.54172824
31.33	184.16986848	3.54172824
31.83	196.56591732	4.4271603
33.13	197.45134938	4.4271603
33.17	195.68048526	4.4271603
35.4	219.58715088	4.4271603
37.51	236.41036002	4.4271603
39.64	254.11900122	5.31259236
41.87	272.71307448	5.31259236
44.15	292.1925798	6.19802442
46.49	312.55751718	6.19802442
48.88	332.92245456	7.08345648
51.31	350.63109576	7.08345648
53.78	370.11060108	7.96888854
56.3	393.13183464	7.96888854
58.84	412.61133996	7.96888854
61.42	425.89282086	8.8543206
66.67	466.62269562	9.73975266
69.33	480.78960858	9.73975266
72.01	500.2691139	10.6340390406
74.71	516.20689098	10.6340390406
77.43	531.259236	10.6340390406
80.16	548.08244514	11.51061678
82.91	563.13479016	11.51061678
85.67	580.84343136	11.51061678
88.45	595.01034432	12.39604884
91.24	610.06268934	12.39604884
94.03	625.11503436	12.39604884
96.84	639.28194732	13.2814809
99.66	654.33429234	13.2814809
100.5	656.99058852	13.2814809
103.85	678.24095796	14.16691296
106.65	689.75157474	14.16691296
109.51	701.26219152	14.16691296
112.39	714.54367242	14.16691296
115.27	726.93972126	15.05234502
118.14	740.22120216	15.05234502
121.03	753.50268306	15.05234502
123.91	765.8987319	15.93777708
126.79	778.29478074	15.93777708
129.68	792.4616937	15.93777708
132.57	805.7431746	15.93777708
135.47	812.82663108	16.82320914
138.36	826.99354404	16.82320914
141.26	842.93132112	16.82320914
144.16	850.0147776	16.82320914
147.07	864.18169056	17.7086412
149.97	875.69230734	17.7086412
152.88	887.20292412	17.7086412
155.78	906.68242944	18.59407326
158.69	917.30761416	18.59407326
161.6	932.35995918	18.59407326
164.51	946.52687214	19.47950532
167.42	962.46464922	19.47950532
170.34	977.51699424	19.47950532
176.16	1009.3925484	20.3560830594
179.08	1022.6740293	20.3560830594
181.99	1043.03896668	21.25036944
184.9	1066.06020024	21.25036944
187.79	1080.2271132	22.1358015
190.66	1104.13377882	22.1358015
193.5	1125.38414826	23.02123356
196.32	1147.51994976	23.02123356
199.11	1169.65575126	23.90666562
201.89	1191.79155276	23.90666562
204.65	1213.92735426	24.79209768
207.38	1237.83401988	24.79209768
210.1	1259.96982138	25.67752974
212.79	1280.33475876	25.67752974
215.47	1303.35599232	26.5629618
218.13	1322.83549764	26.5629618
220.78	1343.20043502	27.44839386
223.41	1362.67994034	27.44839386
226.02	1384.81574184	28.33382592
228.62	1405.18067922	28.33382592
231.2	1423.77475248	29.21925798
233.77	1443.2542578	29.21925798
236.32	1463.61919518	29.21925798
238.87	1483.98413256	30.10469004
241.4	1503.46363788	30.10469004
243.91	1523.82857526	30.9901221
246.41	1545.0789447	30.9901221
248.9	1565.44388208	31.8844084806
251.38	1586.69425152	31.8844084806
253.84	1607.94462096	32.76098622
256.3	1629.1949904	32.76098622
258.74	1653.10165602	33.64641828
261.18	1675.23745752	33.64641828
263.6	1697.37325902	34.53185034
266.01	1717.7381964	34.53185034
268.41	1732.79054142	35.4172824
270.81	1742.53029408	35.4172824
273.2	1738.10313378	35.4172824

System: trielaidin; phases: Crystal
Fixed: Pressure, kPa = 101.325
Property: Molar heat capacity at constant pressure, J/K/mol (Crystal); method: Small (less than 1 g) adiabatic calorimetry
Temperature, K	Molar heat capacity at constant pressure, J/K/mol	uncertainty
20	79.6888854	8.8543206
25	115.1061678	8.8543206
30	168.2320914	8.8543206
35	203.6493738	8.8543206
40	247.9209768	8.8543206
45	292.1925798	8.8543206
50	327.6098622	8.8543206
55	371.8814652	8.8543206
60	407.2987476	8.8543206
65	442.71603	8.8543206
70	469.2789918	8.8543206
75	504.6962742	8.8543206
80	531.259236	8.8543206
85	557.8221978	8.8543206
90	584.3851596	8.8543206
95	610.9481214	17.7086412
100	637.5110832	17.7086412
105	655.2197244	17.7086412
110	672.9283656	17.7086412
120	717.1999686	17.7086412
130	761.4715716	17.7086412
140	788.0345334	17.7086412
150	823.4518158	17.7086412
160	867.7234188	17.7086412
170	911.9950218	17.7086412
180	947.4123042	17.7086412
190	991.6839072	17.7086412
200	1035.9555102	17.7086412
210	1071.3727926	26.5629618
220	1115.6443956	26.5629618
230	1159.9159986	26.5629618
240	1213.0419222	26.5629618
250	1266.1678458	26.5629618
260	1319.2937694	26.5629618
270	1390.1283342	26.5629618
280	1469.8172196	26.5629618
288	1549.506105	35.4172824
288	1549.506105	35.4172824
290	1558.3604256	35.4172824
298.15	1646.9036316	35.4172824
300	1673.4665934	35.4172824
310	1762.0097994	35.4172824
314.83	1806.2814024	35.4172824

System: trielaidin; phases: Liquid
Fixed: Pressure, kPa = 101.325
Property: Molar heat capacity at constant pressure, J/K/mol (Liquid); method: Small (less than 1 g) adiabatic calorimetry
Temperature, K	Molar heat capacity at constant pressure, J/K/mol	uncertainty
314.83	1877.1159672	35.4172824
320	1894.8246084	35.4172824
330	1912.5332496	35.4172824

System: trielaidin; phases: Metastable crystal
Fixed: Pressure, kPa = 101.325
Property: Molar heat capacity at constant pressure, J/K/mol (Metastable crystal); method: Small (less than 1 g) adiabatic calorimetry
Temperature, K	Molar heat capacity at constant pressure, J/K/mol	uncertainty
20	88.543206	8.8543206
25	123.9604884	8.8543206
30	168.2320914	8.8543206
35	212.5036944	8.8543206
40	256.7752974	8.8543206
45	301.0469004	8.8543206
50	345.3185034	8.8543206
55	380.7357858	8.8543206
60	416.1530682	8.8543206
65	451.5703506	8.8543206
70	486.987633	8.8543206
75	522.4049154	8.8543206
80	548.9678772	8.8543206
85	575.530839	8.8543206
90	602.0938008	8.8543206
95	628.6567626	17.7086412
100	655.2197244	17.7086412
105	681.7826862	17.7086412
110	708.345648	17.7086412
120	752.617251	17.7086412
130	796.888854	17.7086412
140	832.3061364	17.7086412
150	876.5777394	17.7086412
160	920.8493424	17.7086412
170	973.975266	17.7086412
180	1027.1011896	17.7086412
190	1097.9357544	26.5629618
200	1177.6246398	26.5629618
210	1257.3135252	26.5629618
220	1337.0024106	26.5629618
230	1416.691296	26.5629618
240	1496.3801814	26.5629618
250	1576.0690668	35.4172824
260	1664.6122728	35.4172824
270	1744.3011582	35.4172824
280	1815.135723	35.4172824
288	1885.9702878	35.4172824

System: trielaidin; phases: Liquid
Fixed: Pressure, kPa = 101.325
Property: Molar enthalpy, kJ/mol (Liquid); method: Small (less than 1 g) adiabatic calorimetry
Temperature, K	Molar enthalpy, kJ/mol	uncertainty
314.83	427.22096895	8.677234188
320	436.07528955	8.8543206
330	455.11207884	9.208493424

System: trielaidin; phases: Metastable crystal
Fixed: Pressure, kPa = 101.325
Property: Molar enthalpy, kJ/mol (Metastable crystal); method: Small (less than 1 g) adiabatic calorimetry
Temperature, K	Molar enthalpy, kJ/mol	uncertainty
20	37.18814652	0.796888854
25	37.719405756	0.796888854
30	38.427751404	0.796888854
35	39.40172667	0.796888854
40	40.641331554	0.796888854
45	41.969479644	0.88543206
50	43.563257352	0.88543206
55	45.422664678	0.88543206
60	47.37061521	0.973975266
65	49.58419536	0.973975266
70	51.886318716	1.06340390406
75	54.365528484	1.06340390406
80	57.021824664	1.151061678
85	59.855207256	1.239604884
90	62.777133054	1.239604884
95	65.876145264	1.32814809
100	69.06370068	1.416691296
105	72.428342508	1.505234502
110	75.881527542	1.505234502
120	83.142070434	1.682320914
130	90.845329356	1.859407326
140	98.991304308	2.03560830594
150	107.57999529	2.21358015
160	116.522859096	2.390666562
170	125.996982138	2.567752974
180	136.090907622	2.744839386
190	146.716092342	3.010469004
200	158.04962271	3.18844084806
210	170.268585138	3.453185034
220	183.195893214	3.718814652
230	197.00863335	3.98355883794
240	211.529719134	4.250073888
250	226.847693772	4.604246712
260	243.05110047	4.958419536
270	259.962852816	5.224049154
280	277.760037222	5.578221978
288	292.546752624	5.932394802

System: trielaidin; phases: Crystal
Fixed: Pressure, kPa = 101.325
Property: Molar enthalpy, kJ/mol (Crystal); method: Small (less than 1 g) adiabatic calorimetry
Temperature, K	Molar enthalpy, kJ/mol	uncertainty
20	0.3895901064	0.0088543206
25	0.8765777394	0.0177086412
30	1.5672147462	0.044271603
35	2.4969184092	0.0531259236
40	3.6568344078	0.0708345648
45	5.0115454596	0.1062518472
50	6.5610515646	0.132814809
55	8.3053527228	0.1682320914
60	10.271011896	0.177086412
65	12.307505634	0.265629618
70	14.60962899	0.265629618
75	17.088838758	0.354172824
80	19.656591732	0.44271603
85	22.312887912	0.44271603
90	25.146270504	0.531259236
95	28.156739508	0.531259236
100	31.255751718	0.619802442
105	34.443307134	0.708345648
110	37.807948962	0.796888854
120	44.71431903	0.88543206
130	52.063405128	1.06340390406
140	59.855207256	1.239604884
150	67.912639002	1.416691296
160	76.324243572	1.505234502
170	85.267107378	1.682320914
180	94.475600802	1.947950532
190	104.215353462	2.125036944
200	114.309278946	2.302123356
210	124.84592046	2.567752974
220	135.825278004	2.744839386
230	147.158808372	3.010469004
240	159.023597976	3.18844084806
250	171.419646816	3.453185034
260	184.346954892	3.718814652
270	197.89406541	3.98355883794
280	212.149521576	4.250073888
288	224.279940798	4.515703506
288	224.279940798	4.515703506
290	227.290409802	4.604246712
298.15	240.39480429	4.86987633
300	243.405273294	4.958419536
310	260.582655258	5.31259236
314.83	269.259889446	5.489678772

System: trielaidin; phases: Crystal
Fixed: Pressure, kPa = 101.325
Property: Molar entropy, J/K/mol (Crystal); method: Small (less than 1 g) adiabatic calorimetry
Temperature, K	Molar entropy, J/K/mol	uncertainty
20	26.5629618	8.8543206
25	44.271603	8.8543206
30	70.8345648	8.8543206
35	97.3975266	8.8543206
40	132.814809	8.8543206
45	168.2320914	8.8543206
50	194.7950532	8.8543206
55	230.2123356	8.8543206
60	265.629618	8.8543206
65	301.0469004	8.8543206
70	327.6098622	8.8543206
75	363.0271446	8.8543206
80	398.444427	8.8543206
85	433.8617094	17.7086412
90	460.4246712	17.7086412
95	495.8419536	17.7086412
100	531.259236	17.7086412
105	557.8221978	17.7086412
110	593.2394802	17.7086412
120	646.3654038	17.7086412
130	708.345648	17.7086412
140	770.3258922	26.5629618
150	823.4518158	26.5629618
160	876.5777394	26.5629618
170	929.703663	26.5629618
180	982.8295866	26.5629618
190	1035.9555102	35.4172824
200	1089.0814338	35.4172824
210	1142.2073574	35.4172824
220	1186.4789604	35.4172824
230	1239.604884	35.4172824
240	1292.7308076	35.4172824
250	1337.0024106	44.271603
260	1390.1283342	44.271603
270	1443.2542578	44.271603
280	1496.3801814	44.271603
288	1531.7974638	44.271603
288	1531.7974638	44.271603
290	1549.506105	44.271603
298.15	1593.777708	44.271603
300	1602.6320286	53.1259236
310	1655.7579522	53.1259236
314.83	1673.4665934	53.1259236

System: trielaidin; phases: Liquid
Fixed: Pressure, kPa = 101.325
Property: Molar entropy, J/K/mol (Liquid); method: Small (less than 1 g) adiabatic calorimetry
Temperature, K	Molar entropy, J/K/mol	uncertainty
314.83	2204.7258294	70.8345648
320	2213.58015	70.8345648
330	2275.5603942	70.8345648

System: trielaidin; phases: Metastable crystal
Fixed: Pressure, kPa = 101.325
Property: Molar entropy, J/K/mol (Metastable crystal); method: Small (less than 1 g) adiabatic calorimetry
Temperature, K	Molar entropy, J/K/mol	uncertainty
20	61.9802442	8.8543206
25	88.543206	8.8543206
30	115.1061678	8.8543206
35	141.6691296	8.8543206
40	177.086412	8.8543206
45	212.5036944	8.8543206
50	239.0666562	8.8543206
55	274.4839386	8.8543206
60	309.901221	8.8543206
65	345.3185034	8.8543206
70	380.7357858	8.8543206
75	416.1530682	17.7086412
80	451.5703506	17.7086412
85	486.987633	17.7086412
90	513.5505948	17.7086412
95	548.9678772	17.7086412
100	584.3851596	17.7086412
105	619.802442	17.7086412
110	646.3654038	17.7086412
120	708.345648	17.7086412
130	770.3258922	26.5629618
140	832.3061364	26.5629618
150	894.2863806	26.5629618
160	947.4123042	26.5629618
170	1009.3925484	35.4172824
180	1062.518472	35.4172824
190	1124.4987162	35.4172824
200	1177.6246398	35.4172824
210	1239.604884	35.4172824
220	1301.5851282	35.4172824
230	1363.5653724	44.271603
240	1425.5456166	44.271603
250	1487.5258608	44.271603
260	1549.506105	44.271603
270	1611.4863492	53.1259236
280	1673.4665934	53.1259236
288	1726.592517	53.1259236
