Measured thermophysical data. High-Pressure Viscosity and Density Measurements of the Ternary System Methylcyclohexane + cis-Decalin + 2,2,4,4,6,8,8-Heptamethylnonane
Source: J. Chem. Eng. Data, 2003, 10.1021/je034067o
Compound 1: methylcyclohexane, C7H14, InChI=1S/C7H14/c1-7-5-3-2-4-6-7/h7H,2-6H2,1H3, purity 99%
Compound 2: cis-decahydronaphthalene, C10H18, InChI=1S/C10H18/c1-2-6-10-8-4-3-7-9(10)5-1/h9-10H,1-8H2/t9-,10+, purity 98%
Compound 3: 2,2,4,4,6,8,8-heptamethylnonane, C16H34, InChI=1S/C16H34/c1-13(10-14(2,3)4)11-16(8,9)12-15(5,6)7/h13H,10-12H2,1-9H3, purity 98%

System: methylcyclohexane + cis-decahydronaphthalene + 2,2,4,4,6,8,8-heptamethylnonane; phases: Liquid mixture 1
Fixed: Pressure, kPa = 100
Property: Viscosity, Pa*s (Liquid mixture 1); method: Capillary tube (Ostwald; Ubbelohde) method
Temperature, K	Mole fraction of methylcyclohexane	Mole fraction of cis-decahydronaphthalene	Viscosity, Pa*s	uncertainty
293.15	0.125	0.125	0.003122	4.6e-05
293.15	0.125	0.4375	0.002957	4.3e-05
293.15	0.125	0.75	0.002769	4.1e-05
293.15	0.1875	0.1875	0.002835	4.1e-05
293.15	0.1875	0.625	0.002573	3.7e-05
293.15	0.25	0.25	0.002543	3.6e-05
293.15	0.25	0.5	0.002416	3.5e-05
293.15	0.3333	0.3333	0.002183	3.1e-05
293.15	0.4375	0.125	0.001967	2.7e-05
293.15	0.4375	0.4375	0.001769	2.4e-05
293.15	0.5	0.25	0.001703	2.3e-05
293.15	0.625	0.1875	0.001393	1.9e-05
293.15	0.75	0.125	0.001133	1.5e-05
303.15	0.125	0.125	0.002508	3.7e-05
303.15	0.125	0.4375	0.002389	3.5e-05
303.15	0.125	0.75	0.002264	3.3e-05
303.15	0.1875	0.1875	0.002289	3.3e-05
303.15	0.1875	0.625	0.002119	3.1e-05
303.15	0.25	0.25	0.002078	3e-05
303.15	0.25	0.5	0.001986	2.8e-05
303.15	0.3333	0.3333	0.0018	2.5e-05
303.15	0.4375	0.125	0.001633	2.3e-05
303.15	0.4375	0.4375	0.001481	2e-05
303.15	0.5	0.25	0.001432	2e-05
303.15	0.625	0.1875	0.00118	1.6e-05
303.15	0.75	0.125	0.00097	1.3e-05
313.15	0.125	0.125	0.002059	3e-05
313.15	0.125	0.4375	0.001971	2.9e-05
313.15	0.125	0.75	0.001875	2.8e-05
313.15	0.1875	0.1875	0.001895	2.8e-05
313.15	0.1875	0.625	0.001762	2.6e-05
313.15	0.25	0.25	0.001734	2.5e-05
313.15	0.25	0.5	0.001658	2.4e-05
313.15	0.3333	0.3333	0.00151	2.1e-05
313.15	0.4375	0.125	0.001381	1.9e-05
313.15	0.4375	0.4375	0.00126	1.7e-05
313.15	0.5	0.25	0.001214	1.7e-05
313.15	0.625	0.1875	0.001014	1.4e-05
313.15	0.75	0.125	0.000844	1.1e-05
323.15	0.125	0.125	0.001718	2.5e-05
323.15	0.125	0.4375	0.001651	2.4e-05
323.15	0.125	0.75	0.001585	2.3e-05
323.15	0.1875	0.1875	0.001607	2.3e-05
323.15	0.1875	0.625	0.001487	2.2e-05
323.15	0.25	0.25	0.001462	2.1e-05
323.15	0.25	0.5	0.001408	2e-05
323.15	0.3333	0.3333	0.001289	1.8e-05
323.15	0.4375	0.125	0.00118	1.6e-05
323.15	0.4375	0.4375	0.001084	1.5e-05
323.15	0.5	0.25	0.00105	1.4e-05
323.15	0.625	0.1875	0.000884	1.2e-05
323.15	0.75	0.125	0.000738	1e-05
333.15	0.125	0.125	0.001455	2.1e-05
333.15	0.125	0.4375	0.001409	2.1e-05
333.15	0.125	0.75	0.001358	2e-05
333.15	0.1875	0.1875	0.001364	2e-05
333.15	0.1875	0.625	0.00128	1.9e-05
333.15	0.25	0.25	0.001257	1.8e-05
333.15	0.25	0.5	0.001207	1.7e-05
333.15	0.3333	0.3333	0.001111	1.6e-05
333.15	0.4375	0.125	0.001024	1.4e-05
333.15	0.4375	0.4375	0.000945	1.3e-05
333.15	0.5	0.25	0.000916	1.3e-05
333.15	0.625	0.1875	0.000774	1e-05
333.15	0.75	0.125	0.000654	9e-06
343.15	0.125	0.125	0.001259	1.9e-05
343.15	0.125	0.4375	0.001214	1.8e-05
343.15	0.125	0.75	0.001176	1.7e-05
343.15	0.1875	0.1875	0.001176	1.7e-05
343.15	0.1875	0.625	0.001109	1.6e-05
343.15	0.25	0.25	0.001088	1.6e-05
343.15	0.25	0.5	0.001047	1.5e-05
343.15	0.3333	0.3333	0.000972	1.4e-05
343.15	0.4375	0.125	0.000902	1.3e-05
343.15	0.4375	0.4375	0.000828	1.2e-05
343.15	0.5	0.25	0.000808	1.1e-05
343.15	0.625	0.1875	0.000688	9e-06
343.15	0.75	0.125	0.000587	8e-06
353.15	0.125	0.125	0.001092	1.6e-05
353.15	0.125	0.4375	0.001061	1.6e-05
353.15	0.125	0.75	0.001031	1.5e-05
353.15	0.1875	0.1875	0.001035	1.5e-05
353.15	0.1875	0.625	0.00098	1.4e-05
353.15	0.25	0.25	0.000956	1.4e-05
353.15	0.25	0.5	0.000922	1.3e-05
353.15	0.3333	0.3333	0.000858	1.2e-05
353.15	0.4375	0.125	0.00079	1.1e-05
353.15	0.4375	0.4375	0.000736	1e-05
353.15	0.5	0.25	0.000716	1e-05
353.15	0.625	0.1875	0.000619	8e-06
353.15	0.75	0.125	0.000526	7e-06

System: methylcyclohexane + cis-decahydronaphthalene + 2,2,4,4,6,8,8-heptamethylnonane; phases: Liquid mixture 1
Fixed: Temperature, K = 293.15
Property: Viscosity, Pa*s (Liquid mixture 1); method: OTHER
Pressure, kPa	Mole fraction of methylcyclohexane	Mole fraction of cis-decahydronaphthalene	Viscosity, Pa*s	uncertainty
20000	0.125	0.125	0.004461	0.000122
20000	0.125	0.4375	0.004087	0.00011
20000	0.125	0.75	0.003644	9.6e-05
20000	0.1875	0.1875	0.004017	0.000107
20000	0.1875	0.625	0.003453	9e-05
20000	0.25	0.25	0.003466	9e-05
20000	0.25	0.5	0.003196	8.2e-05
20000	0.3333	0.3333	0.002934	7.4e-05
20000	0.4375	0.125	0.002673	6.6e-05
20000	0.4375	0.4375	0.002313	5.6e-05
20000	0.5	0.25	0.002252	5.5e-05
20000	0.625	0.1875	0.00182	4.3e-05
20000	0.75	0.125	0.001483	3.4e-05
40000	0.125	0.125	0.006206	0.00018
40000	0.125	0.4375	0.005447	0.000154
40000	0.125	0.75	0.004708	0.00013
40000	0.1875	0.1875	0.005472	0.000154
40000	0.1875	0.625	0.004441	0.000121
40000	0.25	0.25	0.004628	0.000126
40000	0.25	0.5	0.004142	0.000111
40000	0.3333	0.3333	0.00381	0.0001
40000	0.4375	0.125	0.003511	9e-05
40000	0.4375	0.4375	0.002912	7.3e-05
40000	0.5	0.25	0.002871	7.2e-05
40000	0.625	0.1875	0.002286	5.5e-05
40000	0.75	0.125	0.001836	4.3e-05
60000	0.125	0.125	0.008587	0.000269
60000	0.125	0.4375	0.007238	0.000217
60000	0.125	0.75	0.006035	0.000174
60000	0.1875	0.1875	0.007412	0.000223
60000	0.1875	0.625	0.005698	0.000162
60000	0.25	0.25	0.006145	0.000177
60000	0.25	0.5	0.005343	0.000149
60000	0.3333	0.3333	0.004932	0.000135
60000	0.4375	0.125	0.004576	0.000123
60000	0.4375	0.4375	0.003645	9.4e-05
60000	0.5	0.25	0.003635	9.4e-05
60000	0.625	0.1875	0.002856	7.1e-05
60000	0.75	0.125	0.002251	5.4e-05
80000	0.125	0.125	0.011798	0.000402
80000	0.125	0.4375	0.009565	0.000308
80000	0.125	0.75	0.007669	0.000233
80000	0.1875	0.1875	0.009967	0.000323
80000	0.1875	0.625	0.007274	0.000218
80000	0.25	0.25	0.0081	0.000248
80000	0.25	0.5	0.006847	0.000202
80000	0.3333	0.3333	0.006347	0.000183
80000	0.4375	0.125	0.005915	0.000167
80000	0.4375	0.4375	0.00453	0.000122
80000	0.5	0.25	0.004565	0.000122
80000	0.625	0.1875	0.003538	9e-05
80000	0.75	0.125	0.002731	6.7e-05
100000	0.125	0.125	0.016099	0.000604
100000	0.125	0.4375	0.012567	0.000436
100000	0.125	0.75	0.009661	0.000311
100000	0.1875	0.1875	0.013309	0.000469
100000	0.1875	0.625	0.009235	0.000293
100000	0.25	0.25	0.010601	0.000349
100000	0.25	0.5	0.008715	0.000272
100000	0.3333	0.3333	0.008116	0.000248
100000	0.4375	0.125	0.007583	0.000227
100000	0.4375	0.4375	0.005587	0.000156
100000	0.5	0.25	0.005685	0.000159
100000	0.625	0.1875	0.004349	0.000115
100000	0.75	0.125	0.00328	8.2e-05

System: methylcyclohexane + cis-decahydronaphthalene + 2,2,4,4,6,8,8-heptamethylnonane; phases: Liquid mixture 1
Fixed: Temperature, K = 303.15
Property: Viscosity, Pa*s (Liquid mixture 1); method: OTHER
Pressure, kPa	Mole fraction of methylcyclohexane	Mole fraction of cis-decahydronaphthalene	Viscosity, Pa*s	uncertainty
20000	0.125	0.125	0.003529	9.1e-05
20000	0.125	0.4375	0.003235	8.3e-05
20000	0.125	0.75	0.002967	7.5e-05
20000	0.1875	0.1875	0.00317	8e-05
20000	0.1875	0.625	0.002793	7e-05
20000	0.25	0.25	0.002796	7e-05
20000	0.25	0.5	0.00262	6.5e-05
20000	0.3333	0.3333	0.002389	5.8e-05
20000	0.4375	0.125	0.002194	5.3e-05
20000	0.4375	0.4375	0.00192	4.5e-05
20000	0.5	0.25	0.001854	4.3e-05
20000	0.625	0.1875	0.00153	3.5e-05
20000	0.75	0.125	0.001253	2.8e-05
40000	0.125	0.125	0.004813	0.00013
40000	0.125	0.4375	0.004286	0.000114
40000	0.125	0.75	0.003778	9.8e-05
40000	0.1875	0.1875	0.004277	0.000113
40000	0.1875	0.625	0.003599	9.3e-05
40000	0.25	0.25	0.00367	9.4e-05
40000	0.25	0.5	0.003364	8.5e-05
40000	0.3333	0.3333	0.00308	7.7e-05
40000	0.4375	0.125	0.002863	7e-05
40000	0.4375	0.4375	0.002406	5.8e-05
40000	0.5	0.25	0.00234	5.6e-05
40000	0.625	0.1875	0.001913	4.5e-05
40000	0.75	0.125	0.001547	3.5e-05
60000	0.125	0.125	0.006533	0.000187
60000	0.125	0.4375	0.005623	0.000156
60000	0.125	0.75	0.004777	0.000129
60000	0.1875	0.1875	0.005716	0.000158
60000	0.1875	0.625	0.004579	0.000122
60000	0.25	0.25	0.004802	0.000129
60000	0.25	0.5	0.004282	0.000113
60000	0.3333	0.3333	0.003943	0.000102
60000	0.4375	0.125	0.003691	9.4e-05
60000	0.4375	0.4375	0.002987	7.4e-05
60000	0.5	0.25	0.002939	7.2e-05
60000	0.625	0.1875	0.002369	5.6e-05
60000	0.75	0.125	0.001893	4.4e-05
80000	0.125	0.125	0.008824	0.000269
80000	0.125	0.4375	0.007318	0.000214
80000	0.125	0.75	0.006001	0.000168
80000	0.1875	0.1875	0.007575	0.000222
80000	0.1875	0.625	0.005763	0.00016
80000	0.25	0.25	0.006255	0.000176
80000	0.25	0.5	0.005411	0.000148
80000	0.3333	0.3333	0.005014	0.000135
80000	0.4375	0.125	0.00471	0.000124
80000	0.4375	0.4375	0.003678	9.3e-05
80000	0.5	0.25	0.003672	9.3e-05
80000	0.625	0.1875	0.002906	7.1e-05
80000	0.75	0.125	0.002298	5.4e-05
100000	0.125	0.125	0.011864	0.00039
100000	0.125	0.4375	0.009454	0.000293
100000	0.125	0.75	0.007492	0.00022
100000	0.1875	0.1875	0.009969	0.000312
100000	0.1875	0.625	0.007187	0.000208
100000	0.25	0.25	0.008115	0.000241
100000	0.25	0.5	0.006788	0.000194
100000	0.3333	0.3333	0.006335	0.000178
100000	0.4375	0.125	0.005956	0.000164
100000	0.4375	0.4375	0.004494	0.000118
100000	0.5	0.25	0.004564	0.000119
100000	0.625	0.1875	0.003537	8.8e-05
100000	0.75	0.125	0.002768	6.7e-05

System: methylcyclohexane + cis-decahydronaphthalene + 2,2,4,4,6,8,8-heptamethylnonane; phases: Liquid mixture 1
Fixed: Temperature, K = 313.15
Property: Viscosity, Pa*s (Liquid mixture 1); method: OTHER
Pressure, kPa	Mole fraction of methylcyclohexane	Mole fraction of cis-decahydronaphthalene	Viscosity, Pa*s	uncertainty
20000	0.125	0.125	0.002903	7.2e-05
20000	0.125	0.4375	0.002672	6.6e-05
20000	0.125	0.75	0.002501	6.1e-05
20000	0.1875	0.1875	0.002599	6.4e-05
20000	0.1875	0.625	0.002305	5.6e-05
20000	0.25	0.25	0.00233	5.6e-05
20000	0.25	0.5	0.002163	5.2e-05
20000	0.3333	0.3333	0.002022	4.8e-05
20000	0.4375	0.125	0.001864	4.4e-05
20000	0.4375	0.4375	0.001618	3.7e-05
20000	0.5	0.25	0.001574	3.6e-05
20000	0.625	0.1875	0.001314	3e-05
20000	0.75	0.125	0.001093	2.4e-05
40000	0.125	0.125	0.003949	0.000102
40000	0.125	0.4375	0.00353	9e-05
40000	0.125	0.75	0.003188	8e-05
40000	0.1875	0.1875	0.003454	8.7e-05
40000	0.1875	0.625	0.002948	7.3e-05
40000	0.25	0.25	0.003033	7.5e-05
40000	0.25	0.5	0.002759	6.8e-05
40000	0.3333	0.3333	0.002596	6.3e-05
40000	0.4375	0.125	0.002416	5.8e-05
40000	0.4375	0.4375	0.002031	4.8e-05
40000	0.5	0.25	0.001999	4.7e-05
40000	0.625	0.1875	0.001644	3.8e-05
40000	0.75	0.125	0.001351	3e-05
60000	0.125	0.125	0.005272	0.000141
60000	0.125	0.4375	0.004579	0.00012
60000	0.125	0.75	0.004003	0.000103
60000	0.1875	0.1875	0.004556	0.000119
60000	0.1875	0.625	0.00372	9.5e-05
60000	0.25	0.25	0.003927	0.0001
60000	0.25	0.5	0.003487	8.8e-05
60000	0.3333	0.3333	0.003284	8.1e-05
60000	0.4375	0.125	0.003077	7.5e-05
60000	0.4375	0.4375	0.002513	6e-05
60000	0.5	0.25	0.002496	5.9e-05
60000	0.625	0.1875	0.002028	4.7e-05
60000	0.75	0.125	0.001642	3.7e-05
80000	0.125	0.125	0.006922	0.000195
80000	0.125	0.4375	0.005844	0.000159
80000	0.125	0.75	0.004952	0.000132
80000	0.1875	0.1875	0.005957	0.000163
80000	0.1875	0.625	0.00463	0.000121
80000	0.25	0.25	0.005048	0.000133
80000	0.25	0.5	0.004362	0.000113
80000	0.3333	0.3333	0.004095	0.000104
80000	0.4375	0.125	0.003856	9.7e-05
80000	0.4375	0.4375	0.003067	7.5e-05
80000	0.5	0.25	0.003069	7.5e-05
80000	0.625	0.1875	0.002468	5.8e-05
80000	0.75	0.125	0.001963	4.5e-05
100000	0.125	0.125	0.008963	0.000266
100000	0.125	0.4375	0.007353	0.000209
100000	0.125	0.75	0.006047	0.000166
100000	0.1875	0.1875	0.007722	0.000221
100000	0.1875	0.625	0.005695	0.000154
100000	0.25	0.25	0.006441	0.000177
100000	0.25	0.5	0.005405	0.000144
100000	0.3333	0.3333	0.005041	0.000132
100000	0.4375	0.125	0.004765	0.000123
100000	0.4375	0.4375	0.003697	9.2e-05
100000	0.5	0.25	0.003721	9.3e-05
100000	0.625	0.1875	0.002965	7.1e-05
100000	0.75	0.125	0.002315	5.4e-05

System: methylcyclohexane + cis-decahydronaphthalene + 2,2,4,4,6,8,8-heptamethylnonane; phases: Liquid mixture 1
Fixed: Temperature, K = 323.15
Property: Viscosity, Pa*s (Liquid mixture 1); method: OTHER
Pressure, kPa	Mole fraction of methylcyclohexane	Mole fraction of cis-decahydronaphthalene	Viscosity, Pa*s	uncertainty
20000	0.125	0.125	0.002397	5.8e-05
20000	0.125	0.4375	0.002257	5.4e-05
20000	0.125	0.75	0.002114	5.1e-05
20000	0.1875	0.1875	0.002187	5.2e-05
20000	0.1875	0.625	0.001965	4.6e-05
20000	0.25	0.25	0.001987	4.7e-05
20000	0.25	0.5	0.001832	4.3e-05
20000	0.3333	0.3333	0.001715	4e-05
20000	0.4375	0.125	0.001607	3.7e-05
20000	0.4375	0.4375	0.001429	3.3e-05
20000	0.5	0.25	0.001369	3.1e-05
20000	0.625	0.1875	0.00115	2.6e-05
20000	0.75	0.125	0.000957	2.1e-05
40000	0.125	0.125	0.003216	8e-05
40000	0.125	0.4375	0.002943	7.2e-05
40000	0.125	0.75	0.002691	6.6e-05
40000	0.1875	0.1875	0.002902	7.1e-05
40000	0.1875	0.625	0.002501	6e-05
40000	0.25	0.25	0.0026	6.3e-05
40000	0.25	0.5	0.002355	5.6e-05
40000	0.3333	0.3333	0.002202	5.2e-05
40000	0.4375	0.125	0.00207	4.8e-05
40000	0.4375	0.4375	0.001786	4.1e-05
40000	0.5	0.25	0.001729	4e-05
40000	0.625	0.1875	0.001442	3.2e-05
40000	0.75	0.125	0.001186	2.6e-05
60000	0.125	0.125	0.004236	0.000108
60000	0.125	0.4375	0.003778	9.5e-05
60000	0.125	0.75	0.003363	8.4e-05
60000	0.1875	0.1875	0.003786	9.5e-05
60000	0.1875	0.625	0.003132	7.7e-05
60000	0.25	0.25	0.003348	8.2e-05
60000	0.25	0.5	0.002966	7.2e-05
60000	0.3333	0.3333	0.002774	6.7e-05
60000	0.4375	0.125	0.002613	6.2e-05
60000	0.4375	0.4375	0.002195	5.1e-05
60000	0.5	0.25	0.002148	5e-05
60000	0.625	0.1875	0.001769	4e-05
60000	0.75	0.125	0.001443	3.2e-05
80000	0.125	0.125	0.00549	0.000145
80000	0.125	0.4375	0.00478	0.000124
80000	0.125	0.75	0.004135	0.000105
80000	0.1875	0.1875	0.004864	0.000126
80000	0.1875	0.625	0.003861	9.7e-05
80000	0.25	0.25	0.004248	0.000108
80000	0.25	0.5	0.003668	9.1e-05
80000	0.3333	0.3333	0.003435	8.4e-05
80000	0.4375	0.125	0.003241	7.9e-05
80000	0.4375	0.4375	0.002654	6.3e-05
80000	0.5	0.25	0.002629	6.2e-05
80000	0.625	0.1875	0.002129	4.9e-05
80000	0.75	0.125	0.001727	3.9e-05
100000	0.125	0.125	0.007017	0.000193
100000	0.125	0.4375	0.005969	0.00016
100000	0.125	0.75	0.005009	0.000131
100000	0.1875	0.1875	0.006165	0.000166
100000	0.1875	0.625	0.004694	0.000121
100000	0.25	0.25	0.005317	0.000139
100000	0.25	0.5	0.004466	0.000114
100000	0.3333	0.3333	0.00419	0.000105
100000	0.4375	0.125	0.003997	9.9e-05
100000	0.4375	0.4375	0.003162	7.6e-05
100000	0.5	0.25	0.003173	7.6e-05
100000	0.625	0.1875	0.002519	5.9e-05
100000	0.75	0.125	0.002036	4.6e-05

System: methylcyclohexane + cis-decahydronaphthalene + 2,2,4,4,6,8,8-heptamethylnonane; phases: Liquid mixture 1
Fixed: Temperature, K = 333.15
Property: Viscosity, Pa*s (Liquid mixture 1); method: OTHER
Pressure, kPa	Mole fraction of methylcyclohexane	Mole fraction of cis-decahydronaphthalene	Viscosity, Pa*s	uncertainty
20000	0.125	0.125	0.002025	4.8e-05
20000	0.125	0.4375	0.001908	4.5e-05
20000	0.125	0.75	0.001773	4.2e-05
20000	0.1875	0.1875	0.001872	4.4e-05
20000	0.1875	0.625	0.001682	3.9e-05
20000	0.25	0.25	0.001708	4e-05
20000	0.25	0.5	0.001584	3.7e-05
20000	0.3333	0.3333	0.001474	3.4e-05
20000	0.4375	0.125	0.001382	3.1e-05
20000	0.4375	0.4375	0.001235	2.8e-05
20000	0.5	0.25	0.001198	2.7e-05
20000	0.625	0.1875	0.001001	2.2e-05
20000	0.75	0.125	0.000855	1.9e-05
40000	0.125	0.125	0.002696	6.5e-05
40000	0.125	0.4375	0.002468	5.9e-05
40000	0.125	0.75	0.002233	5.3e-05
40000	0.1875	0.1875	0.002456	5.9e-05
40000	0.1875	0.625	0.002119	5e-05
40000	0.25	0.25	0.002217	5.2e-05
40000	0.25	0.5	0.002	4.7e-05
40000	0.3333	0.3333	0.001886	4.4e-05
40000	0.4375	0.125	0.001765	4e-05
40000	0.4375	0.4375	0.001532	3.5e-05
40000	0.5	0.25	0.001503	3.4e-05
40000	0.625	0.1875	0.001253	2.8e-05
40000	0.75	0.125	0.001066	2.3e-05
60000	0.125	0.125	0.003519	8.7e-05
60000	0.125	0.4375	0.003148	7.7e-05
60000	0.125	0.75	0.002784	6.7e-05
60000	0.1875	0.1875	0.003174	7.7e-05
60000	0.1875	0.625	0.00264	6.3e-05
60000	0.25	0.25	0.002833	6.8e-05
60000	0.25	0.5	0.002504	5.9e-05
60000	0.3333	0.3333	0.002373	5.6e-05
60000	0.4375	0.125	0.002223	5.2e-05
60000	0.4375	0.4375	0.001886	4.3e-05
60000	0.5	0.25	0.001862	4.2e-05
60000	0.625	0.1875	0.00154	3.4e-05
60000	0.75	0.125	0.0013	2.9e-05
80000	0.125	0.125	0.004516	0.000115
80000	0.125	0.4375	0.00396	9.9e-05
80000	0.125	0.75	0.00343	8.4e-05
80000	0.1875	0.1875	0.004042	0.000101
80000	0.1875	0.625	0.003251	7.9e-05
80000	0.25	0.25	0.003567	8.7e-05
80000	0.25	0.5	0.003104	7.5e-05
80000	0.3333	0.3333	0.002942	7e-05
80000	0.4375	0.125	0.002763	6.5e-05
80000	0.4375	0.4375	0.002301	5.3e-05
80000	0.5	0.25	0.002277	5.3e-05
80000	0.625	0.1875	0.001863	4.2e-05
80000	0.75	0.125	0.001556	3.5e-05
100000	0.125	0.125	0.005673	0.000148
100000	0.125	0.4375	0.004888	0.000125
100000	0.125	0.75	0.004153	0.000104
100000	0.1875	0.1875	0.005048	0.000129
100000	0.1875	0.625	0.003931	9.8e-05
100000	0.25	0.25	0.004401	0.00011
100000	0.25	0.5	0.003783	9.3e-05
100000	0.3333	0.3333	0.003572	8.7e-05
100000	0.4375	0.125	0.003396	8.2e-05
100000	0.4375	0.4375	0.002762	6.5e-05
100000	0.5	0.25	0.002733	6.4e-05
100000	0.625	0.1875	0.002204	5e-05
100000	0.75	0.125	0.001819	4.1e-05

System: methylcyclohexane + cis-decahydronaphthalene + 2,2,4,4,6,8,8-heptamethylnonane; phases: Liquid mixture 1
Fixed: Temperature, K = 343.15
Property: Viscosity, Pa*s (Liquid mixture 1); method: OTHER
Pressure, kPa	Mole fraction of methylcyclohexane	Mole fraction of cis-decahydronaphthalene	Viscosity, Pa*s	uncertainty
20000	0.125	0.125	0.001755	4.1e-05
20000	0.125	0.4375	0.001618	3.8e-05
20000	0.125	0.75	0.001536	3.6e-05
20000	0.1875	0.1875	0.001593	3.7e-05
20000	0.1875	0.625	0.001451	3.3e-05
20000	0.25	0.25	0.001484	3.4e-05
20000	0.25	0.5	0.001386	3.2e-05
20000	0.3333	0.3333	0.001302	2.9e-05
20000	0.4375	0.125	0.001212	2.7e-05
20000	0.4375	0.4375	0.001092	2.4e-05
20000	0.5	0.25	0.001047	2.3e-05
20000	0.625	0.1875	0.00088	1.9e-05
20000	0.75	0.125	0.000764	1.6e-05
40000	0.125	0.125	0.002311	5.5e-05
40000	0.125	0.4375	0.002061	4.8e-05
40000	0.125	0.75	0.001914	4.5e-05
40000	0.1875	0.1875	0.002059	4.8e-05
40000	0.1875	0.625	0.001805	4.2e-05
40000	0.25	0.25	0.00191	4.4e-05
40000	0.25	0.5	0.001739	4e-05
40000	0.3333	0.3333	0.001644	3.8e-05
40000	0.4375	0.125	0.001537	3.5e-05
40000	0.4375	0.4375	0.001349	3e-05
40000	0.5	0.25	0.001312	2.9e-05
40000	0.625	0.1875	0.001098	2.4e-05
40000	0.75	0.125	0.000952	2.1e-05
60000	0.125	0.125	0.002973	7.2e-05
60000	0.125	0.4375	0.002601	6.2e-05
60000	0.125	0.75	0.002364	5.6e-05
60000	0.1875	0.1875	0.002618	6.2e-05
60000	0.1875	0.625	0.002218	5.2e-05
60000	0.25	0.25	0.002407	5.6e-05
60000	0.25	0.5	0.002153	5e-05
60000	0.3333	0.3333	0.002038	4.7e-05
60000	0.4375	0.125	0.00192	4.4e-05
60000	0.4375	0.4375	0.001646	3.7e-05
60000	0.5	0.25	0.001619	3.6e-05
60000	0.625	0.1875	0.001341	3e-05
60000	0.75	0.125	0.001154	2.5e-05
80000	0.125	0.125	0.003777	9.3e-05
80000	0.125	0.4375	0.003272	7.9e-05
80000	0.125	0.75	0.002877	6.9e-05
80000	0.1875	0.1875	0.003303	8e-05
80000	0.1875	0.625	0.00271	6.4e-05
80000	0.25	0.25	0.002999	7.2e-05
80000	0.25	0.5	0.00265	6.3e-05
80000	0.3333	0.3333	0.002503	5.9e-05
80000	0.4375	0.125	0.002379	5.5e-05
80000	0.4375	0.4375	0.001996	4.6e-05
80000	0.5	0.25	0.001982	4.5e-05
80000	0.625	0.1875	0.001621	3.6e-05
80000	0.75	0.125	0.001379	3e-05
100000	0.125	0.125	0.004689	0.000118
100000	0.125	0.4375	0.004049	0.0001
100000	0.125	0.75	0.003467	8.4e-05
100000	0.1875	0.1875	0.004086	0.000101
100000	0.1875	0.625	0.003251	7.8e-05
100000	0.25	0.25	0.003654	8.9e-05
100000	0.25	0.5	0.003183	7.6e-05
100000	0.3333	0.3333	0.003009	7.1e-05
100000	0.4375	0.125	0.002939	6.9e-05
100000	0.4375	0.4375	0.002377	5.5e-05
100000	0.5	0.25	0.002374	5.5e-05
100000	0.625	0.1875	0.001916	4.3e-05
100000	0.75	0.125	0.001607	3.6e-05

System: methylcyclohexane + cis-decahydronaphthalene + 2,2,4,4,6,8,8-heptamethylnonane; phases: Liquid mixture 1
Fixed: Temperature, K = 353.15
Property: Viscosity, Pa*s (Liquid mixture 1); method: OTHER
Pressure, kPa	Mole fraction of methylcyclohexane	Mole fraction of cis-decahydronaphthalene	Viscosity, Pa*s	uncertainty
20000	0.125	0.125	0.0015	3.5e-05
20000	0.125	0.4375	0.001418	3.3e-05
20000	0.125	0.75	0.001334	3.1e-05
20000	0.1875	0.1875	0.001384	3.2e-05
20000	0.1875	0.625	0.001294	2.9e-05
20000	0.25	0.25	0.001264	2.9e-05
20000	0.25	0.5	0.001223	2.8e-05
20000	0.3333	0.3333	0.001129	2.5e-05
20000	0.4375	0.125	0.001067	2.4e-05
20000	0.4375	0.4375	0.000958	2.1e-05
20000	0.5	0.25	0.000914	2e-05
20000	0.625	0.1875	0.000778	1.7e-05
20000	0.75	0.125	0.000677	1.5e-05
40000	0.125	0.125	0.001959	4.6e-05
40000	0.125	0.4375	0.001796	4.2e-05
40000	0.125	0.75	0.001686	3.9e-05
40000	0.1875	0.1875	0.001788	4.1e-05
40000	0.1875	0.625	0.001605	3.7e-05
40000	0.25	0.25	0.001623	3.7e-05
40000	0.25	0.5	0.001523	3.5e-05
40000	0.3333	0.3333	0.001429	3.2e-05
40000	0.4375	0.125	0.001351	3e-05
40000	0.4375	0.4375	0.001181	2.6e-05
40000	0.5	0.25	0.001147	2.5e-05
40000	0.625	0.1875	0.00097	2.1e-05
40000	0.75	0.125	0.000843	1.8e-05
60000	0.125	0.125	0.002507	5.9e-05
60000	0.125	0.4375	0.002244	5.3e-05
60000	0.125	0.75	0.002081	4.9e-05
60000	0.1875	0.1875	0.002263	5.3e-05
60000	0.1875	0.625	0.001962	4.5e-05
60000	0.25	0.25	0.002048	4.7e-05
60000	0.25	0.5	0.001878	4.3e-05
60000	0.3333	0.3333	0.001774	4e-05
60000	0.4375	0.125	0.001692	3.8e-05
60000	0.4375	0.4375	0.001432	3.2e-05
60000	0.5	0.25	0.001413	3.1e-05
60000	0.625	0.1875	0.001189	2.6e-05
60000	0.75	0.125	0.00103	2.2e-05
80000	0.125	0.125	0.003156	7.6e-05
80000	0.125	0.4375	0.002768	6.6e-05
80000	0.125	0.75	0.002506	5.9e-05
80000	0.1875	0.1875	0.002819	6.7e-05
80000	0.1875	0.625	0.002364	5.5e-05
80000	0.25	0.25	0.002547	6e-05
80000	0.25	0.5	0.002292	5.3e-05
80000	0.3333	0.3333	0.002169	5e-05
80000	0.4375	0.125	0.002094	4.8e-05
80000	0.4375	0.4375	0.001711	3.9e-05
80000	0.5	0.25	0.001713	3.8e-05
80000	0.625	0.1875	0.001433	3.2e-05
80000	0.75	0.125	0.001237	2.7e-05
100000	0.125	0.125	0.003918	9.6e-05
100000	0.125	0.4375	0.003375	8.1e-05
100000	0.125	0.75	0.002952	7e-05
100000	0.1875	0.1875	0.003462	8.3e-05
100000	0.1875	0.625	0.002815	6.7e-05
100000	0.25	0.25	0.003126	7.4e-05
100000	0.25	0.5	0.00277	6.5e-05
100000	0.3333	0.3333	0.002615	6.1e-05
100000	0.4375	0.125	0.002564	5.9e-05
100000	0.4375	0.4375	0.002017	4.6e-05
100000	0.5	0.25	0.002048	4.6e-05
100000	0.625	0.1875	0.0017	3.8e-05
100000	0.75	0.125	0.001455	3.2e-05

System: methylcyclohexane + cis-decahydronaphthalene + 2,2,4,4,6,8,8-heptamethylnonane; phases: Liquid mixture 1
Fixed: Temperature, K = 293.15
Property: Mass density, kg/m3 (Liquid mixture 1); method: VIBTUB:mpoint
Pressure, kPa	Mole fraction of methylcyclohexane	Mole fraction of cis-decahydronaphthalene	Mass density, kg/m3	uncertainty
100	0.125	0.125	792.7	1.3
100	0.125	0.4375	820.7	1.3
100	0.125	0.75	861.1	1.3
100	0.1875	0.1875	797.7	1.2
100	0.1875	0.625	845.8	1.3
100	0.25	0.25	803.4	1.2
100	0.25	0.5	830.9	1.2
100	0.3333	0.3333	812.5	1.2
100	0.4375	0.125	791.3	1.2
100	0.4375	0.4375	828.1	1.2
100	0.5	0.25	804.5	1.2
100	0.625	0.1875	798	1.1
100	0.75	0.125	789.5	1.1
20000	0.125	0.125	805.7	1.3
20000	0.125	0.4375	833	1.3
20000	0.125	0.75	873.2	1.3
20000	0.1875	0.1875	810.7	1.3
20000	0.1875	0.625	858.1	1.3
20000	0.25	0.25	816.4	1.2
20000	0.25	0.5	843.6	1.3
20000	0.3333	0.3333	825.5	1.2
20000	0.4375	0.125	804.9	1.2
20000	0.4375	0.4375	841.1	1.2
20000	0.5	0.25	817.8	1.2
20000	0.625	0.1875	811.9	1.2
20000	0.75	0.125	803.8	1.1
40000	0.125	0.125	816.8	1.3
40000	0.125	0.4375	843.8	1.3
40000	0.125	0.75	883.6	1.3
40000	0.1875	0.1875	821.7	1.3
40000	0.1875	0.625	868.6	1.3
40000	0.25	0.25	827.4	1.3
40000	0.25	0.5	854.4	1.3
40000	0.3333	0.3333	836.6	1.2
40000	0.4375	0.125	816.2	1.2
40000	0.4375	0.4375	852.3	1.2
40000	0.5	0.25	829.2	1.2
40000	0.625	0.1875	823.8	1.2
40000	0.75	0.125	816	1.1
60000	0.125	0.125	826.2	1.3
60000	0.125	0.4375	853.2	1.3
60000	0.125	0.75	892.7	1.3
60000	0.1875	0.1875	831.4	1.3
60000	0.1875	0.625	878.2	1.3
60000	0.25	0.25	837.2	1.3
60000	0.25	0.5	863.9	1.3
60000	0.3333	0.3333	846.3	1.2
60000	0.4375	0.125	826.2	1.2
60000	0.4375	0.4375	862.2	1.2
60000	0.5	0.25	839.2	1.2
60000	0.625	0.1875	834	1.2
60000	0.75	0.125	826.7	1.1

System: methylcyclohexane + cis-decahydronaphthalene + 2,2,4,4,6,8,8-heptamethylnonane; phases: Liquid mixture 1
Fixed: Temperature, K = 303.15
Property: Mass density, kg/m3 (Liquid mixture 1); method: VIBTUB:mpoint
Pressure, kPa	Mole fraction of methylcyclohexane	Mole fraction of cis-decahydronaphthalene	Mass density, kg/m3	uncertainty
100	0.125	0.125	785.9	1.3
100	0.125	0.4375	813.7	1.3
100	0.125	0.75	853.5	1.3
100	0.1875	0.1875	790.8	1.2
100	0.1875	0.625	838.4	1.3
100	0.25	0.25	796.5	1.2
100	0.25	0.5	823.7	1.2
100	0.3333	0.3333	805.2	1.2
100	0.4375	0.125	784.2	1.2
100	0.4375	0.4375	820.6	1.2
100	0.5	0.25	797	1.2
100	0.625	0.1875	790.4	1.1
100	0.75	0.125	781.6	1.1
20000	0.125	0.125	799.3	1.3
20000	0.125	0.4375	826.6	1.3
20000	0.125	0.75	866.3	1.3
20000	0.1875	0.1875	804.5	1.3
20000	0.1875	0.625	851.1	1.3
20000	0.25	0.25	810	1.2
20000	0.25	0.5	836.8	1.3
20000	0.3333	0.3333	818.7	1.2
20000	0.4375	0.125	798.4	1.2
20000	0.4375	0.4375	834	1.2
20000	0.5	0.25	811.3	1.2
20000	0.625	0.1875	805.1	1.2
20000	0.75	0.125	796.6	1.1
40000	0.125	0.125	810.8	1.3
40000	0.125	0.4375	837.8	1.3
40000	0.125	0.75	876.6	1.3
40000	0.1875	0.1875	816.1	1.3
40000	0.1875	0.625	862.3	1.3
40000	0.25	0.25	821.5	1.2
40000	0.25	0.5	848.1	1.3
40000	0.3333	0.3333	830.5	1.2
40000	0.4375	0.125	810.2	1.2
40000	0.4375	0.4375	845.9	1.2
40000	0.5	0.25	823.6	1.2
40000	0.625	0.1875	817.3	1.2
40000	0.75	0.125	809.4	1.1
60000	0.125	0.125	820.7	1.3
60000	0.125	0.4375	847.5	1.3
60000	0.125	0.75	886.8	1.3
60000	0.1875	0.1875	825.9	1.3
60000	0.1875	0.625	872.3	1.3
60000	0.25	0.25	831.5	1.3
60000	0.25	0.5	857.9	1.3
60000	0.3333	0.3333	840.7	1.2
60000	0.4375	0.125	820.5	1.2
60000	0.4375	0.4375	856	1.2
60000	0.5	0.25	833.6	1.2
60000	0.625	0.1875	827.9	1.2
60000	0.75	0.125	820.4	1.1

System: methylcyclohexane + cis-decahydronaphthalene + 2,2,4,4,6,8,8-heptamethylnonane; phases: Liquid mixture 1
Fixed: Temperature, K = 313.5
Property: Mass density, kg/m3 (Liquid mixture 1); method: VIBTUB:mpoint
Pressure, kPa	Mole fraction of methylcyclohexane	Mole fraction of cis-decahydronaphthalene	Mass density, kg/m3	uncertainty
100	0.125	0.125	779.1	1.3
100	0.125	0.4375	806.7	1.3
100	0.125	0.75	845.9	1.3
100	0.1875	0.1875	783.8	1.2
100	0.1875	0.625	831.2	1.3
100	0.25	0.25	789.5	1.2
100	0.25	0.5	816.4	1.2
100	0.3333	0.3333	798	1.2
100	0.4375	0.125	777	1.2
100	0.4375	0.4375	813	1.2
100	0.5	0.25	789.7	1.2
100	0.625	0.1875	782.7	1.1
100	0.75	0.125	773.7	1.1
20000	0.125	0.125	793.2	1.3
20000	0.125	0.4375	820.3	1.3
20000	0.125	0.75	859.2	1.3
20000	0.1875	0.1875	797.8	1.2
20000	0.1875	0.625	844.4	1.3
20000	0.25	0.25	803.8	1.2
20000	0.25	0.5	830.1	1.2
20000	0.3333	0.3333	812.4	1.2
20000	0.4375	0.125	791.7	1.2
20000	0.4375	0.4375	827.2	1.2
20000	0.5	0.25	804.3	1.2
20000	0.625	0.1875	797.9	1.2
20000	0.75	0.125	789.4	1.1
40000	0.125	0.125	805.2	1.3
40000	0.125	0.4375	831.9	1.3
40000	0.125	0.75	870.2	1.3
40000	0.1875	0.1875	809.7	1.3
40000	0.1875	0.625	856	1.3
40000	0.25	0.25	815.6	1.2
40000	0.25	0.5	841.8	1.3
40000	0.3333	0.3333	824.2	1.2
40000	0.4375	0.125	804	1.2
40000	0.4375	0.4375	839.3	1.2
40000	0.5	0.25	816.8	1.2
40000	0.625	0.1875	810.7	1.2
40000	0.75	0.125	802.6	1.1
60000	0.125	0.125	815.8	1.3
60000	0.125	0.4375	842.2	1.3
60000	0.125	0.75	880.3	1.3
60000	0.1875	0.1875	820.2	1.3
60000	0.1875	0.625	866.3	1.3
60000	0.25	0.25	826.2	1.3
60000	0.25	0.5	852.2	1.3
60000	0.3333	0.3333	834.9	1.2
60000	0.4375	0.125	814.9	1.2
60000	0.4375	0.4375	850.5	1.2
60000	0.5	0.25	827.7	1.2
60000	0.625	0.1875	821.8	1.2
60000	0.75	0.125	814.1	1.1

System: methylcyclohexane + cis-decahydronaphthalene + 2,2,4,4,6,8,8-heptamethylnonane; phases: Liquid mixture 1
Fixed: Temperature, K = 323.15
Property: Mass density, kg/m3 (Liquid mixture 1); method: VIBTUB:mpoint
Pressure, kPa	Mole fraction of methylcyclohexane	Mole fraction of cis-decahydronaphthalene	Mass density, kg/m3	uncertainty
100	0.125	0.125	772.5	1.2
100	0.125	0.4375	799.7	1.3
100	0.125	0.75	838.4	1.3
100	0.1875	0.1875	776.9	1.2
100	0.1875	0.625	823.8	1.3
100	0.25	0.25	782.5	1.2
100	0.25	0.5	809.1	1.2
100	0.3333	0.3333	790.7	1.2
100	0.4375	0.125	769.6	1.2
100	0.4375	0.4375	805.3	1.2
100	0.5	0.25	782.2	1.2
100	0.625	0.1875	775	1.1
100	0.75	0.125	765.7	1.1
20000	0.125	0.125	787	1.3
20000	0.125	0.4375	814	1.3
20000	0.125	0.75	852.2	1.3
20000	0.1875	0.1875	791.6	1.2
20000	0.1875	0.625	838	1.3
20000	0.25	0.25	797.3	1.2
20000	0.25	0.5	823.7	1.2
20000	0.3333	0.3333	805.8	1.2
20000	0.4375	0.125	785.4	1.2
20000	0.4375	0.4375	820.2	1.2
20000	0.5	0.25	797.8	1.2
20000	0.625	0.1875	791	1.1
20000	0.75	0.125	782.5	1.1
40000	0.125	0.125	799.5	1.3
40000	0.125	0.4375	826	1.3
40000	0.125	0.75	864	1.3
40000	0.1875	0.1875	804.3	1.3
40000	0.1875	0.625	849.7	1.3
40000	0.25	0.25	809.7	1.2
40000	0.25	0.5	835.8	1.3
40000	0.3333	0.3333	817.8	1.2
40000	0.4375	0.125	798.2	1.2
40000	0.4375	0.4375	833	1.2
40000	0.5	0.25	810.7	1.2
40000	0.625	0.1875	804.3	1.2
40000	0.75	0.125	796.6	1.1
60000	0.125	0.125	810.7	1.3
60000	0.125	0.4375	836.8	1.3
60000	0.125	0.75	874.4	1.3
60000	0.1875	0.1875	815	1.3
60000	0.1875	0.625	860.5	1.3
60000	0.25	0.25	820.9	1.3
60000	0.25	0.5	846.8	1.3
60000	0.3333	0.3333	829.3	1.2
60000	0.4375	0.125	809.5	1.2
60000	0.4375	0.4375	844.1	1.2
60000	0.5	0.25	822.2	1.2
60000	0.625	0.1875	816.2	1.2
60000	0.75	0.125	808.4	1.1

System: methylcyclohexane + cis-decahydronaphthalene + 2,2,4,4,6,8,8-heptamethylnonane; phases: Liquid mixture 1
Fixed: Temperature, K = 333.15
Property: Mass density, kg/m3 (Liquid mixture 1); method: VIBTUB:mpoint
Pressure, kPa	Mole fraction of methylcyclohexane	Mole fraction of cis-decahydronaphthalene	Mass density, kg/m3	uncertainty
100	0.125	0.125	765.9	1.2
100	0.125	0.4375	792.7	1.3
100	0.125	0.75	831	1.3
100	0.1875	0.1875	770	1.2
100	0.1875	0.625	816.5	1.3
100	0.25	0.25	775.2	1.2
100	0.25	0.5	801.8	1.2
100	0.3333	0.3333	783.3	1.2
100	0.4375	0.125	762.3	1.2
100	0.4375	0.4375	797.7	1.2
100	0.5	0.25	774.7	1.2
100	0.625	0.1875	767.2	1.1
100	0.75	0.125	757.7	1.1
20000	0.125	0.125	781.8	1.3
20000	0.125	0.4375	807.8	1.3
20000	0.125	0.75	845.6	1.3
20000	0.1875	0.1875	786	1.2
20000	0.1875	0.625	831.4	1.3
20000	0.25	0.25	791.1	1.2
20000	0.25	0.5	817	1.2
20000	0.3333	0.3333	799.2	1.2
20000	0.4375	0.125	778.9	1.2
20000	0.4375	0.4375	813.6	1.2
20000	0.5	0.25	791.1	1.2
20000	0.625	0.1875	784.5	1.1
20000	0.75	0.125	775.6	1.1
40000	0.125	0.125	794.9	1.3
40000	0.125	0.4375	820.7	1.3
40000	0.125	0.75	858	1.3
40000	0.1875	0.1875	799.2	1.3
40000	0.1875	0.625	844.1	1.3
40000	0.25	0.25	804.5	1.2
40000	0.25	0.5	830	1.3
40000	0.3333	0.3333	812.5	1.2
40000	0.4375	0.125	792.5	1.2
40000	0.4375	0.4375	826.9	1.2
40000	0.5	0.25	804.9	1.2
40000	0.625	0.1875	798.8	1.2
40000	0.75	0.125	790.1	1.1
60000	0.125	0.125	806	1.3
60000	0.125	0.4375	831.4	1.3
60000	0.125	0.75	868.7	1.3
60000	0.1875	0.1875	810.3	1.3
60000	0.1875	0.625	855.1	1.3
60000	0.25	0.25	815.5	1.2
60000	0.25	0.5	840.9	1.3
60000	0.3333	0.3333	823.7	1.2
60000	0.4375	0.125	804	1.2
60000	0.4375	0.4375	838.4	1.2
60000	0.5	0.25	816.5	1.2
60000	0.625	0.1875	810.5	1.2
60000	0.75	0.125	802.8	1.1

System: methylcyclohexane + cis-decahydronaphthalene + 2,2,4,4,6,8,8-heptamethylnonane; phases: Liquid mixture 1
Fixed: Temperature, K = 343.15
Property: Mass density, kg/m3 (Liquid mixture 1); method: VIBTUB:mpoint
Pressure, kPa	Mole fraction of methylcyclohexane	Mole fraction of cis-decahydronaphthalene	Mass density, kg/m3	uncertainty
100	0.125	0.125	759.1	1.2
100	0.125	0.4375	785.5	1.3
100	0.125	0.75	823.6	1.3
100	0.1875	0.1875	763.1	1.2
100	0.1875	0.625	809	1.3
100	0.25	0.25	768.2	1.2
100	0.25	0.5	794.4	1.2
100	0.3333	0.3333	775.9	1.2
100	0.4375	0.125	755	1.2
100	0.4375	0.4375	789.9	1.2
100	0.5	0.25	767.2	1.2
100	0.625	0.1875	759.5	1.1
100	0.75	0.125	749.7	1.1
20000	0.125	0.125	775.9	1.3
20000	0.125	0.4375	801.8	1.3
20000	0.125	0.75	838.9	1.3
20000	0.1875	0.1875	780.1	1.2
20000	0.1875	0.625	824.7	1.3
20000	0.25	0.25	785.2	1.2
20000	0.25	0.5	810.6	1.2
20000	0.3333	0.3333	792.6	1.2
20000	0.4375	0.125	772.6	1.2
20000	0.4375	0.4375	806.6	1.2
20000	0.5	0.25	784.6	1.2
20000	0.625	0.1875	777.8	1.1
20000	0.75	0.125	768.7	1.1
40000	0.125	0.125	789.4	1.3
40000	0.125	0.4375	815	1.3
40000	0.125	0.75	851.6	1.3
40000	0.1875	0.1875	793.9	1.2
40000	0.1875	0.625	837.8	1.3
40000	0.25	0.25	798.8	1.2
40000	0.25	0.5	823.9	1.2
40000	0.3333	0.3333	806.5	1.2
40000	0.4375	0.125	786.7	1.2
40000	0.4375	0.4375	820.5	1.2
40000	0.5	0.25	798.8	1.2
40000	0.625	0.1875	792.7	1.2
40000	0.75	0.125	783.9	1.1
60000	0.125	0.125	800.6	1.3
60000	0.125	0.4375	826.3	1.3
60000	0.125	0.75	862.7	1.3
60000	0.1875	0.1875	804.8	1.3
60000	0.1875	0.625	849.3	1.3
60000	0.25	0.25	810.4	1.2
60000	0.25	0.5	835.4	1.3
60000	0.3333	0.3333	817.9	1.2
60000	0.4375	0.125	798.6	1.2
60000	0.4375	0.4375	832.3	1.2
60000	0.5	0.25	810.8	1.2
60000	0.625	0.1875	804.9	1.2
60000	0.75	0.125	797.1	1.1

System: methylcyclohexane + cis-decahydronaphthalene + 2,2,4,4,6,8,8-heptamethylnonane; phases: Liquid mixture 1
Fixed: Temperature, K = 353.15
Property: Mass density, kg/m3 (Liquid mixture 1); method: VIBTUB:mpoint
Pressure, kPa	Mole fraction of methylcyclohexane	Mole fraction of cis-decahydronaphthalene	Mass density, kg/m3	uncertainty
100	0.125	0.125	752.1	1.2
100	0.125	0.4375	778.3	1.3
100	0.125	0.75	816	1.3
100	0.1875	0.1875	756.1	1.2
100	0.1875	0.625	801.5	1.2
100	0.25	0.25	761.1	1.2
100	0.25	0.5	786.9	1.2
100	0.3333	0.3333	768.5	1.2
100	0.4375	0.125	747.6	1.2
100	0.4375	0.4375	782	1.2
100	0.5	0.25	759.5	1.2
100	0.625	0.1875	751.5	1.1
100	0.75	0.125	741.6	1.1
20000	0.125	0.125	769.7	1.2
20000	0.125	0.4375	795.2	1.3
20000	0.125	0.75	832	1.3
20000	0.1875	0.1875	773.9	1.2
20000	0.1875	0.625	817.7	1.3
20000	0.25	0.25	778.6	1.2
20000	0.25	0.5	804	1.2
20000	0.3333	0.3333	786	1.2
20000	0.4375	0.125	766.2	1.2
20000	0.4375	0.4375	799.8	1.2
20000	0.5	0.25	778	1.2
20000	0.625	0.1875	770.9	1.1
20000	0.75	0.125	761.8	1.1
40000	0.125	0.125	783.8	1.3
40000	0.125	0.4375	808.9	1.3
40000	0.125	0.75	845.2	1.3
40000	0.1875	0.1875	787.8	1.2
40000	0.1875	0.625	831.5	1.3
40000	0.25	0.25	793	1.2
40000	0.25	0.5	817.9	1.2
40000	0.3333	0.3333	800.2	1.2
40000	0.4375	0.125	780.8	1.2
40000	0.4375	0.4375	814.1	1.2
40000	0.5	0.25	793	1.2
40000	0.625	0.1875	786	1.1
40000	0.75	0.125	777.7	1.1
60000	0.125	0.125	795.6	1.3
60000	0.125	0.4375	820.7	1.3
60000	0.125	0.75	856.6	1.3
60000	0.1875	0.1875	799.7	1.3
60000	0.1875	0.625	843.3	1.3
60000	0.25	0.25	805.1	1.2
60000	0.25	0.5	829.8	1.3
60000	0.3333	0.3333	812.3	1.2
60000	0.4375	0.125	793.1	1.2
60000	0.4375	0.4375	826.8	1.2
60000	0.5	0.25	805.2	1.2
60000	0.625	0.1875	798.7	1.2
60000	0.75	0.125	790.9	1.1
