Measured thermophysical data. Viscosity Behavior of 18-Crown-6 in Aqueous and Carbon Tetrachloride Solutions at Different Temperatures and at Ambient Pressure
Source: J. Chem. Eng. Data, 2004, 10.1021/je034188o
Compound 1: 1,4,7,10,13,16-hexaoxacyclooctadecane, C12H24O6, InChI=1S/C12H24O6/c1-2-14-5-6-16-9-10-18-12-11-17-8-7-15-4-3-13-1/h1-12H2, purity 99%
Compound 2: water, H2O, InChI=1S/H2O/h1H2
Compound 3: tetrachloromethane, CCl4, InChI=1S/CCl4/c2-1(3,4)5, purity 98%

System: water + 1,4,7,10,13,16-hexaoxacyclooctadecane; phases: Liquid
Fixed: Pressure, kPa = 101
Property: Viscosity, Pa*s (Liquid); method: CAPTUB:UFactor:2
Temperature, K	Amount concentration (molarity), mol/dm3 of 1,4,7,10,13,16-hexaoxacyclooctadecane	Viscosity, Pa*s	uncertainty
293.15	0	1	0.0078
293.15	0.0406	1.0358	0.008
293.15	0.07841	1.0713	0.0083
293.15	0.12086	1.1064	0.0086
293.15	0.17819	1.1605	0.009
293.15	0.20794	1.1892	0.0093
293.15	0.25276	1.2325	0.0096
293.15	0.32027	1.3015	0.0101
298.15	0	1	0.0078
298.15	0.04054	1.0335	0.008
298.15	0.07831	1.0658	0.0083
298.15	0.1207	1.1008	0.0086
298.15	0.17794	1.1535	0.009
298.15	0.20764	1.1792	0.0092
298.15	0.25239	1.2217	0.0095
298.15	0.31978	1.2874	0.01
303.15	0	1	0.0078
303.15	0.04049	1.0308	0.008
303.15	0.0782	1.0606	0.0082
303.15	0.12053	1.0959	0.0085
303.15	0.17768	1.1438	0.0089
303.15	0.20734	1.1709	0.0091
303.15	0.25201	1.2113	0.0094
303.15	0.31928	1.274	0.0099
308.15	0	1	0.0078
308.15	0.04042	1.0294	0.008
308.15	0.07806	1.0561	0.0082
308.15	0.12031	1.0901	0.0085
308.15	0.17736	1.1341	0.0088
308.15	0.20695	1.1592	0.009
308.15	0.25154	1.1979	0.0093
308.15	0.31867	1.2584	0.0098

System: water + 1,4,7,10,13,16-hexaoxacyclooctadecane; phases: Liquid
Fixed: Pressure, kPa = 101
Property: Mass density, kg/m3 (Liquid); method: VIBTUB:UFactor:8
Temperature, K	Amount concentration (molarity), mol/dm3 of 1,4,7,10,13,16-hexaoxacyclooctadecane	Mass density, kg/m3	uncertainty
293.15	0	998.21	0.26
293.15	0.0406	999.92	0.26
293.15	0.07841	1001.5	0.26
293.15	0.12086	1003.25	0.27
293.15	0.17819	1005.57	0.28
293.15	0.20794	1006.75	0.28
293.15	0.25276	1008.52	0.29
293.15	0.32027	1011.12	0.3
298.15	0	997.05	0.27
298.15	0.04054	998.67	0.26
298.15	0.07831	1000.21	0.26
298.15	0.1207	1001.91	0.27
298.15	0.17794	1004.16	0.27
298.15	0.20764	1005.32	0.28
298.15	0.25239	1007.03	0.28
298.15	0.31978	1009.57	0.29
303.15	0	995.65	0.27
303.15	0.04049	997.39	0.27
303.15	0.0782	998.84	0.26
303.15	0.12053	1000.51	0.26
303.15	0.17768	1002.72	0.27
303.15	0.20734	1003.84	0.27
303.15	0.25201	1005.51	0.28
303.15	0.31928	1008	0.29
308.15	0	994.03	0.27
308.15	0.04042	995.61	0.27
308.15	0.07806	997.09	0.27
308.15	0.12031	998.72	0.26
308.15	0.17736	1000.89	0.26
308.15	0.20695	1001.99	0.27
308.15	0.25154	1003.65	0.27
308.15	0.31867	1006.08	0.28

System: tetrachloromethane + 1,4,7,10,13,16-hexaoxacyclooctadecane; phases: Liquid
Fixed: Pressure, kPa = 101
Property: Viscosity, Pa*s (Liquid); method: CAPTUB:UFactor:2
Temperature, K	Amount concentration (molarity), mol/dm3 of 1,4,7,10,13,16-hexaoxacyclooctadecane	Viscosity, Pa*s	uncertainty
293.15	0	1	0.0141
293.15	0.06567	1.0514	0.0148
293.15	0.09829	1.0697	0.015
293.15	0.12825	1.0886	0.0153
293.15	0.18563	1.1304	0.0158
293.15	0.24642	1.1727	0.0163
293.15	0.32561	1.2326	0.0171
298.15	0	1	0.0141
298.15	0.06528	1.0471	0.0147
298.15	0.09771	1.0681	0.015
298.15	0.12751	1.0894	0.0153
298.15	0.18459	1.1292	0.0158
298.15	0.24507	1.1738	0.0164
298.15	0.32389	1.2247	0.017
303.15	0	1	0.0141
303.15	0.0649	1.0441	0.0147
303.15	0.09714	1.068	0.015
303.15	0.12677	1.0877	0.0153
303.15	0.18351	1.1282	0.0158
303.15	0.24364	1.17	0.0163
303.15	0.32198	1.2204	0.0169
308.15	0	1	0.0141
308.15	0.06453	1.0432	0.0147
308.15	0.09662	1.0668	0.015
308.15	0.12611	1.0846	0.0152
308.15	0.18265	1.1255	0.0157
308.15	0.24261	1.17	0.0163
308.15	0.32085	1.2197	0.0169

System: tetrachloromethane + 1,4,7,10,13,16-hexaoxacyclooctadecane; phases: Liquid
Fixed: Pressure, kPa = 101
Property: Mass density, kg/m3 (Liquid); method: VIBTUB:UFactor:4
Temperature, K	Amount concentration (molarity), mol/dm3 of 1,4,7,10,13,16-hexaoxacyclooctadecane	Mass density, kg/m3	uncertainty
293.15	0	1593.39	1.94
293.15	0.06567	1586.34	1.92
293.15	0.09829	1582.87	1.91
293.15	0.12825	1579.71	1.9
293.15	0.18563	1573.71	1.88
293.15	0.24642	1567.44	1.86
293.15	0.32561	1559.42	1.83
298.15	0	1583.71	1.93
298.15	0.06528	1576.94	1.9
298.15	0.09771	1573.63	1.89
298.15	0.12751	1570.6	1.88
298.15	0.18459	1564.86	1.86
298.15	0.24507	1558.88	1.84
298.15	0.32389	1551.22	1.82
303.15	0	1574.2	1.91
303.15	0.0649	1567.64	1.89
303.15	0.09714	1564.39	1.87
303.15	0.12677	1561.42	1.86
303.15	0.18351	1555.75	1.85
303.15	0.24364	1549.77	1.83
303.15	0.32198	1542.04	1.8
308.15	0	1564.65	1.89
308.15	0.06453	1558.35	1.87
308.15	0.09662	1555.25	1.86
308.15	0.12611	1552.41	1.85
308.15	0.18265	1547.01	1.83
308.15	0.24261	1541.36	1.81
308.15	0.32085	1534.08	1.79
