Measured thermophysical data. Liquid-Liquid Equilibria of Water + Benzonitrile + Propanone, or + Dimethylsulfoxide
Source: J. Chem. Eng. Data, 2003, 10.1021/je030115t
Compound 1: acetone, C3H6O, InChI=1S/C3H6O/c1-3(2)4/h1-2H3, purity 99.9%
Compound 2: benzonitrile, C7H5N, InChI=1S/C7H5N/c8-6-7-4-2-1-3-5-7/h1-5H, purity 99%
Compound 3: water, H2O, InChI=1S/H2O/h1H2
Compound 4: dimethyl sulfoxide, C2H6OS, InChI=1S/C2H6OS/c1-4(2)3/h1-2H3, purity 99.9%

System: acetone + benzonitrile + water; phases: Liquid mixture 1, Liquid mixture 2
Fixed: Pressure, kPa = 401.325
Property: Mole fraction of acetone (Liquid mixture 1); method: CHROM:UFactor:2
Property: Mole fraction of benzonitrile (Liquid mixture 2); method: CHROM:UFactor:2
Property: Mole fraction of acetone (Liquid mixture 2); method: CHROM:UFactor:2
Temperature, K	Mole fraction of benzonitrile	Mole fraction of acetone	uncertainty	Mole fraction of benzonitrile	uncertainty	Mole fraction of acetone	uncertainty
298.15	0.91	0.048	0.003	0.001	0.001	0.012	
298.15	0.836	0.111	0.003	0.001	0.001	0.019	
298.15	0.76	0.165	0.003	0.002	0.002	0.029	
298.15	0.647	0.255	0.004	0.002	0.002	0.05	
298.15	0.522	0.339	0.005	0.003	0.002	0.071	
298.15	0.448	0.382	0.006	0.004	0.002	0.089	
298.15	0.312	0.416	0.006	0.005	0.002	0.129	
298.15	0.228	0.416	0.006	0.008	0.002	0.16	
298.15	0.18	0.407	0.006	0.013	0.002	0.191	
298.15	0.167	0.404	0.006	0.017	0.002	0.199	
298.15	0.143	0.394	0.006	0.018	0.002	0.216	
303.15	0.899	0.049	0.003	0.001	0.001	0.007	
303.15	0.808	0.122	0.003	0.001	0.001	0.015	
303.15	0.774	0.15	0.003	0.002	0.002	0.02	
303.15	0.641	0.251	0.004	0.003	0.002	0.034	
303.15	0.509	0.332	0.005	0.003	0.002	0.05	
303.15	0.438	0.372	0.006	0.004	0.002	0.065	
303.15	0.367	0.398	0.006	0.006	0.002	0.078	
303.15	0.282	0.415	0.006	0.009	0.002	0.1	
303.15	0.165	0.399	0.006	0.013	0.002	0.141	
303.15	0.147	0.384	0.006	0.017	0.002	0.16	
303.15	0.127	0.373	0.006	0.021	0.002	0.178	
308.15	0.895	0.047	0.003	0.001	0.001	0.006	
308.15	0.823	0.095	0.003	0.001	0.001	0.012	
308.15	0.757	0.148	0.003	0.002	0.002	0.019	
308.15	0.62	0.247	0.004	0.003	0.002	0.033	
308.15	0.502	0.326	0.005	0.004	0.002	0.048	
308.15	0.429	0.355	0.006	0.004	0.002	0.061	
308.15	0.319	0.39	0.006	0.006	0.002	0.075	
308.15	0.237	0.399	0.006	0.009	0.002	0.099	
308.15	0.157	0.378	0.006	0.014	0.002	0.136	
308.15	0.139	0.365	0.006	0.018	0.002	0.156	
308.15	0.101	0.323	0.005	0.026	0.002	0.177	
313.15	0.844	0.061	0.003	0.001	0.001	0.004	
313.15	0.795	0.105	0.003	0.002	0.002	0.011	
313.15	0.719	0.166	0.003	0.002	0.002	0.018	
313.15	0.598	0.255	0.004	0.003	0.002	0.026	
313.15	0.483	0.325	0.005	0.004	0.002	0.045	
313.15	0.408	0.361	0.006	0.005	0.002	0.061	
313.15	0.299	0.39	0.006	0.007	0.002	0.074	
313.15	0.23	0.395	0.006	0.01	0.002	0.099	
313.15	0.14	0.361	0.006	0.017	0.002	0.134	
313.15	0.099	0.322	0.006	0.026	0.002	0.155	
318.15	0.827	0.065	0.003	0.002	0.002	0.003	
318.15	0.78	0.107	0.003	0.002	0.002	0.01	
318.15	0.704	0.171	0.004	0.003	0.002	0.015	
318.15	0.599	0.246	0.004	0.003	0.002	0.023	
318.15	0.513	0.295	0.005	0.004	0.002	0.033	
318.15	0.405	0.344	0.005	0.004	0.002	0.047	
318.15	0.289	0.375	0.006	0.007	0.002	0.062	
318.15	0.225	0.38	0.006	0.011	0.002	0.081	
318.15	0.144	0.356	0.006	0.017	0.002	0.101	
318.15	0.083	0.286	0.005	0.027	0.002	0.121	

System: dimethyl sulfoxide + benzonitrile + water; phases: Liquid mixture 1, Liquid mixture 2
Fixed: Pressure, kPa = 401.325
Property: Mole fraction of dimethyl sulfoxide (Liquid mixture 1); method: CHROM:UFactor:8
Property: Mole fraction of benzonitrile (Liquid mixture 2); method: CHROM:UFactor:8
Property: Mole fraction of dimethyl sulfoxide (Liquid mixture 2); method: CHROM:UFactor:8
Temperature, K	Mole fraction of benzonitrile	Mole fraction of dimethyl sulfoxide	uncertainty	Mole fraction of benzonitrile	uncertainty	Mole fraction of dimethyl sulfoxide	uncertainty
298.15	0.917	0.028	0.003	0.005	0.005	0.066	
298.15	0.885	0.047	0.004	0.007	0.005	0.112	
298.15	0.844	0.074	0.005	0.008	0.005	0.153	
298.15	0.797	0.111	0.007	0.009	0.005	0.193	
298.15	0.769	0.13	0.008	0.015	0.005	0.232	
298.15	0.717	0.165	0.01	0.021	0.005	0.272	
298.15	0.676	0.187	0.012	0.037	0.005	0.301	
298.15	0.621	0.222	0.014	0.045	0.006	0.334	
298.15	0.565	0.26	0.016	0.068	0.006	0.356	
298.15	0.512	0.289	0.018	0.085	0.007	0.374	
303.15	0.907	0.029	0.003	0.006	0.005	0.069	
303.15	0.861	0.057	0.004	0.008	0.005	0.125	
303.15	0.824	0.083	0.005	0.01	0.005	0.17	
303.15	0.776	0.111	0.007	0.012	0.005	0.199	
303.15	0.731	0.141	0.009	0.016	0.005	0.245	
303.15	0.691	0.172	0.011	0.027	0.005	0.277	
303.15	0.653	0.192	0.012	0.049	0.006	0.317	
303.15	0.596	0.226	0.014	0.062	0.006	0.342	
303.15	0.541	0.264	0.016	0.094	0.007	0.357	
303.15	0.47	0.297	0.018	0.128	0.009	0.375	
308.15	0.887	0.032	0.003	0.007	0.005	0.075	
308.15	0.849	0.063	0.004	0.008	0.005	0.126	
308.15	0.813	0.086	0.006	0.011	0.005	0.172	
308.15	0.768	0.113	0.007	0.015	0.005	0.207	
308.15	0.717	0.146	0.009	0.017	0.005	0.252	
308.15	0.667	0.176	0.011	0.031	0.005	0.278	
308.15	0.62	0.2	0.012	0.055	0.006	0.325	
308.15	0.564	0.235	0.015	0.088	0.007	0.343	
308.15	0.489	0.274	0.017	0.122	0.009	0.36	
308.15	0.437	0.3	0.019	0.176	0.011	0.376	
313.15	0.853	0.047	0.004	0.007	0.005	0.091	
313.15	0.809	0.075	0.005	0.009	0.005	0.139	
313.15	0.779	0.097	0.006	0.012	0.005	0.183	
313.15	0.74	0.122	0.008	0.019	0.005	0.229	
313.15	0.693	0.152	0.01	0.025	0.005	0.262	
313.15	0.643	0.181	0.011	0.043	0.006	0.296	
313.15	0.608	0.202	0.013	0.084	0.007	0.332	
313.15	0.532	0.243	0.015	0.125	0.009	0.344	
313.15	0.426	0.295	0.018	0.186	0.012	0.363	
318.15	0.832	0.036	0.003	0.008	0.005	0.091	
318.15	0.791	0.071	0.005	0.01	0.005	0.144	
318.15	0.759	0.09	0.006	0.019	0.005	0.188	
318.15	0.719	0.112	0.007	0.026	0.005	0.232	
318.15	0.674	0.145	0.009	0.043	0.006	0.266	
318.15	0.613	0.183	0.011	0.06	0.006	0.301	
318.15	0.559	0.207	0.013	0.112	0.008	0.335	
318.15	0.472	0.255	0.016	0.162	0.01	0.346	
