Measured thermophysical data. Experimental Determination of Liquid-Liquid Equilibrium Using Ionic Liquids: tert-Amyl Ethyl Ether + Ethanol + 1-Octyl-3-Methylimidazolium Chloride System at 298.15 K
Source: J. Chem. Eng. Data, 2004, 10.1021/je0302147
Compound 1: ethanol, C2H6O, InChI=1S/C2H6O/c1-2-3/h3H,2H2,1H3, purity 99.8%
Compound 2: 1,1-dimethylpropyl ethyl ether, C7H16O, InChI=1S/C7H16O/c1-5-7(3,4)8-6-2/h5-6H2,1-4H3, purity 99.9%
Compound 3: 1-methyl-3-octylimidazolium chloride, C12H23ClN2, InChI=1S/C12H23N2.ClH/c1-3-4-5-6-7-8-9-14-11-10-13(2)12-14;/h10-12H,3-9H2,1-2H3;1H/q+1;/p-1, purity 97%

System: ethanol; phases: Liquid
Property: Refractive index (Na D-line) (Liquid); method: OTHER
Temperature, K	Pressure, kPa	Refractive index (Na D-line)	uncertainty
298.15	101.325	1.3592	

System: ethanol; phases: Liquid
Property: Mass density, kg/m3 (Liquid); method: Vibrating tube method
Temperature, K	Pressure, kPa	Mass density, kg/m3	uncertainty
298.15	101.325	785.22	

System: ethanol; phases: Liquid
Property: Speed of sound, m/s (Liquid); method: Sing-around technique in a fixed-path interferometer
Temperature, K	Pressure, kPa	Speed of sound, m/s	uncertainty
298.15	101.325	1143	2

System: 1,1-dimethylpropyl ethyl ether; phases: Liquid
Property: Refractive index (Na D-line) (Liquid); method: OTHER
Temperature, K	Pressure, kPa	Refractive index (Na D-line)	uncertainty
298.15	101.325	1.38857	

System: 1,1-dimethylpropyl ethyl ether; phases: Liquid
Property: Mass density, kg/m3 (Liquid); method: Vibrating tube method
Temperature, K	Pressure, kPa	Mass density, kg/m3	uncertainty
298.15	101.325	760.5	

System: 1,1-dimethylpropyl ethyl ether; phases: Liquid
Property: Speed of sound, m/s (Liquid); method: Sing-around technique in a fixed-path interferometer
Temperature, K	Pressure, kPa	Speed of sound, m/s	uncertainty
298.15	101.325	1096	2

System: 1-methyl-3-octylimidazolium chloride; phases: Liquid
Property: Refractive index (Na D-line) (Liquid); method: Standard Abbe refractometry
Temperature, K	Pressure, kPa	Refractive index (Na D-line)	uncertainty
298.15	101.325	1.5058	0.00069

System: 1-methyl-3-octylimidazolium chloride; phases: Liquid
Property: Mass density, kg/m3 (Liquid); method: VIBTUB:UFactor:8
Temperature, K	Pressure, kPa	Mass density, kg/m3	uncertainty
298.15	101.325	1007	1.6

System: 1-methyl-3-octylimidazolium chloride; phases: Liquid
Property: Speed of sound, m/s (Liquid); method: Sing-around technique in a fixed-path interferometer
Temperature, K	Pressure, kPa	Speed of sound, m/s	uncertainty
298.15	101.325	1382	4

System: ethanol + 1,1-dimethylpropyl ethyl ether + 1-methyl-3-octylimidazolium chloride; phases: Liquid mixture 1, Liquid mixture 2
Fixed: Temperature, K = 298.15
Fixed: Pressure, kPa = 101.3
Property: Mole fraction of ethanol (Liquid mixture 1); method: 1H-NMR Spectroscopy
Property: Mole fraction of ethanol (Liquid mixture 2); method: 1H-NMR Spectroscopy
Property: Mole fraction of 1,1-dimethylpropyl ethyl ether (Liquid mixture 2); method: 1H-NMR Spectroscopy
Mole fraction of 1,1-dimethylpropyl ethyl ether	Mole fraction of ethanol	uncertainty	Mole fraction of ethanol	uncertainty	Mole fraction of 1,1-dimethylpropyl ethyl ether	uncertainty
0.9997	0	0.0001	0	0.0001	0.0831	
0.9967	0.003	0.003	0.1183	0.0662	0.1299	
0.9879	0.0119	0.0056	0.2213	0.0928	0.1504	
0.9898	0.0097	0.0057	0.3032	0.0486	0.1707	
0.9895	0.0102	0.0057	0.3277	0.052	0.1817	
0.9864	0.0133	0.0056	0.3417	0.0432	0.2025	
0.9869	0.0128	0.0056	0.359	0.0462	0.2104	
0.9802	0.0195	0.0056	0.4109	0.03	0.2256	
0.9574	0.0421	0.0055	0.4552	0.0289	0.2435	
0.9227	0.0737	0.0054	0.4768	0.02	0.311	
0.8998	0.0945	0.0054	0.4517	0.0207	0.404	
