Measured thermophysical data. Gas-Liquid Critical Temperatures of Some Alkenes, Amines, and Cyclic Hydrocarbons
Source: J. Chem. Eng. Data, 2004, 10.1021/je0341357
Compound 1: 3,3-dimethyl-1-butene, C6H12, InChI=1S/C6H12/c1-5-6(2,3)4/h5H,1H2,2-4H3, purity 98%
Compound 2: 2,3-dimethyl-2-butene, C6H12, InChI=1S/C6H12/c1-5(2)6(3)4/h1-4H3, purity 99%
Compound 3: 2-methyl-1-pentene, C6H12, InChI=1S/C6H12/c1-4-5-6(2)3/h2,4-5H2,1,3H3, purity 99%
Compound 4: 4-methyl-1-pentene, C6H12, InChI=1S/C6H12/c1-4-5-6(2)3/h4,6H,1,5H2,2-3H3, purity 98%
Compound 5: 2-methyl-2-pentene, C6H12, InChI=1S/C6H12/c1-4-5-6(2)3/h5H,4H2,1-3H3, purity 98%
Compound 6: (Z)-4-methyl-2-pentene, C6H12, InChI=1S/C6H12/c1-4-5-6(2)3/h4-6H,1-3H3/b5-4-, purity 99%
Compound 7: 2,3-dimethyl-1-pentene, C7H14, InChI=1S/C7H14/c1-5-7(4)6(2)3/h7H,2,5H2,1,3-4H3, purity 99%
Compound 8: 4,4-dimethyl-1-pentene, C7H14, InChI=1S/C7H14/c1-5-6-7(2,3)4/h5H,1,6H2,2-4H3, purity 99%
Compound 9: (Z)-2-hexene, C6H12, InChI=1S/C6H12/c1-3-5-6-4-2/h3,5H,4,6H2,1-2H3/b5-3-, purity 97%
Compound 10: (Z)-3-hexene, C6H12, InChI=1S/C6H12/c1-3-5-6-4-2/h5-6H,3-4H2,1-2H3/b6-5-, purity 95%
Compound 11: (E)-2-hexene, C6H12, InChI=1S/C6H12/c1-3-5-6-4-2/h3,5H,4,6H2,1-2H3/b5-3+, purity 98%
Compound 12: (E)-3-hexene, C6H12, InChI=1S/C6H12/c1-3-5-6-4-2/h5-6H,3-4H2,1-2H3/b6-5+, purity 96%
Compound 13: 2-methyl-1-hexene, C7H14, InChI=1S/C7H14/c1-4-5-6-7(2)3/h2,4-6H2,1,3H3, purity 98%
Compound 14: 5-methyl-1-hexene, C7H14, InChI=1S/C7H14/c1-4-5-6-7(2)3/h4,7H,1,5-6H2,2-3H3, purity 99%
Compound 15: 2-heptene, (Z)-, C7H14, InChI=1S/C7H14/c1-3-5-7-6-4-2/h3,5H,4,6-7H2,1-2H3/b5-3-, purity 97%
Compound 16: 2-heptene, (E)-, C7H14, InChI=1S/C7H14/c1-3-5-7-6-4-2/h3,5H,4,6-7H2,1-2H3/b5-3+, purity 99%
Compound 17: 3-heptene, (E)-, C7H14, InChI=1S/C7H14/c1-3-5-7-6-4-2/h5,7H,3-4,6H2,1-2H3/b7-5+, purity 99%
Compound 18: 2,3-dimethyl-1-butene, C6H12, InChI=1S/C6H12/c1-5(2)6(3)4/h6H,1H2,2-4H3, purity 98%
Compound 19: 2-methyl-1-heptene, C8H16, InChI=1S/C8H16/c1-4-5-6-7-8(2)3/h2,4-7H2,1,3H3, purity 99%
Compound 20: 2-methyl-2-heptene, C8H16, InChI=1S/C8H16/c1-4-5-6-7-8(2)3/h7H,4-6H2,1-3H3, purity 98%
Compound 21: (E)-2-octene, C8H16, InChI=1S/C8H16/c1-3-5-7-8-6-4-2/h3,5H,4,6-8H2,1-2H3/b5-3+, purity 99%
Compound 22: (E)-4-octene, C8H16, InChI=1S/C8H16/c1-3-5-7-8-6-4-2/h7-8H,3-6H2,1-2H3/b8-7+, purity 99%
Compound 23: propan-1-amine, C3H9N, InChI=1S/C3H9N/c1-2-3-4/h2-4H2,1H3, purity 99%
Compound 24: 2-propanamine, C3H9N, InChI=1S/C3H9N/c1-3(2)4/h3H,4H2,1-2H3, purity 99%
Compound 25: cyclohexylamine, C6H13N, InChI=1S/C6H13N/c7-6-4-2-1-3-5-6/h6H,1-5,7H2, purity 99%
Compound 26: 1-hexanamine, C6H15N, InChI=1S/C6H15N/c1-2-3-4-5-6-7/h2-7H2,1H3, purity 99%
Compound 27: 1-methylhexylamine, C7H17N, InChI=1S/C7H17N/c1-3-4-5-6-7(2)8/h7H,3-6,8H2,1-2H3, purity 99%
Compound 28: 1-hexanamine, N-methyl-, C7H17N, InChI=1S/C7H17N/c1-3-4-5-6-7-8-2/h8H,3-7H2,1-2H3, purity 96%
Compound 29: dipropylamine, C6H15N, InChI=1S/C6H15N/c1-3-5-7-6-4-2/h7H,3-6H2,1-2H3, purity 99.5%
Compound 30: dibutylamine, C8H19N, InChI=1S/C8H19N/c1-3-5-7-9-8-6-4-2/h9H,3-8H2,1-2H3, purity 99.5%
Compound 31: cyclohexane, C6H12, InChI=1S/C6H12/c1-2-4-6-5-3-1/h1-6H2, purity 99%
Compound 32: cyclooctane, C8H16, InChI=1S/C8H16/c1-2-4-6-8-7-5-3-1/h1-8H2, purity 99%
Compound 33: ethylcyclohexane, C8H16, InChI=1S/C8H16/c1-2-8-6-4-3-5-7-8/h8H,2-7H2,1H3, purity 99%
Compound 34: 1-cyclohexylpropane, C9H18, InChI=1S/C9H18/c1-2-6-9-7-4-3-5-8-9/h9H,2-8H2,1H3, purity 99%
Compound 35: butylcyclohexane, C10H20, InChI=1S/C10H20/c1-2-3-7-10-8-5-4-6-9-10/h10H,2-9H2,1H3, purity 99%
Compound 36: (1-methylethyl)cyclohexane, C9H18, InChI=1S/C9H18/c1-8(2)9-6-4-3-5-7-9/h8-9H,3-7H2,1-2H3, purity 99%
Compound 37: 2-methylpropylcyclohexane, C10H20, InChI=1S/C10H20/c1-9(2)8-10-6-4-3-5-7-10/h9-10H,3-8H2,1-2H3, purity 97%
Compound 38: 1,1-dimethylethylcyclohexane, C10H20, InChI=1S/C10H20/c1-10(2,3)9-7-5-4-6-8-9/h9H,4-8H2,1-3H3, purity 99%
Compound 39: 2-methyl-1-butene, C5H10, InChI=1S/C5H10/c1-4-5(2)3/h2,4H2,1,3H3, purity 98%

System: 3,3-dimethyl-1-butene; phases: Liquid, Gas
Property: Critical temperature, K (Liquid); method: Visual observation in an unstirred cell
Critical temperature, K	uncertainty
477.4	0.9

System: 2,3-dimethyl-2-butene; phases: Liquid, Gas
Property: Critical temperature, K (Liquid); method: Visual observation in an unstirred cell
Critical temperature, K	uncertainty
521	0.9

System: 2-methyl-1-pentene; phases: Liquid, Gas
Property: Critical temperature, K (Liquid); method: Visual observation in an unstirred cell
Critical temperature, K	uncertainty
521	0.4

System: 4-methyl-1-pentene; phases: Liquid, Gas
Property: Critical temperature, K (Liquid); method: Visual observation in an unstirred cell
Critical temperature, K	uncertainty
493.1	0.5

System: 2-methyl-2-pentene; phases: Liquid, Gas
Property: Critical temperature, K (Liquid); method: Visual observation in an unstirred cell
Critical temperature, K	uncertainty
509.3	0.5

System: (Z)-4-methyl-2-pentene; phases: Liquid, Gas
Property: Critical temperature, K (Liquid); method: Visual observation in an unstirred cell
Critical temperature, K	uncertainty
496.3	0.7

System: 2,3-dimethyl-1-pentene; phases: Liquid, Gas
Property: Critical temperature, K (Liquid); method: Visual observation in an unstirred cell
Critical temperature, K	uncertainty
533.6	4.3

System: 4,4-dimethyl-1-pentene; phases: Liquid, Gas
Property: Critical temperature, K (Liquid); method: Visual observation in an unstirred cell
Critical temperature, K	uncertainty
516	4

System: (Z)-2-hexene; phases: Liquid, Gas
Property: Critical temperature, K (Liquid); method: Visual observation in an unstirred cell
Critical temperature, K	uncertainty
513.4	0.9

System: (Z)-3-hexene; phases: Liquid, Gas
Property: Critical temperature, K (Liquid); method: Visual observation in an unstirred cell
Critical temperature, K	uncertainty
510.2	1.4

System: (E)-2-hexene; phases: Liquid, Gas
Property: Critical temperature, K (Liquid); method: Visual observation in an unstirred cell
Critical temperature, K	uncertainty
509	0.7

System: (E)-3-hexene; phases: Liquid, Gas
Property: Critical temperature, K (Liquid); method: Visual observation in an unstirred cell
Critical temperature, K	uncertainty
507.4	2

System: 2-methyl-1-hexene; phases: Liquid, Gas
Property: Critical temperature, K (Liquid); method: Visual observation in an unstirred cell
Critical temperature, K	uncertainty
541.8	1.1

System: 5-methyl-1-hexene; phases: Liquid, Gas
Property: Critical temperature, K (Liquid); method: Visual observation in an unstirred cell
Critical temperature, K	uncertainty
528.7	0.4

System: 2-heptene, (Z)-; phases: Liquid, Gas
Property: Critical temperature, K (Liquid); method: Visual observation in an unstirred cell
Critical temperature, K	uncertainty
548.5	0.6

System: 2-heptene, (E)-; phases: Liquid, Gas
Property: Critical temperature, K (Liquid); method: Visual observation in an unstirred cell
Critical temperature, K	uncertainty
542.8	0.4

System: 3-heptene, (E)-; phases: Liquid, Gas
Property: Critical temperature, K (Liquid); method: Visual observation in an unstirred cell
Critical temperature, K	uncertainty
538.6	0.7

System: 2,3-dimethyl-1-butene; phases: Liquid, Gas
Property: Critical temperature, K (Liquid); method: Visual observation in an unstirred cell
Critical temperature, K	uncertainty
497.7	0.9

System: 2-methyl-1-heptene; phases: Liquid, Gas
Property: Critical temperature, K (Liquid); method: Visual observation in an unstirred cell
Critical temperature, K	uncertainty
567.5	0.9

System: 2-methyl-2-heptene; phases: Liquid, Gas
Property: Critical temperature, K (Liquid); method: Visual observation in an unstirred cell
Critical temperature, K	uncertainty
568.9	1.1

System: (E)-2-octene; phases: Liquid, Gas
Property: Critical temperature, K (Liquid); method: Visual observation in an unstirred cell
Critical temperature, K	uncertainty
569.8	0.4

System: (E)-4-octene; phases: Liquid, Gas
Property: Critical temperature, K (Liquid); method: Visual observation in an unstirred cell
Critical temperature, K	uncertainty
566.3	1.1

System: propan-1-amine; phases: Liquid, Gas
Property: Critical temperature, K (Liquid); method: Visual observation in an unstirred cell
Critical temperature, K	uncertainty
499.2	0.4

System: 2-propanamine; phases: Liquid, Gas
Property: Critical temperature, K (Liquid); method: Visual observation in an unstirred cell
Critical temperature, K	uncertainty
472.5	0.4

System: cyclohexylamine; phases: Liquid, Gas
Property: Critical temperature, K (Liquid); method: Visual observation in an unstirred cell
Critical temperature, K	uncertainty
626.8	0.9

System: 1-hexanamine; phases: Liquid, Gas
Property: Critical temperature, K (Liquid); method: Visual observation in an unstirred cell
Critical temperature, K	uncertainty
592.3	0.7

System: 1-methylhexylamine; phases: Liquid, Gas
Property: Critical temperature, K (Liquid); method: Visual observation in an unstirred cell
Critical temperature, K	uncertainty
598	2.1

System: 1-hexanamine, N-methyl-; phases: Liquid, Gas
Property: Critical temperature, K (Liquid); method: Visual observation in an unstirred cell
Critical temperature, K	uncertainty
592	1

System: dipropylamine; phases: Liquid, Gas
Property: Critical temperature, K (Liquid); method: Visual observation in an unstirred cell
Critical temperature, K	uncertainty
555.8	1.1

System: dibutylamine; phases: Liquid, Gas
Property: Critical temperature, K (Liquid); method: Visual observation in an unstirred cell
Critical temperature, K	uncertainty
607.5	1.1

System: cyclohexane; phases: Liquid, Gas
Property: Critical temperature, K (Liquid); method: Visual observation in an unstirred cell
Critical temperature, K	uncertainty
553.6	1.1

System: cyclooctane; phases: Liquid, Gas
Property: Critical temperature, K (Liquid); method: Visual observation in an unstirred cell
Critical temperature, K	uncertainty
647.5	0.4

System: ethylcyclohexane; phases: Liquid, Gas
Property: Critical temperature, K (Liquid); method: Visual observation in an unstirred cell
Critical temperature, K	uncertainty
606.9	0.4

System: 1-cyclohexylpropane; phases: Liquid, Gas
Property: Critical temperature, K (Liquid); method: Visual observation in an unstirred cell
Critical temperature, K	uncertainty
630.8	0.9

System: butylcyclohexane; phases: Liquid, Gas
Property: Critical temperature, K (Liquid); method: Visual observation in an unstirred cell
Critical temperature, K	uncertainty
653.1	0.4

System: (1-methylethyl)cyclohexane; phases: Liquid, Gas
Property: Critical temperature, K (Liquid); method: Visual observation in an unstirred cell
Critical temperature, K	uncertainty
632.2	0.4

System: 2-methylpropylcyclohexane; phases: Liquid, Gas
Property: Critical temperature, K (Liquid); method: Visual observation in an unstirred cell
Critical temperature, K	uncertainty
642.1	0.6

System: 1,1-dimethylethylcyclohexane; phases: Liquid, Gas
Property: Critical temperature, K (Liquid); method: Visual observation in an unstirred cell
Critical temperature, K	uncertainty
652	0.4

System: 2-methyl-1-butene; phases: Liquid, Gas
Property: Critical temperature, K (Liquid); method: Visual observation in an unstirred cell
Critical temperature, K	uncertainty
467	0.5
