Measured thermophysical data. Measurement of Henry s Law Constants for Acetone, 2-Butanone, 2,3-Butanedione, and Isobutyraldehyde Using a Horizontal Flow Reactor
Source: J. Chem. Eng. Data, 2005, 10.1021/je034137r
Compound 1: acetone, C3H6O, InChI=1S/C3H6O/c1-3(2)4/h1-2H3, purity 99.9%
Compound 2: butanone, C4H8O, InChI=1S/C4H8O/c1-3-4(2)5/h3H2,1-2H3, purity 99%
Compound 3: 2,3-butanedione, C4H6O2, InChI=1S/C4H6O2/c1-3(5)4(2)6/h1-2H3, purity 97%
Compound 4: 2-methylpropanal, C4H8O, InChI=1S/C4H8O/c1-4(2)3-5/h3-4H,1-2H3, purity 98%
Compound 5: water, H2O, InChI=1S/H2O/h1H2

System: acetone + water; phases: Liquid, Gas
Fixed: Amount concentration (molarity), mol/dm3 of acetone = 0
Property: Henry's Law constant (amount concentration scale), kPa*dm3/mol of acetone (Liquid); method: molecular beam mass spectrometer
Temperature, K	Henry's Law constant (amount concentration scale), kPa*dm3/mol of acetone	uncertainty
276	14591	6180.82
279	11044	4559.62
283	8511	3647.7
288	6991	2837.1
293	3749	1722.53

System: butanone + water; phases: Liquid, Gas
Fixed: Amount concentration (molarity), mol/dm3 of butanone = 0
Property: Henry's Law constant (amount concentration scale), kPa*dm3/mol of butanone (Liquid); method: molecular beam mass spectrometer
Temperature, K	Henry's Law constant (amount concentration scale), kPa*dm3/mol of butanone	uncertainty
275	8207	2026.5
278	7397	1925.17
281	4762	1519.88
283	2533	709.27
283	2229	709.27
288	1723	405.3
293	800.5	233.05
293	658.6	222.915
298	233	131.722
298	263.4	121.59
298	293.8	121.59

System: 2,3-butanedione + water; phases: Liquid, Gas
Fixed: Amount concentration (molarity), mol/dm3 of 2,3-butanedione = 0
Property: Henry's Law constant (amount concentration scale), kPa*dm3/mol of 2,3-butanedione (Liquid); method: molecular beam mass spectrometer
Temperature, K	Henry's Law constant (amount concentration scale), kPa*dm3/mol of 2,3-butanedione	uncertainty
278	27054	7396.73
283	20468	6180.82
285	18441	6383.48
288	11348	3647.7
293	8410	2533.12
298	5776	1722.53

System: 2-methylpropanal + water; phases: Liquid, Gas
Fixed: Amount concentration (molarity), mol/dm3 of 2-methylpropanal = 0
Property: Henry's Law constant (amount concentration scale), kPa*dm3/mol of 2-methylpropanal (Liquid); method: molecular beam mass spectrometer
Temperature, K	Henry's Law constant (amount concentration scale), kPa*dm3/mol of 2-methylpropanal	uncertainty
275	213.8	102.3383
275	208.73	17.2253
275	212.78	17.2253
276	202.65	58.7685
279	162.12	50.6625
281	133.75	41.5433
281	135.78	41.5433
283	133.75	41.5433
283	134.76	41.5433
283	135.78	41.5433
285	104.36	30.398
285	107.4	32.424
288	109.43	32.424
288	106.39	32.424
290	82.07	34.4505
290	94.23	35.4637
293	78.02	24.318
293	74.98	22.2915
