Measured thermophysical data. Densities, Viscosities and Adiabatic Compressibilities of Some Mineral Salts in Water at Different Temperatures
Source: J. Chem. Eng. Data, 2004, 10.1021/je030205y
Compound 1: ammonium nitrate, H4N2O3, InChI=1S/NO3.H3N/c2-1(3)4;/h;1H3/q-1;/p+1
Compound 2: lithium nitrate, LiNO3, InChI=1S/Li.NO3/c;2-1(3)4/q+1;-1
Compound 3: sodium nitrate, NNaO3, InChI=1S/NO3.Na/c2-1(3)4;/q-1;+1
Compound 4: potassium nitrate, KNO3, InChI=1S/K.NO3/c;2-1(3)4/q+1;-1
Compound 5: magnesium nitrate, MgN2O6, InChI=1S/Mg.2NO3/c;2*2-1(3)4/q+2;2*-1
Compound 6: calcium nitrate, CaN2O6, InChI=1S/Ca.2NO3/c;2*2-1(3)4/q+2;2*-1
Compound 7: water, H2O, InChI=1S/H2O/h1H2

System: ammonium nitrate + water; phases: Liquid
Fixed: Temperature, K = 303
Fixed: Pressure, kPa = 101.3
Property: Speed of sound, m/s (Liquid); method: LVPAI:UFactor:2
Molality, mol/kg of ammonium nitrate	Speed of sound, m/s	uncertainty
0.01245	1519.9517	5.47331
0.06245	1523.6523	5.48603
0.11252	1533.4673	5.51854
0.17555	1536.0744	5.52787
0.23929	1537.7147	5.53409

System: ammonium nitrate + water; phases: Liquid
Fixed: Pressure, kPa = 101.3
Property: Viscosity, Pa*s (Liquid); method: CAPTUB:UFactor:8
Temperature, K	Amount concentration (molarity), mol/dm3 of ammonium nitrate	Viscosity, Pa*s	uncertainty
303	0.01241	0.0008291	4.22e-05
303	0.06206	0.000859	4.35e-05
303	0.11172	0.000878	4.43e-05
303	0.17378	0.0008941	4.5e-05
303	0.23584	0.0009035	4.54e-05
308	0.01238	0.0007362	3.82e-05
308	0.06197	0.0007438	3.85e-05
308	0.11127	0.0007504	3.88e-05
308	0.17361	0.0007573	3.91e-05
308	0.23547	0.0007629	3.93e-05
313	0.01237	0.0006794	3.57e-05
313	0.06191	0.0007061	3.69e-05
313	0.11116	0.0007184	3.74e-05
313	0.17325	0.0007282	3.78e-05
313	0.23519	0.0007352	3.81e-05
318	0.01235	0.000624	3.33e-05
318	0.06178	0.0006509	3.45e-05
318	0.11089	0.0006531	3.46e-05
318	0.17266	0.0006633	3.5e-05
318	0.23443	0.0006743	3.55e-05
323	0.0123	0.0005666	3.08e-05
323	0.06156	0.0005851	3.16e-05
323	0.11053	0.0005876	3.17e-05
323	0.17197	0.0005953	3.21e-05
323	0.23352	0.0005969	3.21e-05

System: ammonium nitrate + water; phases: Liquid
Fixed: Pressure, kPa = 101.3
Property: Mass density, kg/m3 (Liquid); method: PYCNOM:UFactor:8
Temperature, K	Amount concentration (molarity), mol/dm3 of ammonium nitrate	Mass density, kg/m3	uncertainty
303	0.01241	996.51	2.1
303	0.06206	999.49	2.11
303	0.11172	1001.64	2.11
303	0.17378	1003.81	2.12
303	0.23584	1005.52	2.12
308	0.01238	994.88	2.18
308	0.06197	997.78	2.19
308	0.11127	999.94	2.2
308	0.17361	1001.95	2.2
308	0.23547	1002.89	2.21
313	0.01237	993.05	2.27
313	0.06191	995.96	2.28
313	0.11116	998.04	2.28
313	0.17325	1000.07	2.29
313	0.23519	1000.85	2.29
318	0.01235	991.05	2.36
318	0.06178	993.86	2.36
318	0.11089	995.94	2.37
318	0.17266	997.87	2.37
318	0.23443	998.44	2.38
323	0.0123	988.85	2.44
323	0.06156	991.64	2.45
323	0.11053	993.43	2.45
323	0.17197	994.64	2.46
323	0.23352	995.9	2.46

System: water + lithium nitrate; phases: Liquid
Fixed: Temperature, K = 303
Fixed: Pressure, kPa = 101.3
Property: Speed of sound, m/s (Liquid); method: LVPAI:UFactor:2
Molality, mol/kg of lithium nitrate	Speed of sound, m/s	uncertainty
0.01221	1525.4264	5.49101
0.06137	1529.9066	5.50614
0.11073	1535.0003	5.52325
0.17288	1540.694	5.54246
0.23609	1543.8408	5.55342

System: water + lithium nitrate; phases: Liquid
Fixed: Pressure, kPa = 101.3
Property: Viscosity, Pa*s (Liquid); method: CAPTUB:UFactor:8
Temperature, K	Amount concentration (molarity), mol/dm3 of lithium nitrate	Viscosity, Pa*s	uncertainty
303	0.012148	0.0008491	4.31e-05
303	0.06074	0.0009172	4.6e-05
303	0.10933	0.000973	4.84e-05
303	0.17008	0.0010332	5.1e-05
303	0.23082	0.0010919	5.36e-05
308	0.01212	0.000772	3.97e-05
308	0.06062	0.0008448	4.29e-05
308	0.10894	0.0009002	4.53e-05
308	0.16942	0.0009604	4.79e-05
308	0.2301	0.0010167	5.03e-05
313	0.01209	0.0007013	3.67e-05
313	0.06051	0.0007674	3.95e-05
313	0.10867	0.0008183	4.17e-05
313	0.16886	0.0008734	4.41e-05
313	0.22999	0.0009244	4.63e-05
318	0.01207	0.0006408	3.4e-05
318	0.06039	0.0007076	3.69e-05
318	0.10849	0.0007519	3.89e-05
318	0.16868	0.0008054	4.12e-05
318	0.22954	0.000854	4.33e-05
323	0.01205	0.0005858	3.17e-05
323	0.0603	0.0006461	3.43e-05
323	0.10831	0.0006865	3.6e-05
323	0.16832	0.0007352	3.81e-05
323	0.2294	0.0007798	4.01e-05

System: water + lithium nitrate; phases: Liquid
Fixed: Pressure, kPa = 101.3
Property: Mass density, kg/m3 (Liquid); method: PYCNOM:UFactor:8
Temperature, K	Amount concentration (molarity), mol/dm3 of lithium nitrate	Mass density, kg/m3	uncertainty
303	0.012148	996.12	2.1
303	0.06074	998.19	2.1
303	0.10933	1000.83	2.11
303	0.17008	1004.72	2.12
303	0.23082	1008.91	2.13
308	0.01212	994.29	2.18
308	0.06062	995.46	2.19
308	0.10894	997.23	2.19
308	0.16942	1000.8	2.2
308	0.2301	1002.93	2.21
313	0.01209	992.43	2.27
313	0.06051	993.41	2.27
313	0.10867	994.75	2.28
313	0.16886	997.55	2.28
313	0.22999	1001.02	2.29
318	0.01207	990.41	2.35
318	0.06039	991.36	2.36
318	0.10849	992.67	2.36
318	0.16868	995.37	2.37
318	0.22954	998.91	2.38
323	0.01205	988.21	2.44
323	0.0603	989.11	2.44
323	0.10831	990.38	2.45
323	0.16832	993.08	2.45
323	0.2294	996.34	2.46

System: sodium nitrate + water; phases: Liquid
Fixed: Temperature, K = 303
Fixed: Pressure, kPa = 101.3
Property: Speed of sound, m/s (Liquid); method: LVPAI:UFactor:2
Molality, mol/kg of sodium nitrate	Speed of sound, m/s	uncertainty
0.01211	1533.4269	5.51696
0.0607	1540.574	5.54086
0.10932	1548.5745	5.56753
0.17019	1558.7617	5.60147
0.23152	1566.7622	5.62833

System: sodium nitrate + water; phases: Liquid
Fixed: Pressure, kPa = 101.3
Property: Viscosity, Pa*s (Liquid); method: CAPTUB:UFactor:4
Temperature, K	Amount concentration (molarity), mol/dm3 of sodium nitrate	Viscosity, Pa*s	uncertainty
303	0.01205	0.000813	2.1e-05
303	0.06025	0.0008323	2.15e-05
303	0.10845	0.0008483	2.18e-05
303	0.16869	0.0008693	2.23e-05
303	0.22894	0.0008885	2.27e-05
308	0.01203	0.0007343	1.93e-05
308	0.06016	0.0007545	1.98e-05
308	0.10807	0.0007723	2.02e-05
308	0.16813	0.0007896	2.05e-05
308	0.22825	0.0008071	2.09e-05
313	0.01202	0.0006675	1.78e-05
313	0.06012	0.0006865	1.83e-05
313	0.10791	0.0007031	1.86e-05
313	0.16772	0.0007195	1.9e-05
313	0.22779	0.0007366	1.94e-05
318	0.012	0.0006113	1.66e-05
318	0.06004	0.0006301	1.7e-05
318	0.10777	0.0006466	1.74e-05
318	0.16729	0.0006648	1.78e-05
318	0.22731	0.0006804	1.81e-05
323	0.01196	0.0005675	1.56e-05
323	0.0598	0.0005975	1.63e-05
323	0.10742	0.0006196	1.68e-05
323	0.16726	0.0006444	1.73e-05
323	0.22673	0.000668	1.79e-05

System: sodium nitrate + water; phases: Liquid
Fixed: Pressure, kPa = 101.3
Property: Mass density, kg/m3 (Liquid); method: PYCNOM:UFactor:8
Temperature, K	Amount concentration (molarity), mol/dm3 of sodium nitrate	Mass density, kg/m3	uncertainty
303	0.01205	996.18	2.1
303	0.06025	998.54	2.1
303	0.10845	1001.23	2.11
303	0.16869	1004.74	2.12
303	0.22894	1008.31	2.13
308	0.01203	994.44	2.18
308	0.06016	996.37	2.19
308	0.10807	998.79	2.2
308	0.16813	1001.99	2.2
308	0.22825	1005.74	2.21
313	0.01202	992.59	2.27
313	0.06012	994.35	2.27
313	0.10791	996.89	2.28
313	0.16772	999.73	2.29
313	0.22779	1003.27	2.3
318	0.012	990.57	2.35
318	0.06004	992.21	2.36
318	0.10777	994.46	2.37
318	0.16729	997.22	2.37
318	0.22731	1001.15	2.38
323	0.01196	988.35	2.44
323	0.0598	989.89	2.44
323	0.10742	991.74	2.45
323	0.16726	994.45	2.46
323	0.22673	998.57	2.47

System: water + potassium nitrate; phases: Liquid
Fixed: Temperature, K = 303
Fixed: Pressure, kPa = 101.3
Property: Speed of sound, m/s (Liquid); method: LVPAI:UFactor:2
Molality, mol/kg of potassium nitrate	Speed of sound, m/s	uncertainty
0.01211	1526.7598	5.4954
0.06067	1532.4535	5.51473
0.10949	1540.694	5.54234
0.17073	1554.3881	5.5881
0.23225	1586.0301	5.6926

System: water + potassium nitrate; phases: Liquid
Fixed: Pressure, kPa = 101.3
Property: Viscosity, Pa*s (Liquid); method: CAPTUB:UFactor:4
Temperature, K	Amount concentration (molarity), mol/dm3 of potassium nitrate	Viscosity, Pa*s	uncertainty
303	0.01205	0.0008103	2.1e-05
303	0.06026	0.0008255	2.13e-05
303	0.10847	0.000839	2.16e-05
303	0.16874	0.0008551	2.2e-05
303	0.22899	0.0008729	2.24e-05
308	0.01203	0.0007321	1.93e-05
308	0.06009	0.0007476	1.96e-05
308	0.10819	0.0007626	1.99e-05
308	0.16829	0.0007781	2.03e-05
308	0.22839	0.0007934	2.06e-05
313	0.01202	0.0006647	1.78e-05
313	0.05997	0.000679	1.81e-05
313	0.10785	0.0006924	1.84e-05
313	0.16779	0.0007065	1.87e-05
313	0.22776	0.0007207	1.9e-05
318	0.01199	0.0006073	1.65e-05
318	0.05985	0.0006214	1.68e-05
318	0.1076	0.0006334	1.71e-05
318	0.16748	0.0006472	1.74e-05
318	0.22726	0.0006614	1.77e-05
323	0.01198	0.0005551	1.54e-05
323	0.05976	0.0005683	1.56e-05
323	0.10744	0.00058	1.59e-05
323	0.16729	0.0005934	1.62e-05
323	0.22712	0.0006064	1.65e-05

System: water + potassium nitrate; phases: Liquid
Fixed: Pressure, kPa = 101.3
Property: Mass density, kg/m3 (Liquid); method: PYCNOM:UFactor:8
Temperature, K	Amount concentration (molarity), mol/dm3 of potassium nitrate	Mass density, kg/m3	uncertainty
303	0.01205	996.25	2.1
303	0.06026	998.77	2.1
303	0.10847	1001.59	2.11
303	0.16874	1005.39	2.12
303	0.22899	1009.09	2.13
308	0.01203	994.55	2.18
308	0.06009	996.67	2.19
308	0.10819	999.11	2.2
308	0.16829	1002.76	2.21
308	0.22839	1006.25	2.22
313	0.01202	992.68	2.27
313	0.05997	994.61	2.27
313	0.10785	997.05	2.28
313	0.16779	1000.16	2.29
313	0.22776	1003.72	2.3
318	0.01199	990.67	2.35
318	0.05985	992.51	2.36
318	0.1076	994.9	2.37
318	0.16748	997.94	2.38
318	0.22726	1001.48	2.38
323	0.01198	988.45	2.44
323	0.05976	990.16	2.44
323	0.10744	991.23	2.45
323	0.16729	995.82	2.46
323	0.22712	999.08	2.47

System: water + magnesium nitrate; phases: Liquid
Fixed: Temperature, K = 303
Fixed: Pressure, kPa = 101.3
Property: Speed of sound, m/s (Liquid); method: LVPAI:UFactor:2
Molality, mol/kg of magnesium nitrate	Speed of sound, m/s	uncertainty
0.01197	1519.1049	5.47072
0.06032	1525.1059	5.49145
0.10905	1531.0469	5.51198
0.17202	1534.3808	5.52443
0.23572	1539.0483	5.54121

System: water + magnesium nitrate; phases: Liquid
Fixed: Pressure, kPa = 101.3
Property: Viscosity, Pa*s (Liquid); method: CAPTUB:UFactor:4
Temperature, K	Amount concentration (molarity), mol/dm3 of magnesium nitrate	Viscosity, Pa*s	uncertainty
303	0.01189	0.0008106	2.1e-05
303	0.05949	0.0008293	2.14e-05
303	0.10708	0.0008454	2.18e-05
303	0.16657	0.0008685	2.23e-05
303	0.22606	0.0008903	2.28e-05
308	0.01188	0.0007327	1.93e-05
308	0.05941	0.000751	1.97e-05
308	0.10659	0.0007688	2.01e-05
308	0.16627	0.0007895	2.05e-05
308	0.22602	0.0008101	2.1e-05
313	0.01187	0.0006665	1.78e-05
313	0.05939	0.0006847	1.82e-05
313	0.10657	0.0007021	1.86e-05
313	0.166	0.0007219	1.91e-05
313	0.22591	0.0007411	1.95e-05
318	0.01182	0.0006095	1.66e-05
318	0.05914	0.0006272	1.7e-05
318	0.10638	0.0006449	1.73e-05
318	0.16537	0.0006635	1.78e-05
318	0.22502	0.0006813	1.82e-05
323	0.01181	0.0005575	1.54e-05
323	0.05894	0.0005773	1.58e-05
323	0.10599	0.0005927	1.62e-05
323	0.16486	0.0006106	1.66e-05
323	0.22417	0.0006276	1.7e-05

System: water + magnesium nitrate; phases: Liquid
Fixed: Pressure, kPa = 101.3
Property: Mass density, kg/m3 (Liquid); method: PYCNOM:UFactor:8
Temperature, K	Amount concentration (molarity), mol/dm3 of magnesium nitrate	Mass density, kg/m3	uncertainty
303	0.01189	996.8	2.1
303	0.05949	1001.92	2.12
303	0.10708	1007.58	2.13
303	0.16657	1016.32	2.16
303	0.22606	1024.95	2.18
308	0.01188	995.12	2.19
308	0.05941	999.96	2.2
308	0.10659	1005.75	2.22
308	0.16627	1014.23	2.24
308	0.22602	1022.38	2.26
313	0.01187	993.25	2.27
313	0.05939	997.81	2.29
313	0.10657	1003.18	2.3
313	0.166	1011.08	2.32
313	0.22591	1019.9	2.35
318	0.01182	991.21	2.36
318	0.05914	995.55	2.37
318	0.10638	1000.89	2.39
318	0.16537	1008.45	2.41
318	0.22502	1017.15	2.43
323	0.01181	988.96	2.44
323	0.05894	993.05	2.45
323	0.10599	998.01	2.47
323	0.16486	1005.29	2.49
323	0.22417	1013.68	2.51

System: water + calcium nitrate; phases: Liquid
Fixed: Temperature, K = 303
Fixed: Pressure, kPa = 101.3
Property: Speed of sound, m/s (Liquid); method: LVPAI:UFactor:2
Molality, mol/kg of calcium nitrate	Speed of sound, m/s	uncertainty
0.01206	1545.2893	5.55555
0.06088	1548.3832	5.56701
0.10977	1553.1107	5.58375
0.17115	1561.052	5.61125
0.23525	1568.3266	5.63664

System: water + calcium nitrate; phases: Liquid
Fixed: Pressure, kPa = 101.3
Property: Viscosity, Pa*s (Liquid); method: CAPTUB:UFactor:4
Temperature, K	Amount concentration (molarity), mol/dm3 of calcium nitrate	Viscosity, Pa*s	uncertainty
303	0.01204	0.0008173	2.11e-05
303	0.06018	0.0008451	2.18e-05
303	0.10832	0.0008677	2.23e-05
303	0.16849	0.0008952	2.29e-05
303	0.22867	0.0009228	2.35e-05
308	0.01199	0.0007378	1.94e-05
308	0.06013	0.0007634	2e-05
308	0.10793	0.0007854	2.05e-05
308	0.16733	0.0008092	2.1e-05
308	0.22758	0.0008343	2.15e-05
313	0.01197	0.0006703	1.79e-05
313	0.06007	0.0006945	1.84e-05
313	0.10766	0.000715	1.89e-05
313	0.1661	0.0007378	1.94e-05
313	0.22679	0.0007597	1.99e-05
318	0.01192	0.0006137	1.66e-05
318	0.05984	0.0006347	1.71e-05
318	0.10723	0.0006545	1.76e-05
318	0.16516	0.0006763	1.8e-05
318	0.22531	0.000697	1.85e-05
323	0.01189	0.0005602	1.55e-05
323	0.05962	0.0005835	1.6e-05
323	0.10687	0.0006017	1.64e-05
323	0.16436	0.0006205	1.68e-05
323	0.2245	0.0006421	1.73e-05

System: water + calcium nitrate; phases: Liquid
Fixed: Pressure, kPa = 101.3
Property: Mass density, kg/m3 (Liquid); method: PYCNOM:UFactor:8
Temperature, K	Amount concentration (molarity), mol/dm3 of calcium nitrate	Mass density, kg/m3	uncertainty
303	0.01204	997.31	2.1
303	0.06018	1004.32	2.12
303	0.10832	1012.36	2.15
303	0.16849	1023.23	2.18
303	0.22867	1034.67	2.21
308	0.01199	995.49	2.19
308	0.06013	1001.83	2.21
308	0.10793	1009.02	2.23
308	0.16733	1018.42	2.25
308	0.22758	1029.83	2.29
313	0.01197	993.56	2.27
313	0.06007	999.51	2.29
313	0.10766	1006.26	2.31
313	0.1661	1015.81	2.34
313	0.22679	1026.69	2.37
318	0.01192	991.5	2.36
318	0.05984	997.1	2.38
318	0.10723	1003.71	2.39
318	0.16516	1012.93	2.42
318	0.22531	1023.69	2.45
323	0.01189	989.12	2.44
323	0.05962	993.63	2.46
323	0.10687	998.86	2.47
323	0.16436	1006.02	2.49
323	0.2245	1014.61	2.51
