Measured thermophysical data. Bubble-Temperature Measurements on Some Binary Mixtures Formed by Tetrahydrofuran or Amyl Alcohol with Hydrocarbons, Chlorohydrocarbons, or Butanols at (94.6 or 95.8) kPa
Source: J. Chem. Eng. Data, 2004, 10.1021/je030141r
Compound 1: trichloroethene, C2HCl3, InChI=1S/C2HCl3/c3-1-2(4)5/h1H
Compound 2: tetrachloroethene, C2Cl4, InChI=1S/C2Cl4/c3-1(4)2(5)6
Compound 3: butan-1-ol, C4H10O, InChI=1S/C4H10O/c1-2-3-4-5/h5H,2-4H2,1H3
Compound 4: 2-methyl-1-propanol, C4H10O, InChI=1S/C4H10O/c1-4(2)3-5/h4-5H,3H2,1-2H3
Compound 5: butan-2-ol, C4H10O, InChI=1S/C4H10O/c1-3-4(2)5/h4-5H,3H2,1-2H3
Compound 6: 2-methylpropan-2-ol, C4H10O, InChI=1S/C4H10O/c1-4(2,3)5/h5H,1-3H3
Compound 7: heptane, C7H16, InChI=1S/C7H16/c1-3-5-7-6-4-2/h3-7H2,1-2H3
Compound 8: cyclohexane, C6H12, InChI=1S/C6H12/c1-2-4-6-5-3-1/h1-6H2
Compound 9: butanone, C4H8O, InChI=1S/C4H8O/c1-3-4(2)5/h3H2,1-2H3
Compound 10: 2-methyl-1-butanol, C5H12O, InChI=1S/C5H12O/c1-3-5(2)4-6/h5-6H,3-4H2,1-2H3
Compound 11: tetrahydrofuran, C4H8O, InChI=1S/C4H8O/c1-2-4-5-3-1/h1-4H2
Compound 12: 1,2-dichloroethane, C2H4Cl2, InChI=1S/C2H4Cl2/c3-1-2-4/h1-2H2
Compound 13: 1,1,1-trichloroethane, C2H3Cl3, InChI=1S/C2H3Cl3/c1-2(3,4)5/h1H3
Compound 14: 1,1,2,2-tetrachloroethane, C2H2Cl4, InChI=1S/C2H2Cl4/c3-1(4)2(5)6/h1-2H

System: trichloroethene; phases: Liquid
Property: Refractive index (Na D-line) (Liquid); method: Standard Abbe refractometry
Temperature, K	Pressure, kPa	Refractive index (Na D-line)	uncertainty
298.15	101.325	1.475	0.001

System: trichloroethene; phases: Liquid
Property: Mass density, kg/m3 (Liquid); method: PYCNOM:UFactor:4
Temperature, K	Pressure, kPa	Mass density, kg/m3	uncertainty
303.15	101.325	1451.4	4.5

System: trichloroethene; phases: Liquid, Gas
Property: Vapor or sublimation pressure, kPa (Liquid); method: EBULLIO:UFactor:32
Temperature, K	Vapor or sublimation pressure, kPa	uncertainty
357.95	95.8	9.6

System: tetrachloroethene; phases: Liquid
Property: Refractive index (Na D-line) (Liquid); method: Standard Abbe refractometry
Temperature, K	Pressure, kPa	Refractive index (Na D-line)	uncertainty
298.15	101.325	1.5032	0.0012

System: tetrachloroethene; phases: Liquid
Property: Mass density, kg/m3 (Liquid); method: PYCNOM:UFactor:4
Temperature, K	Pressure, kPa	Mass density, kg/m3	uncertainty
298.15	101.325	1614.3	5

System: tetrachloroethene; phases: Liquid, Gas
Property: Vapor or sublimation pressure, kPa (Liquid); method: EBULLIO:UFactor:32
Temperature, K	Vapor or sublimation pressure, kPa	uncertainty
392.25	95.8	9.6

System: butan-1-ol; phases: Liquid
Property: Refractive index (Na D-line) (Liquid); method: Standard Abbe refractometry
Temperature, K	Pressure, kPa	Refractive index (Na D-line)	uncertainty
298.15	101.325	1.3974	0.0012

System: butan-1-ol; phases: Liquid
Property: Mass density, kg/m3 (Liquid); method: PYCNOM:UFactor:4
Temperature, K	Pressure, kPa	Mass density, kg/m3	uncertainty
298.15	101.325	805.8	2.4

System: butan-1-ol; phases: Liquid, Gas
Property: Vapor or sublimation pressure, kPa (Liquid); method: EBULLIO:UFactor:32
Temperature, K	Vapor or sublimation pressure, kPa	uncertainty
389.45	95.8	9.6

System: 2-methyl-1-propanol; phases: Liquid
Property: Refractive index (Na D-line) (Liquid); method: Standard Abbe refractometry
Temperature, K	Pressure, kPa	Refractive index (Na D-line)	uncertainty
298.15	101.325	1.3939	0.0012

System: 2-methyl-1-propanol; phases: Liquid
Property: Mass density, kg/m3 (Liquid); method: PYCNOM:UFactor:4
Temperature, K	Pressure, kPa	Mass density, kg/m3	uncertainty
298.15	101.325	798	2

System: 2-methyl-1-propanol; phases: Liquid, Gas
Property: Vapor or sublimation pressure, kPa (Liquid); method: EBULLIO:UFactor:96
Temperature, K	Vapor or sublimation pressure, kPa	uncertainty
379.65	95.8	19.3

System: butan-2-ol; phases: Liquid
Property: Refractive index (Na D-line) (Liquid); method: Standard Abbe refractometry
Temperature, K	Pressure, kPa	Refractive index (Na D-line)	uncertainty
298.15	101.325	1.3953	0.0012

System: butan-2-ol; phases: Liquid
Property: Mass density, kg/m3 (Liquid); method: PYCNOM:UFactor:4
Temperature, K	Pressure, kPa	Mass density, kg/m3	uncertainty
298.15	101.325	802.4	2.4

System: butan-2-ol; phases: Liquid, Gas
Property: Vapor or sublimation pressure, kPa (Liquid); method: EBULLIO:UFactor:32
Temperature, K	Vapor or sublimation pressure, kPa	uncertainty
371.35	95.8	9.6

System: 2-methylpropan-2-ol; phases: Liquid
Property: Refractive index (Na D-line) (Liquid); method: Standard Abbe refractometry
Temperature, K	Pressure, kPa	Refractive index (Na D-line)	uncertainty
298.15	101.325	1.385	0.001

System: 2-methylpropan-2-ol; phases: Liquid
Property: Mass density, kg/m3 (Liquid); method: PYCNOM:UFactor:4
Temperature, K	Pressure, kPa	Mass density, kg/m3	uncertainty
298.15	101.325	781.2	2.3

System: 2-methylpropan-2-ol; phases: Liquid, Gas
Property: Vapor or sublimation pressure, kPa (Liquid); method: EBULLIO:UFactor:32
Temperature, K	Vapor or sublimation pressure, kPa	uncertainty
354.15	95.8	9.6

System: heptane; phases: Liquid
Property: Refractive index (Na D-line) (Liquid); method: Standard Abbe refractometry
Temperature, K	Pressure, kPa	Refractive index (Na D-line)	uncertainty
298.15	101.325	1.3851	0.0012

System: heptane; phases: Liquid
Property: Mass density, kg/m3 (Liquid); method: PYCNOM:UFactor:4
Temperature, K	Pressure, kPa	Mass density, kg/m3	uncertainty
298.15	101.325	679.5	2

System: heptane; phases: Liquid, Gas
Property: Vapor or sublimation pressure, kPa (Liquid); method: EBULLIO:UFactor:32
Temperature, K	Vapor or sublimation pressure, kPa	uncertainty
369.35	94.6	9.5

System: cyclohexane; phases: Liquid
Property: Refractive index (Na D-line) (Liquid); method: Standard Abbe refractometry
Temperature, K	Pressure, kPa	Refractive index (Na D-line)	uncertainty
298.15	101.325	1.4235	0.0012

System: cyclohexane; phases: Liquid
Property: Mass density, kg/m3 (Liquid); method: PYCNOM:UFactor:4
Temperature, K	Pressure, kPa	Mass density, kg/m3	uncertainty
298.15	101.325	773.9	2.3

System: cyclohexane; phases: Liquid, Gas
Property: Vapor or sublimation pressure, kPa (Liquid); method: EBULLIO:UFactor:32
Temperature, K	Vapor or sublimation pressure, kPa	uncertainty
351.75	94.6	9.5

System: butanone; phases: Liquid
Property: Refractive index (Na D-line) (Liquid); method: Standard Abbe refractometry
Temperature, K	Pressure, kPa	Refractive index (Na D-line)	uncertainty
298.15	101.325	1.3769	0.0012

System: butanone; phases: Liquid
Property: Mass density, kg/m3 (Liquid); method: PYCNOM:UFactor:4
Temperature, K	Pressure, kPa	Mass density, kg/m3	uncertainty
298.15	101.325	799.7	2.4

System: butanone; phases: Liquid, Gas
Property: Vapor or sublimation pressure, kPa (Liquid); method: EBULLIO:UFactor:64
Temperature, K	Vapor or sublimation pressure, kPa	uncertainty
350.75	94.6	19

System: 2-methyl-1-butanol; phases: Liquid
Property: Refractive index (Na D-line) (Liquid); method: Standard Abbe refractometry
Temperature, K	Pressure, kPa	Refractive index (Na D-line)	uncertainty
298.15	101.325	1.4084	0.0008

System: 2-methyl-1-butanol; phases: Liquid
Property: Mass density, kg/m3 (Liquid); method: PYCNOM:UFactor:4
Temperature, K	Pressure, kPa	Mass density, kg/m3	uncertainty
298.15	101.325	815	2.5

System: 2-methyl-1-butanol; phases: Liquid, Gas
Property: Vapor or sublimation pressure, kPa (Liquid); method: EBULLIO:UFactor:64
Temperature, K	Vapor or sublimation pressure, kPa	uncertainty
400.35	95.8	9.7

System: tetrahydrofuran; phases: Liquid
Property: Refractive index (Na D-line) (Liquid); method: Standard Abbe refractometry
Temperature, K	Pressure, kPa	Refractive index (Na D-line)	uncertainty
293.15	101.325	1.4072	0.0012

System: tetrahydrofuran; phases: Liquid
Property: Mass density, kg/m3 (Liquid); method: PYCNOM:UFactor:4
Temperature, K	Pressure, kPa	Mass density, kg/m3	uncertainty
293.15	101.325	889.2	2.7

System: tetrahydrofuran; phases: Liquid, Gas
Property: Vapor or sublimation pressure, kPa (Liquid); method: EBULLIO:UFactor:32
Temperature, K	Vapor or sublimation pressure, kPa	uncertainty
337.15	94.6	9.5
337.55	95.8	9.6

System: 1,2-dichloroethane; phases: Liquid
Property: Refractive index (Na D-line) (Liquid); method: Standard Abbe refractometry
Temperature, K	Pressure, kPa	Refractive index (Na D-line)	uncertainty
298.15	101.325	1.4421	0.0012

System: 1,2-dichloroethane; phases: Liquid
Property: Mass density, kg/m3 (Liquid); method: PYCNOM:UFactor:4
Temperature, K	Pressure, kPa	Mass density, kg/m3	uncertainty
298.15	101.325	1246.4	3.8

System: 1,2-dichloroethane; phases: Liquid, Gas
Property: Vapor or sublimation pressure, kPa (Liquid); method: EBULLIO:UFactor:32
Temperature, K	Vapor or sublimation pressure, kPa	uncertainty
355.25	95.8	9.6

System: 1,1,1-trichloroethane; phases: Liquid
Property: Refractive index (Na D-line) (Liquid); method: Standard Abbe refractometry
Temperature, K	Pressure, kPa	Refractive index (Na D-line)	uncertainty
298.15	101.325	1.4359	0.0012

System: 1,1,1-trichloroethane; phases: Liquid
Property: Mass density, kg/m3 (Liquid); method: PYCNOM:UFactor:4
Temperature, K	Pressure, kPa	Mass density, kg/m3	uncertainty
298.15	101.325	1329.9	4.1

System: 1,1,1-trichloroethane; phases: Liquid, Gas
Property: Vapor or sublimation pressure, kPa (Liquid); method: EBULLIO:UFactor:32
Temperature, K	Vapor or sublimation pressure, kPa	uncertainty
345.65	95.8	9.6

System: 1,1,2,2-tetrachloroethane; phases: Liquid
Property: Refractive index (Na D-line) (Liquid); method: Standard Abbe refractometry
Temperature, K	Pressure, kPa	Refractive index (Na D-line)	uncertainty
298.15	101.325	1.4914	0.0012

System: 1,1,2,2-tetrachloroethane; phases: Liquid
Property: Mass density, kg/m3 (Liquid); method: PYCNOM:UFactor:4
Temperature, K	Pressure, kPa	Mass density, kg/m3	uncertainty
298.15	101.325	1586.7	4.9

System: 1,1,2,2-tetrachloroethane; phases: Liquid, Gas
Property: Vapor or sublimation pressure, kPa (Liquid); method: EBULLIO:UFactor:64
Temperature, K	Vapor or sublimation pressure, kPa	uncertainty
417.35	95.8	9.7
417.45	95.8	9.7

System: tetrahydrofuran + cyclohexane; phases: Liquid, Gas
Fixed: Pressure, kPa = 94.6
Property: Boiling temperature at pressure P, K (Liquid); method: EBULLIO:UFactor:32
Mole fraction of tetrahydrofuran	Boiling temperature at pressure P, K	uncertainty
0	351.75	1.32
0.2103	345.65	1.32
0.399	341.85	1.32
0.6313	338.65	1.32
0.7998	337.45	1.32
1	337.15	1.32

System: butanone + tetrahydrofuran; phases: Liquid, Gas
Fixed: Pressure, kPa = 94.6
Property: Boiling temperature at pressure P, K (Liquid); method: EBULLIO:UFactor:64
Mole fraction of tetrahydrofuran	Boiling temperature at pressure P, K	uncertainty
0	350.75	2.63
0.181	346.05	2.63
0.3985	344.35	2.63
0.612	341.75	2.63
0.8466	338.95	2.63
1	337.15	2.63

System: 1,2-dichloroethane + tetrahydrofuran; phases: Liquid, Gas
Fixed: Pressure, kPa = 95.8
Property: Boiling temperature at pressure P, K (Liquid); method: EBULLIO:UFactor:32
Mole fraction of tetrahydrofuran	Boiling temperature at pressure P, K	uncertainty
0	355.25	1.31
0.1024	354.35	1.31
0.2181	352.95	1.31
0.2949	351.95	1.31
0.4108	350.05	1.31
0.4939	348.45	1.31
0.6507	344.85	1.31
0.7736	342.25	1.31
0.8723	339.95	1.31
1	337.55	1.31

System: 1,1,1-trichloroethane + tetrahydrofuran; phases: Liquid, Gas
Fixed: Pressure, kPa = 95.8
Property: Boiling temperature at pressure P, K (Liquid); method: EBULLIO:UFactor:32
Mole fraction of tetrahydrofuran	Boiling temperature at pressure P, K	uncertainty
0	345.65	1.31
0.1512	344.95	1.31
0.3498	343.85	1.31
0.4177	343.35	1.31
0.4728	342.85	1.31
0.6374	341.45	1.31
0.7455	340.35	1.31
0.8978	338.65	1.31
1	337.55	1.31

System: 1,1,2,2-tetrachloroethane + tetrahydrofuran; phases: Liquid, Gas
Fixed: Pressure, kPa = 95.8
Property: Boiling temperature at pressure P, K (Liquid); method: EBULLIO:UFactor:64
Mole fraction of tetrahydrofuran	Boiling temperature at pressure P, K	uncertainty
0	417.45	2.62
0.1565	406.55	2.62
0.3576	390.45	2.62
0.4812	379.65	2.62
0.6024	368.75	2.62
0.6944	360.35	2.62
0.8197	349.55	2.62
0.9009	342.15	2.62
1	337.55	2.62

System: trichloroethene + tetrahydrofuran; phases: Liquid, Gas
Fixed: Pressure, kPa = 95.8
Property: Boiling temperature at pressure P, K (Liquid); method: EBULLIO:UFactor:32
Mole fraction of tetrahydrofuran	Boiling temperature at pressure P, K	uncertainty
0	357.95	1.31
0.1367	356.55	1.31
0.322	353.25	1.31
0.448	350.55	1.31
0.608	346.65	1.31
0.7211	343.85	1.31
0.795	342.05	1.31
0.8858	339.75	1.31
1	337.55	1.31

System: tetrahydrofuran + heptane; phases: Liquid, Gas
Fixed: Pressure, kPa = 94.6
Property: Boiling temperature at pressure P, K (Liquid); method: EBULLIO:UFactor:32
Mole fraction of tetrahydrofuran	Boiling temperature at pressure P, K	uncertainty
0	369.35	1.32
0.1411	362.05	1.32
0.3301	354.05	1.32
0.4508	349.95	1.32
0.6002	345.35	1.32
0.7831	340.95	1.32
0.9002	338.75	1.32
1	337.15	1.32

System: tetrahydrofuran + tetrachloroethene; phases: Liquid, Gas
Fixed: Pressure, kPa = 95.8
Property: Boiling temperature at pressure P, K (Liquid); method: EBULLIO:UFactor:32
Mole fraction of tetrahydrofuran	Boiling temperature at pressure P, K	uncertainty
0	392.25	1.31
0.1521	378.65	1.31
0.265	370.25	1.31
0.357	364.15	1.31
0.4741	357.45	1.31
0.5955	351.55	1.31
0.6883	347.65	1.31
0.8154	342.95	1.31
1	337.55	1.31

System: butan-1-ol + tetrahydrofuran; phases: Liquid, Gas
Fixed: Pressure, kPa = 95.8
Property: Boiling temperature at pressure P, K (Liquid); method: EBULLIO:UFactor:32
Mole fraction of tetrahydrofuran	Boiling temperature at pressure P, K	uncertainty
0	389.45	1.31
0.1338	370.65	1.31
0.2436	360.45	1.31
0.3257	354.75	1.31
0.3918	350.95	1.31
0.446	348.25	1.31
0.4914	346.35	1.31
0.6123	342.15	1.31
0.6637	340.75	1.31
0.7247	339.35	1.31
0.8206	337.95	1.31
0.8876	337.25	1.31
1	337.55	1.31

System: 2-methyl-1-propanol + tetrahydrofuran; phases: Liquid, Gas
Fixed: Pressure, kPa = 95.8
Property: Boiling temperature at pressure P, K (Liquid); method: EBULLIO:UFactor:96
Mole fraction of tetrahydrofuran	Boiling temperature at pressure P, K	uncertainty
0	379.65	3.92
0.1367	373.15	3.92
0.2456	367.85	3.92
0.3281	360.95	3.92
0.3943	358.45	3.92
0.4487	356.45	3.92
0.4941	353.05	3.92
0.6147	351.25	3.92
0.666	349.15	3.92
0.7995	343.95	3.92
0.8886	340.85	3.92
1	337.55	3.92

System: butan-2-ol + tetrahydrofuran; phases: Liquid, Gas
Fixed: Pressure, kPa = 95.8
Property: Boiling temperature at pressure P, K (Liquid); method: EBULLIO:UFactor:32
Mole fraction of tetrahydrofuran	Boiling temperature at pressure P, K	uncertainty
0	371.35	1.31
0.1072	366.45	1.31
0.1847	363.15	1.31
0.2536	360.45	1.31
0.3615	356.25	1.31
0.5047	351.25	1.31
0.6132	347.85	1.31
0.7257	344.65	1.31
0.7984	342.65	1.31
0.888	340.35	1.31
1	337.55	1.31

System: 2-methylpropan-2-ol + tetrahydrofuran; phases: Liquid, Gas
Fixed: Pressure, kPa = 95.8
Property: Boiling temperature at pressure P, K (Liquid); method: EBULLIO:UFactor:32
Mole fraction of tetrahydrofuran	Boiling temperature at pressure P, K	uncertainty
0	354.15	1.31
0.1423	351.75	1.31
0.2491	349.95	1.31
0.3323	348.55	1.31
0.4534	346.45	1.31
0.5753	344.45	1.31
0.6702	342.85	1.31
0.8904	339.25	1.31
1	337.55	1.31

System: 1,2-dichloroethane + 2-methyl-1-butanol; phases: Liquid, Gas
Fixed: Pressure, kPa = 95.8
Property: Boiling temperature at pressure P, K (Liquid); method: EBULLIO:UFactor:64
Mole fraction of 1,2-dichloroethane	Boiling temperature at pressure P, K	uncertainty
0	400.35	2.62
0.1626	384.35	2.62
0.2798	377.95	2.62
0.4372	371.25	2.62
0.6133	365.55	2.62
0.7041	362.85	2.62
0.8263	359.65	2.62
0.9049	357.65	2.62
1	355.25	2.62

System: 1,1,1-trichloroethane + 2-methyl-1-butanol; phases: Liquid, Gas
Fixed: Pressure, kPa = 95.8
Property: Boiling temperature at pressure P, K (Liquid); method: EBULLIO:UFactor:64
Mole fraction of 1,1,1-trichloroethane	Boiling temperature at pressure P, K	uncertainty
0	400.35	2.62
0.1745	374.05	2.62
0.2971	364.85	2.62
0.4581	357.45	2.62
0.5376	354.95	2.62
0.6379	352.55	2.62
0.7854	349.65	2.62
0.8409	348.65	2.62
1	345.65	2.62

System: 1,1,2,2-tetrachloroethane + 2-methyl-1-butanol; phases: Liquid, Gas
Fixed: Pressure, kPa = 95.8
Property: Boiling temperature at pressure P, K (Liquid); method: EBULLIO:UFactor:64
Mole fraction of 2-methyl-1-butanol	Boiling temperature at pressure P, K	uncertainty
0	417.35	2.62
0.1052	412.35	2.62
0.2278	407.85	2.62
0.3199	405.15	2.62
0.4137	402.95	2.62
0.7976	397.65	2.62
0.8546	397.45	2.62
0.9216	397.45	2.62
1	400.35	2.62
