Measured thermophysical data. Vapor Pressures of 1,1,1,3,3-Pentafluoropropane (HFC-245fa) and 1,1,1,2,3,3,3-Heptafluoropropane (HFC-227ea)
Source: J. Chem. Eng. Data, 2004, 10.1021/je0342769
Compound 1: 1,1,1,2,3,3,3-heptafluoropropane, C3HF7, InChI=1S/C3HF7/c4-1(2(5,6)7)3(8,9)10/h1H, purity 99.9%
Compound 2: 1,1,1,3,3-pentafluoropropane, C3H3F5, InChI=1S/C3H3F5/c4-2(5)1-3(6,7)8/h2H,1H2, purity 99.8%

System: 1,1,1,2,3,3,3-heptafluoropropane; phases: Liquid, Gas
Property: Vapor or sublimation pressure, kPa (Liquid); method: Closed cell (Static) method
Temperature, K	Vapor or sublimation pressure, kPa	uncertainty
253.308	86.81	0.56
253.316	86.83	0.56
253.333	86.86	0.56
255.212	94.46	0.56
257.257	103.23	0.57
257.263	103.26	0.57
259.592	114.05	0.57
261.28	122.37	0.58
263.26	132.72	0.58
265.171	143.42	0.83
267.151	155.12	0.83
267.155	155.14	0.83
269.187	167.93	0.84
271.142	181.01	0.85
273.131	195.16	0.85
273.144	195.21	0.85
273.158	195.29	0.85
275.154	210.31	0.86
275.166	210.44	0.86
275.176	210.49	0.86
276.994	224.91	0.87
279.185	243.27	0.88
281.143	260.66	0.89
283.177	279.74	0.9
285.181	299.49	0.91
285.192	299.62	0.91
287.137	319.89	0.93
289.069	340.97	0.94
289.104	341.37	0.95
291.06	363.71	0.96
291.16	365.01	0.96
293.041	387.68	0.98
293.15	388.98	0.98
293.23	390.05	0.98
295.218	415.24	1.01
295.324	416.61	1.01
297.212	441.61	1.03
297.22	441.76	1.03
299.068	467.46	1.05
299.162	468.9	1.05
301.537	503.72	1.09
303.663	536.19	1.12
305.189	560.59	1.14
307.191	593.83	1.18
309.512	634.38	1.22
311.16	664.23	1.25
313.13	701.36	1.3
315.109	740.37	1.34
317.152	781.99	1.39
317.497	789.45	1.4
319.507	832.46	1.45
321.16	869.25	1.49
323.135	914.73	1.55
323.173	915.9	1.55
325.108	962.18	1.61
329.166	1065.42	1.74
333.692	1190.13	1.9
339.169	1355.77	2.14
344.87	1545.33	2.43
349.816	1725.8	2.71
353.217	1859.33	2.92
357.129	2022.59	3.18
361.124	2201.09	3.45
364.88	2380.95	3.74
369.164	2600.04	4.08
373.218	2825.1	4.43
373.22	2825.21	4.43
373.222	2825.26	4.43

System: 1,1,1,3,3-pentafluoropropane; phases: Liquid, Gas
Property: Vapor or sublimation pressure, kPa (Liquid); method: Closed cell (Static) method
Temperature, K	Vapor or sublimation pressure, kPa	uncertainty
255.215	21.93	0.39
255.217	21.93	0.39
259.365	27.28	0.39
259.366	27.27	0.39
259.369	27.28	0.39
263.272	33.25	0.39
263.275	33.25	0.39
263.275	33.24	0.39
267.308	40.47	0.39
267.309	40.47	0.39
267.31	40.47	0.39
271.03	48.26	0.4
271.031	48.26	0.4
275.31	58.66	0.4
275.312	58.66	0.4
275.314	58.66	0.4
279.325	69.99	0.4
279.325	69.98	0.4
279.326	69.98	0.4
279.327	69.99	0.4
283.202	82.37	0.41
283.204	82.36	0.41
283.205	82.37	0.41
285.076	89.02	0.41
285.08	89.02	0.41
285.083	89.05	0.41
288.909	103.68	0.42
288.91	103.68	0.42
288.911	103.67	0.42
291.163	113.41	0.43
291.163	113.43	0.43
291.165	113.42	0.43
292.62	119.97	0.43
292.623	120.01	0.43
295.55	134.37	0.45
295.55	134.41	0.45
295.553	134.41	0.45
298.31	149.04	0.46
298.312	149.05	0.46
298.314	149.05	0.46
300.159	159.38	0.47
313.126	250.2	0.54
313.128	250.26	0.54
313.13	250.34	0.54
317.43	287.67	0.58
317.43	287.72	0.58
317.431	287.84	0.58
321.769	329.9	0.63
321.77	329.87	0.63
321.77	329.9	0.63
327.34	390.52	0.7
327.342	390.61	0.7
333.546	467.79	0.79
344.962	639.43	1.01
347.8	688.83	1.09
347.801	688.9	1.09
351.538	757.91	1.2
351.538	757.93	1.2
351.539	757.86	1.2
351.541	757.93	1.2
354.126	808.71	1.28
354.147	809.38	1.28
357.697	883.2	1.4
362.208	984.31	1.55
362.209	984.35	1.55
364.467	1038.25	1.64
364.467	1038.23	1.64
367.101	1103.6	1.74
367.105	1103.63	1.74
371.113	1209.27	1.9
371.12	1209.32	1.9
374.811	1313.06	2.07
374.813	1313.09	2.06
374.95	1317.35	2.07
377.034	1378.94	2.17
381.377	1514.26	2.38
384.5	1617.36	2.54
388.32	1751.25	2.75
393.643	1950.82	3.06
