Measured thermophysical data. Isothermal Vapor Liquid Equilibrium for Binary 2-Methylpropene - C1-C4 Alcohol-Systems
Source: J. Chem. Eng. Data, 2004, 10.1021/je034136z
Compound 1: 2-methylpropene, C4H8, InChI=1S/C4H8/c1-4(2)3/h1H2,2-3H3, purity 99.8%
Compound 2: methanol, CH4O, InChI=1S/CH4O/c1-2/h2H,1H3, purity 99.8%
Compound 3: ethanol, C2H6O, InChI=1S/C2H6O/c1-2-3/h3H,2H2,1H3, purity 99.5%
Compound 4: propan-2-ol, C3H8O, InChI=1S/C3H8O/c1-3(2)4/h3-4H,1-2H3, purity 99.8%
Compound 5: butan-2-ol, C4H10O, InChI=1S/C4H10O/c1-3-4(2)5/h4-5H,3H2,1-2H3, purity 99.8%
Compound 6: 2-methylpropan-2-ol, C4H10O, InChI=1S/C4H10O/c1-4(2,3)5/h5H,1-3H3, purity 99.7%

System: 2-methylpropene; phases: Liquid, Gas
Property: Vapor or sublimation pressure, kPa (Liquid); method: CCELL:UFactor:2
Temperature, K	Vapor or sublimation pressure, kPa	uncertainty
322.79	605.14	2.02
323.11	608.94	2.03
323.14	608.84	2.01
323.14	609.14	2.03
323.15	611.04	2.15

System: methanol; phases: Liquid, Gas
Property: Vapor or sublimation pressure, kPa (Liquid); method: CCELL:UFactor:2
Temperature, K	Vapor or sublimation pressure, kPa	uncertainty
323.14	55.57	0.41

System: ethanol; phases: Liquid, Gas
Property: Vapor or sublimation pressure, kPa (Liquid); method: CCELL:UFactor:2
Temperature, K	Vapor or sublimation pressure, kPa	uncertainty
323.17	29.27	0.36

System: propan-2-ol; phases: Liquid, Gas
Property: Vapor or sublimation pressure, kPa (Liquid); method: CCELL:UFactor:2
Temperature, K	Vapor or sublimation pressure, kPa	uncertainty
323.16	23.47	0.35

System: butan-2-ol; phases: Liquid, Gas
Property: Vapor or sublimation pressure, kPa (Liquid); method: CCELL:UFactor:2
Temperature, K	Vapor or sublimation pressure, kPa	uncertainty
323.11	10.57	0.34

System: 2-methylpropan-2-ol; phases: Liquid, Gas
Property: Vapor or sublimation pressure, kPa (Liquid); method: CCELL:UFactor:2
Temperature, K	Vapor or sublimation pressure, kPa	uncertainty
322.78	23.07	0.35

System: methanol + 2-methylpropene; phases: Liquid, Gas
Property: Azeotropic composition: mole fraction of 2-methylpropene (Liquid); method: By X=Y
Temperature, K	Azeotropic composition: mole fraction of 2-methylpropene	uncertainty
323.14	0.941	0.002

System: methanol + 2-methylpropene; phases: Liquid, Gas
Property: Azeotropic composition: mole fraction of 2-methylpropene (Liquid); method: By X=Y
Pressure, kPa	Azeotropic composition: mole fraction of 2-methylpropene	uncertainty
623.1	0.941	0.002

System: methanol + 2-methylpropene; phases: Liquid, Gas
Property: Vapor or sublimation pressure, kPa (Liquid); method: CCELL:UFactor:2
Temperature, K	Mole fraction of 2-methylpropene	Vapor or sublimation pressure, kPa	uncertainty
323.13	0.0309	180.06	1.27
323.13	0.4024	581.74	4.04
323.13	0.4515	590.04	4.1
323.13	0.5008	596.34	4.14
323.13	0.5501	601.34	4.17
323.13	0.5995	605.34	4.2
323.13	0.7485	615.04	4.27
323.13	0.7975	618.04	4.29
323.14	0	55.57	0.51
323.14	0.0503	242.86	1.7
323.14	0.4005	581.94	4.04
323.14	0.6488	608.84	4.23
323.14	0.6982	612.04	4.25
323.14	0.8473	621.04	4.31
323.14	0.8967	623.94	4.33
323.14	0.9468	625.94	4.34
323.14	1	608.84	4.23
323.15	0.0971	357.26	2.49
323.15	0.1452	435.95	3.03
323.15	0.2469	527.85	3.67
323.15	0.2981	552.64	3.84
323.15	0.3493	569.84	3.96
323.15	0.9853	619.44	4.3
323.16	0.1956	490.75	3.41

System: ethanol + 2-methylpropene; phases: Liquid, Gas
Property: Vapor or sublimation pressure, kPa (Liquid); method: CCELL:UFactor:2
Temperature, K	Mole fraction of 2-methylpropene	Vapor or sublimation pressure, kPa	uncertainty
323.13	0.5468	550.94	3.84
323.13	0.6979	572.54	3.98
323.13	0.8006	585.14	4.07
323.13	0.9531	605.04	4.2
323.13	0.9738	608.04	4.22
323.14	0.3984	511.45	3.57
323.14	0.4474	526.95	3.68
323.14	0.4971	539.65	3.76
323.14	0.5972	558.34	3.89
323.14	0.6475	565.84	3.94
323.14	0.7484	578.84	4.03
323.14	0.8516	591.44	4.11
323.14	0.9035	598.14	4.16
323.15	1	611.04	4.24
323.17	0	29.27	0.4
323.2	0.0353	120.27	0.87
323.2	0.0538	161.37	1.15
323.2	0.3998	514.15	3.59
323.21	0.1002	249.96	1.76
323.21	0.148	321.96	2.26
323.21	0.1974	380.45	2.67
323.21	0.2474	426.55	2.99
323.21	0.2983	462.95	3.24
323.21	0.3488	491.35	3.43

System: propan-2-ol + 2-methylpropene; phases: Liquid, Gas
Property: Vapor or sublimation pressure, kPa (Liquid); method: CCELL:UFactor:2
Temperature, K	Mole fraction of 2-methylpropene	Vapor or sublimation pressure, kPa	uncertainty
323.13	0.4493	469.95	3.27
323.13	0.4983	487.15	3.39
323.13	0.5964	515.95	3.59
323.13	0.6458	528.35	3.67
323.13	0.6954	539.95	3.75
323.13	0.7461	551.04	3.83
323.14	0.7943	561.24	3.9
323.14	0.8441	571.64	3.97
323.14	0.8945	582.04	4.04
323.14	0.9447	593.04	4.12
323.14	1	609.14	4.23
323.15	0.0414	101.27	0.76
323.15	0.1531	260.96	1.83
323.15	0.9862	604.44	4.2
323.16	0	23.47	0.38
323.16	0.0653	141.17	1
323.16	0.1065	202.26	1.42
323.16	0.2015	311.96	2.18
323.16	0.25	354.46	2.47
323.16	0.2993	390.45	2.72
323.16	0.349	420.65	2.93
323.16	0.3983	445.85	3.1
323.16	0.4491	467.65	3.25
323.16	0.5092	489.45	3.4
323.16	0.5502	501.15	3.48

System: butan-2-ol + 2-methylpropene; phases: Liquid, Gas
Property: Vapor or sublimation pressure, kPa (Liquid); method: CCELL:UFactor:2
Temperature, K	Mole fraction of 2-methylpropene	Vapor or sublimation pressure, kPa	uncertainty
323.09	0.2507	305.06	2.13
323.09	0.3	341.86	2.39
323.09	0.3507	374.55	2.61
323.09	0.4512	427.55	2.98
323.1	0.0578	98.07	0.74
323.1	0.1529	214.36	1.51
323.1	0.2013	262.46	1.84
323.1	0.4016	403.15	2.81
323.1	0.4877	443.75	3.09
323.1	0.5013	449.45	3.13
323.11	0	10.57	0.35
323.11	0.0402	72.87	0.6
323.11	0.1049	159.57	1.13
323.11	0.7455	529.75	3.68
323.11	0.7966	543.35	3.78
323.11	0.8466	556.24	3.86
323.11	0.8978	569.84	3.96
323.11	0.9925	604.24	4.19
323.11	1	608.94	4.23
323.12	0.5259	459.75	3.2
323.12	0.5475	467.85	3.25
323.12	0.597	485.25	3.37
323.12	0.6465	501.15	3.48
323.12	0.6961	515.95	3.59
323.12	0.9524	586.44	4.07

System: 2-methylpropan-2-ol + 2-methylpropene; phases: Liquid, Gas
Property: Vapor or sublimation pressure, kPa (Liquid); method: CCELL:UFactor:2
Temperature, K	Mole fraction of 2-methylpropene	Vapor or sublimation pressure, kPa	uncertainty
313.12	0.2947	250.96	1.64
313.12	0.3478	278.36	1.82
313.12	0.3998	302.46	1.97
313.12	0.4519	324.36	2.11
313.12	0.4729	332.56	2.17
313.12	0.4902	339.16	2.21
313.12	0.5038	344.26	2.24
313.12	0.5472	358.46	2.34
313.12	0.9885	465.15	3.04
313.12	1	469.75	3.06
313.13	0	13.77	0.36
313.13	0.0132	28.87	0.4
313.13	0.0371	55.07	0.49
313.13	0.0866	103.47	0.73
313.13	0.1368	146.57	0.98
313.13	0.1898	186.16	1.23
313.13	0.2423	220.56	1.45
313.13	0.4983	342.66	2.23
313.13	0.5966	373.25	2.43
313.13	0.6464	386.95	2.52
313.13	0.6964	399.75	2.6
313.13	0.7473	411.75	2.68
313.13	0.7976	422.85	2.76
313.13	0.8484	433.45	2.83
313.13	0.8987	443.65	2.89
313.13	0.9483	454.15	2.96
322.75	0.5516	454.35	2.91
322.75	0.6	473.55	3.04
322.75	0.6485	491.45	3.15
322.76	0.7508	525.35	3.37
322.76	0.7999	540.05	3.46
322.76	0.8508	554.54	3.56
322.76	0.9008	568.84	3.65
322.77	0.0286	62.57	0.53
322.77	0.3396	345.96	2.23
322.77	0.3916	376.85	2.42
322.77	0.4419	403.95	2.6
322.77	0.4933	429.05	2.75
322.77	0.5028	433.25	2.78
322.77	0.535	447.85	2.88
322.77	0.6974	508.15	3.26
322.77	0.9517	584.64	3.75
322.78	0	23.07	0.38
322.78	0.039	76.17	0.58
322.78	0.2423	278.06	1.79
322.78	0.2915	314.16	2.02
322.78	0.9917	600.74	3.85
322.79	0.0887	134.87	0.89
322.79	0.1389	187.56	1.22
322.79	0.1871	232.56	1.51
322.79	1	605.14	3.88
