Measured thermophysical data. Densities, Viscosities, and Thermodynamic Properties of (N,N-Dimethylformamide + Benzene + Chlorobenzene) Ternary Mixtures at (298.15, 303.15, 308.15, and 313.15) K
Source: J. Chem. Eng. Data, 2003, 10.1021/je030130y
Compound 1: dimethylformamide, C3H7NO, InChI=1S/C3H7NO/c1-4(2)3-5/h3H,1-2H3
Compound 2: benzene, C6H6, InChI=1S/C6H6/c1-2-4-6-5-3-1/h1-6H
Compound 3: chlorobenzene, C6H5Cl, InChI=1S/C6H5Cl/c7-6-4-2-1-3-5-6/h1-5H

System: dimethylformamide; phases: Liquid
Fixed: Pressure, kPa = 101.3
Property: Viscosity, Pa*s (Liquid); method: Capillary tube (Ostwald; Ubbelohde) method
Temperature, K	Viscosity, Pa*s	uncertainty
298.15	0.000803	6e-06
303.15	0.000756	6e-06
308.15	0.00071	5e-06
313.15	0.000673	5e-06

System: dimethylformamide; phases: Liquid
Fixed: Pressure, kPa = 101.3
Property: Mass density, kg/m3 (Liquid); method: Pycnometric method
Temperature, K	Mass density, kg/m3	uncertainty
298.15	944.5	0.3
303.15	939.8	0.3
308.15	935.1	0.3
313.15	930.2	0.4

System: benzene; phases: Liquid
Fixed: Pressure, kPa = 101.3
Property: Viscosity, Pa*s (Liquid); method: Capillary tube (Ostwald; Ubbelohde) method
Temperature, K	Viscosity, Pa*s	uncertainty
298.15	0.000603	6e-06
303.15	0.000568	5e-06
308.15	0.000531	5e-06
313.15	0.0005	5e-06

System: benzene; phases: Liquid
Fixed: Pressure, kPa = 101.3
Property: Mass density, kg/m3 (Liquid); method: Pycnometric method
Temperature, K	Mass density, kg/m3	uncertainty
298.15	873.4	0.5
303.15	868.2	0.5
308.15	862.9	0.5
313.15	857.4	0.5

System: chlorobenzene; phases: Liquid
Fixed: Pressure, kPa = 101.3
Property: Viscosity, Pa*s (Liquid); method: Capillary tube (Ostwald; Ubbelohde) method
Temperature, K	Viscosity, Pa*s	uncertainty
298.15	0.000756	6e-06
303.15	0.000714	6e-06
308.15	0.000673	5e-06
313.15	0.000635	5e-06

System: chlorobenzene; phases: Liquid
Fixed: Pressure, kPa = 101.3
Property: Mass density, kg/m3 (Liquid); method: Pycnometric method
Temperature, K	Mass density, kg/m3	uncertainty
298.15	1100.9	0.4
303.15	1095.8	0.4
308.15	1090.8	0.4
313.15	1085.1	0.4

System: dimethylformamide + chlorobenzene; phases: Liquid
Fixed: Pressure, kPa = 101.3
Property: Viscosity, Pa*s (Liquid); method: Capillary tube (Ostwald; Ubbelohde) method
Temperature, K	Mole fraction of dimethylformamide	Viscosity, Pa*s	uncertainty
298.15	0	0.000756	6e-06
298.15	0.1473	0.00079	6e-06
298.15	0.2093	0.000804	6e-06
298.15	0.2762	0.000818	6e-06
298.15	0.4032	0.000838	6e-06
298.15	0.4661	0.000847	6e-06
298.15	0.6084	0.000862	6e-06
298.15	0.7009	0.000856	6e-06
298.15	0.7842	0.000846	6e-06
298.15	0.9351	0.000818	6e-06
298.15	1	0.000803	6e-06
303.15	0	0.000714	6e-06
303.15	0.1473	0.000745	6e-06
303.15	0.2093	0.000757	6e-06
303.15	0.2762	0.00077	6e-06
303.15	0.4032	0.000788	6e-06
303.15	0.4661	0.000795	6e-06
303.15	0.6084	0.000808	6e-06
303.15	0.7009	0.000803	6e-06
303.15	0.7842	0.000794	6e-06
303.15	0.9351	0.000769	6e-06
303.15	1	0.000756	6e-06
308.15	0	0.000673	5e-06
308.15	0.1473	0.000701	5e-06
308.15	0.2093	0.000712	6e-06
308.15	0.2762	0.000723	6e-06
308.15	0.4032	0.000739	6e-06
308.15	0.4661	0.000745	6e-06
308.15	0.6084	0.000757	6e-06
308.15	0.7009	0.000752	6e-06
308.15	0.7842	0.000744	6e-06
308.15	0.9351	0.000721	6e-06
308.15	1	0.00071	5e-06
313.15	0	0.000635	5e-06
313.15	0.1473	0.000661	5e-06
313.15	0.2093	0.000671	5e-06
313.15	0.2762	0.000681	5e-06
313.15	0.4032	0.000696	5e-06
313.15	0.4661	0.000702	5e-06
313.15	0.6084	0.000714	6e-06
313.15	0.7009	0.000709	5e-06
313.15	0.7842	0.000702	5e-06
313.15	0.9351	0.000683	5e-06
313.15	1	0.000673	5e-06

System: dimethylformamide + chlorobenzene; phases: Liquid
Fixed: Pressure, kPa = 101.3
Property: Mass density, kg/m3 (Liquid); method: Pycnometric method
Temperature, K	Mole fraction of dimethylformamide	Mass density, kg/m3	uncertainty
298.15	0	1100.9	0.4
298.15	0.1473	1083.5	0.4
298.15	0.2093	1076.3	0.4
298.15	0.2762	1068.1	0.4
298.15	0.4032	1051.2	0.4
298.15	0.4661	1042.2	0.4
298.15	0.6084	1020.2	0.4
298.15	0.7009	1003.8	0.4
298.15	0.7842	988.1	0.4
298.15	0.9351	957.7	0.3
298.15	1	944.5	0.3
303.15	0	1095.8	0.4
303.15	0.1473	1078.5	0.4
303.15	0.2093	1071.3	0.4
303.15	0.2762	1063.2	0.4
303.15	0.4032	1046.3	0.4
303.15	0.4661	1037.3	0.4
303.15	0.6084	1015.4	0.4
303.15	0.7009	999.1	0.4
303.15	0.7842	983.4	0.4
303.15	0.9351	953	0.3
303.15	1	939.8	0.3
308.15	0	1090.8	0.4
308.15	0.1473	1073.6	0.4
308.15	0.2093	1066.5	0.4
308.15	0.2762	1058.3	0.4
308.15	0.4032	1041.5	0.4
308.15	0.4661	1032.5	0.4
308.15	0.6084	1010.6	0.4
308.15	0.7009	994.5	0.4
308.15	0.7842	978.7	0.4
308.15	0.9351	948.3	0.4
308.15	1	935.1	0.3
313.15	0	1085.1	0.4
313.15	0.1473	1068.1	0.4
313.15	0.2093	1063.1	4
313.15	0.2762	1052.9	0.4
313.15	0.4032	1036.3	0.4
313.15	0.4661	1027.2	0.4
313.15	0.6084	1005.4	0.4
313.15	0.7009	989.4	0.4
313.15	0.7842	973.7	0.4
313.15	0.9351	943.4	0.4
313.15	1	930.2	0.4

System: dimethylformamide + benzene; phases: Liquid
Fixed: Pressure, kPa = 101.3
Property: Viscosity, Pa*s (Liquid); method: Capillary tube (Ostwald; Ubbelohde) method
Temperature, K	Mole fraction of dimethylformamide	Viscosity, Pa*s	uncertainty
298.15	0	0.000603	6e-06
298.15	0.1076	0.000622	6e-06
298.15	0.2069	0.000641	6e-06
298.15	0.3124	0.000662	6e-06
298.15	0.4132	0.000688	6e-06
298.15	0.5148	0.000712	6e-06
298.15	0.6145	0.000731	6e-06
298.15	0.7093	0.000747	6e-06
298.15	0.8084	0.000763	6e-06
298.15	0.8998	0.00078	6e-06
298.15	1	0.000803	6e-06
303.15	0	0.000568	5e-06
303.15	0.1076	0.000585	5e-06
303.15	0.2069	0.000603	5e-06
303.15	0.3124	0.000622	6e-06
303.15	0.4132	0.000645	6e-06
303.15	0.5148	0.00067	6e-06
303.15	0.6145	0.000688	6e-06
303.15	0.7093	0.000703	6e-06
303.15	0.8084	0.000718	6e-06
303.15	0.8998	0.000734	6e-06
303.15	1	0.000756	6e-06
308.15	0	0.000531	5e-06
308.15	0.1076	0.000547	5e-06
308.15	0.2069	0.000564	5e-06
308.15	0.3124	0.000582	5e-06
308.15	0.4132	0.000602	5e-06
308.15	0.5148	0.000627	5e-06
308.15	0.6145	0.000644	5e-06
308.15	0.7093	0.000659	5e-06
308.15	0.8084	0.000673	5e-06
308.15	0.8998	0.000689	5e-06
308.15	1	0.00071	5e-06
313.15	0	0.0005	5e-06
313.15	0.1076	0.000515	5e-06
313.15	0.2069	0.000531	5e-06
313.15	0.3124	0.000549	5e-06
313.15	0.4132	0.000567	5e-06
313.15	0.5148	0.000592	5e-06
313.15	0.6145	0.000608	5e-06
313.15	0.7093	0.000622	5e-06
313.15	0.8084	0.000636	5e-06
313.15	0.8998	0.000651	5e-06
313.15	1	0.000673	5e-06

System: dimethylformamide + benzene; phases: Liquid
Fixed: Pressure, kPa = 101.3
Property: Mass density, kg/m3 (Liquid); method: Pycnometric method
Temperature, K	Mole fraction of dimethylformamide	Mass density, kg/m3	uncertainty
298.15	0	873.4	0.5
298.15	0.1076	881.1	0.5
298.15	0.2069	888.4	0.5
298.15	0.3124	896.3	0.4
298.15	0.4132	904.2	0.4
298.15	0.5148	911.7	0.4
298.15	0.6145	918.6	0.4
298.15	0.7093	925	0.4
298.15	0.8084	931.6	0.4
298.15	0.8998	936.8	0.4
298.15	1	944.5	0.3
303.15	0	868.2	0.5
303.15	0.1076	876	0.5
303.15	0.2069	883.5	0.5
303.15	0.3124	891.4	0.4
303.15	0.4132	899.4	0.4
303.15	0.5148	906.9	0.4
303.15	0.6145	913.7	0.4
303.15	0.7093	920.2	0.4
303.15	0.8084	927	0.4
303.15	0.8998	932.1	0.4
303.15	1	939.8	0.3
308.15	0	862.9	0.5
308.15	0.1076	870.8	0.5
308.15	0.2069	878.4	0.5
308.15	0.3124	886.5	0.4
308.15	0.4132	894.6	0.4
308.15	0.5148	902.2	0.4
308.15	0.6145	908.9	0.4
308.15	0.7093	915.4	0.4
308.15	0.8084	922.2	0.4
308.15	0.8998	927.4	0.4
308.15	1	935.1	0.3
313.15	0	857.4	0.5
313.15	0.1076	865.4	0.5
313.15	0.2069	873.3	0.5
313.15	0.3124	881.5	0.5
313.15	0.4132	889.6	0.4
313.15	0.5148	897.2	0.4
313.15	0.6145	904	0.4
313.15	0.7093	910.3	0.4
313.15	0.8084	917.2	0.4
313.15	0.8998	922.5	0.4
313.15	1	930.2	0.4

System: benzene + chlorobenzene; phases: Liquid
Fixed: Pressure, kPa = 101.3
Property: Viscosity, Pa*s (Liquid); method: Capillary tube (Ostwald; Ubbelohde) method
Temperature, K	Mole fraction of benzene	Viscosity, Pa*s	uncertainty
298.15	0	0.000756	6e-06
298.15	0.1206	0.000744	6e-06
298.15	0.2642	0.000727	6e-06
298.15	0.3982	0.000711	6e-06
298.15	0.4644	0.000702	6e-06
298.15	0.5321	0.000694	6e-06
298.15	0.6074	0.000683	6e-06
298.15	0.7069	0.000665	6e-06
298.15	0.8131	0.000643	6e-06
298.15	0.9162	0.000621	6e-06
298.15	1	0.000603	6e-06
303.15	0	0.000714	6e-06
303.15	0.1206	0.000699	6e-06
303.15	0.2642	0.000682	6e-06
303.15	0.3982	0.000667	6e-06
303.15	0.4644	0.000659	6e-06
303.15	0.5321	0.00065	6e-06
303.15	0.6074	0.00064	6e-06
303.15	0.7069	0.000623	6e-06
303.15	0.8131	0.000601	5e-06
303.15	0.9162	0.000583	5e-06
303.15	1	0.000568	5e-06
308.15	0	0.000673	5e-06
308.15	0.1206	0.000656	5e-06
308.15	0.2642	0.000639	5e-06
308.15	0.3982	0.000623	5e-06
308.15	0.4644	0.000616	5e-06
308.15	0.5321	0.000607	5e-06
308.15	0.6074	0.000598	5e-06
308.15	0.7069	0.000582	5e-06
308.15	0.8131	0.000562	5e-06
308.15	0.9162	0.000545	5e-06
308.15	1	0.000531	5e-06
313.15	0	0.000635	5e-06
313.15	0.1206	0.000618	5e-06
313.15	0.2642	0.000601	5e-06
313.15	0.3982	0.000585	5e-06
313.15	0.4644	0.000578	5e-06
313.15	0.5321	0.00057	5e-06
313.15	0.6074	0.000561	5e-06
313.15	0.7069	0.000545	5e-06
313.15	0.8131	0.000527	5e-06
313.15	0.9162	0.000512	5e-06
313.15	1	0.0005	5e-06

System: benzene + chlorobenzene; phases: Liquid
Fixed: Pressure, kPa = 101.3
Property: Mass density, kg/m3 (Liquid); method: Pycnometric method
Temperature, K	Mole fraction of benzene	Mass density, kg/m3	uncertainty
298.15	0	1100.9	0.4
298.15	0.1206	1076.5	0.4
298.15	0.2642	1046.5	0.4
298.15	0.3982	1017.5	0.4
298.15	0.4644	1002.8	0.4
298.15	0.5321	987.7	0.5
298.15	0.6074	970.4	0.5
298.15	0.7069	946.8	0.5
298.15	0.8131	920.9	0.5
298.15	0.9162	895	0.5
298.15	1	873.4	0.5
303.15	0	1095.8	0.4
303.15	0.1206	1071.4	0.4
303.15	0.2642	1041.4	0.4
303.15	0.3982	1012.4	0.4
303.15	0.4644	997.7	0.5
303.15	0.5321	982.5	0.5
303.15	0.6074	965.2	0.5
303.15	0.7069	941.6	0.5
303.15	0.8131	915.7	0.5
303.15	0.9162	889.8	0.5
303.15	1	868.2	0.5
308.15	0	1090.8	0.4
308.15	0.1206	1066.4	0.4
308.15	0.2642	1036.3	0.4
308.15	0.3982	1007.3	0.4
308.15	0.4644	992.6	0.5
308.15	0.5321	977.3	0.5
308.15	0.6074	960	0.5
308.15	0.7069	936.4	0.5
308.15	0.8131	910.5	0.5
308.15	0.9162	884.6	0.5
308.15	1	862.9	0.5
313.15	0	1085.1	0.4
313.15	0.1206	1060.7	0.4
313.15	0.2642	1030.7	0.4
313.15	0.3982	1001.7	0.5
313.15	0.4644	987	0.5
313.15	0.5321	971.7	0.5
313.15	0.6074	954.5	0.5
313.15	0.7069	930.9	0.5
313.15	0.8131	905	0.5
313.15	0.9162	879.2	0.5
313.15	1	857.4	0.5

System: dimethylformamide + benzene + chlorobenzene; phases: Liquid
Fixed: Pressure, kPa = 101.3
Property: Viscosity, Pa*s (Liquid); method: Capillary tube (Ostwald; Ubbelohde) method
Temperature, K	Mole fraction of dimethylformamide	Mole fraction of benzene	Viscosity, Pa*s	uncertainty
298.15	0.0763	0.3891	0.000717	6e-06
298.15	0.1565	0.5273	0.000712	6e-06
298.15	0.2213	0.4764	0.000724	6e-06
298.15	0.2844	0.1713	0.000784	6e-06
298.15	0.352	0.3806	0.000751	6e-06
298.15	0.5232	0.0933	0.000828	6e-06
298.15	0.5399	0.2755	0.000781	6e-06
298.15	0.6282	0.1948	0.0008	6e-06
298.15	0.7018	0.1964	0.000792	6e-06
298.15	0.7657	0.1392	0.000795	6e-06
298.15	0.8092	0.1259	0.000804	6e-06
298.15	0.8472	0.0724	0.000805	6e-06
298.15	0.9164	0.0508	0.000803	6e-06
303.15	0.0763	0.3891	0.000675	6e-06
303.15	0.1565	0.5273	0.000669	6e-06
303.15	0.2213	0.4764	0.000683	6e-06
303.15	0.2844	0.1713	0.000737	6e-06
303.15	0.352	0.3806	0.000705	6e-06
303.15	0.5232	0.0933	0.000776	6e-06
303.15	0.5399	0.2755	0.000733	6e-06
303.15	0.6282	0.1948	0.000751	6e-06
303.15	0.7018	0.1964	0.000744	6e-06
303.15	0.7657	0.1392	0.000747	6e-06
303.15	0.8092	0.1259	0.000755	6e-06
303.15	0.8472	0.0724	0.000757	6e-06
303.15	0.9164	0.0508	0.000756	6e-06
308.15	0.0763	0.3891	0.000632	5e-06
308.15	0.1565	0.5273	0.000626	5e-06
308.15	0.2213	0.4764	0.000639	5e-06
308.15	0.2844	0.1713	0.000692	6e-06
308.15	0.352	0.3806	0.000659	5e-06
308.15	0.5232	0.0933	0.000726	6e-06
308.15	0.5399	0.2755	0.000685	6e-06
308.15	0.6282	0.1948	0.000703	6e-06
308.15	0.7018	0.1964	0.000697	6e-06
308.15	0.7657	0.1392	0.0007	6e-06
308.15	0.8092	0.1259	0.000708	6e-06
308.15	0.8472	0.0724	0.000709	6e-06
308.15	0.9164	0.0508	0.000708	6e-06
313.15	0.0763	0.3891	0.000594	5e-06
313.15	0.1565	0.5273	0.000589	5e-06
313.15	0.2213	0.4764	0.000601	5e-06
313.15	0.2844	0.1713	0.000652	5e-06
313.15	0.352	0.3806	0.00062	5e-06
313.15	0.5232	0.0933	0.000683	5e-06
313.15	0.5399	0.2755	0.000644	5e-06
313.15	0.6282	0.1948	0.000661	5e-06
313.15	0.7018	0.1964	0.000657	5e-06
313.15	0.7657	0.1392	0.00066	5e-06
313.15	0.8092	0.1259	0.000666	5e-06
313.15	0.8472	0.0724	0.00067	5e-06
313.15	0.9164	0.0508	0.000668	5e-06

System: dimethylformamide + benzene + chlorobenzene; phases: Liquid
Fixed: Pressure, kPa = 101.3
Property: Mass density, kg/m3 (Liquid); method: Pycnometric method
Temperature, K	Mole fraction of dimethylformamide	Mole fraction of benzene	Mass density, kg/m3	uncertainty
298.15	0.0763	0.3891	1009.2	0.4
298.15	0.1565	0.5273	965	0.4
298.15	0.2213	0.4764	967.1	0.4
298.15	0.2844	0.1713	1029.3	0.4
298.15	0.352	0.3806	968.9	0.4
298.15	0.5232	0.0933	1010.2	0.4
298.15	0.5399	0.2755	962.2	0.4
298.15	0.6282	0.1948	966	0.4
298.15	0.7018	0.1964	951.8	0.4
298.15	0.7657	0.1392	954.2	0.4
298.15	0.8092	0.1259	949.3	0.4
298.15	0.8472	0.0724	956.1	0.4
298.15	0.9164	0.0508	947.9	0.3
303.15	0.0763	0.3891	1004.1	0.4
303.15	0.1565	0.5273	960	0.4
303.15	0.2213	0.4764	962	0.4
303.15	0.2844	0.1713	1024.3	0.4
303.15	0.352	0.3806	963.9	0.4
303.15	0.5232	0.0933	1005.4	0.4
303.15	0.5399	0.2755	957.3	0.4
303.15	0.6282	0.1948	961.2	0.4
303.15	0.7018	0.1964	947	0.4
303.15	0.7657	0.1392	949.6	0.4
303.15	0.8092	0.1259	944.6	0.4
303.15	0.8472	0.0724	951.4	0.4
303.15	0.9164	0.0508	943.2	0.4
308.15	0.0763	0.3891	999	0.4
308.15	0.1565	0.5273	954.9	0.5
308.15	0.2213	0.4764	957	0.4
308.15	0.2844	0.1713	1019.4	0.4
308.15	0.352	0.3806	958.9	0.4
308.15	0.5232	0.0933	1000.5	0.4
308.15	0.5399	0.2755	952.3	0.4
308.15	0.6282	0.1948	956.3	0.4
308.15	0.7018	0.1964	942.2	0.4
308.15	0.7657	0.1392	944.9	0.4
308.15	0.8092	0.1259	939.9	0.4
308.15	0.8472	0.0724	946.8	0.4
308.15	0.9164	0.0508	938.5	0.4
313.15	0.0763	0.3891	993.5	0.4
313.15	0.1565	0.5273	949.4	0.5
313.15	0.2213	0.4764	951.8	0.4
313.15	0.2844	0.1713	1014.2	0.4
313.15	0.352	0.3806	953.6	0.4
313.15	0.5232	0.0933	995.3	0.4
313.15	0.5399	0.2755	947.2	0.4
313.15	0.6282	0.1948	951.3	0.4
313.15	0.7018	0.1964	937.3	0.4
313.15	0.7657	0.1392	940	0.4
313.15	0.8092	0.1259	935	0.4
313.15	0.8472	0.0724	941.8	0.4
313.15	0.9164	0.0508	933.6	0.4
