Measured thermophysical data. Temperature and Density Dependence of the Viscosity of Cyclopentane
Source: J. Chem. Eng. Data, 2004, 10.1021/je034142v
Compound 1: cyclopentane, C5H10, InChI=1S/C5H10/c1-2-4-5-3-1/h1-5H2, purity 99%

System: cyclopentane; phases: Liquid
Fixed: Pressure, kPa = 101.325
Property: Viscosity, Pa*s (Liquid); method: Capillary tube (Ostwald; Ubbelohde) method
Temperature, K	Viscosity, Pa*s	uncertainty
278.15	0.000523	3.6e-06
283.15	0.0004932	3.5e-06
288.15	0.0004657	3.3e-06
293.15	0.0004405	3.2e-06
298.15	0.0004173	3e-06

System: cyclopentane; phases: Liquid
Fixed: Pressure, kPa = 101.325
Property: Mass density, kg/m3 (Liquid); method: VIBTUB:mpoint
Temperature, K	Mass density, kg/m3	uncertainty
278.15	759.64	0.07
283.15	754.76	0.07
288.15	749.85	0.07
293.15	744.9	0.07
298.15	739.92	0.07

System: cyclopentane; phases: Liquid
Property: Viscosity, Pa*s (Liquid); method: OTHER
Temperature, K	Pressure, kPa	Viscosity, Pa*s	uncertainty
257.86	100	0.0006878	1.38e-05
257.87	100	0.0006871	1.38e-05
258.01	100	0.0006851	1.38e-05
262.93	100	0.0006392	1.28e-05
262.93	3100	0.0006574	1.32e-05
262.93	5600	0.0006719	1.35e-05
262.93	7900	0.0006858	1.38e-05
262.93	10100	0.0006987	1.4e-05
262.93	25800	0.000795	1.6e-05
262.93	50800	0.0009583	1.92e-05
262.93	75700	0.0011371	2.28e-05
262.93	100700	0.001333	2.67e-05
262.93	125800	0.0015462	3.1e-05
262.93	150800	0.0017819	3.57e-05
262.93	175800	0.0020402	4.09e-05
262.93	200800	0.0023219	4.66e-05
262.93	225900	0.0026295	5.27e-05
262.93	250900	0.0029667	5.94e-05
262.93	275800	0.003333	6.68e-05
262.93	300600	0.0037251	7.46e-05
262.93	100	0.0006393	1.28e-05
262.99	100	0.0006384	1.28e-05
262.99	3100	0.0006562	1.32e-05
262.99	5600	0.0006709	1.35e-05
262.99	8100	0.0006858	1.38e-05
262.99	10800	0.0007025	1.41e-05
262.99	25800	0.0007943	1.59e-05
262.99	50800	0.0009576	1.92e-05
262.99	75700	0.0011362	2.28e-05
262.99	100500	0.0013301	2.67e-05
262.99	125500	0.0015429	3.09e-05
262.99	150500	0.0017779	3.56e-05
262.99	175500	0.0020319	4.07e-05
262.99	200200	0.0023071	4.62e-05
262.99	100	0.0006388	1.28e-05
262.99	200200	0.0023071	4.62e-05
263.03	100	0.0006386	1.28e-05
263.03	10600	0.0007005	1.41e-05
263.03	20600	0.0007608	1.53e-05
263.03	30600	0.0008231	1.65e-05
263.03	40500	0.0008873	1.78e-05
263.03	50500	0.0009555	1.92e-05
263.03	60500	0.0010243	2.05e-05
263.03	70500	0.0010955	2.2e-05
263.03	80600	0.0011709	2.35e-05
263.03	90400	0.0012457	2.5e-05
263.03	100400	0.0013265	2.66e-05
263.03	110500	0.0014097	2.83e-05
263.03	120500	0.0014959	3e-05
263.03	130500	0.0015851	3.18e-05
263.03	140400	0.001677	3.36e-05
263.03	150400	0.0017737	3.55e-05
263.03	160500	0.0018742	3.76e-05
263.03	170500	0.0019766	3.96e-05
263.03	180400	0.002083	4.17e-05
263.03	190300	0.0021927	4.39e-05
263.03	200200	0.0022705	4.56e-05
263.03	100	0.000639	1.28e-05
268.01	100	0.0006016	1.21e-05
268.01	3000	0.0006145	1.23e-05
268.01	5500	0.0006285	1.26e-05
268.01	8100	0.0006428	1.29e-05
268.01	10600	0.0006569	1.32e-05
268.01	25900	0.000745	1.5e-05
268.01	50900	0.0008969	1.8e-05
268.01	75900	0.0010645	2.13e-05
268.01	100700	0.0012433	2.49e-05
268.01	125700	0.0014405	2.89e-05
268.01	150600	0.0016574	3.32e-05
268.01	175700	0.0018956	3.8e-05
268.01	200700	0.0021508	4.31e-05
268.01	225600	0.0024315	4.87e-05
268.01	250800	0.0027419	5.49e-05
268.01	275300	0.0030726	6.15e-05
268.01	301000	0.0034474	6.9e-05
268.01	325300	0.0038332	7.68e-05
268.01	351200	0.0042832	8.58e-05
268.01	378000	0.0047659	9.54e-05
268.01	100	0.0005994	1.2e-05
273.15	100	0.0005601	1.12e-05
273.15	3100	0.0005756	1.16e-05
273.15	5600	0.0005886	1.18e-05
273.15	8100	0.0006022	1.21e-05
273.15	10600	0.0006155	1.24e-05
273.15	25900	0.0006979	1.4e-05
273.15	50800	0.0008418	1.69e-05
273.15	75800	0.0009972	2e-05
273.15	100700	0.0011663	2.34e-05
273.15	125500	0.0013491	2.7e-05
273.15	150500	0.0015505	3.11e-05
273.15	175500	0.0017685	3.54e-05
273.15	200500	0.0020065	4.02e-05
273.15	225300	0.0022665	4.54e-05
273.15	250600	0.0025516	5.11e-05
273.15	275800	0.0028641	5.74e-05
273.15	300700	0.0031977	6.4e-05
273.15	325900	0.0035597	7.13e-05
273.15	350700	0.0039467	7.9e-05
273.15	379200	0.0044399	8.89e-05
273.15	100	0.000561	1.13e-05
278.16	100	0.0005288	1.06e-05
278.16	2900	0.000543	1.09e-05
278.16	5000	0.0005539	1.11e-05
278.16	8100	0.0005697	1.14e-05
278.16	10800	0.0005838	1.17e-05
278.16	25900	0.0006618	1.33e-05
278.16	50800	0.0007981	1.6e-05
278.16	75800	0.0009456	1.9e-05
278.16	100600	0.0011048	2.21e-05
278.16	125700	0.0012796	2.56e-05
278.16	150700	0.0014689	2.94e-05
278.16	175800	0.0016746	3.35e-05
278.16	200700	0.0018953	3.8e-05
278.16	225800	0.0021366	4.28e-05
278.16	250800	0.0023951	4.8e-05
278.16	275900	0.0026793	5.37e-05
278.16	300800	0.0029917	5.99e-05
278.16	325900	0.003323	6.65e-05
278.16	350900	0.0036833	7.38e-05
278.16	380100	0.0041439	8.3e-05
278.16	100	0.000529	1.06e-05
287.93	100	0.000471	9.5e-06
287.93	3000	0.0004845	9.7e-06
287.93	5400	0.0004955	1e-05
287.93	8100	0.0005084	1.02e-05
287.93	10800	0.0005216	1.05e-05
287.93	25900	0.0005923	1.19e-05
287.93	50900	0.0007153	1.43e-05
287.93	75800	0.0008468	1.7e-05
287.93	100800	0.0009885	1.98e-05
287.93	125700	0.0011428	2.29e-05
287.93	150600	0.0013083	2.62e-05
287.93	175700	0.0014879	2.98e-05
287.93	200600	0.001681	3.37e-05
287.93	225700	0.0018932	3.79e-05
287.93	250700	0.0021208	4.25e-05
287.93	275700	0.0023608	4.73e-05
287.93	300800	0.0026228	5.25e-05
287.93	325500	0.0029013	5.81e-05
287.93	349500	0.0031964	6.4e-05
287.93	376900	0.0035626	7.13e-05
287.93	100	0.0004712	9.5e-06
298	100	0.0004191	8.4e-06
298	3000	0.0004308	8.7e-06
298	5300	0.0004404	8.9e-06
298	8100	0.0004526	9.1e-06
298	10900	0.0004644	9.3e-06
298	26000	0.0005288	1.06e-05
298	50800	0.000639	1.28e-05
298	75800	0.0007572	1.52e-05
298	100800	0.0008842	1.77e-05
298	125800	0.0010207	2.05e-05
298	150700	0.0011669	2.34e-05
298	175700	0.0013241	2.65e-05
298	200700	0.0014951	2.99e-05
298	225700	0.0016784	3.36e-05
298	250700	0.0018743	3.75e-05
298	275700	0.0020854	4.18e-05
298	300600	0.0023106	4.63e-05
298	324900	0.0025415	5.09e-05
298	349600	0.0027929	5.6e-05
298	375700	0.0030845	6.18e-05
298	100	0.0004196	8.4e-06
298.03	100	0.000419	8.4e-06
298.03	5500	0.000441	8.9e-06
298.03	7800	0.0004505	9.1e-06
298.03	10800	0.0004637	9.3e-06
298.03	25900	0.0005276	1.06e-05
298.03	50900	0.0006379	1.28e-05
298.03	75800	0.0007549	1.51e-05
298.03	100800	0.0008807	1.77e-05
298.03	125800	0.0010159	2.04e-05
298.03	150700	0.0011633	2.33e-05
298.03	175700	0.0013221	2.65e-05
298.03	200700	0.0014914	2.99e-05
298.03	225600	0.0016729	3.35e-05
298.03	250600	0.0018711	3.75e-05
298.03	275600	0.0020809	4.17e-05
298.03	300400	0.0023054	4.62e-05
298.03	325300	0.0025452	5.1e-05
298.03	350100	0.0027995	5.61e-05
298.03	378000	0.0031121	6.23e-05
298.03	100	0.000419	8.4e-06
298.03	100	0.000419	8.4e-06
