Measured thermophysical data. Isochoric Heat Capacities of Alkanols and Their Aqueous Mixtures
Source: J. Chem. Eng. Data, 2003, 10.1021/je034101z
Compound 1: water, H2O, InChI=1S/H2O/h1H2
Compound 2: methanol, CH4O, InChI=1S/CH4O/c1-2/h2H,1H3, purity 99.8%
Compound 3: propan-1-ol, C3H8O, InChI=1S/C3H8O/c1-2-3-4/h4H,2-3H2,1H3

System: propan-1-ol; phases: Liquid
Property: Molar heat capacity at constant volume, J/K/mol (Liquid); method: Vacuum adiabatic calorimetry
Temperature, K	Pressure, kPa	Molar heat capacity at constant volume, J/K/mol	uncertainty
314.15	4353	130.94704858	2.8851619102
315.15	5217	131.0071436	2.8851619102
316.15	6081	131.72828384	2.8851619102
317.15	6946	132.62970914	2.9452569302
318.15	7808	133.23065934	2.9452569302
319.15	8666	133.29075436	2.9452569302
320.15	9526	133.65132448	2.9452569302
321.15	10392	134.6128448	2.9452569302
322.15	11260	134.9133199	3.004751
323.15	12130	135.8147452	3.004751
324.15	13000	135.87484022	3.004751
325.15	13871	136.35560038	3.004751
326.15	14740	137.49740576	3.004751
327.15	15599	136.95655058	3.004751
328.15	16461	139.18006632	3.06484602
329.15	17326	138.5190211	3.06484602
330.15	18193	138.69930616	3.06484602
331.15	19066	139.90120656	3.06484602
332.15	19945	139.60073146	3.06484602
333.15	20825	140.14158664	3.06484602
334.15	21705	140.80263186	3.12494104
335.15	22585	141.46367708	3.12494104
336.15	23467	141.64396214	3.12494104
337.15	24350	141.28339202	3.12494104
338.15	25234	142.54538744	3.12494104
339.15	26119	142.78576752	3.12494104
340.15	27006	143.74728784	3.18503606
341.15	27893	143.08624262	3.18503606
342.15	28774	145.00928326	3.18503606
343.15	3874	148.61498446	3.3052261
343.15	29657	143.9275729	3.18503606
344.15	4675	146.99241892	3.24513108
345.15	5478	149.3361247	3.3052261
346.15	6283	148.19431932	3.24513108
347.15	7088	149.51640976	3.3052261
348.15	7896	148.85536454	3.3052261
349.15	8704	149.99716992	3.3052261
350.15	9514	150.77840518	3.3052261
351.15	10326	149.99716992	3.3052261
352.15	11138	151.31926036	3.3647201698
353.15	11953	151.7399255	3.3647201698
354.15	12769	152.46106574	3.3647201698
355.15	13587	151.67983048	3.3647201698
356.15	14406	152.58125578	3.3647201698
357.15	15227	152.9418259	3.3647201698
358.15	16050	153.48268108	3.3647201698
359.15	16870	153.42258606	3.3647201698
360.15	17670	155.3456267	3.4248151898
361.15	18489	154.1437263	3.4248151898
362.15	19314	155.52591176	3.4248151898
363.15	20144	154.98505658	3.4248151898
364.15	20977	154.98505658	3.4248151898
365.15	21811	155.40572172	3.4248151898
366.15	22647	156.66771714	3.4861121102
367.15	23484	156.00667192	3.4248151898
368.15	24324	156.06676694	3.4248151898
369.15	25165	156.96819224	3.4861121102
370.15	26008	156.30714702	3.4248151898
371.15	26853	157.08838228	3.4861121102
372.15	2876	161.3551287	3.5462071302
372.15	27699	156.5475271	3.4248151898
373.15	3622	161.9560789	3.5462071302
373.15	28548	157.56914244	3.4861121102
374.15	4369	162.19645898	3.6057012
374.15	29398	157.80952252	3.4861121102
375.15	5118	162.49693408	3.6057012
376.15	5868	163.1579793	3.6057012
377.15	6620	163.1579793	3.6057012
378.15	7374	162.8575042	3.6057012
379.15	8129	163.21807432	3.6057012
380.15	8887	163.63873946	3.6057012
381.15	9646	163.7589295	3.6057012
382.15	10407	162.8575042	3.6057012
383.15	11170	164.60025978	3.6057012
384.15	11935	162.73731416	3.6057012
385.15	12702	164.48006974	3.6057012
386.15	13470	163.81902452	3.6057012
387.15	14240	164.23968966	3.6057012
388.15	15013	164.17959464	3.6057012
389.15	15786	164.29978468	3.6057012
390.15	16562	164.23968966	3.6057012
391.15	17338	164.84063986	3.66579622
392.15	18116	163.4584544	3.6057012
393.15	18896	164.3598797	3.6057012
394.15	19677	164.29978468	3.6057012
395.15	20459	164.3598797	3.6057012
396.15	21244	164.54016476	3.6057012
397.15	22030	164.6603548	3.6057012
398.15	22817	164.72044982	3.6057012
399.15	23606	164.84063986	3.66579622
400.15	24395	163.99930958	3.6057012
401.15	25186	164.3598797	3.6057012
402.15	25978	164.23968966	3.6057012
403.15	26772	163.7589295	3.6057012
404.15	27566	163.81902452	3.6057012
405.15	28362	163.09788428	3.6057012
406.15	29159	163.57864444	3.6057012
414.15	10151	171.270807	3.78598626
415.15	10841	173.79479784	3.84608128
416.15	11533	172.59289744	3.78598626
417.15	12227	172.7731825	3.78598626
418.15	12922	173.0736576	3.84608128
419.15	13618	171.63137712	3.78598626
420.15	14316	172.53280242	3.78598626
421.15	15015	172.29242234	3.78598626
422.15	15715	172.05204226	3.78598626
423.15	16417	172.35251736	3.78598626
424.15	17119	172.41261238	3.78598626
427.15	19232	172.11213728	3.78598626
428.15	19938	171.45109206	3.78598626
429.15	20645	171.45109206	3.78598626
430.15	21353	172.05204226	3.78598626

System: propan-1-ol; phases: Liquid
Property: Mass density, kg/m3 (Liquid); method: ISOCHOR
Temperature, K	Pressure, kPa	Mass density, kg/m3	uncertainty
314.15	4353	789.9	1.3
315.15	5217	789.8	1.3
316.15	6081	789.7	1.3
317.15	6946	789.6	1.3
318.15	7808	789.5	1.3
319.15	8666	789.5	1.3
320.15	9526	789.4	1.3
321.15	10392	789.3	1.3
322.15	11260	789.2	1.3
323.15	12130	789.1	1.3
324.15	13000	789	1.3
325.15	13871	789	1.3
326.15	14740	788.9	1.3
327.15	15599	788.8	1.3
328.15	16461	788.7	1.3
329.15	17326	788.6	1.3
330.15	18193	788.6	1.3
331.15	19066	788.5	1.3
332.15	19945	788.4	1.3
333.15	20825	788.3	1.3
334.15	21705	788.2	1.3
335.15	22585	788.1	1.3
336.15	23467	788.1	1.3
337.15	24350	788	1.3
338.15	25234	787.9	1.3
339.15	26119	787.8	1.3
340.15	27006	787.7	1.3
341.15	27893	787.7	1.3
342.15	28774	787.6	1.3
343.15	3874	765.1	1.3
343.15	29657	787.5	1.3
344.15	4675	765	1.3
345.15	5478	764.9	1.3
346.15	6283	764.9	1.3
347.15	7088	764.8	1.3
348.15	7896	764.7	1.3
349.15	8704	764.6	1.3
350.15	9514	764.5	1.3
351.15	10326	764.5	1.3
352.15	11138	764.4	1.2
353.15	11953	764.3	1.2
354.15	12769	764.2	1.2
355.15	13587	764.1	1.2
356.15	14406	764.1	1.2
357.15	15227	764	1.2
358.15	16050	763.9	1.2
359.15	16870	763.8	1.2
360.15	17670	763.8	1.2
361.15	18489	763.7	1.2
362.15	19314	763.6	1.2
363.15	20144	763.5	1.2
364.15	20977	763.4	1.2
365.15	21811	763.4	1.2
366.15	22647	763.3	1.2
367.15	23484	763.2	1.2
368.15	24324	763.1	1.2
369.15	25165	763	1.2
370.15	26008	763	1.2
371.15	26853	762.9	1.2
372.15	2876	736.7	1.2
372.15	27699	762.8	1.2
373.15	3622	736.6	1.2
373.15	28548	762.7	1.2
374.15	4369	736.5	1.2
374.15	29398	762.7	1.2
375.15	5118	736.5	1.2
376.15	5868	736.4	1.2
377.15	6620	736.3	1.2
378.15	7374	736.2	1.2
379.15	8129	736.2	1.2
380.15	8887	736.1	1.2
381.15	9646	736	1.2
382.15	10407	735.9	1.2
383.15	11170	735.9	1.2
384.15	11935	735.8	1.2
385.15	12702	735.7	1.2
386.15	13470	735.6	1.2
387.15	14240	735.6	1.2
388.15	15013	735.5	1.2
389.15	15786	735.4	1.2
390.15	16562	735.3	1.2
391.15	17338	735.3	1.2
392.15	18116	735.2	1.2
393.15	18896	735.1	1.2
394.15	19677	735	1.2
395.15	20459	735	1.2
396.15	21244	734.9	1.2
397.15	22030	734.8	1.2
398.15	22817	734.8	1.2
399.15	23606	734.7	1.2
400.15	24395	734.6	1.2
401.15	25186	734.5	1.2
402.15	25978	734.5	1.2
403.15	26772	734.4	1.2
404.15	27566	734.3	1.2
405.15	28362	734.2	1.2
406.15	29159	734.2	1.2
414.15	10151	701.6	1.1
415.15	10841	701.5	1.1
416.15	11533	701.4	1.1
417.15	12227	701.4	1.1
418.15	12922	701.3	1.1
419.15	13618	701.2	1.1
420.15	14316	701.2	1.1
421.15	15015	701.1	1.1
422.15	15715	701	1.1
423.15	16417	701	1.1
424.15	17119	700.9	1.1
427.15	19232	700.7	1.1
428.15	19938	700.6	1.1
429.15	20645	700.6	1.1
430.15	21353	700.5	1.1

System: methanol + water; phases: Liquid
Property: Molar heat capacity at constant volume, J/K/mol (Liquid); method: Vacuum adiabatic calorimetry
Mole fraction of methanol	Temperature, K	Pressure, kPa	Molar heat capacity at constant volume, J/K/mol	uncertainty
0.059	346.15	8815	73.619	1.639
0.059	347.15	10013	74.3916	1.639
0.059	348.15	11221	73.6379	1.639
0.059	349.15	12436	73.5625	1.639
0.059	350.15	13660	73.4683	1.62
0.059	351.15	14893	73.3175	1.62
0.059	352.15	16134	72.9407	1.62
0.059	353.15	17383	73.1103	1.62
0.059	354.15	18639	72.7899	1.62
0.059	355.15	19904	72.8088	1.62
0.059	356.15	21177	72.1493	1.602
0.059	357.15	22456	71.942	1.602
0.059	358.15	23743	72.1304	1.602
0.059	359.15	25038	71.7347	1.583
0.059	360.15	26338	71.584	1.583
0.059	361.15	27647	71.6217	1.583
0.059	362.15	28959	70.8868	1.564
0.059	364.15	4292	72.4319	1.602
0.059	365.15	5602	72.6203	1.602
0.059	366.15	6917	71.8101	1.583
0.059	367.15	8235	71.8289	1.583
0.059	368.15	9555	71.8478	1.602
0.059	369.15	10879	71.1318	1.583
0.059	370.15	12205	71.226	1.583
0.059	371.15	13535	71.3202	1.583
0.059	372.15	14871	71.2071	1.583
0.059	373.15	16216	70.6418	1.564
0.059	374.15	17573	71.0752	1.583
0.059	375.15	18936	70.0954	1.545
0.059	376.15	20305	70.6418	1.564
0.059	377.15	21679	70.2838	1.564
0.059	378.15	23055	69.8881	1.545
0.059	379.15	24437	69.7751	1.545
0.059	380.15	25821	69.6243	1.545
0.059	381.15	27209	69.6055	1.545
0.059	382.15	28600	69.2852	1.545
0.059	385.15	10606	70.4723	1.564
0.059	386.15	12014	70.3592	1.564
0.059	387.15	13426	69.6809	1.545
0.059	388.15	14844	69.6432	1.545
0.059	389.15	16267	69.6809	1.545
0.059	390.15	17692	69.1533	1.526
0.059	391.15	19120	69.0779	1.526
0.059	392.15	20553	68.8329	1.526
0.059	393.15	21990	68.5691	1.526
0.059	394.15	23429	68.4749	1.526
0.059	395.15	24873	68.2111	1.507
0.059	396.15	26319	67.9473	1.507
0.059	397.15	27770	68.0792	1.507
0.059	398.15	29222	67.3255	1.489
0.059	400.15	5808	69.1156	1.526
0.059	401.15	7247	68.9648	1.526
0.059	402.15	8690	68.7576	1.526
0.059	403.15	10137	68.8329	1.526
0.059	404.15	11585	68.2111	1.507
0.059	405.15	13034	68.1546	1.507
0.059	406.15	14489	67.7777	1.507
0.059	407.15	15946	67.8719	1.507
0.059	408.15	17404	68.0038	1.507
0.059	409.15	18865	68.0415	1.507
0.059	410.15	20328	67.4762	1.489
0.059	411.15	21795	67.4197	1.489
0.059	412.15	23262	66.911	1.489
0.059	413.15	24732	66.9486	1.489
0.059	414.15	26206	67.0994	1.489
0.059	415.15	27681	66.7979	1.489
0.059	416.15	29157	66.7602	1.489
0.352	291.15	8041	80.3342	1.767
0.352	292.15	8459	79.8522	1.767
0.352	293.15	9620	80.7703	1.79
0.352	294.15	10788	80.0817	1.767
0.352	295.15	11962	80.2883	1.767
0.352	296.15	13140	80.7474	1.79
0.352	297.15	14323	80.2654	1.767
0.352	298.15	15512	80.7244	1.79
0.352	299.15	16706	80.6785	1.79
0.352	300.15	17905	80.4949	1.79
0.352	301.15	19109	80.8392	1.79
0.352	302.15	20317	80.908	1.79
0.352	303.15	21531	80.7703	1.79
0.352	304.15	22749	80.908	1.79
0.352	305.15	23971	80.7933	1.79
0.352	306.15	25201	81.1146	1.79
0.352	307.15	3721	81.0687	1.79
0.352	307.15	26434	80.8162	1.79
0.352	308.15	4939	81.9868	1.813
0.352	308.15	27671	80.8851	1.79
0.352	309.15	6166	81.2294	1.79
0.352	309.15	28914	81.0917	1.79
0.352	310.15	7400	81.5278	1.813
0.352	311.15	8637	81.3671	1.79
0.352	312.15	9878	81.4819	1.813
0.352	313.15	11124	81.4589	1.813
0.352	314.15	12375	81.5966	1.813
0.352	315.15	13630	81.3671	1.79
0.352	316.15	14887	81.1835	1.79
0.352	317.15	16151	81.5048	1.813
0.352	318.15	17417	81.4589	1.813
0.352	319.15	18688	81.5048	1.813
0.352	320.15	19961	81.4819	1.813
0.352	321.15	21239	81.39	1.79
0.352	322.15	22521	81.8491	1.813
0.352	323.15	23806	81.3212	1.79
0.352	324.15	25094	80.9769	1.79
0.352	325.15	26388	81.6425	1.813
0.352	326.15	27683	81.2294	1.79
0.352	327.15	28981	81.1605	1.79
0.352	331.15	10996	81.7343	1.813
0.352	332.15	12303	81.3671	1.79
0.352	333.15	13612	81.436	1.813
0.352	334.15	14923	81.3671	1.79
0.352	335.15	16237	81.2294	1.79
0.352	336.15	17554	81.0917	1.79
0.352	337.15	18873	81.1146	1.79
0.352	338.15	20197	81.1376	1.79
0.352	339.15	21524	80.8162	1.79
0.352	340.15	22854	81.0687	1.79
0.352	341.15	24187	80.7474	1.79
0.352	342.15	25523	80.6326	1.79
0.352	343.15	26861	80.4719	1.79
0.352	344.15	28202	80.5178	1.79
0.352	345.15	9340	81.1605	1.79
0.352	345.15	29545	80.5638	1.79
0.352	346.15	10663	81.2982	1.79
0.352	347.15	11989	81.2064	1.79
0.352	348.15	13317	80.908	1.79
0.352	349.15	14647	81.436	1.813
0.352	350.15	15977	80.8162	1.79
0.352	351.15	17310	80.9769	1.79
0.352	352.15	18644	80.6556	1.79
0.352	353.15	19980	81.0228	1.79
0.352	354.15	21317	80.3572	1.79
0.352	355.15	22657	80.7244	1.79
0.352	356.15	23997	80.2654	1.767
0.352	357.15	25340	80.6785	1.79
0.352	358.15	26683	79.944	1.767
0.352	359.15	28029	80.7244	1.79
0.352	360.15	8932	80.7244	1.79
0.352	360.15	29375	80.1047	1.767
0.352	361.15	10269	80.6326	1.79
0.352	362.15	11607	80.7244	1.79
0.352	363.15	12949	80.7244	1.79
0.352	364.15	14293	80.7244	1.79
0.352	365.15	15637	80.3801	1.79
0.352	366.15	16985	80.0817	1.767
0.352	367.15	18335	80.426	1.79
0.352	368.15	19685	79.4391	1.767
0.352	369.15	21039	79.7375	1.767
0.352	370.15	22394	79.6686	1.767
0.352	371.15	23752	79.3702	1.767
0.352	372.15	25111	79.0489	1.744
0.352	373.15	26473	79.4161	1.767
0.352	374.15	27836	79.3243	1.767
0.352	378.15	11440	79.6227	1.767
0.352	379.15	12772	80.1736	1.767
0.352	380.15	14106	79.2784	1.744
0.352	381.15	15442	80.0129	1.767
0.352	382.15	16779	79.5997	1.767
0.352	383.15	18119	79.5538	1.767
0.352	384.15	19460	79.944	1.767
0.352	385.15	20802	79.3473	1.767
0.352	386.15	22147	79.5079	1.767
0.352	387.15	23492	79.462	1.767
0.352	388.15	6236	79.7834	1.767
0.352	388.15	24839	78.8653	1.744
0.352	389.15	7545	79.6916	1.767
0.352	389.15	26188	78.9571	1.744
0.352	390.15	8856	79.7834	1.767
0.352	390.15	27539	78.7734	1.744
0.352	391.15	10169	79.2784	1.744
0.352	391.15	28891	78.8882	1.744
0.352	392.15	11481	79.3473	1.767
0.352	393.15	12796	79.3702	1.767
0.352	394.15	14113	79.2095	1.744
0.352	395.15	15432	78.98	1.744
0.352	396.15	16751	78.7964	1.744
0.352	397.15	18072	78.8423	1.744
0.352	398.15	19393	78.2685	1.744
0.352	399.15	20717	78.7964	1.744
0.352	400.15	22041	78.498	1.744
0.352	401.15	23367	77.8324	1.721
0.352	402.15	7258	79.6456	1.767
0.352	402.15	24695	77.7635	1.721
0.352	403.15	8545	79.3014	1.744
0.352	403.15	26023	77.2356	1.721
0.352	404.15	9833	79.5538	1.767
0.352	404.15	27352	77.3504	1.721
0.352	405.15	11123	80.1965	1.767
0.352	405.15	28682	77.2586	1.721
0.352	406.15	12414	79.6916	1.767
0.352	407.15	13706	79.7834	1.767
0.352	408.15	14999	79.0259	1.744
0.352	409.15	16294	79.485	1.767
0.352	410.15	17590	78.6357	1.744
0.352	411.15	18886	78.4751	1.744
0.352	412.15	20182	78.4292	1.744
0.352	413.15	21482	78.521	1.744
0.352	414.15	22781	77.6488	1.721
0.352	415.15	24082	77.6488	1.721
0.352	416.15	25383	77.3963	1.721
0.352	417.15	26686	77.1668	1.698
0.502	287.15	8823	73.1403	1.629
0.502	288.15	9964	73.0651	1.629
0.502	289.15	11119	72.9649	1.629
0.502	290.15	12286	73.1403	1.629
0.502	291.15	13462	73.2155	1.629
0.502	292.15	14645	73.3908	1.629
0.502	293.15	15834	73.3157	1.629
0.502	294.15	17027	73.7667	1.629
0.502	295.15	18228	73.5412	1.629
0.502	296.15	19440	74.0173	1.629
0.502	297.15	20666	73.892	1.629
0.502	298.15	21895	74.0173	1.629
0.502	299.15	23128	74.1175	1.654
0.502	300.15	24362	74.4933	1.654
0.502	301.15	25599	74.7439	1.654
0.502	302.15	26838	74.7189	1.654
0.502	303.15	28079	75.0195	1.654
0.502	304.15	29322	75.1949	1.654
0.502	336.15	9956	80.081	1.779
0.502	337.15	11124	80.106	1.779
0.502	338.15	12293	80.2313	1.779
0.502	339.15	13458	80.106	1.779
0.502	340.15	14622	80.3065	1.779
0.502	341.15	15784	79.9557	1.779
0.502	342.15	16939	80.0559	1.779
0.502	343.15	18092	80.2313	1.779
0.502	344.15	19243	79.7803	1.754
0.502	345.15	20393	80.3065	1.779
0.502	346.15	21544	80.8327	1.779
0.502	347.15	22694	80.983	1.804
0.502	348.15	23845	80.1561	1.779
0.502	349.15	24994	80.0058	1.779
0.502	350.15	26146	80.3065	1.779
0.502	351.15	27302	80.0559	1.779
0.502	352.15	28463	79.229	1.754
0.502	355.15	8187	81.3338	1.804
0.502	356.15	9335	80.8577	1.779
0.502	357.15	10483	80.9078	1.779
0.502	358.15	11631	80.8828	1.779
0.502	359.15	12776	81.0081	1.804
0.502	360.15	13921	81.0582	1.804
0.502	361.15	15065	81.3589	1.804
0.502	362.15	16210	80.7324	1.779
0.502	363.15	17356	81.2336	1.804
0.502	364.15	18503	80.8327	1.779
0.502	365.15	19649	81.2837	1.804
0.502	366.15	20795	80.7575	1.779
0.502	367.15	21940	81.1584	1.804
0.502	368.15	23083	80.3065	1.779
0.502	369.15	24225	80.983	1.804
0.502	370.15	25365	80.6573	1.779
0.502	371.15	26506	80.7575	1.779
0.502	372.15	27647	81.1584	1.804
0.502	373.15	28787	80.5821	1.779
0.502	374.15	29927	81.409	1.804
0.708	319.15	6096	77.1033	1.705
0.708	320.15	7082	78.4447	1.733
0.708	321.15	8085	77.4666	1.705
0.708	322.15	9099	77.9417	1.733
0.708	323.15	10122	77.9696	1.733
0.708	324.15	11152	77.8019	1.733
0.708	325.15	12187	78.277	1.733
0.708	326.15	13227	77.6902	1.733
0.708	327.15	14271	78.2211	1.733
0.708	328.15	15318	78.0535	1.733
0.708	329.15	16369	77.8858	1.733
0.708	330.15	17420	78.3888	1.733
0.708	331.15	18473	78.1093	1.733
0.708	332.15	19528	78.3609	1.733
0.708	333.15	20585	78.3609	1.733
0.708	334.15	21645	78.4447	1.733
0.708	335.15	22708	78.5565	1.733
0.708	336.15	23774	78.8918	1.761
0.708	337.15	24839	78.4726	1.733
0.708	338.15	25906	79.0036	1.761
0.708	339.15	26973	78.6403	1.733
0.708	340.15	28044	78.9757	1.761
0.708	341.15	29116	79.2551	1.761
0.708	343.15	8107	79.8979	1.761
0.708	344.15	9086	80.1494	1.761
0.708	345.15	10073	79.6743	1.761
0.708	346.15	11065	80.345	1.789
0.708	347.15	12063	80.345	1.789
0.708	348.15	13064	80.0097	1.761
0.708	349.15	14067	80.0376	1.761
0.708	350.15	15074	79.9258	1.761
0.708	351.15	16084	80.373	1.789
0.708	352.15	17097	79.8979	1.761
0.708	353.15	18111	79.842	1.761
0.708	354.15	19127	79.9817	1.761
0.708	355.15	20145	80.5686	1.789
0.708	356.15	21167	79.7582	1.761
0.708	357.15	22189	80.2612	1.789
0.708	358.15	23213	80.5407	1.789
0.708	359.15	24240	80.2053	1.789
0.708	360.15	25267	80.4289	1.789
0.708	361.15	26295	80.5686	1.789
0.708	362.15	27325	80.0376	1.761
0.708	363.15	28356	80.5686	1.789
0.708	367.15	10222	82.0777	1.816
0.708	368.15	11176	82.1615	1.816
0.708	369.15	12133	81.8541	1.816
0.708	370.15	13094	81.8541	1.816
0.708	371.15	14058	82.0777	1.816
0.708	372.15	15024	81.8541	1.816
0.708	373.15	15993	81.9659	1.816
0.708	374.15	16963	82.1615	1.816
0.708	375.15	17936	82.4969	1.816
0.708	376.15	18911	82.0777	1.816
0.708	377.15	19887	82.2454	1.816
0.708	378.15	20866	82.441	1.816
0.708	379.15	21846	82.4969	1.816
0.708	380.15	22827	82.5248	1.816
0.708	381.15	23810	82.7484	1.844
0.708	382.15	24794	81.7982	1.816
0.708	383.15	25781	83.1396	1.844
0.708	384.15	6211	84.3413	1.872
0.708	384.15	26769	82.2454	1.816
0.708	385.15	7103	84.006	1.872
0.708	385.15	27757	82.9161	1.844
0.708	386.15	8001	83.9501	1.844
0.708	386.15	28748	82.8602	1.844
0.708	387.15	8903	84.0619	1.872
0.708	388.15	9811	84.2016	1.872
0.708	389.15	10723	83.8942	1.844
0.708	390.15	11638	84.3134	1.872
0.708	391.15	12555	83.5868	1.844
0.708	392.15	13475	83.2514	1.844
0.708	393.15	14397	83.3632	1.844
0.708	394.15	15323	83.8942	1.844
0.708	395.15	16251	83.3632	1.844
0.708	396.15	17180	83.3353	1.844
0.708	397.15	18111	83.2794	1.844
0.708	398.15	19045	83.3912	1.844
0.708	399.15	19980	83.4471	1.844
0.708	400.15	20918	83.6427	1.844
0.708	401.15	21856	82.8043	1.844
0.708	402.15	22797	83.3073	1.844
0.708	403.15	23739	82.7763	1.844
0.708	404.15	24683	83.3353	1.844
0.708	405.15	25628	82.9999	1.844
0.708	406.15	26576	83.1396	1.844
0.708	407.15	27525	83.4471	1.844
0.708	408.15	28475	83.1676	1.844

System: methanol + water; phases: Liquid
Property: Mass density, kg/m3 (Liquid); method: ISOCHOR
Mole fraction of methanol	Temperature, K	Pressure, kPa	Mass density, kg/m3	uncertainty
0.059	346.15	8815	966	0.3
0.059	347.15	10013	965.9	0.3
0.059	348.15	11221	965.8	0.3
0.059	349.15	12436	965.7	0.3
0.059	350.15	13660	965.6	0.3
0.059	351.15	14893	965.4	0.3
0.059	352.15	16134	965.3	0.3
0.059	353.15	17383	965.2	0.3
0.059	354.15	18639	965.1	0.3
0.059	355.15	19904	965	0.3
0.059	356.15	21177	964.9	0.3
0.059	357.15	22456	964.8	0.3
0.059	358.15	23743	964.7	0.3
0.059	359.15	25038	964.6	0.3
0.059	360.15	26338	964.4	0.3
0.059	361.15	27647	964.3	0.3
0.059	362.15	28959	964.2	0.3
0.059	364.15	4292	951.9	0.3
0.059	365.15	5602	951.8	0.3
0.059	366.15	6917	951.7	0.3
0.059	367.15	8235	951.5	0.3
0.059	368.15	9555	951.4	0.3
0.059	369.15	10879	951.3	0.3
0.059	370.15	12205	951.2	0.3
0.059	371.15	13535	951.1	0.3
0.059	372.15	14871	951	0.3
0.059	373.15	16216	950.8	0.3
0.059	374.15	17573	950.7	0.3
0.059	375.15	18936	950.6	0.3
0.059	376.15	20305	950.5	0.3
0.059	377.15	21679	950.4	0.3
0.059	378.15	23055	950.3	0.3
0.059	379.15	24437	950.2	0.3
0.059	380.15	25821	950	0.3
0.059	381.15	27209	949.9	0.3
0.059	382.15	28600	949.8	0.3
0.059	385.15	10606	937.2	0.3
0.059	386.15	12014	937	0.3
0.059	387.15	13426	936.9	0.3
0.059	388.15	14844	936.8	0.3
0.059	389.15	16267	936.7	0.3
0.059	390.15	17692	936.6	0.3
0.059	391.15	19120	936.4	0.3
0.059	392.15	20553	936.3	0.3
0.059	393.15	21990	936.2	0.3
0.059	394.15	23429	936.1	0.3
0.059	395.15	24873	936	0.3
0.059	396.15	26319	935.9	0.3
0.059	397.15	27770	935.8	0.3
0.059	398.15	29222	935.6	0.3
0.059	400.15	5808	919	0.3
0.059	401.15	7247	918.9	0.3
0.059	402.15	8690	918.8	0.3
0.059	403.15	10137	918.6	0.3
0.059	404.15	11585	918.5	0.3
0.059	405.15	13034	918.4	0.3
0.059	406.15	14489	918.3	0.3
0.059	407.15	15946	918.2	0.3
0.059	408.15	17404	918.1	0.3
0.059	409.15	18865	918	0.3
0.059	410.15	20328	917.8	0.3
0.059	411.15	21795	917.7	0.3
0.059	412.15	23262	917.6	0.3
0.059	413.15	24732	917.5	0.3
0.059	414.15	26206	917.4	0.3
0.059	415.15	27681	917.3	0.3
0.059	416.15	29157	917.2	0.3
0.352	291.15	8041	933.5	0.3
0.352	292.15	8459	933.5	0.3
0.352	293.15	9620	933.4	0.3
0.352	294.15	10788	933.3	0.3
0.352	295.15	11962	933.2	0.3
0.352	296.15	13140	933.1	0.3
0.352	297.15	14323	933	0.3
0.352	298.15	15512	932.9	0.3
0.352	299.15	16706	932.8	0.3
0.352	300.15	17905	932.7	0.3
0.352	301.15	19109	932.7	0.3
0.352	302.15	20317	932.6	0.3
0.352	303.15	21531	932.5	0.3
0.352	304.15	22749	932.4	0.3
0.352	305.15	23971	932.3	0.3
0.352	306.15	25201	932.2	0.3
0.352	307.15	3721	922.5	0.3
0.352	307.15	26434	932.1	0.3
0.352	308.15	4939	922.4	0.3
0.352	308.15	27671	932	0.3
0.352	309.15	6166	922.3	0.3
0.352	309.15	28914	931.9	0.3
0.352	310.15	7400	922.2	0.3
0.352	311.15	8637	922.1	0.3
0.352	312.15	9878	922	0.3
0.352	313.15	11124	921.9	0.3
0.352	314.15	12375	921.8	0.3
0.352	315.15	13630	921.8	0.3
0.352	316.15	14887	921.7	0.3
0.352	317.15	16151	921.6	0.3
0.352	318.15	17417	921.5	0.3
0.352	319.15	18688	921.4	0.3
0.352	320.15	19961	921.3	0.3
0.352	321.15	21239	921.2	0.3
0.352	322.15	22521	921.1	0.3
0.352	323.15	23806	921	0.3
0.352	324.15	25094	920.9	0.3
0.352	325.15	26388	920.8	0.3
0.352	326.15	27683	920.7	0.3
0.352	327.15	28981	920.6	0.3
0.352	331.15	10996	909.4	0.3
0.352	332.15	12303	909.3	0.3
0.352	333.15	13612	909.2	0.3
0.352	334.15	14923	909.1	0.3
0.352	335.15	16237	909	0.3
0.352	336.15	17554	908.9	0.3
0.352	337.15	18873	908.8	0.3
0.352	338.15	20197	908.7	0.3
0.352	339.15	21524	908.6	0.3
0.352	340.15	22854	908.5	0.3
0.352	341.15	24187	908.4	0.3
0.352	342.15	25523	908.2	0.3
0.352	343.15	26861	908.1	0.3
0.352	344.15	28202	908	0.3
0.352	345.15	9340	897.6	0.3
0.352	345.15	29545	907.9	0.3
0.352	346.15	10663	897.5	0.3
0.352	347.15	11989	897.4	0.3
0.352	348.15	13317	897.3	0.3
0.352	349.15	14647	897.2	0.3
0.352	350.15	15977	897.1	0.3
0.352	351.15	17310	897	0.3
0.352	352.15	18644	896.9	0.3
0.352	353.15	19980	896.8	0.3
0.352	354.15	21317	896.7	0.3
0.352	355.15	22657	896.6	0.3
0.352	356.15	23997	896.5	0.3
0.352	357.15	25340	896.4	0.3
0.352	358.15	26683	896.3	0.3
0.352	359.15	28029	896.2	0.3
0.352	360.15	8932	884.8	0.3
0.352	360.15	29375	896.1	0.3
0.352	361.15	10269	884.8	0.3
0.352	362.15	11607	884.7	0.3
0.352	363.15	12949	884.6	0.3
0.352	364.15	14293	884.5	0.3
0.352	365.15	15637	884.4	0.3
0.352	366.15	16985	884.3	0.3
0.352	367.15	18335	884.2	0.3
0.352	368.15	19685	884.1	0.3
0.352	369.15	21039	884	0.3
0.352	370.15	22394	883.8	0.3
0.352	371.15	23752	883.7	0.3
0.352	372.15	25111	883.6	0.3
0.352	373.15	26473	883.5	0.3
0.352	374.15	27836	883.4	0.3
0.352	378.15	11440	870	0.3
0.352	379.15	12772	869.9	0.3
0.352	380.15	14106	869.8	0.3
0.352	381.15	15442	869.7	0.3
0.352	382.15	16779	869.6	0.3
0.352	383.15	18119	869.5	0.3
0.352	384.15	19460	869.4	0.3
0.352	385.15	20802	869.3	0.3
0.352	386.15	22147	869.2	0.3
0.352	387.15	23492	869.1	0.3
0.352	388.15	6236	856.9	0.3
0.352	388.15	24839	869	0.3
0.352	389.15	7545	856.8	0.3
0.352	389.15	26188	868.9	0.3
0.352	390.15	8856	856.7	0.3
0.352	390.15	27539	868.8	0.3
0.352	391.15	10169	856.6	0.3
0.352	391.15	28891	868.7	0.3
0.352	392.15	11481	856.5	0.3
0.352	393.15	12796	856.4	0.3
0.352	394.15	14113	856.3	0.3
0.352	395.15	15432	856.2	0.3
0.352	396.15	16751	856.1	0.3
0.352	397.15	18072	856	0.3
0.352	398.15	19393	855.9	0.3
0.352	399.15	20717	855.8	0.3
0.352	400.15	22041	855.7	0.3
0.352	401.15	23367	855.6	0.3
0.352	402.15	7258	843.1	0.3
0.352	402.15	24695	855.5	0.3
0.352	403.15	8545	843.1	0.3
0.352	403.15	26023	855.4	0.3
0.352	404.15	9833	843	0.2
0.352	404.15	27352	855.3	0.3
0.352	405.15	11123	842.9	0.2
0.352	405.15	28682	855.2	0.3
0.352	406.15	12414	842.8	0.2
0.352	407.15	13706	842.7	0.2
0.352	408.15	14999	842.6	0.2
0.352	409.15	16294	842.5	0.2
0.352	410.15	17590	842.4	0.2
0.352	411.15	18886	842.3	0.2
0.352	412.15	20182	842.2	0.2
0.352	413.15	21482	842.1	0.2
0.352	414.15	22781	842	0.2
0.352	415.15	24082	841.9	0.2
0.352	416.15	25383	841.8	0.2
0.352	417.15	26686	841.8	0.2
0.502	287.15	8823	884.1	0.3
0.502	288.15	9964	884	0.3
0.502	289.15	11119	883.9	0.3
0.502	290.15	12286	883.8	0.3
0.502	291.15	13462	883.7	0.3
0.502	292.15	14645	883.6	0.3
0.502	293.15	15834	883.5	0.3
0.502	294.15	17027	883.4	0.3
0.502	295.15	18228	883.3	0.3
0.502	296.15	19440	883.2	0.3
0.502	297.15	20666	883.1	0.3
0.502	298.15	21895	883	0.3
0.502	299.15	23128	882.9	0.3
0.502	300.15	24362	882.8	0.3
0.502	301.15	25599	882.7	0.3
0.502	302.15	26838	882.6	0.3
0.502	303.15	28079	882.5	0.3
0.502	304.15	29322	882.4	0.3
0.502	308.15	6151	868.1	0.3
0.502	309.15	7220	868	0.3
0.502	310.15	8274	867.9	0.3
0.502	311.15	9310	867.8	0.3
0.502	312.15	10330	867.7	0.3
0.502	313.15	11336	867.6	0.3
0.502	314.15	12331	867.6	0.3
0.502	315.15	13318	867.5	0.3
0.502	316.15	14294	867.4	0.3
0.502	317.15	15263	867.3	0.3
0.502	318.15	16222	867.2	0.3
0.502	319.15	17174	867.1	0.3
0.502	320.15	18117	867	0.3
0.502	321.15	19050	866.9	0.3
0.502	322.15	19975	866.9	0.3
0.502	323.15	20894	866.8	0.3
0.502	324.15	21797	866.7	0.3
0.502	325.15	22681	866.6	0.3
0.502	326.15	23555	866.5	0.3
0.502	327.15	24418	866.4	0.3
0.502	328.15	25270	866.4	0.3
0.502	329.15	26112	866.3	0.3
0.502	330.15	26948	866.2	0.3
0.502	331.15	27785	866.1	0.3
0.502	332.15	28614	866	0.3
0.502	333.15	29426	865.9	0.3
0.502	336.15	9956	852.4	0.3
0.502	337.15	11124	852.3	0.3
0.502	338.15	12293	852.2	0.3
0.502	339.15	13458	852.1	0.3
0.502	340.15	14622	852	0.3
0.502	341.15	15784	851.9	0.3
0.502	342.15	16939	851.8	0.3
0.502	343.15	18092	851.7	0.3
0.502	344.15	19243	851.6	0.3
0.502	345.15	20393	851.5	0.3
0.502	346.15	21544	851.4	0.3
0.502	347.15	22694	851.3	0.3
0.502	348.15	23845	851.2	0.3
0.502	349.15	24994	851.1	0.3
0.502	350.15	26146	851	0.3
0.502	351.15	27302	850.9	0.3
0.502	352.15	28463	850.8	0.3
0.502	355.15	8187	834.9	0.3
0.502	356.15	9335	834.8	0.3
0.502	357.15	10483	834.7	0.3
0.502	358.15	11631	834.6	0.3
0.502	359.15	12776	834.5	0.3
0.502	360.15	13921	834.4	0.3
0.502	361.15	15065	834.3	0.3
0.502	362.15	16210	834.3	0.3
0.502	363.15	17356	834.2	0.3
0.502	364.15	18503	834.1	0.3
0.502	365.15	19649	834	0.3
0.502	366.15	20795	833.9	0.3
0.502	367.15	21940	833.8	0.3
0.502	368.15	23083	833.7	0.3
0.502	369.15	24225	833.6	0.3
0.502	370.15	25365	833.5	0.3
0.502	371.15	26506	833.4	0.3
0.502	372.15	27647	833.3	0.3
0.502	373.15	28787	833.2	0.3
0.502	374.15	29927	833.2	0.3
0.502	377.15	5641	804.7	0.2
0.502	378.15	6620	804.6	0.2
0.502	379.15	7569	804.6	0.2
0.502	380.15	8491	804.5	0.2
0.502	381.15	9392	804.4	0.3
0.502	382.15	10272	804.3	0.3
0.502	383.15	11132	804.3	0.3
0.502	384.15	11970	804.2	0.3
0.502	385.15	12787	804.1	0.3
0.502	386.15	13588	804	0.3
0.502	387.15	14383	804	0.3
0.502	388.15	15166	803.9	0.3
0.502	389.15	15931	803.8	0.3
0.502	390.15	16675	803.8	0.3
0.502	391.15	17396	803.7	0.3
0.502	392.15	18096	803.6	0.3
0.502	393.15	18797	803.6	0.3
0.502	394.15	19492	803.5	0.3
0.502	395.15	20174	803.4	0.3
0.502	396.15	20848	803.4	0.3
0.502	397.15	21496	803.3	0.3
0.502	398.15	22112	803.2	0.3
0.502	399.15	22693	803.2	0.3
0.502	400.15	23273	803.1	0.3
0.502	401.15	24032	803	0.3
0.502	402.15	25113	803	0.3
0.502	403.15	26229	802.9	0.3
0.502	404.15	27347	802.8	0.3
0.502	405.15	28468	802.7	0.3
0.502	406.15	29592	802.6	0.3
0.708	319.15	6096	819.1	0.2
0.708	320.15	7082	819	0.2
0.708	321.15	8085	819	0.2
0.708	322.15	9099	818.9	0.2
0.708	323.15	10122	818.8	0.2
0.708	324.15	11152	818.7	0.2
0.708	325.15	12187	818.6	0.2
0.708	326.15	13227	818.5	0.2
0.708	327.15	14271	818.4	0.2
0.708	328.15	15318	818.3	0.2
0.708	329.15	16369	818.3	0.2
0.708	330.15	17420	818.2	0.2
0.708	331.15	18473	818.1	0.2
0.708	332.15	19528	818	0.2
0.708	333.15	20585	817.9	0.2
0.708	334.15	21645	817.8	0.2
0.708	335.15	22708	817.7	0.2
0.708	336.15	23774	817.6	0.2
0.708	337.15	24839	817.6	0.2
0.708	338.15	25906	817.5	0.2
0.708	339.15	26973	817.4	0.2
0.708	340.15	28044	817.3	0.2
0.708	341.15	29116	817.2	0.2
0.708	343.15	8107	807.4	0.2
0.708	344.15	9086	807.3	0.2
0.708	345.15	10073	807.2	0.2
0.708	346.15	11065	807.1	0.2
0.708	347.15	12063	807	0.2
0.708	348.15	13064	806.9	0.2
0.708	349.15	14067	806.8	0.2
0.708	350.15	15074	806.8	0.2
0.708	351.15	16084	806.7	0.2
0.708	352.15	17097	806.6	0.2
0.708	353.15	18111	806.5	0.2
0.708	354.15	19127	806.4	0.2
0.708	355.15	20145	806.3	0.2
0.708	356.15	21167	806.2	0.2
0.708	357.15	22189	806.2	0.2
0.708	358.15	23213	806.1	0.2
0.708	359.15	24240	806	0.2
0.708	360.15	25267	805.9	0.2
0.708	361.15	26295	805.8	0.2
0.708	362.15	27325	805.7	0.2
0.708	363.15	28356	805.6	0.2
0.708	367.15	10222	786.2	0.2
0.708	368.15	11176	786.1	0.2
0.708	369.15	12133	786	0.2
0.708	370.15	13094	785.9	0.2
0.708	371.15	14058	785.8	0.2
0.708	372.15	15024	785.7	0.2
0.708	373.15	15993	785.7	0.2
0.708	374.15	16963	785.6	0.2
0.708	375.15	17936	785.5	0.2
0.708	376.15	18911	785.4	0.2
0.708	377.15	19887	785.3	0.2
0.708	378.15	20866	785.3	0.2
0.708	379.15	21846	785.2	0.2
0.708	380.15	22827	785.1	0.2
0.708	381.15	23810	785	0.2
0.708	382.15	24794	784.9	0.2
0.708	383.15	25781	784.8	0.2
0.708	384.15	6211	764.1	0.2
0.708	384.15	26769	784.8	0.2
0.708	385.15	7103	764	0.2
0.708	385.15	27757	784.7	0.2
0.708	386.15	8001	764	0.2
0.708	386.15	28748	784.6	0.2
0.708	387.15	8903	763.9	0.2
0.708	388.15	9811	763.8	0.2
0.708	389.15	10723	763.7	0.2
0.708	390.15	11638	763.7	0.2
0.708	391.15	12555	763.6	0.2
0.708	392.15	13475	763.5	0.2
0.708	393.15	14397	763.4	0.2
0.708	394.15	15323	763.3	0.2
0.708	395.15	16251	763.3	0.2
0.708	396.15	17180	763.2	0.2
0.708	397.15	18111	763.1	0.2
0.708	398.15	19045	763	0.2
0.708	399.15	19980	763	0.2
0.708	400.15	20918	762.9	0.2
0.708	401.15	21856	762.8	0.2
0.708	402.15	22797	762.7	0.2
0.708	403.15	23739	762.6	0.2
0.708	404.15	24683	762.6	0.2
0.708	405.15	25628	762.5	0.2
0.708	406.15	26576	762.4	0.2
0.708	407.15	27525	762.3	0.2
0.708	408.15	28475	762.2	0.2

System: propan-1-ol + water; phases: Liquid
Property: Molar heat capacity at constant volume, J/K/mol (Liquid); method: Vacuum adiabatic calorimetry
Mole fraction of propan-1-ol	Temperature, K	Pressure, kPa	Molar heat capacity at constant volume, J/K/mol	uncertainty
0.255	286.15	6308	98.195	2.185
0.255	287.15	7450	98.3675	2.185
0.255	288.15	8598	97.9363	2.156
0.255	289.15	9749	97.7351	2.156
0.255	290.15	10897	98.1375	2.156
0.255	291.15	12056	98.3387	2.185
0.255	292.15	13216	98.195	2.185
0.255	293.15	14373	98.5687	2.185
0.255	294.15	15528	98.1088	2.156
0.255	295.15	16682	97.9363	2.156
0.255	296.15	17835	98.7987	2.185
0.255	297.15	18989	98.2238	2.185
0.255	298.15	20145	98.54	2.185
0.255	299.15	21302	98.6262	2.185
0.255	300.15	22460	97.7063	2.156
0.255	301.15	23621	98.5112	2.185
0.255	302.15	24784	98.4825	2.185
0.255	303.15	25950	98.7412	2.185
0.255	304.15	27116	98.195	2.185
0.255	305.15	28282	98.9999	2.185
0.255	306.15	29452	98.9711	2.185
0.255	307.15	6442	99.1436	2.185
0.255	308.15	7641	99.4886	2.185
0.255	309.15	8843	98.8562	2.185
0.255	310.15	10047	99.3161	2.185
0.255	311.15	11254	99.2586	2.185
0.255	312.15	12461	99.4023	2.185
0.255	313.15	13667	99.2586	2.185
0.255	314.15	14872	99.2011	2.185
0.255	315.15	16079	99.5748	2.213
0.255	316.15	17284	99.0574	2.185
0.255	317.15	18490	99.3448	2.185
0.255	318.15	19697	99.5461	2.213
0.255	319.15	20906	99.0861	2.185
0.255	320.15	22115	99.4886	2.185
0.255	321.15	23324	99.3448	2.185
0.255	322.15	24534	99.7185	2.213
0.255	323.15	25744	99.2586	2.185
0.255	324.15	26956	99.6036	2.213
0.255	325.15	28173	99.4598	2.185
0.255	326.15	29394	99.2299	2.185
0.255	329.15	8855	100.926	2.242
0.255	330.15	10031	100.322	2.213
0.255	331.15	11207	100.408	2.213
0.255	332.15	12383	100.84	2.242
0.255	333.15	13559	100.581	2.213
0.255	334.15	14736	100.725	2.213
0.255	335.15	15914	100.265	2.213
0.255	336.15	17091	100.351	2.213
0.255	337.15	18269	100.725	2.213
0.255	338.15	19449	100.495	2.213
0.255	339.15	20627	100.782	2.213
0.255	340.15	21805	100.351	2.213
0.255	341.15	22978	99.9485	2.213
0.255	342.15	24149	100.696	2.213
0.255	343.15	25314	100.351	2.213
0.255	344.15	26478	100.437	2.213
0.255	345.15	27639	100.092	2.213
0.255	346.15	28798	100.437	2.213
0.255	349.15	8214	101.443	2.242
0.255	350.15	9377	101.357	2.242
0.255	351.15	10539	100.926	2.242
0.255	352.15	11703	100.753	2.213
0.255	353.15	12867	101.012	2.242
0.255	354.15	14034	100.265	2.213
0.255	355.15	15208	100.753	2.213
0.255	356.15	16384	99.891	2.213
0.255	357.15	17563	100.178	2.213
0.255	358.15	18743	100.408	2.213
0.255	359.15	19925	100.265	2.213
0.255	360.15	21108	100.495	2.213
0.255	361.15	22292	100.523	2.213
0.255	362.15	23475	100.236	2.213
0.255	363.15	24656	100.121	2.213
0.255	364.15	25833	99.776	2.213
0.255	365.15	27010	100.523	2.213
0.255	366.15	28186	99.4023	2.185
0.255	367.15	29364	99.8048	2.213
0.255	368.15	8387	100.581	2.213
0.255	369.15	9538	100.437	2.213
0.255	370.15	10693	100.753	2.213
0.255	371.15	11850	100.495	2.213
0.255	372.15	13011	100.121	2.213
0.255	373.15	14174	99.9198	2.213
0.255	374.15	15341	100.063	2.213
0.255	375.15	16511	100.035	2.213
0.255	376.15	17684	99.6898	2.213
0.255	377.15	18860	99.9198	2.213
0.255	378.15	20039	99.5173	2.213
0.255	379.15	21219	99.4311	2.185
0.255	380.15	22403	99.3161	2.185
0.255	381.15	23589	98.8849	2.185
0.255	382.15	24778	99.4598	2.185
0.255	386.15	8736	99.8048	2.213
0.255	387.15	9855	98.9999	2.185
0.255	388.15	10977	99.0286	2.185
0.255	389.15	12101	98.6262	2.185
0.255	390.15	13229	98.195	2.185
0.255	391.15	14357	97.8213	2.156
0.255	392.15	15490	97.9363	2.156
0.255	393.15	16625	97.5914	2.156
0.255	394.15	17764	97.1027	2.156
0.255	395.15	18905	96.9302	2.156
0.255	396.15	20034	97.1602	2.156
0.255	397.15	21181	96.7577	2.127
0.255	398.15	22331	96.9877	2.156
0.255	399.15	23482	96.6428	2.127
0.255	400.15	24635	96.5278	2.127
0.255	401.15	25791	96.0966	2.127
0.255	402.15	26950	95.9529	2.127
0.255	403.15	6025	98.31	2.185
0.255	403.15	28110	95.8379	2.127
0.255	404.15	7092	98.54	2.185
0.255	405.15	8162	98.2813	2.185
0.255	406.15	9235	97.7638	2.156
0.255	407.15	10311	97.9076	2.156
0.255	408.15	11389	97.9363	2.156
0.255	409.15	12470	97.9076	2.156
0.255	410.15	13554	98.0225	2.156
0.255	411.15	14640	97.3326	2.156
0.255	412.15	15728	97.1314	2.156
0.255	413.15	16812	97.4764	2.156
0.255	414.15	17905	96.2691	2.127
0.255	415.15	19000	96.8727	2.156
0.255	416.15	20098	95.9529	2.127
0.255	417.15	21198	96.0966	2.127
0.255	418.15	22300	96.3266	2.127
0.255	419.15	23404	95.8666	2.127
0.255	420.15	24509	94.803	2.098
0.255	421.15	25618	96.1541	2.127
0.255	422.15	26728	95.3779	2.098
0.255	423.15	27840	95.2055	2.098
0.255	424.15	28953	95.6654	2.127
0.51	282.15	5753	110.77	2.448
0.51	283.15	6874	111.164	2.448
0.51	284.15	7988	111.638	2.448
0.51	285.15	9096	112.191	2.487
0.51	286.15	10198	111.993	2.487
0.51	287.15	11293	112.467	2.487
0.51	288.15	12383	112.467	2.487
0.51	289.15	13467	112.941	2.487
0.51	290.15	14544	113.256	2.487
0.51	291.15	15617	113.493	2.526
0.51	292.15	16685	113.612	2.526
0.51	293.15	17747	113.849	2.526
0.51	294.15	18804	114.401	2.526
0.51	295.15	19855	114.204	2.526
0.51	296.15	20901	114.638	2.526
0.51	297.15	21941	114.559	2.526
0.51	298.15	22975	115.309	2.566
0.51	299.15	24002	115.704	2.566
0.51	300.15	25023	115.27	2.526
0.51	301.15	26038	116.612	2.566
0.51	302.15	27047	115.901	2.566
0.51	303.15	28049	116.494	2.566
0.51	304.15	29041	116.77	2.566
0.51	309.15	10357	116.375	2.566
0.51	310.15	11470	117.401	2.605
0.51	311.15	12587	117.007	2.566
0.51	312.15	13706	117.323	2.605
0.51	313.15	14825	117.994	2.605
0.51	314.15	15946	117.717	2.605
0.51	315.15	17068	117.915	2.605
0.51	316.15	18192	118.388	2.605
0.51	317.15	19321	117.954	2.605
0.51	318.15	20450	118.27	2.605
0.51	319.15	21582	118.704	2.605
0.51	320.15	22715	118.981	2.645
0.51	321.15	23853	118.625	2.605
0.51	322.15	24991	118.862	2.605
0.51	323.15	26131	119.691	2.645
0.51	324.15	27272	119.336	2.645
0.51	325.15	28417	119.494	2.645
0.51	326.15	29564	120.125	2.645
0.51	327.15	7158	121.467	2.684
0.51	328.15	8241	121.941	2.684
0.51	329.15	9325	122.02	2.684
0.51	330.15	10413	122.612	2.724
0.51	331.15	11504	122.178	2.684
0.51	332.15	12597	122.415	2.684
0.51	333.15	13692	122.454	2.684
0.51	334.15	14790	122.889	2.724
0.51	335.15	15890	122.652	2.724
0.51	336.15	16993	122.573	2.724
0.51	337.15	18098	123.204	2.724
0.51	338.15	19205	123.244	2.724
0.51	339.15	20315	123.204	2.724
0.51	340.15	21427	123.481	2.724
0.51	341.15	22541	123.757	2.724
0.51	342.15	23657	123.402	2.724
0.51	343.15	24776	123.599	2.724
0.51	344.15	25898	123.994	2.724
0.51	345.15	27022	124.27	2.763
0.51	346.15	28148	123.56	2.724
0.51	347.15	29277	124.073	2.724
0.51	355.15	14697	125.612	2.763
0.51	356.15	15768	125.257	2.763
0.51	357.15	16842	125.77	2.763
0.51	358.15	17918	125.849	2.763
0.51	359.15	18997	125.889	2.763
0.51	360.15	20078	126.047	2.763
0.51	361.15	21162	125.849	2.763
0.51	362.15	22249	125.928	2.763
0.51	363.15	23338	126.205	2.803
0.51	364.15	24430	125.494	2.763
0.51	365.15	25522	125.81	2.763
0.51	366.15	26618	125.889	2.763
0.51	367.15	27716	126.56	2.803
0.51	368.15	6835	127.705	2.803
0.51	369.15	7855	128.257	2.842
0.51	370.15	8880	128.573	2.842
0.51	371.15	9905	128.257	2.842
0.51	372.15	10933	128.06	2.842
0.51	373.15	11963	127.626	2.803
0.51	374.15	12995	127.981	2.842
0.51	375.15	14029	127.981	2.842
0.51	376.15	15065	127.902	2.842
0.51	377.15	16103	127.942	2.842
0.51	378.15	17143	127.902	2.842
0.51	379.15	18186	126.52	2.803
0.51	380.15	19230	127.468	2.803
0.51	381.15	20275	127.27	2.803
0.51	382.15	21324	127.744	2.803
0.51	383.15	22374	127.942	2.842
0.51	384.15	23425	126.56	2.803
0.51	385.15	24479	127.468	2.803
0.51	386.15	25535	127.231	2.803
0.51	387.15	26593	127.073	2.803
0.51	388.15	27655	127.468	2.803
0.51	389.15	28720	126.797	2.803
0.51	397.15	14189	127.863	2.842
0.51	398.15	15159	127.152	2.803
0.51	399.15	16129	126.836	2.803
0.51	400.15	17097	127.152	2.803
0.51	401.15	18066	126.757	2.803
0.51	402.15	19036	126.678	2.803
0.51	403.15	20005	126.244	2.803
0.51	404.15	20975	125.889	2.763
0.51	405.15	21945	125.849	2.763
0.51	406.15	22916	126.481	2.803
0.51	407.15	23886	126.086	2.803
0.51	408.15	24856	125.849	2.763
0.51	409.15	25826	125.731	2.763
0.51	410.15	26795	125.376	2.763
0.51	411.15	27765	125.06	2.763
0.51	412.15	28735	124.586	2.763
0.51	413.15	29704	125.297	2.763
0.51	416.15	9951	127.152	2.803
0.51	417.15	10856	127.823	2.803
0.51	418.15	11763	127.507	2.803
0.51	419.15	12671	125.534	2.763
0.51	420.15	13582	126.244	2.803
0.51	421.15	14495	126.994	2.803
0.51	422.15	15410	125.494	2.763
0.51	423.15	16326	126.718	2.803
0.51	424.15	17244	125.534	2.763
0.51	425.15	18164	126.599	2.803
0.738	283.15	7190	111.782	2.454
0.738	284.15	8295	112.42	2.503
0.738	285.15	9401	113.058	2.503
0.738	286.15	10507	113.352	2.503
0.738	287.15	11613	112.861	2.503
0.738	288.15	12719	114.235	2.503
0.738	289.15	13825	113.99	2.503
0.738	290.15	14933	114.284	2.503
0.738	291.15	16042	115.413	2.552
0.738	292.15	17151	115.315	2.552
0.738	293.15	18261	115.364	2.552
0.738	294.15	19372	115.953	2.552
0.738	295.15	20482	116.394	2.552
0.738	296.15	21594	116.198	2.552
0.738	297.15	22706	117.278	2.601
0.738	298.15	23819	117.621	2.601
0.738	299.15	24932	118.014	2.601
0.738	300.15	26045	117.474	2.601
0.738	301.15	27159	118.308	2.601
0.738	302.15	28275	118.995	2.65
0.738	303.15	29391	119.388	2.65
0.738	304.15	7379	120.565	2.65
0.738	305.15	8424	121.35	2.699
0.738	306.15	9470	120.86	2.65
0.738	307.15	10516	121.841	2.699
0.738	308.15	11563	121.743	2.699
0.738	309.15	12609	122.086	2.699
0.738	310.15	13658	122.872	2.699
0.738	311.15	14707	122.037	2.699
0.738	312.15	15756	123.706	2.748
0.738	313.15	16808	123.657	2.748
0.738	314.15	17859	123.608	2.748
0.738	315.15	18912	125.816	2.797
0.738	316.15	19965	124.246	2.748
0.738	317.15	21021	124.736	2.748
0.738	318.15	22076	124.834	2.748
0.738	319.15	23132	125.521	2.748
0.738	320.15	24190	125.57	2.748
0.738	321.15	25250	126.307	2.797
0.738	322.15	26311	126.159	2.797
0.738	323.15	27372	126.307	2.797
0.738	324.15	28435	127.68	2.797
0.738	325.15	6764	129.005	2.846
0.738	325.15	29499	126.993	2.797
0.738	326.15	7748	129.153	2.846
0.738	327.15	8733	129.202	2.846
0.738	328.15	9720	130.183	2.895
0.738	329.15	10708	130.134	2.895
0.738	330.15	11698	130.085	2.895
0.738	331.15	12689	130.477	2.895
0.738	332.15	13681	130.821	2.895
0.738	333.15	14675	130.625	2.895
0.738	334.15	15670	131.704	2.895
0.738	335.15	16667	131.263	2.895
0.738	336.15	17665	131.557	2.895
0.738	337.15	18664	131.802	2.895
0.738	338.15	19665	132.637	2.944
0.738	339.15	20668	132.489	2.944
0.738	340.15	21672	132.882	2.944
0.738	341.15	22677	132.44	2.944
0.738	342.15	23683	133.618	2.944
0.738	343.15	24690	132.637	2.944
0.738	344.15	25699	134.256	2.944
0.738	345.15	26709	133.765	2.944
0.738	346.15	27721	134.158	2.944
0.738	347.15	28734	134.109	2.944
0.738	348.15	29748	133.52	2.944
0.738	349.15	8878	135.777	2.993
0.738	350.15	9813	136.317	2.993
0.738	351.15	10749	135.335	2.993
0.738	352.15	11687	136.562	2.993
0.738	353.15	12626	136.415	2.993
0.738	354.15	13567	136.611	2.993
0.738	355.15	14510	136.562	2.993
0.738	356.15	15454	136.17	2.993
0.738	357.15	16400	136.955	3.042
0.738	358.15	17348	137.102	3.042
0.738	359.15	18297	137.102	3.042
0.738	360.15	19248	137.838	3.042
0.738	361.15	20200	137.544	3.042
0.738	362.15	21153	137.74	3.042
0.738	363.15	22110	138.034	3.042
0.738	364.15	23067	138.181	3.042
0.738	371.15	6138	141.665	3.14
0.738	372.15	7006	141.764	3.14
0.738	373.15	7876	141.567	3.14
0.738	374.15	8748	142.303	3.14
0.738	375.15	9622	142.451	3.14
0.738	376.15	10497	142.745	3.14
0.738	377.15	11375	142.205	3.14
0.738	378.15	12254	142.941	3.14
0.738	379.15	13134	142.892	3.14
0.738	380.15	14016	142.205	3.14
0.738	396.15	6065	146.082	3.239
0.738	397.15	6866	146.622	3.239
0.738	398.15	7668	146.818	3.239
0.738	399.15	8472	145.149	3.19
0.738	400.15	9277	146.474	3.239
0.738	401.15	10085	144.953	3.19
0.738	402.15	10894	145.689	3.239
0.738	403.15	11704	145.738	3.239
0.738	404.15	12516	145.836	3.239
0.738	405.15	13330	145.689	3.239
0.738	406.15	14145	146.572	3.239
0.738	407.15	14961	145.689	3.239
0.738	408.15	15780	146.523	3.239
0.738	409.15	16599	146.082	3.239
0.738	410.15	17420	147.309	3.239
0.738	411.15	18242	146.278	3.239
0.738	412.15	19066	146.474	3.239
0.738	413.15	19891	146.229	3.239
0.738	414.15	20717	146.278	3.239
0.738	415.15	21545	145.444	3.19
0.738	416.15	22373	144.855	3.19
0.738	417.15	23203	145.493	3.19
0.738	418.15	24035	145.297	3.19
0.738	419.15	24867	145.787	3.239
0.738	420.15	25700	146.18	3.239
0.738	421.15	26535	145.149	3.19
0.738	422.15	27370	145.591	3.19
0.738	423.15	28207	146.131	3.239
0.738	424.15	29044	145.935	3.239
0.738	425.15	29883	145.64	3.19

System: propan-1-ol + water; phases: Liquid
Property: Mass density, kg/m3 (Liquid); method: ISOCHOR
Mole fraction of propan-1-ol	Temperature, K	Pressure, kPa	Mass density, kg/m3	uncertainty
0.255	286.15	6308	896.2	0.3
0.255	287.15	7450	896.1	0.3
0.255	288.15	8598	896	0.3
0.255	289.15	9749	895.9	0.3
0.255	290.15	10897	895.8	0.3
0.255	291.15	12056	895.8	0.3
0.255	292.15	13216	895.7	0.3
0.255	293.15	14373	895.6	0.3
0.255	294.15	15528	895.5	0.3
0.255	295.15	16682	895.4	0.3
0.255	296.15	17835	895.3	0.3
0.255	297.15	18989	895.2	0.3
0.255	298.15	20145	895.1	0.3
0.255	299.15	21302	895	0.3
0.255	300.15	22460	894.9	0.3
0.255	301.15	23621	894.8	0.3
0.255	302.15	24784	894.7	0.3
0.255	303.15	25950	894.6	0.3
0.255	304.15	27116	894.6	0.3
0.255	305.15	28282	894.5	0.3
0.255	306.15	29452	894.4	0.3
0.255	307.15	6442	882.2	0.3
0.255	308.15	7641	882.2	0.2
0.255	309.15	8843	882.1	0.2
0.255	310.15	10047	882	0.2
0.255	311.15	11254	881.9	0.2
0.255	312.15	12461	881.8	0.2
0.255	313.15	13667	881.7	0.2
0.255	314.15	14872	881.6	0.2
0.255	315.15	16079	881.5	0.2
0.255	316.15	17284	881.4	0.2
0.255	317.15	18490	881.3	0.2
0.255	318.15	19697	881.2	0.2
0.255	319.15	20906	881.1	0.2
0.255	320.15	22115	881	0.2
0.255	321.15	23324	880.9	0.2
0.255	322.15	24534	880.8	0.2
0.255	323.15	25744	880.7	0.2
0.255	324.15	26956	880.6	0.2
0.255	325.15	28173	880.5	0.2
0.255	326.15	29394	880.4	0.2
0.255	329.15	8855	867.4	0.2
0.255	330.15	10031	867.3	0.2
0.255	331.15	11207	867.2	0.2
0.255	332.15	12383	867.1	0.2
0.255	333.15	13559	867	0.2
0.255	334.15	14736	866.9	0.2
0.255	335.15	15914	866.8	0.2
0.255	336.15	17091	866.7	0.2
0.255	337.15	18269	866.6	0.2
0.255	338.15	19449	866.5	0.2
0.255	339.15	20627	866.4	0.2
0.255	340.15	21805	866.3	0.2
0.255	341.15	22978	866.2	0.2
0.255	342.15	24149	866.2	0.2
0.255	343.15	25314	866.1	0.2
0.255	344.15	26478	866	0.2
0.255	345.15	27639	865.9	0.2
0.255	346.15	28798	865.8	0.2
0.255	349.15	8214	852.7	0.2
0.255	350.15	9377	852.6	0.2
0.255	351.15	10539	852.5	0.2
0.255	352.15	11703	852.4	0.2
0.255	353.15	12867	852.3	0.2
0.255	354.15	14034	852.2	0.2
0.255	355.15	15208	852.1	0.2
0.255	356.15	16384	852	0.2
0.255	357.15	17563	851.9	0.2
0.255	358.15	18743	851.8	0.2
0.255	359.15	19925	851.7	0.2
0.255	360.15	21108	851.7	0.2
0.255	361.15	22292	851.6	0.2
0.255	362.15	23475	851.5	0.2
0.255	363.15	24656	851.4	0.2
0.255	364.15	25833	851.3	0.2
0.255	365.15	27010	851.2	0.2
0.255	366.15	28186	851.1	0.2
0.255	367.15	29364	851	0.2
0.255	368.15	8387	836.8	0.2
0.255	369.15	9538	836.7	0.2
0.255	370.15	10693	836.6	0.2
0.255	371.15	11850	836.5	0.2
0.255	372.15	13011	836.4	0.2
0.255	373.15	14174	836.3	0.2
0.255	374.15	15341	836.2	0.2
0.255	375.15	16511	836.1	0.2
0.255	376.15	17684	836	0.2
0.255	377.15	18860	835.9	0.2
0.255	378.15	20039	835.8	0.2
0.255	379.15	21219	835.8	0.2
0.255	380.15	22403	835.7	0.2
0.255	381.15	23589	835.6	0.2
0.255	382.15	24778	835.5	0.2
0.255	386.15	8736	820.4	0.2
0.255	387.15	9855	820.3	0.2
0.255	388.15	10977	820.2	0.2
0.255	389.15	12101	820.2	0.2
0.255	390.15	13229	820.1	0.2
0.255	391.15	14357	820	0.2
0.255	392.15	15490	819.9	0.2
0.255	393.15	16625	819.8	0.2
0.255	394.15	17764	819.7	0.2
0.255	395.15	18905	819.6	0.2
0.255	396.15	20034	819.5	0.2
0.255	397.15	21181	819.4	0.2
0.255	398.15	22331	819.3	0.2
0.255	399.15	23482	819.2	0.2
0.255	400.15	24635	819.2	0.2
0.255	401.15	25791	819.1	0.2
0.255	402.15	26950	819	0.2
0.255	403.15	6025	801.1	0.2
0.255	403.15	28110	818.9	0.2
0.255	404.15	7092	801	0.2
0.255	405.15	8162	800.9	0.2
0.255	406.15	9235	800.8	0.2
0.255	407.15	10311	800.7	0.2
0.255	408.15	11389	800.6	0.2
0.255	409.15	12470	800.6	0.2
0.255	410.15	13554	800.5	0.2
0.255	411.15	14640	800.4	0.2
0.255	412.15	15728	800.3	0.2
0.255	413.15	16812	800.2	0.2
0.255	414.15	17905	800.1	0.2
0.255	415.15	19000	800	0.2
0.255	416.15	20098	800	0.2
0.255	417.15	21198	799.9	0.2
0.255	418.15	22300	799.8	0.2
0.255	419.15	23404	799.7	0.2
0.255	420.15	24509	799.6	0.2
0.255	421.15	25618	799.5	0.2
0.255	422.15	26728	799.4	0.2
0.255	423.15	27840	799.4	0.2
0.255	424.15	28953	799.3	0.2
0.51	282.15	5753	870.3	0.3
0.51	283.15	6874	870.2	0.3
0.51	284.15	7988	870.1	0.3
0.51	285.15	9096	870	0.3
0.51	286.15	10198	869.9	0.3
0.51	287.15	11293	869.9	0.3
0.51	288.15	12383	869.8	0.3
0.51	289.15	13467	869.7	0.3
0.51	290.15	14544	869.6	0.3
0.51	291.15	15617	869.5	0.3
0.51	292.15	16685	869.4	0.3
0.51	293.15	17747	869.3	0.3
0.51	294.15	18804	869.2	0.3
0.51	295.15	19855	869.1	0.3
0.51	296.15	20901	869.1	0.3
0.51	297.15	21941	869	0.3
0.51	298.15	22975	868.9	0.3
0.51	299.15	24002	868.8	0.3
0.51	300.15	25023	868.7	0.3
0.51	301.15	26038	868.6	0.3
0.51	302.15	27047	868.5	0.3
0.51	303.15	28049	868.4	0.3
0.51	304.15	29041	868.4	0.3
0.51	309.15	10357	854.8	0.3
0.51	310.15	11470	854.7	0.3
0.51	311.15	12587	854.6	0.3
0.51	312.15	13706	854.5	0.3
0.51	313.15	14825	854.4	0.3
0.51	314.15	15946	854.3	0.3
0.51	315.15	17068	854.3	0.3
0.51	316.15	18192	854.2	0.3
0.51	317.15	19321	854.1	0.3
0.51	318.15	20450	854	0.3
0.51	319.15	21582	853.9	0.3
0.51	320.15	22715	853.8	0.3
0.51	321.15	23853	853.7	0.3
0.51	322.15	24991	853.6	0.3
0.51	323.15	26131	853.5	0.3
0.51	324.15	27272	853.4	0.3
0.51	325.15	28417	853.3	0.3
0.51	326.15	29564	853.2	0.3
0.51	327.15	7158	838.8	0.3
0.51	328.15	8241	838.7	0.3
0.51	329.15	9325	838.7	0.3
0.51	330.15	10413	838.6	0.3
0.51	331.15	11504	838.5	0.3
0.51	332.15	12597	838.4	0.3
0.51	333.15	13692	838.3	0.3
0.51	334.15	14790	838.2	0.3
0.51	335.15	15890	838.1	0.3
0.51	336.15	16993	838	0.3
0.51	337.15	18098	837.9	0.3
0.51	338.15	19205	837.8	0.3
0.51	339.15	20315	837.7	0.3
0.51	340.15	21427	837.6	0.3
0.51	341.15	22541	837.5	0.3
0.51	342.15	23657	837.5	0.3
0.51	343.15	24776	837.4	0.3
0.51	344.15	25898	837.3	0.3
0.51	345.15	27022	837.2	0.3
0.51	346.15	28148	837.1	0.3
0.51	347.15	29277	837	0.3
0.51	355.15	14697	820.5	0.3
0.51	356.15	15768	820.4	0.3
0.51	357.15	16842	820.3	0.3
0.51	358.15	17918	820.2	0.3
0.51	359.15	18997	820.1	0.3
0.51	360.15	20078	820	0.3
0.51	361.15	21162	819.9	0.3
0.51	362.15	22249	819.8	0.3
0.51	363.15	23338	819.7	0.3
0.51	364.15	24430	819.7	0.3
0.51	365.15	25522	819.6	0.3
0.51	366.15	26618	819.5	0.3
0.51	367.15	27716	819.4	0.3
0.51	368.15	6835	802.3	0.3
0.51	369.15	7855	802.2	0.3
0.51	370.15	8880	802.2	0.3
0.51	371.15	9905	802.1	0.3
0.51	372.15	10933	802	0.3
0.51	373.15	11963	801.9	0.3
0.51	374.15	12995	801.8	0.3
0.51	375.15	14029	801.7	0.3
0.51	376.15	15065	801.6	0.3
0.51	377.15	16103	801.5	0.3
0.51	378.15	17143	801.5	0.3
0.51	379.15	18186	801.4	0.3
0.51	380.15	19230	801.3	0.3
0.51	381.15	20275	801.2	0.3
0.51	382.15	21324	801.1	0.3
0.51	383.15	22374	801	0.3
0.51	384.15	23425	800.9	0.3
0.51	385.15	24479	800.9	0.3
0.51	386.15	25535	800.8	0.3
0.51	387.15	26593	800.7	0.3
0.51	388.15	27655	800.6	0.3
0.51	389.15	28720	800.5	0.3
0.51	397.15	14189	781.2	0.3
0.51	398.15	15159	781.1	0.2
0.51	399.15	16129	781	0.2
0.51	400.15	17097	780.9	0.2
0.51	401.15	18066	780.8	0.2
0.51	402.15	19036	780.8	0.3
0.51	403.15	20005	780.7	0.2
0.51	404.15	20975	780.6	0.2
0.51	405.15	21945	780.5	0.2
0.51	406.15	22916	780.4	0.2
0.51	407.15	23886	780.4	0.2
0.51	408.15	24856	780.3	0.2
0.51	409.15	25826	780.2	0.2
0.51	410.15	26795	780.1	0.2
0.51	411.15	27765	780	0.2
0.51	412.15	28735	780	0.2
0.51	413.15	29704	779.9	0.2
0.51	416.15	9951	756.2	0.2
0.51	417.15	10856	756.1	0.2
0.51	418.15	11763	756	0.2
0.51	419.15	12671	755.9	0.2
0.51	420.15	13582	755.9	0.2
0.51	421.15	14495	755.8	0.2
0.51	422.15	15410	755.7	0.2
0.51	423.15	16326	755.6	0.2
0.51	424.15	17244	755.5	0.2
0.51	425.15	18164	755.5	0.2
0.738	283.15	7190	838.7	0.3
0.738	284.15	8295	838.6	0.3
0.738	285.15	9401	838.5	0.3
0.738	286.15	10507	838.4	0.3
0.738	287.15	11613	838.3	0.3
0.738	288.15	12719	838.2	0.3
0.738	289.15	13825	838.1	0.3
0.738	290.15	14933	838	0.3
0.738	291.15	16042	837.9	0.3
0.738	292.15	17151	837.8	0.3
0.738	293.15	18261	837.7	0.3
0.738	294.15	19372	837.6	0.3
0.738	295.15	20482	837.5	0.3
0.738	296.15	21594	837.4	0.3
0.738	297.15	22706	837.4	0.3
0.738	298.15	23819	837.3	0.3
0.738	299.15	24932	837.2	0.3
0.738	300.15	26045	837.1	0.3
0.738	301.15	27159	837	0.3
0.738	302.15	28275	836.9	0.3
0.738	303.15	29391	836.8	0.3
0.738	304.15	7379	821.9	0.3
0.738	305.15	8424	821.8	0.3
0.738	306.15	9470	821.7	0.3
0.738	307.15	10516	821.7	0.3
0.738	308.15	11563	821.6	0.3
0.738	309.15	12609	821.5	0.3
0.738	310.15	13658	821.4	0.3
0.738	311.15	14707	821.3	0.3
0.738	312.15	15756	821.2	0.3
0.738	313.15	16808	821.1	0.3
0.738	314.15	17859	821	0.3
0.738	315.15	18912	820.9	0.3
0.738	316.15	19965	820.9	0.3
0.738	317.15	21021	820.8	0.3
0.738	318.15	22076	820.7	0.3
0.738	319.15	23132	820.6	0.3
0.738	320.15	24190	820.5	0.3
0.738	321.15	25250	820.4	0.3
0.738	322.15	26311	820.3	0.3
0.738	323.15	27372	820.2	0.3
0.738	324.15	28435	820.1	0.3
0.738	325.15	6764	803.8	0.3
0.738	325.15	29499	820.1	0.3
0.738	326.15	7748	803.7	0.3
0.738	327.15	8733	803.6	0.3
0.738	328.15	9720	803.5	0.3
0.738	329.15	10708	803.4	0.3
0.738	330.15	11698	803.3	0.3
0.738	331.15	12689	803.2	0.3
0.738	332.15	13681	803.1	0.3
0.738	333.15	14675	803.1	0.3
0.738	334.15	15670	803	0.3
0.738	335.15	16667	802.9	0.3
0.738	336.15	17665	802.8	0.3
0.738	337.15	18664	802.7	0.3
0.738	338.15	19665	802.6	0.3
0.738	339.15	20668	802.5	0.3
0.738	340.15	21672	802.5	0.3
0.738	341.15	22677	802.4	0.3
0.738	342.15	23683	802.3	0.3
0.738	343.15	24690	802.2	0.3
0.738	344.15	25699	802.1	0.3
0.738	345.15	26709	802	0.3
0.738	346.15	27721	801.9	0.3
0.738	347.15	28734	801.8	0.3
0.738	348.15	29748	801.8	0.3
0.738	349.15	8878	784.1	0.3
0.738	350.15	9813	784	0.3
0.738	351.15	10749	784	0.3
0.738	352.15	11687	783.9	0.3
0.738	353.15	12626	783.8	0.3
0.738	354.15	13567	783.7	0.3
0.738	355.15	14510	783.6	0.3
0.738	356.15	15454	783.5	0.3
0.738	357.15	16400	783.5	0.3
0.738	358.15	17348	783.4	0.3
0.738	359.15	18297	783.3	0.3
0.738	360.15	19248	783.2	0.3
0.738	361.15	20200	783.1	0.3
0.738	362.15	21153	783	0.3
0.738	363.15	22110	783	0.3
0.738	364.15	23067	782.9	0.3
0.738	371.15	6138	760.3	0.3
0.738	372.15	7006	760.2	0.3
0.738	373.15	7876	760.1	0.3
0.738	374.15	8748	760	0.3
0.738	375.15	9622	760	0.3
0.738	376.15	10497	759.9	0.3
0.738	377.15	11375	759.8	0.3
0.738	378.15	12254	759.7	0.3
0.738	379.15	13134	759.6	0.3
0.738	380.15	14016	759.6	0.3
0.738	396.15	6065	733.5	0.2
0.738	397.15	6866	733.5	0.2
0.738	398.15	7668	733.4	0.2
0.738	399.15	8472	733.3	0.2
0.738	400.15	9277	733.2	0.2
0.738	401.15	10085	733.2	0.2
0.738	402.15	10894	733.1	0.2
0.738	403.15	11704	733	0.2
0.738	404.15	12516	732.9	0.2
0.738	405.15	13330	732.9	0.2
0.738	406.15	14145	732.8	0.2
0.738	407.15	14961	732.7	0.2
0.738	408.15	15780	732.7	0.2
0.738	409.15	16599	732.6	0.2
0.738	410.15	17420	732.5	0.2
0.738	411.15	18242	732.4	0.2
0.738	412.15	19066	732.4	0.2
0.738	413.15	19891	732.3	0.2
0.738	414.15	20717	732.2	0.2
0.738	415.15	21545	732.1	0.2
0.738	416.15	22373	732.1	0.2
0.738	417.15	23203	732	0.2
0.738	418.15	24035	731.9	0.2
0.738	419.15	24867	731.8	0.2
0.738	420.15	25700	731.8	0.2
0.738	421.15	26535	731.7	0.2
0.738	422.15	27370	731.6	0.2
0.738	423.15	28207	731.5	0.2
0.738	424.15	29044	731.5	0.2
0.738	425.15	29883	731.4	0.2
