Measured thermophysical data. High-Temperature VLE for the Ethylbenzene + Quinoline System
Source: J. Chem. Eng. Data, 2004, 10.1021/je034107o
Compound 1: ethylbenzene, C8H10, InChI=1S/C8H10/c1-2-8-6-4-3-5-7-8/h3-7H,2H2,1H3, purity 99.9%
Compound 2: quinoline, C9H7N, InChI=1S/C9H7N/c1-2-6-9-8(4-1)5-3-7-10-9/h1-7H, purity 99%

System: ethylbenzene; phases: Liquid, Gas
Property: Vapor or sublimation pressure, kPa (Liquid); method: CCELL:UFactor:16
Temperature, K	Vapor or sublimation pressure, kPa	uncertainty
498.15	681	37
523.15	1027	54
553.15	1601	83
583.15	2387	123
613.15	3451	175

System: quinoline; phases: Liquid, Gas
Property: Vapor or sublimation pressure, kPa (Liquid); method: CCELL:UFactor:16
Temperature, K	Vapor or sublimation pressure, kPa	uncertainty
523.15	135	8
553.15	245	13
583.15	416	22
613.15	668	35
638.15	955	49
653.15	1166	60

System: quinoline + ethylbenzene; phases: Liquid, Gas
Property: Vapor or sublimation pressure, kPa (Liquid); method: CCELL:UFactor:16
Mole fraction of ethylbenzene	Temperature, K	Vapor or sublimation pressure, kPa	uncertainty
0	523.15	135	8
0	553.15	245	13
0	583.15	416	22
0	613.15	668	35
0	638.15	955	49
0	653.15	1166	60
0.004	638.15	987	65
0.005	653.15	1195	68
0.019	583.15	471	36
0.022	553.15	299	21
0.028	638.15	1071	61
0.034	613.15	777	43
0.042	653.15	1365	73
0.044	523.15	218	16
0.147	553.15	560	31
0.149	638.15	1506	80
0.151	653.15	1773	92
0.163	613.15	1112	59
0.164	583.15	805	43
0.272	638.15	1894	99
0.277	613.15	1346	70
0.288	553.15	716	37
0.288	653.15	2269	118
0.291	583.15	1021	53
0.3	523.15	495	27
0.42	583.15	1248	65
0.428	653.15	2889	149
0.43	638.15	2480	128
0.433	613.15	1723	90
0.436	498.15	413	22
0.44	523.15	593	32
0.477	553.15	939	49
0.555	638.15	2796	142
0.585	523.15	722	38
0.601	498.15	491	27
0.602	583.15	1619	83
0.608	553.15	1120	58
0.609	613.15	2246	114
0.769	613.15	2590	133
0.773	523.15	853	45
0.774	498.15	576	31
0.775	583.15	1894	97
0.791	553.15	1335	69
0.938	613.15	3212	164
0.94	498.15	661	36
0.942	523.15	988	52
0.942	553.15	1532	80
0.951	583.15	2295	118
1	498.15	681	37
1	523.15	1027	54
1	553.15	1601	83
1	583.15	2387	123
1	613.15	3451	175

System: quinoline + ethylbenzene; phases: Gas, Liquid
Property: Mole fraction of ethylbenzene (Gas); method: Chromatography
Mole fraction of ethylbenzene	Temperature, K	Mole fraction of ethylbenzene	uncertainty
0	523.15	0	0.001
0	553.15	0	0.001
0	583.15	0	0.001
0	613.15	0	0.001
0	638.15	0	0.001
0	653.15	0	0.001
0.004	638.15	0.015	0.015
0.005	653.15	0.013	0.013
0.019	583.15	0.119	0.072
0.022	553.15	0.182	0.101
0.028	638.15	0.131	0.038
0.034	613.15	0.147	0.032
0.042	653.15	0.1	0.032
0.044	523.15	0.39	0.107
0.147	553.15	0.58	0.027
0.149	638.15	0.422	0.024
0.151	653.15	0.374	0.025
0.163	613.15	0.437	0.025
0.164	583.15	0.515	0.027
0.272	638.15	0.552	0.017
0.277	613.15	0.571	0.017
0.288	553.15	0.71	0.015
0.288	653.15	0.537	0.018
0.291	583.15	0.651	0.017
0.3	523.15	0.777	0.019
0.42	583.15	0.744	0.014
0.428	653.15	0.66	0.016
0.43	638.15	0.68	0.015
0.433	613.15	0.703	0.015
0.436	498.15	0.866	0.012
0.44	523.15	0.836	0.013
0.477	553.15	0.811	0.013
0.555	638.15	0.742	0.014
0.585	523.15	0.879	0.013
0.601	498.15	0.897	0.012
0.602	583.15	0.832	0.013
0.608	553.15	0.862	0.013
0.609	613.15	0.8	0.014
0.769	613.15	0.883	0.013
0.773	523.15	0.927	0.012
0.774	498.15	0.935	0.012
0.775	583.15	0.903	0.013
0.791	553.15	0.923	0.013
0.938	613.15	0.961	0.013
0.94	498.15	0.978	0.012
0.942	523.15	0.977	0.013
0.942	553.15	0.974	0.013
0.951	583.15	0.975	0.013
1	498.15	1	0.001
1	523.15	1	0.001
1	553.15	1	0.001
1	583.15	1	0.001
1	613.15	1	0.001
