Measured thermophysical data. Henry's Constants and Infinite Dilution Activity Coefficients of Propane, Propene, Butane, Isobutane, 1-Butene, Isobutene, trans-2-Butene, and 1,3-butadiene in 2-propanol at 250-330 K
Source: J. Chem. Eng. Data, 2004, 10.1021/je0342116
Compound 1: propane, C3H8, InChI=1S/C3H8/c1-3-2/h3H2,1-2H3
Compound 2: propene, C3H6, InChI=1S/C3H6/c1-3-2/h3H,1H2,2H3
Compound 3: butane, C4H10, InChI=1S/C4H10/c1-3-4-2/h3-4H2,1-2H3
Compound 4: 2-methylpropane, C4H10, InChI=1S/C4H10/c1-4(2)3/h4H,1-3H3
Compound 5: 1-butene, C4H8, InChI=1S/C4H8/c1-3-4-2/h3H,1,4H2,2H3
Compound 6: 2-methylpropene, C4H8, InChI=1S/C4H8/c1-4(2)3/h1H2,2-3H3
Compound 7: (E)-2-butene, C4H8, InChI=1S/C4H8/c1-3-4-2/h3-4H,1-2H3/b4-3+
Compound 8: 1,3-butadiene, C4H6, InChI=1S/C4H6/c1-3-4-2/h3-4H,1-2H2
Compound 9: propan-2-ol, C3H8O, InChI=1S/C3H8O/c1-3(2)4/h3-4H,1-2H3

System: propan-2-ol + propane; phases: Liquid, Gas
Fixed: Mole fraction of propane = 0
Property: Activity coefficient of propane (Liquid); method: Chromatography
Temperature, K	Activity coefficient of propane	uncertainty
249.96	4.5	0.2
270.04	4.5	0.2
290	4.4	0.2
310	4.3	0.2
330	4.2	0.2

System: propan-2-ol + propane; phases: Liquid, Gas
Fixed: Mole fraction of propane = 0
Property: Henry's Law constant (mole fraction scale), kPa of propane (Liquid); method: Chromatography
Temperature, K	Henry's Law constant (mole fraction scale), kPa of propane	uncertainty
249.96	930	37
270.04	1750	70
290	2950	118
310	4470	180
330	6260	251

System: propan-2-ol + propene; phases: Liquid, Gas
Fixed: Mole fraction of propene = 0
Property: Activity coefficient of propene (Liquid); method: Chromatography
Temperature, K	Activity coefficient of propene	uncertainty
249.96	3.8	0.2
270.04	3.7	0.2
290	3.7	0.2
310	3.6	0.2
330	3.4	0.2

System: propan-2-ol + propene; phases: Liquid, Gas
Fixed: Mole fraction of propene = 0
Property: Henry's Law constant (mole fraction scale), kPa of propene (Liquid); method: Chromatography
Temperature, K	Henry's Law constant (mole fraction scale), kPa of propene	uncertainty
249.96	950	38
270.04	1770	71
290	2930	118
310	4380	176
330	6020	242

System: propan-2-ol + butane; phases: Liquid, Gas
Fixed: Mole fraction of butane = 0
Property: Activity coefficient of butane (Liquid); method: Chromatography
Temperature, K	Activity coefficient of butane	uncertainty
249.97	5.2	0.2
270.03	5.1	0.2
290	5.1	0.2
310	4.9	0.2
330	4.6	0.2

System: propan-2-ol + butane; phases: Liquid, Gas
Fixed: Mole fraction of butane = 0
Property: Henry's Law constant (mole fraction scale), kPa of butane (Liquid); method: Chromatography
Temperature, K	Henry's Law constant (mole fraction scale), kPa of butane	uncertainty
249.97	202	8
270.03	454	18
290	900	36
310	1540	62
330	2400	96

System: propan-2-ol + 2-methylpropane; phases: Liquid, Gas
Fixed: Mole fraction of 2-methylpropane = 0
Property: Activity coefficient of 2-methylpropane (Liquid); method: Chromatography
Temperature, K	Activity coefficient of 2-methylpropane	uncertainty
249.96	5.4	0.3
270.04	5.3	0.2
290	5.2	0.2
310	5	0.2
330	4.7	0.2

System: propan-2-ol + 2-methylpropane; phases: Liquid, Gas
Fixed: Mole fraction of 2-methylpropane = 0
Property: Henry's Law constant (mole fraction scale), kPa of 2-methylpropane (Liquid); method: Chromatography
Temperature, K	Henry's Law constant (mole fraction scale), kPa of 2-methylpropane	uncertainty
249.96	331	13
270.04	700	28
290	1310	53
310	2160	87
330	3300	133

System: propan-2-ol + 1-butene; phases: Liquid, Gas
Fixed: Mole fraction of 1-butene = 0
Property: Activity coefficient of 1-butene (Liquid); method: Chromatography
Temperature, K	Activity coefficient of 1-butene	uncertainty
249.97	4.4	0.2
270.03	4.4	0.2
290	4.3	0.2
310	4.1	0.2
330	3.9	0.2

System: propan-2-ol + 1-butene; phases: Liquid, Gas
Fixed: Mole fraction of 1-butene = 0
Property: Henry's Law constant (mole fraction scale), kPa of 1-butene (Liquid); method: Chromatography
Temperature, K	Henry's Law constant (mole fraction scale), kPa of 1-butene	uncertainty
249.97	216	9
270.03	477	19
290	910	37
310	1560	63
330	2390	96

System: propan-2-ol + 2-methylpropene; phases: Liquid, Gas
Fixed: Mole fraction of 2-methylpropene = 0
Property: Activity coefficient of 2-methylpropene (Liquid); method: Chromatography
Temperature, K	Activity coefficient of 2-methylpropene	uncertainty
249.97	4.4	0.2
270.03	4.3	0.2
290	4.2	0.2
310	4	0.2
330	3.8	0.2

System: propan-2-ol + 2-methylpropene; phases: Liquid, Gas
Fixed: Mole fraction of 2-methylpropene = 0
Property: Henry's Law constant (mole fraction scale), kPa of 2-methylpropene (Liquid); method: Chromatography
Temperature, K	Henry's Law constant (mole fraction scale), kPa of 2-methylpropene	uncertainty
249.97	215	9
270.03	474	19
290	920	37
310	1530	61
330	2320	93

System: propan-2-ol + (E)-2-butene; phases: Liquid, Gas
Fixed: Mole fraction of (E)-2-butene = 0
Property: Activity coefficient of (E)-2-butene (Liquid); method: Chromatography
Temperature, K	Activity coefficient of (E)-2-butene	uncertainty
249.96	4.3	0.2
270.04	4.3	0.2
290	4.2	0.2
310	4.1	0.2
330	3.9	0.2

System: propan-2-ol + (E)-2-butene; phases: Liquid, Gas
Fixed: Mole fraction of (E)-2-butene = 0
Property: Henry's Law constant (mole fraction scale), kPa of (E)-2-butene (Liquid); method: Chromatography
Temperature, K	Henry's Law constant (mole fraction scale), kPa of (E)-2-butene	uncertainty
249.96	155	6
270.04	358	14
290	720	29
310	1250	50
330	1950	78

System: propan-2-ol + 1,3-butadiene; phases: Liquid, Gas
Fixed: Mole fraction of 1,3-butadiene = 0
Property: Activity coefficient of 1,3-butadiene (Liquid); method: Chromatography
Temperature, K	Activity coefficient of 1,3-butadiene	uncertainty
249.97	3.9	0.2
270.03	3.8	0.2
290	3.7	0.2
310	3.5	0.2
330	3.3	0.2

System: propan-2-ol + 1,3-butadiene; phases: Liquid, Gas
Fixed: Mole fraction of 1,3-butadiene = 0
Property: Henry's Law constant (mole fraction scale), kPa of 1,3-butadiene (Liquid); method: Chromatography
Temperature, K	Henry's Law constant (mole fraction scale), kPa of 1,3-butadiene	uncertainty
249.97	174	7
270.03	390	16
290	760	31
310	1280	51
330	1960	79
