Measured thermophysical data. Densities and Viscosities of Binary Liquid Mixtures of Trichloroethylene and Tetrachloroethylene with Some Polar and Nonpolar Solvents
Source: J. Chem. Eng. Data, 2004, 10.1021/je034203p
Compound 1: trichloroethene, C2HCl3, InChI=1S/C2HCl3/c3-1-2(4)5/h1H
Compound 2: tetrachloroethene, C2Cl4, InChI=1S/C2Cl4/c3-1(4)2(5)6
Compound 3: methanol, CH4O, InChI=1S/CH4O/c1-2/h2H,1H3
Compound 4: ethanol, C2H6O, InChI=1S/C2H6O/c1-2-3/h3H,2H2,1H3
Compound 5: propan-1-ol, C3H8O, InChI=1S/C3H8O/c1-2-3-4/h4H,2-3H2,1H3
Compound 6: propan-2-ol, C3H8O, InChI=1S/C3H8O/c1-3(2)4/h3-4H,1-2H3
Compound 7: butan-1-ol, C4H10O, InChI=1S/C4H10O/c1-2-3-4-5/h5H,2-4H2,1H3
Compound 8: butan-2-ol, C4H10O, InChI=1S/C4H10O/c1-3-4(2)5/h4-5H,3H2,1-2H3
Compound 9: acetone, C3H6O, InChI=1S/C3H6O/c1-3(2)4/h1-2H3
Compound 10: butanone, C4H8O, InChI=1S/C4H8O/c1-3-4(2)5/h3H2,1-2H3
Compound 11: methyl ethanoate, C3H6O2, InChI=1S/C3H6O2/c1-3(4)5-2/h1-2H3
Compound 12: ethyl acetate, C4H8O2, InChI=1S/C4H8O2/c1-3-6-4(2)5/h3H2,1-2H3
Compound 13: tetrachloromethane, CCl4, InChI=1S/CCl4/c2-1(3,4)5
Compound 14: benzene, C6H6, InChI=1S/C6H6/c1-2-4-6-5-3-1/h1-6H
Compound 15: toluene, C7H8, InChI=1S/C7H8/c1-7-5-3-2-4-6-7/h2-6H,1H3

System: trichloroethene; phases: Liquid
Property: Viscosity, Pa*s (Liquid); method: Capillary tube (Ostwald; Ubbelohde) method
Temperature, K	Pressure, kPa	Viscosity, Pa*s	uncertainty
298.15	101.3	0.000551	7.5e-06

System: trichloroethene; phases: Liquid
Property: Mass density, kg/m3 (Liquid); method: VIBTUB:UFactor:4
Temperature, K	Pressure, kPa	Mass density, kg/m3	uncertainty
298.15	101.3	1455.7	1.3

System: tetrachloroethene; phases: Liquid
Property: Viscosity, Pa*s (Liquid); method: Capillary tube (Ostwald; Ubbelohde) method
Temperature, K	Pressure, kPa	Viscosity, Pa*s	uncertainty
298.15	101.3	0.0008474	9.1e-06

System: tetrachloroethene; phases: Liquid
Property: Mass density, kg/m3 (Liquid); method: VIBTUB:UFactor:4
Temperature, K	Pressure, kPa	Mass density, kg/m3	uncertainty
298.15	101.3	1610.2	1.6

System: methanol; phases: Liquid
Property: Viscosity, Pa*s (Liquid); method: Capillary tube (Ostwald; Ubbelohde) method
Temperature, K	Pressure, kPa	Viscosity, Pa*s	uncertainty
298.15	101.3	0.0005482	7.5e-06

System: methanol; phases: Liquid
Property: Mass density, kg/m3 (Liquid); method: VIBTUB:UFactor:4
Temperature, K	Pressure, kPa	Mass density, kg/m3	uncertainty
298.15	101.3	788.1	0.7

System: ethanol; phases: Liquid
Property: Viscosity, Pa*s (Liquid); method: Capillary tube (Ostwald; Ubbelohde) method
Temperature, K	Pressure, kPa	Viscosity, Pa*s	uncertainty
298.15	101.3	0.001112	1.08e-05

System: ethanol; phases: Liquid
Property: Mass density, kg/m3 (Liquid); method: VIBTUB::UFactor:4
Temperature, K	Pressure, kPa	Mass density, kg/m3	uncertainty
298.15	101.3	787.4	0.7

System: propan-1-ol; phases: Liquid
Property: Viscosity, Pa*s (Liquid); method: Capillary tube (Ostwald; Ubbelohde) method
Temperature, K	Pressure, kPa	Viscosity, Pa*s	uncertainty
298.15	101.3	0.0019544	1.73e-05

System: propan-1-ol; phases: Liquid
Property: Mass density, kg/m3 (Liquid); method: VIBTUB::UFactor:4
Temperature, K	Pressure, kPa	Mass density, kg/m3	uncertainty
298.15	101.3	800	0.7

System: propan-2-ol; phases: Liquid
Property: Viscosity, Pa*s (Liquid); method: Capillary tube (Ostwald; Ubbelohde) method
Temperature, K	Pressure, kPa	Viscosity, Pa*s	uncertainty
298.15	101.3	0.0020443	1.81e-05

System: propan-2-ol; phases: Liquid
Property: Mass density, kg/m3 (Liquid); method: VIBTUB::UFactor:4
Temperature, K	Pressure, kPa	Mass density, kg/m3	uncertainty
298.15	101.3	784.3	0.7

System: butan-1-ol; phases: Liquid
Property: Viscosity, Pa*s (Liquid); method: Capillary tube (Ostwald; Ubbelohde) method
Temperature, K	Pressure, kPa	Viscosity, Pa*s	uncertainty
298.15	101.3	0.0025383	2.25e-05

System: butan-1-ol; phases: Liquid
Property: Mass density, kg/m3 (Liquid); method: VIBTUB::UFactor:4
Temperature, K	Pressure, kPa	Mass density, kg/m3	uncertainty
298.15	101.3	806.3	0.7

System: butan-2-ol; phases: Liquid
Property: Viscosity, Pa*s (Liquid); method: Capillary tube (Ostwald; Ubbelohde) method
Temperature, K	Pressure, kPa	Viscosity, Pa*s	uncertainty
298.15	101.3	0.0031028	2.82e-05

System: butan-2-ol; phases: Liquid
Property: Mass density, kg/m3 (Liquid); method: VIBTUB::UFactor:4
Temperature, K	Pressure, kPa	Mass density, kg/m3	uncertainty
298.15	101.3	804.8	0.7

System: acetone; phases: Liquid
Property: Viscosity, Pa*s (Liquid); method: Capillary tube (Ostwald; Ubbelohde) method
Temperature, K	Pressure, kPa	Viscosity, Pa*s	uncertainty
298.15	101.3	0.0003121	6.6e-06

System: acetone; phases: Liquid
Property: Mass density, kg/m3 (Liquid); method: VIBTUB::UFactor:4
Temperature, K	Pressure, kPa	Mass density, kg/m3	uncertainty
298.15	101.3	780.8	0.7

System: butanone; phases: Liquid
Property: Viscosity, Pa*s (Liquid); method: Capillary tube (Ostwald; Ubbelohde) method
Temperature, K	Pressure, kPa	Viscosity, Pa*s	uncertainty
298.15	101.3	0.0004011	6.9e-06

System: butanone; phases: Liquid
Property: Mass density, kg/m3 (Liquid); method: VIBTUB::UFactor:4
Temperature, K	Pressure, kPa	Mass density, kg/m3	uncertainty
298.15	101.3	797.4	0.7

System: methyl ethanoate; phases: Liquid
Property: Viscosity, Pa*s (Liquid); method: Capillary tube (Ostwald; Ubbelohde) method
Temperature, K	Pressure, kPa	Viscosity, Pa*s	uncertainty
298.15	101.3	0.0003711	6.8e-06

System: methyl ethanoate; phases: Liquid
Property: Mass density, kg/m3 (Liquid); method: VIBTUB::UFactor:4
Temperature, K	Pressure, kPa	Mass density, kg/m3	uncertainty
298.15	101.3	923.9	0.6

System: ethyl acetate; phases: Liquid
Property: Viscosity, Pa*s (Liquid); method: Capillary tube (Ostwald; Ubbelohde) method
Temperature, K	Pressure, kPa	Viscosity, Pa*s	uncertainty
298.15	101.3	0.0004274	7e-06

System: ethyl acetate; phases: Liquid
Property: Mass density, kg/m3 (Liquid); method: VIBTUB::UFactor:4
Temperature, K	Pressure, kPa	Mass density, kg/m3	uncertainty
298.15	101.3	894	0.6

System: tetrachloromethane; phases: Liquid
Property: Viscosity, Pa*s (Liquid); method: Capillary tube (Ostwald; Ubbelohde) method
Temperature, K	Pressure, kPa	Viscosity, Pa*s	uncertainty
298.15	101.3	0.0009096	9.5e-06

System: tetrachloromethane; phases: Liquid
Property: Mass density, kg/m3 (Liquid); method: VIBTUB::UFactor:4
Temperature, K	Pressure, kPa	Mass density, kg/m3	uncertainty
298.15	101.3	1586.1	1.6

System: benzene; phases: Liquid
Property: Viscosity, Pa*s (Liquid); method: Capillary tube (Ostwald; Ubbelohde) method
Temperature, K	Pressure, kPa	Viscosity, Pa*s	uncertainty
298.15	101.3	0.000608	7.8e-06

System: benzene; phases: Liquid
Property: Mass density, kg/m3 (Liquid); method: VIBTUB::UFactor:4
Temperature, K	Pressure, kPa	Mass density, kg/m3	uncertainty
298.15	101.3	869.7	0.6

System: toluene; phases: Liquid
Property: Viscosity, Pa*s (Liquid); method: Capillary tube (Ostwald; Ubbelohde) method
Temperature, K	Pressure, kPa	Viscosity, Pa*s	uncertainty
298.15	101.3	0.0005641	7.6e-06

System: toluene; phases: Liquid
Property: Mass density, kg/m3 (Liquid); method: VIBTUB::UFactor:4
Temperature, K	Pressure, kPa	Mass density, kg/m3	uncertainty
298.15	101.3	860.5	0.6

System: methanol + trichloroethene; phases: Liquid
Fixed: Temperature, K = 298.15
Fixed: Pressure, kPa = 101.3
Property: Viscosity, Pa*s (Liquid); method: Capillary tube (Ostwald; Ubbelohde) method
Mole fraction of trichloroethene	Viscosity, Pa*s	uncertainty
0	0.0005482	7.5e-06
0.0477	0.0005565	7.6e-06
0.1014	0.0005667	7.6e-06
0.1616	0.0005738	7.6e-06
0.2308	0.0005833	7.7e-06
0.3105	0.000595	7.7e-06
0.4033	0.0006017	7.8e-06
0.5125	0.0006021	7.8e-06
0.643	0.0005908	7.7e-06
0.8021	0.000575	7.6e-06
1	0.000551	7.5e-06

System: methanol + trichloroethene; phases: Liquid
Fixed: Temperature, K = 298.15
Fixed: Pressure, kPa = 101.3
Property: Mass density, kg/m3 (Liquid); method: VIBTUB:UFactor:4
Mole fraction of trichloroethene	Mass density, kg/m3	uncertainty
0	788.1	0.7
0.0477	853.7	0.6
0.1014	920.3	0.6
0.1616	985.5	0.6
0.2308	1052.1	0.6
0.3105	1117.9	0.7
0.4033	1184.5	0.8
0.5125	1251.2	1
0.643	1318.4	1.1
0.8021	1386.3	1.2
1	1455.7	1.3

System: ethanol + trichloroethene; phases: Liquid
Fixed: Temperature, K = 298.15
Fixed: Pressure, kPa = 101.3
Property: Viscosity, Pa*s (Liquid); method: Capillary tube (Ostwald; Ubbelohde) method
Mole fraction of trichloroethene	Viscosity, Pa*s	uncertainty
0	0.001112	1.08e-05
0.0673	0.0010471	1.04e-05
0.1397	0.0009855	1e-05
0.2173	0.0009272	9.6e-06
0.3018	0.0008651	9.2e-06
0.3932	0.0008082	8.9e-06
0.493	0.0007528	8.6e-06
0.602	0.0006984	8.3e-06
0.7215	0.000647	8e-06
0.8563	0.0005974	7.8e-06
1	0.000551	7.5e-06

System: ethanol + trichloroethene; phases: Liquid
Fixed: Temperature, K = 298.15
Fixed: Pressure, kPa = 101.3
Property: Mass density, kg/m3 (Liquid); method: VIBTUB:UFactor:4
Mole fraction of trichloroethene	Mass density, kg/m3	uncertainty
0	787.4	0.7
0.0673	852.4	0.6
0.1397	918.2	0.6
0.2173	983.9	0.6
0.3018	1049.4	0.6
0.3932	1115.8	0.7
0.493	1182.4	0.9
0.602	1249.4	0.9
0.7215	1317.1	1.1
0.8563	1385.6	1.2
1	1455.7	1.3

System: propan-1-ol + trichloroethene; phases: Liquid
Fixed: Temperature, K = 298.15
Fixed: Pressure, kPa = 101.3
Property: Viscosity, Pa*s (Liquid); method: Capillary tube (Ostwald; Ubbelohde) method
Mole fraction of trichloroethene	Viscosity, Pa*s	uncertainty
0	0.0019544	1.73e-05
0.0848	0.0017054	1.53e-05
0.1725	0.0014855	1.35e-05
0.2627	0.0012807	1.2e-05
0.3567	0.0010985	1.07e-05
0.4541	0.0009476	9.7e-06
0.5556	0.0008226	9e-06
0.6604	0.0007262	8.4e-06
0.7691	0.0006463	8e-06
0.8823	0.0005848	7.7e-06
1	0.000551	7.5e-06

System: propan-1-ol + trichloroethene; phases: Liquid
Fixed: Temperature, K = 298.15
Fixed: Pressure, kPa = 101.3
Property: Mass density, kg/m3 (Liquid); method: VIBTUB:UFactor:4
Mole fraction of trichloroethene	Mass density, kg/m3	uncertainty
0	800	0.7
0.0848	864.2	0.6
0.1725	928.6	0.6
0.2627	992.9	0.6
0.3567	1058.3	0.7
0.4541	1122.4	0.8
0.5556	1188.3	0.9
0.6604	1254.3	1
0.7691	1320.6	1.1
0.8823	1387.5	1.2
1	1455.7	1.3

System: propan-2-ol + trichloroethene; phases: Liquid
Fixed: Temperature, K = 298.15
Fixed: Pressure, kPa = 101.3
Property: Viscosity, Pa*s (Liquid); method: Capillary tube (Ostwald; Ubbelohde) method
Mole fraction of trichloroethene	Viscosity, Pa*s	uncertainty
0	0.0020443	1.81e-05
0.0866	0.0017645	1.58e-05
0.1754	0.0015144	1.38e-05
0.2667	0.001306	1.22e-05
0.3613	0.0011188	1.09e-05
0.4594	0.0009582	9.8e-06
0.5602	0.0008218	9e-06
0.665	0.0007173	8.4e-06
0.7724	0.0006451	8e-06
0.8846	0.0006004	7.8e-06
1	0.000551	7.5e-06

System: propan-2-ol + trichloroethene; phases: Liquid
Fixed: Temperature, K = 298.15
Fixed: Pressure, kPa = 101.3
Property: Mass density, kg/m3 (Liquid); method: VIBTUB:UFactor:4
Mole fraction of trichloroethene	Mass density, kg/m3	uncertainty
0	784.3	0.7
0.0866	850.4	0.6
0.1754	916.6	0.6
0.2667	982.1	0.6
0.3613	1047.6	0.6
0.4594	1113.9	0.8
0.5602	1180.9	0.9
0.665	1249.2	0.9
0.7724	1316.8	1.1
0.8846	1385.9	1.2
1	1455.7	1.3

System: butan-1-ol + trichloroethene; phases: Liquid
Fixed: Temperature, K = 298.15
Fixed: Pressure, kPa = 101.3
Property: Viscosity, Pa*s (Liquid); method: Capillary tube (Ostwald; Ubbelohde) method
Mole fraction of trichloroethene	Viscosity, Pa*s	uncertainty
0	0.0025383	2.25e-05
0.1018	0.0020984	1.86e-05
0.2033	0.0017335	1.55e-05
0.3038	0.0014289	1.31e-05
0.4042	0.0011903	1.14e-05
0.5046	0.0010079	1.01e-05
0.6045	0.0008696	9.3e-06
0.7042	0.0007737	8.7e-06
0.8025	0.0006878	8.2e-06
0.9014	0.0006227	7.9e-06
1	0.000551	7.5e-06

System: butan-1-ol + trichloroethene; phases: Liquid
Fixed: Temperature, K = 298.15
Fixed: Pressure, kPa = 101.3
Property: Mass density, kg/m3 (Liquid); method: VIBTUB:UFactor:4
Mole fraction of trichloroethene	Mass density, kg/m3	uncertainty
0	806.3	0.7
0.1018	870	0.6
0.2033	934.3	0.6
0.3038	997.5	0.6
0.4042	1061.9	0.7
0.5046	1126.5	0.8
0.6045	1191.4	0.9
0.7042	1257	1
0.8025	1321.9	1.1
0.9014	1388.3	1.2
1	1455.7	1.3

System: butan-2-ol + trichloroethene; phases: Liquid
Fixed: Temperature, K = 298.15
Fixed: Pressure, kPa = 101.3
Property: Viscosity, Pa*s (Liquid); method: Capillary tube (Ostwald; Ubbelohde) method
Mole fraction of trichloroethene	Viscosity, Pa*s	uncertainty
0	0.0031028	2.82e-05
0.102	0.0025025	2.22e-05
0.2035	0.0020191	1.79e-05
0.304	0.001641	1.48e-05
0.4049	0.0013439	1.25e-05
0.505	0.0011281	1.1e-05
0.6051	0.0009463	9.7e-06
0.7042	0.0008155	8.9e-06
0.8033	0.0007014	8.3e-06
0.9014	0.0006101	7.8e-06
1	0.000551	7.5e-06

System: butan-2-ol + trichloroethene; phases: Liquid
Fixed: Temperature, K = 298.15
Fixed: Pressure, kPa = 101.3
Property: Mass density, kg/m3 (Liquid); method: VIBTUB:UFactor:4
Mole fraction of trichloroethene	Mass density, kg/m3	uncertainty
0	804.8	0.7
0.102	868.5	0.6
0.2035	932.3	0.6
0.304	996.3	0.6
0.4049	1061.2	0.7
0.505	1125.4	0.8
0.6051	1190.1	0.9
0.7042	1255.7	1
0.8033	1322	1.1
0.9014	1388.3	1.2
1	1455.7	1.3

System: acetone + trichloroethene; phases: Liquid
Fixed: Temperature, K = 298.15
Fixed: Pressure, kPa = 101.3
Property: Viscosity, Pa*s (Liquid); method: Capillary tube (Ostwald; Ubbelohde) method
Mole fraction of trichloroethene	Viscosity, Pa*s	uncertainty
0	0.0003121	6.6e-06
0.084	0.0003412	6.7e-06
0.1712	0.0003688	6.8e-06
0.2608	0.0003958	6.9e-06
0.3544	0.0004244	7e-06
0.4519	0.0004501	7.1e-06
0.5528	0.0004723	7.2e-06
0.6582	0.0004906	7.3e-06
0.7671	0.0005107	7.4e-06
0.8815	0.0005309	7.4e-06
1	0.000551	7.5e-06

System: acetone + trichloroethene; phases: Liquid
Fixed: Temperature, K = 298.15
Fixed: Pressure, kPa = 101.3
Property: Mass density, kg/m3 (Liquid); method: VIBTUB:UFactor:4
Mole fraction of trichloroethene	Mass density, kg/m3	uncertainty
0	780.8	0.7
0.084	845.9	0.6
0.1712	912.3	0.6
0.2608	978.8	0.6
0.3544	1045	0.6
0.4519	1111.6	0.8
0.5528	1179	0.8
0.6582	1246.4	0.9
0.7671	1315.6	1.1
0.8815	1385.7	1.2
1	1455.7	1.3

System: butanone + trichloroethene; phases: Liquid
Fixed: Temperature, K = 298.15
Fixed: Pressure, kPa = 101.3
Property: Viscosity, Pa*s (Liquid); method: Capillary tube (Ostwald; Ubbelohde) method
Mole fraction of trichloroethene	Viscosity, Pa*s	uncertainty
0	0.0004011	6.9e-06
0.1004	0.0004307	7e-06
0.2005	0.0004566	7.1e-06
0.3002	0.0004835	7.2e-06
0.4005	0.0005088	7.3e-06
0.5005	0.0005281	7.4e-06
0.6007	0.0005391	7.5e-06
0.7004	0.0005455	7.5e-06
0.8004	0.0005499	7.5e-06
0.8998	0.0005495	7.5e-06
1	0.000551	7.5e-06

System: butanone + trichloroethene; phases: Liquid
Fixed: Temperature, K = 298.15
Fixed: Pressure, kPa = 101.3
Property: Mass density, kg/m3 (Liquid); method: VIBTUB:UFactor:4
Mole fraction of trichloroethene	Mass density, kg/m3	uncertainty
0	797.4	0.7
0.1004	861.2	0.6
0.2005	924.2	0.6
0.3002	987.2	0.6
0.4005	1052.5	0.7
0.5005	1117.6	0.8
0.6007	1183.7	0.8
0.7004	1249.6	0.9
0.8004	1315.5	1.1
0.8998	1385.4	1.2
1	1455.7	1.3

System: trichloroethene + methyl ethanoate; phases: Liquid
Fixed: Temperature, K = 298.15
Fixed: Pressure, kPa = 101.3
Property: Viscosity, Pa*s (Liquid); method: Capillary tube (Ostwald; Ubbelohde) method
Mole fraction of trichloroethene	Viscosity, Pa*s	uncertainty
0	0.0003711	6.8e-06
0.09	0.0004128	7e-06
0.182	0.0004443	7.1e-06
0.2755	0.0004699	7.2e-06
0.372	0.0004925	7.3e-06
0.4703	0.0005147	7.4e-06
0.5713	0.0005325	7.4e-06
0.6748	0.0005447	7.5e-06
0.7806	0.000555	7.6e-06
0.8886	0.0005598	7.6e-06
1	0.000551	7.5e-06

System: trichloroethene + methyl ethanoate; phases: Liquid
Fixed: Temperature, K = 298.15
Fixed: Pressure, kPa = 101.3
Property: Mass density, kg/m3 (Liquid); method: VIBTUB:UFactor:4
Mole fraction of trichloroethene	Mass density, kg/m3	uncertainty
0	923.9	0.6
0.09	972.6	0.5
0.182	1022.8	0.6
0.2755	1074.4	0.6
0.372	1125.3	0.7
0.4703	1177.5	0.8
0.5713	1230.9	0.9
0.6748	1283.9	1
0.7806	1341	1.1
0.8886	1397.9	1.2
1	1455.7	1.3

System: trichloroethene + ethyl acetate; phases: Liquid
Fixed: Temperature, K = 298.15
Fixed: Pressure, kPa = 101.3
Property: Viscosity, Pa*s (Liquid); method: Capillary tube (Ostwald; Ubbelohde) method
Mole fraction of trichloroethene	Viscosity, Pa*s	uncertainty
0	0.0004274	7e-06
0.1086	0.0004658	7.2e-06
0.2151	0.0005023	7.3e-06
0.3189	0.0005302	7.4e-06
0.4219	0.0005564	7.6e-06
0.5226	0.0005685	7.6e-06
0.6215	0.0005705	7.6e-06
0.7185	0.0005681	7.6e-06
0.8143	0.000563	7.6e-06
0.908	0.0005589	7.6e-06
1	0.000551	7.5e-06

System: trichloroethene + ethyl acetate; phases: Liquid
Fixed: Temperature, K = 298.15
Fixed: Pressure, kPa = 101.3
Property: Mass density, kg/m3 (Liquid); method: VIBTUB:UFactor:4
Mole fraction of trichloroethene	Mass density, kg/m3	uncertainty
0	894	0.6
0.1086	944.2	0.6
0.2151	998.6	0.5
0.3189	1052.8	0.6
0.4219	1108.6	0.7
0.5226	1163.7	0.8
0.6215	1220.2	0.9
0.7185	1277.3	1
0.8143	1335.6	1.1
0.908	1393.5	1.2
1	1455.7	1.3

System: tetrachloromethane + trichloroethene; phases: Liquid
Fixed: Temperature, K = 298.15
Fixed: Pressure, kPa = 101.3
Property: Viscosity, Pa*s (Liquid); method: Capillary tube (Ostwald; Ubbelohde) method
Mole fraction of trichloroethene	Viscosity, Pa*s	uncertainty
0	0.0009096	9.5e-06
0.1068	0.0008568	9.2e-06
0.212	0.0008098	8.9e-06
0.315	0.0007632	8.6e-06
0.4171	0.0007186	8.4e-06
0.5178	0.0006826	8.2e-06
0.6175	0.0006511	8e-06
0.7152	0.0006226	7.9e-06
0.8114	0.0005965	7.7e-06
0.9064	0.0005727	7.6e-06
1	0.000551	7.5e-06

System: tetrachloromethane + trichloroethene; phases: Liquid
Fixed: Temperature, K = 298.15
Fixed: Pressure, kPa = 101.3
Property: Mass density, kg/m3 (Liquid); method: VIBTUB:UFactor:4
Mole fraction of trichloroethene	Mass density, kg/m3	uncertainty
0	1586.1	1.6
0.1068	1568.1	1.5
0.212	1552.3	1.5
0.315	1536.3	1.5
0.4171	1520.8	1.4
0.5178	1506.7	1.4
0.6175	1495.3	1.4
0.7152	1484.6	1.4
0.8114	1475	1.3
0.9064	1464.6	1.3
1	1455.7	1.3

System: benzene + trichloroethene; phases: Liquid
Fixed: Temperature, K = 298.15
Fixed: Pressure, kPa = 101.3
Property: Viscosity, Pa*s (Liquid); method: Capillary tube (Ostwald; Ubbelohde) method
Mole fraction of trichloroethene	Viscosity, Pa*s	uncertainty
0	0.000608	7.8e-06
0.0997	0.0005937	7.7e-06
0.1995	0.000584	7.7e-06
0.2988	0.0005761	7.7e-06
0.3987	0.0005682	7.6e-06
0.4986	0.0005621	7.6e-06
0.5991	0.0005573	7.6e-06
0.6991	0.0005573	7.6e-06
0.7989	0.0005517	7.5e-06
0.8998	0.0005499	7.5e-06
1	0.000551	7.5e-06

System: benzene + trichloroethene; phases: Liquid
Fixed: Temperature, K = 298.15
Fixed: Pressure, kPa = 101.3
Property: Mass density, kg/m3 (Liquid); method: VIBTUB:UFactor:4
Mole fraction of trichloroethene	Mass density, kg/m3	uncertainty
0	869.7	0.6
0.0997	923.8	0.6
0.1995	981.7	0.6
0.2988	1037.2	0.6
0.3987	1094.6	0.7
0.4986	1152.3	0.8
0.5991	1211	0.9
0.6991	1269.8	1
0.7989	1330.3	1.1
0.8998	1391.9	1.2
1	1455.7	1.3

System: trichloroethene + toluene; phases: Liquid
Fixed: Temperature, K = 298.15
Fixed: Pressure, kPa = 101.3
Property: Viscosity, Pa*s (Liquid); method: Capillary tube (Ostwald; Ubbelohde) method
Mole fraction of trichloroethene	Viscosity, Pa*s	uncertainty
0	0.0005641	7.6e-06
0.1166	0.0005592	7.6e-06
0.2291	0.0005535	7.5e-06
0.3367	0.0005498	7.5e-06
0.4417	0.0005452	7.5e-06
0.5426	0.0005432	7.5e-06
0.64	0.0005445	7.5e-06
0.7348	0.0005454	7.5e-06
0.8257	0.0005477	7.5e-06
0.9147	0.0005495	7.5e-06
1	0.000551	7.5e-06

System: trichloroethene + toluene; phases: Liquid
Fixed: Temperature, K = 298.15
Fixed: Pressure, kPa = 101.3
Property: Mass density, kg/m3 (Liquid); method: VIBTUB:UFactor:4
Mole fraction of trichloroethene	Mass density, kg/m3	uncertainty
0	860.5	0.6
0.1166	917.5	0.6
0.2291	975.6	0.6
0.3367	1033	0.6
0.4417	1090.9	0.7
0.5426	1149	0.8
0.64	1210.5	0.9
0.7348	1270.8	1
0.8257	1331.5	1.1
0.9147	1393.2	1.2
1	1455.7	1.3

System: methanol + tetrachloroethene; phases: Liquid
Fixed: Temperature, K = 298.15
Fixed: Pressure, kPa = 101.3
Property: Viscosity, Pa*s (Liquid); method: Capillary tube (Ostwald; Ubbelohde) method
Mole fraction of tetrachloroethene	Viscosity, Pa*s	uncertainty
0	0.0005482	7.5e-06
0.042	0.0005644	7.6e-06
0.0897	0.0005806	7.7e-06
0.1446	0.0005981	7.8e-06
0.2082	0.0006209	7.9e-06
0.2828	0.0006449	8e-06
0.372	0.0006751	8.1e-06
0.4795	0.0007069	8.3e-06
0.6123	0.0007412	8.5e-06
0.7804	0.0007875	8.8e-06
1	0.0008474	9.1e-06

System: methanol + tetrachloroethene; phases: Liquid
Fixed: Temperature, K = 298.15
Fixed: Pressure, kPa = 101.3
Property: Mass density, kg/m3 (Liquid); method: VIBTUB:UFactor:4
Mole fraction of tetrachloroethene	Mass density, kg/m3	uncertainty
0	788.1	0.7
0.042	868.7	0.6
0.0897	950.1	0.6
0.1446	1030.1	0.6
0.2082	1112	0.7
0.2828	1192.6	0.9
0.372	1274.4	1
0.4795	1355.9	1.2
0.6123	1439.7	1.3
0.7804	1524.3	1.4
1	1610.2	1.6

System: ethanol + tetrachloroethene; phases: Liquid
Fixed: Temperature, K = 298.15
Fixed: Pressure, kPa = 101.3
Property: Viscosity, Pa*s (Liquid); method: Capillary tube (Ostwald; Ubbelohde) method
Mole fraction of tetrachloroethene	Viscosity, Pa*s	uncertainty
0	0.001112	1.08e-05
0.0593	0.0010726	1.05e-05
0.1243	0.0010404	1.03e-05
0.1957	0.0010075	1.01e-05
0.2746	0.0009767	9.9e-06
0.3619	0.0009475	9.7e-06
0.4601	0.0009189	9.5e-06
0.57	0.0008939	9.4e-06
0.6944	0.0008729	9.3e-06
0.8364	0.0008551	9.2e-06
1	0.0008474	9.1e-06

System: ethanol + tetrachloroethene; phases: Liquid
Fixed: Temperature, K = 298.15
Fixed: Pressure, kPa = 101.3
Property: Mass density, kg/m3 (Liquid); method: VIBTUB:UFactor:4
Mole fraction of tetrachloroethene	Mass density, kg/m3	uncertainty
0	787.4	0.7
0.0593	868.1	0.6
0.1243	949.6	0.6
0.1957	1029.4	0.6
0.2746	1111.3	0.7
0.3619	1191.8	0.9
0.4601	1273.7	1
0.57	1356	1.2
0.6944	1440	1.3
0.8364	1524.9	1.4
1	1610.2	1.6

System: propan-1-ol + tetrachloroethene; phases: Liquid
Fixed: Temperature, K = 298.15
Fixed: Pressure, kPa = 101.3
Property: Viscosity, Pa*s (Liquid); method: Capillary tube (Ostwald; Ubbelohde) method
Mole fraction of tetrachloroethene	Viscosity, Pa*s	uncertainty
0	0.0019544	1.73e-05
0.0749	0.0017901	1.6e-05
0.1541	0.0016319	1.47e-05
0.2379	0.0014878	1.36e-05
0.3269	0.00135	1.25e-05
0.4214	0.0012178	1.16e-05
0.5229	0.0011103	1.08e-05
0.6302	0.0010114	1.01e-05
0.745	0.0009253	9.6e-06
0.8679	0.0008657	9.2e-06
1	0.0008474	9.1e-06

System: propan-1-ol + tetrachloroethene; phases: Liquid
Fixed: Temperature, K = 298.15
Fixed: Pressure, kPa = 101.3
Property: Mass density, kg/m3 (Liquid); method: VIBTUB:UFactor:4
Mole fraction of tetrachloroethene	Mass density, kg/m3	uncertainty
0	800	0.7
0.0749	879	0.6
0.1541	958.4	0.6
0.2379	1038.5	0.6
0.3269	1117.4	0.8
0.4214	1197.5	0.9
0.5229	1278.9	1
0.6302	1360.9	1.2
0.745	1442.8	1.3
0.8679	1525.7	1.5
1	1610.2	1.6

System: propan-2-ol + tetrachloroethene; phases: Liquid
Fixed: Temperature, K = 298.15
Fixed: Pressure, kPa = 101.3
Property: Viscosity, Pa*s (Liquid); method: Capillary tube (Ostwald; Ubbelohde) method
Mole fraction of tetrachloroethene	Viscosity, Pa*s	uncertainty
0	0.0020443	1.81e-05
0.0763	0.0018547	1.65e-05
0.1567	0.0016762	1.5e-05
0.2417	0.0015104	1.37e-05
0.3313	0.0013636	1.26e-05
0.4266	0.0012364	1.17e-05
0.5276	0.0011232	1.09e-05
0.6349	0.0010249	1.02e-05
0.7486	0.0009401	9.7e-06
0.8705	0.0008824	9.3e-06
1	0.0008474	9.1e-06

System: propan-2-ol + tetrachloroethene; phases: Liquid
Fixed: Temperature, K = 298.15
Fixed: Pressure, kPa = 101.3
Property: Mass density, kg/m3 (Liquid); method: VIBTUB:UFactor:4
Mole fraction of tetrachloroethene	Mass density, kg/m3	uncertainty
0	784.3	0.7
0.0763	864.9	0.6
0.1567	946.4	0.6
0.2417	1026.7	0.6
0.3313	1107.5	0.7
0.4266	1189.3	0.9
0.5276	1271.6	1
0.6349	1355.4	1.2
0.7486	1437.6	1.3
0.8705	1523.6	1.4
1	1610.2	1.6

System: butan-1-ol + tetrachloroethene; phases: Liquid
Fixed: Temperature, K = 298.15
Fixed: Pressure, kPa = 101.3
Property: Viscosity, Pa*s (Liquid); method: Capillary tube (Ostwald; Ubbelohde) method
Mole fraction of tetrachloroethene	Viscosity, Pa*s	uncertainty
0	0.0025383	2.25e-05
0.0901	0.002255	2e-05
0.1823	0.0019862	1.76e-05
0.2766	0.0017174	1.54e-05
0.3727	0.0014955	1.36e-05
0.4713	0.0013136	1.23e-05
0.5727	0.0011579	1.11e-05
0.6759	0.0010454	1.04e-05
0.7809	0.0009519	9.8e-06
0.8891	0.0008894	9.4e-06
1	0.0008474	9.1e-06

System: butan-1-ol + tetrachloroethene; phases: Liquid
Fixed: Temperature, K = 298.15
Fixed: Pressure, kPa = 101.3
Property: Mass density, kg/m3 (Liquid); method: VIBTUB:UFactor:4
Mole fraction of tetrachloroethene	Mass density, kg/m3	uncertainty
0	806.3	0.7
0.0901	885.2	0.6
0.1823	964.3	0.6
0.2766	1043.5	0.6
0.3727	1122.5	0.8
0.4713	1201.7	0.9
0.5727	1283	1
0.6759	1364.2	1.2
0.7809	1444.6	1.3
0.8891	1526	1.5
1	1610.2	1.6

System: butan-2-ol + tetrachloroethene; phases: Liquid
Fixed: Temperature, K = 298.15
Fixed: Pressure, kPa = 101.3
Property: Viscosity, Pa*s (Liquid); method: Capillary tube (Ostwald; Ubbelohde) method
Mole fraction of tetrachloroethene	Viscosity, Pa*s	uncertainty
0	0.0031028	2.82e-05
0.0903	0.0026601	2.37e-05
0.1825	0.0022804	2.02e-05
0.2769	0.0019441	1.73e-05
0.3734	0.0016666	1.5e-05
0.4718	0.0014533	1.33e-05
0.5733	0.0012616	1.19e-05
0.6759	0.0011187	1.09e-05
0.7817	0.0010048	1.01e-05
0.8891	0.0009029	9.4e-06
1	0.0008474	9.1e-06

System: butan-2-ol + tetrachloroethene; phases: Liquid
Fixed: Temperature, K = 298.15
Fixed: Pressure, kPa = 101.3
Property: Mass density, kg/m3 (Liquid); method: VIBTUB:UFactor:4
Mole fraction of tetrachloroethene	Mass density, kg/m3	uncertainty
0	804.8	0.7
0.0903	883.6	0.6
0.1825	962.6	0.6
0.2769	1042.5	0.6
0.3734	1121.1	0.8
0.4718	1201.2	0.9
0.5733	1281.9	1
0.6759	1362.6	1.2
0.7817	1444.3	1.3
0.8891	1525.8	1.5
1	1610.2	1.6

System: acetone + tetrachloroethene; phases: Liquid
Fixed: Temperature, K = 298.15
Fixed: Pressure, kPa = 101.3
Property: Viscosity, Pa*s (Liquid); method: Capillary tube (Ostwald; Ubbelohde) method
Mole fraction of tetrachloroethene	Viscosity, Pa*s	uncertainty
0	0.0003121	6.6e-06
0.0742	0.0003537	6.7e-06
0.1529	0.000398	6.9e-06
0.2362	0.0004442	7.1e-06
0.3247	0.0004942	7.3e-06
0.4192	0.0005459	7.5e-06
0.5201	0.0006021	7.8e-06
0.6279	0.0006581	8.1e-06
0.7428	0.0007167	8.4e-06
0.8671	0.0007802	8.7e-06
1	0.0008474	9.1e-06

System: acetone + tetrachloroethene; phases: Liquid
Fixed: Temperature, K = 298.15
Fixed: Pressure, kPa = 101.3
Property: Mass density, kg/m3 (Liquid); method: VIBTUB:UFactor:4
Mole fraction of tetrachloroethene	Mass density, kg/m3	uncertainty
0	780.8	0.7
0.0742	862.2	0.6
0.1529	943.8	0.6
0.2362	1025.5	0.6
0.3247	1107.7	0.7
0.4192	1189.6	0.9
0.5201	1272.3	1
0.6279	1356.2	1.2
0.7428	1440.3	1.3
0.8671	1524.6	1.4
1	1610.2	1.6

System: butanone + tetrachloroethene; phases: Liquid
Fixed: Temperature, K = 298.15
Fixed: Pressure, kPa = 101.3
Property: Viscosity, Pa*s (Liquid); method: Capillary tube (Ostwald; Ubbelohde) method
Mole fraction of tetrachloroethene	Viscosity, Pa*s	uncertainty
0	0.0004011	6.9e-06
0.0888	0.0004563	7.1e-06
0.1798	0.0005095	7.3e-06
0.2732	0.0005626	7.6e-06
0.3692	0.0006147	7.8e-06
0.4672	0.0006642	8.1e-06
0.5688	0.0007069	8.3e-06
0.6719	0.0007447	8.5e-06
0.7786	0.0007802	8.7e-06
0.8873	0.0008161	8.9e-06
1	0.0008474	9.1e-06

System: butanone + tetrachloroethene; phases: Liquid
Fixed: Temperature, K = 298.15
Fixed: Pressure, kPa = 101.3
Property: Mass density, kg/m3 (Liquid); method: VIBTUB:UFactor:4
Mole fraction of tetrachloroethene	Mass density, kg/m3	uncertainty
0	797.4	0.7
0.0888	875.6	0.6
0.1798	955.1	0.6
0.2732	1034.4	0.6
0.3692	1114.1	0.8
0.4672	1193.9	0.9
0.5688	1275.5	1
0.6719	1356.5	1.1
0.7786	1441.7	1.3
0.8873	1524.2	1.4
1	1610.2	1.6

System: methyl ethanoate + tetrachloroethene; phases: Liquid
Fixed: Temperature, K = 298.15
Fixed: Pressure, kPa = 101.3
Property: Viscosity, Pa*s (Liquid); method: Capillary tube (Ostwald; Ubbelohde) method
Mole fraction of tetrachloroethene	Viscosity, Pa*s	uncertainty
0	0.0003711	6.8e-06
0.0796	0.0004237	7e-06
0.1628	0.0004749	7.2e-06
0.25	0.0005226	7.4e-06
0.3415	0.0005729	7.6e-06
0.4373	0.0006243	7.9e-06
0.5388	0.0006708	8.1e-06
0.6452	0.0007166	8.4e-06
0.7573	0.0007614	8.6e-06
0.8749	0.0008038	8.9e-06
1	0.0008474	9.1e-06

System: methyl ethanoate + tetrachloroethene; phases: Liquid
Fixed: Temperature, K = 298.15
Fixed: Pressure, kPa = 101.3
Property: Mass density, kg/m3 (Liquid); method: VIBTUB:UFactor:4
Mole fraction of tetrachloroethene	Mass density, kg/m3	uncertainty
0	923.9	0.6
0.0796	989.2	0.5
0.1628	1054.7	0.6
0.25	1120.7	0.7
0.3415	1188.6	0.8
0.4373	1255.3	1
0.5388	1322.7	1.1
0.6452	1393.1	1.2
0.7573	1464.2	1.3
0.8749	1535.4	1.5
1	1610.2	1.6

System: tetrachloroethene + ethyl acetate; phases: Liquid
Fixed: Temperature, K = 298.15
Fixed: Pressure, kPa = 101.3
Property: Viscosity, Pa*s (Liquid); method: Capillary tube (Ostwald; Ubbelohde) method
Mole fraction of tetrachloroethene	Viscosity, Pa*s	uncertainty
0	0.0004274	7e-06
0.0962	0.0004946	7.3e-06
0.1932	0.0005525	7.5e-06
0.291	0.0006095	7.8e-06
0.3899	0.0006633	8.1e-06
0.4894	0.000711	8.3e-06
0.5901	0.0007481	8.5e-06
0.6911	0.0007788	8.7e-06
0.7937	0.0008078	8.9e-06
0.8964	0.0008295	9e-06
1	0.0008474	9.1e-06

System: tetrachloroethene + ethyl acetate; phases: Liquid
Fixed: Temperature, K = 298.15
Fixed: Pressure, kPa = 101.3
Property: Mass density, kg/m3 (Liquid); method: VIBTUB:UFactor:4
Mole fraction of tetrachloroethene	Mass density, kg/m3	uncertainty
0	894	0.6
0.0962	961.2	0.6
0.1932	1030.8	0.6
0.291	1100.6	0.7
0.3899	1171	0.8
0.4894	1241.8	1
0.5901	1313.6	1.1
0.6911	1385.7	1.2
0.7937	1460	1.3
0.8964	1534.5	1.5
1	1610.2	1.6

System: tetrachloromethane + tetrachloroethene; phases: Liquid
Fixed: Temperature, K = 298.15
Fixed: Pressure, kPa = 101.3
Property: Viscosity, Pa*s (Liquid); method: Capillary tube (Ostwald; Ubbelohde) method
Mole fraction of tetrachloroethene	Viscosity, Pa*s	uncertainty
0	0.0009096	9.5e-06
0.0946	0.0008943	9.4e-06
0.1904	0.0008803	9.3e-06
0.2873	0.0008675	9.2e-06
0.3853	0.0008569	9.2e-06
0.4845	0.0008504	9.1e-06
0.5859	0.0008452	9.1e-06
0.6876	0.0008407	9.1e-06
0.7904	0.0008422	9.1e-06
0.8946	0.0008445	9.1e-06
1	0.0008474	9.1e-06

System: tetrachloromethane + tetrachloroethene; phases: Liquid
Fixed: Temperature, K = 298.15
Fixed: Pressure, kPa = 101.3
Property: Mass density, kg/m3 (Liquid); method: VIBTUB:UFactor:4
Mole fraction of tetrachloroethene	Mass density, kg/m3	uncertainty
0	1586.1	1.6
0.0946	1583.5	1.6
0.1904	1582.4	1.6
0.2873	1582	1.6
0.3853	1582.5	1.6
0.4845	1583.8	1.6
0.5859	1587.2	1.6
0.6876	1590.1	1.6
0.7904	1596.8	1.6
0.8946	1603.2	1.6
1	1610.2	1.6

System: benzene + tetrachloroethene; phases: Liquid
Fixed: Temperature, K = 298.15
Fixed: Pressure, kPa = 101.3
Property: Viscosity, Pa*s (Liquid); method: Capillary tube (Ostwald; Ubbelohde) method
Mole fraction of tetrachloroethene	Viscosity, Pa*s	uncertainty
0	0.000608	7.8e-06
0.0883	0.0006141	7.8e-06
0.1788	0.0006279	7.9e-06
0.272	0.0006438	8e-06
0.3674	0.0006618	8.1e-06
0.4655	0.0006834	8.2e-06
0.5671	0.0007088	8.3e-06
0.6706	0.0007367	8.5e-06
0.777	0.0007693	8.7e-06
0.8873	0.0008051	8.9e-06
1	0.0008474	9.1e-06

System: benzene + tetrachloroethene; phases: Liquid
Fixed: Temperature, K = 298.15
Fixed: Pressure, kPa = 101.3
Property: Mass density, kg/m3 (Liquid); method: VIBTUB:UFactor:4
Mole fraction of tetrachloroethene	Mass density, kg/m3	uncertainty
0	869.7	0.6
0.0883	939.8	0.6
0.1788	1011.5	0.5
0.272	1084.6	0.7
0.3674	1156.7	0.8
0.4655	1228.8	0.9
0.5671	1302.3	1.1
0.6706	1377.4	1.2
0.777	1453.2	1.3
0.8873	1531.7	1.5
1	1610.2	1.6

System: toluene + tetrachloroethene; phases: Liquid
Fixed: Temperature, K = 298.15
Fixed: Pressure, kPa = 101.3
Property: Viscosity, Pa*s (Liquid); method: Capillary tube (Ostwald; Ubbelohde) method
Mole fraction of tetrachloroethene	Viscosity, Pa*s	uncertainty
0	0.0005641	7.6e-06
0.1034	0.0005799	7.7e-06
0.2062	0.0006014	7.8e-06
0.3079	0.0006234	7.9e-06
0.4093	0.0006477	8e-06
0.5095	0.0006743	8.1e-06
0.6092	0.0007053	8.3e-06
0.7083	0.0007377	8.5e-06
0.806	0.0007701	8.7e-06
0.9038	0.0008084	8.9e-06
1	0.0008474	9.1e-06

System: toluene + tetrachloroethene; phases: Liquid
Fixed: Temperature, K = 298.15
Fixed: Pressure, kPa = 101.3
Property: Mass density, kg/m3 (Liquid); method: VIBTUB:UFactor:4
Mole fraction of tetrachloroethene	Mass density, kg/m3	uncertainty
0	860.5	0.6
0.1034	932	0.6
0.2062	1004.7	0.6
0.3079	1078.4	0.7
0.4093	1151.3	0.8
0.5095	1225.3	0.9
0.6092	1300.1	1.1
0.7083	1376.8	1.2
0.806	1451.7	1.3
0.9038	1530.1	1.5
1	1610.2	1.6
