Measured thermophysical data. P-V-T Behaviour of 1,1,1,2,3,3,3-Heptafluoropropane (R227ea)
Source: J. Chem. Eng. Data, 2003, 10.1021/je034084d
Compound 1: 1,1,1,2,3,3,3-heptafluoropropane, C3HF7, InChI=1S/C3HF7/c4-1(2(5,6)7)3(8,9)10/h1H, purity 99.7%

System: 1,1,1,2,3,3,3-heptafluoropropane; phases: Liquid, Gas
Property: Vapor or sublimation pressure, kPa (Liquid); method: ISOPVT
Temperature, K	Vapor or sublimation pressure, kPa	uncertainty
235.07	35.5	1.1
240.23	46.5	1.1
245.31	59.9	1.1
250.44	76.3	1.1
255.11	94.1	1.1
260.28	117.5	1.1
265.66	146.4	1.1
270.55	177.2	1.1
275.23	211.1	1.1
280.19	252.4	1.1
285.44	302.4	1.2
290.14	353.3	1.2
295.27	416.1	1.2
300.24	484.6	1.2
305.29	562.6	1.3
310.37	650.5	1.3
315.41	747.3	1.3
320.07	845.9	1.4
325.19	965.7	1.4
329.97	1088.3	1.5
335.04	1230.8	1.6
339.99	1383	1.6
345.15	1556.8	1.7
350.26	1744.7	1.8
355.11	1939	1.9
360.18	2159.7	2
365.27	2401.5	2.1

System: 1,1,1,2,3,3,3-heptafluoropropane; phases: Gas
Property: Molar volume, m3/mol (Gas); method: ISOCHOR
Temperature, K	Pressure, kPa	Molar volume, m3/mol	uncertainty
293.37	214.8	0.010597	5e-06
298.02	297.6	0.007594	3e-06
298.06	219	0.010599	5e-06
298.58	387	0.00567	2e-06
303.22	304.1	0.007596	3e-06
303.42	223.7	0.010602	5e-06
303.52	484.7	0.004479	2e-06
303.65	395.8	0.005671	2e-06
308.37	228	0.010604	5e-06
308.57	310.7	0.007598	3e-06
308.57	562.5	0.003857	2e-06
308.67	496.4	0.00448	2e-06
308.69	404.7	0.005672	2e-06
313.63	507.6	0.004481	2e-06
313.69	413.2	0.005673	2e-06
314.14	232.7	0.010607	5e-06
314.16	317.9	0.0076	3e-06
314.22	577.9	0.003858	2e-06
318.62	518.9	0.004482	2e-06
318.66	421.6	0.005675	2e-06
319.44	237.1	0.010609	5e-06
319.6	324.5	0.007601	3e-06
319.97	593.4	0.003859	2e-06
323.74	530.4	0.004483	2e-06
323.82	430.2	0.005676	2e-06
324.15	241.1	0.010611	5e-06
324.21	329.9	0.007603	3e-06
324.39	605.1	0.003859	2e-06
328.01	244.4	0.010613	5e-06
328.19	334.6	0.007604	3e-06
328.2	614.9	0.00386	2e-06
328.46	540.6	0.004484	2e-06
328.9	438.8	0.005677	2e-06
333.39	248.8	0.010616	5e-06
333.4	551.4	0.004485	2e-06
333.62	341.1	0.007606	3e-06
333.92	629.9	0.003861	2e-06
334.02	447.3	0.005679	2e-06
338.69	642	0.003862	2e-06
338.92	253.5	0.010618	5e-06
338.96	347.5	0.007608	3e-06
338.96	563.3	0.004486	2e-06
339.15	455.7	0.00568	2e-06
343.8	257.7	0.01062	5e-06
343.94	655.2	0.003863	2e-06
343.99	353.6	0.00761	3e-06
344.11	574.3	0.004487	2e-06
344.27	464.1	0.005681	2e-06
348.97	359.5	0.007611	3e-06
349.04	261.8	0.010623	5e-06
349.14	668.4	0.003864	2e-06
349.17	585	0.004488	2e-06
349.21	472.1	0.005682	2e-06
353.32	364.5	0.007613	3e-06
353.39	679.1	0.003864	2e-06
353.64	265.6	0.010625	5e-06
354.39	596	0.004489	2e-06
354.73	481	0.005684	2e-06
