Measured thermophysical data. Isothermal Vapor-Liquid Equilibrium Data for the Systems 1,4-Dioxane + Water + Tetrabutylammonium Nitrate and Acetonitrile + Water + Tetrabutylammonium Bromide
Source: J. Chem. Eng. Data, 2004, 10.1021/je0301287
Compound 1: 1,4-dioxane, C4H8O2, InChI=1S/C4H8O2/c1-2-6-4-3-5-1/h1-4H2, purity 99.8%
Compound 2: water, H2O, InChI=1S/H2O/h1H2
Compound 3: tetrabutylammonium nitrate, C16H36N2O3, InChI=1S/C16H36N.NO3/c1-5-9-13-17(14-10-6-2,15-11-7-3)16-12-8-4;2-1(3)4/h5-16H2,1-4H3;/q+1;-1, purity 99%
Compound 4: tetrabutylammonium bromide, C16H36BrN, InChI=1S/C16H36N.BrH/c1-5-9-13-17(14-10-6-2,15-11-7-3)16-12-8-4;/h5-16H2,1-4H3;1H/q+1;/p-1, purity 99%
Compound 5: acetonitrile, C2H3N, InChI=1S/C2H3N/c1-2-3/h1H3, purity 99.9%

System: 1,4-dioxane + tetrabutylammonium nitrate + water; phases: Gas, Liquid
Property: Mole fraction of 1,4-dioxane (Gas); method: CHROM:UFactor:8
Temperature, K	Molality, mol/kg of tetrabutylammonium nitrate	Solvent: Mole fraction of 1,4-dioxane	Mole fraction of 1,4-dioxane	uncertainty
288	0.1	0.0503	0.274	0.0213
288	0.1	0.1002	0.4316	0.0324
288	0.1	0.171	0.5144	0.0362
288	0.1	0.5007	0.6287	0.0277
288	0.1	0.7005	0.6747	0.0242
288	0.1	0.9004	0.794	0.0154
288	0.25	0.0503	0.2816	0.0219
288	0.25	0.1002	0.4364	0.0327
288	0.25	0.171	0.5186	0.0359
288	0.25	0.5007	0.6315	0.0275
288	0.25	0.7005	0.6787	0.024
288	0.25	0.9004	0.7942	0.0154
288	0.5	0.0503	0.2904	0.0225
288	0.5	0.1002	0.4426	0.0332
288	0.5	0.171	0.5281	0.0352
288	0.5	0.5007	0.6363	0.0271
288	0.5	0.7005	0.6837	0.0236
288	0.5	0.9004	0.792	0.0155
288	0.75	0.0503	0.296	0.0229
288	0.75	0.1002	0.4504	0.0337
288	0.75	0.171	0.5379	0.0345
288	0.75	0.5007	0.6417	0.0267
288	0.75	0.7005	0.6883	0.0232
288	0.75	0.9004	0.7893	0.0157
288	1	0.0503	0.3044	0.0235
288	1	0.1002	0.4596	0.0344
288	1	0.171	0.5467	0.0338
288	1	0.5007	0.6449	0.0265
288	1	0.7005	0.6925	0.0229
288	1	0.9004	0.7864	0.016
288	1.5	0.0503	0.3183	0.0245
288	1.5	0.1002	0.4763	0.0357
288	1.5	0.171	0.5584	0.033
288	1.5	0.5007	0.6516	0.026
288	1.5	0.7005	0.6943	0.0228
288	1.5	0.9004	0.7814	0.0163
288	2	0.0503	0.3336	0.0256
288	2	0.1002	0.4844	0.0362
288	2	0.171	0.5647	0.0325
288	2	0.5007	0.6534	0.0258
288	2	0.7005	0.6906	0.0231
288	2	0.9004	0.7774	0.0166
288	2.5	0.0503	0.3423	0.0262
288	2.5	0.1002	0.492	0.0368
288	2.5	0.171	0.5705	0.0321
288	2.5	0.5007	0.6527	0.0259
288	2.5	0.7005	0.6866	0.0234
288	2.5	0.9004	0.7717	0.017
288	3	0.0503	0.3497	0.0267
288	3	0.1002	0.5014	0.0373
288	3	0.171	0.5723	0.0319
288	3	0.5007	0.6502	0.0261
288	3	0.7005	0.6831	0.0236
288	3	0.9004	0.764	0.0176
288	3.5	0.0503	0.3547	0.0271
288	3.5	0.1002	0.5072	0.0368
288	3.5	0.171	0.5747	0.0317
288	3.5	0.5007	0.6481	0.0262
288	3.5	0.7005	0.6781	0.024
288	3.5	0.9004	0.7566	0.0182
288	4	0.0503	0.3611	0.0276
288	4	0.1002	0.5143	0.0363
288	4	0.171	0.5725	0.0319
288	4	0.5007	0.6456	0.0264
288	4	0.7005	0.6727	0.0244
288	4	0.9004	0.7474	0.0188
298	0.1	0.0503	0.2641	0.0207
298	0.1	0.1002	0.4273	0.032
298	0.1	0.171	0.5085	0.0367
298	0.1	0.5007	0.6167	0.0286
298	0.1	0.7005	0.6647	0.025
298	0.1	0.9004	0.7674	0.0174
298	0.25	0.0503	0.2708	0.0212
298	0.25	0.1002	0.4349	0.0326
298	0.25	0.171	0.5166	0.0361
298	0.25	0.5007	0.6204	0.0283
298	0.25	0.7005	0.6675	0.0248
298	0.25	0.9004	0.764	0.0176
298	0.5	0.0503	0.2786	0.0217
298	0.5	0.1002	0.4405	0.033
298	0.5	0.171	0.5226	0.0356
298	0.5	0.5007	0.623	0.0281
298	0.5	0.7005	0.6724	0.0244
298	0.5	0.9004	0.7615	0.0178
298	0.75	0.0503	0.2855	0.0222
298	0.75	0.1002	0.4463	0.0334
298	0.75	0.171	0.5315	0.035
298	0.75	0.5007	0.6288	0.0277
298	0.75	0.7005	0.6753	0.0242
298	0.75	0.9004	0.759	0.018
298	1	0.0503	0.2904	0.0226
298	1	0.1002	0.4516	0.0338
298	1	0.171	0.5358	0.0346
298	1	0.5007	0.6297	0.0276
298	1	0.7005	0.6753	0.0242
298	1	0.9004	0.7555	0.0182
298	1.5	0.0503	0.2971	0.023
298	1.5	0.1002	0.4598	0.0344
298	1.5	0.171	0.5489	0.0337
298	1.5	0.5007	0.6307	0.0275
298	1.5	0.7005	0.674	0.0243
298	1.5	0.9004	0.748	0.0188
298	2	0.0503	0.3021	0.0234
298	2	0.1002	0.4661	0.0349
298	2	0.171	0.5533	0.0333
298	2	0.5007	0.6277	0.0277
298	2	0.7005	0.6691	0.0247
298	2	0.9004	0.7374	0.0196
298	2.5	0.0503	0.3086	0.0238
298	2.5	0.1002	0.4685	0.0351
298	2.5	0.171	0.5506	0.0335
298	2.5	0.5007	0.6227	0.0281
298	2.5	0.7005	0.6634	0.0251
298	2.5	0.9004	0.7253	0.0205
298	3	0.0503	0.3126	0.024
298	3	0.1002	0.4695	0.0351
298	3	0.171	0.5485	0.0337
298	3	0.5007	0.6164	0.0286
298	3	0.7005	0.6585	0.0254
298	3	0.9004	0.7139	0.0213
298	3.5	0.0503	0.3143	0.0242
298	3.5	0.1002	0.4704	0.0352
298	3.5	0.171	0.5453	0.0339
298	3.5	0.5007	0.6128	0.0288
298	3.5	0.7005	0.6537	0.0258
298	3.5	0.9004	0.7056	0.0219
298	4	0.0503	0.3164	0.0242
298	4	0.1002	0.4695	0.0351
298	4	0.171	0.5417	0.0342
298	4	0.5007	0.6065	0.0293
298	4	0.7005	0.647	0.0263
298	4	0.9004	0.6983	0.0225
308	0.1	0.0503	0.2514	0.0195
308	0.1	0.1002	0.3906	0.0293
308	0.1	0.171	0.4974	0.0371
308	0.1	0.5007	0.6103	0.029
308	0.1	0.7005	0.6487	0.0262
308	0.1	0.9004	0.741	0.0193
308	0.25	0.0503	0.2569	0.0199
308	0.25	0.1002	0.3964	0.0298
308	0.25	0.171	0.5035	0.0371
308	0.25	0.5007	0.6154	0.0286
308	0.25	0.7005	0.6511	0.026
308	0.25	0.9004	0.737	0.0196
308	0.5	0.0503	0.2623	0.0203
308	0.5	0.1002	0.4032	0.0303
308	0.5	0.171	0.5107	0.0366
308	0.5	0.5007	0.621	0.0282
308	0.5	0.7005	0.6517	0.026
308	0.5	0.9004	0.7326	0.0199
308	0.75	0.0503	0.2677	0.0207
308	0.75	0.1002	0.4094	0.0307
308	0.75	0.171	0.5205	0.0358
308	0.75	0.5007	0.6265	0.0278
308	0.75	0.7005	0.6523	0.0259
308	0.75	0.9004	0.7239	0.0206
308	1	0.0503	0.271	0.021
308	1	0.1002	0.4144	0.0311
308	1	0.171	0.5246	0.0355
308	1	0.5007	0.6275	0.0277
308	1	0.7005	0.6497	0.0261
308	1	0.9004	0.7259	0.0204
308	1.5	0.0503	0.2802	0.0215
308	1.5	0.1002	0.4164	0.0312
308	1.5	0.171	0.5299	0.0351
308	1.5	0.5007	0.6227	0.0281
308	1.5	0.7005	0.6452	0.0264
308	1.5	0.9004	0.7186	0.021
308	2	0.0503	0.2884	0.0221
308	2	0.1002	0.4187	0.0314
308	2	0.171	0.5274	0.0353
308	2	0.5007	0.6167	0.0286
308	2	0.7005	0.6396	0.0268
308	2	0.9004	0.7093	0.0217
308	2.5	0.0503	0.2957	0.0225
308	2.5	0.1002	0.4193	0.0314
308	2.5	0.171	0.5248	0.0355
308	2.5	0.5007	0.6106	0.029
308	2.5	0.7005	0.632	0.0274
308	2.5	0.9004	0.6985	0.0225
308	3	0.0503	0.303	0.0231
308	3	0.1002	0.4225	0.0316
308	3	0.171	0.5167	0.0361
308	3	0.5007	0.6055	0.0294
308	3	0.7005	0.6259	0.0279
308	3	0.9004	0.6853	0.0235
308	3.5	0.0503	0.2986	0.0227
308	3.5	0.1002	0.4184	0.0313
308	3.5	0.171	0.5125	0.0364
308	3.5	0.5007	0.5987	0.0299
308	3.5	0.7005	0.6204	0.0283
308	3.5	0.9004	0.673	0.0244
308	4	0.0503	0.2964	0.0226
308	4	0.1002	0.416	0.0311
308	4	0.171	0.4971	0.0371
308	4	0.5007	0.5923	0.0304
308	4	0.7005	0.6148	0.0287
308	4	0.9004	0.6667	0.0248

System: acetonitrile + tetrabutylammonium bromide + water; phases: Gas, Liquid
Property: Mole fraction of acetonitrile (Gas); method: CHROM:UFactor:8
Temperature, K	Molality, mol/kg of tetrabutylammonium bromide	Solvent: Mole fraction of acetonitrile	Mole fraction of acetonitrile	uncertainty
298	0.2	0.0207	0.2937	0.0255
298	0.2	0.0514	0.4951	0.0376
298	0.2	0.1008	0.6068	0.0294
298	0.2	0.2011	0.6993	0.0224
298	0.2	0.2968	0.7186	0.021
298	0.2	0.4024	0.7503	0.0186
298	0.2	0.4987	0.7737	0.0169
298	0.2	0.6546	0.782	0.0162
298	0.2	0.7531	0.7903	0.0157
298	0.2	0.8496	0.8648	0.0102
298	0.2	0.9503	0.9379	0.0049
298	0.4	0.0207	0.2441	0.0211
298	0.4	0.0514	0.4193	0.0321
298	0.4	0.1008	0.5586	0.033
298	0.4	0.2011	0.6703	0.0246
298	0.4	0.2968	0.6924	0.0229
298	0.4	0.4024	0.7268	0.0204
298	0.4	0.4987	0.7558	0.0182
298	0.4	0.6546	0.7641	0.0176
298	0.4	0.7531	0.7765	0.0167
298	0.4	0.8496	0.8441	0.0117
298	0.4	0.9503	0.9144	0.0065
298	0.6	0.0207	0.2248	0.0193
298	0.6	0.0514	0.3696	0.0283
298	0.6	0.1008	0.5048	0.037
298	0.6	0.2011	0.6206	0.0283
298	0.6	0.2968	0.6606	0.0253
298	0.6	0.4024	0.6924	0.0229
298	0.6	0.4987	0.7351	0.0197
298	0.6	0.6546	0.7475	0.0188
298	0.6	0.7531	0.7586	0.018
298	0.6	0.8496	0.8193	0.0135
298	0.6	0.9503	0.8924	0.0082
298	0.8	0.0207	0.1944	0.0167
298	0.8	0.0514	0.3186	0.0246
298	0.8	0.1008	0.4662	0.0349
298	0.8	0.2011	0.5931	0.0303
298	0.8	0.2968	0.6275	0.0278
298	0.8	0.4024	0.6772	0.0241
298	0.8	0.4987	0.7199	0.0209
298	0.8	0.6546	0.7337	0.0198
298	0.8	0.7531	0.7475	0.0188
298	0.8	0.8496	0.8013	0.0149
298	0.8	0.9503	0.8772	0.0093
298	1	0.0207	0.1558	0.0132
298	1	0.0514	0.2537	0.02
298	1	0.1008	0.4262	0.0319
298	1	0.2011	0.5558	0.0331
298	1	0.2968	0.6055	0.0294
298	1	0.4024	0.6468	0.0263
298	1	0.4987	0.6993	0.0224
298	1	0.6546	0.7172	0.0211
298	1	0.7531	0.7324	0.0199
298	1	0.8496	0.7779	0.0166
298	1	0.9503	0.8606	0.0105
323	0.2	0.0207	0.3199	0.0252
323	0.2	0.0514	0.4455	0.0339
323	0.2	0.1008	0.6027	0.0297
323	0.2	0.2011	0.6744	0.0243
323	0.2	0.2968	0.6896	0.0231
323	0.2	0.4024	0.7089	0.0217
323	0.2	0.4987	0.7241	0.0206
323	0.2	0.6546	0.7379	0.0195
323	0.2	0.7531	0.7572	0.0181
323	0.2	0.8496	0.8606	0.0105
323	0.2	0.9503	0.9324	0.0052
323	0.4	0.0207	0.2689	0.0214
323	0.4	0.0514	0.3848	0.0294
323	0.4	0.1008	0.5337	0.0348
323	0.4	0.2011	0.6248	0.028
323	0.4	0.2968	0.6439	0.0265
323	0.4	0.4024	0.6565	0.0256
323	0.4	0.4987	0.6744	0.0243
323	0.4	0.6546	0.6924	0.0229
323	0.4	0.7531	0.7172	0.0211
323	0.4	0.8496	0.8468	0.0116
323	0.4	0.9503	0.9186	0.0062
323	0.6	0.0207	0.2179	0.018
323	0.6	0.0514	0.3365	0.0259
323	0.6	0.1008	0.4882	0.0364
323	0.6	0.2011	0.5724	0.0318
323	0.6	0.2968	0.5889	0.0306
323	0.6	0.4024	0.6068	0.0293
323	0.6	0.4987	0.6248	0.0279
323	0.6	0.6546	0.6468	0.0263
323	0.6	0.7531	0.6799	0.0239
323	0.6	0.8496	0.8317	0.0127
323	0.6	0.9503	0.902	0.0074
323	0.8	0.0207	0.1627	0.0146
323	0.8	0.0514	0.2965	0.0232
323	0.8	0.1008	0.4537	0.0339
323	0.8	0.2011	0.5241	0.0354
323	0.8	0.2968	0.542	0.0341
323	0.8	0.4024	0.5544	0.0332
323	0.8	0.4987	0.5779	0.0314
323	0.8	0.6546	0.6013	0.0297
323	0.8	0.7531	0.64	0.0269
323	0.8	0.8496	0.8165	0.0139
323	0.8	0.9503	0.891	0.0083
323	1	0.0207	0.1337	0.0131
323	1	0.0514	0.2648	0.0209
323	1	0.1008	0.4165	0.0311
323	1	0.2011	0.4731	0.0352
323	1	0.2968	0.4937	0.0367
323	1	0.4024	0.5144	0.0361
323	1	0.4987	0.531	0.0349
323	1	0.6546	0.5572	0.033
323	1	0.7531	0.6027	0.0297
323	1	0.8496	0.8082	0.0146
323	1	0.9503	0.8772	0.0093
