Measured thermophysical data. Thermodynamic Study of Binary Mixtures Containing Glycols or Polyethylene Glycols + Benzyl Alcohol at 308.15 K
Source: J. Chem. Eng. Data, 2004, 10.1021/je0342062
Compound 1: 1,2-ethanediol, C2H6O2, InChI=1S/C2H6O2/c3-1-2-4/h3-4H,1-2H2
Compound 2: diethylene glycol, C4H10O3, InChI=1S/C4H10O3/c5-1-3-7-4-2-6/h5-6H,1-4H2
Compound 3: triethylene glycol, C6H14O4, InChI=1S/C6H14O4/c7-1-3-9-5-6-10-4-2-8/h7-8H,1-6H2
Compound 4: tetraethylene glycol, C8H18O5, InChI=1S/C8H18O5/c9-1-3-11-5-7-13-8-6-12-4-2-10/h9-10H,1-8H2
Compound 5: benzenemethanol, C7H8O, InChI=1S/C7H8O/c8-6-7-4-2-1-3-5-7/h1-5,8H,6H2

System: 1,2-ethanediol; phases: Liquid
Fixed: Pressure, kPa = 101.325
Property: Mass density, kg/m3 (Liquid); method: Vibrating tube method
Temperature, K	Mass density, kg/m3	uncertainty
298.15	1109.8	0.57
308.15	1102.93	0.56

System: diethylene glycol; phases: Liquid
Fixed: Pressure, kPa = 101.325
Property: Mass density, kg/m3 (Liquid); method: Vibrating tube method
Temperature, K	Mass density, kg/m3	uncertainty
298.15	1112.38	0.57
308.15	1105.88	0.56

System: triethylene glycol; phases: Liquid
Fixed: Pressure, kPa = 101.325
Property: Mass density, kg/m3 (Liquid); method: Vibrating tube method
Temperature, K	Mass density, kg/m3	uncertainty
298.15	1119.78	0.57
308.15	1112.61	0.57

System: tetraethylene glycol; phases: Liquid
Fixed: Pressure, kPa = 101.325
Property: Mass density, kg/m3 (Liquid); method: Vibrating tube method
Temperature, K	Mass density, kg/m3	uncertainty
298.15	1120.09	0.57
308.15	1112.31	0.57

System: benzenemethanol; phases: Liquid
Fixed: Pressure, kPa = 101.325
Property: Mass density, kg/m3 (Liquid); method: Vibrating tube method
Temperature, K	Mass density, kg/m3	uncertainty
298.15	1041.46	0.53
308.15	1033.7	0.52

System: benzenemethanol + 1,2-ethanediol; phases: Liquid
Fixed: Pressure, kPa = 101.32
Fixed: Temperature, K = 308.15
Property: Excess molar enthalpy (molar enthalpy of mixing), kJ/mol (Liquid); method: FLOW:UFactor:4
Mole fraction of 1,2-ethanediol	Excess molar enthalpy (molar enthalpy of mixing), kJ/mol	uncertainty
0.0719	0.1157	0.0067
0.1341	0.1712	0.0084
0.1886	0.2017	0.0093
0.2365	0.209	0.0096
0.3173	0.2143	0.0097
0.3826	0.2105	0.0096
0.4817	0.201	0.0093
0.5533	0.1912	0.009
0.6502	0.168	0.0083
0.7361	0.1383	0.0074
0.788	0.118	0.0068
0.848	0.086	0.0058
0.8815	0.0712	0.0053
0.9177	0.0477	0.0046
0.937	0.0366	0.0042
0.9571	0.0252	0.0039
0.9781	0.0125	0.0035

System: benzenemethanol + 1,2-ethanediol; phases: Liquid
Fixed: Pressure, kPa = 101.32
Fixed: Temperature, K = 308.15
Property: Mass density, kg/m3 (Liquid); method: Vibrating tube method
Mole fraction of 1,2-ethanediol	Mass density, kg/m3	uncertainty
0.0395	1035.06	0.52
0.1313	1038.54	0.53
0.2622	1044.29	0.53
0.3189	1047.1	0.53
0.4645	1055.28	0.54
0.5057	1057.9	0.54
0.609	1065.04	0.54
0.6863	1071.03	0.54
0.7371	1075.32	0.55
0.8097	1081.99	0.55
0.879	1088.96	0.55
0.9638	1098.48	0.56

System: benzenemethanol + diethylene glycol; phases: Liquid
Fixed: Pressure, kPa = 101.32
Fixed: Temperature, K = 308.15
Property: Excess molar enthalpy (molar enthalpy of mixing), kJ/mol (Liquid); method: FLOW:UFactor:4
Mole fraction of diethylene glycol	Excess molar enthalpy (molar enthalpy of mixing), kJ/mol	uncertainty
0.0434	-0.1413	0.0075
0.0833	-0.2359	0.0104
0.1199	-0.3001	0.0124
0.1537	-0.3441	0.0138
0.2142	-0.3954	0.0154
0.2665	-0.4216	0.0162
0.3528	-0.4394	0.0167
0.4208	-0.4471	0.017
0.5216	-0.4574	0.0173
0.6206	-0.4488	0.017
0.6856	-0.4287	0.0164
0.7658	-0.3712	0.0146
0.8135	-0.3309	0.0134
0.8674	-0.2505	0.0109
0.897	-0.2095	0.0096
0.929	-0.1513	0.0078
0.9632	-0.0826	0.0057

System: benzenemethanol + diethylene glycol; phases: Liquid
Fixed: Pressure, kPa = 101.32
Fixed: Temperature, K = 308.15
Property: Mass density, kg/m3 (Liquid); method: Vibrating tube method
Mole fraction of diethylene glycol	Mass density, kg/m3	uncertainty
0.0719	1038.79	0.53
0.1308	1042.93	0.53
0.2285	1049.76	0.53
0.3115	1055.63	0.54
0.4139	1062.92	0.54
0.5312	1071.36	0.54
0.6035	1076.6	0.55
0.7277	1085.7	0.55
0.8237	1092.77	0.56
0.8597	1095.43	0.56
0.8984	1098.29	0.56
0.9539	1102.43	0.56

System: benzenemethanol + triethylene glycol; phases: Liquid
Fixed: Pressure, kPa = 101.32
Fixed: Temperature, K = 308.15
Property: Excess molar enthalpy (molar enthalpy of mixing), kJ/mol (Liquid); method: FLOW:UFactor:2
Mole fraction of triethylene glycol	Excess molar enthalpy (molar enthalpy of mixing), kJ/mol	uncertainty
0.0313	-0.1392	0.0038
0.0606	-0.2409	0.0054
0.0883	-0.3145	0.0067
0.1143	-0.3695	0.0076
0.1623	-0.4341	0.0087
0.2047	-0.466	0.0093
0.2792	-0.492	0.0097
0.3405	-0.5019	0.0099
0.4366	-0.5055	0.0099
0.5376	-0.5042	0.0099
0.6078	-0.5001	0.0099
0.6992	-0.4552	0.0091
0.756	-0.405	0.0082
0.823	-0.3311	0.0069
0.8613	-0.2781	0.006
0.9029	-0.2101	0.0049
0.949	-0.1	0.0031

System: benzenemethanol + triethylene glycol; phases: Liquid
Fixed: Pressure, kPa = 101.32
Fixed: Temperature, K = 308.15
Property: Mass density, kg/m3 (Liquid); method: Vibrating tube method
Mole fraction of triethylene glycol	Mass density, kg/m3	uncertainty
0.0519	1039.48	0.53
0.174	1051.93	0.53
0.2411	1058.18	0.54
0.3373	1066.69	0.54
0.4327	1074.57	0.55
0.5295	1082.04	0.55
0.632	1089.43	0.55
0.7533	1097.6	0.56
0.8256	1102.12	0.56
0.8572	1104.07	0.56
0.9337	1108.5	0.56
0.961	1110.01	0.57

System: benzenemethanol + tetraethylene glycol; phases: Liquid
Fixed: Pressure, kPa = 101.32
Fixed: Temperature, K = 308.15
Property: Excess molar enthalpy (molar enthalpy of mixing), kJ/mol (Liquid); method: FLOW:UFactor:2
Mole fraction of tetraethylene glycol	Excess molar enthalpy (molar enthalpy of mixing), kJ/mol	uncertainty
0.0244	-0.1579	0.0041
0.0475	-0.2793	0.0061
0.0697	-0.366	0.0076
0.0908	-0.4379	0.0088
0.1303	-0.5326	0.0104
0.1665	-0.5915	0.0114
0.2305	-0.6406	0.0123
0.2853	-0.6805	0.013
0.3747	-0.708	0.0134
0.4734	-0.7339	0.0139
0.5451	-0.7273	0.0138
0.6425	-0.6723	0.0128
0.7056	-0.6094	0.0117
0.7824	-0.4768	0.0095
0.8274	-0.3856	0.0079
0.8778	-0.2588	0.0057
0.9349	-0.1212	0.0035

System: benzenemethanol + tetraethylene glycol; phases: Liquid
Fixed: Pressure, kPa = 101.32
Fixed: Temperature, K = 308.15
Property: Mass density, kg/m3 (Liquid); method: Vibrating tube method
Mole fraction of tetraethylene glycol	Mass density, kg/m3	uncertainty
0.0793	1044.72	0.53
0.1126	1048.88	0.53
0.2056	1059.34	0.54
0.2511	1063.96	0.54
0.3592	1073.84	0.55
0.4688	1082.58	0.55
0.5786	1090.24	0.55
0.6885	1096.97	0.56
0.7489	1100.31	0.56
0.8169	1103.87	0.56
0.9226	1108.94	0.57
0.9433	1109.85	0.57
