Measured thermophysical data. Liquid Densities and Refractive Indices of Binary Mixtures for the Dimethyl Ether of a Glycol + Ethanol from T=288.15 K to 318.15 K
Source: J. Chem. Eng. Data, 2004, 10.1021/je0302304
Compound 1: ethanol, C2H6O, InChI=1S/C2H6O/c1-2-3/h3H,2H2,1H3
Compound 2: 1,2-dimethoxyethane, C4H10O2, InChI=1S/C4H10O2/c1-5-3-4-6-2/h3-4H2,1-2H3
Compound 3: 2,5,8-trioxanonane, C6H14O3, InChI=1S/C6H14O3/c1-7-3-5-9-6-4-8-2/h3-6H2,1-2H3
Compound 4: 2,5,8,11-tetraoxadodecane, C8H18O4, InChI=1S/C8H18O4/c1-9-3-5-11-7-8-12-6-4-10-2/h3-8H2,1-2H3
Compound 5: 2,5,8,11,14-pentaoxapentadecane, C10H22O5, InChI=1S/C10H22O5/c1-11-3-5-13-7-9-15-10-8-14-6-4-12-2/h3-10H2,1-2H3

System: ethanol; phases: Liquid
Fixed: Pressure, kPa = 101.325
Property: Refractive index (Na D-line) (Liquid); method: Standard Abbe refractometry
Temperature, K	Refractive index (Na D-line)	uncertainty
288.15	1.3632	0.0005
298.15	1.3591	0.0005
308.15	1.3551	0.0005
318.15	1.3509	0.0005

System: ethanol; phases: Liquid
Fixed: Pressure, kPa = 101.32
Property: Mass density, kg/m3 (Liquid); method: VIBTUB:UFactor:4
Temperature, K	Mass density, kg/m3	uncertainty
288.15	793.6	0.5
298.15	785.2	0.5
308.15	776.6	0.5
318.15	767.9	0.5

System: 1,2-dimethoxyethane; phases: Liquid
Fixed: Pressure, kPa = 101.325
Property: Refractive index (Na D-line) (Liquid); method: Standard Abbe refractometry
Temperature, K	Refractive index (Na D-line)	uncertainty
288.15	1.3824	0.0005
298.15	1.3772	0.0005
308.15	1.3722	0.0005
318.15	1.3672	0.0005

System: 1,2-dimethoxyethane; phases: Liquid
Fixed: Pressure, kPa = 101.32
Property: Mass density, kg/m3 (Liquid); method: VIBTUB::UFactor:4
Temperature, K	Mass density, kg/m3	uncertainty
288.15	872.4	0.3
298.15	861.5	0.3
308.15	850.4	0.4
318.15	839.2	0.4

System: 2,5,8-trioxanonane; phases: Liquid
Fixed: Pressure, kPa = 101.325
Property: Refractive index (Na D-line) (Liquid); method: Standard Abbe refractometry
Temperature, K	Refractive index (Na D-line)	uncertainty
288.15	1.4101	0.0005
298.15	1.4058	0.0005
308.15	1.4012	0.0005
318.15	1.3968	0.0005

System: 2,5,8-trioxanonane; phases: Liquid
Fixed: Pressure, kPa = 101.32
Property: Mass density, kg/m3 (Liquid); method: VIBTUB::UFactor:4
Temperature, K	Mass density, kg/m3	uncertainty
288.15	948.6	0.3
298.15	938.7	0.3
308.15	928.7	0.3
318.15	918.6	0.3

System: 2,5,8,11-tetraoxadodecane; phases: Liquid
Fixed: Pressure, kPa = 101.325
Property: Refractive index (Na D-line) (Liquid); method: Standard Abbe refractometry
Temperature, K	Refractive index (Na D-line)	uncertainty
288.15	1.425	0.0005
298.15	1.4209	0.0005
308.15	1.4167	0.0005
318.15	1.4125	0.0005

System: 2,5,8,11-tetraoxadodecane; phases: Liquid
Fixed: Pressure, kPa = 101.32
Property: Mass density, kg/m3 (Liquid); method: VIBTUB::UFactor:4
Temperature, K	Mass density, kg/m3	uncertainty
288.15	989.7	0.4
298.15	980.1	0.4
308.15	970.7	0.4
318.15	961.1	0.4

System: 2,5,8,11,14-pentaoxapentadecane; phases: Liquid
Fixed: Pressure, kPa = 101.325
Property: Refractive index (Na D-line) (Liquid); method: Standard Abbe refractometry
Temperature, K	Refractive index (Na D-line)	uncertainty
288.15	1.4344	0.0003
298.15	1.4303	0.0003
308.15	1.4262	0.0003
318.15	1.4221	0.0003

System: 2,5,8,11,14-pentaoxapentadecane; phases: Liquid
Fixed: Pressure, kPa = 101.32
Property: Mass density, kg/m3 (Liquid); method: VIBTUB::UFactor:4
Temperature, K	Mass density, kg/m3	uncertainty
288.15	1016	0.3
298.15	1006.6	0.3
308.15	997.4	0.3
318.15	988.1	0.3

System: ethanol + 1,2-dimethoxyethane; phases: Liquid
Fixed: Pressure, kPa = 101.32
Property: Refractive index (Na D-line) (Liquid); method: Standard Abbe refractometry
Temperature, K	Mole fraction of 1,2-dimethoxyethane	Refractive index (Na D-line)	uncertainty
288.15	0	1.3632	0.0005
288.15	0.0045	1.3633	0.0005
288.15	0.0086	1.3634	0.0005
288.15	0.0125	1.3635	0.0005
288.15	0.0165	1.3636	0.0005
288.15	0.0205	1.3638	0.0005
288.15	0.0305	1.3642	0.0005
288.15	0.05	1.3649	0.0005
288.15	0.1	1.3666	0.0005
288.15	0.15	1.3681	0.0005
288.15	0.2	1.3695	0.0005
288.15	0.25	1.3709	0.0005
288.15	0.3	1.3721	0.0005
288.15	0.35	1.3732	0.0005
288.15	0.4	1.3742	0.0005
288.15	0.45	1.3751	0.0005
288.15	0.5	1.376	0.0005
288.15	0.55	1.3768	0.0005
288.15	0.6	1.3776	0.0005
288.15	0.6499	1.3783	0.0005
288.15	0.7	1.379	0.0005
288.15	0.7499	1.3796	0.0005
288.15	0.7999	1.3802	0.0005
288.15	0.85	1.3808	0.0005
288.15	0.9	1.3813	0.0005
288.15	0.9499	1.3818	0.0005
288.15	1	1.3824	0.0005
298.15	0	1.3591	0.0005
298.15	0.0045	1.3592	0.0005
298.15	0.0086	1.3593	0.0005
298.15	0.0125	1.3594	0.0005
298.15	0.0165	1.3596	0.0005
298.15	0.0205	1.3597	0.0005
298.15	0.0305	1.3601	0.0005
298.15	0.05	1.3608	0.0005
298.15	0.1	1.3624	0.0005
298.15	0.15	1.3639	0.0005
298.15	0.2	1.3652	0.0005
298.15	0.25	1.3664	0.0005
298.15	0.3	1.3676	0.0005
298.15	0.35	1.3686	0.0005
298.15	0.4	1.3696	0.0005
298.15	0.45	1.3705	0.0005
298.15	0.5	1.3714	0.0005
298.15	0.55	1.3722	0.0005
298.15	0.6	1.3729	0.0005
298.15	0.6499	1.3736	0.0005
298.15	0.7	1.3742	0.0005
298.15	0.7499	1.3748	0.0005
298.15	0.7999	1.3754	0.0005
298.15	0.85	1.3759	0.0005
298.15	0.9	1.3764	0.0005
298.15	0.9499	1.3768	0.0005
298.15	1	1.3772	0.0005
308.15	0	1.3551	0.0005
308.15	0.0045	1.3552	0.0005
308.15	0.0086	1.3553	0.0005
308.15	0.0125	1.3554	0.0005
308.15	0.0165	1.3555	0.0005
308.15	0.0205	1.3557	0.0005
308.15	0.0305	1.356	0.0005
308.15	0.05	1.3566	0.0005
308.15	0.1	1.3582	0.0005
308.15	0.15	1.3596	0.0005
308.15	0.2	1.3609	0.0005
308.15	0.25	1.3621	0.0005
308.15	0.3	1.3631	0.0005
308.15	0.35	1.3641	0.0005
308.15	0.4	1.3651	0.0005
308.15	0.45	1.3659	0.0005
308.15	0.5	1.3667	0.0005
308.15	0.55	1.3675	0.0005
308.15	0.6	1.3682	0.0005
308.15	0.6499	1.3688	0.0005
308.15	0.7	1.3694	0.0005
308.15	0.7499	1.37	0.0005
308.15	0.7999	1.3705	0.0005
308.15	0.85	1.371	0.0005
308.15	0.9	1.3715	0.0005
308.15	0.9499	1.3719	0.0005
308.15	1	1.3722	0.0005
318.15	0	1.3509	0.0005
318.15	0.0045	1.351	0.0005
318.15	0.0086	1.3511	0.0005
318.15	0.0125	1.3512	0.0005
318.15	0.0165	1.3513	0.0005
318.15	0.0205	1.3515	0.0005
318.15	0.0305	1.3518	0.0005
318.15	0.05	1.3524	0.0005
318.15	0.1	1.3539	0.0005
318.15	0.15	1.3552	0.0005
318.15	0.2	1.3565	0.0005
318.15	0.25	1.3576	0.0005
318.15	0.3	1.3586	0.0005
318.15	0.35	1.3596	0.0005
318.15	0.4	1.3605	0.0005
318.15	0.45	1.3613	0.0005
318.15	0.5	1.362	0.0005
318.15	0.55	1.3628	0.0005
318.15	0.6	1.3634	0.0005
318.15	0.6499	1.364	0.0005
318.15	0.7	1.3646	0.0005
318.15	0.7499	1.3652	0.0005
318.15	0.7999	1.3657	0.0005
318.15	0.85	1.3661	0.0005
318.15	0.9	1.3666	0.0005
318.15	0.9499	1.3669	0.0005
318.15	1	1.3672	0.0005

System: ethanol + 1,2-dimethoxyethane; phases: Liquid
Fixed: Pressure, kPa = 101.32
Property: Mass density, kg/m3 (Liquid); method: VIBTUB:UFactor:4
Temperature, K	Mole fraction of 1,2-dimethoxyethane	Mass density, kg/m3	uncertainty
288.15	0	793.6	0.5
288.15	0.0045	794.5	0.5
288.15	0.0086	795.2	0.4
288.15	0.0125	795.8	0.4
288.15	0.0165	796.4	0.4
288.15	0.0205	797	0.4
288.15	0.0305	798.5	0.4
288.15	0.05	801.3	0.4
288.15	0.1	807.9	0.4
288.15	0.15	814.2	0.4
288.15	0.2	819.9	0.4
288.15	0.25	825.2	0.4
288.15	0.3	830.1	0.4
288.15	0.35	834.6	0.4
288.15	0.4	838.8	0.4
288.15	0.45	842.7	0.4
288.15	0.5	846.4	0.4
288.15	0.55	849.8	0.4
288.15	0.6	853	0.4
288.15	0.6499	856	0.4
288.15	0.7	858.7	0.4
288.15	0.7499	861.3	0.3
288.15	0.7999	863.7	0.3
288.15	0.85	866.1	0.3
288.15	0.9	868.3	0.3
288.15	0.9499	870.4	0.3
288.15	1	872.4	0.3
298.15	0	785.2	0.5
298.15	0.0045	786	0.5
298.15	0.0086	786.6	0.5
298.15	0.0125	787.1	0.5
298.15	0.0165	787.7	0.5
298.15	0.0205	788.3	0.5
298.15	0.0305	789.8	0.5
298.15	0.05	792.5	0.5
298.15	0.1	799	0.4
298.15	0.15	805	0.4
298.15	0.2	810.6	0.4
298.15	0.25	815.7	0.4
298.15	0.3	820.5	0.4
298.15	0.35	824.9	0.4
298.15	0.4	829	0.4
298.15	0.45	832.8	0.4
298.15	0.5	836.3	0.4
298.15	0.55	839.6	0.4
298.15	0.6	842.7	0.4
298.15	0.6499	845.5	0.4
298.15	0.7	848.2	0.4
298.15	0.7499	850.7	0.4
298.15	0.7999	853.1	0.4
298.15	0.85	855.4	0.4
298.15	0.9	857.5	0.4
298.15	0.9499	859.5	0.4
298.15	1	861.5	0.3
308.15	0	776.6	0.5
308.15	0.0045	777.3	0.5
308.15	0.0086	777.9	0.5
308.15	0.0125	778.4	0.5
308.15	0.0165	779	0.5
308.15	0.0205	779.6	0.5
308.15	0.0305	781	0.5
308.15	0.05	783.6	0.5
308.15	0.1	790	0.5
308.15	0.15	795.8	0.4
308.15	0.2	801.2	0.4
308.15	0.25	806.1	0.4
308.15	0.3	810.7	0.4
308.15	0.35	815	0.4
308.15	0.4	818.9	0.4
308.15	0.45	822.6	0.4
308.15	0.5	826	0.4
308.15	0.55	829.2	0.4
308.15	0.6	832.1	0.4
308.15	0.6499	834.9	0.4
308.15	0.7	837.5	0.4
308.15	0.7499	839.9	0.4
308.15	0.7999	842.2	0.4
308.15	0.85	844.5	0.4
308.15	0.9	846.6	0.4
308.15	0.9499	848.5	0.4
308.15	1	850.4	0.4
318.15	0	767.9	0.5
318.15	0.0045	768.5	0.5
318.15	0.0086	769	0.5
318.15	0.0125	769.6	0.5
318.15	0.0165	770.1	0.5
318.15	0.0205	770.7	0.5
318.15	0.0305	772	0.5
318.15	0.05	774.6	0.5
318.15	0.1	780.7	0.5
318.15	0.15	786.3	0.5
318.15	0.2	791.5	0.5
318.15	0.25	796.3	0.4
318.15	0.3	800.7	0.4
318.15	0.35	804.8	0.4
318.15	0.4	808.7	0.4
318.15	0.45	812.2	0.4
318.15	0.5	815.5	0.4
318.15	0.55	818.6	0.4
318.15	0.6	821.5	0.4
318.15	0.6499	824.1	0.4
318.15	0.7	826.6	0.4
318.15	0.7499	829	0.4
318.15	0.7999	831.2	0.4
318.15	0.85	833.4	0.4
318.15	0.9	835.4	0.4
318.15	0.9499	837.3	0.4
318.15	1	839.2	0.4

System: ethanol + 2,5,8-trioxanonane; phases: Liquid
Fixed: Pressure, kPa = 101.32
Property: Refractive index (Na D-line) (Liquid); method: Standard Abbe refractometry
Temperature, K	Mole fraction of 2,5,8-trioxanonane	Refractive index (Na D-line)	uncertainty
288.15	0	1.3632	0.0005
288.15	0.0045	1.3636	0.0005
288.15	0.0085	1.3641	0.0005
288.15	0.0125	1.3645	0.0005
288.15	0.0165	1.365	0.0005
288.15	0.0205	1.3655	0.0005
288.15	0.0305	1.3666	0.0005
288.15	0.05	1.3687	0.0005
288.15	0.1	1.3737	0.0005
288.15	0.15	1.378	0.0005
288.15	0.2	1.3817	0.0005
288.15	0.25	1.3851	0.0005
288.15	0.3	1.3881	0.0005
288.15	0.35	1.3907	0.0005
288.15	0.4	1.3931	0.0005
288.15	0.45	1.3953	0.0005
288.15	0.4999	1.3973	0.0005
288.15	0.55	1.399	0.0005
288.15	0.5999	1.4007	0.0005
288.15	0.65	1.4022	0.0005
288.15	0.6999	1.4036	0.0005
288.15	0.7499	1.4049	0.0005
288.15	0.7999	1.406	0.0005
288.15	0.8499	1.4072	0.0005
288.15	0.8998	1.4082	0.0005
288.15	0.9498	1.4092	0.0005
288.15	1	1.4101	0.0005
298.15	0	1.3591	0.0005
298.15	0.0045	1.3596	0.0005
298.15	0.0085	1.3601	0.0005
298.15	0.0125	1.3605	0.0005
298.15	0.0165	1.361	0.0005
298.15	0.0205	1.3615	0.0005
298.15	0.0305	1.3626	0.0005
298.15	0.05	1.3647	0.0005
298.15	0.1	1.3696	0.0005
298.15	0.15	1.3739	0.0005
298.15	0.2	1.3776	0.0005
298.15	0.25	1.381	0.0005
298.15	0.3	1.3839	0.0005
298.15	0.35	1.3866	0.0005
298.15	0.4	1.3889	0.0005
298.15	0.45	1.3911	0.0005
298.15	0.4999	1.3931	0.0005
298.15	0.55	1.3948	0.0005
298.15	0.5999	1.3965	0.0005
298.15	0.65	1.398	0.0005
298.15	0.6999	1.3993	0.0005
298.15	0.7499	1.4006	0.0005
298.15	0.7999	1.4018	0.0005
298.15	0.8499	1.4029	0.0005
298.15	0.8998	1.4039	0.0005
298.15	0.9498	1.4049	0.0005
298.15	1	1.4058	0.0005
308.15	0	1.3551	0.0005
308.15	0.0045	1.3555	0.0005
308.15	0.0085	1.356	0.0005
308.15	0.0125	1.3565	0.0005
308.15	0.0165	1.3569	0.0005
308.15	0.0205	1.3574	0.0005
308.15	0.0305	1.3585	0.0005
308.15	0.05	1.3606	0.0005
308.15	0.1	1.3654	0.0005
308.15	0.15	1.3697	0.0005
308.15	0.2	1.3734	0.0005
308.15	0.25	1.3767	0.0005
308.15	0.3	1.3797	0.0005
308.15	0.35	1.3823	0.0005
308.15	0.4	1.3846	0.0005
308.15	0.45	1.3867	0.0005
308.15	0.4999	1.3887	0.0005
308.15	0.55	1.3904	0.0005
308.15	0.5999	1.392	0.0005
308.15	0.65	1.3935	0.0005
308.15	0.6999	1.3949	0.0005
308.15	0.7499	1.3961	0.0005
308.15	0.7999	1.3973	0.0005
308.15	0.8499	1.3984	0.0005
308.15	0.8998	1.3994	0.0005
308.15	0.9498	1.4003	0.0005
308.15	1	1.4012	0.0005
318.15	0	1.3509	0.0005
318.15	0.0045	1.3514	0.0005
318.15	0.0085	1.3518	0.0005
318.15	0.0125	1.3523	0.0005
318.15	0.0165	1.3528	0.0005
318.15	0.0205	1.3532	0.0005
318.15	0.0305	1.3543	0.0005
318.15	0.05	1.3564	0.0005
318.15	0.1	1.3612	0.0005
318.15	0.15	1.3655	0.0005
318.15	0.2	1.3692	0.0005
318.15	0.25	1.3725	0.0005
318.15	0.3	1.3754	0.0005
318.15	0.35	1.378	0.0005
318.15	0.4	1.3803	0.0005
318.15	0.45	1.3824	0.0005
318.15	0.4999	1.3843	0.0005
318.15	0.55	1.3861	0.0005
318.15	0.5999	1.3877	0.0005
318.15	0.65	1.3892	0.0005
318.15	0.6999	1.3905	0.0005
318.15	0.7499	1.3917	0.0005
318.15	0.7999	1.3929	0.0005
318.15	0.8499	1.394	0.0005
318.15	0.8998	1.395	0.0005
318.15	0.9498	1.3959	0.0005
318.15	1	1.3968	0.0005

System: ethanol + 2,5,8-trioxanonane; phases: Liquid
Fixed: Pressure, kPa = 101.32
Property: Mass density, kg/m3 (Liquid); method: VIBTUB:UFactor:4
Temperature, K	Mole fraction of 2,5,8-trioxanonane	Mass density, kg/m3	uncertainty
288.15	0	793.6	0.5
288.15	0.0045	795.6	0.5
288.15	0.0085	797.1	0.4
288.15	0.0125	798.7	0.4
288.15	0.0165	800.3	0.4
288.15	0.0205	801.8	0.4
288.15	0.0305	805.5	0.4
288.15	0.05	812.6	0.4
288.15	0.1	828.7	0.4
288.15	0.15	842.6	0.4
288.15	0.2	855	0.4
288.15	0.25	865.9	0.3
288.15	0.3	875.7	0.3
288.15	0.35	884.5	0.3
288.15	0.4	892.4	0.3
288.15	0.45	899.6	0.3
288.15	0.4999	906	0.3
288.15	0.55	912	0.3
288.15	0.5999	917.4	0.3
288.15	0.65	922.5	0.3
288.15	0.6999	927.1	0.3
288.15	0.7499	931.3	0.3
288.15	0.7999	935.3	0.3
288.15	0.8499	939	0.3
288.15	0.8998	942.4	0.3
288.15	0.9498	945.7	0.3
288.15	1	948.6	0.3
298.15	0	785.2	0.5
298.15	0.0045	787	0.5
298.15	0.0085	788.6	0.5
298.15	0.0125	790.1	0.5
298.15	0.0165	791.7	0.5
298.15	0.0205	793.2	0.5
298.15	0.0305	796.9	0.4
298.15	0.05	803.8	0.4
298.15	0.1	819.7	0.4
298.15	0.15	833.6	0.4
298.15	0.2	845.8	0.4
298.15	0.25	856.6	0.4
298.15	0.3	866.3	0.3
298.15	0.35	875	0.3
298.15	0.4	882.9	0.3
298.15	0.45	889.9	0.3
298.15	0.4999	896.4	0.3
298.15	0.55	902.3	0.3
298.15	0.5999	907.7	0.3
298.15	0.65	912.6	0.3
298.15	0.6999	917.2	0.3
298.15	0.7499	921.4	0.3
298.15	0.7999	925.4	0.3
298.15	0.8499	929	0.3
298.15	0.8998	932.4	0.3
298.15	0.9498	935.7	0.3
298.15	1	938.7	0.3
308.15	0	776.6	0.5
308.15	0.0045	778.4	0.5
308.15	0.0085	779.9	0.5
308.15	0.0125	781.5	0.5
308.15	0.0165	783	0.5
308.15	0.0205	784.4	0.5
308.15	0.0305	788.1	0.5
308.15	0.05	795	0.5
308.15	0.1	810.7	0.4
308.15	0.15	824.5	0.4
308.15	0.2	836.5	0.4
308.15	0.25	847.3	0.4
308.15	0.3	856.9	0.4
308.15	0.35	865.5	0.4
308.15	0.4	873.2	0.3
308.15	0.45	880.2	0.3
308.15	0.4999	886.7	0.3
308.15	0.55	892.5	0.3
308.15	0.5999	897.8	0.3
308.15	0.65	902.8	0.3
308.15	0.6999	907.3	0.3
308.15	0.7499	911.5	0.3
308.15	0.7999	915.4	0.3
308.15	0.8499	919.1	0.3
308.15	0.8998	922.5	0.3
308.15	0.9498	925.7	0.3
308.15	1	928.7	0.3
318.15	0	767.9	0.5
318.15	0.0045	769.6	0.5
318.15	0.0085	771.1	0.5
318.15	0.0125	772.6	0.5
318.15	0.0165	774.1	0.5
318.15	0.0205	775.6	0.5
318.15	0.0305	779.2	0.5
318.15	0.05	786	0.5
318.15	0.1	801.5	0.4
318.15	0.15	815.1	0.4
318.15	0.2	827.1	0.4
318.15	0.25	837.8	0.4
318.15	0.3	847.3	0.4
318.15	0.35	855.8	0.4
318.15	0.4	863.5	0.4
318.15	0.45	870.5	0.3
318.15	0.4999	876.8	0.3
318.15	0.55	882.6	0.3
318.15	0.5999	887.9	0.3
318.15	0.65	892.8	0.3
318.15	0.6999	897.3	0.3
318.15	0.7499	901.5	0.3
318.15	0.7999	905.4	0.3
318.15	0.8499	909	0.3
318.15	0.8998	912.5	0.3
318.15	0.9498	915.7	0.3
318.15	1	918.6	0.3

System: ethanol + 2,5,8,11-tetraoxadodecane; phases: Liquid
Fixed: Pressure, kPa = 101.32
Property: Refractive index (Na D-line) (Liquid); method: Standard Abbe refractometry
Temperature, K	Mole fraction of 2,5,8,11-tetraoxadodecane	Refractive index (Na D-line)	uncertainty
288.15	0	1.3632	0.0005
288.15	0.0045	1.3641	0.0005
288.15	0.0085	1.3648	0.0005
288.15	0.0125	1.3656	0.0005
288.15	0.0165	1.3664	0.0005
288.15	0.0205	1.3672	0.0005
288.15	0.0305	1.3691	0.0005
288.15	0.05	1.3724	0.0005
288.15	0.1	1.3799	0.0005
288.15	0.15	1.3862	0.0005
288.15	0.2	1.3915	0.0005
288.15	0.25	1.396	0.0005
288.15	0.3	1.3998	0.0005
288.15	0.35	1.4032	0.0005
288.15	0.4	1.4061	0.0005
288.15	0.4499	1.4087	0.0005
288.15	0.5	1.411	0.0005
288.15	0.55	1.4131	0.0005
288.15	0.6	1.4149	0.0005
288.15	0.65	1.4166	0.0005
288.15	0.7	1.4181	0.0005
288.15	0.75	1.4195	0.0005
288.15	0.7999	1.4208	0.0005
288.15	0.8499	1.422	0.0005
288.15	0.8998	1.4231	0.0005
288.15	0.9498	1.4241	0.0005
288.15	1	1.425	0.0005
298.15	0	1.3591	0.0005
298.15	0.0045	1.36	0.0005
298.15	0.0085	1.3608	0.0005
298.15	0.0125	1.3616	0.0005
298.15	0.0165	1.3624	0.0005
298.15	0.0205	1.3632	0.0005
298.15	0.0305	1.365	0.0005
298.15	0.05	1.3684	0.0005
298.15	0.1	1.376	0.0005
298.15	0.15	1.3823	0.0005
298.15	0.2	1.3875	0.0005
298.15	0.25	1.3919	0.0005
298.15	0.3	1.3958	0.0005
298.15	0.35	1.3991	0.0005
298.15	0.4	1.402	0.0005
298.15	0.4499	1.4046	0.0005
298.15	0.5	1.4069	0.0005
298.15	0.55	1.409	0.0005
298.15	0.6	1.4108	0.0005
298.15	0.65	1.4125	0.0005
298.15	0.7	1.414	0.0005
298.15	0.75	1.4154	0.0005
298.15	0.7999	1.4167	0.0005
298.15	0.8499	1.4179	0.0005
298.15	0.8998	1.4189	0.0005
298.15	0.9498	1.4199	0.0005
298.15	1	1.4209	0.0005
308.15	0	1.3551	0.0005
308.15	0.0045	1.3559	0.0005
308.15	0.0085	1.3567	0.0005
308.15	0.0125	1.3575	0.0005
308.15	0.0165	1.3583	0.0005
308.15	0.0205	1.359	0.0005
308.15	0.0305	1.3609	0.0005
308.15	0.05	1.3644	0.0005
308.15	0.1	1.372	0.0005
308.15	0.15	1.3782	0.0005
308.15	0.2	1.3834	0.0005
308.15	0.25	1.3879	0.0005
308.15	0.3	1.3917	0.0005
308.15	0.35	1.395	0.0005
308.15	0.4	1.3979	0.0005
308.15	0.4499	1.4005	0.0005
308.15	0.5	1.4028	0.0005
308.15	0.55	1.4049	0.0005
308.15	0.6	1.4067	0.0005
308.15	0.65	1.4084	0.0005
308.15	0.7	1.4099	0.0005
308.15	0.75	1.4113	0.0005
308.15	0.7999	1.4126	0.0005
308.15	0.8499	1.4137	0.0005
308.15	0.8998	1.4148	0.0005
308.15	0.9498	1.4158	0.0005
308.15	1	1.4167	0.0005
318.15	0	1.3509	0.0005
318.15	0.0045	1.3517	0.0005
318.15	0.0085	1.3525	0.0005
318.15	0.0125	1.3533	0.0005
318.15	0.0165	1.3541	0.0005
318.15	0.0205	1.3548	0.0005
318.15	0.0305	1.3567	0.0005
318.15	0.05	1.3602	0.0005
318.15	0.1	1.3679	0.0005
318.15	0.15	1.3741	0.0005
318.15	0.2	1.3794	0.0005
318.15	0.25	1.3839	0.0005
318.15	0.3	1.3877	0.0005
318.15	0.35	1.391	0.0005
318.15	0.4	1.3939	0.0005
318.15	0.4499	1.3965	0.0005
318.15	0.5	1.3988	0.0005
318.15	0.55	1.4008	0.0005
318.15	0.6	1.4026	0.0005
318.15	0.65	1.4043	0.0005
318.15	0.7	1.4058	0.0005
318.15	0.75	1.4072	0.0005
318.15	0.7999	1.4084	0.0005
318.15	0.8499	1.4096	0.0005
318.15	0.8998	1.4106	0.0005
318.15	0.9498	1.4116	0.0005
318.15	1	1.4125	0.0005

System: ethanol + 2,5,8,11-tetraoxadodecane; phases: Liquid
Fixed: Pressure, kPa = 101.32
Property: Mass density, kg/m3 (Liquid); method: VIBTUB:UFactor:4
Temperature, K	Mole fraction of 2,5,8,11-tetraoxadodecane	Mass density, kg/m3	uncertainty
288.15	0	793.6	0.5
288.15	0.0045	796.7	0.5
288.15	0.0085	799.3	0.4
288.15	0.0125	801.7	0.4
288.15	0.0165	804.2	0.4
288.15	0.0205	806.6	0.4
288.15	0.0305	812.4	0.4
288.15	0.05	823	0.4
288.15	0.1	846.7	0.4
288.15	0.15	866.4	0.3
288.15	0.2	882.9	0.3
288.15	0.25	896.9	0.3
288.15	0.3	909.2	0.3
288.15	0.35	919.8	0.3
288.15	0.4	929.2	0.3
288.15	0.4499	937.4	0.3
288.15	0.5	944.8	0.3
288.15	0.55	951.4	0.3
288.15	0.6	957.3	0.3
288.15	0.65	962.7	0.3
288.15	0.7	967.5	0.3
288.15	0.75	972	0.3
288.15	0.7999	976.1	0.3
288.15	0.8499	979.9	0.4
288.15	0.8998	983.4	0.4
288.15	0.9498	986.7	0.4
288.15	1	989.7	0.4
298.15	0	785.2	0.5
298.15	0.0045	788.2	0.5
298.15	0.0085	790.7	0.5
298.15	0.0125	793.2	0.5
298.15	0.0165	795.6	0.5
298.15	0.0205	798	0.4
298.15	0.0305	803.7	0.4
298.15	0.05	814.2	0.4
298.15	0.1	837.7	0.4
298.15	0.15	857.3	0.4
298.15	0.2	873.6	0.3
298.15	0.25	887.7	0.3
298.15	0.3	900	0.3
298.15	0.35	910.5	0.3
298.15	0.4	919.8	0.3
298.15	0.4499	928	0.3
298.15	0.5	935.3	0.3
298.15	0.55	941.9	0.3
298.15	0.6	947.7	0.3
298.15	0.65	953.1	0.3
298.15	0.7	958	0.3
298.15	0.75	962.4	0.3
298.15	0.7999	966.5	0.3
298.15	0.8499	970.3	0.4
298.15	0.8998	973.8	0.4
298.15	0.9498	977.1	0.4
298.15	1	980.1	0.4
308.15	0	776.6	0.5
308.15	0.0045	779.5	0.5
308.15	0.0085	782	0.5
308.15	0.0125	784.4	0.5
308.15	0.0165	786.8	0.5
308.15	0.0205	789.2	0.5
308.15	0.0305	794.9	0.5
308.15	0.05	805.4	0.4
308.15	0.1	828.8	0.4
308.15	0.15	848.3	0.4
308.15	0.2	864.5	0.4
308.15	0.25	878.6	0.3
308.15	0.3	890.7	0.3
308.15	0.35	901.3	0.3
308.15	0.4	910.5	0.3
308.15	0.4499	918.6	0.3
308.15	0.5	925.9	0.3
308.15	0.55	932.4	0.3
308.15	0.6	938.3	0.3
308.15	0.65	943.7	0.3
308.15	0.7	948.6	0.3
308.15	0.75	953	0.3
308.15	0.7999	957.1	0.3
308.15	0.8499	960.8	0.4
308.15	0.8998	964.3	0.4
308.15	0.9498	967.6	0.4
308.15	1	970.7	0.4
318.15	0	767.9	0.5
318.15	0.0045	770.6	0.5
318.15	0.0085	773.1	0.5
318.15	0.0125	775.5	0.5
318.15	0.0165	778	0.5
318.15	0.0205	780.3	0.5
318.15	0.0305	786	0.5
318.15	0.05	796.4	0.5
318.15	0.1	819.7	0.4
318.15	0.15	839	0.4
318.15	0.2	855.2	0.4
318.15	0.25	869.2	0.4
318.15	0.3	881.4	0.3
318.15	0.35	891.9	0.3
318.15	0.4	901.1	0.3
318.15	0.4499	909.2	0.3
318.15	0.5	916.4	0.3
318.15	0.55	922.9	0.3
318.15	0.6	928.8	0.3
318.15	0.65	934.2	0.3
318.15	0.7	939	0.3
318.15	0.75	943.5	0.3
318.15	0.7999	947.5	0.4
318.15	0.8499	951.3	0.4
318.15	0.8998	954.8	0.4
318.15	0.9498	958.1	0.4
318.15	1	961.1	0.4

System: ethanol + 2,5,8,11,14-pentaoxapentadecane; phases: Liquid
Fixed: Pressure, kPa = 101.32
Property: Refractive index (Na D-line) (Liquid); method: Standard Abbe refractometry
Temperature, K	Mole fraction of 2,5,8,11,14-pentaoxapentadecane	Refractive index (Na D-line)	uncertainty
288.15	0	1.3632	0.0003
288.15	0.0045	1.3644	0.0003
288.15	0.0085	1.3656	0.0003
288.15	0.0125	1.3667	0.0003
288.15	0.0165	1.3678	0.0003
288.15	0.0205	1.3689	0.0003
288.15	0.0305	1.3714	0.0003
288.15	0.05	1.376	0.0003
288.15	0.1	1.3858	0.0003
288.15	0.15	1.3936	0.0003
288.15	0.2	1.3999	0.0003
288.15	0.25	1.405	0.0003
288.15	0.3	1.4093	0.0003
288.15	0.35	1.4129	0.0003
288.15	0.4	1.4159	0.0003
288.15	0.45	1.4186	0.0003
288.15	0.5	1.4209	0.0003
288.15	0.55	1.423	0.0003
288.15	0.6	1.4248	0.0003
288.15	0.6499	1.4264	0.0003
288.15	0.7	1.4279	0.0003
288.15	0.7498	1.4292	0.0003
288.15	0.7999	1.4304	0.0003
288.15	0.8499	1.4315	0.0003
288.15	0.8997	1.4326	0.0003
288.15	0.9496	1.4335	0.0003
288.15	1	1.4344	0.0003
298.15	0	1.3591	0.0003
298.15	0.0045	1.3604	0.0003
298.15	0.0085	1.3615	0.0003
298.15	0.0125	1.3627	0.0003
298.15	0.0165	1.3638	0.0003
298.15	0.0205	1.3649	0.0003
298.15	0.0305	1.3674	0.0003
298.15	0.05	1.372	0.0003
298.15	0.1	1.3819	0.0003
298.15	0.15	1.3897	0.0003
298.15	0.2	1.396	0.0003
298.15	0.25	1.4011	0.0003
298.15	0.3	1.4053	0.0003
298.15	0.35	1.4089	0.0003
298.15	0.4	1.412	0.0003
298.15	0.45	1.4146	0.0003
298.15	0.5	1.417	0.0003
298.15	0.55	1.419	0.0003
298.15	0.6	1.4208	0.0003
298.15	0.6499	1.4225	0.0003
298.15	0.7	1.4239	0.0003
298.15	0.7498	1.4252	0.0003
298.15	0.7999	1.4264	0.0003
298.15	0.8499	1.4275	0.0003
298.15	0.8997	1.4285	0.0003
298.15	0.9496	1.4294	0.0003
298.15	1	1.4303	0.0003
308.15	0	1.3551	0.0003
308.15	0.0045	1.3564	0.0003
308.15	0.0085	1.3575	0.0003
308.15	0.0125	1.3586	0.0003
308.15	0.0165	1.3598	0.0003
308.15	0.0205	1.3608	0.0003
308.15	0.0305	1.3634	0.0003
308.15	0.05	1.368	0.0003
308.15	0.1	1.3779	0.0003
308.15	0.15	1.3857	0.0003
308.15	0.2	1.392	0.0003
308.15	0.25	1.3971	0.0003
308.15	0.3	1.4013	0.0003
308.15	0.35	1.4049	0.0003
308.15	0.4	1.408	0.0003
308.15	0.45	1.4106	0.0003
308.15	0.5	1.413	0.0003
308.15	0.55	1.415	0.0003
308.15	0.6	1.4168	0.0003
308.15	0.6499	1.4184	0.0003
308.15	0.7	1.4199	0.0003
308.15	0.7498	1.4212	0.0003
308.15	0.7999	1.4224	0.0003
308.15	0.8499	1.4234	0.0003
308.15	0.8997	1.4244	0.0003
308.15	0.9496	1.4253	0.0003
308.15	1	1.4262	0.0003
318.15	0	1.3509	0.0003
318.15	0.0045	1.3522	0.0003
318.15	0.0085	1.3533	0.0003
318.15	0.0125	1.3545	0.0003
318.15	0.0165	1.3556	0.0003
318.15	0.0205	1.3567	0.0003
318.15	0.0305	1.3593	0.0003
318.15	0.05	1.3641	0.0003
318.15	0.1	1.3741	0.0003
318.15	0.15	1.3818	0.0003
318.15	0.2	1.3881	0.0003
318.15	0.25	1.3931	0.0003
318.15	0.3	1.3973	0.0003
318.15	0.35	1.4009	0.0003
318.15	0.4	1.404	0.0003
318.15	0.45	1.4067	0.0003
318.15	0.5	1.409	0.0003
318.15	0.55	1.411	0.0003
318.15	0.6	1.4128	0.0003
318.15	0.6499	1.4144	0.0003
318.15	0.7	1.4159	0.0003
318.15	0.7498	1.4172	0.0003
318.15	0.7999	1.4184	0.0003
318.15	0.8499	1.4194	0.0003
318.15	0.8997	1.4204	0.0003
318.15	0.9496	1.4213	0.0003
318.15	1	1.4221	0.0003

System: ethanol + 2,5,8,11,14-pentaoxapentadecane; phases: Liquid
Fixed: Pressure, kPa = 101.32
Property: Mass density, kg/m3 (Liquid); method: VIBTUB:UFactor:4
Temperature, K	Mole fraction of 2,5,8,11,14-pentaoxapentadecane	Mass density, kg/m3	uncertainty
288.15	0	793.6	0.5
288.15	0.0045	797.9	0.5
288.15	0.0085	801.4	0.4
288.15	0.0125	804.8	0.4
288.15	0.0165	808.2	0.4
288.15	0.0205	811.5	0.4
288.15	0.0305	819.5	0.4
288.15	0.05	833.6	0.4
288.15	0.1	864.1	0.3
288.15	0.15	888	0.3
288.15	0.2	907.3	0.3
288.15	0.25	923.3	0.3
288.15	0.3	936.6	0.3
288.15	0.35	947.9	0.2
288.15	0.4	957.6	0.2
288.15	0.45	966	0.2
288.15	0.5	973.4	0.2
288.15	0.55	979.9	0.2
288.15	0.6	985.7	0.2
288.15	0.6499	990.9	0.2
288.15	0.7	995.6	0.2
288.15	0.7498	999.8	0.2
288.15	0.7999	1003.6	0.2
288.15	0.8499	1007	0.2
288.15	0.8997	1010.2	0.3
288.15	0.9496	1013.2	0.3
288.15	1	1016	0.3
298.15	0	785.2	0.5
298.15	0.0045	789.4	0.5
298.15	0.0085	792.9	0.5
298.15	0.0125	796.3	0.5
298.15	0.0165	799.6	0.5
298.15	0.0205	802.9	0.4
298.15	0.0305	810.8	0.4
298.15	0.05	824.9	0.4
298.15	0.1	855.1	0.4
298.15	0.15	878.9	0.3
298.15	0.2	898.1	0.3
298.15	0.25	914.1	0.3
298.15	0.3	927.4	0.3
298.15	0.35	938.6	0.3
298.15	0.4	948.3	0.2
298.15	0.45	956.7	0.2
298.15	0.5	964.1	0.2
298.15	0.55	970.6	0.2
298.15	0.6	976.3	0.2
298.15	0.6499	981.5	0.2
298.15	0.7	986.2	0.2
298.15	0.7498	990.4	0.2
298.15	0.7999	994.2	0.2
298.15	0.8499	997.7	0.2
298.15	0.8997	1000.9	0.2
298.15	0.9496	1003.8	0.3
298.15	1	1006.6	0.3
308.15	0	776.6	0.5
308.15	0.0045	780.7	0.5
308.15	0.0085	784.2	0.5
308.15	0.0125	787.6	0.5
308.15	0.0165	790.9	0.5
308.15	0.0205	794.2	0.5
308.15	0.0305	802	0.4
308.15	0.05	816.1	0.4
308.15	0.1	846.2	0.4
308.15	0.15	869.9	0.3
308.15	0.2	889.1	0.3
308.15	0.25	905	0.3
308.15	0.3	918.2	0.3
308.15	0.35	929.5	0.3
308.15	0.4	939.2	0.3
308.15	0.45	947.5	0.2
308.15	0.5	954.9	0.2
308.15	0.55	961.3	0.2
308.15	0.6	967.1	0.2
308.15	0.6499	972.3	0.2
308.15	0.7	977	0.2
308.15	0.7498	981.2	0.2
308.15	0.7999	985	0.2
308.15	0.8499	988.4	0.2
308.15	0.8997	991.6	0.3
308.15	0.9496	994.6	0.3
308.15	1	997.4	0.3
318.15	0	767.9	0.5
318.15	0.0045	771.9	0.5
318.15	0.0085	775.3	0.5
318.15	0.0125	778.7	0.5
318.15	0.0165	782	0.5
318.15	0.0205	785.3	0.5
318.15	0.0305	793.1	0.5
318.15	0.05	807.1	0.4
318.15	0.1	837.1	0.4
318.15	0.15	860.7	0.4
318.15	0.2	879.9	0.3
318.15	0.25	895.7	0.3
318.15	0.3	908.9	0.3
318.15	0.35	920.2	0.3
318.15	0.4	929.8	0.3
318.15	0.45	938.2	0.3
318.15	0.5	945.5	0.3
318.15	0.55	952	0.2
318.15	0.6	957.8	0.2
318.15	0.6499	963	0.2
318.15	0.7	967.6	0.2
318.15	0.7498	971.9	0.2
318.15	0.7999	975.6	0.3
318.15	0.8499	979.1	0.3
318.15	0.8997	982.4	0.3
318.15	0.9496	985.3	0.3
318.15	1	988.1	0.3
