Measured thermophysical data. Isobaric Vapor-Liquid Equilibria and Excess Properties for the Binary Systems of Methyl Esters + Heptane
Source: J. Chem. Eng. Data, 2003, 10.1021/je030117d
Compound 1: methyl methanoate, C2H4O2, InChI=1S/C2H4O2/c1-4-2-3/h2H,1H3, purity 99%
Compound 2: methyl ethanoate, C3H6O2, InChI=1S/C3H6O2/c1-3(4)5-2/h1-2H3, purity 99%
Compound 3: methyl propanoate, C4H8O2, InChI=1S/C4H8O2/c1-3-4(5)6-2/h3H2,1-2H3, purity 99%
Compound 4: methyl butanoate, C5H10O2, InChI=1S/C5H10O2/c1-3-4-5(6)7-2/h3-4H2,1-2H3, purity 99%
Compound 5: methyl pentanoate, C6H12O2, InChI=1S/C6H12O2/c1-3-4-5-6(7)8-2/h3-5H2,1-2H3, purity 99%
Compound 6: heptane, C7H16, InChI=1S/C7H16/c1-3-5-7-6-4-2/h3-7H2,1-2H3, purity 99.5%

System: methyl methanoate; phases: Liquid, Gas
Property: Normal boiling temperature, K (Liquid); method: Ebulliometric method (Recirculating still)
Normal boiling temperature, K	uncertainty
304.79	0.2

System: methyl methanoate; phases: Liquid
Property: Refractive index (Na D-line) (Liquid); method: Standard Abbe refractometry
Temperature, K	Pressure, kPa	Refractive index (Na D-line)	uncertainty
298.15	101.325	1.3412	0.0008

System: methyl methanoate; phases: Liquid
Property: Mass density, kg/m3 (Liquid); method: Vibrating tube method
Temperature, K	Pressure, kPa	Mass density, kg/m3	uncertainty
298.15	101.325	966.18	0.49

System: methyl ethanoate; phases: Liquid, Gas
Property: Normal boiling temperature, K (Liquid); method: Ebulliometric method (Recirculating still)
Normal boiling temperature, K	uncertainty
329.85	0.2

System: methyl ethanoate; phases: Liquid
Property: Refractive index (Na D-line) (Liquid); method: Standard Abbe refractometry
Temperature, K	Pressure, kPa	Refractive index (Na D-line)	uncertainty
298.15	101.325	1.3589	0.0008

System: methyl ethanoate; phases: Liquid
Property: Mass density, kg/m3 (Liquid); method: Vibrating tube method
Temperature, K	Pressure, kPa	Mass density, kg/m3	uncertainty
298.15	101.325	927.14	0.47

System: methyl propanoate; phases: Liquid, Gas
Property: Normal boiling temperature, K (Liquid); method: Ebulliometric method (Recirculating still)
Normal boiling temperature, K	uncertainty
351.65	0.2

System: methyl propanoate; phases: Liquid
Property: Refractive index (Na D-line) (Liquid); method: Standard Abbe refractometry
Temperature, K	Pressure, kPa	Refractive index (Na D-line)	uncertainty
298.15	101.325	1.3745	0.0008

System: methyl propanoate; phases: Liquid
Property: Mass density, kg/m3 (Liquid); method: Vibrating tube method
Temperature, K	Pressure, kPa	Mass density, kg/m3	uncertainty
298.15	101.325	908.59	0.47

System: methyl butanoate; phases: Liquid, Gas
Property: Normal boiling temperature, K (Liquid); method: Ebulliometric method (Recirculating still)
Normal boiling temperature, K	uncertainty
375.53	0.2

System: methyl butanoate; phases: Liquid
Property: Refractive index (Na D-line) (Liquid); method: Standard Abbe refractometry
Temperature, K	Pressure, kPa	Refractive index (Na D-line)	uncertainty
298.15	101.325	1.3852	0.0008

System: methyl butanoate; phases: Liquid
Property: Mass density, kg/m3 (Liquid); method: Vibrating tube method
Temperature, K	Pressure, kPa	Mass density, kg/m3	uncertainty
298.15	101.325	892.52	0.46

System: methyl pentanoate; phases: Liquid
Property: Refractive index (Na D-line) (Liquid); method: Standard Abbe refractometry
Temperature, K	Pressure, kPa	Refractive index (Na D-line)	uncertainty
298.15	101.325	1.3947	0.0008

System: methyl pentanoate; phases: Liquid
Property: Mass density, kg/m3 (Liquid); method: Vibrating tube method
Temperature, K	Pressure, kPa	Mass density, kg/m3	uncertainty
298.15	101.325	884.58	0.46

System: methyl pentanoate; phases: Liquid, Gas
Property: Vapor or sublimation pressure, kPa (Liquid); method: EBULLIO:UFactor:8
Temperature, K	Vapor or sublimation pressure, kPa	uncertainty
364.75	32.01	0.11
365.85	33.33	0.11
366.98	34.67	0.12
368.03	36	0.12
369.05	37.33	0.12
370.1	38.66	0.12
371.03	40.01	0.12
371.97	41.33	0.12
372.92	42.66	0.13
373.81	43.99	0.13
374.7	45.33	0.13
375.56	46.64	0.13
376.4	48.01	0.13
377.18	49.33	0.13
378.01	50.64	0.13
378.82	51.98	0.14
379.59	53.33	0.14
380.33	54.67	0.14
381.1	56	0.14
381.82	57.33	0.14
382.51	58.67	0.14
383.29	59.99	0.15
383.95	61.33	0.15
384.62	62.68	0.15
385.25	63.99	0.15
385.95	65.33	0.15
386.57	66.66	0.16
387.18	67.99	0.16
387.84	69.32	0.16
388.44	70.66	0.16
389.08	71.99	0.16
389.65	73.33	0.16
390.24	74.65	0.16
390.82	76	0.17
391.39	77.3	0.17
391.94	78.66	0.17
392.5	79.99	0.17
393.04	81.33	0.17
393.61	82.66	0.17
394.12	83.98	0.18
394.65	85.33	0.18
395.16	86.66	0.18
395.69	88	0.18
396.2	89.33	0.18
396.7	90.67	0.19
397.18	91.98	0.19
397.67	93.35	0.19
398.2	94.67	0.19
398.65	95.99	0.19
399.15	97.32	0.19
399.59	98.66	0.2
400.07	99.99	0.2
400.54	101.32	0.2
401	102.66	0.2
401.45	104.01	0.2
401.91	105.33	0.2
402.3	106.66	0.21
402.75	107.99	0.21
403.2	109.32	0.21
403.62	110.58	0.21
404.06	111.98	0.21
404.45	113.3	0.22
404.88	114.66	0.22
405.31	115.99	0.22
405.71	117.32	0.22
406.12	118.69	0.22
406.52	119.98	0.22
406.91	121.36	0.23
407.3	122.64	0.23
407.7	124	0.23
408.08	125.32	0.23
408.49	126.67	0.23
408.85	127.99	0.23
409.23	129.32	0.23
409.62	130.64	0.24
409.98	132.01	0.24
410.35	133.34	0.24
410.71	134.64	0.24
411.07	135.99	0.24
411.44	137.33	0.25
411.8	138.63	0.25
412.15	139.99	0.25
412.49	141.33	0.25
412.85	142.67	0.25
413.21	143.99	0.25
413.55	145.32	0.26
413.89	146.65	0.26
414.22	148	0.26
414.55	149.34	0.26
414.91	150.65	0.26
415.23	151.99	0.27
415.57	153.32	0.27
415.87	154.61	0.27
416.21	155.97	0.27
416.55	157.29	0.27
416.87	158.66	0.27
417.18	159.97	0.28

System: heptane; phases: Liquid, Gas
Property: Normal boiling temperature, K (Liquid); method: Ebulliometric method (Recirculating still)
Normal boiling temperature, K	uncertainty
371.35	0.49

System: heptane; phases: Liquid
Property: Refractive index (Na D-line) (Liquid); method: Standard Abbe refractometry
Temperature, K	Pressure, kPa	Refractive index (Na D-line)	uncertainty
298.15	101.325	1.3853	0.0007

System: heptane; phases: Liquid
Property: Mass density, kg/m3 (Liquid); method: Vibrating tube method
Temperature, K	Pressure, kPa	Mass density, kg/m3	uncertainty
298.15	101.325	679.3	0.45

System: heptane + methyl pentanoate; phases: Liquid, Gas
Fixed: Pressure, kPa = 101.325
Property: Boiling temperature at pressure P, K (Liquid); method: EBULLIO:UFactor:8
Mole fraction of methyl pentanoate	Boiling temperature at pressure P, K	uncertainty
0.0204	371.48	0.32
0.03	371.61	0.32
0.0515	371.8	0.32
0.0755	371.97	0.32
0.1056	372.21	0.32
0.1315	372.5	0.32
0.16	372.81	0.32
0.1947	373.17	0.32
0.2162	373.48	0.32
0.2512	373.95	0.32
0.2833	374.42	0.32
0.3239	375	0.33
0.3739	375.9	0.33
0.4034	376.32	0.33
0.4403	376.92	0.33
0.4604	377.35	0.33
0.4874	377.95	0.33
0.5103	378.45	0.33
0.5417	379.2	0.34
0.5694	379.95	0.34
0.6009	380.85	0.34
0.6363	381.8	0.34
0.6654	382.7	0.34
0.6842	383.35	0.34
0.7177	384.37	0.35
0.7432	385.4	0.36
0.7643	386.2	0.36
0.7912	387.42	0.37
0.8152	388.5	0.37
0.8402	389.65	0.37
0.8596	390.65	0.38
0.88	391.75	0.41
0.9	393.2	0.44
0.9158	394.4	0.43
0.9303	395.35	0.41
0.9437	396.15	0.4
0.9555	396.9	0.42
0.9662	397.68	0.45
0.9809	398.91	0.45
0.9894	399.54	0.44

System: heptane + methyl pentanoate; phases: Liquid
Fixed: Temperature, K = 298.15
Fixed: Pressure, kPa = 101.325
Property: Mass density, kg/m3 (Liquid); method: Vibrating tube method
Mole fraction of methyl pentanoate	Mass density, kg/m3	uncertainty
0.0172	682.12	0.74
0.0613	689.72	0.76
0.1404	703.9	0.77
0.2074	716.09	0.8
0.2867	731.09	0.82
0.3552	744.33	0.84
0.4135	755.77	0.86
0.4931	771.88	0.88
0.5619	786.14	0.91
0.631	800.74	0.93
0.7038	816.52	0.95
0.7607	828.99	0.98
0.8392	846.84	1
0.9149	864.2	1.02
0.9531	873.23	1.06
0.9836	880.67	1.08

System: heptane + methyl pentanoate; phases: Gas, Liquid
Fixed: Pressure, kPa = 101.325
Property: Mole fraction of methyl pentanoate (Gas); method: OTHER
Mole fraction of methyl pentanoate	Mole fraction of methyl pentanoate	uncertainty
0.0204	0.0114	0.0046
0.03	0.0168	0.0046
0.0515	0.0289	0.0046
0.0755	0.0425	0.0046
0.1056	0.0595	0.0046
0.1315	0.0739	0.0046
0.16	0.0901	0.0046
0.1947	0.1097	0.0046
0.2162	0.1221	0.0046
0.2512	0.1421	0.0046
0.2833	0.1609	0.0046
0.3239	0.1827	0.0046
0.3739	0.2127	0.0046
0.4034	0.2279	0.0046
0.4403	0.2479	0.0046
0.4604	0.2597	0.0048
0.4874	0.2787	0.0049
0.5103	0.2936	0.005
0.5417	0.317	0.0051
0.5694	0.3386	0.0053
0.6009	0.3654	0.0053
0.6363	0.3928	0.0054
0.6654	0.4199	0.0058
0.6842	0.4391	0.006
0.7177	0.4721	0.0062
0.7432	0.5002	0.0066
0.7643	0.5254	0.0068
0.7912	0.558	0.0071
0.8152	0.5917	0.0077
0.8402	0.6307	0.0083
0.8596	0.6667	0.0089
0.88	0.705	0.0095
0.9	0.75	0.0105
0.9158	0.7892	0.0109
0.9303	0.8255	0.0103
0.9437	0.8542	0.0102
0.9555	0.8836	0.0113
0.9662	0.9129	0.0113
0.9809	0.9505	0.0111
0.9894	0.9729	0.0113

System: methyl methanoate + heptane; phases: Liquid
Fixed: Temperature, K = 298.15
Fixed: Pressure, kPa = 101.325
Property: Excess molar enthalpy (molar enthalpy of mixing), kJ/mol (Liquid); method: Calvet calorimetry
Mole fraction of methyl methanoate	Excess molar enthalpy (molar enthalpy of mixing), kJ/mol	uncertainty
0.0673	0.5139	0.0157
0.1535	1.1233	0.0191
0.2499	1.6877	0.0234
0.3332	2.0236	0.026
0.4008	2.1765	0.0273
0.4555	2.2525	0.0281
0.5004	2.2852	0.0284
0.5354	2.2847	0.0284
0.5709	2.2819	0.0284
0.6389	2.1808	0.0273
0.6745	2.1187	0.0268
0.7144	2.0032	0.0256
0.7527	1.8927	0.0246
0.794	1.7236	0.0235
0.8313	1.5201	0.0223
0.8721	1.2671	0.0214
0.9068	0.9811	0.0213
0.9426	0.6559	0.0212
0.973	0.3377	0.0214

System: methyl methanoate + heptane; phases: Liquid, Gas
Fixed: Pressure, kPa = 101.325
Property: Boiling temperature at pressure P, K (Liquid); method: EBULLIO:UFactor:8
Mole fraction of methyl methanoate	Boiling temperature at pressure P, K	uncertainty
0.0101	363.95	3.24
0.0163	358.95	2.08
0.0255	355.79	1.75
0.0295	353	1.71
0.04	349.38	1.35
0.0543	344.78	1.17
0.07	340.75	0.87
0.0887	337.55	0.76
0.1068	334.15	0.74
0.125	331.2	0.7
0.1371	329.22	0.67
0.1584	325.99	0.61
0.182	322.96	0.5
0.2118	320.2	0.43
0.2367	318.18	0.41
0.2693	315.55	0.37
0.3151	312.8	0.34
0.3585	310.3	0.31
0.4002	308.7	0.27
0.4505	307.9	0.25
0.5174	307.39	0.25
0.5815	306.95	0.25
0.6317	306.65	0.25
0.679	306.47	0.25
0.7404	305.82	0.25
0.7564	306.07	0.25
0.7882	305.73	0.25
0.8079	305.55	0.25
0.8249	305.65	0.25
0.848	305.37	0.25
0.8826	305.17	0.25
0.9163	305.01	0.25
0.951	304.79	0.25
0.9709	304.71	0.25
0.9857	304.68	0.25
0.9961	304.69	0.25

System: methyl methanoate + heptane; phases: Liquid
Fixed: Temperature, K = 298.15
Fixed: Pressure, kPa = 101.325
Property: Mass density, kg/m3 (Liquid); method: Vibrating tube method
Mole fraction of methyl methanoate	Mass density, kg/m3	uncertainty
0.042	682.76	0.3
0.1206	689.96	0.33
0.2235	702.15	0.38
0.3614	723.34	0.44
0.4593	741.73	0.51
0.5364	759.27	0.59
0.6079	778.2	0.66
0.6651	795.64	0.78
0.7799	837.8	0.87
0.8321	861.36	1.04
0.8729	882.18	1.17
0.911	904.19	1.28
0.946	926.26	1.41
0.9736	945.92	1.55
0.9935	961.3	1.62

System: methyl methanoate + heptane; phases: Gas, Liquid
Fixed: Pressure, kPa = 101.325
Property: Mole fraction of methyl methanoate (Gas); method: OTHER
Mole fraction of methyl methanoate	Mole fraction of methyl methanoate	uncertainty
0.0101	0.2062	0.074
0.0163	0.3208	0.0461
0.0255	0.3882	0.0355
0.0295	0.4414	0.0321
0.04	0.5091	0.0244
0.0543	0.5899	0.0193
0.07	0.6498	0.0128
0.0887	0.6925	0.0105
0.1068	0.7362	0.0096
0.125	0.769	0.0079
0.1371	0.7845	0.007
0.1584	0.8131	0.0065
0.182	0.8375	0.0055
0.2118	0.8573	0.0049
0.2367	0.868	0.0046
0.2693	0.8821	0.0045
0.3151	0.8956	0.0044
0.3585	0.9095	0.0043
0.4002	0.9186	0.0042
0.4505	0.9227	0.0041
0.5174	0.9269	0.0041
0.5815	0.9303	0.0041
0.6317	0.9319	0.0041
0.679	0.9328	0.0041
0.7404	0.9369	0.0041
0.7564	0.937	0.0041
0.7882	0.9387	0.0041
0.8079	0.9388	0.0041
0.8249	0.9383	0.0041
0.848	0.9432	0.0041
0.8826	0.9476	0.0041
0.9163	0.9531	0.0042
0.951	0.9649	0.0043
0.9709	0.9755	0.0047
0.9857	0.9864	0.0051
0.9961	0.9957	0.0043

System: methyl methanoate + heptane; phases: Liquid, Gas
Property: Azeotropic composition: mole fraction of methyl methanoate (Liquid); method: By X=Y
Temperature, K	Azeotropic composition: mole fraction of methyl methanoate	uncertainty
304.69	0.992	0.001

System: methyl methanoate + heptane; phases: Liquid, Gas
Property: Azeotropic composition: mole fraction of methyl methanoate (Liquid); method: By X=Y
Pressure, kPa	Azeotropic composition: mole fraction of methyl methanoate	uncertainty
101.32	0.992	0.001

System: methyl ethanoate + heptane; phases: Liquid, Gas
Fixed: Pressure, kPa = 101.325
Property: Boiling temperature at pressure P, K (Liquid); method: EBULLIO:UFactor:8
Mole fraction of methyl ethanoate	Boiling temperature at pressure P, K	uncertainty
0.0024	370.13	0.69
0.0075	368.5	0.51
0.0196	366.2	0.43
0.0362	363.5	0.38
0.0672	359.27	0.38
0.0989	354.56	0.33
0.1523	349.55	0.3
0.2098	344.79	0.29
0.2579	342.07	0.27
0.3124	339.65	0.26
0.3687	337.67	0.26
0.4235	336.1	0.25
0.4664	335.07	0.25
0.5155	333.47	0.25
0.5538	332.85	0.25
0.5866	332.36	0.25
0.6295	331.86	0.25
0.677	331.38	0.25
0.72	330.97	0.25
0.783	330.46	0.25
0.8361	330.07	0.25
0.8846	329.81	0.25
0.951	329.61	0.25
0.9805	329.66	0.25
0.9935	329.69	0.25

System: methyl ethanoate + heptane; phases: Liquid
Fixed: Temperature, K = 298.15
Fixed: Pressure, kPa = 101.325
Property: Mass density, kg/m3 (Liquid); method: Vibrating tube method
Mole fraction of methyl ethanoate	Mass density, kg/m3	uncertainty
0.0676	686.77	0.36
0.1019	690.81	0.37
0.1594	698.12	0.39
0.2497	710.82	0.42
0.3137	721.1	0.46
0.4011	736.76	0.49
0.4829	753.42	0.54
0.5498	768.76	0.59
0.6215	786.97	0.64
0.6765	802.41	0.69
0.7204	815.61	0.74
0.7841	836.35	0.79
0.8342	854.72	0.86
0.8837	873.99	0.92
0.9248	891.52	0.99
0.9632	908.98	1.02

System: methyl ethanoate + heptane; phases: Gas, Liquid
Fixed: Pressure, kPa = 101.325
Property: Mole fraction of methyl ethanoate (Gas); method: OTHER
Mole fraction of methyl ethanoate	Mole fraction of methyl ethanoate	uncertainty
0.0024	0.0193	0.0192
0.0075	0.0592	0.0253
0.0196	0.1286	0.0219
0.0362	0.2138	0.0176
0.0672	0.3346	0.0155
0.0989	0.4474	0.0114
0.1523	0.5628	0.0083
0.2098	0.6354	0.0067
0.2579	0.6848	0.0059
0.3124	0.7233	0.0053
0.3687	0.7542	0.005
0.4235	0.7746	0.0048
0.4664	0.7923	0.0048
0.5155	0.8119	0.0047
0.5538	0.8224	0.0046
0.5866	0.832	0.0045
0.6295	0.8428	0.0044
0.677	0.8459	0.0044
0.72	0.8555	0.0044
0.783	0.873	0.0044
0.8361	0.892	0.0044
0.8846	0.9038	0.0046
0.951	0.9446	0.0049
0.9805	0.9715	0.0059
0.9935	0.9918	0.0074

System: methyl ethanoate + heptane; phases: Liquid, Gas
Property: Azeotropic composition: mole fraction of methyl ethanoate (Liquid); method: By X=Y
Temperature, K	Azeotropic composition: mole fraction of methyl ethanoate	uncertainty
329.6	0.934	0.002

System: methyl ethanoate + heptane; phases: Liquid, Gas
Property: Azeotropic composition: mole fraction of methyl ethanoate (Liquid); method: By X=Y
Pressure, kPa	Azeotropic composition: mole fraction of methyl ethanoate	uncertainty
101.32	0.934	0.002

System: heptane + methyl propanoate; phases: Liquid, Gas
Fixed: Pressure, kPa = 101.325
Property: Boiling temperature at pressure P, K (Liquid); method: EBULLIO:UFactor:8
Mole fraction of methyl propanoate	Boiling temperature at pressure P, K	uncertainty
0.016	370.26	0.39
0.0264	369.67	0.39
0.0466	368.57	0.38
0.0787	366.9	0.38
0.1242	364.71	0.37
0.1873	361.98	0.36
0.2426	359.85	0.35
0.3104	357.6	0.34
0.3839	355.58	0.34
0.4167	354.81	0.33
0.4617	353.88	0.33
0.488	353.4	0.33
0.5347	352.66	0.33
0.5628	352.28	0.32
0.5898	351.96	0.32
0.6309	351.57	0.32
0.6684	351.25	0.32
0.7281	350.83	0.32
0.7864	350.58	0.32
0.8167	350.54	0.32
0.8485	350.6	0.32
0.8798	350.62	0.32
0.9223	350.75	0.32
0.9638	351.24	0.32
0.9835	351.42	0.32

System: heptane + methyl propanoate; phases: Liquid
Fixed: Temperature, K = 298.15
Fixed: Pressure, kPa = 101.325
Property: Mass density, kg/m3 (Liquid); method: Vibrating tube method
Mole fraction of methyl propanoate	Mass density, kg/m3	uncertainty
0.064	687.65	0.62
0.1117	694.35	0.64
0.1561	700.97	0.69
0.2628	718.15	0.74
0.365	736.5	0.8
0.4343	750.1	0.88
0.5113	766.46	0.94
0.5683	779.43	1.01
0.6351	795.65	1.07
0.7017	812.9	1.14
0.7543	827.61	1.22
0.8136	845.12	1.28
0.8664	861.73	1.35
0.903	873.85	1.45
0.9689	896.98	1.48

System: heptane + methyl propanoate; phases: Gas, Liquid
Fixed: Pressure, kPa = 101.325
Property: Mole fraction of methyl propanoate (Gas); method: OTHER
Mole fraction of methyl propanoate	Mole fraction of methyl propanoate	uncertainty
0.016	0.0428	0.011
0.0264	0.0695	0.0107
0.0466	0.1188	0.0101
0.0787	0.1914	0.009
0.1242	0.2752	0.0081
0.1873	0.3808	0.0075
0.2426	0.4568	0.0067
0.3104	0.5322	0.0063
0.3839	0.5985	0.006
0.4167	0.6255	0.0056
0.4617	0.6525	0.0055
0.488	0.6721	0.0055
0.5347	0.7025	0.0053
0.5628	0.7173	0.0051
0.5898	0.7315	0.0051
0.6309	0.7506	0.005
0.6684	0.7668	0.0049
0.7281	0.7939	0.0048
0.7864	0.8168	0.0048
0.8167	0.8355	0.005
0.8485	0.8539	0.0049
0.8798	0.8712	0.0051
0.9223	0.9058	0.0055
0.9638	0.9468	0.006
0.9835	0.9735	0.0067

System: heptane + methyl propanoate; phases: Liquid, Gas
Property: Azeotropic composition: mole fraction of methyl propanoate (Liquid); method: By X=Y
Temperature, K	Azeotropic composition: mole fraction of methyl propanoate	uncertainty
350.61	0.861	0.003

System: heptane + methyl propanoate; phases: Liquid, Gas
Property: Azeotropic composition: mole fraction of methyl propanoate (Liquid); method: By X=Y
Pressure, kPa	Azeotropic composition: mole fraction of methyl propanoate	uncertainty
101.32	0.861	0.003

System: heptane + methyl butanoate; phases: Liquid, Gas
Fixed: Pressure, kPa = 101.325
Property: Boiling temperature at pressure P, K (Liquid); method: EBULLIO:UFactor:8
Mole fraction of methyl butanoate	Boiling temperature at pressure P, K	uncertainty
0.0137	371.28	0.33
0.032	370.95	0.33
0.0594	370.5	0.33
0.0848	370.08	0.32
0.1157	369.73	0.32
0.146	369.39	0.32
0.1793	369.07	0.32
0.2169	368.76	0.32
0.2684	368.46	0.32
0.3037	368.36	0.32
0.3339	368.25	0.32
0.3629	368.23	0.32
0.4376	368.2	0.32
0.4623	368.24	0.32
0.4938	368.32	0.32
0.5344	368.47	0.32
0.5759	368.68	0.32
0.6212	368.98	0.32
0.6499	369.21	0.32
0.6932	369.62	0.32
0.7213	369.93	0.32
0.7651	370.49	0.32
0.8003	371.01	0.33
0.8514	371.9	0.33
0.893	372.75	0.33
0.9406	373.89	0.33

System: heptane + methyl butanoate; phases: Liquid
Fixed: Temperature, K = 298.15
Fixed: Pressure, kPa = 101.325
Property: Mass density, kg/m3 (Liquid); method: Vibrating tube method
Mole fraction of methyl butanoate	Mass density, kg/m3	uncertainty
0.0337	684.36	0.67
0.0689	689.75	0.68
0.102	694.93	0.7
0.1531	703.25	0.73
0.2487	719.6	0.76
0.3261	733.58	0.8
0.3824	744.29	0.84
0.4586	759.5	0.88
0.5333	775.25	0.93
0.6085	791.88	0.97
0.6618	804.18	1.01
0.7161	817.1	1.05
0.7869	834.67	1.09
0.8394	848.24	1.13
0.8882	861.22	1.16
0.9255	871.41	1.18

System: heptane + methyl butanoate; phases: Gas, Liquid
Fixed: Pressure, kPa = 101.325
Property: Mole fraction of methyl butanoate (Gas); method: OTHER
Mole fraction of methyl butanoate	Mole fraction of methyl butanoate	uncertainty
0.0137	0.0239	0.0068
0.032	0.0488	0.0066
0.0594	0.0835	0.0065
0.0848	0.1159	0.0062
0.1157	0.1501	0.0059
0.146	0.1831	0.0058
0.1793	0.2168	0.0056
0.2169	0.2519	0.0054
0.2684	0.2976	0.0054
0.3037	0.3271	0.0052
0.3339	0.3489	0.0051
0.3629	0.3706	0.0052
0.4376	0.429	0.0054
0.4623	0.4462	0.0052
0.4938	0.4648	0.0054
0.5344	0.4977	0.0056
0.5759	0.5262	0.0057
0.6212	0.5634	0.0058
0.6499	0.5858	0.0059
0.6932	0.6242	0.006
0.7213	0.6503	0.0061
0.7651	0.6916	0.0061
0.8003	0.7273	0.0064
0.8514	0.7855	0.0066
0.893	0.8387	0.007
0.9406	0.9077	0.0071

System: heptane + methyl butanoate; phases: Liquid, Gas
Property: Azeotropic composition: mole fraction of methyl butanoate (Liquid); method: By X=Y
Temperature, K	Azeotropic composition: mole fraction of methyl butanoate	uncertainty
368.22	0.398	0.006

System: heptane + methyl butanoate; phases: Liquid, Gas
Property: Azeotropic composition: mole fraction of methyl butanoate (Liquid); method: By X=Y
Pressure, kPa	Azeotropic composition: mole fraction of methyl butanoate	uncertainty
101.32	0.398	0.006
