Measured thermophysical data. Densities and Excess Molar Volumes of Aqueous Solutions of n-Methyldiethanolamine (MDEA) at Temperatures from (283.15 to 363.15) K
Source: J. Chem. Eng. Data, 2003, 10.1021/je030120x
Compound 1: N-methyldiethanolamine, C5H13NO2, InChI=1S/C5H13NO2/c1-6(2-4-7)3-5-8/h7-8H,2-5H2,1H3, purity 99%
Compound 2: water, H2O, InChI=1S/H2O/h1H2, purity 99.9%

System: N-methyldiethanolamine; phases: Liquid
Fixed: Pressure, kPa = 101.325
Property: Mass density, kg/m3 (Liquid); method: VIBTUB:mpoint:UFactor:8
Temperature, K	Mass density, kg/m3	uncertainty
283.152	1047.527	0.666
288.148	1044.5	0.7
293.147	1041.604	0.664
298.147	1037.863	0.663
303.145	1034.1	0.661
308.145	1030.322	0.66
313.146	1026.523	0.658
318.15	1022.7	0.657
323.145	1018.877	0.656
328.143	1015.022	0.654
333.145	1011.43	0.653
338.145	1007.246	0.651
343.148	1003.321	0.65
348.146	999.377	0.649
353.145	995.408	0.647
358.148	991.411	0.646
363.146	987.391	0.645

System: N-methyldiethanolamine + water; phases: Liquid
Fixed: Pressure, kPa = 101.325
Property: Mass density, kg/m3 (Liquid); method: VIBTUB:mpoint:UFactor:8
Mole fraction of N-methyldiethanolamine	Temperature, K	Mass density, kg/m3	uncertainty
0	283.15	999.699	0.407
0	288.15	999.099	0.407
0	293.15	998.203	0.408
0	298.15	997.043	0.408
0	303.15	995.645	0.408
0	308.15	994.029	0.408
0	313.15	992.212	0.408
0	318.15	990.208	0.408
0	323.15	988.03	0.408
0	328.15	985.688	0.408
0	333.15	983.191	0.408
0	338.15	980.546	0.409
0	343.15	977.759	0.409
0	348.15	974.838	0.409
0	353.15	971.785	0.41
0	358.15	968.606	0.411
0	363.15	965.305	0.411
0.0168	283.152	1009.779	0.409
0.0168	288.148	1008.826	0.409
0.0168	293.147	1007.623	0.409
0.0168	298.147	1006.19	0.409
0.0168	303.144	1004.547	0.409
0.0168	308.145	1002.707	0.409
0.0168	313.145	1000.686	0.409
0.0168	318.145	998.493	0.409
0.0168	323.144	996.136	0.409
0.0168	328.147	993.628	0.409
0.0168	333.145	990.972	0.41
0.0168	338.144	988.168	0.41
0.0168	343.149	985.251	0.41
0.0168	348.145	982.189	0.411
0.0168	353.146	979.011	0.411
0.0168	358.144	975.732	0.412
0.0168	363.148	972.319	0.414
0.0604	283.152	1030.906	0.413
0.0604	288.148	1028.999	0.413
0.0604	293.146	1026.937	0.413
0.0604	298.145	1024.734	0.413
0.0604	303.145	1022.387	0.413
0.0604	308.145	1019.905	0.413
0.0604	313.148	1017.291	0.413
0.0604	318.145	1014.547	0.413
0.0604	323.145	1011.677	0.413
0.0604	328.149	1008.688	0.413
0.0604	333.145	1005.577	0.414
0.0604	338.144	1002.348	0.414
0.0604	343.148	999.025	0.414
0.0604	348.145	995.582	0.414
0.0604	353.149	992.036	0.415
0.0604	358.146	988.382	0.416
0.0604	363.148	984.56	0.418
0.0902	283.152	1041.808	0.416
0.0902	288.147	1039.369	0.417
0.0902	293.145	1036.821	0.416
0.0902	298.146	1034.162	0.416
0.0902	303.145	1031.401	0.416
0.0902	308.146	1028.535	0.416
0.0902	313.146	1025.563	0.416
0.0902	318.145	1022.489	0.416
0.0902	323.144	1019.309	0.416
0.0902	328.145	1016.031	0.416
0.0902	333.144	1012.651	0.417
0.0902	338.148	1009.172	0.417
0.0902	343.145	1005.595	0.417
0.0902	348.148	1001.926	0.417
0.0902	353.146	998.157	0.418
0.0902	358.149	994.302	0.419
0.0902	363.145	989.819	0.42
0.1293	283.153	1051.611	0.421
0.1293	288.148	1048.699	0.421
0.1293	293.145	1045.7	0.421
0.1293	298.145	1042.627	0.421
0.1293	303.144	1039.471	0.421
0.1293	308.147	1036.227	0.421
0.1293	313.145	1032.899	0.421
0.1293	318.145	1029.474	0.421
0.1293	323.145	1025.957	0.421
0.1293	328.146	1022.352	0.421
0.1293	333.144	1018.64	0.421
0.1293	338.144	1014.883	0.421
0.1293	343.147	1011.201	0.422
0.1293	348.144	1007.252	0.422
0.1293	353.148	1003.386	0.422
0.1293	358.146	999.335	0.423
0.1293	363.149	995.203	0.425
0.1823	283.152	1058.881	0.428
0.1823	288.148	1055.609	0.429
0.1823	293.146	1052.266	0.429
0.1823	298.145	1048.867	0.429
0.1823	303.145	1045.403	0.429
0.1823	308.148	1041.876	0.429
0.1823	313.146	1038.284	0.429
0.1823	318.145	1034.626	0.428
0.1823	323.145	1030.901	0.428
0.1823	328.149	1027.105	0.428
0.1823	333.144	1023.242	0.428
0.1823	338.145	1019.307	0.429
0.1823	343.149	1015.304	0.429
0.1823	348.145	1011.228	0.429
0.1823	353.144	1007.085	0.429
0.1823	358.144	1002.87	0.43
0.1823	363.149	998.583	0.432
0.2571	283.153	1062.935	0.442
0.2571	288.144	1059.433	0.442
0.2571	293.145	1055.87	0.442
0.2571	298.145	1052.255	0.442
0.2571	303.145	1048.589	0.442
0.2571	308.146	1044.866	0.441
0.2571	313.145	1041.088	0.441
0.2571	318.145	1037.253	0.441
0.2571	323.145	1033.364	0.441
0.2571	328.149	1029.414	0.441
0.2571	333.143	1025.407	0.441
0.2571	338.148	1021.34	0.441
0.2571	343.145	1017.215	0.441
0.2571	348.15	1013.029	0.441
0.2571	353.145	1008.784	0.441
0.2571	358.145	1004.483	0.442
0.2571	363.146	1000.118	0.443
0.3715	283.15	1062.292	0.467
0.3715	288.148	1058.5	0.467
0.3715	293.148	1055.044	0.466
0.3715	298.146	1051.328	0.466
0.3715	303.146	1047.576	0.466
0.3715	308.146	1043.997	0.465
0.3715	313.145	1039.983	0.465
0.3715	318.148	1036.135	0.465
0.3715	323.145	1032.233	0.464
0.3715	328.145	1028.284	0.464
0.3715	333.144	1024.272	0.464
0.3715	338.149	1020.189	0.464
0.3715	343.145	1016.154	0.464
0.3715	348.144	1011.871	0.464
0.3715	353.147	1007.635	0.464
0.3715	358.144	1003.346	0.464
0.3715	363.15	999.011	0.464
0.4849	283.153	1059.632	0.496
0.4849	288.148	1056.011	0.496
0.4849	293.15	1052.347	0.495
0.4849	298.148	1048.636	0.495
0.4849	303.148	1044.884	0.494
0.4849	308.15	1041.095	0.494
0.4849	313.148	1037.267	0.493
0.4849	318.15	1033.397	0.493
0.4849	323.149	1029.491	0.492
0.4849	328.145	1025.543	0.492
0.4849	333.148	1021.558	0.491
0.4849	338.149	1017.528	0.491
0.4849	343.149	1013.461	0.49
0.4849	348.149	1009.348	0.49
0.4849	353.149	1005.191	0.49
0.4849	358.148	1000.995	0.49
0.4849	363.148	996.751	0.49
0.5828	283.151	1056.201	0.524
0.5828	288.148	1052.493	0.524
0.5828	293.151	1048.826	0.523
0.5828	298.15	1045.112	0.522
0.5828	303.148	1041.361	0.521
0.5828	308.149	1037.595	0.521
0.5828	313.148	1033.797	0.52
0.5828	318.15	1029.974	0.519
0.5828	323.149	1026.125	0.519
0.5828	328.149	1022.244	0.518
0.5828	333.148	1018.33	0.517
0.5828	338.148	1014.373	0.517
0.5828	343.148	1010.371	0.516
0.5828	348.148	1006.319	0.516
0.5828	353.149	1002.236	0.516
0.5828	358.149	998.114	0.515
0.5828	363.149	993.956	0.515
0.7175	283.153	1052.252	0.566
0.7175	288.149	1048.493	0.565
0.7175	293.149	1044.814	0.564
0.7175	298.148	1041.1	0.564
0.7175	303.149	1037.373	0.563
0.7175	308.148	1033.629	0.562
0.7175	313.148	1029.869	0.561
0.7175	318.148	1026.09	0.56
0.7175	323.149	1022.3	0.559
0.7175	328.149	1018.491	0.558
0.7175	333.148	1014.649	0.557
0.7175	338.149	1010.765	0.556
0.7175	343.149	1006.825	0.556
0.7175	348.15	1002.842	0.555
0.7175	353.149	998.834	0.554
0.7175	358.149	994.796	0.554
0.7175	363.148	990.73	0.553
0.743	283.155	1051.628	0.575
0.743	288.148	1047.903	0.574
0.743	293.148	1044.219	0.573
0.743	298.148	1040.51	0.572
0.743	303.148	1036.78	0.571
0.743	308.148	1033.033	0.57
0.743	313.148	1029.27	0.569
0.743	318.149	1025.488	0.568
0.743	323.149	1021.686	0.567
0.743	328.149	1017.874	0.566
0.743	333.148	1014.039	0.565
0.743	338.149	1010.158	0.564
0.743	343.149	1006.225	0.563
0.743	348.149	1002.258	0.563
0.743	353.15	998.262	0.562
0.743	358.148	994.238	0.561
0.743	363.149	990.181	0.561
1	283.152	1047.527	0.666
1	288.148	1044.5	0.7
1	293.147	1041.604	0.664
1	298.147	1037.863	0.663
1	303.145	1034.1	0.661
1	308.145	1030.322	0.66
1	313.146	1026.523	0.658
1	318.15	1022.7	0.657
1	323.145	1018.877	0.656
1	328.143	1015.022	0.654
1	333.145	1011.43	0.653
1	338.145	1007.246	0.651
1	343.148	1003.321	0.65
1	348.146	999.377	0.649
1	353.145	995.408	0.647
1	358.148	991.411	0.646
1	363.146	987.391	0.645
