Measured thermophysical data. Liquid-Liquid Equilibria of Room Temperature Ionic Liquids and Butan-1-ol
Source: J. Chem. Eng. Data, 2003, 10.1021/je0340093
Compound 1: butan-1-ol, C4H10O, InChI=1S/C4H10O/c1-2-3-4-5/h5H,2-4H2,1H3, purity 99.4%
Compound 2: 1-butyl-3-methylimidazolium hexafluorophosphate, C8H15F6N2P, InChI=1S/C8H15N2.F6P/c1-3-4-5-10-7-6-9(2)8-10;1-7(2,3,4,5)6/h6-8H,3-5H2,1-2H3;/q+1;-1
Compound 3: 1-methyl-3-pentylimidazolium hexafluorophosphate, C9H17F6N2P, InChI=1S/C9H17N2.F6P/c1-3-4-5-6-11-8-7-10(2)9-11;1-7(2,3,4,5)6/h7-9H,3-6H2,1-2H3;/q+1;-1
Compound 4: 1-hexyl-3-methylimidazolium hexafluorophosphate, C10H19F6N2P, InChI=1S/C10H19N2.F6P/c1-3-4-5-6-7-12-9-8-11(2)10-12;1-7(2,3,4,5)6/h8-10H,3-7H2,1-2H3;/q+1;-1
Compound 5: 1-heptyl-3-methylimidazolium hexafluorophosphate, C11H21F6N2P, InChI=1S/C11H21N2.F6P/c1-3-4-5-6-7-8-13-10-9-12(2)11-13;1-7(2,3,4,5)6/h9-11H,3-8H2,1-2H3;/q+1;-1
Compound 6: 1-octyl-3-methylimidazolium hexafluorophosphate, C12H23F6N2P, InChI=1S/C12H23N2.F6P/c1-3-4-5-6-7-8-9-14-11-10-13(2)12-14;1-7(2,3,4,5)6/h10-12H,3-9H2,1-2H3;/q+1;-1

System: butan-1-ol + 1-butyl-3-methylimidazolium hexafluorophosphate; phases: Liquid mixture 1, Liquid mixture 2
Fixed: Pressure, kPa = 101.3
Property: Liquid-liquid equilibrium temperature, K (Liquid mixture 1); method: VISOBS
Mole fraction of butan-1-ol	Liquid-liquid equilibrium temperature, K	uncertainty
0.262	298.21	0.25
0.345	319.78	0.25
0.402	331.78	0.25
0.433	337.39	0.25
0.488	346.93	0.25
0.525	352.31	0.25
0.553	356.23	0.25
0.597	361.69	0.25
0.631	365.53	0.25
0.669	369.09	0.25
0.716	372.91	0.25
0.977	371.83	0.25
0.981	369.28	0.25
0.985	365.75	0.25
0.991	355.58	0.25

System: butan-1-ol + 1-methyl-3-pentylimidazolium hexafluorophosphate; phases: Liquid mixture 1, Liquid mixture 2
Fixed: Pressure, kPa = 101.3
Property: Liquid-liquid equilibrium temperature, K (Liquid mixture 1); method: VISOBS
Mole fraction of butan-1-ol	Liquid-liquid equilibrium temperature, K	uncertainty
0.209	280.09	0.25
0.297	299.53	0.25
0.337	308.34	0.25
0.361	313.51	0.25
0.391	318	0.25
0.433	324.53	0.25
0.482	332.34	0.25
0.514	337.02	0.25
0.558	343.4	0.25
0.593	347.88	0.25
0.65	354.28	0.25
0.69	357.9	0.25
0.717	360.13	0.25
0.747	362.2	0.25
0.774	363.72	0.25
0.804	365.28	0.25
0.823	365.78	0.25
0.859	366.15	0.25
0.875	366.23	0.25
0.9	366.18	0.25
0.922	365.99	0.25
0.944	365.11	0.25
0.962	362.98	0.25
0.978	357.87	0.25
0.995	329.9	0.25

System: butan-1-ol + 1-hexyl-3-methylimidazolium hexafluorophosphate; phases: Liquid mixture 1, Liquid mixture 2
Fixed: Pressure, kPa = 101.3
Property: Liquid-liquid equilibrium temperature, K (Liquid mixture 1); method: VISOBS
Mole fraction of butan-1-ol	Liquid-liquid equilibrium temperature, K	uncertainty
0.345	291.34	0.25
0.441	309.68	0.25
0.502	318.66	0.25
0.568	328.64	0.25
0.615	334.05	0.25
0.657	338	0.25
0.715	343.19	0.25
0.776	347.26	0.25
0.843	349.64	0.25
0.881	350.18	0.25
0.905	350.31	0.25
0.925	350.3	0.25
0.937	350.08	0.25
0.957	348.57	0.25
0.973	345.6	0.25
0.989	336.08	0.25
0.996	316.98	0.25

System: butan-1-ol + 1-heptyl-3-methylimidazolium hexafluorophosphate; phases: Liquid mixture 1, Liquid mixture 2
Fixed: Pressure, kPa = 101.3
Property: Liquid-liquid equilibrium temperature, K (Liquid mixture 1); method: VISOBS
Mole fraction of butan-1-ol	Liquid-liquid equilibrium temperature, K	uncertainty
0.362	282.17	0.25
0.446	295.09	0.25
0.493	301.43	0.25
0.544	307.83	0.25
0.598	314.18	0.25
0.648	319.88	0.25
0.703	325.37	0.25
0.737	328.18	0.25
0.788	331.76	0.25
0.838	334.1	0.25
0.887	334.79	0.25
0.909	335.08	0.25
0.918	335.32	0.25
0.936	335.47	0.25
0.952	335.05	0.25
0.969	333.56	0.25
0.981	330.1	0.25
0.995	314.89	0.25

System: butan-1-ol + 1-octyl-3-methylimidazolium hexafluorophosphate; phases: Liquid mixture 1, Liquid mixture 2
Fixed: Pressure, kPa = 101.3
Property: Liquid-liquid equilibrium temperature, K (Liquid mixture 1); method: VISOBS
Mole fraction of butan-1-ol	Liquid-liquid equilibrium temperature, K	uncertainty
0.361	274.9	0.25
0.423	284.53	0.25
0.496	293.99	0.25
0.536	299.1	0.25
0.58	304.4	0.25
0.599	306.52	0.25
0.648	311.73	0.25
0.701	316.94	0.25
0.748	320.45	0.25
0.788	323.03	0.25
0.827	325.01	0.25
0.851	325.66	0.25
0.884	326.11	0.25
0.903	326.29	0.25
0.915	326.38	0.25
0.925	326.31	0.25
0.933	326.29	0.25
0.939	326.25	0.25
0.943	326.17	0.25
0.978	321.91	0.25
0.986	318.57	0.25
0.99	316.31	0.25
