Measured thermophysical data. Viscosities, Densities, and Ultrasonic Velocities of 3-Pentanone + Ethylbenzene and 3-Pentanone + o-Xylene at (293.15, 303.15, and 313.15) K
Source: J. Chem. Eng. Data, 2003, 10.1021/je030151s
Compound 1: ethylbenzene, C8H10, InChI=1S/C8H10/c1-2-8-6-4-3-5-7-8/h3-7H,2H2,1H3
Compound 2: 1,2-dimethylbenzene, C8H10, InChI=1S/C8H10/c1-7-5-3-4-6-8(7)2/h3-6H,1-2H3
Compound 3: pentan-3-one, C5H10O, InChI=1S/C5H10O/c1-3-5(6)4-2/h3-4H2,1-2H3

System: ethylbenzene; phases: Liquid
Fixed: Pressure, kPa = 101.3
Property: Viscosity, Pa*s (Liquid); method: Capillary tube (Ostwald; Ubbelohde) method
Temperature, K	Viscosity, Pa*s	uncertainty
293.15	0.0006793	8.5e-06
303.15	0.0006006	7.7e-06
313.15	0.0005355	7e-06

System: ethylbenzene; phases: Liquid
Fixed: Pressure, kPa = 101.3
Property: Speed of sound, m/s (Liquid); method: LVPAI::UFactor:2
Temperature, K	Speed of sound, m/s	uncertainty
293.15	1333.4	3.5
303.15	1295.7	3.4
313.15	1259.8	3.4

System: ethylbenzene; phases: Liquid
Fixed: Pressure, kPa = 101.3
Property: Mass density, kg/m3 (Liquid); method: PYCNOM:UFactor:4
Temperature, K	Mass density, kg/m3	uncertainty
293.15	867.4	1.2
303.15	856.5	1.2
313.15	848.9	1.3

System: 1,2-dimethylbenzene; phases: Liquid
Fixed: Pressure, kPa = 101.3
Property: Viscosity, Pa*s (Liquid); method: Capillary tube (Ostwald; Ubbelohde) method
Temperature, K	Viscosity, Pa*s	uncertainty
293.15	0.0008092	9.8e-06
303.15	0.0007172	8.9e-06
313.15	0.0006292	7.9e-06

System: 1,2-dimethylbenzene; phases: Liquid
Fixed: Pressure, kPa = 101.3
Property: Speed of sound, m/s (Liquid); method: LVPAI::UFactor:2
Temperature, K	Speed of sound, m/s	uncertainty
293.15	1365.6	3.5
303.15	1339	3.5
313.15	1297.5	3.4

System: 1,2-dimethylbenzene; phases: Liquid
Fixed: Pressure, kPa = 101.3
Property: Mass density, kg/m3 (Liquid); method: PYCNOM::UFactor:4
Temperature, K	Mass density, kg/m3	uncertainty
293.15	880.2	1.2
303.15	871.8	1.2
313.15	863.2	1.3

System: pentan-3-one; phases: Liquid
Fixed: Pressure, kPa = 101.3
Property: Viscosity, Pa*s (Liquid); method: Capillary tube (Ostwald; Ubbelohde) method
Temperature, K	Viscosity, Pa*s	uncertainty
293.15	0.0004714	6.4e-06
303.15	0.0004231	5.9e-06
313.15	0.0003799	5.5e-06

System: pentan-3-one; phases: Liquid
Fixed: Pressure, kPa = 101.3
Property: Speed of sound, m/s (Liquid); method: LVPAI::UFactor:2
Temperature, K	Speed of sound, m/s	uncertainty
293.15	1230.7	3.3
303.15	1197.8	3.3
313.15	1159.1	3.3

System: pentan-3-one; phases: Liquid
Fixed: Pressure, kPa = 101.3
Property: Mass density, kg/m3 (Liquid); method: PYCNOM::UFactor:4
Temperature, K	Mass density, kg/m3	uncertainty
293.15	814.4	1.1
303.15	804.7	1.1
313.15	794.9	1.2

System: pentan-3-one + ethylbenzene; phases: Liquid
Fixed: Pressure, kPa = 101.3
Property: Viscosity, Pa*s (Liquid); method: Capillary tube (Ostwald; Ubbelohde) method
Temperature, K	Mole fraction of pentan-3-one	Viscosity, Pa*s	uncertainty
293.15	0	0.0006793	8.5e-06
293.15	0.0911	0.0006538	8.2e-06
293.15	0.2055	0.000625	7.9e-06
293.15	0.3176	0.0006015	7.7e-06
293.15	0.4296	0.0005789	7.4e-06
293.15	0.5331	0.0005574	7.2e-06
293.15	0.6387	0.000534	7e-06
293.15	0.7378	0.000516	6.8e-06
293.15	0.8322	0.0004975	6.6e-06
293.15	0.9245	0.0004811	6.5e-06
293.15	1	0.0004714	6.4e-06
303.15	0	0.0006006	7.7e-06
303.15	0.0911	0.0005795	7.4e-06
303.15	0.2055	0.0005539	7.2e-06
303.15	0.3176	0.0005281	6.9e-06
303.15	0.4296	0.0005046	6.7e-06
303.15	0.5331	0.000486	6.5e-06
303.15	0.6387	0.000469	6.3e-06
303.15	0.7378	0.000454	6.2e-06
303.15	0.8322	0.000441	6.1e-06
303.15	0.9245	0.0004309	6e-06
303.15	1	0.0004231	5.9e-06
313.15	0	0.0005355	7e-06
313.15	0.0911	0.0005116	6.8e-06
313.15	0.2055	0.0004881	6.5e-06
313.15	0.3176	0.0004642	6.3e-06
313.15	0.4296	0.0004429	6.1e-06
313.15	0.5331	0.0004247	5.9e-06
313.15	0.6387	0.000411	5.8e-06
313.15	0.7378	0.000399	5.7e-06
313.15	0.8322	0.000388	5.6e-06
313.15	0.9245	0.00038	5.5e-06
313.15	1	0.0003799	5.5e-06

System: pentan-3-one + ethylbenzene; phases: Liquid
Fixed: Pressure, kPa = 101.3
Property: Speed of sound, m/s (Liquid); method: LVPAI:UFactor:2
Temperature, K	Mole fraction of pentan-3-one	Speed of sound, m/s	uncertainty
293.15	0	1333.4	3.5
293.15	0.0911	1328.5	3.5
293.15	0.2055	1319	3.5
293.15	0.3176	1309.6	3.4
293.15	0.4296	1298	3.4
293.15	0.5331	1287	3.4
293.15	0.6387	1275	3.4
293.15	0.7378	1263	3.4
293.15	0.8322	1251	3.4
293.15	0.9245	1240.3	3.4
293.15	1	1230.7	3.3
303.15	0	1295.7	3.4
303.15	0.0911	1290.2	3.4
303.15	0.2055	1281.9	3.4
303.15	0.3176	1272.2	3.4
303.15	0.4296	1264.5	3.4
303.15	0.5331	1252.3	3.4
303.15	0.6387	1242	3.4
303.15	0.7378	1230	3.3
303.15	0.8322	1217.5	3.3
303.15	0.9245	1206.6	3.3
303.15	1	1197.8	3.3
313.15	0	1259.8	3.4
313.15	0.0911	1254.5	3.4
313.15	0.2055	1246.6	3.4
313.15	0.3176	1237.2	3.4
313.15	0.4296	1227.2	3.3
313.15	0.5331	1217.5	3.3
313.15	0.6387	1206	3.3
313.15	0.7378	1195	3.3
313.15	0.8322	1184.4	3.3
313.15	0.9245	1172.5	3.3
313.15	1	1159.1	3.3

System: pentan-3-one + ethylbenzene; phases: Liquid
Fixed: Pressure, kPa = 101.3
Property: Mass density, kg/m3 (Liquid); method: PYCNOM:UFactor:4
Temperature, K	Mole fraction of pentan-3-one	Mass density, kg/m3	uncertainty
293.15	0	867.4	1.2
293.15	0.0911	867	1.2
293.15	0.2055	865.5	1.2
293.15	0.3176	863.2	1.2
293.15	0.4296	860.1	1.2
293.15	0.5331	854.8	1.2
293.15	0.6387	848.5	1.1
293.15	0.7378	842.5	1.1
293.15	0.8322	835	1.1
293.15	0.9245	826	1.1
293.15	1	814.4	1.1
303.15	0	856.5	1.2
303.15	0.0911	855.9	1.2
303.15	0.2055	855.1	1.2
303.15	0.3176	852.8	1.2
303.15	0.4296	849.9	1.2
303.15	0.5331	845.3	1.2
303.15	0.6387	839.6	1.2
303.15	0.7378	833.4	1.2
303.15	0.8322	826.8	1.2
303.15	0.9245	818	1.2
303.15	1	804.7	1.1
313.15	0	848.9	1.3
313.15	0.0911	848.3	1.3
313.15	0.2055	847	1.3
313.15	0.3176	844.5	1.3
313.15	0.4296	840.8	1.3
313.15	0.5331	836.6	1.3
313.15	0.6387	830.6	1.2
313.15	0.7378	824.5	1.2
313.15	0.8322	817.5	1.2
313.15	0.9245	808	1.2
313.15	1	794.9	1.2

System: 1,2-dimethylbenzene + pentan-3-one; phases: Liquid
Fixed: Pressure, kPa = 101.3
Property: Viscosity, Pa*s (Liquid); method: Capillary tube (Ostwald; Ubbelohde) method
Temperature, K	Mole fraction of pentan-3-one	Viscosity, Pa*s	uncertainty
293.15	0	0.0008092	9.8e-06
293.15	0.0955	0.0007649	9.4e-06
293.15	0.2073	0.0007182	8.9e-06
293.15	0.3191	0.000675	8.4e-06
293.15	0.4298	0.000636	8e-06
293.15	0.5338	0.0006001	7.6e-06
293.15	0.6363	0.000568	7.3e-06
293.15	0.7329	0.000537	7e-06
293.15	0.8283	0.00051	6.7e-06
293.15	0.9242	0.0004882	6.5e-06
293.15	1	0.0004714	6.4e-06
303.15	0	0.0007172	8.9e-06
303.15	0.0955	0.000677	8.4e-06
303.15	0.2073	0.000638	8e-06
303.15	0.3191	0.0006003	7.7e-06
303.15	0.4298	0.000562	7.3e-06
303.15	0.5338	0.0005271	6.9e-06
303.15	0.6363	0.000497	6.6e-06
303.15	0.7329	0.0004719	6.4e-06
303.15	0.8283	0.0004481	6.1e-06
303.15	0.9242	0.0004333	6e-06
303.15	1	0.0004231	5.9e-06
313.15	0	0.0006292	7.9e-06
313.15	0.0955	0.0005965	7.6e-06
313.15	0.2073	0.000565	7.3e-06
313.15	0.3191	0.000533	7e-06
313.15	0.4298	0.000502	6.7e-06
313.15	0.5338	0.000474	6.4e-06
313.15	0.6363	0.000447	6.1e-06
313.15	0.7329	0.000424	5.9e-06
313.15	0.8283	0.0004034	5.7e-06
313.15	0.9242	0.0003872	5.6e-06
313.15	1	0.0003799	5.5e-06

System: 1,2-dimethylbenzene + pentan-3-one; phases: Liquid
Fixed: Pressure, kPa = 101.3
Property: Speed of sound, m/s (Liquid); method: LVPAI:UFactor:2
Temperature, K	Mole fraction of pentan-3-one	Speed of sound, m/s	uncertainty
293.15	0	1365.6	3.5
293.15	0.0955	1357	3.5
293.15	0.2073	1345.1	3.5
293.15	0.3191	1333.5	3.5
293.15	0.4298	1318.8	3.5
293.15	0.5338	1306	3.4
293.15	0.6363	1292.2	3.4
293.15	0.7329	1279.4	3.4
293.15	0.8283	1266.2	3.4
293.15	0.9242	1250.9	3.4
293.15	1	1230.7	3.3
303.15	0	1339	3.5
303.15	0.0955	1328	3.5
303.15	0.2073	1315	3.5
303.15	0.3191	1303	3.4
303.15	0.4298	1287	3.4
303.15	0.5338	1272	3.4
303.15	0.6363	1255.8	3.4
303.15	0.7329	1245	3.4
303.15	0.8283	1229	3.3
303.15	0.9242	1213	3.3
303.15	1	1197.8	3.3
313.15	0	1297.5	3.4
313.15	0.0955	1287.6	3.4
313.15	0.2073	1277	3.4
313.15	0.3191	1262	3.4
313.15	0.4298	1251	3.4
313.15	0.5338	1238	3.4
313.15	0.6363	1224	3.3
313.15	0.7329	1208.3	3.3
313.15	0.8283	1194	3.3
313.15	0.9242	1179.3	3.3
313.15	1	1159.1	3.3

System: 1,2-dimethylbenzene + pentan-3-one; phases: Liquid
Fixed: Pressure, kPa = 101.3
Property: Mass density, kg/m3 (Liquid); method: PYCNOM:UFactor:4
Temperature, K	Mole fraction of pentan-3-one	Mass density, kg/m3	uncertainty
293.15	0	880.2	1.2
293.15	0.0955	878	1.2
293.15	0.2073	875	1.2
293.15	0.3191	871.1	1.2
293.15	0.4298	865.3	1.2
293.15	0.5338	859.5	1.2
293.15	0.6363	852.1	1.1
293.15	0.7329	845	1.1
293.15	0.8283	836.8	1.1
293.15	0.9242	826.3	1.1
293.15	1	814.4	1.1
303.15	0	871.8	1.2
303.15	0.0955	870.5	1.2
303.15	0.2073	868.5	1.2
303.15	0.3191	863.1	1.2
303.15	0.4298	857.3	1.2
303.15	0.5338	850.5	1.2
303.15	0.6363	844	1.2
303.15	0.7329	837.3	1.2
303.15	0.8283	829.1	1.2
303.15	0.9242	817	1.2
303.15	1	804.7	1.1
313.15	0	863.2	1.3
313.15	0.0955	862.4	1.3
313.15	0.2073	859.4	1.3
313.15	0.3191	855	1.3
313.15	0.4298	848.8	1.3
313.15	0.5338	842.5	1.3
313.15	0.6363	835.5	1.3
313.15	0.7329	827.9	1.2
313.15	0.8283	819.9	1.2
313.15	0.9242	808.2	1.2
313.15	1	794.9	1.2
