Measured thermophysical data. Vapor Pressures and Vaporization Enthalpies of the n-Alkanes from C21 to C30 at T = 298.15 K by Correlation Gas Chromatography
Source: J. Chem. Eng. Data, 2004, 10.1021/je0301747
Compound 1: docosane, C22H46, InChI=1S/C22H46/c1-3-5-7-9-11-13-15-17-19-21-22-20-18-16-14-12-10-8-6-4-2/h3-22H2,1-2H3, purity 99%
Compound 2: tricosane, C23H48, InChI=1S/C23H48/c1-3-5-7-9-11-13-15-17-19-21-23-22-20-18-16-14-12-10-8-6-4-2/h3-23H2,1-2H3, purity 99%
Compound 3: tetracosane, C24H50, InChI=1S/C24H50/c1-3-5-7-9-11-13-15-17-19-21-23-24-22-20-18-16-14-12-10-8-6-4-2/h3-24H2,1-2H3, purity 99%
Compound 4: pentacosane, C25H52, InChI=1S/C25H52/c1-3-5-7-9-11-13-15-17-19-21-23-25-24-22-20-18-16-14-12-10-8-6-4-2/h3-25H2,1-2H3, purity 99%
Compound 5: hexacosane, C26H54, InChI=1S/C26H54/c1-3-5-7-9-11-13-15-17-19-21-23-25-26-24-22-20-18-16-14-12-10-8-6-4-2/h3-26H2,1-2H3, purity 99%
Compound 6: heptacosane, C27H56, InChI=1S/C27H56/c1-3-5-7-9-11-13-15-17-19-21-23-25-27-26-24-22-20-18-16-14-12-10-8-6-4-2/h3-27H2,1-2H3, purity 99%
Compound 7: octacosane, C28H58, InChI=1S/C28H58/c1-3-5-7-9-11-13-15-17-19-21-23-25-27-28-26-24-22-20-18-16-14-12-10-8-6-4-2/h3-28H2,1-2H3, purity 99%
Compound 8: nonacosane, C29H60, InChI=1S/C29H60/c1-3-5-7-9-11-13-15-17-19-21-23-25-27-29-28-26-24-22-20-18-16-14-12-10-8-6-4-2/h3-29H2,1-2H3, purity 99%
Compound 9: triacontane, C30H62, InChI=1S/C30H62/c1-3-5-7-9-11-13-15-17-19-21-23-25-27-29-30-28-26-24-22-20-18-16-14-12-10-8-6-4-2/h3-30H2,1-2H3, purity 99%
Compound 10: heneicosane, C21H44, InChI=1S/C21H44/c1-3-5-7-9-11-13-15-17-19-21-20-18-16-14-12-10-8-6-4-2/h3-21H2,1-2H3, purity 99%

System: docosane; phases: Liquid, Gas
Property: Molar enthalpy of vaporization or sublimation, kJ/mol (Liquid); method: OTHER
Temperature, K	Molar enthalpy of vaporization or sublimation, kJ/mol	uncertainty
298.15	111.9	7.9

System: docosane; phases: Liquid, Gas
Property: Vapor or sublimation pressure, kPa (Liquid); method: OTHER
Temperature, K	Vapor or sublimation pressure, kPa	uncertainty
298.15	2.14761e-07	4.01019e-07
328.15	1.2176127e-05	5.540961e-06
358.15	0.00029884226	8.8428587e-05
388.15	0.0039224355	0.00094583279
418.15	0.032000441	0.0070471333
448.15	0.18089634	0.038199448
478.15	0.76739993	0.1586586
508.15	2.59276	0.52985754
538.15	7.2977895	1.4811711
568.15	17.71293	3.5813448
575.15	21.389109	4.3099906

System: tricosane; phases: Liquid, Gas
Property: Molar enthalpy of vaporization or sublimation, kJ/mol (Liquid); method: OTHER
Temperature, K	Molar enthalpy of vaporization or sublimation, kJ/mol	uncertainty
298.15	117	8.2

System: tricosane; phases: Liquid, Gas
Property: Vapor or sublimation pressure, kPa (Liquid); method: OTHER
Temperature, K	Vapor or sublimation pressure, kPa	uncertainty
298.15	7.05872e-08	1.583213e-07
328.15	4.801305e-06	2.462686e-06
358.15	0.00013613569	4.305182e-05
388.15	0.0020057123	0.00049922584
418.15	0.017966046	0.0040159645
448.15	0.10961326	0.023321044
478.15	0.4951694	0.10279592
508.15	1.7626614	0.36109036
538.15	5.1829071	1.053531
568.15	13.051535	2.6414893
575.15	15.882799	3.2022456

System: tetracosane; phases: Liquid, Gas
Property: Molar enthalpy of vaporization or sublimation, kJ/mol (Liquid); method: OTHER
Temperature, K	Molar enthalpy of vaporization or sublimation, kJ/mol	uncertainty
298.15	121.9	8.2

System: tetracosane; phases: Liquid, Gas
Property: Vapor or sublimation pressure, kPa (Liquid); method: OTHER
Temperature, K	Vapor or sublimation pressure, kPa	uncertainty
298.15	2.3726e-08	6.3739e-08
328.15	1.9306e-06	1.1197e-06
358.15	6.3082e-05	2.1425e-05
388.15	0.0010409	0.0002683
418.15	0.010217	0.002322
448.15	0.067156	0.014405
478.15	0.32253	0.06725
508.15	1.2078	0.2481
538.15	3.7051	0.7543
568.15	9.6681	1.9587
575.15	11.854	2.391

System: pentacosane; phases: Liquid, Gas
Property: Molar enthalpy of vaporization or sublimation, kJ/mol (Liquid); method: OTHER
Temperature, K	Molar enthalpy of vaporization or sublimation, kJ/mol	uncertainty
298.15	126.8	8.5

System: pentacosane; phases: Liquid, Gas
Property: Vapor or sublimation pressure, kPa (Liquid); method: OTHER
Temperature, K	Vapor or sublimation pressure, kPa	uncertainty
298.15	8.14479e-09	2.60931e-08
328.15	7.89411e-07	5.18272e-07
358.15	2.9626449e-05	1.0850454e-05
388.15	0.00054617065	0.00014623455
418.15	0.0058629564	0.0013564333
448.15	0.041456606	0.0089713818
478.15	0.21142724	0.044292208
508.15	0.8322191	0.17138107
538.15	2.6613322	0.54272358
568.15	7.1917224	1.4585014
575.15	8.8824786	1.7928625

System: hexacosane; phases: Liquid, Gas
Property: Molar enthalpy of vaporization or sublimation, kJ/mol (Liquid); method: OTHER
Temperature, K	Molar enthalpy of vaporization or sublimation, kJ/mol	uncertainty
298.15	131.7	9.3

System: hexacosane; phases: Liquid, Gas
Property: Vapor or sublimation pressure, kPa (Liquid); method: OTHER
Temperature, K	Vapor or sublimation pressure, kPa	uncertainty
298.15	2.80873e-09	1.074417e-08
328.15	3.24693e-07	2.42319e-07
358.15	1.4010155e-05	5.564774e-06
388.15	0.00028879392	8.0672465e-05
418.15	0.0033931802	0.00080111189
448.15	0.025830891	0.0056457212
478.15	0.14000493	0.029483747
508.15	0.57970783	0.11973719
538.15	1.9342066	0.39515954
568.15	5.4174787	1.0999021
575.15	6.7417969	1.3615839

System: heptacosane; phases: Liquid, Gas
Property: Molar enthalpy of vaporization or sublimation, kJ/mol (Liquid); method: OTHER
Temperature, K	Molar enthalpy of vaporization or sublimation, kJ/mol	uncertainty
298.15	135.6	9.6

System: heptacosane; phases: Liquid, Gas
Property: Vapor or sublimation pressure, kPa (Liquid); method: OTHER
Temperature, K	Vapor or sublimation pressure, kPa	uncertainty
298.15	1.12747e-09	4.9695e-09
328.15	1.50174e-07	1.21799e-07
358.15	7.25332e-06	2.81952e-06
388.15	0.00016362686	3.8034751e-05
418.15	0.0020673409	0.00034442634
448.15	0.016692102	0.0022763279
478.15	0.094924539	0.011525497
508.15	0.40886173	0.046387132
538.15	1.4093488	0.15348858
568.15	4.0556169	0.43095855
575.15	5.0755181	0.52807493

System: octacosane; phases: Liquid, Gas
Property: Molar enthalpy of vaporization or sublimation, kJ/mol (Liquid); method: OTHER
Temperature, K	Molar enthalpy of vaporization or sublimation, kJ/mol	uncertainty
298.15	141.9	14.3

System: octacosane; phases: Liquid, Gas
Property: Vapor or sublimation pressure, kPa (Liquid); method: OTHER
Temperature, K	Vapor or sublimation pressure, kPa	uncertainty
298.15	3.17274e-10	1.744868e-09
328.15	5.26287e-08	5.14496e-08
358.15	3.022002e-06	1.437222e-06
388.15	7.8289948e-05	2.4154555e-05
418.15	0.0011065389	0.00027423581
448.15	0.0097951276	0.0021920631
478.15	0.060116276	0.012815891
508.15	0.27600028	0.057398865
538.15	1.0040585	0.20597444
568.15	3.0249709	0.61563994
575.15	3.8226461	0.77298446

System: nonacosane; phases: Liquid, Gas
Property: Molar enthalpy of vaporization or sublimation, kJ/mol (Liquid); method: OTHER
Temperature, K	Molar enthalpy of vaporization or sublimation, kJ/mol	uncertainty
298.15	147.1	14.9

System: nonacosane; phases: Liquid, Gas
Property: Vapor or sublimation pressure, kPa (Liquid); method: OTHER
Temperature, K	Vapor or sublimation pressure, kPa	uncertainty
298.15	1.0176e-10	6.7785e-10
328.15	2.0435e-08	2.2837e-08
358.15	1.3648e-06	6.785e-07
388.15	3.9899e-05	1.1085e-05
418.15	0.00062186	0.00011667
448.15	0.005963	0.000876
478.15	0.039096	0.004966
508.15	0.18965	0.02212
538.15	0.72254	0.0801
568.15	2.2636	0.2431
575.15	2.8842	0.3018

System: triacontane; phases: Liquid, Gas
Property: Molar enthalpy of vaporization or sublimation, kJ/mol (Liquid); method: OTHER
Temperature, K	Molar enthalpy of vaporization or sublimation, kJ/mol	uncertainty
298.15	152.3	15.5

System: triacontane; phases: Liquid, Gas
Property: Vapor or sublimation pressure, kPa (Liquid); method: OTHER
Temperature, K	Vapor or sublimation pressure, kPa	uncertainty
298.15	3.3168e-11	2.66631e-10
328.15	8.02962e-09	1.048431e-08
358.15	6.21668e-07	3.62742e-07
388.15	2.0454057e-05	7.126662e-06
418.15	0.00035075731	9.2484906e-05
448.15	0.0036364721	0.00083883522
478.15	0.025427179	0.0055051481
508.15	0.13012627	0.027292395
538.15	0.51853829	0.1069069
568.15	1.6872839	0.34435241
575.15	2.1671114	0.43881457

System: heneicosane; phases: Liquid, Gas
Property: Molar enthalpy of vaporization or sublimation, kJ/mol (Liquid); method: OTHER
Temperature, K	Molar enthalpy of vaporization or sublimation, kJ/mol	uncertainty
298.15	106.8	7.3

System: heneicosane; phases: Liquid, Gas
Property: Vapor or sublimation pressure, kPa (Liquid); method: OTHER
Temperature, K	Vapor or sublimation pressure, kPa	uncertainty
298.15	6.69042e-07	2.059848e-06
328.15	3.1501496e-05	2.3096754e-05
358.15	0.00066729393	0.00029086434
388.15	0.0077846516	0.0024582135
418.15	0.057736104	0.01514889
448.15	0.30194873	0.071416981
478.15	1.2014298	0.26780093
508.15	3.8488763	0.82813315
538.15	10.361788	2.1808412
568.15	24.224481	5.0351569
575.15	29.022417	5.9642325
