Measured thermophysical data. Temperature Dependence of the Thermophysical Properties of 1-Chlorohexane, 1-Iodohexane, 1-Iodoheptane, and 1-Chlorononane at Saturation Condition
Source: J. Chem. Eng. Data, 2004, 10.1021/je034013e
Compound 1: 1-chlorohexane, C6H13Cl, InChI=1S/C6H13Cl/c1-2-3-4-5-6-7/h2-6H2,1H3, purity 99%
Compound 2: 1-iodohexane, C6H13I, InChI=1S/C6H13I/c1-2-3-4-5-6-7/h2-6H2,1H3, purity 99%
Compound 3: 1-iodoheptane, C7H15I, InChI=1S/C7H15I/c1-2-3-4-5-6-7-8/h2-7H2,1H3, purity 98%
Compound 4: 1-chlorononane, C9H19Cl, InChI=1S/C9H19Cl/c1-2-3-4-5-6-7-8-9-10/h2-9H2,1H3, purity 98%

System: 1-chlorohexane; phases: Liquid
Fixed: Pressure, kPa = 101.325
Property: Molar heat capacity at constant pressure, J/K/mol (Liquid); method: Flow calorimetry
Temperature, K	Molar heat capacity at constant pressure, J/K/mol	uncertainty
293.15	202.6418016	6.031006
298.15	204.33048328	6.15162612
303.15	205.89854484	6.15162612
308.15	207.4666064	6.27224624
313.15	208.91404784	6.27224624
318.15	210.4821094	6.27224624
323.15	212.05017096	6.39286636
328.15	213.61823252	6.39286636
333.15	215.06567396	6.51348648
338.15	216.63373552	6.51348648
343.15	217.96055684	6.51348648
348.15	219.04613792	6.6341066
353.15	220.97605984	6.6341066
358.15	222.42350128	6.6341066
363.15	223.87094272	6.75472672
368.15	225.31838416	6.75472672
373.15	226.64520548	6.75472672

System: 1-chlorohexane; phases: Liquid, Gas
Property: Speed of sound, m/s (Liquid); method: PULSEH:UFactor:8
Temperature, K	Speed of sound, m/s	uncertainty
293.15	1219.1	5.1
298.15	1200.1	5
303.15	1181.9	5
308.15	1166.2	4.9
313.15	1140.7	4.8
318.15	1128.1	4.8
323.15	1106	4.7
328.15	1087	4.7
333.15	1068.8	4.6
338.15	1050.2	4.6
343.15	1031.7	4.5
348.15	1013.3	4.4
353.15	995	4.4
358.15	976.9	4.3
363.15	958.9	4.3
368.15	940.6	4.2
373.15	922.9	4.2

System: 1-chlorohexane; phases: Liquid, Gas
Property: Mass density, kg/m3 (Liquid); method: PYCNOM:UFactor:2
Temperature, K	Mass density, kg/m3	uncertainty
293.15	878.52	0.54
298.15	873.75	0.56
303.15	868.98	0.57
308.15	864.21	0.58
313.15	859.44	0.59
318.15	854.67	0.6
323.15	849.9	0.61
328.15	845.12	0.63
333.15	840.35	0.64
338.15	835.58	0.65
343.15	830.81	0.67
348.15	826.04	0.68
353.15	821.27	0.7
358.15	816.5	0.72
363.15	811.73	0.74
368.15	806.96	0.75
373.15	802.19	0.77

System: 1-iodohexane; phases: Liquid
Fixed: Pressure, kPa = 101.325
Property: Molar heat capacity at constant pressure, J/K/mol (Liquid); method: Flow calorimetry
Temperature, K	Molar heat capacity at constant pressure, J/K/mol	uncertainty
293.15	216.52539969	6.57422859
298.15	217.79783103	6.57422859
303.15	219.28233426	6.57422859
308.15	220.76683749	6.57422859
313.15	222.46341261	6.78630048
318.15	224.15998773	6.78630048
323.15	225.85656285	6.78630048
328.15	227.12899419	6.78630048
333.15	227.97728175	6.78630048
338.15	229.0376412	6.78630048
343.15	229.88592876	6.99837237
348.15	231.1583601	6.99837237
353.15	232.64286333	6.99837237
358.15	234.33943845	6.99837237
363.15	236.03601357	6.99837237
368.15	237.5205168	7.21044426
373.15	238.79294814	7.21044426

System: 1-iodohexane; phases: Liquid, Gas
Property: Speed of sound, m/s (Liquid); method: PULSEH:UFactor:4
Temperature, K	Speed of sound, m/s	uncertainty
293.15	1045.5	2.4
298.15	1031.3	2.4
303.15	1017.2	2.3
308.15	1003.2	2.3
313.15	989.2	2.3
318.15	975.4	2.3
323.15	961.6	2.2
328.15	947.9	2.2
333.15	934.2	2.2
338.15	920.7	2.2
343.15	907.2	2.1
348.15	893.8	2.1
353.15	880.5	2.1
358.15	867.3	2.1
363.15	854.1	2.1
368.15	841	2
373.15	828	2

System: 1-iodohexane; phases: Liquid, Gas
Property: Mass density, kg/m3 (Liquid); method: PYCNOM:UFactor:4
Temperature, K	Mass density, kg/m3	uncertainty
293.15	1437.18	1.54
298.15	1430.5	1.57
303.15	1423.82	1.61
308.15	1417.13	1.65
313.15	1410.44	1.68
318.15	1403.74	1.72
323.15	1397.04	1.76
328.15	1390.33	1.79
333.15	1383.61	1.83
338.15	1376.89	1.87
343.15	1370.17	1.9
348.15	1364.44	1.94
353.15	1356.7	1.98
358.15	1349.96	2.01
363.15	1343.21	2.05
368.15	1336.46	2.09
373.15	1329.7	2.12

System: 1-iodoheptane; phases: Liquid
Fixed: Pressure, kPa = 101.325
Property: Molar heat capacity at constant pressure, J/K/mol (Liquid); method: Flow calorimetry
Temperature, K	Molar heat capacity at constant pressure, J/K/mol	uncertainty
293.15	246.89952924	7.46124951
298.15	249.83880935	7.46124951
303.15	252.32589252	7.68734798
308.15	254.13468028	7.68734798
313.15	256.16956651	7.68734798
318.15	257.97835427	7.68734798
323.15	260.0132405	7.91344645
328.15	261.82202826	7.91344645
333.15	263.40471755	7.91344645
338.15	264.98740684	7.91344645
343.15	266.7961946	7.91344645
348.15	267.92668695	8.13954492
353.15	269.96157318	8.13954492
358.15	271.318164	8.13954492
363.15	273.12695176	8.13954492
368.15	274.70964105	8.13954492
373.15	276.51842881	8.36564339

System: 1-iodoheptane; phases: Liquid, Gas
Property: Speed of sound, m/s (Liquid); method: PULSEH:UFactor:4
Temperature, K	Speed of sound, m/s	uncertainty
293.15	1079	2.6
298.15	1064.5	2.6
303.15	1050.2	2.6
308.15	1035.9	2.6
313.15	1021.6	2.6
318.15	1007.4	2.5
323.15	993.3	2.5
328.15	979.2	2.5
333.15	965.2	2.5
338.15	951.3	2.5
343.15	937.4	2.4
348.15	923.6	2.4
353.15	909.8	2.4
358.15	896.1	2.4
363.15	882.5	2.4
368.15	869	2.3
373.15	855.4	2.3

System: 1-iodoheptane; phases: Liquid, Gas
Property: Mass density, kg/m3 (Liquid); method: PYCNOM:UFactor:2
Temperature, K	Mass density, kg/m3	uncertainty
293.15	1377.9	1.13
298.15	1371.93	1.14
303.15	1365.93	1.15
308.15	1359.91	1.16
313.15	1353.87	1.16
318.15	1347.8	1.17
323.15	1341.71	1.18
328.15	1335.59	1.19
333.15	1329.45	1.2
338.15	1323.29	1.2
343.15	1317.1	1.21
348.15	1310.89	1.22
353.15	1304.65	1.23
358.15	1298.39	1.24
363.15	1292.11	1.25
368.15	1285.8	1.26
373.15	1279.47	1.28

System: 1-chlorononane; phases: Liquid
Fixed: Pressure, kPa = 101.325
Property: Molar heat capacity at constant pressure, J/K/mol (Liquid); method: Flow calorimetry
Temperature, K	Molar heat capacity at constant pressure, J/K/mol	uncertainty
293.15	294.32404674	8.78579244
298.15	296.43914492	8.9484923
303.15	298.5542431	8.9484923
308.15	300.66934128	9.11119216
313.15	302.78443946	9.11119216
318.15	304.89953764	9.11119216
323.15	307.17733568	9.27389202
328.15	309.45513372	9.27389202
333.15	311.5702319	9.43659188
338.15	313.84802994	9.43659188
343.15	315.96312812	9.43659188
348.15	318.24092616	9.59929174
353.15	320.5187242	9.59929174
358.15	322.79652224	9.7619916
363.15	325.07432028	9.7619916
368.15	327.35211832	9.7619916
373.15	329.62991636	9.92469146

System: 1-chlorononane; phases: Liquid, Gas
Property: Speed of sound, m/s (Liquid); method: PULSEH:UFactor:4
Temperature, K	Speed of sound, m/s	uncertainty
293.15	1297.2	3.2
298.15	1278.2	3.1
303.15	1259.5	3.1
308.15	1240.9	3.1
313.15	1222.5	3.1
318.15	1204.3	3
323.15	1186.3	3
328.15	1168.4	3
333.15	1150.7	3
338.15	1133.2	2.9
343.15	1115.9	2.9
348.15	1098.8	2.9
353.15	1081.9	2.9
358.15	1065.1	2.8
363.15	1048.5	2.8
368.15	1032.2	2.8
373.15	1015.9	2.8

System: 1-chlorononane; phases: Liquid, Gas
Property: Mass density, kg/m3 (Liquid); method: PYCNOM:UFactor:2
Temperature, K	Mass density, kg/m3	uncertainty
293.15	871.36	0.84
298.15	867.35	0.84
303.15	863.32	0.85
308.15	859.28	0.85
313.15	855.23	0.86
318.15	851.15	0.86
323.15	847.07	0.87
328.15	842.96	0.88
333.15	838.85	0.89
338.15	834.71	0.89
343.15	830.57	0.9
348.15	826.4	0.91
353.15	822.22	0.92
358.15	818.03	0.94
363.15	813.82	0.95
368.15	809.6	0.96
373.15	805.36	0.97
