Measured thermophysical data. Measurement of Vapor-Liquid Equilibria for the Binary Mixture of Propane (R-290) + Isobutane (R-600a)
Source: J. Chem. Eng. Data, 2004, 10.1021/je030106k
Compound 1: propane, C3H8, InChI=1S/C3H8/c1-3-2/h3H2,1-2H3
Compound 2: 2-methylpropane, C4H10, InChI=1S/C4H10/c1-4(2)3/h4H,1-3H3

System: propane; phases: Liquid, Gas
Property: Vapor or sublimation pressure, kPa (Liquid); method: EBULLIO:UFactor:32
Temperature, K	Vapor or sublimation pressure, kPa	uncertainty
273.15	475	1.8
283.15	637.8	2.2
293.15	836	2.6
303.15	1078.4	3.2

System: 2-methylpropane; phases: Liquid, Gas
Property: Vapor or sublimation pressure, kPa (Liquid); method: EBULLIO:UFactor:64
Temperature, K	Vapor or sublimation pressure, kPa	uncertainty
273.15	157.2	1.6
283.15	221.8	1.8
293.15	303.4	2.1
303.15	405.2	2.6

System: propane + 2-methylpropane; phases: Liquid, Gas
Property: Vapor or sublimation pressure, kPa (Liquid); method: EBULLIO:UFactor:32
Mole fraction of propane	Temperature, K	Vapor or sublimation pressure, kPa	uncertainty
0	273.15	157.2	6.4
0	283.15	221.8	8
0	293.15	303.4	10
0	303.15	405.2	12.5
0.085	283.15	254.7	8.9
0.092	273.15	184.9	7.2
0.115	293.15	361	11.6
0.119	303.15	477	14.5
0.198	273.15	215.6	7.9
0.22	303.15	540.7	16.1
0.239	283.15	311	10.3
0.284	273.15	241.6	8.6
0.286	293.15	440.5	13.6
0.321	283.15	346.5	11.2
0.332	303.15	608.6	17.8
0.385	273.15	272	9.3
0.39	293.15	495	14.9
0.405	283.15	381.1	12
0.441	303.15	680.2	19.5
0.488	273.15	304.6	10.1
0.514	293.15	562.7	16.6
0.517	283.15	423.4	13.1
0.535	303.15	744.9	21.2
0.586	273.15	338.6	11
0.596	293.15	608.5	17.7
0.606	283.15	462.4	14.1
0.621	303.15	809.8	22.8
0.697	273.15	372.9	11.8
0.697	283.15	505.8	15.1
0.701	293.15	666	19.2
0.706	303.15	868.2	24.2
0.78	293.15	710.9	20.3
0.792	283.15	546.8	16.1
0.799	273.15	407	12.7
0.802	303.15	937.2	25.9
0.859	293.15	754.8	21.4
0.898	273.15	440.3	13.5
0.9	303.15	1006.3	27.6
0.908	283.15	596.4	17.4
0.935	293.15	800.9	22.5
1	273.15	475	14.3
1	283.15	637.8	18.3
1	293.15	836	23.2
1	303.15	1078.4	29.3

System: propane + 2-methylpropane; phases: Gas, Liquid
Property: Mole fraction of propane (Gas); method: CHROM:UFactor:2
Mole fraction of propane	Temperature, K	Mole fraction of propane	uncertainty
0	273.15	0	0.001
0	283.15	0	0.001
0	293.15	0	0.001
0	303.15	0	0.001
0.085	283.15	0.182	0.009
0.092	273.15	0.205	0.009
0.115	293.15	0.233	0.009
0.119	303.15	0.226	0.009
0.198	273.15	0.39	0.01
0.22	303.15	0.385	0.009
0.239	283.15	0.429	0.01
0.284	273.15	0.506	0.011
0.286	293.15	0.469	0.01
0.321	283.15	0.531	0.01
0.332	303.15	0.517	0.01
0.385	273.15	0.617	0.009
0.39	293.15	0.586	0.009
0.405	283.15	0.617	0.009
0.441	303.15	0.625	0.009
0.488	273.15	0.708	0.007
0.514	293.15	0.706	0.007
0.517	283.15	0.708	0.007
0.535	303.15	0.716	0.007
0.586	273.15	0.781	0.006
0.596	293.15	0.768	0.006
0.606	283.15	0.782	0.006
0.621	303.15	0.78	0.006
0.697	273.15	0.85	0.005
0.697	283.15	0.843	0.005
0.701	293.15	0.845	0.006
0.706	303.15	0.84	0.006
0.78	293.15	0.886	0.005
0.792	283.15	0.894	0.005
0.799	273.15	0.906	0.005
0.802	303.15	0.895	0.005
0.859	293.15	0.929	0.005
0.898	273.15	0.955	0.005
0.9	303.15	0.949	0.005
0.908	283.15	0.955	0.005
0.935	293.15	0.97	0.005
1	273.15	1	0.001
1	283.15	1	0.001
1	293.15	1	0.001
1	303.15	1	0.001
