Measured thermophysical data. Excess Molar Volumes and Surface Tensions of Xylene with Isopropyl Ether or Methyl tert-Butyl Ether at 298.15 K
Source: J. Chem. Eng. Data, 2004, 10.1021/je034279l
Compound 1: 1,2-dimethylbenzene, C8H10, InChI=1S/C8H10/c1-7-5-3-4-6-8(7)2/h3-6H,1-2H3
Compound 2: 1,3-dimethylbenzene, C8H10, InChI=1S/C8H10/c1-7-4-3-5-8(2)6-7/h3-6H,1-2H3
Compound 3: 1,4-dimethylbenzene, C8H10, InChI=1S/C8H10/c1-7-3-5-8(2)6-4-7/h3-6H,1-2H3
Compound 4: diisopropyl ether, C6H14O, InChI=1S/C6H14O/c1-5(2)7-6(3)4/h5-6H,1-4H3
Compound 5: 2-methoxy-2-methylpropane, C5H12O, InChI=1S/C5H12O/c1-5(2,3)6-4/h1-4H3

System: 1,2-dimethylbenzene; phases: Liquid
Property: Mass density, kg/m3 (Liquid); method: VIBTUB:UFactor:4
Temperature, K	Pressure, kPa	Mass density, kg/m3	uncertainty
298.15	101.325	875.92	0.42

System: 1,2-dimethylbenzene; phases: Liquid, Air at 1 atmosphere
Property: Surface tension liquid-gas, N/m (Liquid); method: Pendant drop shape
Temperature, K	Surface tension liquid-gas, N/m	uncertainty
298.15	0.02935	0.00039

System: 1,3-dimethylbenzene; phases: Liquid
Property: Mass density, kg/m3 (Liquid); method: VIBTUB:UFactor:4
Temperature, K	Pressure, kPa	Mass density, kg/m3	uncertainty
298.15	101.325	859.78	0.49

System: 1,3-dimethylbenzene; phases: Liquid, Air at 1 atmosphere
Property: Surface tension liquid-gas, N/m (Liquid); method: Pendant drop shape
Temperature, K	Surface tension liquid-gas, N/m	uncertainty
298.15	0.02836	0.00039

System: 1,4-dimethylbenzene; phases: Liquid
Property: Mass density, kg/m3 (Liquid); method: VIBTUB:UFactor:4
Temperature, K	Pressure, kPa	Mass density, kg/m3	uncertainty
298.15	101.325	856.85	0.46

System: 1,4-dimethylbenzene; phases: Liquid, Air at 1 atmosphere
Property: Surface tension liquid-gas, N/m (Liquid); method: Pendant drop shape
Temperature, K	Surface tension liquid-gas, N/m	uncertainty
298.15	0.02789	0.00038

System: diisopropyl ether; phases: Liquid
Property: Mass density, kg/m3 (Liquid); method: VIBTUB:UFactor:4
Temperature, K	Pressure, kPa	Mass density, kg/m3	uncertainty
298.15	101.325	718.38	0.76

System: diisopropyl ether; phases: Liquid, Air at 1 atmosphere
Property: Surface tension liquid-gas, N/m (Liquid); method: Pendant drop shape
Temperature, K	Surface tension liquid-gas, N/m	uncertainty
298.15	0.01731	0.00028

System: 2-methoxy-2-methylpropane; phases: Liquid
Property: Mass density, kg/m3 (Liquid); method: VIBTUB:mpoint:UFactor:4
Temperature, K	Pressure, kPa	Mass density, kg/m3	uncertainty
298.15	101.325	735.48	0.27

System: 2-methoxy-2-methylpropane; phases: Liquid, Air at 1 atmosphere
Property: Surface tension liquid-gas, N/m (Liquid); method: Pendant drop shape
Temperature, K	Surface tension liquid-gas, N/m	uncertainty
298.15	0.01925	0.00029

System: 1,2-dimethylbenzene + diisopropyl ether; phases: Liquid
Fixed: Temperature, K = 298.15
Fixed: Pressure, kPa = 101
Property: Excess molar volume, m3/mol (Liquid); method: SAME:UFactor:2
Mole fraction of diisopropyl ether	Excess molar volume, m3/mol	uncertainty
0.0506	-1.77e-07	2.1e-08
0.0997	-3.15e-07	2.2e-08
0.1501	-4.49e-07	2.3e-08
0.2003	-5.74e-07	2.3e-08
0.2503	-6.91e-07	2.4e-08
0.3003	-7.82e-07	2.5e-08
0.35	-8.39e-07	2.5e-08
0.4004	-8.83e-07	2.5e-08
0.4497	-9.22e-07	2.6e-08
0.505	-9.36e-07	2.6e-08
0.5505	-9.48e-07	2.6e-08
0.6001	-9.1e-07	2.5e-08
0.6509	-8.82e-07	2.5e-08
0.7	-8.11e-07	2.5e-08
0.7502	-7.47e-07	2.4e-08
0.7999	-6.31e-07	2.4e-08
0.8502	-5.11e-07	2.3e-08
0.8997	-3.69e-07	2.2e-08
0.9493	-2.1e-07	2.1e-08

System: 1,2-dimethylbenzene + diisopropyl ether; phases: Liquid, Air at 1 atmosphere
Fixed: Temperature, K = 298.15
Property: Surface tension liquid-gas, N/m (Liquid); method: Pendant drop shape
Mole fraction of diisopropyl ether	Surface tension liquid-gas, N/m	uncertainty
0.1022	0.02721	0.00037
0.201	0.02555	0.00036
0.3018	0.02417	0.00034
0.4037	0.02301	0.00033
0.4997	0.022	0.00032
0.5998	0.02103	0.00031
0.7013	0.02	0.0003
0.7987	0.01915	0.00029
0.8987	0.01808	0.00028

System: diisopropyl ether + 1,3-dimethylbenzene; phases: Liquid
Fixed: Temperature, K = 298.15
Fixed: Pressure, kPa = 101
Property: Excess molar volume, m3/mol (Liquid); method: SAME:UFactor:2
Mole fraction of diisopropyl ether	Excess molar volume, m3/mol	uncertainty
0.0514	-1.35e-07	2.1e-08
0.1002	-2.42e-07	2.1e-08
0.1526	-3.55e-07	2.2e-08
0.1997	-4.41e-07	2.3e-08
0.2501	-5.2e-07	2.3e-08
0.3002	-5.79e-07	2.3e-08
0.3498	-6.37e-07	2.4e-08
0.4001	-6.7e-07	2.4e-08
0.4516	-7.11e-07	2.4e-08
0.5012	-7.15e-07	2.4e-08
0.5509	-7.18e-07	2.4e-08
0.6001	-6.92e-07	2.4e-08
0.65	-6.71e-07	2.4e-08
0.6944	-6.17e-07	2.4e-08
0.7498	-5.58e-07	2.3e-08
0.8005	-4.77e-07	2.3e-08
0.8506	-3.93e-07	2.2e-08
0.8998	-2.83e-07	2.2e-08
0.95	-1.64e-07	2.1e-08

System: diisopropyl ether + 1,3-dimethylbenzene; phases: Liquid, Air at 1 atmosphere
Fixed: Temperature, K = 298.15
Property: Surface tension liquid-gas, N/m (Liquid); method: Pendant drop shape
Mole fraction of diisopropyl ether	Surface tension liquid-gas, N/m	uncertainty
0.1019	0.02638	0.00037
0.2111	0.02488	0.00035
0.3002	0.02372	0.00034
0.3999	0.02267	0.00033
0.4991	0.02173	0.00032
0.6006	0.02086	0.00031
0.6994	0.01991	0.0003
0.7998	0.01902	0.00029
0.8981	0.01812	0.00028

System: 1,4-dimethylbenzene + diisopropyl ether; phases: Liquid
Fixed: Temperature, K = 298.15
Fixed: Pressure, kPa = 101
Property: Excess molar volume, m3/mol (Liquid); method: SAME:UFactor:2
Mole fraction of diisopropyl ether	Excess molar volume, m3/mol	uncertainty
0.0527	-1.36e-07	2.1e-08
0.1016	-2.79e-07	2.2e-08
0.15	-3.98e-07	2.2e-08
0.2011	-5.1e-07	2.3e-08
0.2527	-5.88e-07	2.4e-08
0.3004	-6.58e-07	2.4e-08
0.3509	-7.3e-07	2.4e-08
0.4007	-7.61e-07	2.5e-08
0.4506	-7.85e-07	2.5e-08
0.5044	-8.02e-07	2.5e-08
0.5507	-7.95e-07	2.5e-08
0.6002	-7.87e-07	2.5e-08
0.6498	-7.56e-07	2.5e-08
0.7007	-7.02e-07	2.4e-08
0.7497	-6.25e-07	2.4e-08
0.7999	-5.37e-07	2.3e-08
0.8512	-4.32e-07	2.3e-08
0.9	-3.18e-07	2.2e-08
0.9507	-1.78e-07	2.1e-08

System: 1,4-dimethylbenzene + diisopropyl ether; phases: Liquid, Air at 1 atmosphere
Fixed: Temperature, K = 298.15
Property: Surface tension liquid-gas, N/m (Liquid); method: Pendant drop shape
Mole fraction of diisopropyl ether	Surface tension liquid-gas, N/m	uncertainty
0.0988	0.0263	0.00036
0.2012	0.02484	0.00035
0.2991	0.02373	0.00034
0.4045	0.02268	0.00033
0.5096	0.02166	0.00032
0.603	0.02076	0.00031
0.7	0.01991	0.0003
0.7987	0.01902	0.00029
0.898	0.01818	0.00028

System: 1,2-dimethylbenzene + 2-methoxy-2-methylpropane; phases: Liquid, Air at 1 atmosphere
Fixed: Temperature, K = 298.15
Property: Surface tension liquid-gas, N/m (Liquid); method: Pendant drop shape
Mole fraction of 2-methoxy-2-methylpropane	Surface tension liquid-gas, N/m	uncertainty
0.0997	0.0279	0.00038
0.1996	0.02662	0.00037
0.3012	0.02528	0.00035
0.4008	0.02414	0.00034
0.4997	0.02312	0.00033
0.6012	0.02217	0.00032
0.7002	0.0213	0.00031
0.8	0.02057	0.00031
0.8999	0.01978	0.0003

System: 1,3-dimethylbenzene + 2-methoxy-2-methylpropane; phases: Liquid, Air at 1 atmosphere
Fixed: Temperature, K = 298.15
Property: Surface tension liquid-gas, N/m (Liquid); method: Pendant drop shape
Mole fraction of 2-methoxy-2-methylpropane	Surface tension liquid-gas, N/m	uncertainty
0.1019	0.02713	0.00038
0.2019	0.02605	0.00036
0.3028	0.02498	0.00035
0.4014	0.02399	0.00034
0.4996	0.02301	0.00033
0.6006	0.02208	0.00032
0.7009	0.02126	0.00031
0.8001	0.02049	0.00031
0.9004	0.01976	0.0003

System: 1,4-dimethylbenzene + 2-methoxy-2-methylpropane; phases: Liquid, Air at 1 atmosphere
Fixed: Temperature, K = 298.15
Property: Surface tension liquid-gas, N/m (Liquid); method: Pendant drop shape
Mole fraction of 2-methoxy-2-methylpropane	Surface tension liquid-gas, N/m	uncertainty
0.1008	0.02685	0.00037
0.1998	0.02581	0.00036
0.3012	0.02478	0.00035
0.4026	0.02384	0.00034
0.4997	0.02296	0.00033
0.6004	0.02208	0.00032
0.6993	0.02124	0.00031
0.8	0.02048	0.0003
0.9002	0.01978	0.0003
