Measured thermophysical data. Solubility in Binary Solvent Mixtures: Anthracene Dissolved in Alcohol + 2-Methyl-1-butanol Mixtures at 298.2 K
Source: J. Chem. Eng. Data, 2003, 10.1021/je030175z
Compound 1: anthracene, C14H10, InChI=1S/C14H10/c1-2-6-12-10-14-8-4-3-7-13(14)9-11(12)5-1/h1-10H, purity 99%
Compound 2: 2-methyl-1-butanol, C5H12O, InChI=1S/C5H12O/c1-3-5(2)4-6/h5-6H,3-4H2,1-2H3, purity 99%
Compound 3: propan-1-ol, C3H8O, InChI=1S/C3H8O/c1-2-3-4/h4H,2-3H2,1H3, purity 99.7%
Compound 4: propan-2-ol, C3H8O, InChI=1S/C3H8O/c1-3(2)4/h3-4H,1-2H3, purity 99%
Compound 5: butan-1-ol, C4H10O, InChI=1S/C4H10O/c1-2-3-4-5/h5H,2-4H2,1H3, purity 99.8%
Compound 6: butan-2-ol, C4H10O, InChI=1S/C4H10O/c1-3-4(2)5/h4-5H,3H2,1-2H3, purity 99%
Compound 7: 2-methyl-1-propanol, C4H10O, InChI=1S/C4H10O/c1-4(2)3-5/h4-5H,3H2,1-2H3, purity 99.5%
Compound 8: 3-methylbutan-1-ol, C5H12O, InChI=1S/C5H12O/c1-5(2)3-4-6/h5-6H,3-4H2,1-2H3, purity 99%
Compound 9: pentan-2-ol, C5H12O, InChI=1S/C5H12O/c1-3-4-5(2)6/h5-6H,3-4H2,1-2H3, purity 99%

System: propan-1-ol + anthracene; phases: Liquid, Crystal
Property: Mole fraction of anthracene (Liquid); method: OTHER
Temperature, K	Pressure, kPa	Mole fraction of anthracene	uncertainty
298	101	0.000591	1.8e-05

System: anthracene + 2-methyl-1-butanol; phases: Liquid, Crystal
Property: Mole fraction of anthracene (Liquid); method: OTHER
Temperature, K	Pressure, kPa	Mole fraction of anthracene	uncertainty
298	101	0.000786	2.4e-05

System: propan-2-ol + anthracene; phases: Liquid, Crystal
Property: Mole fraction of anthracene (Liquid); method: OTHER
Temperature, K	Pressure, kPa	Mole fraction of anthracene	uncertainty
298	101	0.000411	1.2e-05

System: butan-1-ol + anthracene; phases: Liquid, Crystal
Property: Mole fraction of anthracene (Liquid); method: OTHER
Temperature, K	Pressure, kPa	Mole fraction of anthracene	uncertainty
298	101	0.000801	2.4e-05

System: butan-2-ol + anthracene; phases: Liquid, Crystal
Property: Mole fraction of anthracene (Liquid); method: OTHER
Temperature, K	Pressure, kPa	Mole fraction of anthracene	uncertainty
298	101	0.000585	1.8e-05

System: 2-methyl-1-propanol + anthracene; phases: Liquid, Crystal
Property: Mole fraction of anthracene (Liquid); method: OTHER
Temperature, K	Pressure, kPa	Mole fraction of anthracene	uncertainty
298	101	0.00047	1.4e-05

System: anthracene + 3-methylbutan-1-ol; phases: Liquid, Crystal
Property: Mole fraction of anthracene (Liquid); method: OTHER
Temperature, K	Pressure, kPa	Mole fraction of anthracene	uncertainty
298	101	0.000727	2.2e-05

System: anthracene + pentan-2-ol; phases: Liquid, Crystal
Property: Mole fraction of anthracene (Liquid); method: OTHER
Pressure, kPa	Temperature, K	Mole fraction of anthracene	uncertainty
101	298	0.0008	2.4e-05

System: propan-1-ol + anthracene + 2-methyl-1-butanol; phases: Liquid, Crystal
Fixed: Temperature, K = 298
Fixed: Pressure, kPa = 101
Property: Mole fraction of anthracene (Liquid); method: OTHER
Solvent: Mole fraction of 2-methyl-1-butanol	Mole fraction of anthracene	uncertainty
0	0.000591	1.8e-05
0.0901	0.000623	1.9e-05
0.1537	0.000646	2e-05
0.309	0.000666	2e-05
0.403	0.000679	2.1e-05
0.5214	0.000689	2.1e-05
0.7294	0.000715	2.2e-05
0.8209	0.000742	2.2e-05
1	0.000786	2.4e-05

System: propan-2-ol + anthracene + 2-methyl-1-butanol; phases: Liquid, Crystal
Fixed: Temperature, K = 298
Fixed: Pressure, kPa = 101
Property: Mole fraction of anthracene (Liquid); method: OTHER
Solvent: Mole fraction of 2-methyl-1-butanol	Mole fraction of anthracene	uncertainty
0	0.000411	1.2e-05
0.0931	0.000467	1.4e-05
0.1659	0.000491	1.5e-05
0.3264	0.000545	1.6e-05
0.4298	0.000576	1.7e-05
0.5216	0.000601	1.8e-05
0.7443	0.000662	2e-05
0.8572	0.000701	2.1e-05
1	0.000786	2.4e-05

System: butan-1-ol + anthracene + 2-methyl-1-butanol; phases: Liquid, Crystal
Fixed: Temperature, K = 298
Fixed: Pressure, kPa = 101
Property: Mole fraction of anthracene (Liquid); method: OTHER
Solvent: Mole fraction of 2-methyl-1-butanol	Mole fraction of anthracene	uncertainty
0	0.000801	2.4e-05
0.0885	0.000801	2.4e-05
0.1869	0.000803	2.4e-05
0.3816	0.000795	2.4e-05
0.4621	0.000795	2.4e-05
0.5861	0.000793	2.4e-05
0.7789	0.000791	2.4e-05
0.8742	0.000789	2.4e-05
1	0.000786	2.4e-05

System: butan-2-ol + anthracene + 2-methyl-1-butanol; phases: Liquid, Crystal
Fixed: Temperature, K = 298
Fixed: Pressure, kPa = 101
Property: Mole fraction of anthracene (Liquid); method: OTHER
Solvent: Mole fraction of 2-methyl-1-butanol	Mole fraction of anthracene	uncertainty
0	0.000585	1.8e-05
0.0862	0.000618	1.9e-05
0.1784	0.000637	1.9e-05
0.3684	0.000659	2e-05
0.4613	0.000667	2e-05
0.5584	0.000683	2.1e-05
0.7708	0.000709	2.1e-05
0.8895	0.00073	2.2e-05
1	0.000786	2.4e-05

System: 2-methyl-1-propanol + anthracene + 2-methyl-1-butanol; phases: Liquid, Crystal
Fixed: Temperature, K = 298
Fixed: Pressure, kPa = 101
Property: Mole fraction of anthracene (Liquid); method: OTHER
Solvent: Mole fraction of 2-methyl-1-butanol	Mole fraction of anthracene	uncertainty
0	0.00047	1.4e-05
0.1074	0.000512	1.5e-05
0.1916	0.000541	1.6e-05
0.3689	0.000574	1.7e-05
0.4513	0.000593	1.8e-05
0.5616	0.000617	1.9e-05
0.7692	0.000673	2e-05
0.886	0.000714	2.2e-05
1	0.000786	2.4e-05

System: anthracene + 3-methylbutan-1-ol + 2-methyl-1-butanol; phases: Liquid, Crystal
Fixed: Temperature, K = 298
Fixed: Pressure, kPa = 101
Property: Mole fraction of anthracene (Liquid); method: OTHER
Solvent: Mole fraction of 2-methyl-1-butanol	Mole fraction of anthracene	uncertainty
0	0.000727	2.2e-05
0.1215	0.000733	2.2e-05
0.2037	0.000739	2.2e-05
0.3955	0.000743	2.2e-05
0.5057	0.000748	2.3e-05
0.6169	0.000756	2.3e-05
0.7935	0.000766	2.3e-05
0.888	0.000775	2.3e-05
1	0.000786	2.4e-05

System: anthracene + 2-methyl-1-butanol + pentan-2-ol; phases: Liquid, Crystal
Fixed: Pressure, kPa = 101
Fixed: Temperature, K = 298
Property: Mole fraction of anthracene (Liquid); method: OTHER
Solvent: Mole fraction of 2-methyl-1-butanol	Mole fraction of anthracene	uncertainty
0	0.0008	2.4e-05
0.1032	0.000808	2.4e-05
0.2144	0.0008	2.4e-05
0.4011	0.000795	2.4e-05
0.5105	0.000795	2.4e-05
0.6114	0.000792	2.4e-05
0.7899	0.00079	2.4e-05
0.901	0.000789	2.4e-05
1	0.000786	2.4e-05
