Measured thermophysical data. Subatmospheric Vapor Pressure Curves for Propionic Acid, Butyric Acid, Isobutyric Acid, Valeric Acid, Isovaleric Acid, Hexanoic Acid, and Heptanoic Acid
Source: J. Chem. Eng. Data, 2004, 10.1021/je034180e
Compound 1: propanoic acid, C3H6O2, InChI=1S/C3H6O2/c1-2-3(4)5/h2H2,1H3,(H,4,5), purity 99.5%
Compound 2: butanoic acid, C4H8O2, InChI=1S/C4H8O2/c1-2-3-4(5)6/h2-3H2,1H3,(H,5,6), purity 99.5%
Compound 3: 2-methylpropanoic acid, C4H8O2, InChI=1S/C4H8O2/c1-3(2)4(5)6/h3H,1-2H3,(H,5,6), purity 99.5%
Compound 4: pentanoic acid, C5H10O2, InChI=1S/C5H10O2/c1-2-3-4-5(6)7/h2-4H2,1H3,(H,6,7), purity 99%
Compound 5: 3-methylbutanoic acid, C5H10O2, InChI=1S/C5H10O2/c1-4(2)3-5(6)7/h4H,3H2,1-2H3,(H,6,7), purity 98%
Compound 6: hexanoic acid, C6H12O2, InChI=1S/C6H12O2/c1-2-3-4-5-6(7)8/h2-5H2,1H3,(H,7,8), purity 99.5%
Compound 7: heptanoic acid, C7H14O2, InChI=1S/C7H14O2/c1-2-3-4-5-6-7(8)9/h2-6H2,1H3,(H,8,9), purity 99%

System: propanoic acid; phases: Liquid, Gas
Property: Vapor or sublimation pressure, kPa (Liquid); method: EBULLIO:UFactor:64
Temperature, K	Vapor or sublimation pressure, kPa	uncertainty
361.52	14.56	0.57
368.37	19.58	0.59
378.95	29.65	0.64
386.74	39.73	0.7
392.93	49.79	0.75
398.09	59.86	0.8
402.65	69.92	0.85
406.8	79.99	0.9
410.33	90.07	0.95
411.97	95.1	0.98
413.74	101.21	1.01

System: butanoic acid; phases: Liquid, Gas
Property: Vapor or sublimation pressure, kPa (Liquid); method: EBULLIO:UFactor:64
Temperature, K	Vapor or sublimation pressure, kPa	uncertainty
383.55	14.56	0.57
390.87	19.58	0.59
401.32	29.65	0.64
409	39.72	0.7
415	49.79	0.75
420.22	59.86	0.8
424.81	69.92	0.85
428.96	79.99	0.9
432.61	90.07	0.95
434.51	95.1	0.97
436.05	100.04	1

System: 2-methylpropanoic acid; phases: Liquid, Gas
Property: Vapor or sublimation pressure, kPa (Liquid); method: EBULLIO:UFactor:64
Temperature, K	Vapor or sublimation pressure, kPa	uncertainty
375.21	14.55	0.57
382.14	19.58	0.59
391.77	29.65	0.64
399.43	39.72	0.7
405.44	49.79	0.75
410.75	59.85	0.8
415.51	69.92	0.85
419.77	79.99	0.9
423.36	90.07	0.95
424.86	95.1	0.98
426.16	100.59	1.01

System: pentanoic acid; phases: Liquid, Gas
Property: Vapor or sublimation pressure, kPa (Liquid); method: EBULLIO:UFactor:64
Temperature, K	Vapor or sublimation pressure, kPa	uncertainty
403.15	14.56	0.57
410.71	19.59	0.59
417.07	24.63	0.62
422.19	29.65	0.65
430.08	39.72	0.7
436.48	49.78	0.75
441.89	59.85	0.8
446.45	69.92	0.85
448.48	74.96	0.88
450.35	79.99	0.9
451.92	85.03	0.93

System: 3-methylbutanoic acid; phases: Liquid, Gas
Property: Vapor or sublimation pressure, kPa (Liquid); method: EBULLIO:UFactor:64
Temperature, K	Vapor or sublimation pressure, kPa	uncertainty
396.05	14.56	0.57
402.9	19.59	0.59
412.87	29.65	0.64
420.7	39.72	0.7
427.18	49.78	0.75
432.62	59.86	0.8
437.44	69.92	0.85
441.6	79.99	0.9
445.16	90.07	0.95
446.6	95.1	0.98
447.92	100.08	1.01

System: hexanoic acid; phases: Liquid, Gas
Property: Vapor or sublimation pressure, kPa (Liquid); method: EBULLIO:UFactor:64
Temperature, K	Vapor or sublimation pressure, kPa	uncertainty
413.4	9.52	0.54
422.88	14.56	0.57
429.92	19.59	0.59
435.62	24.63	0.62
440.03	29.64	0.64
444.26	34.68	0.67
447.88	39.72	0.69
451.43	44.75	0.72

System: heptanoic acid; phases: Liquid, Gas
Property: Vapor or sublimation pressure, kPa (Liquid); method: EBULLIO:UFactor:64
Temperature, K	Vapor or sublimation pressure, kPa	uncertainty
413.48	4.7	0.52
426.48	8.63	0.54
435.07	12.56	0.56
441.33	16.57	0.58
446.4	20.63	0.6
451	24.65	0.62
453.8	27.67	0.63
