Measured thermophysical data. Excess Enthalpies of Binary Mixtures of 1-Hexene with Some n-Alkanes at 298.15 K
Source: J. Chem. Eng. Data, 2004, 10.1021/je030215z
Compound 1: hex-1-ene, C6H12, InChI=1S/C6H12/c1-3-5-6-4-2/h3H,1,4-6H2,2H3, purity 99%
Compound 2: heptane, C7H16, InChI=1S/C7H16/c1-3-5-7-6-4-2/h3-7H2,1-2H3, purity 99%
Compound 3: octane, C8H18, InChI=1S/C8H18/c1-3-5-7-8-6-4-2/h3-8H2,1-2H3, purity 99%
Compound 4: decane, C10H22, InChI=1S/C10H22/c1-3-5-7-9-10-8-6-4-2/h3-10H2,1-2H3, purity 99%
Compound 5: dodecane, C12H26, InChI=1S/C12H26/c1-3-5-7-9-11-12-10-8-6-4-2/h3-12H2,1-2H3, purity 99%
Compound 6: tetradecane, C14H30, InChI=1S/C14H30/c1-3-5-7-9-11-13-14-12-10-8-6-4-2/h3-14H2,1-2H3, purity 99%

System: hex-1-ene; phases: Liquid
Property: Mass density, kg/m3 (Liquid); method: VIBTUB:mpoint:UFactor:4
Temperature, K	Pressure, kPa	Mass density, kg/m3	uncertainty
298.15	101.325	668.73	0.43

System: heptane; phases: Liquid
Property: Mass density, kg/m3 (Liquid); method: VIBTUB:mpoint:UFactor:4
Temperature, K	Pressure, kPa	Mass density, kg/m3	uncertainty
298.15	101.325	680.17	0.43

System: octane; phases: Liquid
Property: Mass density, kg/m3 (Liquid); method: VIBTUB:mpoint:UFactor:4
Temperature, K	Pressure, kPa	Mass density, kg/m3	uncertainty
298.15	101.325	698.72	0.44

System: decane; phases: Liquid
Property: Mass density, kg/m3 (Liquid); method: VIBTUB:mpoint:UFactor:4
Temperature, K	Pressure, kPa	Mass density, kg/m3	uncertainty
298.15	101.325	726.3	0.45

System: dodecane; phases: Liquid
Property: Mass density, kg/m3 (Liquid); method: VIBTUB:mpoint:UFactor:4
Temperature, K	Pressure, kPa	Mass density, kg/m3	uncertainty
298.15	101.325	745.32	0.46

System: tetradecane; phases: Liquid
Property: Mass density, kg/m3 (Liquid); method: VIBTUB:mpoint:UFactor:4
Temperature, K	Pressure, kPa	Mass density, kg/m3	uncertainty
298.15	101.325	759.36	0.47

System: heptane + hex-1-ene; phases: Liquid
Fixed: Temperature, K = 298.15
Fixed: Pressure, kPa = 101.325
Property: Excess molar enthalpy (molar enthalpy of mixing), kJ/mol (Liquid); method: Flow calorimetry
Mole fraction of hex-1-ene	Excess molar enthalpy (molar enthalpy of mixing), kJ/mol	uncertainty
0.05	0.01113	0.00087
0.1	0.02121	0.00094
0.1499	0.0303	0.00101
0.1998	0.03757	0.00107
0.2496	0.04468	0.00113
0.2998	0.05046	0.00117
0.35	0.05495	0.0012
0.3984	0.05888	0.00123
0.4492	0.06103	0.00125
0.5005	0.06142	0.00125
0.5498	0.06138	0.00125
0.6	0.05965	0.00124
0.6496	0.05664	0.00122
0.6992	0.05281	0.00119
0.7497	0.04737	0.00115
0.8	0.04133	0.0011
0.8499	0.03305	0.00104
0.9	0.02338	0.00096
0.95	0.01171	0.00087

System: octane + hex-1-ene; phases: Liquid
Fixed: Temperature, K = 298.15
Fixed: Pressure, kPa = 101.325
Property: Excess molar enthalpy (molar enthalpy of mixing), kJ/mol (Liquid); method: Flow calorimetry
Mole fraction of hex-1-ene	Excess molar enthalpy (molar enthalpy of mixing), kJ/mol	uncertainty
0.05	0.01136	0.00087
0.1	0.02225	0.00095
0.15	0.03265	0.00103
0.2036	0.04161	0.0011
0.2496	0.04828	0.00115
0.3	0.05495	0.0012
0.3497	0.05997	0.00124
0.3998	0.06387	0.00127
0.45	0.06613	0.00129
0.5	0.0677	0.0013
0.5499	0.06725	0.0013
0.5994	0.06586	0.00129
0.65	0.0629	0.00127
0.6998	0.05872	0.00123
0.7501	0.05279	0.00119
0.8002	0.04533	0.00113
0.8499	0.03691	0.00107
0.9	0.02629	0.00098
0.95	0.01389	0.00089

System: decane + hex-1-ene; phases: Liquid
Fixed: Temperature, K = 298.15
Fixed: Pressure, kPa = 101.325
Property: Excess molar enthalpy (molar enthalpy of mixing), kJ/mol (Liquid); method: Flow calorimetry
Mole fraction of hex-1-ene	Excess molar enthalpy (molar enthalpy of mixing), kJ/mol	uncertainty
0.05	0.0161	0.0009
0.1	0.03036	0.00101
0.1503	0.04301	0.00111
0.2001	0.05405	0.0012
0.2482	0.06431	0.00128
0.2997	0.07295	0.00134
0.3504	0.07963	0.0014
0.3999	0.08518	0.00144
0.4508	0.08839	0.00146
0.4994	0.09075	0.00148
0.5501	0.09082	0.00148
0.5996	0.08904	0.00147
0.6496	0.08548	0.00144
0.7004	0.07966	0.0014
0.7495	0.07205	0.00134
0.7998	0.06221	0.00126
0.8501	0.05108	0.00117
0.9	0.03608	0.00106
0.95	0.01912	0.00093

System: dodecane + hex-1-ene; phases: Liquid
Fixed: Temperature, K = 298.15
Fixed: Pressure, kPa = 101.325
Property: Excess molar enthalpy (molar enthalpy of mixing), kJ/mol (Liquid); method: Flow calorimetry
Mole fraction of hex-1-ene	Excess molar enthalpy (molar enthalpy of mixing), kJ/mol	uncertainty
0.0501	0.02142	0.00095
0.0999	0.04079	0.0011
0.15	0.05675	0.00122
0.1999	0.07263	0.00134
0.2521	0.08706	0.00145
0.2994	0.09847	0.00154
0.3494	0.10833	0.00162
0.4001	0.1158	0.00167
0.4503	0.12025	0.00171
0.5001	0.12266	0.00173
0.5505	0.1232	0.00173
0.5998	0.12129	0.00172
0.6501	0.11632	0.00168
0.6999	0.10877	0.00162
0.7499	0.09808	0.00154
0.8001	0.08386	0.00143
0.8503	0.06777	0.0013
0.8999	0.04884	0.00116
0.95	0.0262	0.00098

System: hex-1-ene + tetradecane; phases: Liquid
Fixed: Temperature, K = 298.15
Fixed: Pressure, kPa = 101.325
Property: Excess molar enthalpy (molar enthalpy of mixing), kJ/mol (Liquid); method: Flow calorimetry
Mole fraction of hex-1-ene	Excess molar enthalpy (molar enthalpy of mixing), kJ/mol	uncertainty
0.05	0.02584	0.00098
0.1001	0.05192	0.00118
0.1501	0.07499	0.00136
0.2003	0.09519	0.00152
0.2499	0.11318	0.00165
0.297	0.12749	0.00176
0.3497	0.14199	0.00188
0.4002	0.15193	0.00195
0.4498	0.15748	0.002
0.5	0.16171	0.00203
0.5497	0.16177	0.00203
0.5998	0.15883	0.00201
0.6495	0.15244	0.00196
0.6996	0.1419	0.00188
0.7502	0.12783	0.00177
0.7996	0.11041	0.00163
0.8498	0.08832	0.00146
0.8999	0.06285	0.00127
0.95	0.03124	0.00102
