Measured thermophysical data. Excess Molar Volumes and Deviations in Viscosity of Binary Mixtures of N,N-Dimethylformamide with Aniline and Benzonitrile at (298.15, 303.15, 308.15, and 313.15) K
Source: J. Chem. Eng. Data, 2003, 10.1021/je030101n
Compound 1: dimethylformamide, C3H7NO, InChI=1S/C3H7NO/c1-4(2)3-5/h3H,1-2H3
Compound 2: aniline, C6H7N, InChI=1S/C6H7N/c7-6-4-2-1-3-5-6/h1-5H,7H2
Compound 3: benzonitrile, C7H5N, InChI=1S/C7H5N/c8-6-7-4-2-1-3-5-7/h1-5H

System: dimethylformamide; phases: Liquid
Fixed: Pressure, kPa = 101.3
Property: Viscosity, Pa*s (Liquid); method: Capillary tube (Ostwald; Ubbelohde) method
Temperature, K	Viscosity, Pa*s	uncertainty
298.15	0.000803	6e-06
303.15	0.000756	5e-06
308.15	0.00071	5e-06
313.15	0.000673	5e-06

System: dimethylformamide; phases: Liquid
Fixed: Pressure, kPa = 101.3
Property: Mass density, kg/m3 (Liquid); method: Pycnometric method
Temperature, K	Mass density, kg/m3	uncertainty
298.15	944.5	0.3
303.15	939.8	0.3
308.15	935.1	0.3
313.15	930.2	0.3

System: aniline; phases: Liquid
Fixed: Pressure, kPa = 101.3
Property: Viscosity, Pa*s (Liquid); method: Capillary tube (Ostwald; Ubbelohde) method
Temperature, K	Viscosity, Pa*s	uncertainty
298.15	0.00369	2.8e-05
303.15	0.00319	2.4e-05
308.15	0.0028	2.1e-05
313.15	0.00242	1.8e-05

System: aniline; phases: Liquid
Fixed: Pressure, kPa = 101.3
Property: Mass density, kg/m3 (Liquid); method: Pycnometric method
Temperature, K	Mass density, kg/m3	uncertainty
298.15	1017.2	0.6
303.15	1012.9	0.6
308.15	1008.6	0.6
313.15	1004.2	0.6

System: benzonitrile; phases: Liquid
Fixed: Pressure, kPa = 101.3
Property: Viscosity, Pa*s (Liquid); method: Capillary tube (Ostwald; Ubbelohde) method
Temperature, K	Viscosity, Pa*s	uncertainty
298.15	0.001171	9e-06
303.15	0.001126	9e-06
308.15	0.001068	9e-06
313.15	0.001001	8e-06

System: benzonitrile; phases: Liquid
Fixed: Pressure, kPa = 101.3
Property: Mass density, kg/m3 (Liquid); method: Pycnometric method
Temperature, K	Mass density, kg/m3	uncertainty
298.15	1000.9	0.6
303.15	996.4	0.6
308.15	991.9	0.6
313.15	987.2	0.6

System: aniline + dimethylformamide; phases: Liquid
Fixed: Pressure, kPa = 101.3
Property: Viscosity, Pa*s (Liquid); method: Capillary tube (Ostwald; Ubbelohde) method
Temperature, K	Mole fraction of dimethylformamide	Viscosity, Pa*s	uncertainty
298.15	0	0.00369	2.8e-05
298.15	0.1293	0.003296	2.4e-05
298.15	0.2582	0.002908	2e-05
298.15	0.3548	0.002621	1.8e-05
298.15	0.4642	0.0023	1.5e-05
298.15	0.5537	0.00204	1.3e-05
298.15	0.6614	0.001731	1.1e-05
298.15	0.7558	0.001466	9e-06
298.15	0.8302	0.001257	8e-06
298.15	0.9123	0.001038	7e-06
298.15	1	0.000803	6e-06
303.15	0	0.00319	2.4e-05
303.15	0.1293	0.002864	2.1e-05
303.15	0.2582	0.00254	1.8e-05
303.15	0.3548	0.002298	1.5e-05
303.15	0.4642	0.002025	1.3e-05
303.15	0.5537	0.001803	1.2e-05
303.15	0.6614	0.001543	1e-05
303.15	0.7558	0.001319	8e-06
303.15	0.8302	0.001145	7e-06
303.15	0.9123	0.000955	6e-06
303.15	1	0.000756	5e-06
308.15	0	0.0028	2.1e-05
308.15	0.1293	0.002521	1.8e-05
308.15	0.2582	0.002242	1.6e-05
308.15	0.3548	0.002034	1.4e-05
308.15	0.4642	0.0018	1.2e-05
308.15	0.5537	0.001611	1e-05
308.15	0.6614	0.001387	9e-06
308.15	0.7558	0.001194	8e-06
308.15	0.8302	0.001044	7e-06
308.15	0.9123	0.00088	6e-06
308.15	1	0.00071	5e-06
313.15	0	0.00242	1.8e-05
313.15	0.1293	0.002186	1.6e-05
313.15	0.2582	0.001952	1.4e-05
313.15	0.3548	0.001779	1.2e-05
313.15	0.4642	0.001583	1.1e-05
313.15	0.5537	0.001423	9e-06
313.15	0.6614	0.001237	8e-06
313.15	0.7558	0.001079	7e-06
313.15	0.8302	0.000954	6e-06
313.15	0.9123	0.000819	6e-06
313.15	1	0.000673	5e-06

System: aniline + dimethylformamide; phases: Liquid
Fixed: Pressure, kPa = 101.3
Property: Mass density, kg/m3 (Liquid); method: Pycnometric method
Temperature, K	Mole fraction of dimethylformamide	Mass density, kg/m3	uncertainty
298.15	0	1017.2	0.6
298.15	0.1293	1010.3	0.5
298.15	0.2582	1005.8	0.5
298.15	0.3548	1000.5	0.4
298.15	0.4642	993.9	0.4
298.15	0.5537	987.6	0.4
298.15	0.6614	978.8	0.3
298.15	0.7558	969.2	0.3
298.15	0.8302	961.4	0.3
298.15	0.9123	952.3	0.3
298.15	1	944.5	0.3
303.15	0	1012.9	0.6
303.15	0.1293	1006	0.5
303.15	0.2582	1001.5	0.5
303.15	0.3548	996.2	0.4
303.15	0.4642	989.5	0.4
303.15	0.5537	983.2	0.4
303.15	0.6614	974.3	0.3
303.15	0.7558	964.8	0.3
303.15	0.8302	957	0.3
303.15	0.9123	947.7	0.3
303.15	1	939.8	0.3
308.15	0	1008.6	0.6
308.15	0.1293	1001.7	0.5
308.15	0.2582	997.2	0.5
308.15	0.3548	991.9	0.4
308.15	0.4642	985.1	0.4
308.15	0.5537	978.9	0.4
308.15	0.6614	969.8	0.4
308.15	0.7558	960.4	0.3
308.15	0.8302	952.6	0.3
308.15	0.9123	943.1	0.3
308.15	1	935.1	0.3
313.15	0	1004.2	0.6
313.15	0.1293	997.3	0.5
313.15	0.2582	992.9	0.5
313.15	0.3548	987.6	0.5
313.15	0.4642	980.7	0.4
313.15	0.5537	974.5	0.4
313.15	0.6614	965.3	0.4
313.15	0.7558	955.9	0.3
313.15	0.8302	948.1	0.3
313.15	0.9123	938.4	0.3
313.15	1	930.2	0.3

System: dimethylformamide + benzonitrile; phases: Liquid
Fixed: Pressure, kPa = 101.3
Property: Viscosity, Pa*s (Liquid); method: Capillary tube (Ostwald; Ubbelohde) method
Temperature, K	Mole fraction of dimethylformamide	Viscosity, Pa*s	uncertainty
298.15	0	0.001171	9e-06
298.15	0.1335	0.00117	9e-06
298.15	0.1981	0.001169	9e-06
298.15	0.3191	0.001152	8e-06
298.15	0.3873	0.001134	8e-06
298.15	0.4907	0.001099	8e-06
298.15	0.6061	0.001049	7e-06
298.15	0.7176	0.000992	7e-06
298.15	0.7997	0.000943	6e-06
298.15	0.9209	0.000862	6e-06
298.15	1	0.000803	6e-06
303.15	0	0.001126	9e-06
303.15	0.1335	0.001124	9e-06
303.15	0.1981	0.001119	8e-06
303.15	0.3191	0.001097	8e-06
303.15	0.3873	0.001078	8e-06
303.15	0.4907	0.001042	7e-06
303.15	0.6061	0.000992	7e-06
303.15	0.7176	0.000936	6e-06
303.15	0.7997	0.000889	6e-06
303.15	0.9209	0.000811	6e-06
303.15	1	0.000756	5e-06
308.15	0	0.001068	9e-06
308.15	0.1335	0.001064	8e-06
308.15	0.1981	0.001056	8e-06
308.15	0.3191	0.001033	8e-06
308.15	0.3873	0.001015	7e-06
308.15	0.4907	0.00098	7e-06
308.15	0.6061	0.000932	7e-06
308.15	0.7176	0.000879	6e-06
308.15	0.7997	0.000834	6e-06
308.15	0.9209	0.000761	5e-06
308.15	1	0.00071	5e-06
313.15	0	0.001001	8e-06
313.15	0.1335	0.00099	8e-06
313.15	0.1981	0.000985	8e-06
313.15	0.3191	0.000963	7e-06
313.15	0.3873	0.000948	7e-06
313.15	0.4907	0.000918	7e-06
313.15	0.6061	0.000875	6e-06
313.15	0.7176	0.000825	6e-06
313.15	0.7997	0.000781	6e-06
313.15	0.9209	0.000715	5e-06
313.15	1	0.000673	5e-06

System: dimethylformamide + benzonitrile; phases: Liquid
Fixed: Pressure, kPa = 101.3
Property: Mass density, kg/m3 (Liquid); method: Pycnometric method
Temperature, K	Mole fraction of dimethylformamide	Mass density, kg/m3	uncertainty
298.15	0	1000.9	0.6
298.15	0.1335	995.4	0.5
298.15	0.1981	992.7	0.5
298.15	0.3191	987.4	0.4
298.15	0.3873	984.3	0.4
298.15	0.4907	979	0.4
298.15	0.6061	972.2	0.4
298.15	0.7176	965.2	0.3
298.15	0.7997	959.6	0.3
298.15	0.9209	950.6	0.3
298.15	1	944.5	0.3
303.15	0	996.4	0.6
303.15	0.1335	990.9	0.5
303.15	0.1981	988.2	0.5
303.15	0.3191	982.9	0.4
303.15	0.3873	979.8	0.4
303.15	0.4907	974.5	0.4
303.15	0.6061	967.7	0.4
303.15	0.7176	960.6	0.3
303.15	0.7997	955	0.3
303.15	0.9209	946	0.3
303.15	1	939.8	0.3
308.15	0	991.9	0.6
308.15	0.1335	986.4	0.5
308.15	0.1981	983.7	0.5
308.15	0.3191	978.4	0.5
308.15	0.3873	975.3	0.4
308.15	0.4907	970	0.4
308.15	0.6061	963.2	0.4
308.15	0.7176	956	0.3
308.15	0.7997	950.4	0.3
308.15	0.9209	941.4	0.3
308.15	1	935.1	0.3
313.15	0	987.2	0.6
313.15	0.1335	981.7	0.5
313.15	0.1981	979	0.5
313.15	0.3191	973.8	0.5
313.15	0.3873	970.6	0.4
313.15	0.4907	965.3	0.4
313.15	0.6061	958.5	0.4
313.15	0.7176	951.2	0.3
313.15	0.7997	945.6	0.3
313.15	0.9209	936.5	0.3
313.15	1	930.2	0.3
