Measured thermophysical data. The Density, Viscosity and Vapor Pressure of Phenylphosphorus Dichloride and Phenylphosphonic Dichloride
Source: J. Chem. Eng. Data, 2004, 10.1021/je034263v
Compound 1: dichlorophenylphosphine, C6H5Cl2P, InChI=1S/C6H5Cl2P/c7-9(8)6-4-2-1-3-5-6/h1-5H
Compound 2: phenylphosphonic dichloride, C6H5Cl2OP, InChI=1S/C6H5Cl2OP/c7-10(8,9)6-4-2-1-3-5-6/h1-5H

System: dichlorophenylphosphine; phases: Liquid
Property: Refractive index (Na D-line) (Liquid); method: Standard Abbe refractometry
Temperature, K	Pressure, kPa	Refractive index (Na D-line)	uncertainty
293.15	101.325	1.595	0.0007

System: dichlorophenylphosphine; phases: Liquid, Gas
Property: Vapor or sublimation pressure, kPa (Liquid); method: CCELL:UFactor:16
Temperature, K	Vapor or sublimation pressure, kPa	uncertainty
349.26	0.614	0.092
352.16	0.719	0.106
355.14	0.842	0.121
357.45	0.949	0.134
360.35	1.099	0.153
363.46	1.282	0.175
366.4	1.476	0.161
369.51	1.708	0.167
374.35	2.126	0.178
377.89	2.483	0.187
380.29	2.751	0.194
383.46	3.141	0.204
388.15	3.891	0.222
392.55	4.466	0.238
395.55	5.321	0.26
398.35	5.853	0.271
402.05	6.279	0.281
404.85	6.866	0.297
408.49	7.653	0.32
412.55	9.346	0.364
414.04	9.813	0.373
415.05	10.186	0.385
418.03	11.386	0.414
420.25	12.279	0.431
424.25	12.972	0.449
426.06	13.906	0.48

System: phenylphosphonic dichloride; phases: Liquid
Property: Refractive index (Na D-line) (Liquid); method: Standard Abbe refractometry
Temperature, K	Pressure, kPa	Refractive index (Na D-line)	uncertainty
298.15	101.325	1.5586	0.0007

System: phenylphosphonic dichloride; phases: Liquid
Fixed: Pressure, kPa = 101.325
Property: Viscosity, Pa*s (Liquid); method: CAPTUB:UFactor:8
Temperature, K	Viscosity, Pa*s	uncertainty
293.21	0.0046867	0.0002041
299.58	0.0041435	0.0001817
303.77	0.0036742	0.0001622
307.97	0.0033313	0.000148
312.95	0.0029791	0.0001332
318.95	0.0026417	0.0001191
322.75	0.0024506	0.000111
327.85	0.0022466	0.0001024
332.35	0.0020463	9.39e-05
338.25	0.0018732	8.66e-05
341.85	0.0017703	8.22e-05

System: phenylphosphonic dichloride; phases: Liquid, Gas
Property: Vapor or sublimation pressure, kPa (Liquid); method: CCELL:UFactor:16
Temperature, K	Vapor or sublimation pressure, kPa	uncertainty
377.15	0.529	0.082
382.65	0.646	0.096
387.96	0.813	0.117
393.09	1.031	0.144
397.4	1.277	0.174
402.6	1.535	0.162
410.21	2.011	0.174
413.57	2.266	0.18
415.95	2.693	0.191
419.63	3.136	0.202
424.32	3.788	0.218
428.54	4.226	0.229
431.35	5	0.249
435.95	5.666	0.265
439.85	6.506	0.286
442.85	7.533	0.311
446.35	7.826	0.319
448.84	8.893	0.345
456.05	10.532	0.39
457.65	11.532	0.415

System: phenylphosphonic dichloride; phases: Liquid
Fixed: Pressure, kPa = 101.325
Property: Mass density, kg/m3 (Liquid); method: PYCNOM:UFactor:4
Temperature, K	Mass density, kg/m3	uncertainty
293.17	1400	1.4
299.19	1394.9	1.5
303.25	1390.8	1.5
309.05	1384.8	1.6
313.75	1380.1	1.6
319.25	1373.9	1.6
323.31	1369.7	1.7
329.4	1364.3	1.7
334.75	1358.7	1.8
338.85	1354.3	1.8
342.85	1350.4	1.8
