Measured thermophysical data. Vapor Liquid Equilibria of the Mixtures Involved in the Esterification of Lactic Acid with Methanol
Source: J. Chem. Eng. Data, 2003, 10.1021/je034028c
Compound 1: 2-hydroxypropanoic acid, C3H6O3, InChI=1S/C3H6O3/c1-2(4)3(5)6/h2,4H,1H3,(H,5,6)
Compound 2: water, H2O, InChI=1S/H2O/h1H2
Compound 3: 2-(2-hydroxypropanoyloxy)propanoic acid, C6H10O5, InChI=1S/C6H10O5/c1-3(7)6(10)11-4(2)5(8)9/h3-4,7H,1-2H3,(H,8,9), purity 99%

System: 2-hydroxypropanoic acid + water + 2-(2-hydroxypropanoyloxy)propanoic acid; phases: Liquid, Gas
Fixed: Pressure, kPa = 101.33
Property: Mole fraction of 2-hydroxypropanoic acid (Liquid); method: Titration method
Property: Mole fraction of 2-hydroxypropanoic acid (Gas); method: Titration method
Property: Mole fraction of water (Gas); method: Titration method
Temperature, K	Mole fraction of water	Mole fraction of 2-hydroxypropanoic acid	uncertainty	Mole fraction of 2-hydroxypropanoic acid	uncertainty	Mole fraction of water	uncertainty
438.13	0.194	0.6202	0.0061	0.0534	0.004	0.9465	
424.34	0.2412	0.6003	0.0061	0.032	0.004	0.968	
421.49	0.2698	0.5807	0.0061	0.0293	0.004	0.9707	
416.47	0.2995	0.5546	0.0061	0.0195	0.004	0.9805	
412.97	0.3284	0.5376	0.0061	0.0189	0.004	0.9811	
409	0.3521	0.5224	0.0061	0.0179	0.004	0.9821	
407.74	0.3705	0.5075	0.0061	0.016	0.004	0.984	
404.2	0.4051	0.4761	0.0061	0.0145	0.004	0.9855	
403.92	0.3999	0.4845	0.0061	0.014	0.004	0.986	
403.62	0.4047	0.4818	0.0061	0.013	0.004	0.987	
403.2	0.4035	0.4851	0.0061	0.0127	0.004	0.9873	
402.22	0.4104	0.4769	0.0061	0.0105	0.004	0.9895	
401.41	0.4158	0.4725	0.0061	0.0104	0.004	0.9896	
400.85	0.4386	0.4519	0.0061	0.0094	0.004	0.9906	
400.64	0.4401	0.4499	0.0061	0.0089	0.004	0.9911	
398.55	0.4502	0.4451	0.0061	0.0089	0.004	0.9911	
398.29	0.4532	0.4435	0.006	0.0084	0.004	0.9916	
397.26	0.4692	0.4302	0.006	0.0074	0.004	0.9926	
396.8	0.4694	0.4299	0.006	0.0076	0.004	0.9924	
395.2	0.4903	0.4152	0.006	0.0069	0.004	0.9931	
394.99	0.4928	0.4142	0.006	0.0074	0.004	0.9926	
393.6	0.5011	0.4075	0.006	0.0066	0.004	0.9934	
393.01	0.5138	0.3961	0.006	0.0061	0.004	0.9939	
391.42	0.5341	0.3785	0.006	0.005	0.004	0.995	
389.65	0.5522	0.3645	0.006	0.0049	0.004	0.9951	
389.62	0.5745	0.3455	0.006	0.0045	0.004	0.9955	
386.6	0.603	0.3211	0.006	0.0036	0.0036	0.9964	
386.3	0.6226	0.3043	0.006	0.0035	0.0035	0.9965	
384.14	0.646	0.2855	0.006	0.0033	0.0033	0.9967	
383.19	0.6615	0.2716	0.006	0.0032	0.0032	0.9968	
382.62	0.6882	0.2496	0.006	0.0028	0.0028	0.9972	
381.59	0.7005	0.2385	0.006	0.0024	0.0024	0.9976	
381.09	0.7035	0.2372	0.006	0.0021	0.0021	0.9979	
380.42	0.7193	0.2245	0.006	0.0017	0.0017	0.9983	
379.78	0.7403	0.207	0.006	0.0016	0.0016	0.9984	
379.09	0.7573	0.1941	0.006	0.0014	0.0014	0.9986	
378.36	0.7822	0.1722	0.006	0.0012	0.0012	0.9988	
377.54	0.8211	0.141	0.006	0.0011	0.0011	0.9989	
376.36	0.8628	0.1079	0.006	0.0005	0.0005	0.9995	
374.18	0.9558	0.0342	0.006	0.0002	0.0002	0.9998	
