Measured thermophysical data. Speed of Sound in Propan-1-ol + Heptane Mixtures under Elevated Pressures
Source: J. Chem. Eng. Data, 2003, 10.1021/je030136n
Compound 1: heptane, C7H16, InChI=1S/C7H16/c1-3-5-7-6-4-2/h3-7H2,1-2H3, purity 99.5%
Compound 2: propan-1-ol, C3H8O, InChI=1S/C3H8O/c1-2-3-4/h4H,2-3H2,1H3, purity 99.8%

System: heptane; phases: Liquid
Property: Speed of sound, m/s (Liquid); method: Pulse-echo method
Pressure, kPa	Temperature, K	Speed of sound, m/s	uncertainty
100	293.15	1151.69	1.11
100	298.16	1129.87	1.11
100	303.06	1108.88	1.1
100	308.08	1087.42	1.1
100	313.1	1066.12	1.1
100	318.18	1044.54	1.09
15200	293.2	1256.33	1.13
15200	303.17	1218.64	1.13
15200	308.08	1200.43	1.13
15200	313.1	1182.05	1.12
15200	318.18	1163.39	1.14
30400	293.18	1341.5	1.16
30400	303.13	1306.98	1.16
30400	308.07	1290.28	1.16
30400	313.12	1273.35	1.15
30400	318.18	1256.47	1.16
45590	293.19	1416.6	1.19
45590	298.18	1400.09	1.21
45590	303.07	1384.42	1.19
45590	308.07	1368.71	1.19
45590	313.12	1352.98	1.19
45590	318.17	1337.39	1.19
60790	293.2	1484.48	1.23
60790	298.19	1468.69	1.23
60790	303.18	1453.68	1.23
60790	308.12	1438.95	1.22
60790	313.12	1424.3	1.22
60790	318.17	1409.63	1.22
75990	293.2	1546.46	1.26
75990	298.11	1531.64	1.26
75990	303.17	1517.17	1.26
75990	308.12	1503.23	1.26
75990	313.1	1489.21	1.25
75990	318.09	1475.54	1.26
91190	293.2	1603.69	1.29
91190	298.15	1589.43	1.29
91190	303.18	1575.68	1.29
91190	308.11	1562.39	1.29
91190	313.13	1549.03	1.29
91190	318.15	1535.72	1.29
101320	293.2	1639.7	1.31
101320	298.16	1625.72	1.31
101320	303.1	1612.63	1.31
101320	308.24	1599.12	1.3
101320	313.21	1586.17	1.3
101320	318.18	1573.59	1.31
111450	293.1	1674.29	1.32
111450	298.13	1660.46	1.53
111450	298.16	1660.43	1.53
111450	303.15	1647.6	1.32
111450	308.21	1634.64	1.32
111450	313.2	1622.05	1.32
111450	318.18	1609.77	1.32
121580	293.16	1707.09	1.35
121580	298.14	1692.38	1.35
121580	303.1	1681.25	1.34
121580	308.17	1668.58	1.35
121580	313.13	1656.4	1.35
121580	318.17	1644.27	1.35

System: propan-1-ol; phases: Liquid
Property: Speed of sound, m/s (Liquid); method: Pulse-echo method
Pressure, kPa	Temperature, K	Speed of sound, m/s	uncertainty
100	293.19	1222.98	1.02
100	298.12	1205.93	1.02
100	303.12	1188.72	1.01
100	308.2	1171.37	1.01
100	313.17	1154.51	1.01
100	318.2	1137.48	1
15200	293.12	1308.47	1.03
15200	298.11	1292.86	1.04
15200	303.14	1277.31	1.03
15200	308.2	1263.59	1.03
15200	313.16	1248.7	1.04
30400	293.22	1379.93	1.06
30400	298.15	1365.6	1.06
30400	303.24	1350.89	1.06
30400	308.13	1336.85	1.06
30400	313.16	1322.58	1.06
30400	318.16	1308.73	1.07
45590	293.21	1444.18	1.09
45590	298.14	1430.65	1.09
45590	303.13	1417.04	1.09
45590	308.13	1403.65	1.09
45590	313.16	1390.41	1.09
45590	318.14	1377.4	1.09
60790	293.21	1502.84	1.12
60790	298.14	1490.03	1.12
60790	303.2	1477.02	1.12
60790	308.13	1464.46	1.12
60790	313.17	1451.85	1.12
60790	318.12	1439.64	1.12
75990	293.2	1557.22	1.15
75990	298.14	1544.87	1.15
75990	303.15	1532.53	1.15
75990	308.12	1520.4	1.15
75990	313.16	1508.49	1.15
75990	318.12	1496.85	1.15
91190	293.2	1607.57	1.18
91190	298.14	1595.85	1.18
91190	303.17	1584.03	1.18
91190	308.2	1572.36	1.18
91190	313.15	1561.08	1.18
91190	318.12	1549.89	1.18
101320	293.18	1639.47	1.2
101320	298.14	1628	1.2
101320	303.17	1616.49	1.2
101320	308.19	1605.09	1.19
101320	313.15	1594.14	1.19
101320	318.11	1583.33	1.19
111450	293.17	1669.92	1.21
111450	298.14	1658.78	1.21
111450	303.19	1647.55	1.21
111450	308.16	1636.69	1.21
111450	313.22	1625.76	1.21
111450	318.17	1615.27	1.21
121580	293.16	1699.12	1.23
121580	298.14	1688.24	1.23
121580	303.18	1677.36	1.23
121580	308.11	1666.98	1.23
121580	313.17	1656.22	1.23
121580	318.17	1645.95	1.23

System: propan-1-ol + heptane; phases: Liquid
Property: Speed of sound, m/s (Liquid); method: Pulse-echo method
Mole fraction of propan-1-ol	Pressure, kPa	Temperature, K	Speed of sound, m/s	uncertainty
0	100	293.15	1151.69	1.11
0	100	298.16	1129.87	1.11
0	100	303.06	1108.88	1.1
0	100	308.08	1087.42	1.1
0	100	313.1	1066.12	1.1
0	100	318.18	1044.54	1.09
0	15200	293.2	1256.33	1.13
0	15200	303.17	1218.64	1.13
0	15200	308.08	1200.43	1.13
0	15200	313.1	1182.05	1.12
0	15200	318.18	1163.39	1.14
0	30400	293.18	1341.5	1.16
0	30400	303.13	1306.98	1.16
0	30400	308.07	1290.28	1.16
0	30400	313.12	1273.35	1.15
0	30400	318.18	1256.47	1.16
0	45590	293.19	1416.6	1.19
0	45590	298.18	1400.09	1.21
0	45590	303.07	1384.42	1.19
0	45590	308.07	1368.71	1.19
0	45590	313.12	1352.98	1.19
0	45590	318.17	1337.39	1.19
0	60790	293.2	1484.48	1.23
0	60790	298.19	1468.69	1.23
0	60790	303.18	1453.68	1.23
0	60790	308.12	1438.95	1.22
0	60790	313.12	1424.3	1.22
0	60790	318.17	1409.63	1.22
0	75990	293.2	1546.46	1.26
0	75990	298.11	1531.64	1.26
0	75990	303.17	1517.17	1.26
0	75990	308.12	1503.23	1.26
0	75990	313.1	1489.21	1.25
0	75990	318.09	1475.54	1.26
0	91190	293.2	1603.69	1.29
0	91190	298.15	1589.43	1.29
0	91190	303.18	1575.68	1.29
0	91190	308.11	1562.39	1.29
0	91190	313.13	1549.03	1.29
0	91190	318.15	1535.72	1.29
0	101320	293.2	1639.7	1.31
0	101320	298.16	1625.72	1.31
0	101320	303.1	1612.63	1.31
0	101320	308.24	1599.12	1.3
0	101320	313.21	1586.17	1.3
0	101320	318.18	1573.59	1.31
0	111450	293.1	1674.29	1.32
0	111450	298.13	1660.46	1.53
0	111450	298.16	1660.43	1.53
0	111450	303.15	1647.6	1.32
0	111450	308.21	1634.64	1.32
0	111450	313.2	1622.05	1.32
0	111450	318.18	1609.77	1.32
0	121580	293.16	1707.09	1.35
0	121580	298.14	1692.38	1.35
0	121580	303.1	1681.25	1.34
0	121580	308.17	1668.58	1.35
0	121580	313.13	1656.4	1.35
0	121580	318.17	1644.27	1.35
0.1008	100	293.22	1147.28	1.1
0.1008	100	298.15	1125.74	1.1
0.1008	100	303.22	1103.78	1.09
0.1008	100	308.22	1082.18	1.09
0.1008	100	313.15	1061.04	1.08
0.1008	100	318.18	1039.67	1.07
0.1008	15200	293.22	1251.98	1.11
0.1008	15200	298.17	1232.86	1.12
0.1008	15200	303.16	1213.62	1.12
0.1008	15200	308.12	1194.89	1.11
0.1008	15200	313.14	1176.11	1.11
0.1008	15200	318.18	1157.75	1.12
0.1008	30400	293.22	1336.96	1.15
0.1008	30400	298.17	1319.51	1.15
0.1008	30400	303.21	1301.88	1.15
0.1008	30400	308.22	1284.58	1.14
0.1008	30400	313.15	1267.88	1.14
0.1008	30400	318.2	1250.71	1.14
0.1008	45590	293.11	1411.95	1.18
0.1008	45590	298.16	1395.71	1.18
0.1008	45590	303.21	1379.27	1.18
0.1008	45590	308.22	1363.15	1.18
0.1008	45590	313.13	1347.63	1.18
0.1008	45590	318.19	1331.61	1.18
0.1008	60790	293.19	1479.59	1.22
0.1008	60790	298.18	1464.22	1.21
0.1008	60790	303.2	1448.77	1.21
0.1008	60790	308.21	1433.56	1.21
0.1008	60790	313.12	1419	1.21
0.1008	60790	318.17	1403.88	1.21
0.1008	75990	293.13	1541.78	1.25
0.1008	75990	298.17	1526.78	1.24
0.1008	75990	303.21	1512.06	1.24
0.1008	75990	308.2	1497.71	1.24
0.1008	75990	313.14	1483.74	1.24
0.1008	75990	318.15	1469.44	1.24
0.1008	91190	293.1	1598.97	1.28
0.1008	91190	298.17	1584.48	1.28
0.1008	91190	303.21	1570.45	1.28
0.1008	91190	308.22	1556.66	1.28
0.1008	91190	313.16	1543.31	1.28
0.1008	101320	293.14	1634.71	1.29
0.1008	101320	298.16	1620.64	1.29
0.1008	101320	303.17	1607.1	1.29
0.1008	101320	308.2	1593.69	1.29
0.1008	101320	313.19	1580.6	1.29
0.1008	101320	318.17	1567.68	1.3
0.1008	111450	293.15	1668.88	1.31
0.1008	111450	298.18	1655.13	1.31
0.1008	111450	303.18	1641.96	1.31
0.1008	111450	308.22	1628.88	1.31
0.1008	111450	313.19	1616.26	1.31
0.1008	111450	318.17	1603.7	1.31
0.1008	121580	293.13	1701.59	1.34
0.1008	121580	298.14	1688.8	1.34
0.1008	121580	303.19	1675.42	1.34
0.1008	121580	308.23	1662.31	1.34
0.1008	121580	313.19	1649.67	1.34
0.1008	121580	318.17	1636.99	1.34
0.3008	100	293.21	1149.88	1.08
0.3008	100	298.18	1128.58	1.07
0.3008	100	303.2	1107.11	1.07
0.3008	100	308.12	1086.26	1.06
0.3008	100	313.17	1065.01	1.06
0.3008	100	318.21	1043.76	1.05
0.3008	30400	293.21	1336.48	1.13
0.3008	30400	298.17	1319.27	1.13
0.3008	30400	303.2	1301.75	1.13
0.3008	30400	308.19	1284.81	1.13
0.3008	30400	313.17	1268.13	1.13
0.3008	30400	318.19	1251.44	1.13
0.3008	45590	293.22	1410.18	1.16
0.3008	45590	298.17	1394.1	1.16
0.3008	45590	303.23	1377.74	1.16
0.3008	45590	308.16	1361.97	1.15
0.3008	45590	313.12	1346.51	1.15
0.3008	45590	318.19	1330.84	1.15
0.3008	60790	293.19	1476.81	1.19
0.3008	60790	298.17	1461.53	1.19
0.3008	60790	303.21	1446.05	1.19
0.3008	60790	308.15	1431.22	1.19
0.3008	60790	313.15	1416.44	1.18
0.3008	60790	318.19	1401.86	1.18
0.3008	75990	293.2	1537.7	1.22
0.3008	75990	298.17	1523.18	1.22
0.3008	75990	303.21	1508.45	1.22
0.3008	75990	308.17	1494.32	1.22
0.3008	75990	313.17	1480.32	1.22
0.3008	75990	318.18	1466.53	1.22
0.3008	91190	293.1	1594.32	1.25
0.3008	91190	298.19	1580.1	1.25
0.3008	91190	303.21	1566.12	1.25
0.3008	91190	308.14	1552.63	1.25
0.3008	91190	313.15	1539.31	1.25
0.3008	91190	318.17	1526.08	1.25
0.3008	101320	293.16	1629.45	1.27
0.3008	101320	298.1	1616.01	1.27
0.3008	101320	303.17	1602.36	1.27
0.3008	101320	308.16	1589.14	1.27
0.3008	101320	313.16	1576.18	1.27
0.3008	101320	318.18	1563.29	1.27
0.3008	111450	293.14	1663.26	1.29
0.3008	111450	298.14	1650.06	1.29
0.3008	111450	303.25	1636.87	1.29
0.3008	111450	308.14	1624.08	1.29
0.3008	111450	313.15	1611.46	1.29
0.3008	111450	318.17	1598.98	1.29
0.3008	121580	293.17	1695.52	1.32
0.3008	121580	298.15	1682.68	1.31
0.3008	121580	303.16	1669.91	1.31
0.3008	121580	308.1	1657.47	1.31
0.3008	121580	313.15	1645.1	1.31
0.3008	121580	318.17	1633	1.32
0.4992	100	293.12	1158.17	1.06
0.4992	100	298.13	1136.97	1.05
0.4992	100	303.16	1116	1.05
0.4992	100	308.2	1095.17	1.04
0.4992	100	313.15	1074.76	1.04
0.4992	100	318.13	1054.27	1.03
0.4992	30400	293.17	1340.47	1.11
0.4992	30400	298.15	1323.25	1.11
0.4992	30400	303.14	1306.45	1.11
0.4992	30400	308.2	1289.63	1.11
0.4992	30400	313.09	1273.27	1.1
0.4992	30400	318.14	1256.94	1.11
0.4992	45590	293.13	1412.63	1.14
0.4992	45590	298.16	1396.69	1.14
0.4992	45590	303.16	1380.91	1.13
0.4992	45590	308.2	1365.2	1.13
0.4992	45590	313.15	1349.89	1.13
0.4992	45590	318.13	1334.78	1.13
0.4992	60790	293.16	1478.01	1.17
0.4992	60790	298.15	1462.72	1.17
0.4992	60790	303.15	1447.96	1.17
0.4992	60790	308.19	1432.98	1.16
0.4992	60790	313.09	1418.69	1.16
0.4992	60790	318.12	1404.41	1.16
0.4992	75990	293.16	1537.79	1.2
0.4992	75990	298.15	1523.3	1.2
0.4992	75990	303.14	1509.25	1.2
0.4992	75990	308.18	1495.2	1.2
0.4992	75990	313.15	1481.4	1.2
0.4992	75990	318.18	1467.82	1.2
0.4992	91190	293.19	1592.62	1.23
0.4992	91190	298.14	1579.27	1.23
0.4992	91190	303.13	1565.77	1.23
0.4992	91190	308.18	1552.34	1.23
0.4992	91190	313.15	1539.28	1.23
0.4992	91190	318.17	1526.33	1.23
0.4992	101320	293.21	1627.32	1.25
0.4992	101320	298.13	1614.37	1.25
0.4992	101320	303.12	1601.34	1.25
0.4992	101320	308.15	1588.31	1.24
0.4992	101320	313.15	1575.54	1.24
0.4992	101320	318.16	1563.05	1.24
0.4992	111450	293.21	1660.48	1.26
0.4992	111450	298.15	1647.86	1.26
0.4992	111450	303.11	1635.32	1.26
0.4992	111450	308.11	1622.61	1.26
0.4992	111450	313.17	1610.14	1.26
0.4992	111450	318.15	1598.02	1.26
0.4992	121580	293.23	1692.22	1.29
0.4992	121580	298.14	1679.93	1.29
0.4992	121580	303.11	1667.65	1.29
0.4992	121580	308.1	1655.43	1.29
0.4992	121580	313.16	1643.29	1.29
0.4992	121580	318.13	1631.55	1.29
0.6027	100	293.13	1164.9	1.05
0.6027	100	298.18	1144.27	1.04
0.6027	100	303.15	1123.99	1.04
0.6027	100	308.21	1103.48	1.03
0.6027	100	313.1	1083.89	1.03
0.6027	100	318.2	1063.45	1.02
0.6027	30400	293.13	1343.28	1.1
0.6027	30400	298.19	1326.38	1.1
0.6027	30400	303.14	1309.96	1.1
0.6027	30400	308.11	1293.74	1.1
0.6027	30400	313.12	1277.58	1.09
0.6027	30400	318.23	1261.36	1.1
0.6027	45590	293.1	1414.52	1.13
0.6027	45590	298.19	1398.6	1.13
0.6027	45590	303.15	1383.2	1.12
0.6027	45590	308.14	1368.09	1.12
0.6027	45590	313.13	1353.01	1.12
0.6027	45590	318.16	1338.2	1.12
0.6027	60790	293.14	1478.74	1.16
0.6027	60790	298.23	1463.59	1.16
0.6027	60790	303.08	1449.55	1.16
0.6027	60790	308.18	1435.02	1.15
0.6027	60790	313.14	1420.87	1.15
0.6027	60790	318.15	1406.89	1.15
0.6027	75990	293.15	1537.84	1.19
0.6027	75990	298.22	1523.54	1.19
0.6027	75990	303.15	1509.94	1.19
0.6027	75990	308.17	1496.27	1.19
0.6027	75990	313.12	1482.86	1.18
0.6027	75990	318.27	1469.25	1.18
0.6027	91190	293.14	1592.55	1.22
0.6027	91190	298.19	1578.99	1.22
0.6027	91190	303.14	1565.91	1.22
0.6027	91190	308.18	1552.76	1.22
0.6027	91190	313.12	1540.04	1.22
0.6027	91190	318.21	1527.2	1.22
0.6027	101320	293.18	1626.9	1.24
0.6027	101320	298.15	1613.86	1.24
0.6027	101320	303.08	1601.16	1.23
0.6027	101320	308.24	1588.13	1.23
0.6027	101320	313.12	1575.87	1.23
0.6027	101320	318.2	1563.49	1.23
0.6027	111450	293.16	1659.8	1.25
0.6027	111450	298.13	1647.11	1.25
0.6027	111450	303.1	1634.7	1.25
0.6027	111450	308.16	1622.27	1.25
0.6027	111450	313.17	1610.05	1.25
0.6027	111450	318.23	1598.03	1.25
0.6027	121580	293.18	1691.22	1.28
0.6027	121580	298.06	1678.99	1.28
0.6027	121580	303.18	1666.63	1.28
0.6027	121580	308.18	1654.69	1.28
0.6027	121580	313.17	1642.86	1.28
0.6027	121580	318.18	1631.28	1.28
0.7016	100	293.14	1173.77	1.04
0.7016	100	298.2	1153.98	1.03
0.7016	100	303.14	1134.54	1.03
0.7016	100	308.21	1114.65	1.02
0.7016	100	313.24	1095.2	1.02
0.7016	100	318.14	1076.19	1.02
0.7016	30400	293.16	1348.55	1.09
0.7016	30400	298.2	1332.13	1.09
0.7016	30400	303.13	1316.24	1.09
0.7016	30400	308.22	1300.01	1.09
0.7016	30400	313.23	1284.35	1.08
0.7016	30400	318.15	1268.94	1.09
0.7016	45590	293.17	1418.34	1.12
0.7016	45590	298.19	1403.04	1.12
0.7016	45590	303.12	1388.19	1.11
0.7016	45590	308.2	1373.07	1.11
0.7016	45590	313.22	1358.44	1.11
0.7016	45590	318.15	1344.09	1.11
0.7016	60790	293.18	1481.64	1.15
0.7016	60790	298.18	1467.23	1.15
0.7016	60790	303.14	1453.14	1.15
0.7016	60790	308.21	1438.85	1.14
0.7016	60790	313.23	1425.1	1.14
0.7016	60790	318.15	1411.6	1.14
0.7016	75990	293.2	1539.77	1.18
0.7016	75990	298.18	1526.04	1.18
0.7016	75990	303.13	1512.67	1.18
0.7016	75990	308.23	1499.11	1.18
0.7016	75990	313.15	1486.29	1.17
0.7016	75990	318.17	1473.2	1.17
0.7016	91190	293.2	1593.66	1.21
0.7016	91190	298.17	1580.65	1.21
0.7016	91190	303.13	1567.84	1.21
0.7016	91190	308.12	1555.15	1.21
0.7016	91190	313.11	1542.71	1.21
0.7016	91190	318.16	1530.16	1.21
0.7016	101320	293.19	1627.5	1.22
0.7016	101320	298.18	1614.88	1.22
0.7016	101320	303.13	1602.48	1.22
0.7016	101320	308.16	1589.96	1.22
0.7016	101320	313.13	1578.01	1.22
0.7016	101320	318.16	1565.92	1.22
0.7016	111450	293.18	1659.94	1.24
0.7016	111450	298.17	1647.59	1.24
0.7016	111450	303.13	1635.61	1.24
0.7016	111450	308.17	1623.43	1.24
0.7016	111450	313.2	1611.62	1.24
0.7016	111450	318.17	1600	1.24
0.7016	121580	293.16	1690.95	1.27
0.7016	121580	298.18	1678.94	1.27
0.7016	121580	303.12	1667.28	1.27
0.7016	121580	308.09	1655.64	1.27
0.7016	121580	313.22	1643.94	1.27
0.7016	121580	318.09	1632.82	1.27
0.7986	100	293.14	1185.85	1.03
0.7986	100	298.17	1166.66	1.03
0.7986	100	303.12	1147.6	1.02
0.7986	100	308.15	1128.43	1.02
0.7986	100	313.08	1109.69	1.01
0.7986	100	318.08	1090.85	1
0.7986	30400	293.12	1355.63	1.08
0.7986	30400	298.15	1339.57	1.08
0.7986	30400	303.12	1324.13	1.08
0.7986	30400	308.13	1308.48	1.08
0.7986	30400	313.16	1293.2	1.08
0.7986	30400	318.13	1277.94	1.08
0.7986	45590	293.12	1424	1.11
0.7986	45590	298.16	1408.88	1.11
0.7986	45590	303.12	1394.45	1.11
0.7986	45590	308.15	1379.82	1.1
0.7986	45590	313.11	1365.68	1.1
0.7986	45590	318.12	1351.38	1.1
0.7986	60790	293.13	1486.08	1.14
0.7986	60790	298.17	1471.77	1.14
0.7986	60790	303.13	1458.07	1.14
0.7986	60790	308.14	1444.4	1.14
0.7986	60790	313.1	1431	1.13
0.7986	60790	318.15	1417.48	1.13
0.7986	75990	293.12	1543.06	1.17
0.7986	75990	298.17	1529.53	1.17
0.7986	75990	303.1	1516.73	1.17
0.7986	75990	308.19	1503.36	1.17
0.7986	75990	313.08	1490.85	1.17
0.7986	75990	318.14	1477.99	1.16
0.7986	91190	293.16	1595.93	1.2
0.7986	91190	298.26	1583	1.2
0.7986	91190	303.1	1570.9	1.2
0.7986	91190	308.2	1558.14	1.2
0.7986	91190	313.11	1546.11	1.2
0.7986	91190	318.16	1533.86	1.2
0.7986	101320	293.17	1629.25	1.22
0.7986	101320	298.25	1616.74	1.21
0.7986	101320	303.09	1604.91	1.21
0.7986	101320	308.14	1592.68	1.21
0.7986	101320	313.11	1580.89	1.21
0.7986	101320	318.11	1569.08	1.21
0.7986	111450	293.14	1661.2	1.23
0.7986	111450	298.13	1649.19	1.23
0.7986	111450	303.12	1637.49	1.23
0.7986	111450	308.11	1625.74	1.23
0.7986	111450	313.12	1614.09	1.23
0.7986	111450	318.13	1602.69	1.23
0.7986	121580	293.11	1691.79	1.26
0.7986	121580	298.2	1679.91	1.26
0.7986	121580	303.11	1668.62	1.26
0.7986	121580	308.09	1657.25	1.26
0.7986	121580	313.1	1645.91	1.26
0.7986	121580	318.14	1634.79	1.26
1	100	293.19	1222.98	1.02
1	100	298.12	1205.93	1.02
1	100	303.12	1188.72	1.01
1	100	308.2	1171.37	1.01
1	100	313.17	1154.51	1.01
1	100	318.2	1137.48	1
1	15200	293.12	1308.47	1.03
1	15200	298.11	1292.86	1.04
1	15200	303.14	1277.31	1.03
1	15200	308.2	1263.59	1.03
1	15200	313.16	1248.7	1.04
1	30400	293.22	1379.93	1.06
1	30400	298.15	1365.6	1.06
1	30400	303.24	1350.89	1.06
1	30400	308.13	1336.85	1.06
1	30400	313.16	1322.58	1.06
1	30400	318.16	1308.73	1.07
1	45590	293.21	1444.18	1.09
1	45590	298.14	1430.65	1.09
1	45590	303.13	1417.04	1.09
1	45590	308.13	1403.65	1.09
1	45590	313.16	1390.41	1.09
1	45590	318.14	1377.4	1.09
1	60790	293.21	1502.84	1.12
1	60790	298.14	1490.03	1.12
1	60790	303.2	1477.02	1.12
1	60790	308.13	1464.46	1.12
1	60790	313.17	1451.85	1.12
1	60790	318.12	1439.64	1.12
1	75990	293.2	1557.22	1.15
1	75990	298.14	1544.87	1.15
1	75990	303.15	1532.53	1.15
1	75990	308.12	1520.4	1.15
1	75990	313.16	1508.49	1.15
1	75990	318.12	1496.85	1.15
1	91190	293.2	1607.57	1.18
1	91190	298.14	1595.85	1.18
1	91190	303.17	1584.03	1.18
1	91190	308.2	1572.36	1.18
1	91190	313.15	1561.08	1.18
1	91190	318.12	1549.89	1.18
1	101320	293.18	1639.47	1.2
1	101320	298.14	1628	1.2
1	101320	303.17	1616.49	1.2
1	101320	308.19	1605.09	1.19
1	101320	313.15	1594.14	1.19
1	101320	318.11	1583.33	1.19
1	111450	293.17	1669.92	1.21
1	111450	298.14	1658.78	1.21
1	111450	303.19	1647.55	1.21
1	111450	308.16	1636.69	1.21
1	111450	313.22	1625.76	1.21
1	111450	318.17	1615.27	1.21
1	121580	293.16	1699.12	1.23
1	121580	298.14	1688.24	1.23
1	121580	303.18	1677.36	1.23
1	121580	308.11	1666.98	1.23
1	121580	313.17	1656.22	1.23
1	121580	318.17	1645.95	1.23
