Measured thermophysical data. Bubble Temperatures of the Binary Mixtures of Dimethylcarbonate with Some Alcohols at 95.8 kPa
Source: J. Chem. Eng. Data, 2004, 10.1021/je030131q
Compound 1: dimethyl carbonate, C3H6O3, InChI=1S/C3H6O3/c1-5-3(4)6-2/h1-2H3
Compound 2: ethanol, C2H6O, InChI=1S/C2H6O/c1-2-3/h3H,2H2,1H3
Compound 3: propan-1-ol, C3H8O, InChI=1S/C3H8O/c1-2-3-4/h4H,2-3H2,1H3
Compound 4: propan-2-ol, C3H8O, InChI=1S/C3H8O/c1-3(2)4/h3-4H,1-2H3
Compound 5: butan-1-ol, C4H10O, InChI=1S/C4H10O/c1-2-3-4-5/h5H,2-4H2,1H3
Compound 6: 2-methyl-1-propanol, C4H10O, InChI=1S/C4H10O/c1-4(2)3-5/h4-5H,3H2,1-2H3
Compound 7: butan-2-ol, C4H10O, InChI=1S/C4H10O/c1-3-4(2)5/h4-5H,3H2,1-2H3
Compound 8: 2-methylpropan-2-ol, C4H10O, InChI=1S/C4H10O/c1-4(2,3)5/h5H,1-3H3

System: dimethyl carbonate; phases: Liquid
Property: Refractive index (Na D-line) (Liquid); method: Standard Abbe refractometry
Temperature, K	Pressure, kPa	Refractive index (Na D-line)	uncertainty
298.15	101.325	1.3537	0.0016

System: dimethyl carbonate; phases: Liquid
Property: Mass density, kg/m3 (Liquid); method: Pycnometric method
Temperature, K	Pressure, kPa	Mass density, kg/m3	uncertainty
298.15	101.325	1071	4

System: dimethyl carbonate; phases: Liquid, Gas
Property: Vapor or sublimation pressure, kPa (Liquid); method: EBULLIO:UFactor:8
Temperature, K	Vapor or sublimation pressure, kPa	uncertainty
361.25	95.8	1.5

System: ethanol; phases: Liquid
Property: Refractive index (Na D-line) (Liquid); method: Standard Abbe refractometry
Temperature, K	Pressure, kPa	Refractive index (Na D-line)	uncertainty
298.15	101.325	1.36	0.0016

System: ethanol; phases: Liquid
Property: Mass density, kg/m3 (Liquid); method: Pycnometric method
Temperature, K	Pressure, kPa	Mass density, kg/m3	uncertainty
298.15	101.325	783.7	1.3

System: propan-1-ol; phases: Liquid
Property: Refractive index (Na D-line) (Liquid); method: Standard Abbe refractometry
Temperature, K	Pressure, kPa	Refractive index (Na D-line)	uncertainty
298.15	101.325	1.3807	0.0016

System: propan-1-ol; phases: Liquid
Property: Mass density, kg/m3 (Liquid); method: Pycnometric method
Temperature, K	Pressure, kPa	Mass density, kg/m3	uncertainty
298.15	101.325	800	1.3

System: propan-1-ol; phases: Liquid, Gas
Property: Vapor or sublimation pressure, kPa (Liquid); method: EBULLIO:UFactor:8
Temperature, K	Vapor or sublimation pressure, kPa	uncertainty
369.95	95.8	1.5

System: propan-2-ol; phases: Liquid
Property: Refractive index (Na D-line) (Liquid); method: Standard Abbe refractometry
Temperature, K	Pressure, kPa	Refractive index (Na D-line)	uncertainty
298.15	101.325	1.38	0.0016

System: propan-2-ol; phases: Liquid
Property: Mass density, kg/m3 (Liquid); method: Pycnometric method
Temperature, K	Pressure, kPa	Mass density, kg/m3	uncertainty
298.15	101.325	780.8	1.3

System: propan-2-ol; phases: Liquid, Gas
Property: Vapor or sublimation pressure, kPa (Liquid); method: EBULLIO:UFactor:8
Temperature, K	Vapor or sublimation pressure, kPa	uncertainty
354.05	95.8	1.5

System: butan-1-ol; phases: Liquid
Property: Refractive index (Na D-line) (Liquid); method: Standard Abbe refractometry
Temperature, K	Pressure, kPa	Refractive index (Na D-line)	uncertainty
298.15	101.325	1.398	0.0016

System: butan-1-ol; phases: Liquid
Property: Mass density, kg/m3 (Liquid); method: Pycnometric method
Temperature, K	Pressure, kPa	Mass density, kg/m3	uncertainty
298.15	101.325	804.9	1.3

System: butan-1-ol; phases: Liquid, Gas
Property: Vapor or sublimation pressure, kPa (Liquid); method: EBULLIO:UFactor:8
Temperature, K	Vapor or sublimation pressure, kPa	uncertainty
389.45	95.8	1.5

System: 2-methyl-1-propanol; phases: Liquid
Property: Refractive index (Na D-line) (Liquid); method: Standard Abbe refractometry
Temperature, K	Pressure, kPa	Refractive index (Na D-line)	uncertainty
298.15	101.325	1.3839	0.0016

System: 2-methyl-1-propanol; phases: Liquid
Property: Mass density, kg/m3 (Liquid); method: Pycnometric method
Temperature, K	Pressure, kPa	Mass density, kg/m3	uncertainty
298.15	101.325	796.8	1.3

System: 2-methyl-1-propanol; phases: Liquid, Gas
Property: Vapor or sublimation pressure, kPa (Liquid); method: EBULLIO:UFactor:8
Temperature, K	Vapor or sublimation pressure, kPa	uncertainty
379.65	95.8	1.5

System: butan-2-ol; phases: Liquid
Property: Refractive index (Na D-line) (Liquid); method: Standard Abbe refractometry
Temperature, K	Pressure, kPa	Refractive index (Na D-line)	uncertainty
298.15	101.325	1.3983	0.0016

System: butan-2-ol; phases: Liquid
Property: Mass density, kg/m3 (Liquid); method: Pycnometric method
Temperature, K	Pressure, kPa	Mass density, kg/m3	uncertainty
298.15	101.325	802	1.3

System: butan-2-ol; phases: Liquid, Gas
Property: Vapor or sublimation pressure, kPa (Liquid); method: EBULLIO:UFactor:8
Temperature, K	Vapor or sublimation pressure, kPa	uncertainty
371.35	95.8	1.5

System: 2-methylpropan-2-ol; phases: Liquid
Property: Refractive index (Na D-line) (Liquid); method: Standard Abbe refractometry
Temperature, K	Pressure, kPa	Refractive index (Na D-line)	uncertainty
298.15	101.325	1.3887	0.0016

System: 2-methylpropan-2-ol; phases: Liquid
Property: Mass density, kg/m3 (Liquid); method: Pycnometric method
Temperature, K	Pressure, kPa	Mass density, kg/m3	uncertainty
298.15	101.325	780.8	1.3

System: 2-methylpropan-2-ol; phases: Liquid, Gas
Property: Vapor or sublimation pressure, kPa (Liquid); method: EBULLIO:UFactor:8
Temperature, K	Vapor or sublimation pressure, kPa	uncertainty
353.15	95.8	28.7

System: ethanol + dimethyl carbonate; phases: Liquid, Gas
Fixed: Pressure, kPa = 95.8
Property: Boiling temperature at pressure P, K (Liquid); method: EBULLIO:UFactor:8
Mole fraction of ethanol	Boiling temperature at pressure P, K	uncertainty
0	361.25	0.32
0.198	348.45	0.32
0.331	347.35	0.32
0.4264	347.05	0.32
0.4978	346.85	0.32
0.5534	346.65	0.32
0.6942	346.85	0.32
0.773	347.05	0.32
0.8739	347.95	0.32
0.9316	348.55	0.32

System: propan-1-ol + dimethyl carbonate; phases: Liquid, Gas
Fixed: Pressure, kPa = 95.8
Property: Boiling temperature at pressure P, K (Liquid); method: EBULLIO:UFactor:8
Mole fraction of dimethyl carbonate	Boiling temperature at pressure P, K	uncertainty
0	369.95	0.32
0.075	364.05	0.32
0.154	362.35	0.32
0.245	361.15	0.32
0.354	360.55	0.32
0.471	360.35	0.32
0.526	359.95	0.32
0.597	359.75	0.32
0.691	359.65	0.32
0.817	360.35	0.32
1	361.25	0.32

System: propan-2-ol + dimethyl carbonate; phases: Liquid, Gas
Fixed: Pressure, kPa = 95.8
Property: Boiling temperature at pressure P, K (Liquid); method: EBULLIO:UFactor:8
Mole fraction of propan-2-ol	Boiling temperature at pressure P, K	uncertainty
0	361.25	0.32
0.1805	354.25	0.32
0.305	352.35	0.32
0.397	351.55	0.32
0.467	351.25	0.32
0.522	350.95	0.32
0.668	350.85	0.32
0.7511	351.05	0.32
0.858	351.75	0.32
0.924	352.45	0.32
1	354.05	0.32

System: butan-1-ol + dimethyl carbonate; phases: Liquid, Gas
Fixed: Pressure, kPa = 95.8
Property: Boiling temperature at pressure P, K (Liquid); method: EBULLIO:UFactor:8
Mole fraction of dimethyl carbonate	Boiling temperature at pressure P, K	uncertainty
0	389.45	0.32
0.091	375.95	0.34
0.1651	372.35	0.32
0.2842	369.05	0.32
0.3721	367.65	0.32
0.4422	366.65	0.32
0.576	364.95	0.32
0.645	364.05	0.32
0.7311	363.15	0.32
0.845	362.05	0.32
1	361.25	0.32

System: 2-methyl-1-propanol + dimethyl carbonate; phases: Liquid, Gas
Fixed: Pressure, kPa = 95.8
Property: Boiling temperature at pressure P, K (Liquid); method: EBULLIO:UFactor:8
Mole fraction of dimethyl carbonate	Boiling temperature at pressure P, K	uncertainty
0	379.65	0.32
0.091	370.95	0.33
0.167	367.95	0.32
0.287	365.25	0.32
0.375	364.05	0.32
0.44	363.45	0.32
0.578	362.35	0.32
0.647	361.85	0.32
0.733	361.45	0.32
0.846	361.05	0.32
1	361.25	0.32

System: butan-2-ol + dimethyl carbonate; phases: Liquid, Gas
Fixed: Pressure, kPa = 95.8
Property: Boiling temperature at pressure P, K (Liquid); method: EBULLIO:UFactor:8
Mole fraction of dimethyl carbonate	Boiling temperature at pressure P, K	uncertainty
0	371.35	0.32
0.091	365.75	0.32
0.166	363.95	0.32
0.265	362.55	0.32
0.3741	361.45	0.32
0.4432	360.95	0.32
0.5781	360.45	0.32
0.646	360.25	0.32
0.7331	360.35	0.32
0.847	360.45	0.32
1	361.25	0.32

System: 2-methylpropan-2-ol + dimethyl carbonate; phases: Liquid, Gas
Fixed: Pressure, kPa = 95.8
Property: Boiling temperature at pressure P, K (Liquid); method: EBULLIO:UFactor:8
Mole fraction of 2-methylpropan-2-ol	Boiling temperature at pressure P, K	uncertainty
0	361.25	0.32
0.151	355.95	0.32
0.263	353.95	0.32
0.343	353.05	0.32
0.4162	352.35	0.32
0.551	351.95	0.32
0.62	351.85	0.32
0.7101	351.95	0.32
0.8302	352.35	0.32
0.9072	352.95	0.32
1	353.15	3
