Measured thermophysical data. Surface Tension and Interfacial Tension of Binary Organic Liquid Mixtures
Source: J. Chem. Eng. Data, 2003, 10.1021/je034062r
Compound 1: cyclohexane, C6H12, InChI=1S/C6H12/c1-2-4-6-5-3-1/h1-6H2, purity 99.5%
Compound 2: dimethylformamide, C3H7NO, InChI=1S/C3H7NO/c1-4(2)3-5/h3H,1-2H3, purity 99.5%
Compound 3: heptane, C7H16, InChI=1S/C7H16/c1-3-5-7-6-4-2/h3-7H2,1-2H3, purity 99%
Compound 4: decane, C10H22, InChI=1S/C10H22/c1-3-5-7-9-10-8-6-4-2/h3-10H2,1-2H3, purity 99.5%
Compound 5: acetone, C3H6O, InChI=1S/C3H6O/c1-3(2)4/h1-2H3, purity 99.5%
Compound 6: toluene, C7H8, InChI=1S/C7H8/c1-7-5-3-2-4-6-7/h2-6H,1H3, purity 99.5%
Compound 7: N-methylpyrrolidone, C5H9NO, InChI=1S/C5H9NO/c1-6-4-2-3-5(6)7/h2-4H2,1H3, purity 99.5%

System: cyclohexane + heptane; phases: Liquid, Air at 1 atmosphere
Property: Surface tension liquid-gas, N/m (Liquid); method: Pendant drop shape
Temperature, K	Mole fraction of cyclohexane	Surface tension liquid-gas, N/m	uncertainty
287.81	0	0.0207	0.00026
287.81	0.1022	0.02091	0.00026
287.81	0.2022	0.02131	0.00026
287.81	0.3078	0.02165	0.00026
287.81	0.401	0.02188	0.00026
287.81	0.4984	0.02227	0.00027
287.81	0.6002	0.02262	0.00027
287.81	0.7003	0.02308	0.00027
287.81	0.8054	0.02384	0.00028
287.81	0.898	0.02439	0.00029
287.81	1	0.02534	0.00028
297.82	0	0.01963	0.00025
297.82	0.1022	0.01995	0.00025
297.82	0.2022	0.02025	0.00025
297.82	0.3078	0.02052	0.00026
297.82	0.401	0.0209	0.00026
297.82	0.4984	0.02121	0.00026
297.82	0.6002	0.02157	0.00026
297.82	0.7003	0.02214	0.00027
297.82	0.8054	0.02272	0.00027
297.82	0.898	0.02332	0.00028
297.82	1	0.0242	0.00027
307.86	0	0.01868	0.00024
307.86	0.1022	0.01891	0.00025
307.86	0.2022	0.01925	0.00025
307.86	0.3078	0.01958	0.00025
307.86	0.401	0.01987	0.00025
307.86	0.4984	0.02019	0.00025
307.86	0.6002	0.02053	0.00025
307.86	0.7003	0.02106	0.00026
307.86	0.8054	0.02164	0.00026
307.86	0.898	0.02218	0.00027
307.86	1	0.02302	0.00026
317.86	0	0.01776	0.00024
317.86	0.1022	0.01791	0.00024
317.86	0.2022	0.01836	0.00024
317.86	0.3078	0.01853	0.00024
317.86	0.401	0.01882	0.00024
317.86	0.4984	0.01916	0.00024
317.86	0.6002	0.01955	0.00025
317.86	0.7003	0.02001	0.00025
317.86	0.8054	0.02056	0.00025
317.86	0.898	0.02107	0.00026
317.86	1	0.02184	0.00025
327.88	0	0.01668	0.00023
327.88	0.1022	0.01683	0.00023
327.88	0.2022	0.01705	0.00023
327.88	0.3078	0.01741	0.00023
327.88	0.401	0.01752	0.00023
327.88	0.4984	0.01799	0.00024
327.88	0.6002	0.01844	0.00024
327.88	0.7003	0.01895	0.00024
327.88	0.8054	0.01948	0.00024
327.88	0.898	0.01998	0.00025
327.88	1	0.02071	0.00024

System: cyclohexane + heptane; phases: Liquid, Air at 1 atmosphere
Property: Mass density, kg/m3 (Liquid); method: VIBTUB:UFactor:4
Temperature, K	Mole fraction of cyclohexane	Mass density, kg/m3	uncertainty
283.15	0	692.2	0.7
283.15	0.1022	699.2	1
283.15	0.2022	706.5	1
283.15	0.3078	714.6	1
283.15	0.401	722.3	1.1
283.15	0.4984	730.8	0.8
283.15	0.7003	750.8	1.5
283.15	0.8054	761.5	1.3
283.15	0.898	774.2	1.5
283.15	1	787.9	0.5
288.15	0	688	0.7
288.15	0.1022	695	1
288.15	0.2022	702.2	1
288.15	0.3078	710.4	1
288.15	0.401	717.9	1.1
288.15	0.4984	726.5	0.9
288.15	0.7003	746.4	1.4
288.15	0.8054	758	1.3
288.15	0.898	769.7	1.4
288.15	1	783.2	0.5
293.15	0	683.8	0.7
293.15	0.1022	690.8	1
293.15	0.2022	698	1
293.15	0.3078	706.1	1
293.15	0.401	713.6	1.1
293.15	0.4984	722.2	1
293.15	0.6002	728.8	10
293.15	0.7003	742	1.3
293.15	0.8054	753.5	1.3
293.15	0.898	765.1	1.4
293.15	1	778.6	0.5
298.15	0	679.5	0.7
298.15	0.1022	686.5	1
298.15	0.2022	693.6	1
298.15	0.3078	701.7	1
298.15	0.401	709.2	1.1
298.15	0.4984	717.8	1
298.15	0.6002	725.6	10
298.15	0.7003	737.5	1.3
298.15	0.8054	749	1.3
298.15	0.898	760.5	1.4
298.15	1	773.9	0.5
303.15	0	675.2	0.7
303.15	0.1022	682.2	1
303.15	0.2022	689.3	1
303.15	0.3078	697.4	1
303.15	0.401	704.8	1.1
303.15	0.4984	713.3	1.1
303.15	0.6002	722	10
303.15	0.7003	733	1.2
303.15	0.8054	744.4	1.3
303.15	0.898	755.8	1.4
303.15	1	769.2	0.5
308.15	0	670.9	0.7
308.15	0.1022	677.8	1
308.15	0.2022	685	1
308.15	0.3078	693	1
308.15	0.401	700.4	1.1
308.15	0.4984	708.9	1.1
308.15	0.6002	718.1	10
308.15	0.7003	728.4	1.2
308.15	0.8054	739.8	1.3
308.15	0.898	751.2	1.4
308.15	1	764.4	0.5
313.15	0	666.5	0.7
313.15	0.1022	673.5	1
313.15	0.2022	680.6	1
313.15	0.3078	688.6	1
313.15	0.401	696	1.1
313.15	0.4984	704.4	1.1
313.15	0.6002	713.8	10
313.15	0.7003	723.9	1.2
313.15	0.8054	735.2	1.3
313.15	0.898	746.5	1.4
313.15	1	759.6	0.5
318.15	0	662.1	0.7
318.15	0.1022	669	1
318.15	0.2022	676.1	1
318.15	0.3078	684.1	1
318.15	0.401	691.5	1.1
318.15	0.4984	699.9	1.1
318.15	0.6002	709.3	10
318.15	0.7003	719.3	1.2
318.15	0.8054	730.6	1.3
318.15	0.898	741.8	1.4
318.15	1	754.8	0.5
323.15	0	657.7	0.7
323.15	0.1022	664.6	1
323.15	0.2022	671.7	1
323.15	0.3078	679.6	1
323.15	0.401	686.9	1.1
323.15	0.4984	695.4	1.1
323.15	0.6002	704.7	10
323.15	0.7003	714.7	1.2
323.15	0.8054	725.9	1.3
323.15	0.898	737.1	1.4
323.15	1	750	0.5
328.15	0	653.2	0.7
328.15	0.1022	660.1	1
328.15	0.2022	667.2	1
328.15	0.3078	675.1	1
328.15	0.401	682.4	1.1
328.15	0.4984	691	1.1
328.15	0.6002	700.1	10
328.15	0.7003	710	1.2
328.15	0.8054	721.2	1.3
328.15	0.898	732.3	1.4
328.15	1	745.2	0.6
333.15	0	648.7	0.7
333.15	0.1022	655.5	1
333.15	0.3078	670.5	1
333.15	0.401	677.8	1.1
333.15	0.4984	686.2	1.1
333.15	0.6002	695.5	10
333.15	0.7003	705.3	1.2
333.15	0.8054	716.5	1.3
333.15	0.898	727.5	1.4
333.15	1	740.3	0.6

System: acetone + cyclohexane; phases: Liquid, Air at 1 atmosphere
Property: Surface tension liquid-gas, N/m (Liquid); method: Pendant drop shape
Temperature, K	Mole fraction of cyclohexane	Surface tension liquid-gas, N/m	uncertainty
287.81	0	0.02394	
287.81	0.1002	0.02354	
287.81	0.2001	0.02319	
287.81	0.2993	0.02323	
287.81	0.3979	0.02333	
287.81	0.4964	0.02358	
287.81	0.6	0.02391	
287.81	0.6975	0.02431	
287.81	0.7993	0.02469	
287.81	0.8994	0.02512	
287.81	1	0.02534	
297.82	0	0.02278	
297.82	0.1002	0.02225	
297.82	0.2001	0.02202	
297.82	0.2993	0.02202	
297.82	0.3979	0.02208	
297.82	0.4964	0.02222	
297.82	0.6	0.02253	
297.82	0.6975	0.02284	
297.82	0.7993	0.02324	
297.82	0.8994	0.02382	
297.82	1	0.0242	
307.86	0	0.02159	
307.86	0.1002	0.02103	
307.86	0.2001	0.02078	
307.86	0.2993	0.02082	
307.86	0.3979	0.02089	
307.86	0.4964	0.02114	
307.86	0.6	0.02135	
307.86	0.6975	0.0216	
307.86	0.7993	0.02208	
307.86	0.8994	0.02258	
307.86	1	0.02302	
317.86	0	0.02033	
317.86	0.1002	0.01991	
317.86	0.2001	0.01963	
317.86	0.2993	0.01963	
317.86	0.3979	0.0197	
317.86	0.4964	0.02	
317.86	0.6	0.0203	
317.86	0.6975	0.02056	
317.86	0.7993	0.02104	
317.86	0.8994	0.02146	
317.86	1	0.02184	

System: acetone + cyclohexane; phases: Liquid, Air at 1 atmosphere
Property: Mass density, kg/m3 (Liquid); method: VIBTUB:UFactor:8
Temperature, K	Mole fraction of cyclohexane	Mass density, kg/m3	uncertainty
288.15	0	798.2	0.9
288.15	0.1002	790	1.1
288.15	0.2001	786.6	1
288.15	0.2993	783.2	1
288.15	0.3979	781.1	1
288.15	0.4964	779.7	1
288.15	0.6	778.9	1
288.15	0.6975	778.9	1
288.15	0.7993	779.4	1
288.15	0.8994	780.7	1
288.15	1	783.2	0.9
298.15	0	787	0.9
298.15	0.1002	779.7	1.1
298.15	0.2001	775.3	1
298.15	0.2993	772.3	1
298.15	0.3979	769.7	1
298.15	0.4964	769.2	1
298.15	0.6	768.6	1
298.15	0.6975	768.7	1
298.15	0.7993	769.5	1
298.15	0.8994	771.1	1
298.15	1	773.9	1
308.15	0	775.4	1
308.15	0.1002	768.4	1.1
308.15	0.2001	764.2	1.1
308.15	0.2993	761.4	1
308.15	0.3979	759.6	1
308.15	0.4964	758.6	1
308.15	0.6	758.2	1
308.15	0.6975	759.9	1
308.15	0.7993	759.6	1
308.15	0.8994	761.4	1
308.15	1	764.4	1
318.15	0	762.5	1
318.15	0.1002	756.9	1.1
318.15	0.2001	753	1.1
318.15	0.2993	750.2	1.1
318.15	0.3979	748.6	1.1
318.15	0.4964	747.8	1
318.15	0.6	747.6	1
318.15	0.6975	748.3	1.1
318.15	0.7993	749.6	1.1
318.15	0.8994	751.6	1.1
318.15	1	754.8	1

System: acetone + toluene; phases: Liquid, Air at 1 atmosphere
Property: Surface tension liquid-gas, N/m (Liquid); method: Pendant drop shape
Temperature, K	Mole fraction of toluene	Surface tension liquid-gas, N/m	uncertainty
287.81	0	0.02394	0.00027
287.81	0.1	0.02456	0.00027
287.81	0.2002	0.02524	0.00028
287.81	0.3002	0.02589	0.00029
287.81	0.3997	0.02646	0.00029
287.81	0.4973	0.0271	0.0003
287.81	0.6011	0.02768	0.0003
287.81	0.7004	0.02824	0.0003
287.81	0.7998	0.02848	0.00031
287.81	0.8982	0.02873	0.00031
287.81	1	0.02893	0.00031
297.82	0	0.02278	0.00026
297.82	0.1	0.02328	0.00026
297.82	0.2002	0.02378	0.00027
297.82	0.3002	0.02436	0.00027
297.82	0.3997	0.02493	0.00028
297.82	0.4973	0.02555	0.00028
297.82	0.6011	0.026	0.00029
297.82	0.7004	0.0265	0.00029
297.82	0.7998	0.0271	0.0003
297.82	0.8982	0.02733	0.0003
297.82	1	0.02776	0.0003
307.86	0	0.02159	0.00025
307.86	0.1	0.02208	0.00025
307.86	0.2002	0.02258	0.00026
307.86	0.3002	0.0231	0.00026
307.86	0.3997	0.02377	0.00027
307.86	0.4973	0.0244	0.00027
307.86	0.6011	0.025	0.00028
307.86	0.7004	0.0254	0.00028
307.86	0.7998	0.026	0.00029
307.86	0.8982	0.02624	0.00029
307.86	1	0.0266	0.00029
317.86	0	0.02033	0.00024
317.86	0.1	0.0209	0.00025
317.86	0.2002	0.02144	0.00025
317.86	0.3002	0.02218	0.00026
317.86	0.3997	0.02267	0.00026
317.86	0.4973	0.02325	0.00026
317.86	0.6011	0.02411	0.00027
317.86	0.7004	0.0244	0.00027
317.86	0.7998	0.02499	0.00028
317.86	0.8982	0.0252	0.00028
317.86	1	0.02546	0.00028
327.88	0	0.01901	0.00023
327.88	0.1	0.01974	0.00024
327.88	0.2002	0.02032	0.00024
327.88	0.3002	0.02107	0.00025
327.88	0.3997	0.0218	0.00025
327.88	0.4973	0.0222	0.00026
327.88	0.6011	0.02297	0.00026
327.88	0.7004	0.02356	0.00027
327.88	0.7998	0.02383	0.00027
327.88	0.8982	0.02414	0.00027
327.88	1	0.02429	0.00027

System: acetone + toluene; phases: Liquid, Air at 1 atmosphere
Property: Mass density, kg/m3 (Liquid); method: VIBTUB:UFactor:16
Temperature, K	Mole fraction of toluene	Mass density, kg/m3	uncertainty
283.15	0	803.2	1.7
283.15	0.1	815.1	1.7
283.15	0.2002	823.5	1.6
283.15	0.3002	832.2	1.6
283.15	0.3997	841.2	1.5
283.15	0.4973	847.6	1.5
283.15	0.6011	854.7	1.4
283.15	0.7004	860.8	1.4
283.15	0.7998	866.4	1.3
283.15	0.8982	871.5	1.3
283.15	1	875.9	1.3
288.15	0	798.2	1.8
288.15	0.1	809.8	1.7
288.15	0.2002	818.2	1.6
288.15	0.3002	826.8	1.6
288.15	0.3997	836.1	1.5
288.15	0.4973	842.6	1.5
288.15	0.6011	849.9	1.4
288.15	0.7004	856	1.4
288.15	0.7998	861.7	1.4
288.15	0.8982	866.9	1.3
288.15	1	871.4	1.3
293.15	0	792.6	1.8
293.15	0.1	804.2	1.7
293.15	0.2002	812.5	1.7
293.15	0.3002	821.4	1.6
293.15	0.3997	830.7	1.6
293.15	0.4973	837.3	1.5
293.15	0.6011	844.6	1.5
293.15	0.7004	850.9	1.4
293.15	0.7998	856.6	1.4
293.15	0.8982	861.9	1.4
293.15	1	866.9	1.3
298.15	0	787	1.8
298.15	0.1	798.8	1.8
298.15	0.2002	807.1	1.7
298.15	0.3002	816.1	1.7
298.15	0.3997	825.6	1.6
298.15	0.4973	832.3	1.6
298.15	0.6011	839.7	1.5
298.15	0.7004	846.1	1.5
298.15	0.7998	851.9	1.4
298.15	0.8982	857.3	1.4
298.15	1	862.4	1.4
303.15	0	781.2	1.9
303.15	0.1	793.3	1.8
303.15	0.2002	801.6	1.7
303.15	0.3002	810.8	1.7
303.15	0.3997	820.4	1.6
303.15	0.4973	827.2	1.6
303.15	0.6011	834.7	1.5
303.15	0.7004	841.3	1.5
303.15	0.7998	847.2	1.5
303.15	0.8982	852.6	1.4
303.15	1	857.8	1.4
308.15	0	775.4	1.9
308.15	0.1	787.7	1.8
308.15	0.3002	805.5	1.7
308.15	0.3997	815.1	1.7
308.15	0.4973	822.1	1.6
308.15	0.6011	829.7	1.6
308.15	0.7004	836.4	1.5
308.15	0.7998	842.4	1.5
308.15	0.8982	847.9	1.5
308.15	1	853.2	1.4
313.15	0	769.6	1.9
313.15	0.1	782	1.9
313.15	0.2002	790.4	1.8
313.15	0.3002	800.1	1.7
313.15	0.3997	809.7	1.7
313.15	0.4973	816.9	1.6
313.15	0.6011	824.7	1.6
313.15	0.7004	831.4	1.6
313.15	0.7998	837.6	1.5
313.15	0.8982	843.2	1.5
313.15	1	848.6	1.5
318.15	0	762.5	2
318.15	0.1	776.2	1.9
318.15	0.2002	784.6	1.8
318.15	0.3002	794.6	1.8
318.15	0.3997	804.2	1.7
318.15	0.4973	811.6	1.7
318.15	0.6011	819.5	1.6
318.15	0.7004	826.4	1.6
318.15	0.7998	832.7	1.5
318.15	0.8982	838.4	1.5
318.15	1	843.9	1.5
323.15	0	756.2	2
323.15	0.1	770.2	1.9
323.15	0.2002	778.9	1.9
323.15	0.3002	789.1	1.8
323.15	0.3997	798.6	1.8
323.15	0.4973	806.3	1.7
323.15	0.6011	814.4	1.7
323.15	0.7998	827.7	1.6
323.15	0.8982	833.6	1.5
323.15	1	839.2	1.5
328.15	0	749.3	2.1
328.15	0.1	764	2
328.15	0.2002	773.2	1.9
328.15	0.3002	783.5	1.9
328.15	0.3997	792.9	1.8
328.15	0.4973	801	1.7
328.15	0.6011	809.2	1.7
328.15	0.7004	816.3	1.6
328.15	0.7998	822.8	1.6
328.15	0.8982	828.7	1.6
328.15	1	834.5	1.5
333.15	0	742.3	2.1
333.15	0.1	757.3	2
333.15	0.2002	767.5	2
333.15	0.3002	778.1	1.9
333.15	0.3997	787.3	1.8
333.15	0.4973	795.6	1.8
333.15	0.6011	803.9	1.7
333.15	0.7004	811.2	1.7
333.15	0.7998	817.8	1.6
333.15	0.8982	823.8	1.6
333.15	1	829.8	1.6

System: heptane + N-methylpyrrolidone; phases: Liquid mixture 1, Liquid mixture 2
Fixed: Pressure, kPa = 101.3
Property: Interfacial tension, N/m (Liquid mixture 1); method: OTHER
Temperature, K	Interfacial tension, N/m	uncertainty
297.76	0.001202	0.00012
302.78	0.00093	9.3e-05
307.81	0.00068	6.8e-05
312.84	0.00045	4.5e-05
317.79	0.00024	2.4e-05
320.65	0.000137	1.6e-05
322.8	7.9e-05	1.6e-05
323.75	5.5e-05	1.6e-05
324.8	3.3e-05	1.6e-05
325.43	1.9e-05	1.6e-05
325.81	1.2e-05	1.6e-05
326.1	9e-06	1.6e-05

System: heptane + N-methylpyrrolidone; phases: Liquid mixture 1, Liquid mixture 2, Air at 1 atmosphere
Property: Mass density, kg/m3 (Liquid mixture 1); method: BUOYAN:UFactor:64
Temperature, K	Mass density, kg/m3	uncertainty
293.16	971.7	7.4
298.15	962.1	7.3
298.19	958.7	7.3
303.15	948.8	7.2
303.16	946	7.2
308.13	932.9	7.1
308.15	935.19	7.11
313.08	917.1	7
313.16	914.9	7
318.05	898.6	6.8
318.15	894.4	6.8
322.49	875.3	6.7
323.26	863.4	6.6
324.25	854.4	6.5
325.25	842	6.4
325.35	839.7	6.4
325.45	838.9	6.4
325.45	842.8	6.4
325.46	844.8	6.4
325.55	839.8	6.4
325.65	839.2	6.4
326.31	827.9	6.4
326.4	815.4	6.2
326.4	822.3	6.3
326.48	819.5	6.3
326.49	828.4	6.4

System: heptane + N-methylpyrrolidone; phases: Liquid mixture 2, Liquid mixture 1, Air at 1 atmosphere
Property: Mass density, kg/m3 (Liquid mixture 2); method: BUOYAN:UFactor:64
Temperature, K	Mass density, kg/m3	uncertainty
293.16	705.23	5.4
298.15	707.83	5.42
298.19	707	5.4
303.15	709.5	5.4
303.16	705.9	5.4
308.13	708	5.4
308.15	711.2	5.4
313.08	714.3	5.5
313.16	714.6	5.5
318.05	720.3	5.5
318.15	722.7	5.5
322.49	732.3	5.6
323.26	739.4	5.7
324.25	745.7	5.7
325.25	755	5.8
325.35	756.8	5.8
325.45	757.5	5.8
325.45	754.3	5.8
325.46	752.3	5.8
325.55	756.6	5.8
325.65	757.1	5.8
326.31	765.4	5.9
326.4	774.2	5.9
326.4	765	6
326.48	767.9	5.9
326.49	767.5	5.9

System: dimethylformamide + decane; phases: Liquid mixture 1, Liquid mixture 2
Fixed: Pressure, kPa = 101.3
Property: Interfacial tension, N/m (Liquid mixture 1); method: OTHER
Temperature, K	Interfacial tension, N/m	uncertainty
292.78	0.00378	0.000378
297.77	0.00341	0.000341
302.79	0.0031	0.00031
307.81	0.00272	0.000272
312.79	0.0024	0.00024
317.8	0.00209	0.000209
322.78	0.00182	0.000182
327.81	0.00153	0.000153
332.81	0.00124	0.000124
337.76	0.00095	9.5e-05
342.78	0.00069	6.9e-05
346.8	0.00048	4.8e-05
348.32	0.00037	3.7e-05
350.11	0.00032	3.2e-05
352.77	0.00019	1.9e-05
353.65	0.00015	1.6e-05
354.76	0.000105	1.6e-05
355.31	8.3e-05	1.6e-05
355.62	7e-05	1.6e-05
356.15	5.6e-05	1.6e-05
356.72	3.5e-05	1.6e-05
357.15	1.9e-05	1.6e-05
357.45	1.2e-05	1.6e-05

System: dimethylformamide + decane; phases: Liquid mixture 1, Liquid mixture 2, Air at 1 atmosphere
Property: Mass density, kg/m3 (Liquid mixture 1); method: BUOYAN:UFactor:32
Temperature, K	Mass density, kg/m3	uncertainty
298.16	731.5	2.8
303.15	728.3	2.8
308.15	726	2.8
313.15	723.8	2.8
318.16	721.7	2.8
323.16	719.4	2.8
328.15	718	2.8
333.15	716.3	2.7
338.15	716.2	2.7
340.66	716.6	2.7
343.15	717	2.7
345.65	717.7	2.7
348.15	719	2.8
348.16	719	2.8
350.66	721	2.8
350.66	721	2.8
353.15	724.8	2.8
354.15	726.9	2.8
355.15	729.5	2.8
356.16	733.3	2.8
357.16	739.7	2.8
357.65	744.9	2.9
357.75	746.2	2.9
357.85	746.3	2.9
357.96	749.1	2.9

System: dimethylformamide + decane; phases: Liquid mixture 2, Liquid mixture 1, Air at 1 atmosphere
Property: Mass density, kg/m3 (Liquid mixture 2); method: BUOYAN:UFactor:32
Temperature, K	Mass density, kg/m3	uncertainty
298.16	925.6	3.5
303.15	918.8	3.5
308.15	911.8	3.5
313.15	904.6	3.4
318.16	897	3.4
323.16	889	3.4
328.15	880.5	3.4
333.15	871.2	3.3
338.15	861.4	3.3
340.66	855.7	3.3
343.15	849.6	3.2
345.65	842.9	3.2
348.15	836.2	3.2
348.16	835.7	3.2
350.66	827.4	3.2
350.66	828	3.2
353.15	817.7	3.1
354.15	813.4	3.1
355.15	807.8	3.1
356.16	801.5	3.1
357.16	792.6	3
357.65	785.6	3
357.75	784.1	3
357.85	784	3
357.96	780.9	3

System: dimethylformamide + heptane; phases: Liquid mixture 1, Liquid mixture 2
Fixed: Pressure, kPa = 101.3
Property: Interfacial tension, N/m (Liquid mixture 1); method: OTHER
Temperature, K	Interfacial tension, N/m	uncertainty
297.83	0.00249	0.00012
302.83	0.00219	0.00011
307.85	0.00187	9e-05
312.85	0.00159	8e-05
317.86	0.00126	6e-05
322.86	0.00093	4.7e-05
327.88	0.00066	3.3e-05
332.88	0.00042	2.1e-05
334.87	0.000302	1.6e-05
336.86	0.000213	1.6e-05
337.88	0.000169	1.6e-05
338.88	0.000122	1.6e-05
339.87	8.6e-05	1.6e-05
340.87	4.2e-05	1.6e-05
341.25	3.2e-05	1.6e-05
341.88	2e-05	1.6e-05
342.18	1.1e-05	1.6e-05

System: dimethylformamide + heptane; phases: Liquid mixture 1, Liquid mixture 2, Air at 1 atmosphere
Property: Mass density, kg/m3 (Liquid mixture 1); method: BUOYAN:UFactor:64
Temperature, K	Mass density, kg/m3	uncertainty
298.21	689.3	5.3
303.17	686.3	5.3
308.12	684.4	5.2
313.1	683.1	5.2
318.05	679.9	5.2
323.02	682	5.2
332.94	685.7	5.3
335.41	688.4	5.3
337.89	693.2	5.3
338.89	695.6	5.3
339.89	699.5	5.4
340.36	700.5	5.4
340.48	702.3	5.4
340.48	700.8	5.4
340.87	704.3	5.4
340.88	702.3	5.4
340.88	703	5.4
341.18	704.4	5.4
341.46	705.9	5.4
341.46	705.3	5.4
341.85	705.6	5.4
341.95	708.5	5.4
342.05	708.2	5.4
342.16	710.3	5.4
342.16	710.9	5.4
342.25	712.5	5.5
342.25	712.3	5.5
342.35	717.1	5.5
342.4	719	5.5
342.45	720.2	5.5
342.51	721.8	5.5
342.56	719.6	5.5
342.6	725.8	5.6
342.64	725.3	5.6
342.64	725.4	5.6

System: dimethylformamide + heptane; phases: Liquid mixture 2, Liquid mixture 1, Air at 1 atmosphere
Property: Mass density, kg/m3 (Liquid mixture 2); method: BUOYAN:UFactor:64
Temperature, K	Mass density, kg/m3	uncertainty
298.21	906	6.9
303.17	897.3	6.8
308.12	888.3	6.8
313.1	878.5	6.7
318.05	867.9	6.6
323.02	855.7	6.5
332.94	825.6	6.3
335.41	815.8	6.2
337.89	805.2	6.1
338.89	799.4	6.1
339.89	792.8	6.1
340.36	788.4	6
340.48	787.7	6
340.48	787.7	6
340.87	784.9	6
340.88	783.8	6
340.88	783.8	6
341.18	780.8	6
341.46	777.1	5.9
341.46	777.1	5.9
341.85	780.2	6
341.95	778.4	5.9
342.05	776.7	5.9
342.16	774.9	5.9
342.16	775.5	5.9
342.25	773.5	5.9
342.25	773.5	5.9
342.35	767.2	5.9
342.4	765.9	5.9
342.45	764.4	5.8
342.51	761.7	5.8
342.56	758.6	5.8
342.6	755.8	5.8
342.64	750.6	5.8
342.64	750.6	5.8
