Measured thermophysical data. Vapor-Liquid Equilibrium of Durene in Methanol or Ethanol
Source: J. Chem. Eng. Data, 2004, 10.1021/je034227w
Compound 1: 1,2,4,5-tetramethylbenzene, C10H14, InChI=1S/C10H14/c1-7-5-9(3)10(4)6-8(7)2/h5-6H,1-4H3, purity 98%
Compound 2: methanol, CH4O, InChI=1S/CH4O/c1-2/h2H,1H3
Compound 3: ethanol, C2H6O, InChI=1S/C2H6O/c1-2-3/h3H,2H2,1H3

System: methanol; phases: Liquid, Gas
Property: Normal boiling temperature, K (Liquid); method: EBULLIO:UFactor:8
Normal boiling temperature, K	uncertainty
337.67	0.03

System: methanol; phases: Liquid
Property: Mass density, kg/m3 (Liquid); method: UNKNOWN
Temperature, K	Pressure, kPa	Mass density, kg/m3	uncertainty
298.15	101.325	786.5	5

System: ethanol; phases: Liquid, Gas
Property: Normal boiling temperature, K (Liquid); method: EBULLIO:UFactor:8
Normal boiling temperature, K	uncertainty
351.46	0.03

System: ethanol; phases: Liquid
Property: Mass density, kg/m3 (Liquid); method: UNKNOWN
Temperature, K	Pressure, kPa	Mass density, kg/m3	uncertainty
298.15	101.325	785.1	5

System: methanol + 1,2,4,5-tetramethylbenzene; phases: Liquid, Gas
Property: Vapor or sublimation pressure, kPa (Liquid); method: Ebulliometric method (Recirculating still)
Mole fraction of 1,2,4,5-tetramethylbenzene	Temperature, K	Vapor or sublimation pressure, kPa	uncertainty
0.001955	336.89	98.31	0.18
0.003911	336.92	98.36	0.16
0.006144	337	98.33	0.17
0.008112	337.01	98.13	0.18

System: methanol + 1,2,4,5-tetramethylbenzene; phases: Gas, Liquid
Property: Mole fraction of 1,2,4,5-tetramethylbenzene (Gas); method: OTHER
Mole fraction of 1,2,4,5-tetramethylbenzene	Temperature, K	Mole fraction of 1,2,4,5-tetramethylbenzene	uncertainty
0.001955	336.89	0.000345	2e-06
0.003911	336.92	0.000708	3.8e-05
0.006144	337	0.001036	1.5e-05
0.008112	337.01	0.00137	5e-06

System: ethanol + 1,2,4,5-tetramethylbenzene; phases: Liquid, Gas
Property: Vapor or sublimation pressure, kPa (Liquid); method: Ebulliometric method (Recirculating still)
Mole fraction of 1,2,4,5-tetramethylbenzene	Temperature, K	Vapor or sublimation pressure, kPa	uncertainty
0.002283	350.69	98.39	0.18
0.00447	350.71	98.34	0.18
0.006396	350.71	98.21	0.16
0.008492	350.72	98.08	0.16

System: ethanol + 1,2,4,5-tetramethylbenzene; phases: Gas, Liquid
Property: Mole fraction of 1,2,4,5-tetramethylbenzene (Gas); method: OTHER
Mole fraction of 1,2,4,5-tetramethylbenzene	Temperature, K	Mole fraction of 1,2,4,5-tetramethylbenzene	uncertainty
0.002283	350.69	0.000378	2e-06
0.00447	350.71	0.000741	5.3e-05
0.006396	350.71	0.001014	7.2e-05
0.008492	350.72	0.001347	7.2e-05
