Measured thermophysical data. Volumetric Properties of Binary Tetraethylene Glycol Dimethyl Ether + Heptane Mixtures between (278.15 and 353.15) K and up to 25 MPa
Source: J. Chem. Eng. Data, 2003, 10.1021/je034056v
Compound 1: heptane, C7H16, InChI=1S/C7H16/c1-3-5-7-6-4-2/h3-7H2,1-2H3
Compound 2: 2,5,8,11,14-pentaoxapentadecane, C10H22O5, InChI=1S/C10H22O5/c1-11-3-5-13-7-9-15-10-8-14-6-4-12-2/h3-10H2,1-2H3

System: heptane; phases: Liquid
Property: Mass density, kg/m3 (Liquid); method: Vibrating tube method
Pressure, kPa	Temperature, K	Mass density, kg/m3	uncertainty
100	278.15	696.3	0.2
100	283.15	692.1	0.2
100	293.15	683.7	0.3
100	303.15	675.3	0.3
100	313.15	666.6	0.3
100	323.15	657.6	0.3
100	333.15	648.9	0.3
100	343.15	639.8	0.3
100	353.15	630.6	0.3
1000	278.15	697	0.3
1000	283.15	692.9	0.3
1000	293.15	684.6	0.3
1000	303.15	676.2	0.3
1000	313.15	667.6	0.3
1000	323.15	658.7	0.3
1000	333.15	650	0.3
1000	343.15	641.1	0.3
1000	353.15	632	0.3
2500	278.15	698.3	0.3
2500	283.15	694.2	0.3
2500	293.15	685.9	0.3
2500	303.15	677.7	0.3
2500	313.15	669.1	0.3
2500	323.15	660.4	0.3
2500	333.15	651.8	0.3
2500	343.15	643.1	0.3
2500	353.15	634.2	0.3
5000	278.15	700.3	0.3
5000	283.15	696.3	0.3
5000	293.15	688.2	0.3
5000	303.15	680.1	0.3
5000	313.15	671.7	0.3
5000	323.15	663.1	0.3
5000	333.15	654.8	0.3
5000	343.15	646.3	0.3
5000	353.15	637.8	0.3
7500	278.15	702.3	0.3
7500	283.15	698.3	0.3
7500	293.15	690.4	0.3
7500	303.15	682.4	0.3
7500	313.15	674.2	0.3
7500	323.15	665.8	0.3
7500	333.15	657.6	0.3
7500	343.15	649.4	0.3
7500	353.15	641.1	0.3
10000	278.15	704.2	0.3
10000	283.15	700.2	0.3
10000	293.15	692.5	0.3
10000	303.15	684.7	0.3
10000	313.15	676.6	0.3
10000	323.15	668.4	0.3
10000	333.15	660.4	0.3
10000	343.15	652.4	0.3
10000	353.15	644.3	0.4
15000	278.15	707.9	0.4
15000	283.15	704	0.4
15000	293.15	696.6	0.4
15000	303.15	689	0.4
15000	313.15	681.2	0.4
15000	323.15	673.3	0.4
15000	333.15	665.6	0.4
15000	343.15	658	0.4
15000	353.15	650.3	0.4
20000	278.15	711.4	0.4
20000	283.15	707.6	0.4
20000	293.15	700.4	0.4
20000	303.15	693	0.4
20000	313.15	685.5	0.4
20000	323.15	677.9	0.4
20000	333.15	670.4	0.5
20000	343.15	663.1	0.5
20000	353.15	655.7	0.5
25000	278.15	714.7	0.5
25000	283.15	711.1	0.5
25000	293.15	703.9	0.5
25000	303.15	696.9	0.5
25000	313.15	689.5	0.5
25000	323.15	682.1	0.5
25000	333.15	674.9	0.5
25000	343.15	667.9	0.5
25000	353.15	660.8	0.5

System: 2,5,8,11,14-pentaoxapentadecane; phases: Liquid
Property: Mass density, kg/m3 (Liquid); method: Vibrating tube method
Pressure, kPa	Temperature, K	Mass density, kg/m3	uncertainty
100	278.15	1025.1	0.5
100	283.15	1020.4	0.5
100	293.15	1011.1	0.5
100	303.15	1002.1	0.5
100	313.15	992.9	0.5
100	323.15	983.6	0.5
100	333.15	974.1	0.5
100	343.15	965	0.5
100	353.15	955.7	0.5
1000	278.15	1025.6	0.5
1000	283.15	1020.9	0.5
1000	293.15	1011.6	0.5
1000	303.15	1002.7	0.5
1000	313.15	993.5	0.5
1000	323.15	984.3	0.5
1000	333.15	974.8	0.5
1000	343.15	965.8	0.5
1000	353.15	956.5	0.5
2500	278.15	1026.5	0.5
2500	283.15	1021.8	0.5
2500	293.15	1012.6	0.5
2500	303.15	1003.7	0.5
2500	313.15	994.6	0.5
2500	323.15	985.3	0.5
2500	333.15	976	0.5
2500	343.15	967	0.5
2500	353.15	957.8	0.5
5000	278.15	1027.9	0.5
5000	283.15	1023.3	0.5
5000	293.15	1014.1	0.5
5000	303.15	1005.3	0.5
5000	313.15	996.3	0.5
5000	323.15	987.1	0.5
5000	333.15	977.9	0.5
5000	343.15	969	0.5
5000	353.15	959.9	0.5
7500	278.15	1029.3	0.5
7500	283.15	1024.7	0.5
7500	293.15	1015.6	0.5
7500	303.15	1006.9	0.5
7500	313.15	997.9	0.5
7500	323.15	988.9	0.5
7500	333.15	979.8	0.5
7500	343.15	971	0.5
7500	353.15	962	0.5
10000	278.15	1030.7	0.5
10000	283.15	1026.1	0.5
10000	293.15	1017.1	0.5
10000	303.15	1008.5	0.5
10000	313.15	999.6	0.5
10000	323.15	990.6	0.5
10000	333.15	981.6	0.5
10000	343.15	972.9	0.5
10000	353.15	964	0.5
15000	278.15	1033.4	0.5
15000	283.15	1028.9	0.5
15000	293.15	1020	0.5
15000	303.15	1011.5	0.5
15000	313.15	1002.8	0.5
15000	323.15	994	0.5
15000	333.15	985.1	0.5
15000	343.15	976.6	0.5
15000	353.15	967.9	0.5
20000	278.15	1036.1	0.5
20000	283.15	1031.6	0.5
20000	293.15	1022.9	0.5
20000	303.15	1014.5	0.5
20000	313.15	1006	0.5
20000	323.15	997.3	0.5
20000	333.15	988.5	0.5
20000	343.15	980.2	0.5
20000	353.15	971.7	0.5
25000	278.15	1038.7	0.5
25000	283.15	1034.3	0.5
25000	293.15	1025.6	0.5
25000	303.15	1017.4	0.5
25000	313.15	1009	0.5
25000	323.15	1000.5	0.5
25000	333.15	991.8	0.5
25000	343.15	983.7	0.5
25000	353.15	975.3	0.5

System: heptane + 2,5,8,11,14-pentaoxapentadecane; phases: Liquid
Property: Mass density, kg/m3 (Liquid); method: Vibrating tube method
Mole fraction of 2,5,8,11,14-pentaoxapentadecane	Pressure, kPa	Temperature, K	Mass density, kg/m3	uncertainty
0	100	278.15	696.3	0.2
0	100	283.15	692.1	0.2
0	100	293.15	683.7	0.3
0	100	303.15	675.3	0.3
0	100	313.15	666.6	0.3
0	100	323.15	657.6	0.3
0	100	333.15	648.9	0.3
0	100	343.15	639.8	0.3
0	100	353.15	630.6	0.3
0	1000	278.15	697	0.3
0	1000	283.15	692.9	0.3
0	1000	293.15	684.6	0.3
0	1000	303.15	676.2	0.3
0	1000	313.15	667.6	0.3
0	1000	323.15	658.7	0.3
0	1000	333.15	650	0.3
0	1000	343.15	641.1	0.3
0	1000	353.15	632	0.3
0	2500	278.15	698.3	0.3
0	2500	283.15	694.2	0.3
0	2500	293.15	685.9	0.3
0	2500	303.15	677.7	0.3
0	2500	313.15	669.1	0.3
0	2500	323.15	660.4	0.3
0	2500	333.15	651.8	0.3
0	2500	343.15	643.1	0.3
0	2500	353.15	634.2	0.3
0	5000	278.15	700.3	0.3
0	5000	283.15	696.3	0.3
0	5000	293.15	688.2	0.3
0	5000	303.15	680.1	0.3
0	5000	313.15	671.7	0.3
0	5000	323.15	663.1	0.3
0	5000	333.15	654.8	0.3
0	5000	343.15	646.3	0.3
0	5000	353.15	637.8	0.3
0	7500	278.15	702.3	0.3
0	7500	283.15	698.3	0.3
0	7500	293.15	690.4	0.3
0	7500	303.15	682.4	0.3
0	7500	313.15	674.2	0.3
0	7500	323.15	665.8	0.3
0	7500	333.15	657.6	0.3
0	7500	343.15	649.4	0.3
0	7500	353.15	641.1	0.3
0	10000	278.15	704.2	0.3
0	10000	283.15	700.2	0.3
0	10000	293.15	692.5	0.3
0	10000	303.15	684.7	0.3
0	10000	313.15	676.6	0.3
0	10000	323.15	668.4	0.3
0	10000	333.15	660.4	0.3
0	10000	343.15	652.4	0.3
0	10000	353.15	644.3	0.4
0	15000	278.15	707.9	0.4
0	15000	283.15	704	0.4
0	15000	293.15	696.6	0.4
0	15000	303.15	689	0.4
0	15000	313.15	681.2	0.4
0	15000	323.15	673.3	0.4
0	15000	333.15	665.6	0.4
0	15000	343.15	658	0.4
0	15000	353.15	650.3	0.4
0	20000	278.15	711.4	0.4
0	20000	283.15	707.6	0.4
0	20000	293.15	700.4	0.4
0	20000	303.15	693	0.4
0	20000	313.15	685.5	0.4
0	20000	323.15	677.9	0.4
0	20000	333.15	670.4	0.5
0	20000	343.15	663.1	0.5
0	20000	353.15	655.7	0.5
0	25000	278.15	714.7	0.5
0	25000	283.15	711.1	0.5
0	25000	293.15	703.9	0.5
0	25000	303.15	696.9	0.5
0	25000	313.15	689.5	0.5
0	25000	323.15	682.1	0.5
0	25000	333.15	674.9	0.5
0	25000	343.15	667.9	0.5
0	25000	353.15	660.8	0.5
0.10504	100	278.15	743.9	0.3
0.10504	100	283.15	739.6	0.3
0.10504	100	293.15	731.3	0.3
0.10504	100	303.15	722.6	0.3
0.10504	100	313.15	713.7	0.3
0.10504	100	323.15	704.9	0.3
0.10504	100	333.15	695.4	0.3
0.10504	100	343.15	686.7	0.3
0.10504	100	353.15	677.5	0.3
0.10504	1000	278.15	744.6	0.3
0.10504	1000	283.15	740.3	0.3
0.10504	1000	293.15	732.1	0.3
0.10504	1000	303.15	723.5	0.3
0.10504	1000	313.15	714.6	0.3
0.10504	1000	323.15	706	0.3
0.10504	1000	333.15	696.5	0.3
0.10504	1000	343.15	687.9	0.3
0.10504	1000	353.15	678.8	0.3
0.10504	2500	278.15	745.8	0.3
0.10504	2500	283.15	741.6	0.3
0.10504	2500	293.15	733.5	0.3
0.10504	2500	303.15	724.9	0.3
0.10504	2500	313.15	716.2	0.3
0.10504	2500	323.15	707.7	0.3
0.10504	2500	333.15	698.3	0.3
0.10504	2500	343.15	689.8	0.3
0.10504	2500	353.15	680.9	0.3
0.10504	5000	278.15	747.8	0.3
0.10504	5000	283.15	743.7	0.3
0.10504	5000	293.15	735.7	0.3
0.10504	5000	303.15	727.3	0.3
0.10504	5000	313.15	718.7	0.3
0.10504	5000	323.15	710.3	0.3
0.10504	5000	333.15	701.1	0.3
0.10504	5000	343.15	692.9	0.3
0.10504	5000	353.15	684.2	0.3
0.10504	7500	278.15	749.7	0.3
0.10504	7500	283.15	745.6	0.3
0.10504	7500	293.15	737.8	0.3
0.10504	7500	303.15	729.5	0.3
0.10504	7500	313.15	721.1	0.3
0.10504	7500	323.15	712.9	0.3
0.10504	7500	333.15	703.9	0.3
0.10504	7500	343.15	695.8	0.3
0.10504	7500	353.15	687.4	0.3
0.10504	10000	278.15	751.6	0.3
0.10504	10000	283.15	747.6	0.3
0.10504	10000	293.15	739.9	0.3
0.10504	10000	303.15	731.7	0.3
0.10504	10000	313.15	723.5	0.3
0.10504	10000	323.15	715.3	0.3
0.10504	10000	333.15	706.5	0.3
0.10504	10000	343.15	698.7	0.3
0.10504	10000	353.15	690.4	0.3
0.10504	15000	278.15	755.2	0.3
0.10504	15000	283.15	751.3	0.3
0.10504	15000	293.15	743.9	0.4
0.10504	15000	303.15	735.9	0.4
0.10504	15000	313.15	728	0.4
0.10504	15000	323.15	720.1	0.4
0.10504	15000	333.15	711.5	0.4
0.10504	15000	343.15	704	0.4
0.10504	15000	353.15	696.1	0.4
0.10504	20000	278.15	758.6	0.4
0.10504	20000	283.15	754.8	0.4
0.10504	20000	293.15	747.6	0.4
0.10504	20000	303.15	739.8	0.4
0.10504	20000	313.15	732.2	0.4
0.10504	20000	323.15	724.6	0.4
0.10504	20000	333.15	716.2	0.4
0.10504	20000	343.15	709	0.4
0.10504	20000	353.15	701.3	0.4
0.10504	25000	278.15	761.9	0.4
0.10504	25000	283.15	758.2	0.4
0.10504	25000	293.15	751.2	0.4
0.10504	25000	303.15	743.6	0.4
0.10504	25000	313.15	736.1	0.4
0.10504	25000	323.15	728.7	0.5
0.10504	25000	333.15	720.6	0.5
0.10504	25000	343.15	713.6	0.5
0.10504	25000	353.15	706.2	0.5
0.19847	100	278.15	783.4	0.3
0.19847	100	283.15	779	0.3
0.19847	100	293.15	770.2	0.3
0.19847	100	303.15	761.4	0.3
0.19847	100	313.15	752.5	0.3
0.19847	100	323.15	743.2	0.3
0.19847	100	333.15	734.3	0.3
0.19847	100	343.15	725.1	0.3
0.19847	100	353.15	715.6	0.3
0.19847	1000	278.15	784.1	0.3
0.19847	1000	283.15	779.8	0.3
0.19847	1000	293.15	771	0.3
0.19847	1000	303.15	762.3	0.3
0.19847	1000	313.15	753.3	0.3
0.19847	1000	323.15	744.2	0.3
0.19847	1000	333.15	735.3	0.3
0.19847	1000	343.15	726.2	0.3
0.19847	1000	353.15	716.8	0.3
0.19847	2500	278.15	785.3	0.3
0.19847	2500	283.15	781	0.3
0.19847	2500	293.15	772.3	0.3
0.19847	2500	303.15	763.7	0.3
0.19847	2500	313.15	754.8	0.3
0.19847	2500	323.15	745.8	0.3
0.19847	2500	333.15	737	0.3
0.19847	2500	343.15	728	0.3
0.19847	2500	353.15	718.8	0.3
0.19847	5000	278.15	787.2	0.3
0.19847	5000	283.15	783	0.3
0.19847	5000	293.15	774.5	0.3
0.19847	5000	303.15	765.9	0.3
0.19847	5000	313.15	757.2	0.3
0.19847	5000	323.15	748.3	0.3
0.19847	5000	333.15	739.7	0.3
0.19847	5000	343.15	730.9	0.3
0.19847	5000	353.15	722	0.3
0.19847	7500	278.15	789.1	0.3
0.19847	7500	283.15	784.9	0.3
0.19847	7500	293.15	776.6	0.3
0.19847	7500	303.15	768.1	0.3
0.19847	7500	313.15	759.5	0.3
0.19847	7500	323.15	750.8	0.3
0.19847	7500	333.15	742.3	0.3
0.19847	7500	343.15	733.8	0.3
0.19847	7500	353.15	725	0.3
0.19847	10000	278.15	791	0.3
0.19847	10000	283.15	786.8	0.3
0.19847	10000	293.15	778.6	0.3
0.19847	10000	303.15	770.2	0.3
0.19847	10000	313.15	761.7	0.3
0.19847	10000	323.15	753.2	0.3
0.19847	10000	333.15	744.9	0.3
0.19847	10000	343.15	736.5	0.3
0.19847	10000	353.15	728	0.3
0.19847	15000	283.15	790.4	0.3
0.19847	15000	293.15	782.5	0.3
0.19847	15000	303.15	774.3	0.3
0.19847	15000	313.15	766.1	0.4
0.19847	15000	323.15	757.8	0.4
0.19847	15000	333.15	749.8	0.4
0.19847	15000	343.15	741.6	0.4
0.19847	15000	353.15	733.5	0.4
0.19847	20000	293.15	786.1	0.4
0.19847	20000	303.15	778.2	0.4
0.19847	20000	313.15	770.2	0.4
0.19847	20000	323.15	762.2	0.4
0.19847	20000	333.15	754.3	0.4
0.19847	20000	343.15	746.4	0.4
0.19847	20000	353.15	738.6	0.4
0.19847	25000	293.15	789.6	0.4
0.19847	25000	303.15	781.9	0.4
0.19847	25000	313.15	774.1	0.4
0.19847	25000	323.15	766.3	0.4
0.19847	25000	333.15	758.6	0.4
0.19847	25000	343.15	751	0.4
0.19847	25000	353.15	743.4	0.4
0.2995	100	278.15	822.5	0.3
0.2995	100	283.15	818	0.3
0.2995	100	293.15	809	0.3
0.2995	100	303.15	800.1	0.3
0.2995	100	313.15	791.1	0.3
0.2995	100	323.15	782	0.3
0.2995	100	333.15	772.5	0.3
0.2995	100	343.15	763.8	0.3
0.2995	100	353.15	754.5	0.3
0.2995	1000	278.15	823.1	0.3
0.2995	1000	283.15	818.7	0.3
0.2995	1000	293.15	809.7	0.3
0.2995	1000	303.15	800.9	0.3
0.2995	1000	313.15	792	0.3
0.2995	1000	323.15	783	0.3
0.2995	1000	333.15	773.5	0.3
0.2995	1000	343.15	764.8	0.3
0.2995	1000	353.15	755.6	0.3
0.2995	2500	278.15	824.3	0.3
0.2995	2500	283.15	819.9	0.3
0.2995	2500	293.15	810.9	0.3
0.2995	2500	303.15	802.3	0.3
0.2995	2500	313.15	793.4	0.3
0.2995	2500	323.15	784.5	0.3
0.2995	2500	333.15	775.1	0.3
0.2995	2500	343.15	766.6	0.3
0.2995	2500	353.15	757.5	0.3
0.2995	5000	278.15	826.1	0.3
0.2995	5000	283.15	821.8	0.3
0.2995	5000	293.15	812.9	0.3
0.2995	5000	303.15	804.4	0.3
0.2995	5000	313.15	795.7	0.3
0.2995	5000	323.15	786.9	0.3
0.2995	5000	333.15	777.7	0.3
0.2995	5000	343.15	769.4	0.3
0.2995	5000	353.15	760.5	0.3
0.2995	7500	278.15	827.9	0.3
0.2995	7500	283.15	823.7	0.3
0.2995	7500	293.15	814.9	0.3
0.2995	7500	303.15	806.5	0.3
0.2995	7500	313.15	798	0.3
0.2995	7500	323.15	789.3	0.3
0.2995	7500	333.15	780.2	0.3
0.2995	7500	343.15	772.1	0.3
0.2995	7500	353.15	763.4	0.3
0.2995	10000	278.15	829.7	0.3
0.2995	10000	283.15	825.5	0.3
0.2995	10000	293.15	816.9	0.3
0.2995	10000	303.15	808.5	0.3
0.2995	10000	313.15	800.1	0.3
0.2995	10000	323.15	791.6	0.3
0.2995	10000	333.15	782.7	0.3
0.2995	10000	343.15	774.7	0.3
0.2995	10000	353.15	766.1	0.3
0.2995	15000	278.15	833.2	0.3
0.2995	15000	283.15	829	0.3
0.2995	15000	293.15	820.6	0.3
0.2995	15000	303.15	812.5	0.3
0.2995	15000	313.15	804.3	0.4
0.2995	15000	323.15	796	0.4
0.2995	15000	333.15	787.3	0.4
0.2995	15000	343.15	779.6	0.4
0.2995	15000	353.15	771.3	0.4
0.2995	20000	278.15	836.5	0.4
0.2995	20000	283.15	832.4	0.4
0.2995	20000	293.15	824.2	0.4
0.2995	20000	303.15	816.2	0.4
0.2995	20000	313.15	808.3	0.4
0.2995	20000	323.15	800.2	0.4
0.2995	20000	333.15	791.7	0.4
0.2995	20000	343.15	784.2	0.4
0.2995	20000	353.15	776.2	0.4
0.2995	25000	283.15	835.7	0.4
0.2995	25000	293.15	827.6	0.4
0.2995	25000	303.15	819.8	0.4
0.2995	25000	313.15	812.1	0.4
0.2995	25000	323.15	804.2	0.4
0.2995	25000	333.15	795.8	0.4
0.2995	25000	343.15	788.6	0.4
0.2995	25000	353.15	780.9	0.4
0.40213	100	278.15	858.8	0.3
0.40213	100	283.15	854.4	0.3
0.40213	100	293.15	845.3	0.3
0.40213	100	303.15	836.6	0.3
0.40213	100	313.15	827.5	0.3
0.40213	100	323.15	818.2	0.3
0.40213	100	333.15	809.2	0.3
0.40213	100	343.15	800	0.3
0.40213	100	353.15	790.4	0.3
0.40213	1000	278.15	859.4	0.3
0.40213	1000	283.15	855.1	0.3
0.40213	1000	293.15	846.1	0.3
0.40213	1000	303.15	837.4	0.3
0.40213	1000	313.15	828.3	0.3
0.40213	1000	323.15	819.1	0.3
0.40213	1000	333.15	810.1	0.3
0.40213	1000	343.15	801	0.3
0.40213	1000	353.15	791.5	0.3
0.40213	2500	278.15	860.5	0.3
0.40213	2500	283.15	856.2	0.3
0.40213	2500	293.15	847.3	0.3
0.40213	2500	303.15	838.6	0.3
0.40213	2500	313.15	829.7	0.3
0.40213	2500	323.15	820.5	0.3
0.40213	2500	333.15	811.7	0.3
0.40213	2500	343.15	802.6	0.3
0.40213	2500	353.15	793.3	0.3
0.40213	5000	278.15	862.3	0.3
0.40213	5000	283.15	858.1	0.3
0.40213	5000	293.15	849.2	0.3
0.40213	5000	303.15	840.7	0.3
0.40213	5000	313.15	831.8	0.3
0.40213	5000	323.15	822.8	0.3
0.40213	5000	333.15	814.1	0.3
0.40213	5000	343.15	805.2	0.3
0.40213	5000	353.15	796.1	0.3
0.40213	7500	278.15	864.1	0.3
0.40213	7500	283.15	859.9	0.3
0.40213	7500	293.15	851.1	0.3
0.40213	7500	303.15	842.7	0.3
0.40213	7500	313.15	833.9	0.3
0.40213	7500	323.15	825.1	0.3
0.40213	7500	333.15	816.6	0.3
0.40213	7500	343.15	807.8	0.3
0.40213	7500	353.15	798.9	0.3
0.40213	10000	278.15	865.8	0.3
0.40213	10000	283.15	861.7	0.3
0.40213	10000	293.15	853	0.3
0.40213	10000	303.15	844.7	0.3
0.40213	10000	313.15	836	0.3
0.40213	10000	323.15	827.3	0.3
0.40213	10000	333.15	818.9	0.3
0.40213	10000	343.15	810.2	0.3
0.40213	10000	353.15	801.5	0.3
0.40213	15000	278.15	869.2	0.4
0.40213	15000	283.15	865.1	0.4
0.40213	15000	293.15	856.6	0.4
0.40213	15000	303.15	848.5	0.4
0.40213	15000	313.15	840.1	0.4
0.40213	15000	323.15	831.6	0.4
0.40213	15000	333.15	823.4	0.4
0.40213	15000	343.15	815	0.4
0.40213	15000	353.15	806.5	0.4
0.40213	20000	278.15	872.4	0.4
0.40213	20000	283.15	868.4	0.4
0.40213	20000	293.15	860.1	0.4
0.40213	20000	303.15	852.1	0.4
0.40213	20000	313.15	843.9	0.4
0.40213	20000	323.15	835.7	0.4
0.40213	20000	333.15	827.7	0.4
0.40213	20000	343.15	819.4	0.4
0.40213	20000	353.15	811.2	0.4
0.40213	25000	278.15	875.5	0.4
0.40213	25000	283.15	871.6	0.4
0.40213	25000	293.15	863.4	0.4
0.40213	25000	303.15	855.6	0.4
0.40213	25000	313.15	847.6	0.4
0.40213	25000	323.15	839.5	0.4
0.40213	25000	333.15	831.7	0.4
0.40213	25000	343.15	823.7	0.4
0.40213	25000	353.15	815.7	0.4
0.50997	100	278.15	894.1	0.4
0.50997	100	283.15	889.6	0.4
0.50997	100	293.15	880.5	0.4
0.50997	100	303.15	871.5	0.4
0.50997	100	313.15	862.4	0.4
0.50997	100	323.15	853.3	0.4
0.50997	100	333.15	843.9	0.4
0.50997	100	343.15	835.1	0.3
0.50997	100	353.15	825.7	0.3
0.50997	1000	278.15	894.8	0.4
0.50997	1000	283.15	890.2	0.4
0.50997	1000	293.15	881.1	0.4
0.50997	1000	303.15	872.2	0.4
0.50997	1000	313.15	863.2	0.4
0.50997	1000	323.15	854.1	0.4
0.50997	1000	333.15	844.8	0.4
0.50997	1000	343.15	836	0.4
0.50997	1000	353.15	826.7	0.3
0.50997	2500	278.15	895.8	0.4
0.50997	2500	283.15	891.3	0.4
0.50997	2500	293.15	882.3	0.4
0.50997	2500	303.15	873.5	0.4
0.50997	2500	313.15	864.5	0.4
0.50997	2500	323.15	855.4	0.4
0.50997	2500	333.15	846.2	0.4
0.50997	2500	343.15	837.5	0.4
0.50997	2500	353.15	828.4	0.4
0.50997	5000	278.15	897.6	0.4
0.50997	5000	283.15	893.1	0.4
0.50997	5000	293.15	884.1	0.4
0.50997	5000	303.15	875.5	0.4
0.50997	5000	313.15	866.6	0.4
0.50997	5000	323.15	857.7	0.4
0.50997	5000	333.15	848.5	0.4
0.50997	5000	343.15	840.1	0.4
0.50997	5000	353.15	831	0.4
0.50997	7500	278.15	899.3	0.4
0.50997	7500	283.15	894.8	0.4
0.50997	7500	293.15	885.9	0.4
0.50997	7500	303.15	877.4	0.4
0.50997	7500	313.15	868.7	0.4
0.50997	7500	323.15	859.8	0.4
0.50997	7500	333.15	850.8	0.4
0.50997	7500	343.15	842.5	0.4
0.50997	7500	353.15	833.6	0.4
0.50997	10000	278.15	900.9	0.4
0.50997	10000	283.15	896.5	0.4
0.50997	10000	293.15	887.7	0.4
0.50997	10000	303.15	879.3	0.4
0.50997	10000	313.15	870.7	0.4
0.50997	10000	323.15	861.9	0.4
0.50997	10000	333.15	853	0.4
0.50997	10000	343.15	844.8	0.4
0.50997	10000	353.15	836.1	0.4
0.50997	15000	278.15	904.1	0.4
0.50997	15000	283.15	899.8	0.4
0.50997	15000	293.15	891.2	0.4
0.50997	15000	303.15	882.9	0.4
0.50997	15000	313.15	874.6	0.4
0.50997	15000	323.15	866	0.4
0.50997	15000	333.15	857.3	0.4
0.50997	15000	343.15	849.4	0.4
0.50997	15000	353.15	840.9	0.4
0.50997	20000	278.15	907.2	0.4
0.50997	20000	283.15	902.9	0.4
0.50997	20000	293.15	894.5	0.4
0.50997	20000	303.15	886.5	0.4
0.50997	20000	313.15	878.3	0.4
0.50997	20000	323.15	869.9	0.4
0.50997	20000	333.15	861.3	0.4
0.50997	20000	343.15	853.7	0.4
0.50997	20000	353.15	845.4	0.4
0.50997	25000	278.15	910.2	0.4
0.50997	25000	283.15	906	0.4
0.50997	25000	293.15	897.7	0.4
0.50997	25000	303.15	889.9	0.4
0.50997	25000	313.15	881.8	0.4
0.50997	25000	323.15	873.6	0.4
0.50997	25000	333.15	865.2	0.4
0.50997	25000	343.15	857.8	0.4
0.50997	25000	353.15	849.7	0.4
0.59095	100	278.15	919	0.4
0.59095	100	283.15	914.4	0.4
0.59095	100	293.15	905.3	0.4
0.59095	100	303.15	896.2	0.4
0.59095	100	313.15	886.9	0.4
0.59095	100	323.15	878.4	0.4
0.59095	100	333.15	868.3	0.4
0.59095	100	343.15	859.3	0.4
0.59095	100	353.15	850.1	0.4
0.59095	1000	278.15	919.6	0.4
0.59095	1000	283.15	915.1	0.4
0.59095	1000	293.15	905.9	0.4
0.59095	1000	303.15	896.9	0.4
0.59095	1000	313.15	887.7	0.4
0.59095	1000	323.15	879.2	0.4
0.59095	1000	333.15	869.1	0.4
0.59095	1000	343.15	860.2	0.4
0.59095	1000	353.15	851.1	0.4
0.59095	2500	278.15	920.6	0.4
0.59095	2500	283.15	916.1	0.4
0.59095	2500	293.15	907	0.4
0.59095	2500	303.15	898	0.4
0.59095	2500	313.15	888.9	0.4
0.59095	2500	323.15	880.5	0.4
0.59095	2500	333.15	870.3	0.4
0.59095	2500	343.15	861.7	0.4
0.59095	2500	353.15	852.6	0.4
0.59095	5000	278.15	922.3	0.4
0.59095	5000	283.15	917.8	0.4
0.59095	5000	293.15	908.8	0.4
0.59095	5000	303.15	900	0.4
0.59095	5000	313.15	890.8	0.4
0.59095	5000	323.15	882.6	0.4
0.59095	5000	333.15	872.5	0.4
0.59095	5000	343.15	864.1	0.4
0.59095	5000	353.15	855.2	0.4
0.59095	7500	278.15	923.9	0.4
0.59095	7500	283.15	919.5	0.4
0.59095	7500	293.15	910.6	0.4
0.59095	7500	303.15	901.8	0.4
0.59095	7500	313.15	892.8	0.4
0.59095	7500	323.15	884.7	0.4
0.59095	7500	333.15	874.7	0.4
0.59095	7500	343.15	866.4	0.4
0.59095	7500	353.15	857.6	0.4
0.59095	10000	278.15	925.5	0.4
0.59095	10000	283.15	921.1	0.4
0.59095	10000	293.15	912.4	0.4
0.59095	10000	303.15	903.6	0.4
0.59095	10000	313.15	894.7	0.4
0.59095	10000	323.15	886.7	0.4
0.59095	10000	333.15	876.8	0.4
0.59095	10000	343.15	868.7	0.4
0.59095	10000	353.15	860	0.4
0.59095	15000	278.15	928.7	0.4
0.59095	15000	283.15	924.3	0.4
0.59095	15000	293.15	915.8	0.4
0.59095	15000	303.15	907.2	0.4
0.59095	15000	313.15	898.5	0.4
0.59095	15000	323.15	890.7	0.4
0.59095	15000	333.15	880.9	0.4
0.59095	15000	343.15	873	0.4
0.59095	15000	353.15	864.6	0.4
0.59095	20000	278.15	931.7	0.4
0.59095	20000	283.15	927.4	0.4
0.59095	20000	293.15	919	0.4
0.59095	20000	303.15	910.6	0.4
0.59095	20000	313.15	902.1	0.4
0.59095	20000	323.15	894.4	0.4
0.59095	20000	333.15	884.9	0.4
0.59095	20000	343.15	877.2	0.4
0.59095	20000	353.15	868.9	0.4
0.59095	25000	278.15	934.6	0.4
0.59095	25000	283.15	930.4	0.4
0.59095	25000	293.15	922.1	0.4
0.59095	25000	303.15	913.9	0.4
0.59095	25000	313.15	905.5	0.4
0.59095	25000	323.15	898	0.4
0.59095	25000	333.15	888.6	0.4
0.59095	25000	343.15	881.2	0.4
0.59095	25000	353.15	873	0.4
0.69827	100	278.15	949.9	0.4
0.69827	100	283.15	945.4	0.4
0.69827	100	293.15	936	0.4
0.69827	100	303.15	926.9	0.4
0.69827	100	313.15	918	0.4
0.69827	100	323.15	908.9	0.4
0.69827	100	333.15	899	0.4
0.69827	100	343.15	890.4	0.4
0.69827	100	353.15	881.1	0.4
0.69827	1000	278.15	950.5	0.4
0.69827	1000	283.15	946	0.4
0.69827	1000	293.15	936.6	0.4
0.69827	1000	303.15	927.6	0.4
0.69827	1000	313.15	918.7	0.4
0.69827	1000	323.15	909.7	0.4
0.69827	1000	333.15	899.8	0.4
0.69827	1000	343.15	891.2	0.4
0.69827	1000	353.15	882	0.4
0.69827	2500	278.15	951.5	0.4
0.69827	2500	283.15	947	0.4
0.69827	2500	293.15	937.7	0.4
0.69827	2500	303.15	928.7	0.4
0.69827	2500	313.15	919.9	0.4
0.69827	2500	323.15	910.9	0.4
0.69827	2500	333.15	901.1	0.4
0.69827	2500	343.15	892.6	0.4
0.69827	2500	353.15	883.5	0.4
0.69827	5000	278.15	953.1	0.4
0.69827	5000	283.15	948.6	0.4
0.69827	5000	293.15	939.4	0.4
0.69827	5000	303.15	930.5	0.4
0.69827	5000	313.15	921.8	0.4
0.69827	5000	323.15	912.9	0.4
0.69827	5000	333.15	903.3	0.4
0.69827	5000	343.15	894.9	0.4
0.69827	5000	353.15	885.9	0.4
0.69827	7500	278.15	954.6	0.4
0.69827	7500	283.15	950.2	0.4
0.69827	7500	293.15	941.1	0.4
0.69827	7500	303.15	932.3	0.4
0.69827	7500	313.15	923.7	0.4
0.69827	7500	323.15	914.9	0.4
0.69827	7500	333.15	905.3	0.4
0.69827	7500	343.15	897.1	0.4
0.69827	7500	353.15	888.3	0.4
0.69827	10000	278.15	956.1	0.4
0.69827	10000	283.15	951.8	0.4
0.69827	10000	293.15	942.8	0.4
0.69827	10000	303.15	934.1	0.4
0.69827	10000	313.15	925.6	0.4
0.69827	10000	323.15	916.8	0.4
0.69827	10000	333.15	907.4	0.4
0.69827	10000	343.15	899.3	0.4
0.69827	10000	353.15	890.5	0.4
0.69827	15000	278.15	959.2	0.4
0.69827	15000	283.15	954.9	0.4
0.69827	15000	293.15	946	0.4
0.69827	15000	303.15	937.5	0.4
0.69827	15000	313.15	929.2	0.4
0.69827	15000	323.15	920.6	0.4
0.69827	15000	333.15	911.4	0.4
0.69827	15000	343.15	903.4	0.4
0.69827	15000	353.15	894.9	0.4
0.69827	20000	278.15	962.1	0.4
0.69827	20000	283.15	957.9	0.4
0.69827	20000	293.15	949.1	0.4
0.69827	20000	303.15	940.8	0.4
0.69827	20000	313.15	932.6	0.4
0.69827	20000	323.15	924.2	0.4
0.69827	20000	333.15	915.1	0.4
0.69827	20000	343.15	907.4	0.4
0.69827	20000	353.15	899.1	0.4
0.69827	25000	278.15	964.9	0.4
0.69827	25000	283.15	960.7	0.4
0.69827	25000	293.15	952.2	0.4
0.69827	25000	303.15	943.9	0.4
0.69827	25000	313.15	936	0.4
0.69827	25000	323.15	927.7	0.4
0.69827	25000	333.15	918.7	0.4
0.69827	25000	343.15	911.2	0.4
0.69827	25000	353.15	903.1	0.4
0.80114	100	278.15	977.6	0.5
0.80114	100	283.15	972.8	0.5
0.80114	100	293.15	963.4	0.5
0.80114	100	303.15	954.3	0.5
0.80114	100	313.15	945.3	0.4
0.80114	100	323.15	936.1	0.4
0.80114	100	333.15	926.4	0.4
0.80114	100	343.15	917.6	0.4
0.80114	100	353.15	908.3	0.4
0.80114	1000	278.15	978.2	0.5
0.80114	1000	283.15	973.4	0.5
0.80114	1000	293.15	963.9	0.5
0.80114	1000	303.15	955	0.5
0.80114	1000	313.15	946	0.4
0.80114	1000	323.15	936.7	0.4
0.80114	1000	333.15	927.2	0.4
0.80114	1000	343.15	918.4	0.4
0.80114	1000	353.15	909.1	0.4
0.80114	2500	278.15	979	0.5
0.80114	2500	283.15	974.4	0.5
0.80114	2500	293.15	964.9	0.5
0.80114	2500	303.15	956.1	0.5
0.80114	2500	313.15	947.1	0.4
0.80114	2500	323.15	937.9	0.4
0.80114	2500	333.15	928.4	0.4
0.80114	2500	343.15	919.8	0.4
0.80114	2500	353.15	910.6	0.4
0.80114	5000	278.15	980.6	0.5
0.80114	5000	283.15	975.9	0.5
0.80114	5000	293.15	966.6	0.5
0.80114	5000	303.15	957.8	0.5
0.80114	5000	313.15	949	0.4
0.80114	5000	323.15	939.8	0.4
0.80114	5000	333.15	930.5	0.4
0.80114	5000	343.15	922	0.4
0.80114	5000	353.15	912.8	0.4
0.80114	7500	278.15	982.1	0.5
0.80114	7500	283.15	977.5	0.5
0.80114	7500	293.15	968.2	0.5
0.80114	7500	303.15	959.5	0.5
0.80114	7500	313.15	950.8	0.5
0.80114	7500	323.15	941.6	0.4
0.80114	7500	333.15	932.5	0.4
0.80114	7500	343.15	924.1	0.4
0.80114	7500	353.15	915.1	0.4
0.80114	10000	278.15	983.6	0.5
0.80114	10000	283.15	979	0.5
0.80114	10000	293.15	969.8	0.5
0.80114	10000	303.15	961.3	0.5
0.80114	10000	313.15	952.5	0.5
0.80114	10000	323.15	943.4	0.4
0.80114	10000	333.15	934.4	0.4
0.80114	10000	343.15	926.2	0.4
0.80114	10000	353.15	917.2	0.4
0.80114	15000	278.15	986.5	0.5
0.80114	15000	283.15	982	0.5
0.80114	15000	293.15	972.9	0.5
0.80114	15000	303.15	964.5	0.5
0.80114	15000	313.15	956	0.5
0.80114	15000	323.15	947.1	0.5
0.80114	15000	333.15	938.2	0.4
0.80114	15000	343.15	930.2	0.4
0.80114	15000	353.15	921.4	0.4
0.80114	20000	278.15	989.3	0.5
0.80114	20000	283.15	984.9	0.5
0.80114	20000	293.15	975.9	0.5
0.80114	20000	303.15	967.7	0.5
0.80114	20000	313.15	959.3	0.5
0.80114	20000	323.15	950.6	0.5
0.80114	20000	333.15	941.8	0.5
0.80114	20000	343.15	934	0.5
0.80114	20000	353.15	925.4	0.4
0.80114	25000	278.15	992.1	0.5
0.80114	25000	283.15	987.7	0.5
0.80114	25000	293.15	978.9	0.5
0.80114	25000	303.15	970.8	0.5
0.80114	25000	313.15	962.5	0.5
0.80114	25000	323.15	953.9	0.5
0.80114	25000	333.15	945.3	0.5
0.80114	25000	343.15	937.6	0.5
0.80114	25000	353.15	929.3	0.5
0.90199	100	278.15	1002.4	0.5
0.90199	100	283.15	997.7	0.5
0.90199	100	293.15	988.4	0.5
0.90199	100	303.15	979.4	0.5
0.90199	100	313.15	970.3	0.5
0.90199	100	323.15	960.9	0.5
0.90199	100	333.15	951.2	0.5
0.90199	100	343.15	942.6	0.5
0.90199	100	353.15	933.2	0.5
0.90199	1000	278.15	1002.9	0.5
0.90199	1000	283.15	998.3	0.5
0.90199	1000	293.15	989	0.5
0.90199	1000	303.15	980	0.5
0.90199	1000	313.15	971	0.5
0.90199	1000	323.15	961.6	0.5
0.90199	1000	333.15	951.9	0.5
0.90199	1000	343.15	943.3	0.5
0.90199	1000	353.15	934	0.5
0.90199	2500	278.15	1003.8	0.5
0.90199	2500	283.15	999.2	0.5
0.90199	2500	293.15	989.9	0.5
0.90199	2500	303.15	981	0.5
0.90199	2500	313.15	972	0.5
0.90199	2500	323.15	962.7	0.5
0.90199	2500	333.15	953.1	0.5
0.90199	2500	343.15	944.6	0.5
0.90199	2500	353.15	935.3	0.5
0.90199	5000	278.15	1005.3	0.5
0.90199	5000	283.15	1000.7	0.5
0.90199	5000	293.15	991.5	0.5
0.90199	5000	303.15	982.7	0.5
0.90199	5000	313.15	973.8	0.5
0.90199	5000	323.15	964.6	0.5
0.90199	5000	333.15	955	0.5
0.90199	5000	343.15	946.7	0.5
0.90199	5000	353.15	937.5	0.5
0.90199	7500	278.15	1006.7	0.5
0.90199	7500	283.15	1002.2	0.5
0.90199	7500	293.15	993.1	0.5
0.90199	7500	303.15	984.3	0.5
0.90199	7500	313.15	975.6	0.5
0.90199	7500	323.15	966.4	0.5
0.90199	7500	333.15	957	0.5
0.90199	7500	343.15	948.7	0.5
0.90199	7500	353.15	939.6	0.5
0.90199	10000	278.15	1008.2	0.5
0.90199	10000	283.15	1003.7	0.5
0.90199	10000	293.15	994.6	0.5
0.90199	10000	303.15	985.9	0.5
0.90199	10000	313.15	977.3	0.5
0.90199	10000	323.15	968.2	0.5
0.90199	10000	333.15	958.9	0.5
0.90199	10000	343.15	950.7	0.5
0.90199	10000	353.15	941.7	0.5
0.90199	15000	278.15	1011	0.5
0.90199	15000	283.15	1006.6	0.5
0.90199	15000	293.15	997.7	0.5
0.90199	15000	303.15	989.1	0.5
0.90199	15000	313.15	980.6	0.5
0.90199	15000	323.15	971.7	0.5
0.90199	15000	333.15	962.5	0.5
0.90199	15000	343.15	954.6	0.5
0.90199	15000	353.15	945.8	0.5
0.90199	20000	278.15	1013.7	0.5
0.90199	20000	283.15	1009.4	0.5
0.90199	20000	293.15	1000.6	0.5
0.90199	20000	303.15	992.2	0.5
0.90199	20000	313.15	983.9	0.5
0.90199	20000	323.15	975.1	0.5
0.90199	20000	333.15	966	0.5
0.90199	20000	343.15	958.3	0.5
0.90199	20000	353.15	949.7	0.5
0.90199	25000	278.15	1016.4	0.5
0.90199	25000	283.15	1012.1	0.5
0.90199	25000	293.15	1003.4	0.5
0.90199	25000	303.15	995.1	0.5
0.90199	25000	313.15	987	0.5
0.90199	25000	323.15	978.4	0.5
0.90199	25000	333.15	969.4	0.5
0.90199	25000	343.15	961.8	0.5
0.90199	25000	353.15	953.4	0.5
1	100	278.15	1025.1	0.5
1	100	283.15	1020.4	0.5
1	100	293.15	1011.1	0.5
1	100	303.15	1002.1	0.5
1	100	313.15	992.9	0.5
1	100	323.15	983.6	0.5
1	100	333.15	974.1	0.5
1	100	343.15	965	0.5
1	100	353.15	955.7	0.5
1	1000	278.15	1025.6	0.5
1	1000	283.15	1020.9	0.5
1	1000	293.15	1011.6	0.5
1	1000	303.15	1002.7	0.5
1	1000	313.15	993.5	0.5
1	1000	323.15	984.3	0.5
1	1000	333.15	974.8	0.5
1	1000	343.15	965.8	0.5
1	1000	353.15	956.5	0.5
1	2500	278.15	1026.5	0.5
1	2500	283.15	1021.8	0.5
1	2500	293.15	1012.6	0.5
1	2500	303.15	1003.7	0.5
1	2500	313.15	994.6	0.5
1	2500	323.15	985.3	0.5
1	2500	333.15	976	0.5
1	2500	343.15	967	0.5
1	2500	353.15	957.8	0.5
1	5000	278.15	1027.9	0.5
1	5000	283.15	1023.3	0.5
1	5000	293.15	1014.1	0.5
1	5000	303.15	1005.3	0.5
1	5000	313.15	996.3	0.5
1	5000	323.15	987.1	0.5
1	5000	333.15	977.9	0.5
1	5000	343.15	969	0.5
1	5000	353.15	959.9	0.5
1	7500	278.15	1029.3	0.5
1	7500	283.15	1024.7	0.5
1	7500	293.15	1015.6	0.5
1	7500	303.15	1006.9	0.5
1	7500	313.15	997.9	0.5
1	7500	323.15	988.9	0.5
1	7500	333.15	979.8	0.5
1	7500	343.15	971	0.5
1	7500	353.15	962	0.5
1	10000	278.15	1030.7	0.5
1	10000	283.15	1026.1	0.5
1	10000	293.15	1017.1	0.5
1	10000	303.15	1008.5	0.5
1	10000	313.15	999.6	0.5
1	10000	323.15	990.6	0.5
1	10000	333.15	981.6	0.5
1	10000	343.15	972.9	0.5
1	10000	353.15	964	0.5
1	15000	278.15	1033.4	0.5
1	15000	283.15	1028.9	0.5
1	15000	293.15	1020	0.5
1	15000	303.15	1011.5	0.5
1	15000	313.15	1002.8	0.5
1	15000	323.15	994	0.5
1	15000	333.15	985.1	0.5
1	15000	343.15	976.6	0.5
1	15000	353.15	967.9	0.5
1	20000	278.15	1036.1	0.5
1	20000	283.15	1031.6	0.5
1	20000	293.15	1022.9	0.5
1	20000	303.15	1014.5	0.5
1	20000	313.15	1006	0.5
1	20000	323.15	997.3	0.5
1	20000	333.15	988.5	0.5
1	20000	343.15	980.2	0.5
1	20000	353.15	971.7	0.5
1	25000	278.15	1038.7	0.5
1	25000	283.15	1034.3	0.5
1	25000	293.15	1025.6	0.5
1	25000	303.15	1017.4	0.5
1	25000	313.15	1009	0.5
1	25000	323.15	1000.5	0.5
1	25000	333.15	991.8	0.5
1	25000	343.15	983.7	0.5
1	25000	353.15	975.3	0.5
