Measured thermophysical data. Solubilities of Bis (2,2,6,6-Tetramethyl-4-Piperidinyl) Maleate in Hexane, Heptane, Octane, m-Xylene and Tetrahydrofuran from (253.15 to 310.15) K
Source: J. Chem. Eng. Data, 2004, 10.1021/je034182z
Compound 1: bis(2,2,6,6-tetramethyl-4-piperidinyl) maleate, C22H38N2O4, InChI=1S/C22H38N2O4/c1-19(2)11-15(12-20(3,4)23-19)27-17(25)9-10-18(26)28-16-13-21(5,6)24-22(7,8)14-16/h9-10,15-16,23-24H,11-14H2,1-8H3, purity 99%
Compound 2: hexane, C6H14, InChI=1S/C6H14/c1-3-5-6-4-2/h3-6H2,1-2H3, purity 99.5%
Compound 3: heptane, C7H16, InChI=1S/C7H16/c1-3-5-7-6-4-2/h3-7H2,1-2H3, purity 99.5%
Compound 4: octane, C8H18, InChI=1S/C8H18/c1-3-5-7-8-6-4-2/h3-8H2,1-2H3, purity 99.5%
Compound 5: 1,3-dimethylbenzene, C8H10, InChI=1S/C8H10/c1-7-4-3-5-8(2)6-7/h3-6H,1-2H3, purity 99.5%
Compound 6: tetrahydrofuran, C4H8O, InChI=1S/C4H8O/c1-2-4-5-3-1/h1-4H2, purity 99%

System: hexane; phases: Liquid
Property: Refractive index (Na D-line) (Liquid); method: Standard Abbe refractometry
Temperature, K	Pressure, kPa	Refractive index (Na D-line)	uncertainty
298.15	101.325	1.3747	0.0007

System: hexane; phases: Liquid
Property: Mass density, kg/m3 (Liquid); method: VIBTUB:UFactor:4
Temperature, K	Pressure, kPa	Mass density, kg/m3	uncertainty
298.15	101.325	655.1	0.7

System: heptane; phases: Liquid
Property: Refractive index (Na D-line) (Liquid); method: Standard Abbe refractometry
Temperature, K	Pressure, kPa	Refractive index (Na D-line)	uncertainty
298.15	101.325	1.3854	0.0007

System: heptane; phases: Liquid
Property: Mass density, kg/m3 (Liquid); method: VIBTUB:UFactor:4
Temperature, K	Pressure, kPa	Mass density, kg/m3	uncertainty
298.15	101.325	679.4	0.8

System: octane; phases: Liquid
Property: Refractive index (Na D-line) (Liquid); method: Standard Abbe refractometry
Temperature, K	Pressure, kPa	Refractive index (Na D-line)	uncertainty
298.15	101.325	1.3954	0.0007

System: octane; phases: Liquid
Property: Mass density, kg/m3 (Liquid); method: VIBTUB:UFactor:4
Temperature, K	Pressure, kPa	Mass density, kg/m3	uncertainty
298.15	101.325	698.5	0.8

System: 1,3-dimethylbenzene; phases: Liquid
Property: Refractive index (Na D-line) (Liquid); method: Standard Abbe refractometry
Temperature, K	Pressure, kPa	Refractive index (Na D-line)	uncertainty
298.15	101.325	1.4947	0.0007

System: 1,3-dimethylbenzene; phases: Liquid
Property: Mass density, kg/m3 (Liquid); method: VIBTUB:UFactor:4
Temperature, K	Pressure, kPa	Mass density, kg/m3	uncertainty
298.15	101.325	860.3	0.5

System: tetrahydrofuran; phases: Liquid
Property: Refractive index (Na D-line) (Liquid); method: Standard Abbe refractometry
Temperature, K	Pressure, kPa	Refractive index (Na D-line)	uncertainty
298.15	101.325	1.4047	0.0007

System: tetrahydrofuran; phases: Liquid
Property: Mass density, kg/m3 (Liquid); method: PYCNOM:UFactor:4
Temperature, K	Pressure, kPa	Mass density, kg/m3	uncertainty
298.15	101.325	881.9	1.3

System: hexane + bis(2,2,6,6-tetramethyl-4-piperidinyl) maleate; phases: Liquid, Crystal
Fixed: Pressure, kPa = 101.325
Property: Mole fraction of bis(2,2,6,6-tetramethyl-4-piperidinyl) maleate (Liquid); method: CHROM:UFactor:8
Temperature, K	Mole fraction of bis(2,2,6,6-tetramethyl-4-piperidinyl) maleate	uncertainty
253.15	0.0005275	3.4e-05
257.65	0.0007276	4.69e-05
262.15	0.001025	6.6e-05
265.05	0.001205	7.8e-05
268.85	0.001555	0.0001
273.65	0.002126	0.000137
278.25	0.002804	0.000181
282.65	0.003753	0.000242
285.66	0.004504	0.000291
288.86	0.005454	0.000352
291.05	0.006204	0.000401
293.18	0.007091	0.000459
295.25	0.007914	0.000512
297.65	0.009064	0.000587
300.05	0.01036	0.00067
302.05	0.01175	0.00076
305.86	0.0143	0.00093
308.25	0.01627	0.00106
310.15	0.01801	0.00118

System: heptane + bis(2,2,6,6-tetramethyl-4-piperidinyl) maleate; phases: Liquid, Crystal
Fixed: Pressure, kPa = 101.325
Property: Mole fraction of bis(2,2,6,6-tetramethyl-4-piperidinyl) maleate (Liquid); method: CHROM:UFactor:8
Temperature, K	Mole fraction of bis(2,2,6,6-tetramethyl-4-piperidinyl) maleate	uncertainty
258.15	0.0008902	4.96e-05
263.15	0.001271	7e-05
268.15	0.001719	9.5e-05
273.15	0.002482	0.000138
276.25	0.003078	0.000171
278.05	0.003303	0.000184
280.15	0.004002	0.000223
283.15	0.004713	0.000262
286.25	0.005641	0.000314
288.45	0.006428	0.000358
291.05	0.007491	0.000418
293.05	0.008627	0.000482
296.45	0.01041	0.00058
299.05	0.01226	0.00069
302.25	0.01471	0.00083
305.05	0.01749	0.00098

System: octane + bis(2,2,6,6-tetramethyl-4-piperidinyl) maleate; phases: Liquid, Crystal
Fixed: Pressure, kPa = 101.325
Property: Mole fraction of bis(2,2,6,6-tetramethyl-4-piperidinyl) maleate (Liquid); method: CHROM:UFactor:8
Temperature, K	Mole fraction of bis(2,2,6,6-tetramethyl-4-piperidinyl) maleate	uncertainty
257.15	0.0009587	4.71e-05
262.26	0.001371	6.7e-05
268.86	0.002113	0.000103
273.15	0.002871	0.00014
275.95	0.003422	0.000168
278.25	0.004069	0.000199
280.88	0.004751	0.000233
283.68	0.005692	0.000279
286.05	0.006562	0.000322
288.26	0.007511	0.000368
291.05	0.008789	0.000431
293.16	0.009971	0.00049
296.26	0.01199	0.00059
299.15	0.01471	0.00073
302.25	0.01749	0.00087
305.75	0.02166	0.00107

System: 1,3-dimethylbenzene + bis(2,2,6,6-tetramethyl-4-piperidinyl) maleate; phases: Liquid, Crystal
Fixed: Pressure, kPa = 101.325
Property: Mole fraction of bis(2,2,6,6-tetramethyl-4-piperidinyl) maleate (Liquid); method: CHROM:UFactor:8
Temperature, K	Mole fraction of bis(2,2,6,6-tetramethyl-4-piperidinyl) maleate	uncertainty
255.15	0.003886	0.000205
259.05	0.005191	0.000274
263.13	0.007222	0.000381
267.85	0.009673	0.00051
273.16	0.01301	0.00069
276.35	0.01523	0.00081
278.26	0.01668	0.00089
279.37	0.01801	0.00096
281.95	0.02049	0.00109
282.66	0.02188	0.00117
284.05	0.02268	0.00121
285.45	0.02441	0.0013
288.07	0.02761	0.00148
291.65	0.03123	0.00168
293.18	0.03396	0.00183
295.95	0.03727	0.00201
298.07	0.03993	0.00216
298.85	0.04101	0.00222
300.85	0.04373	0.00238
302.1	0.04592	0.0025

System: tetrahydrofuran + bis(2,2,6,6-tetramethyl-4-piperidinyl) maleate; phases: Liquid, Crystal
Fixed: Pressure, kPa = 101.325
Property: Mole fraction of bis(2,2,6,6-tetramethyl-4-piperidinyl) maleate (Liquid); method: CHROM:UFactor:8
Temperature, K	Mole fraction of bis(2,2,6,6-tetramethyl-4-piperidinyl) maleate	uncertainty
253.15	0.002779	0.000226
258.15	0.006597	0.000519
263.15	0.01365	0.00108
268.15	0.02701	0.00215
273.15	0.04751	0.00384
275.15	0.06188	0.00508
278.25	0.08008	0.00669
280.15	0.09494	0.00805
282.65	0.1108	0.0096
285.65	0.1425	0.0127
288.15	0.1653	0.0152
290.05	0.1869	0.0176
291.65	0.2051	0.0198
293.18	0.2231	0.022
296.03	0.2572	0.0265
298.18	0.2853	0.0305
299.65	0.3033	0.0333
302.05	0.3329	0.0382
