Measured thermophysical data. Excess Molar Enthalpies of Binary Mixtures Containing Glycols or Polyglycols + Dimethyl Sulfoxide at 308.15 K
Source: J. Chem. Eng. Data, 2003, 10.1021/je034007i
Compound 1: 1,2-ethanediol, C2H6O2, InChI=1S/C2H6O2/c3-1-2-4/h3-4H,1-2H2
Compound 2: diethylene glycol, C4H10O3, InChI=1S/C4H10O3/c5-1-3-7-4-2-6/h5-6H,1-4H2
Compound 3: triethylene glycol, C6H14O4, InChI=1S/C6H14O4/c7-1-3-9-5-6-10-4-2-8/h7-8H,1-6H2
Compound 4: tetraethylene glycol, C8H18O5, InChI=1S/C8H18O5/c9-1-3-11-5-7-13-8-6-12-4-2-10/h9-10H,1-8H2
Compound 5: 1,2-propanediol, C3H8O2, InChI=1S/C3H8O2/c1-3(5)2-4/h3-5H,2H2,1H3
Compound 6: dimethyl sulfoxide, C2H6OS, InChI=1S/C2H6OS/c1-4(2)3/h1-2H3

System: 1,2-ethanediol; phases: Liquid
Property: Mass density, kg/m3 (Liquid); method: VIBTUB:dT:.01
Temperature, K	Pressure, kPa	Mass density, kg/m3	uncertainty
308.15	101.325	1102.93	0.56

System: diethylene glycol; phases: Liquid
Property: Mass density, kg/m3 (Liquid); method: VIBTUB:dT:.01
Temperature, K	Pressure, kPa	Mass density, kg/m3	uncertainty
308.15	101.325	1105.65	0.56

System: triethylene glycol; phases: Liquid
Property: Mass density, kg/m3 (Liquid); method: VIBTUB:dT:.01
Temperature, K	Pressure, kPa	Mass density, kg/m3	uncertainty
308.15	101.325	1112.1	0.56

System: tetraethylene glycol; phases: Liquid
Property: Mass density, kg/m3 (Liquid); method: VIBTUB:dT:.01
Temperature, K	Pressure, kPa	Mass density, kg/m3	uncertainty
308.15	101.325	1112.28	0.56

System: 1,2-propanediol; phases: Liquid
Property: Mass density, kg/m3 (Liquid); method: VIBTUB:dT:.01
Temperature, K	Pressure, kPa	Mass density, kg/m3	uncertainty
308.15	101.325	1026.15	0.26

System: dimethyl sulfoxide; phases: Liquid
Property: Mass density, kg/m3 (Liquid); method: VIBTUB:dT:.01
Temperature, K	Pressure, kPa	Mass density, kg/m3	uncertainty
308.15	101.325	1085.5	0.55

System: dimethyl sulfoxide + 1,2-ethanediol; phases: Liquid
Fixed: Temperature, K = 308.15
Fixed: Pressure, kPa = 101.3
Property: Excess molar enthalpy (molar enthalpy of mixing), kJ/mol (Liquid); method: FLOW:UFactor:2
Mole fraction of 1,2-ethanediol	Excess molar enthalpy (molar enthalpy of mixing), kJ/mol	uncertainty
0.0506	-0.195	0.0046
0.0963	-0.3675	0.0076
0.1378	-0.4993	0.0098
0.1757	-0.6136	0.0118
0.2423	-0.7576	0.0143
0.2989	-0.8508	0.0159
0.39	-0.9158	0.017
0.4601	-0.9102	0.0169
0.5612	-0.8277	0.0155
0.6574	-0.7051	0.0134
0.7189	-0.6138	0.0118
0.7933	-0.4947	0.0098
0.8365	-0.4148	0.0084
0.8847	-0.3048	0.0065
0.911	-0.2489	0.0055
0.9388	-0.184	0.0044
0.9685	-0.099	0.0031

System: dimethyl sulfoxide + diethylene glycol; phases: Liquid
Fixed: Temperature, K = 308.15
Fixed: Pressure, kPa = 101.3
Property: Excess molar enthalpy (molar enthalpy of mixing), kJ/mol (Liquid); method: FLOW:UFactor:2
Mole fraction of diethylene glycol	Excess molar enthalpy (molar enthalpy of mixing), kJ/mol	uncertainty
0.0303	-0.1052	0.0032
0.0588	-0.199	0.0047
0.0857	-0.2778	0.006
0.1111	-0.349	0.0072
0.1579	-0.4557	0.0091
0.2	-0.5359	0.0105
0.2727	-0.6293	0.0121
0.3332	-0.6654	0.0127
0.4285	-0.679	0.0129
0.5295	-0.6453	0.0124
0.6	-0.6077	0.0117
0.6923	-0.5171	0.0101
0.75	-0.4672	0.0093
0.8182	-0.3803	0.0078
0.8571	-0.319	0.0067
0.9	-0.2507	0.0056
0.9474	-0.145	0.0038

System: dimethyl sulfoxide + triethylene glycol; phases: Liquid
Fixed: Temperature, K = 308.15
Fixed: Pressure, kPa = 101.3
Property: Excess molar enthalpy (molar enthalpy of mixing), kJ/mol (Liquid); method: FLOW:UFactor:2
Mole fraction of triethylene glycol	Excess molar enthalpy (molar enthalpy of mixing), kJ/mol	uncertainty
0.0217	-0.12	0.0034
0.0425	-0.2245	0.0051
0.0625	-0.3142	0.0066
0.0816	-0.3949	0.008
0.1176	-0.5228	0.0102
0.1509	-0.6289	0.0121
0.2104	-0.7567	0.0143
0.2621	-0.8305	0.0156
0.3477	-0.8976	0.0167
0.4444	-0.8971	0.0167
0.516	-0.864	0.0161
0.6153	-0.7771	0.0146
0.6807	-0.7033	0.0134
0.7618	-0.5745	0.0111
0.81	-0.4905	0.0097
0.8648	-0.3837	0.0078
0.9275	-0.2201	0.005

System: dimethyl sulfoxide + tetraethylene glycol; phases: Liquid
Fixed: Temperature, K = 308.15
Fixed: Pressure, kPa = 101.3
Property: Excess molar enthalpy (molar enthalpy of mixing), kJ/mol (Liquid); method: FLOW:UFactor:2
Mole fraction of tetraethylene glycol	Excess molar enthalpy (molar enthalpy of mixing), kJ/mol	uncertainty
0.0169	-0.11	0.0033
0.0332	-0.2019	0.0047
0.049	-0.2895	0.0062
0.0643	-0.3654	0.0075
0.0934	-0.4941	0.0097
0.1208	-0.6027	0.0116
0.1709	-0.7399	0.014
0.2155	-0.8387	0.0157
0.2919	-0.922	0.0171
0.3818	-0.9503	0.0176
0.4519	-0.9453	0.0175
0.5529	-0.9042	0.0168
0.6225	-0.8462	0.0158
0.7121	-0.744	0.0141
0.7673	-0.6755	0.0129
0.8318	-0.5559	0.0108
0.9082	-0.3511	0.0073

System: 1,2-propanediol + dimethyl sulfoxide; phases: Liquid
Fixed: Temperature, K = 308.15
Fixed: Pressure, kPa = 101.3
Property: Excess molar enthalpy (molar enthalpy of mixing), kJ/mol (Liquid); method: FLOW:UFactor:2
Mole fraction of dimethyl sulfoxide	Excess molar enthalpy (molar enthalpy of mixing), kJ/mol	uncertainty
0.0389	-0.081	0.0028
0.0748	-0.163	0.0041
0.1082	-0.222	0.0051
0.1392	-0.27	0.0059
0.1921	-0.3543	0.0073
0.2444	-0.4023	0.0082
0.3267	-0.4337	0.0087
0.3928	-0.4234	0.0085
0.4925	-0.3875	0.0079
0.5929	-0.3299	0.0069
0.66	-0.2893	0.0062
0.7444	-0.2272	0.0052
0.7952	-0.1867	0.0045
0.8535	-0.135	0.0036
0.8859	-0.0978	0.0031
0.9209	-0.0649	0.0026
0.9588	-0.0301	0.002
