Measured thermophysical data. Critical Properties of Binary and Ternary Mixtures of Hexane + Methanol, Hexane + Carbon Dioxide, Methanol + Carbon Dioxide and Hexane + Carbon Dioxide + Methanol
Source: J. Chem. Eng. Data, 2003, 10.1021/je034127q
Compound 1: methanol, CH4O, InChI=1S/CH4O/c1-2/h2H,1H3, purity 99.5%
Compound 2: hexane, C6H14, InChI=1S/C6H14/c1-3-5-6-4-2/h3-6H2,1-2H3, purity 97%
Compound 3: carbon dioxide, CO2, InChI=1S/CO2/c2-1-3, purity 99.95%

System: methanol; phases: Liquid, Gas
Property: Critical pressure, kPa (Liquid); method: DIRECT:dissair:UFactor:64
Critical pressure, kPa	uncertainty
8120	250

System: methanol; phases: Liquid, Gas
Property: Critical temperature, K (Liquid); method: VISOBSS:dissair:UFactor:64
Critical temperature, K	uncertainty
512.6	2.5

System: hexane; phases: Liquid, Gas
Property: Critical pressure, kPa (Liquid); method: DIRECT:dissair:UFactor:64
Critical pressure, kPa	uncertainty
3020	250

System: hexane; phases: Liquid, Gas
Property: Critical temperature, K (Liquid); method: VISOBSS:dissair:UFactor:64
Critical temperature, K	uncertainty
507.4	2.5

System: carbon dioxide; phases: Liquid, Gas
Property: Critical pressure, kPa (Liquid); method: DIRECT:dissair:UFactor:64
Critical pressure, kPa	uncertainty
7420	250

System: carbon dioxide; phases: Liquid, Gas
Property: Critical temperature, K (Liquid); method: VISOBSS:dissair:UFactor:64
Critical temperature, K	uncertainty
304.5	2.5

System: methanol + hexane; phases: Liquid, Gas
Property: Critical pressure, kPa (Liquid); method: DIRECT:dissair:UFactor:64
Mole fraction of methanol	Critical pressure, kPa	uncertainty
0	3020	400
0.072	3350	400
0.12	3540	400
0.1667	3740	400
0.178	3790	400
0.244	4010	400
0.25	4070	400
0.32	4200	400
0.398	4810	400
0.452	4910	400
0.498	5100	400
0.5	5100	400
0.555	5320	400
0.633	5520	400
0.717	5940	400
0.75	6180	400
0.787	6270	400
0.816	6750	400
0.86	7190	400
0.914	7520	400
0.961	7910	400
1	8120	400

System: methanol + hexane; phases: Liquid, Gas
Property: Critical temperature, K (Liquid); method: VISOBSS:dissair:UFactor:64
Mole fraction of methanol	Critical temperature, K	uncertainty
0	507.4	5
0.072	504.6	5
0.12	502	5
0.1667	500	5
0.178	499.8	5
0.244	495.9	5
0.25	496.2	5
0.32	492.1	5
0.398	486.7	5
0.452	484.3	5
0.498	481.9	5
0.5	481.9	5
0.555	480.6	5
0.633	480.4	5
0.717	483.3	5
0.75	485.9	5
0.787	488.6	5
0.816	492.5	5
0.86	498	5
0.914	502.5	5
0.961	508.9	5
1	512.6	5

System: methanol + carbon dioxide; phases: Liquid, Gas
Property: Critical pressure, kPa (Liquid); method: DIRECT:dissair:UFactor:64
Mole fraction of carbon dioxide	Critical pressure, kPa	uncertainty
0	8120	400
0.072	8800	400
0.169	10330	400
0.244	11540	400
0.327	12840	400
0.383	14000	400
0.446	14740	400
0.495	15270	400
0.572	16320	400
0.668	16340	400
0.713	16260	400
0.786	15760	400
0.81	15070	400
0.862	13750	400
0.893	12950	400
0.912	11040	400
0.965	8290	400
1	7420	400

System: methanol + carbon dioxide; phases: Liquid, Gas
Property: Critical temperature, K (Liquid); method: VISOBSS:dissair:UFactor:64
Mole fraction of carbon dioxide	Critical temperature, K	uncertainty
0	512.6	5
0.072	507.2	5
0.169	494.6	5
0.244	485.4	5
0.327	473.2	5
0.383	460.5	5
0.446	451.1	5
0.495	442.8	5
0.572	423.9	5
0.668	414.3	5
0.713	408.2	5
0.786	384.8	5
0.81	374.3	5
0.862	354.7	5
0.893	346.7	5
0.912	333.3	5
0.965	313.4	5
1	304.5	5

System: hexane + carbon dioxide; phases: Liquid, Gas
Property: Critical pressure, kPa (Liquid); method: DIRECT:dissair:UFactor:64
Mole fraction of carbon dioxide	Critical pressure, kPa	uncertainty
0	3020	400
0.202	4200	400
0.373	5390	400
0.418	6030	400
0.498	7180	400
0.557	8370	400
0.64	9870	400
0.687	10410	400
0.75	11610	400
0.78	11720	400
0.836	11360	400
0.897	10180	400
0.935	9430	400
0.955	8720	400
0.979	7960	400
0.986	7710	400
1	7420	400

System: hexane + carbon dioxide; phases: Liquid, Gas
Property: Critical temperature, K (Liquid); method: VISOBSS:dissair:UFactor:64
Mole fraction of carbon dioxide	Critical temperature, K	uncertainty
0	507.4	5
0.202	494.4	5
0.373	486.4	5
0.418	479.5	5
0.498	468.7	5
0.557	457.5	5
0.64	438.7	5
0.687	429.4	5
0.75	399.9	5
0.78	387	5
0.836	365.6	5
0.897	344.8	5
0.935	332.9	5
0.955	321.8	5
0.979	311.9	5
0.986	308.2	5
1	304.5	5

System: methanol + hexane + carbon dioxide; phases: Liquid, Gas
Property: Critical pressure, kPa (Liquid); method: DIRECT:dissair:UFactor:128
Amount ratio of solute to solvent of hexane	Mole fraction of carbon dioxide	Critical pressure, kPa	uncertainty
0.3333	0	6180	790
0.3333	0.216	8570	790
0.3333	0.298	9720	790
0.3333	0.479	11470	790
0.3333	0.601	12320	790
0.3333	0.707	12340	790
0.3333	0.833	11900	790
0.3333	0.916	9900	790
0.3333	1	7420	790
1	0	5100	790
1	0.194	6940	790
1	0.315	8150	790
1	0.454	9750	790
1	0.635	10880	790
1	0.711	11040	790
1	0.826	10680	790
1	0.903	9500	790
1	1	7420	790
3	0	4070	790
3	0.199	5810	790
3	0.356	7220	790
3	0.454	8650	790
3	0.56	9960	790
3	0.65	10380	790
3	0.733	10890	790
3	0.826	10910	790
3	0.913	9560	790
3	1	7420	790
5	0	3740	790
5	0.392	6740	790
5	0.47	7810	790
5	0.547	9180	790
5	0.596	9720	790
5	0.652	10630	790
5	0.681	11090	790
5	0.735	11340	790
5	0.767	10950	790
5	1	7420	790

System: methanol + hexane + carbon dioxide; phases: Liquid, Gas
Property: Critical temperature, K (Liquid); method: VISOBSS:dissair:UFactor:128
Amount ratio of solute to solvent of hexane	Mole fraction of carbon dioxide	Critical temperature, K	uncertainty
0.3333	0	485.9	9.9
0.3333	0.216	459.7	9.9
0.3333	0.298	448.4	9.9
0.3333	0.479	426	9.9
0.3333	0.601	412.7	9.9
0.3333	0.707	389	9.9
0.3333	0.833	354.1	9.9
0.3333	0.916	334.3	9.9
0.3333	1	304.5	9.9
1	0	481.9	9.9
1	0.194	460.6	9.9
1	0.315	443.5	9.9
1	0.454	424	9.9
1	0.635	401.8	9.9
1	0.711	387.7	9.9
1	0.826	354.9	9.9
1	0.903	337.3	9.9
1	1	304.5	9.9
3	0	496.2	9.9
3	0.199	480.1	9.9
3	0.356	466.5	9.9
3	0.454	448.7	9.9
3	0.56	425.8	9.9
3	0.65	417.8	9.9
3	0.733	402	9.9
3	0.826	373.3	9.9
3	0.913	343.7	9.9
3	1	304.5	9.9
5	0	500	9.9
5	0.392	475	9.9
5	0.47	463.3	9.9
5	0.547	446.9	9.9
5	0.596	438.2	9.9
5	0.652	420.8	9.9
5	0.681	408.7	9.9
5	0.735	385.3	9.9
5	0.767	365.9	9.9
5	1	304.5	9.9
