Measured thermophysical data. Measurement and Correlation of Mutual Solubilities for High Viscosity Binary Systems: Aniline + Methylcyclohexane, Phenol + Heptane, Phenol + Octane, and Glycerol + 1-Pentanol
Source: J. Chem. Eng. Data, 2003, 10.1021/je034043h
Compound 1: aniline, C6H7N, InChI=1S/C6H7N/c7-6-4-2-1-3-5-6/h1-5H,7H2, purity 99.91%
Compound 2: methylcyclohexane, C7H14, InChI=1S/C7H14/c1-7-5-3-2-4-6-7/h7H,2-6H2,1H3, purity 99.94%
Compound 3: phenol, C6H6O, InChI=1S/C6H6O/c7-6-4-2-1-3-5-6/h1-5,7H, purity 99.9%
Compound 4: heptane, C7H16, InChI=1S/C7H16/c1-3-5-7-6-4-2/h3-7H2,1-2H3, purity 99.92%
Compound 5: octane, C8H18, InChI=1S/C8H18/c1-3-5-7-8-6-4-2/h3-8H2,1-2H3, purity 99.95%
Compound 6: glycerol, C3H8O3, InChI=1S/C3H8O3/c4-1-3(6)2-5/h3-6H,1-2H2, purity 99.9%
Compound 7: pentan-1-ol, C5H12O, InChI=1S/C5H12O/c1-2-3-4-5-6/h6H,2-5H2,1H3, purity 99.92%

System: aniline + methylcyclohexane; phases: Liquid mixture 1, Liquid mixture 2, Air at 1 atmosphere
Property: Upper consolute temperature, K (Liquid mixture 1); method: APPEAR
Upper consolute temperature, K	uncertainty
313.78	0.54

System: aniline + methylcyclohexane; phases: Liquid mixture 1, Liquid mixture 2, Air at 1 atmosphere
Property: Upper consolute composition: mole fraction of aniline (Liquid mixture 1); method: APPEAR
Upper consolute composition: mole fraction of aniline	uncertainty
0.528	0.02

System: aniline + methylcyclohexane; phases: Liquid mixture 1, Liquid mixture 2
Fixed: Pressure, kPa = 101.3
Property: Liquid-liquid equilibrium temperature, K (Liquid mixture 1); method: VISOBS:UFactor:3
Mole fraction of aniline	Liquid-liquid equilibrium temperature, K	uncertainty
0.1011	292.15	0.47
0.1209	296.77	0.47
0.1521	300.95	0.47
0.1725	304.28	0.47
0.2008	306.33	0.47
0.2196	307.89	0.47
0.2562	309.45	0.47
0.2696	310.17	0.47
0.2931	310.88	0.47
0.3167	311.69	0.47
0.3412	312.22	0.47
0.3649	312.56	0.47
0.3994	313.15	0.47
0.4088	313.18	0.47
0.4142	313.28	0.47
0.4319	313.43	0.47
0.4426	313.53	0.47
0.45	313.47	0.47
0.4625	313.58	0.47
0.477	313.65	0.47
0.4973	313.73	0.47
0.5084	313.75	0.47
0.5131	313.76	0.47
0.5174	313.78	0.47
0.5194	313.76	0.47
0.5269	313.79	0.47
0.528	313.78	0.47
0.5382	313.76	0.47
0.5574	313.66	0.47
0.5657	313.62	0.47
0.6034	313.33	0.47
0.6167	313.08	0.47
0.6354	312.89	0.47
0.66	312.25	0.47
0.6781	311.82	0.47
0.7106	310.58	0.47
0.7309	309.59	0.47
0.7513	308.24	0.47
0.7721	306.67	0.47
0.7944	304.58	0.47
0.8116	302.6	0.47
0.834	299.08	0.47
0.8608	294.17	0.47
0.8747	290.62	0.47

System: phenol + heptane; phases: Liquid mixture 1, Liquid mixture 2, Air at 1 atmosphere
Property: Upper consolute temperature, K (Liquid mixture 1); method: APPEAR
Upper consolute temperature, K	uncertainty
327.3	0.54

System: phenol + heptane; phases: Liquid mixture 1, Liquid mixture 2, Air at 1 atmosphere
Property: Upper consolute composition: mole fraction of phenol (Liquid mixture 1); method: APPEAR
Upper consolute composition: mole fraction of phenol	uncertainty
0.5188	0.02

System: phenol + heptane; phases: Liquid mixture 1, Liquid mixture 2
Fixed: Pressure, kPa = 101.3
Property: Liquid-liquid equilibrium temperature, K (Liquid mixture 1); method: VISOBS:UFactor:3
Mole fraction of phenol	Liquid-liquid equilibrium temperature, K	uncertainty
0.1372	305.95	0.47
0.1429	307.05	0.47
0.1693	311.28	0.47
0.1737	311.93	0.47
0.1946	314.27	0.47
0.1981	314.5	0.47
0.2043	315.67	0.47
0.2127	316.61	0.47
0.2512	319.58	0.47
0.2949	321.99	0.47
0.3442	324.27	0.47
0.3773	324.99	0.47
0.4142	325.92	0.47
0.4222	326.05	0.47
0.4497	326.58	0.47
0.4698	326.9	0.47
0.5188	327.3	0.47
0.5563	327.01	0.47
0.6051	326.63	0.47
0.6417	325.07	0.47
0.6712	324.04	0.47
0.701	323.01	0.47
0.7465	319.54	0.47
0.77	317.33	0.47
0.7783	315.01	0.47
0.7998	311.26	0.47
0.8297	305.63	0.47

System: phenol + octane; phases: Liquid mixture 1, Liquid mixture 2, Air at 1 atmosphere
Property: Upper consolute temperature, K (Liquid mixture 1); method: APPEAR
Upper consolute temperature, K	uncertainty
329.54	0.54

System: phenol + octane; phases: Liquid mixture 1, Liquid mixture 2, Air at 1 atmosphere
Property: Upper consolute composition: mole fraction of phenol (Liquid mixture 1); method: APPEAR
Upper consolute composition: mole fraction of phenol	uncertainty
0.5457	0.02

System: phenol + octane; phases: Liquid mixture 1, Liquid mixture 2
Fixed: Pressure, kPa = 101.3
Property: Liquid-liquid equilibrium temperature, K (Liquid mixture 1); method: VISOBS:UFactor:3
Mole fraction of phenol	Liquid-liquid equilibrium temperature, K	uncertainty
0.1486	306.67	0.47
0.1943	314.69	0.47
0.296	323.33	0.47
0.3479	326.08	0.47
0.399	327.46	0.47
0.4176	328.3	0.47
0.4935	329.33	0.47
0.5437	329.53	0.47
0.5457	329.54	0.47
0.5991	329.34	0.47
0.6493	328.72	0.47
0.6979	327.28	0.47
0.7451	325.22	0.47
0.7949	320.16	0.47
0.8191	316.55	0.47
0.8472	310.99	0.47
0.8622	306.18	0.47

System: glycerol + pentan-1-ol; phases: Liquid mixture 1, Liquid mixture 2, Air at 1 atmosphere
Property: Upper consolute temperature, K (Liquid mixture 1); method: APPEAR
Upper consolute temperature, K	uncertainty
337.62	0.54

System: glycerol + pentan-1-ol; phases: Liquid mixture 1, Liquid mixture 2, Air at 1 atmosphere
Property: Upper consolute composition: mole fraction of glycerol (Liquid mixture 1); method: OTHER
Upper consolute composition: mole fraction of glycerol	uncertainty
0.6918	

System: glycerol + pentan-1-ol; phases: Liquid mixture 1, Liquid mixture 2
Fixed: Pressure, kPa = 101.3
Property: Liquid-liquid equilibrium temperature, K (Liquid mixture 1); method: VISOBS:UFactor:3
Mole fraction of glycerol	Liquid-liquid equilibrium temperature, K	uncertainty
0.2046	289.97	0.47
0.2526	301.06	0.47
0.285	307.71	0.47
0.3357	316.16	0.47
0.3823	322.26	0.47
0.4169	326.73	0.47
0.4613	330.38	0.47
0.5208	334.1	0.47
0.5431	335.32	0.47
0.5901	336.27	0.47
0.6298	337.13	0.47
0.6918	337.63	0.47
0.7032	337.62	0.47
0.7246	337.47	0.47
0.7678	337.15	0.47
0.8081	334.96	0.47
0.8202	334.39	0.47
0.8291	333.81	0.47
0.8497	330.97	0.47
0.872	327.49	0.47
0.8959	320	0.47
0.9124	312.81	0.48
