Measured thermophysical data. Isobaric Vapor Liquid Equilibrium for 2,3-Dimethyl-2-butene + Methanol, + Ethanol, + 2-Propanol, or + 2-Butanol at Atmospheric Pressure
Source: J. Chem. Eng. Data, 2004, 10.1021/je034106w
Compound 1: 2,3-dimethyl-2-butene, C6H12, InChI=1S/C6H12/c1-5(2)6(3)4/h1-4H3
Compound 2: methanol, CH4O, InChI=1S/CH4O/c1-2/h2H,1H3
Compound 3: ethanol, C2H6O, InChI=1S/C2H6O/c1-2-3/h3H,2H2,1H3
Compound 4: propan-2-ol, C3H8O, InChI=1S/C3H8O/c1-3(2)4/h3-4H,1-2H3
Compound 5: butan-2-ol, C4H10O, InChI=1S/C4H10O/c1-3-4(2)5/h4-5H,3H2,1-2H3

System: 2,3-dimethyl-2-butene; phases: Liquid, Gas
Property: Vapor or sublimation pressure, kPa (Liquid); method: CCELL:UFactor:4
Temperature, K	Vapor or sublimation pressure, kPa	uncertainty
312.39	30.29	0.27
318.44	38.4	0.31
324.24	47.72	0.36
327.7	54.12	0.39
330.28	59.32	0.43
333	65.23	0.47
337.15	75.19	0.53
339.12	80.3	0.56
340.98	85.4	0.6
342.81	90.74	0.63
344.13	94.64	0.66
346.28	101.43	0.7

System: methanol + 2,3-dimethyl-2-butene; phases: Liquid, Gas
Property: Azeotropic composition: mole fraction of 2,3-dimethyl-2-butene (Liquid); method: By X=Y
Temperature, K	Azeotropic composition: mole fraction of 2,3-dimethyl-2-butene	uncertainty
325	0.468	0.007

System: methanol + 2,3-dimethyl-2-butene; phases: Liquid, Gas
Property: Azeotropic composition: mole fraction of 2,3-dimethyl-2-butene (Liquid); method: By X=Y
Pressure, kPa	Azeotropic composition: mole fraction of 2,3-dimethyl-2-butene	uncertainty
101.2	0.468	0.007

System: methanol + 2,3-dimethyl-2-butene; phases: Liquid, Gas
Property: Boiling temperature at pressure P, K (Liquid); method: EBULLIO:UFactor:8
Mole fraction of 2,3-dimethyl-2-butene	Pressure, kPa	Boiling temperature at pressure P, K	uncertainty
0	101.8	337.64	0.27
0.0028	101.8	336.97	0.27
0.011	101.8	335.19	0.27
0.0164	101.9	334.25	0.27
0.0197	101.9	333.77	0.27
0.129	101.2	326.72	0.27
0.1842	101.2	325.97	0.27
0.2324	101.2	325.67	0.27
0.2891	101.2	325.51	0.27
0.3426	101.2	325.45	0.27
0.3804	101.2	325.44	0.27
0.4261	101.2	325.44	0.27
0.5402	101.2	325.51	0.27
0.6233	101.2	325.62	0.27
0.7203	101.2	325.81	0.27
0.8258	101.2	326.34	0.27
0.9331	101.2	328.61	0.27
0.9657	101.2	331.68	0.27
0.9866	101.2	338.02	0.27
1	101.1	346.25	0.27

System: methanol + 2,3-dimethyl-2-butene; phases: Gas, Liquid
Property: Mole fraction of 2,3-dimethyl-2-butene (Gas); method: Chromatography
Mole fraction of 2,3-dimethyl-2-butene	Pressure, kPa	Mole fraction of 2,3-dimethyl-2-butene	uncertainty
0	101.8	0	0.0001
0.0028	101.8	0.0278	0.006
0.011	101.8	0.1007	0.0061
0.0164	101.9	0.144	0.0061
0.0197	101.9	0.1652	0.0062
0.129	101.2	0.4081	0.007
0.1842	101.2	0.4344	0.0071
0.2324	101.2	0.4468	0.0072
0.2891	101.2	0.4559	0.0072
0.3426	101.2	0.4607	0.0073
0.3804	101.2	0.4642	0.0073
0.4261	101.2	0.4663	0.0073
0.5402	101.2	0.4718	0.0073
0.6233	101.2	0.4758	0.0073
0.7203	101.2	0.4825	0.0074
0.8258	101.2	0.4976	0.0075
0.9331	101.2	0.5491	0.0073
0.9657	101.2	0.6181	0.007
0.9866	101.2	0.7717	0.0064
1	101.1	1	0.0001

System: ethanol + 2,3-dimethyl-2-butene; phases: Liquid, Gas
Property: Azeotropic composition: mole fraction of 2,3-dimethyl-2-butene (Liquid); method: By X=Y
Temperature, K	Azeotropic composition: mole fraction of 2,3-dimethyl-2-butene	uncertainty
334.8	0.614	0.006

System: ethanol + 2,3-dimethyl-2-butene; phases: Liquid, Gas
Property: Azeotropic composition: mole fraction of 2,3-dimethyl-2-butene (Liquid); method: By X=Y
Pressure, kPa	Azeotropic composition: mole fraction of 2,3-dimethyl-2-butene	uncertainty
100.7	0.614	0.006

System: ethanol + 2,3-dimethyl-2-butene; phases: Liquid, Gas
Property: Boiling temperature at pressure P, K (Liquid); method: EBULLIO:UFactor:8
Mole fraction of 2,3-dimethyl-2-butene	Pressure, kPa	Boiling temperature at pressure P, K	uncertainty
0	101.5	351.3	0.27
0.0103	100.6	349.39	0.27
0.0162	100.6	348.56	0.27
0.0236	100.7	347.61	0.27
0.0342	100.6	346.29	0.27
0.0706	100.7	342.81	0.27
0.0995	100.6	340.92	0.27
0.1585	100.6	338.65	0.27
0.2114	100.6	337.06	0.27
0.2737	100.6	336.12	0.27
0.3581	100.6	335.41	0.27
0.4461	100.6	335.03	0.27
0.5355	100.6	334.86	0.27
0.6213	100.6	334.84	0.27
0.7071	100.7	334.94	0.27
0.7823	100.7	335.18	0.27
0.8623	100.7	335.84	0.27
0.935	100.7	337.68	0.27
0.9685	100.7	340.32	0.27
1	100.7	346.01	0.27

System: ethanol + 2,3-dimethyl-2-butene; phases: Gas, Liquid
Property: Mole fraction of 2,3-dimethyl-2-butene (Gas); method: Chromatography
Mole fraction of 2,3-dimethyl-2-butene	Pressure, kPa	Mole fraction of 2,3-dimethyl-2-butene	uncertainty
0	101.5	0	0.0001
0.0103	100.6	0.0761	0.006
0.0162	100.6	0.1132	0.0061
0.0236	100.7	0.1545	0.0061
0.0342	100.6	0.2053	0.0063
0.0706	100.7	0.3283	0.0067
0.0995	100.6	0.3907	0.007
0.1585	100.6	0.4695	0.0074
0.2114	100.6	0.5113	0.0075
0.2737	100.6	0.5429	0.0074
0.3581	100.6	0.5702	0.0073
0.4461	100.6	0.5889	0.0072
0.5355	100.6	0.603	0.0071
0.6213	100.6	0.6149	0.0071
0.7071	100.7	0.6278	0.007
0.7823	100.7	0.6433	0.007
0.8623	100.7	0.673	0.0068
0.935	100.7	0.7411	0.0066
0.9685	100.7	0.82	0.0063
1	100.7	1	0.0001

System: propan-2-ol + 2,3-dimethyl-2-butene; phases: Liquid, Gas
Property: Azeotropic composition: mole fraction of 2,3-dimethyl-2-butene (Liquid); method: By X=Y
Temperature, K	Azeotropic composition: mole fraction of 2,3-dimethyl-2-butene	uncertainty
338.7	0.696	0.005

System: propan-2-ol + 2,3-dimethyl-2-butene; phases: Liquid, Gas
Property: Azeotropic composition: mole fraction of 2,3-dimethyl-2-butene (Liquid); method: By X=Y
Pressure, kPa	Azeotropic composition: mole fraction of 2,3-dimethyl-2-butene	uncertainty
100	0.696	0.005

System: propan-2-ol + 2,3-dimethyl-2-butene; phases: Liquid, Gas
Property: Boiling temperature at pressure P, K (Liquid); method: EBULLIO:UFactor:8
Mole fraction of 2,3-dimethyl-2-butene	Pressure, kPa	Boiling temperature at pressure P, K	uncertainty
0	101.5	355.22	0.27
0.0087	99.8	353.93	0.27
0.0129	99.8	353.48	0.27
0.0192	99.8	352.82	0.27
0.0294	99.8	351.86	0.27
0.0451	99.8	350.59	0.27
0.0682	99.8	348.85	0.27
0.1066	99.8	346.57	0.27
0.1531	99.8	344.48	0.27
0.2191	99.8	342.42	0.27
0.3055	99.8	340.76	0.27
0.3903	99.8	339.74	0.27
0.4794	99.8	339.1	0.27
0.5589	99.8	338.77	0.27
0.6444	100	338.68	0.27
0.732	100	338.7	0.27
0.8112	100	338.99	0.27
0.8845	100	339.71	0.27
0.9387	100	340.97	0.27
0.9787	100	343.56	0.27
1	99.9	345.78	0.27

System: propan-2-ol + 2,3-dimethyl-2-butene; phases: Gas, Liquid
Property: Mole fraction of 2,3-dimethyl-2-butene (Gas); method: Chromatography
Mole fraction of 2,3-dimethyl-2-butene	Pressure, kPa	Mole fraction of 2,3-dimethyl-2-butene	uncertainty
0	101.5	0	0.0001
0.0087	99.8	0.0476	0.006
0.0129	99.8	0.0675	0.006
0.0192	99.8	0.1017	0.0061
0.0294	99.8	0.1438	0.0061
0.0451	99.8	0.1992	0.0062
0.0682	99.8	0.2713	0.0064
0.1066	99.8	0.3591	0.0068
0.1531	99.8	0.4338	0.0071
0.2191	99.8	0.5025	0.0075
0.3055	99.8	0.5623	0.0072
0.3903	99.8	0.6027	0.007
0.4794	99.8	0.6331	0.0069
0.5589	99.8	0.6577	0.0068
0.6444	100	0.6804	0.0067
0.732	100	0.7066	0.0066
0.8112	100	0.7354	0.0065
0.8845	100	0.7745	0.0064
0.9387	100	0.8243	0.0063
0.9787	100	0.9148	0.0061
1	99.9	1	0.0001

System: butan-2-ol + 2,3-dimethyl-2-butene; phases: Liquid, Gas
Property: Azeotropic composition: mole fraction of 2,3-dimethyl-2-butene (Liquid); method: By X=Y
Temperature, K	Azeotropic composition: mole fraction of 2,3-dimethyl-2-butene	uncertainty
345.1	0.895	0.002

System: butan-2-ol + 2,3-dimethyl-2-butene; phases: Liquid, Gas
Property: Azeotropic composition: mole fraction of 2,3-dimethyl-2-butene (Liquid); method: By X=Y
Pressure, kPa	Azeotropic composition: mole fraction of 2,3-dimethyl-2-butene	uncertainty
101.8	0.895	0.002

System: butan-2-ol + 2,3-dimethyl-2-butene; phases: Liquid, Gas
Property: Boiling temperature at pressure P, K (Liquid); method: EBULLIO:UFactor:16
Mole fraction of 2,3-dimethyl-2-butene	Pressure, kPa	Boiling temperature at pressure P, K	uncertainty
0	102.1	372.61	0.49
0.0103	101.2	371.05	0.49
0.015	101.2	370.44	0.49
0.0224	101.2	369.56	0.49
0.0375	101.2	367.95	0.49
0.0544	101.2	366.25	0.49
0.068	101.3	365.06	0.49
0.09	101.4	362.95	0.49
0.1146	101.3	361.23	0.49
0.1348	101.3	359.74	0.49
0.159	101.3	358.28	0.49
0.2123	101.3	355.52	0.49
0.2407	101.3	354.24	0.49
0.2908	101.3	352.41	0.49
0.3263	101.7	351.51	0.49
0.3917	101.7	349.9	0.49
0.4652	101.7	348.49	0.49
0.539	101.7	347.44	0.49
0.6887	101.7	346.54	0.49
0.7448	101.7	345.92	0.49
0.7885	101.7	345.54	0.49
0.8375	101.8	345.24	0.49
0.8764	101.8	345.11	0.49
0.9189	102.1	345.24	0.49
0.9706	102.1	345.76	0.49
0.986	102.1	346.09	0.49
1	102.1	346.49	0.49

System: butan-2-ol + 2,3-dimethyl-2-butene; phases: Gas, Liquid
Property: Mole fraction of 2,3-dimethyl-2-butene (Gas); method: Chromatography
Mole fraction of 2,3-dimethyl-2-butene	Pressure, kPa	Mole fraction of 2,3-dimethyl-2-butene	uncertainty
0	102.1	0	0.0001
0.0103	101.2	0.0611	0.006
0.015	101.2	0.0868	0.006
0.0224	101.2	0.1223	0.0061
0.0375	101.2	0.1991	0.0062
0.0544	101.2	0.2598	0.0064
0.068	101.3	0.3014	0.0066
0.09	101.4	0.375	0.0069
0.1146	101.3	0.4277	0.0072
0.1348	101.3	0.474	0.0074
0.159	101.3	0.5114	0.0075
0.2123	101.3	0.5858	0.0072
0.2407	101.3	0.6125	0.0071
0.2908	101.3	0.6561	0.0069
0.3263	101.7	0.6784	0.0068
0.3917	101.7	0.7184	0.0067
0.4652	101.7	0.7521	0.0065
0.539	101.7	0.7769	0.0064
0.6887	101.7	0.8009	0.05
0.7448	101.7	0.8402	0.0063
0.7885	101.7	0.8548	0.0062
0.8375	101.8	0.8695	0.0062
0.8764	101.8	0.8859	0.0061
0.9189	102.1	0.9065	0.0061
0.9706	102.1	0.9536	0.006
0.986	102.1	0.9757	0.006
1	102.1	1	0.0001
