Measured thermophysical data. Density, Surface Tension, and Refractive Index of Octane + 1-Alkanol Mixtures at T ) 298.15 K.
Source: J. Chem. Eng. Data, 2003, 10.1021/je034053i
Compound 1: octane, C8H18, InChI=1S/C8H18/c1-3-5-7-8-6-4-2/h3-8H2,1-2H3
Compound 2: ethanol, C2H6O, InChI=1S/C2H6O/c1-2-3/h3H,2H2,1H3
Compound 3: propan-1-ol, C3H8O, InChI=1S/C3H8O/c1-2-3-4/h4H,2-3H2,1H3
Compound 4: butan-1-ol, C4H10O, InChI=1S/C4H10O/c1-2-3-4-5/h5H,2-4H2,1H3
Compound 5: pentan-1-ol, C5H12O, InChI=1S/C5H12O/c1-2-3-4-5-6/h6H,2-5H2,1H3
Compound 6: hexan-1-ol, C6H14O, InChI=1S/C6H14O/c1-2-3-4-5-6-7/h7H,2-6H2,1H3
Compound 7: heptan-1-ol, C7H16O, InChI=1S/C7H16O/c1-2-3-4-5-6-7-8/h8H,2-7H2,1H3
Compound 8: octan-1-ol, C8H18O, InChI=1S/C8H18O/c1-2-3-4-5-6-7-8-9/h9H,2-8H2,1H3

System: octane; phases: Liquid
Property: Refractive index (Na D-line) (Liquid); method: Standard Abbe refractometry
Temperature, K	Pressure, kPa	Refractive index (Na D-line)	uncertainty
298.15	101.325	1.3951	0.0003

System: octane; phases: Liquid
Property: Mass density, kg/m3 (Liquid); method: VIBTUB:UFactor:16
Temperature, K	Pressure, kPa	Mass density, kg/m3	uncertainty
298.15	101.325	698.5	2.43

System: octane; phases: Liquid, Air at 1 atmosphere
Property: Surface tension liquid-gas, N/m (Liquid); method: Drop volume
Temperature, K	Surface tension liquid-gas, N/m	uncertainty
298.15	0.02117	0.00014

System: ethanol; phases: Liquid
Property: Refractive index (Na D-line) (Liquid); method: Standard Abbe refractometry
Temperature, K	Pressure, kPa	Refractive index (Na D-line)	uncertainty
298.15	101.325	1.3593	0.0003

System: ethanol; phases: Liquid
Property: Mass density, kg/m3 (Liquid); method: VIBTUB:UFactor:16
Temperature, K	Pressure, kPa	Mass density, kg/m3	uncertainty
298.15	101.325	785.15	1.87

System: ethanol; phases: Liquid, Air at 1 atmosphere
Property: Surface tension liquid-gas, N/m (Liquid); method: Drop volume
Temperature, K	Surface tension liquid-gas, N/m	uncertainty
298.15	0.02174	0.00014

System: propan-1-ol; phases: Liquid
Property: Refractive index (Na D-line) (Liquid); method: Standard Abbe refractometry
Temperature, K	Pressure, kPa	Refractive index (Na D-line)	uncertainty
298.15	101.325	1.383	0.0003

System: propan-1-ol; phases: Liquid
Property: Mass density, kg/m3 (Liquid); method: VIBTUB:UFactor:16
Temperature, K	Pressure, kPa	Mass density, kg/m3	uncertainty
298.15	101.325	799.62	1.79

System: propan-1-ol; phases: Liquid, Air at 1 atmosphere
Property: Surface tension liquid-gas, N/m (Liquid); method: Drop volume
Temperature, K	Surface tension liquid-gas, N/m	uncertainty
298.15	0.02339	0.00015

System: butan-1-ol; phases: Liquid
Property: Refractive index (Na D-line) (Liquid); method: Standard Abbe refractometry
Temperature, K	Pressure, kPa	Refractive index (Na D-line)	uncertainty
298.15	101.325	1.3973	0.0003

System: butan-1-ol; phases: Liquid
Property: Mass density, kg/m3 (Liquid); method: VIBTUB:UFactor:16
Temperature, K	Pressure, kPa	Mass density, kg/m3	uncertainty
298.15	101.325	805.76	1.75

System: butan-1-ol; phases: Liquid, Air at 1 atmosphere
Property: Surface tension liquid-gas, N/m (Liquid); method: Drop volume
Temperature, K	Surface tension liquid-gas, N/m	uncertainty
298.15	0.02402	0.00015

System: pentan-1-ol; phases: Liquid
Property: Refractive index (Na D-line) (Liquid); method: Standard Abbe refractometry
Temperature, K	Pressure, kPa	Refractive index (Na D-line)	uncertainty
298.15	101.325	1.408	0.0004

System: pentan-1-ol; phases: Liquid
Property: Mass density, kg/m3 (Liquid); method: VIBTUB:UFactor:16
Temperature, K	Pressure, kPa	Mass density, kg/m3	uncertainty
298.15	101.325	810.83	1.75

System: pentan-1-ol; phases: Liquid, Air at 1 atmosphere
Property: Surface tension liquid-gas, N/m (Liquid); method: Drop volume
Temperature, K	Surface tension liquid-gas, N/m	uncertainty
298.15	0.02497	0.00019

System: hexan-1-ol; phases: Liquid
Property: Refractive index (Na D-line) (Liquid); method: Standard Abbe refractometry
Temperature, K	Pressure, kPa	Refractive index (Na D-line)	uncertainty
298.15	101.325	1.4159	0.0004

System: hexan-1-ol; phases: Liquid
Property: Mass density, kg/m3 (Liquid); method: VIBTUB:UFactor:16
Temperature, K	Pressure, kPa	Mass density, kg/m3	uncertainty
298.15	101.325	815.15	1.73

System: hexan-1-ol; phases: Liquid, Air at 1 atmosphere
Property: Surface tension liquid-gas, N/m (Liquid); method: Drop volume
Temperature, K	Surface tension liquid-gas, N/m	uncertainty
298.15	0.02573	0.0002

System: heptan-1-ol; phases: Liquid
Property: Refractive index (Na D-line) (Liquid); method: Standard Abbe refractometry
Temperature, K	Pressure, kPa	Refractive index (Na D-line)	uncertainty
298.15	101.325	1.4224	0.0004

System: heptan-1-ol; phases: Liquid
Property: Mass density, kg/m3 (Liquid); method: VIBTUB:UFactor:16
Temperature, K	Pressure, kPa	Mass density, kg/m3	uncertainty
298.15	101.325	818.75	1.7

System: heptan-1-ol; phases: Liquid, Air at 1 atmosphere
Property: Surface tension liquid-gas, N/m (Liquid); method: Drop volume
Temperature, K	Surface tension liquid-gas, N/m	uncertainty
298.15	0.02647	0.0002

System: octan-1-ol; phases: Liquid
Property: Refractive index (Na D-line) (Liquid); method: Standard Abbe refractometry
Temperature, K	Pressure, kPa	Refractive index (Na D-line)	uncertainty
298.15	101.325	1.4274	0.0003

System: octan-1-ol; phases: Liquid
Property: Mass density, kg/m3 (Liquid); method: VIBTUB:UFactor:16
Temperature, K	Pressure, kPa	Mass density, kg/m3	uncertainty
298.15	101.325	821.63	1.65

System: octan-1-ol; phases: Liquid, Air at 1 atmosphere
Property: Surface tension liquid-gas, N/m (Liquid); method: Drop volume
Temperature, K	Surface tension liquid-gas, N/m	uncertainty
298.15	0.02713	0.00017

System: ethanol + octane; phases: Liquid, Air at 1 atmosphere
Fixed: Temperature, K = 298.15
Property: Surface tension liquid-gas, N/m (Liquid); method: Drop volume
Mole fraction of octane	Surface tension liquid-gas, N/m	uncertainty
0.0686	0.02137	0.00018
0.1132	0.0212	0.00018
0.1721	0.02106	0.00018
0.2867	0.02088	0.00018
0.3571	0.02082	0.00018
0.4544	0.02077	0.00018
0.4898	0.02077	0.00018
0.5401	0.02078	0.00018
0.5865	0.02079	0.00018
0.6299	0.0208	0.00018
0.6457	0.02081	0.00018
0.669	0.02084	0.00018
0.765	0.02089	0.00018
0.8041	0.02092	0.00018
0.8191	0.02094	0.00018
0.9095	0.02101	0.00018
0.9212	0.02105	0.00018

System: ethanol + octane; phases: Liquid
Fixed: Temperature, K = 298.15
Fixed: Pressure, kPa = 101.3
Property: Refractive index (Na D-line) (Liquid); method: Standard Abbe refractometry
Mole fraction of octane	Refractive index (Na D-line)	uncertainty
0.0686	1.3641	0.0004
0.1132	1.367	0.0004
0.1721	1.3705	0.0004
0.1834	1.3711	0.0004
0.2867	1.3762	0.0004
0.35	1.3789	0.0004
0.3571	1.3792	0.0004
0.4544	1.3827	0.0004
0.4898	1.3839	0.0004
0.5401	1.3853	0.0004
0.5865	1.3866	0.0004
0.6299	1.3877	0.0004
0.6457	1.388	0.0004
0.669	1.3885	0.0004
0.765	1.3906	0.0004
0.8191	1.3917	0.0004
0.9095	1.3934	0.0004
0.9212	1.3939	0.0004

System: ethanol + octane; phases: Liquid
Fixed: Temperature, K = 298.15
Fixed: Pressure, kPa = 101.3
Property: Mass density, kg/m3 (Liquid); method: VIBTUB:UFactor:16
Mole fraction of octane	Mass density, kg/m3	uncertainty
0.0131	781.56	2.41
0.0523	771.81	2.49
0.0788	766.05	2.53
0.1433	758.82	2.59
0.1881	754.27	2.63
0.2228	747.52	2.68
0.2616	742.94	2.72
0.3011	738.29	2.76
0.3725	734.06	2.79
0.3985	727.44	2.85
0.4536	725.27	2.86
0.5175	721.13	2.9
0.5832	716.94	2.93
0.6709	713.14	2.96
0.7226	708.8	3
0.8201	706.53	3.02
0.8707	702.91	3.05

System: propan-1-ol + octane; phases: Liquid, Air at 1 atmosphere
Fixed: Temperature, K = 298.15
Property: Surface tension liquid-gas, N/m (Liquid); method: Drop volume
Mole fraction of octane	Surface tension liquid-gas, N/m	uncertainty
0.123	0.02238	0.00019
0.1859	0.02205	0.00019
0.2349	0.02181	0.00018
0.29	0.02166	0.00018
0.3454	0.02153	0.00018
0.3547	0.02151	0.00018
0.4493	0.02136	0.00018
0.5154	0.0213	0.00018
0.5218	0.02129	0.00018
0.6224	0.02122	0.00018
0.6308	0.02121	0.00018
0.6938	0.02121	0.00018
0.7592	0.02117	0.00018
0.7884	0.02117	0.00018
0.8449	0.02116	0.00018
0.8918	0.02116	0.00018
0.9245	0.02116	0.00018

System: propan-1-ol + octane; phases: Liquid
Fixed: Temperature, K = 298.15
Fixed: Pressure, kPa = 101.3
Property: Refractive index (Na D-line) (Liquid); method: Standard Abbe refractometry
Mole fraction of octane	Refractive index (Na D-line)	uncertainty
0.0237	1.3835	0.0004
0.123	1.3852	0.0004
0.1859	1.3862	0.0004
0.2349	1.3869	0.0004
0.29	1.3877	0.0004
0.3454	1.3884	0.0004
0.3547	1.3885	0.0004
0.4493	1.3896	0.0004
0.5154	1.3903	0.0004
0.5218	1.3904	0.0004
0.6224	1.3914	0.0004
0.6308	1.3915	0.0004
0.6938	1.3921	0.0004
0.7592	1.3927	0.0004
0.7884	1.393	0.0004
0.8449	1.3935	0.0004
0.8918	1.394	0.0004
0.9245	1.3943	0.0004

System: butan-1-ol + octane; phases: Liquid, Air at 1 atmosphere
Fixed: Temperature, K = 298.15
Property: Surface tension liquid-gas, N/m (Liquid); method: Drop volume
Mole fraction of octane	Surface tension liquid-gas, N/m	uncertainty
0.0453	0.02365	0.00019
0.113	0.02315	0.00019
0.1636	0.02284	0.00019
0.1788	0.02274	0.00019
0.2956	0.0222	0.00019
0.3281	0.02208	0.00019
0.3526	0.02199	0.00019
0.4467	0.02173	0.00018
0.4857	0.02165	0.00018
0.5747	0.02149	0.00018
0.5886	0.02149	0.00018
0.6326	0.02142	0.00018
0.6918	0.02136	0.00018
0.777	0.02129	0.00018
0.8167	0.02128	0.00018
0.865	0.02124	0.00018
0.9376	0.02121	0.00018

System: butan-1-ol + octane; phases: Liquid
Fixed: Temperature, K = 298.15
Fixed: Pressure, kPa = 101.3
Property: Refractive index (Na D-line) (Liquid); method: Standard Abbe refractometry
Mole fraction of octane	Refractive index (Na D-line)	uncertainty
0.0453	1.397	0.0004
0.113	1.3966	0.0004
0.1636	1.3964	0.0004
0.1788	1.3963	0.0004
0.2956	1.3957	0.0004
0.3526	1.3955	0.0004
0.4467	1.3952	0.0004
0.4857	1.3951	0.0004
0.5747	1.3949	0.0004
0.6326	1.3948	0.0004
0.6918	1.3948	0.0004
0.777	1.3948	0.0004
0.8167	1.3948	0.0004
0.865	1.3948	0.0004
0.9376	1.3949	0.0004

System: pentan-1-ol + octane; phases: Liquid, Air at 1 atmosphere
Fixed: Temperature, K = 298.15
Property: Surface tension liquid-gas, N/m (Liquid); method: Drop volume
Mole fraction of octane	Surface tension liquid-gas, N/m	uncertainty
0.115	0.02388	0.00022
0.1459	0.0236	0.00021
0.1629	0.0235	0.00021
0.2727	0.0228	0.00021
0.3271	0.02254	0.0002
0.4586	0.02206	0.0002
0.4927	0.02196	0.0002
0.5188	0.02191	0.00019
0.5951	0.02175	0.00019
0.655	0.02165	0.00019
0.6713	0.02163	0.00019
0.7676	0.0215	0.00019
0.7932	0.02146	0.00019
0.834	0.02141	0.00019
0.8869	0.02135	0.00018
0.9457	0.02127	0.00018

System: pentan-1-ol + octane; phases: Liquid
Fixed: Temperature, K = 298.15
Fixed: Pressure, kPa = 101.3
Property: Refractive index (Na D-line) (Liquid); method: Standard Abbe refractometry
Mole fraction of octane	Refractive index (Na D-line)	uncertainty
0.0189	1.4075	0.0005
0.115	1.4058	0.0004
0.1459	1.4052	0.0004
0.1629	1.4049	0.0004
0.2727	1.403	0.0004
0.3271	1.4022	0.0004
0.4586	1.4003	0.0004
0.4927	1.3999	0.0004
0.5188	1.3996	0.0004
0.5951	1.3986	0.0004
0.655	1.3979	0.0004
0.6713	1.3977	0.0004
0.7676	1.3968	0.0004
0.7932	1.3966	0.0004
0.834	1.3963	0.0004
0.8869	1.3958	0.0004
0.9457	1.3955	0.0004

System: hexan-1-ol + octane; phases: Liquid, Air at 1 atmosphere
Fixed: Temperature, K = 298.15
Property: Surface tension liquid-gas, N/m (Liquid); method: Drop volume
Mole fraction of octane	Surface tension liquid-gas, N/m	uncertainty
0.0515	0.02519	0.00022
0.0944	0.02479	0.00022
0.16	0.02422	0.00022
0.1837	0.02403	0.00021
0.2785	0.02338	0.00021
0.3309	0.02308	0.0002
0.4619	0.02248	0.0002
0.4987	0.02232	0.0002
0.5049	0.0223	0.0002
0.5984	0.02202	0.00019
0.6717	0.02183	0.00019
0.7019	0.02174	0.00019
0.7478	0.02165	0.00019
0.7794	0.02158	0.00019
0.8504	0.02145	0.00019
0.895	0.02138	0.00018
0.959	0.02125	0.00018

System: hexan-1-ol + octane; phases: Liquid
Fixed: Temperature, K = 298.15
Fixed: Pressure, kPa = 101.3
Property: Refractive index (Na D-line) (Liquid); method: Standard Abbe refractometry
Mole fraction of octane	Refractive index (Na D-line)	uncertainty
0.0515	1.4147	0.0005
0.0944	1.4136	0.0005
0.16	1.4119	0.0004
0.1837	1.4113	0.0004
0.2785	1.4091	0.0004
0.3311	1.4079	0.0004
0.4619	1.4049	0.0004
0.4987	1.404	0.0004
0.5049	1.4039	0.0004
0.5984	1.402	0.0004
0.6717	1.4007	0.0004
0.7019	1.4	0.0004
0.7478	1.3992	0.0004
0.7794	1.3987	0.0004
0.8504	1.3974	0.0004
0.895	1.3966	0.0004
0.959	1.3956	0.0004

System: octane + heptan-1-ol; phases: Liquid, Air at 1 atmosphere
Fixed: Temperature, K = 298.15
Property: Surface tension liquid-gas, N/m (Liquid); method: Drop volume
Mole fraction of octane	Surface tension liquid-gas, N/m	uncertainty
0.0995	0.02535	0.00022
0.1699	0.02468	0.00022
0.1767	0.02463	0.00022
0.2957	0.02372	0.00021
0.3286	0.02352	0.00021
0.353	0.02337	0.00021
0.4567	0.02279	0.0002
0.4918	0.02265	0.0002
0.5587	0.02238	0.0002
0.5956	0.02224	0.00019
0.6564	0.02204	0.00019
0.6626	0.02201	0.00019
0.783	0.02168	0.00019
0.7981	0.02163	0.00019
0.8409	0.02153	0.00019
0.9111	0.02138	0.00018
0.958	0.02128	0.00018

System: octane + heptan-1-ol; phases: Liquid
Fixed: Temperature, K = 298.15
Fixed: Pressure, kPa = 101.3
Property: Refractive index (Na D-line) (Liquid); method: Standard Abbe refractometry
Mole fraction of octane	Refractive index (Na D-line)	uncertainty
0.0616	1.4205	0.0005
0.0995	1.4194	0.0005
0.1699	1.4174	0.0004
0.1767	1.417	0.0004
0.2957	1.4136	0.0004
0.3286	1.4126	0.0004
0.353	1.4119	0.0004
0.4567	1.4091	0.0004
0.4918	1.4081	0.0004
0.5587	1.4062	0.0004
0.5956	1.4051	0.0004
0.6564	1.4036	0.0004
0.6629	1.4034	0.0004
0.783	1.4002	0.0004
0.7981	1.3999	0.0004
0.8409	1.3988	0.0004
0.9111	1.3971	0.0004

System: octane + octan-1-ol; phases: Liquid, Air at 1 atmosphere
Fixed: Temperature, K = 298.15
Property: Surface tension liquid-gas, N/m (Liquid); method: Drop volume
Mole fraction of octane	Surface tension liquid-gas, N/m	uncertainty
0.0641	0.02639	0.0002
0.12	0.02583	0.0002
0.1378	0.02559	0.0002
0.1501	0.0255	0.0002
0.2923	0.02429	0.00019
0.3168	0.02411	0.00019
0.3554	0.02384	0.00019
0.4526	0.02323	0.00019
0.495	0.023	0.00019
0.5413	0.02276	0.00019
0.6269	0.02238	0.00019
0.6566	0.02224	0.00019
0.6897	0.02212	0.00019
0.7547	0.02188	0.00018
0.8114	0.0217	0.00018
0.8617	0.02155	0.00018
0.8832	0.02151	0.00018

System: octane + octan-1-ol; phases: Liquid
Fixed: Temperature, K = 298.15
Fixed: Pressure, kPa = 101.3
Property: Refractive index (Na D-line) (Liquid); method: Standard Abbe refractometry
Mole fraction of octane	Refractive index (Na D-line)	uncertainty
0.0641	1.4257	0.0004
0.1378	1.4231	0.0004
0.2923	1.418	0.0004
0.3168	1.4172	0.0004
0.3554	1.4159	0.0004
0.4526	1.4128	0.0004
0.495	1.4114	0.0004
0.5413	1.41	0.0004
0.6269	1.4072	0.0004
0.6566	1.4062	0.0004
0.6897	1.4051	0.0004
0.7547	1.403	0.0004
0.8114	1.4012	0.0004
0.8617	1.3995	0.0004
0.8832	1.3989	0.0004
0.9635	1.3961	0.0004
