Measured thermophysical data. Viscosities for Aqueous Solutions of N-Methyldiethanolamine from 313.15 to 363.15 K
Source: J. Chem. Eng. Data, 2004, 10.1021/je0302250
Compound 1: water, H2O, InChI=1S/H2O/h1H2, purity 99.95%
Compound 2: N-methyldiethanolamine, C5H13NO2, InChI=1S/C5H13NO2/c1-6(2-4-7)3-5-8/h7-8H,2-5H2,1H3, purity 99%

System: N-methyldiethanolamine; phases: Liquid
Fixed: Pressure, kPa = 101.3
Property: Viscosity, Pa*s (Liquid); method: Capillary tube (Ostwald; Ubbelohde) method
Temperature, K	Viscosity, Pa*s	uncertainty
313.15	0.034617	0.000409
333.15	0.014377	0.000171
353.15	0.007082	8.6e-05
363.15	0.005277	6.4e-05

System: N-methyldiethanolamine + water; phases: Liquid
Fixed: Pressure, kPa = 101.3
Property: Viscosity, Pa*s (Liquid); method: Capillary tube (Ostwald; Ubbelohde) method
Temperature, K	Mole fraction of N-methyldiethanolamine	Viscosity, Pa*s	uncertainty
313.15	0	0.000656	8e-06
313.15	0.06	0.00194	2.3e-05
313.15	0.09	0.003115	3.9e-05
313.15	0.129	0.005108	6.9e-05
313.15	0.257	0.015177	0.000185
313.15	0.372	0.024783	0.000284
313.15	0.583	0.034788	0.000393
313.15	0.743	0.035917	0.000407
313.15	1	0.034617	0.000409
333.15	0	0.000476	6e-06
333.15	0.06	0.001202	1.4e-05
333.15	0.09	0.001709	2.1e-05
333.15	0.129	0.002703	3.4e-05
333.15	0.257	0.0067	8.1e-05
333.15	0.372	0.010242	0.000116
333.15	0.583	0.013737	0.000158
333.15	0.743	0.014488	0.000166
333.15	1	0.014377	0.000171
353.15	0	0.000358	4e-06
353.15	0.06	0.000813	1e-05
353.15	0.09	0.001127	1.4e-05
353.15	0.129	0.00163	2e-05
353.15	0.257	0.003472	4.2e-05
353.15	0.372	0.004873	5.7e-05
353.15	0.583	0.006569	7.7e-05
353.15	0.743	0.007084	8.3e-05
353.15	1	0.007082	8.6e-05
363.15	0	0.000305	4e-06
363.15	0.06	0.000687	8e-06
363.15	0.09	0.000871	1e-05
363.15	0.129	0.001205	1.5e-05
363.15	0.257	0.002606	3.1e-05
363.15	0.372	0.003611	4.2e-05
363.15	0.583	0.004749	5.6e-05
363.15	0.743	0.005278	6.2e-05
363.15	1	0.005277	6.4e-05
