Measured thermophysical data. Solubility and Mass Transfer Coefficient Enhancement of Benzyl Acetate in Water through Hydrotropy
Source: J. Chem. Eng. Data, 2004, 10.1021/je0342872
Compound 1: benzyl ethanoate, C9H10O2, InChI=1S/C9H10O2/c1-8(10)11-7-9-5-3-2-4-6-9/h2-6H,7H2,1H3
Compound 2: water, H2O, InChI=1S/H2O/h1H2
Compound 3: citric acid, C6H8O7, InChI=1S/C6H8O7/c7-3(8)1-6(13,5(11)12)2-4(9)10/h13H,1-2H2,(H,7,8)(H,9,10)(H,11,12)
Compound 4: sodium benzoate, C7H5NaO2, InChI=1S/C7H6O2.Na/c8-7(9)6-4-2-1-3-5-6;/h1-5H,(H,8,9);/q;+1/p-1
Compound 5: sodium salicylate, C7H5NaO3, InChI=1S/C7H6O3.Na/c8-6-4-2-1-3-5(6)7(9)10;/h1-4,8H,(H,9,10);/q;+1/p-1
Compound 6: urea, CH4N2O, InChI=1S/CH4N2O/c2-1(3)4/h(H4,2,3,4)

System: citric acid + benzyl ethanoate + water; phases: Liquid mixture 1, Liquid mixture 2
Fixed: Pressure, kPa = 101.3
Property: Amount concentration (molarity), mol/dm3 of benzyl ethanoate (Liquid mixture 1); method: OTHER
Temperature, K	Solvent: Amount concentration (molarity), mol/dm3 of citric acid	Amount concentration (molarity), mol/dm3 of benzyl ethanoate	uncertainty
303	0	0.009184	0.004
303	0.1	0.009981	0.004
303	0.2	0.010012	0.004
303	0.3	0.011134	0.004
303	0.4	0.016423	0.004
303	0.5	0.019475	0.004
303	0.6	0.021946	0.004
303	0.7	0.025109	0.004
303	0.8	0.026944	0.004
303	0.9	0.029415	0.004
303	1	0.033272	0.004
303	1.2	0.041561	0.004
303	1.4	0.051913	0.004
303	1.6	0.059765	0.004
303	1.8	0.067129	0.004
303	2	0.076587	0.004
303	2.25	0.079142	0.004
303	2.5	0.085313	0.004
303	2.75	0.085311	0.004
303	3	0.085311	0.004
313	0	0.00936	0.004
313	0.1	0.010063	0.004
313	0.2	0.010311	0.004
313	0.3	0.012079	0.004
313	0.4	0.018178	0.004
313	0.5	0.025187	0.004
313	0.6	0.035284	0.004
313	0.7	0.042465	0.004
313	0.8	0.048946	0.004
313	0.9	0.051355	0.004
313	1	0.055914	0.004
313	1.2	0.063171	0.004
313	1.4	0.074487	0.004
313	1.6	0.081348	0.004
313	1.8	0.089216	0.004
313	2	0.098375	0.004
313	2.25	0.103563	0.004143
313	2.5	0.109271	0.004371
313	2.75	0.10927	0.004371
313	3	0.10927	0.004371
323	0	0.009792	0.004
323	0.1	0.010072	0.004
323	0.2	0.010403	0.004
323	0.3	0.01461	0.004
323	0.4	0.01946	0.004
323	0.5	0.033175	0.004
323	0.6	0.049424	0.004
323	0.7	0.058475	0.004
323	0.8	0.088163	0.004
323	0.9	0.116425	0.004657
323	1	0.119546	0.004782
323	1.2	0.128386	0.005135
323	1.4	0.139618	0.005585
323	1.6	0.147279	0.005891
323	1.8	0.158314	0.006333
323	2	0.164566	0.006583
323	2.25	0.169798	0.006792
323	2.5	0.173251	0.00693
323	2.75	0.173251	0.00693
323	3	0.173265	0.006931
333	0	0.009904	0.004
333	0.1	0.010146	0.004
333	0.2	0.010234	0.004
333	0.3	0.016208	0.004
333	0.4	0.021909	0.004
333	0.5	0.042706	0.004
333	0.6	0.059505	0.004
333	0.7	0.087404	0.004
333	0.8	0.106201	0.004248
333	0.9	0.126958	0.005078
333	1	0.147755	0.00591
333	1.2	0.169951	0.006798
333	1.4	0.17845	0.007138
333	1.6	0.18985	0.007594
333	1.8	0.194659	0.007786
333	2	0.198456	0.007938
333	2.25	0.201305	0.008052
333	2.5	0.207432	0.008297
333	2.75	0.207454	0.008298
333	3	0.207464	0.008299

System: benzyl ethanoate + sodium benzoate + water; phases: Liquid mixture 1, Liquid mixture 2
Fixed: Pressure, kPa = 101.3
Property: Amount concentration (molarity), mol/dm3 of benzyl ethanoate (Liquid mixture 1); method: OTHER
Temperature, K	Solvent: Amount concentration (molarity), mol/dm3 of sodium benzoate	Amount concentration (molarity), mol/dm3 of benzyl ethanoate	uncertainty
303	0	0.009184	0.004
303	0.1	0.009281	0.004
303	0.2	0.009301	0.004
303	0.3	0.00983	0.004
303	0.4	0.01022	0.004
303	0.5	0.011472	0.004
303	0.6	0.011943	0.004
303	0.7	0.012409	0.004
303	0.8	0.012948	0.004
303	0.9	0.013461	0.004
303	1	0.014525	0.004
303	1.2	0.016263	0.004
303	1.4	0.018923	0.004
303	1.6	0.020463	0.004
303	1.8	0.021626	0.004
303	2	0.024589	0.004
303	2.25	0.028146	0.004
303	2.5	0.030369	0.004
303	2.75	0.030369	0.004
303	3	0.030369	0.004
313	0	0.009361	0.004
313	0.1	0.009462	0.004
313	0.2	0.009612	0.004
313	0.3	0.010012	0.004
313	0.4	0.011314	0.004
313	0.5	0.012516	0.004
313	0.6	0.013014	0.004
313	0.7	0.01457	0.004
313	0.8	0.016096	0.004
313	0.9	0.018341	0.004
313	1	0.021912	0.004
313	1.2	0.023178	0.004
313	1.4	0.034483	0.004
313	1.6	0.041349	0.004
313	1.8	0.049215	0.004
313	2	0.058374	0.004
313	2.25	0.063562	0.004
313	2.5	0.069278	0.004
313	2.75	0.069278	0.004
313	3	0.069285	0.004
323	0	0.009792	0.004
323	0.1	0.010075	0.004
323	0.2	0.010456	0.004
323	0.3	0.014612	0.004
323	0.4	0.019463	0.004
323	0.5	0.023176	0.004
323	0.6	0.025424	0.004
323	0.7	0.027478	0.004
323	0.8	0.033169	0.004
323	0.9	0.036423	0.004
323	1	0.03954	0.004
323	1.2	0.048389	0.004
323	1.4	0.059612	0.004
323	1.6	0.067278	0.004
323	1.8	0.078316	0.004
323	2	0.084266	0.004
323	2.25	0.089569	0.004
323	2.5	0.093275	0.004
323	2.75	0.093276	0.004
323	3	0.093275	0.004
333	0	0.009904	0.004
333	0.1	0.010146	0.004
333	0.2	0.010234	0.004
333	0.3	0.021203	0.004
333	0.4	0.034902	0.004
333	0.5	0.046708	0.004
333	0.6	0.04956	0.004
333	0.7	0.051403	0.004
333	0.8	0.065203	0.004
333	0.9	0.06956	0.004
333	1	0.073752	0.004
333	1.2	0.088954	0.004
333	1.4	0.098453	0.004
333	1.6	0.109852	0.004394
333	1.8	0.114653	0.004586
333	2	0.118459	0.004738
333	2.25	0.121564	0.004863
333	2.5	0.127436	0.005097
333	2.75	0.127456	0.005098
333	3	0.127456	0.005098

System: sodium salicylate + benzyl ethanoate + water; phases: Liquid mixture 1, Liquid mixture 2
Fixed: Pressure, kPa = 101.3
Property: Amount concentration (molarity), mol/dm3 of benzyl ethanoate (Liquid mixture 1); method: OTHER
Temperature, K	Solvent: Amount concentration (molarity), mol/dm3 of sodium salicylate	Amount concentration (molarity), mol/dm3 of benzyl ethanoate	uncertainty
303	0	0.009184	0.004
303	0.1	0.009538	0.004
303	0.2	0.009781	0.004
303	0.3	0.010482	0.004
303	0.4	0.01102	0.004
303	0.5	0.011143	0.004
303	0.6	0.013389	0.004
303	0.7	0.01578	0.004
303	0.8	0.01834	0.004
303	0.9	0.02162	0.004
303	1	0.02654	0.004
303	1.2	0.02856	0.004
303	1.4	0.03139	0.004
303	1.6	0.03317	0.004
303	1.8	0.03974	0.004
303	2	0.04438	0.004
303	2.25	0.04936	0.004
303	2.5	0.05319	0.004
303	2.75	0.0532	0.004
303	3	0.05321	0.004
313	0	0.00936	0.004
313	0.1	0.009521	0.004
313	0.2	0.009873	0.004
313	0.3	0.010683	0.004
313	0.4	0.010936	0.004
313	0.5	0.011871	0.004
313	0.6	0.015526	0.004
313	0.7	0.023618	0.004
313	0.8	0.02856	0.004
313	0.9	0.03391	0.004
313	1	0.03643	0.004
313	1.2	0.04312	0.004
313	1.4	0.05042	0.004
313	1.6	0.05819	0.004
313	1.8	0.06806	0.004
313	2	0.07431	0.004
313	2.25	0.07816	0.004
313	2.5	0.08013	0.004
313	2.75	0.08014	0.004
313	3	0.08016	0.004
323	0	0.009792	0.004
323	0.1	0.009816	0.004
323	0.2	0.009918	0.004
323	0.3	0.010526	0.004
323	0.4	0.01087	0.004
323	0.5	0.010619	0.004
323	0.6	0.018564	0.004
323	0.7	0.025461	0.004
323	0.8	0.0352	0.004
323	0.9	0.049951	0.004
323	1	0.053752	0.004
323	1.2	0.06895	0.004
323	1.4	0.088453	0.004
323	1.6	0.099858	0.004
323	1.8	0.104651	0.004186
323	2	0.108451	0.004338
323	2.25	0.1113	0.004452
323	2.5	0.1189	0.004756
323	2.75	0.1189	0.004756
323	3	0.1189	0.004756
333	0	0.009904	0.004
333	0.1	0.009981	0.004
333	0.2	0.009994	0.004
333	0.3	0.010521	0.004
333	0.4	0.01161	0.004
333	0.5	0.01194	0.004
333	0.6	0.025865	0.004
333	0.7	0.039362	0.004
333	0.8	0.056123	0.004
333	0.9	0.062764	0.004
333	1	0.075893	0.004
333	1.2	0.090321	0.004
333	1.4	0.101562	0.004062
333	1.6	0.123952	0.004958
333	1.8	0.130163	0.005207
333	2	0.13432	0.005373
333	2.25	0.14511	0.005804
333	2.5	0.14518	0.005807
333	2.75	0.14528	0.005811
333	3	0.14521	0.005808

System: urea + benzyl ethanoate + water; phases: Liquid mixture 1, Liquid mixture 2
Fixed: Pressure, kPa = 101.3
Property: Amount concentration (molarity), mol/dm3 of benzyl ethanoate (Liquid mixture 1); method: OTHER
Temperature, K	Solvent: Amount concentration (molarity), mol/dm3 of urea	Amount concentration (molarity), mol/dm3 of benzyl ethanoate	uncertainty
303	0	0.009184	0.006
303	0.1	0.00928	0.006
303	0.2	0.009506	0.006
303	0.3	0.009732	0.006
303	0.4	0.009624	0.006
303	0.5	0.010776	0.006
303	0.6	0.012564	0.006
303	0.7	0.014532	0.006
303	0.8	0.016512	0.006
303	0.9	0.01836	0.006
303	1	0.020244	0.006
303	1.2	0.02604	0.006
303	1.4	0.033672	0.006
303	1.6	0.04523	0.006
303	1.8	0.0576	0.006
303	2	0.067224	0.006
303	2.25	0.06798	0.006
303	2.5	0.068348	0.006
303	2.75	0.068398	0.006
303	3	0.0684	0.006
313	0	0.00936	0.006
313	0.1	0.00951	0.006
313	0.2	0.00981	0.006
313	0.3	0.009908	0.006
313	0.4	0.010848	0.006
313	0.5	0.012528	0.006
313	0.6	0.016872	0.006
313	0.7	0.020544	0.006
313	0.8	0.021684	0.006
313	0.9	0.028836	0.006
313	1	0.031572	0.006
313	1.2	0.0474	0.006
313	1.4	0.053156	0.006
313	1.6	0.059368	0.006
313	1.8	0.068772	0.006
313	2	0.096576	0.006
313	2.25	0.097428	0.006
313	2.5	0.09846	0.006
313	2.75	0.09846	0.006
313	3	0.098466	0.006
323	0	0.009792	0.006
323	0.1	0.010011	0.006
323	0.2	0.010021	0.006
323	0.3	0.010612	0.006
323	0.4	0.0117	0.006
323	0.5	0.015792	0.006
323	0.6	0.023976	0.006
323	0.7	0.026688	0.006
323	0.8	0.0285	0.006
323	0.9	0.036048	0.006
323	1	0.04875	0.006
323	1.2	0.086156	0.006
323	1.4	0.108932	0.006
323	1.6	0.119468	0.006
323	1.8	0.13968	0.006
323	2	0.155344	0.006214
323	2.25	0.15532	0.006213
323	2.5	0.15586	0.006234
323	2.75	0.155908	0.006236
323	3	0.155956	0.006238
333	0	0.009904	0.006
333	0.1	0.010162	0.006
333	0.2	0.010948	0.006
333	0.3	0.011784	0.006
333	0.4	0.015744	0.006
333	0.5	0.020208	0.006
333	0.6	0.02646	0.006
333	0.7	0.028956	0.006
333	0.8	0.038496	0.006
333	0.9	0.050328	0.006
333	1	0.068028	0.006
333	1.2	0.103156	0.006
333	1.4	0.111988	0.006
333	1.6	0.133404	0.006
333	1.8	0.15776	0.00631
333	2	0.171828	0.006873
333	2.25	0.17226	0.00689
333	2.5	0.172416	0.006897
333	2.75	0.1737	0.006948
333	3	0.173796	0.006952
