Measured thermophysical data. Measurements of Water Solubilities and 1-Octanol/Water Partition  Coefficients and Estimations of Henry s Law Constants for  Brominated Benzenes
Source: J. Chem. Eng. Data, 2004, 10.1021/je0342724
Compound 1: water, H2O, InChI=1S/H2O/h1H2, purity 99.9%
Compound 2: octan-1-ol, C8H18O, InChI=1S/C8H18O/c1-2-3-4-5-6-7-8-9/h9H,2-8H2,1H3
Compound 3: 1,4-dibromobenzene, C6H4Br2, InChI=1S/C6H4Br2/c7-5-1-2-6(8)4-3-5/h1-4H, purity 97%
Compound 4: 1,2,4-tribromobenzene, C6H3Br3, InChI=1S/C6H3Br3/c7-4-1-2-5(8)6(9)3-4/h1-3H, purity 98%
Compound 5: 1,2,4,5-tetrabromobenzene, C6H2Br4, InChI=1S/C6H2Br4/c7-3-1-4(8)6(10)2-5(3)9/h1-2H, purity 97%
Compound 6: hexabromobenzene, C6Br6, InChI=1S/C6Br6/c7-1-2(8)4(10)6(12)5(11)3(1)9, purity 98%

System: 1,4-dibromobenzene; phases: Crystal, Liquid, Air at 1 atmosphere
Property: Normal melting temperature, K (Crystal); method: DTA
Normal melting temperature, K	uncertainty
357.7	1.1

System: 1,4-dibromobenzene; phases: Crystal, Liquid, Air at 1 atmosphere
Property: Molar enthalpy of transition or fusion, kJ/mol (Crystal); method: DSC
Molar enthalpy of transition or fusion, kJ/mol	uncertainty
18.6	1.9

System: 1,2,4-tribromobenzene; phases: Crystal, Liquid, Air at 1 atmosphere
Property: Normal melting temperature, K (Crystal); method: DTA
Normal melting temperature, K	uncertainty
317	1.1

System: 1,2,4-tribromobenzene; phases: Crystal, Liquid, Air at 1 atmosphere
Property: Molar enthalpy of transition or fusion, kJ/mol (Crystal); method: DSC
Molar enthalpy of transition or fusion, kJ/mol	uncertainty
17.9	1.8

System: 1,2,4,5-tetrabromobenzene; phases: Crystal, Liquid, Air at 1 atmosphere
Property: Normal melting temperature, K (Crystal); method: DTA
Normal melting temperature, K	uncertainty
454.5	1.1

System: 1,2,4,5-tetrabromobenzene; phases: Crystal, Liquid, Air at 1 atmosphere
Property: Molar enthalpy of transition or fusion, kJ/mol (Crystal); method: DSC
Molar enthalpy of transition or fusion, kJ/mol	uncertainty
24.4	2.5

System: hexabromobenzene; phases: Crystal, Liquid, Air at 1 atmosphere
Property: Normal melting temperature, K (Crystal); method: DTA
Normal melting temperature, K	uncertainty
598.8	1.1

System: hexabromobenzene; phases: Crystal, Liquid, Air at 1 atmosphere
Property: Molar enthalpy of transition or fusion, kJ/mol (Crystal); method: DSC
Molar enthalpy of transition or fusion, kJ/mol	uncertainty
24.6	2.5

System: 1,4-dibromobenzene + water; phases: Liquid, Crystal
Fixed: Pressure, kPa = 101
Property: Mass concentration, kg/m3 of 1,4-dibromobenzene (Liquid); method: Chromatography
Temperature, K	Mass concentration, kg/m3 of 1,4-dibromobenzene	uncertainty
283	0.00991	0.00021
298	0.017	0.0004
308	0.0246	0.0004

System: 1,2,4-tribromobenzene + water; phases: Liquid, Crystal
Fixed: Pressure, kPa = 101
Property: Mass concentration, kg/m3 of 1,2,4-tribromobenzene (Liquid); method: Chromatography
Temperature, K	Mass concentration, kg/m3 of 1,2,4-tribromobenzene	uncertainty
283	0.00367	0.00014
298	0.00721	0.0002
308	0.011	0.0004

System: 1,2,4,5-tetrabromobenzene + water; phases: Liquid, Crystal
Fixed: Pressure, kPa = 101
Property: Mass concentration, kg/m3 of 1,2,4,5-tetrabromobenzene (Liquid); method: Chromatography
Temperature, K	Mass concentration, kg/m3 of 1,2,4,5-tetrabromobenzene	uncertainty
283	1.86e-05	4e-07
298	4.35e-05	1.2e-06
308	7.78e-05	5e-07

System: hexabromobenzene + water; phases: Liquid, Crystal
Fixed: Pressure, kPa = 101
Property: Mass concentration, kg/m3 of hexabromobenzene (Liquid); method: Chromatography
Temperature, K	Mass concentration, kg/m3 of hexabromobenzene	uncertainty
283	4.72e-08	6.2e-09
298	1.1e-07	1e-08
308	2.32e-07	1.6e-08

System: 1,4-dibromobenzene + octan-1-ol + water; phases: Liquid, Liquid
Property: Amount concentration (molarity), mol/dm3 of 1,4-dibromobenzene (Liquid); method: HPLC
Temperature, K	Pressure, kPa	Amount concentration (molarity), mol/dm3 of 1,4-dibromobenzene	Amount concentration (molarity), mol/dm3 of 1,4-dibromobenzene	uncertainty
298	101	0	4240	1544

System: octan-1-ol + 1,2,4-tribromobenzene + water; phases: Liquid, Liquid
Property: Amount concentration (molarity), mol/dm3 of octan-1-ol (Liquid); method: HPLC
Temperature, K	Pressure, kPa	Amount concentration (molarity), mol/dm3 of octan-1-ol	Amount concentration (molarity), mol/dm3 of octan-1-ol	uncertainty
298	101	0	21200	7740

System: octan-1-ol + 1,2,4,5-tetrabromobenzene + water; phases: Liquid, Liquid
Property: Amount concentration (molarity), mol/dm3 of octan-1-ol (Liquid); method: HPLC
Temperature, K	Pressure, kPa	Amount concentration (molarity), mol/dm3 of octan-1-ol	Amount concentration (molarity), mol/dm3 of octan-1-ol	uncertainty
298	101	0	102000	37000

System: hexabromobenzene + octan-1-ol + water; phases: Liquid, Liquid
Property: Amount concentration (molarity), mol/dm3 of octan-1-ol (Liquid); method: HPLC
Temperature, K	Pressure, kPa	Amount concentration (molarity), mol/dm3 of octan-1-ol	Amount concentration (molarity), mol/dm3 of octan-1-ol	uncertainty
298	101	0	1190000	436000
