Measured thermophysical data. Dynamic Viscosities, Densities, and Speed of Sound and Derived Properties of the Binary Systems Acetic Acid with Water, Methanol, Ethanol, Ethyl Acetate and Methyl Acetate at T = (293.15, 298.15, and 303.15) K at Atmospheric Pressure
Source: J. Chem. Eng. Data, 2004, 10.1021/je0342825
Compound 1: acetic acid, C2H4O2, InChI=1S/C2H4O2/c1-2(3)4/h1H3,(H,3,4), purity 99%
Compound 2: ethyl acetate, C4H8O2, InChI=1S/C4H8O2/c1-3-6-4(2)5/h3H2,1-2H3, purity 99.8%
Compound 3: methyl ethanoate, C3H6O2, InChI=1S/C3H6O2/c1-3(4)5-2/h1-2H3, purity 99%
Compound 4: ethanol, C2H6O, InChI=1S/C2H6O/c1-2-3/h3H,2H2,1H3, purity 99.8%
Compound 5: methanol, CH4O, InChI=1S/CH4O/c1-2/h2H,1H3, purity 99.8%
Compound 6: water, H2O, InChI=1S/H2O/h1H2

System: acetic acid; phases: Liquid
Fixed: Pressure, kPa = 101.3
Property: Viscosity, Pa*s (Liquid); method: CAPTUB:UFactor:2
Temperature, K	Viscosity, Pa*s	uncertainty
293.15	0.001211	1.6e-05
298.15	0.001115	1.5e-05
303.15	0.001034	1.4e-05

System: acetic acid; phases: Liquid
Fixed: Pressure, kPa = 101.3
Property: Speed of sound, m/s (Liquid); method: FPINT:UFactor:2
Temperature, K	Speed of sound, m/s	uncertainty
293.15	1149	2
298.15	1132	2
303.15	1115	2

System: acetic acid; phases: Liquid
Fixed: Pressure, kPa = 101.3
Property: Mass density, kg/m3 (Liquid); method: VIBTUB:UFactor:4
Temperature, K	Mass density, kg/m3	uncertainty
293.15	1049.3	0.57
298.15	1043.65	0.56
303.15	1038	0.56

System: ethyl acetate; phases: Liquid
Fixed: Pressure, kPa = 101.3
Property: Viscosity, Pa*s (Liquid); method: CAPTUB::UFactor:2
Temperature, K	Viscosity, Pa*s	uncertainty
293.15	0.000452	7e-06
298.15	0.000426	6e-06
303.15	0.000403	6e-06

System: ethyl acetate; phases: Liquid
Fixed: Pressure, kPa = 101.3
Property: Speed of sound, m/s (Liquid); method: FPINT::UFactor:2
Temperature, K	Speed of sound, m/s	uncertainty
293.15	1163	1
298.15	1140	1
303.15	1118	1

System: ethyl acetate; phases: Liquid
Fixed: Pressure, kPa = 101.3
Property: Mass density, kg/m3 (Liquid); method: VIBTUB::UFactor:4
Temperature, K	Mass density, kg/m3	uncertainty
293.15	900.52	0.3
298.15	894.43	0.31
303.15	888.3	0.32

System: methyl ethanoate; phases: Liquid
Fixed: Pressure, kPa = 101.3
Property: Viscosity, Pa*s (Liquid); method: CAPTUB::UFactor:2
Temperature, K	Viscosity, Pa*s	uncertainty
293.15	0.000386	6e-06
298.15	0.000367	6e-06
303.15	0.000348	6e-06

System: methyl ethanoate; phases: Liquid
Fixed: Pressure, kPa = 101.3
Property: Speed of sound, m/s (Liquid); method: FPINT::UFactor:2
Temperature, K	Speed of sound, m/s	uncertainty
293.15	1174	2
298.15	1151	2
303.15	1128	2

System: methyl ethanoate; phases: Liquid
Fixed: Pressure, kPa = 101.3
Property: Mass density, kg/m3 (Liquid); method: VIBTUB::UFactor:4
Temperature, K	Mass density, kg/m3	uncertainty
293.15	933.56	0.53
298.15	926.98	0.53
303.15	920.34	0.53

System: ethanol; phases: Liquid
Fixed: Pressure, kPa = 101.3
Property: Viscosity, Pa*s (Liquid); method: CAPTUB::UFactor:2
Temperature, K	Viscosity, Pa*s	uncertainty
293.15	0.001187	1.5e-05
298.15	0.001082	1.4e-05
303.15	0.000987	1.3e-05

System: ethanol; phases: Liquid
Fixed: Pressure, kPa = 101.3
Property: Speed of sound, m/s (Liquid); method: FPINT::UFactor:2
Temperature, K	Speed of sound, m/s	uncertainty
293.15	1162	1
298.15	1145	1
303.15	1128	1

System: ethanol; phases: Liquid
Fixed: Pressure, kPa = 101.3
Property: Mass density, kg/m3 (Liquid); method: VIBTUB:UFactor:4
Temperature, K	Mass density, kg/m3	uncertainty
293.15	789.75	0.46
298.15	785.46	0.47
303.15	781.15	0.47

System: methanol; phases: Liquid
Fixed: Pressure, kPa = 101.3
Property: Viscosity, Pa*s (Liquid); method: CAPTUB::UFactor:2
Temperature, K	Viscosity, Pa*s	uncertainty
293.15	0.000585	8e-06
298.15	0.000545	8e-06
303.15	0.000508	7e-06

System: methanol; phases: Liquid
Fixed: Pressure, kPa = 101.3
Property: Speed of sound, m/s (Liquid); method: FPINT::UFactor:2
Temperature, K	Speed of sound, m/s	uncertainty
293.15	1121	1
298.15	1104	1
303.15	1088	1

System: methanol; phases: Liquid
Fixed: Pressure, kPa = 101.3
Property: Mass density, kg/m3 (Liquid); method: VIBTUB::UFactor:4
Temperature, K	Mass density, kg/m3	uncertainty
293.15	791.9	0.46
298.15	787.2	0.47
303.15	782.48	0.47

System: water; phases: Liquid
Fixed: Pressure, kPa = 101.3
Property: Viscosity, Pa*s (Liquid); method: CAPTUB::UFactor:2
Temperature, K	Viscosity, Pa*s	uncertainty
293.15	0.001003	1.3e-05
298.15	0.00089	1.2e-05
303.15	0.000797	1.1e-05

System: water; phases: Liquid
Fixed: Pressure, kPa = 101.3
Property: Speed of sound, m/s (Liquid); method: FPINT::UFactor:2
Temperature, K	Speed of sound, m/s	uncertainty
293.15	1483	2
298.15	1497	2
303.15	1509	2

System: water; phases: Liquid
Fixed: Pressure, kPa = 101.3
Property: Mass density, kg/m3 (Liquid); method: VIBTUB::UFactor:4
Temperature, K	Mass density, kg/m3	uncertainty
293.15	998.2	0.14
298.15	997.05	0.14
303.15	995.65	0.14

System: acetic acid + ethyl acetate; phases: Liquid
Fixed: Pressure, kPa = 101.3
Property: Viscosity, Pa*s (Liquid); method: CAPTUB:UFactor:2
Temperature, K	Mole fraction of acetic acid	Viscosity, Pa*s	uncertainty
293.15	0	0.000452	7e-06
293.15	0.0697	0.000473	7e-06
293.15	0.0988	0.000485	7e-06
293.15	0.196	0.000523	7e-06
293.15	0.2944	0.000561	8e-06
293.15	0.3968	0.000617	9e-06
293.15	0.5007	0.000668	9e-06
293.15	0.5967	0.000731	1e-05
293.15	0.7	0.000817	1.1e-05
293.15	0.7989	0.000912	1.2e-05
293.15	0.8993	0.001052	1.4e-05
293.15	0.9493	0.001113	1.5e-05
293.15	1	0.001211	1.6e-05
298.15	0	0.000426	6e-06
298.15	0.0697	0.000446	7e-06
298.15	0.0988	0.000458	7e-06
298.15	0.196	0.000493	7e-06
298.15	0.2944	0.000528	7e-06
298.15	0.3968	0.000577	8e-06
298.15	0.5007	0.000627	9e-06
298.15	0.5967	0.000684	9e-06
298.15	0.7	0.000762	1e-05
298.15	0.7989	0.000848	1.2e-05
298.15	0.8993	0.000975	1.3e-05
298.15	0.9493	0.001031	1.4e-05
298.15	1	0.001115	1.5e-05
303.15	0	0.000403	6e-06
303.15	0.0697	0.000422	6e-06
303.15	0.0988	0.000433	6e-06
303.15	0.196	0.000465	7e-06
303.15	0.2944	0.000498	7e-06
303.15	0.3968	0.000541	8e-06
303.15	0.5007	0.000589	8e-06
303.15	0.5967	0.000642	9e-06
303.15	0.7	0.000714	1e-05
303.15	0.7989	0.000792	1.1e-05
303.15	0.8993	0.00091	1.2e-05
303.15	0.9493	0.000958	1.3e-05
303.15	1	0.001034	1.4e-05

System: acetic acid + ethyl acetate; phases: Liquid
Fixed: Pressure, kPa = 101.3
Property: Speed of sound, m/s (Liquid); method: FPINT:UFactor:2
Temperature, K	Mole fraction of acetic acid	Speed of sound, m/s	uncertainty
293.15	0	1163	1
293.15	0.0697	1165	1
293.15	0.0988	1166	1
293.15	0.196	1166	1
293.15	0.2944	1165	1
293.15	0.3968	1165	1
293.15	0.5007	1163	2
293.15	0.5967	1162	2
293.15	0.7	1159	2
293.15	0.7989	1157	2
293.15	0.8993	1153	2
293.15	0.9493	1152	2
293.15	1	1149	2
298.15	0	1140	1
298.15	0.0697	1143	1
298.15	0.0988	1144	1
298.15	0.196	1144	1
298.15	0.2944	1144	1
298.15	0.3968	1143	1
298.15	0.5007	1142	2
298.15	0.5967	1141	2
298.15	0.7	1140	2
298.15	0.7989	1137	2
298.15	0.8993	1135	2
298.15	0.9493	1134	2
298.15	1	1132	2
303.15	0	1118	1
303.15	0.0697	1121	1
303.15	0.0988	1122	1
303.15	0.196	1123	1
303.15	0.2944	1123	1
303.15	0.3968	1123	1
303.15	0.5007	1122	1
303.15	0.5967	1121	2
303.15	0.7	1120	2
303.15	0.7989	1119	2
303.15	0.8993	1117	2
303.15	0.9493	1116	2
303.15	1	1115	2

System: acetic acid + ethyl acetate; phases: Liquid
Fixed: Pressure, kPa = 101.3
Property: Mass density, kg/m3 (Liquid); method: VIBTUB:UFactor:4
Temperature, K	Mole fraction of acetic acid	Mass density, kg/m3	uncertainty
293.15	0	900.52	0.3
293.15	0.0697	907.35	0.3
293.15	0.0988	910.56	0.3
293.15	0.196	920.61	0.3
293.15	0.2944	931.46	0.31
293.15	0.3968	943.68	0.33
293.15	0.5007	957.31	0.36
293.15	0.5967	971.28	0.38
293.15	0.7	987.79	0.41
293.15	0.7989	1005.47	0.45
293.15	0.8993	1025.8	0.51
293.15	0.9493	1037.09	0.54
293.15	1	1049.3	0.57
298.15	0	894.43	0.31
298.15	0.0697	901.3	0.31
298.15	0.0988	904.53	0.31
298.15	0.196	914.62	0.31
298.15	0.2944	925.5	0.32
298.15	0.3968	937.74	0.34
298.15	0.5007	951.4	0.36
298.15	0.5967	965.4	0.38
298.15	0.7	981.94	0.41
298.15	0.7989	999.66	0.45
298.15	0.8993	1020.06	0.5
298.15	0.9493	1031.4	0.53
298.15	1	1043.65	0.56
303.15	0	888.3	0.32
303.15	0.0697	895.2	0.31
303.15	0.0988	898.44	0.31
303.15	0.196	908.59	0.32
303.15	0.2944	919.49	0.33
303.15	0.3968	931.77	0.34
303.15	0.5007	945.46	0.36
303.15	0.5967	959.5	0.39
303.15	0.7	976.09	0.41
303.15	0.7989	993.85	0.45
303.15	0.8993	1014.32	0.5
303.15	0.9493	1025.69	0.53
303.15	1	1038	0.56

System: acetic acid + methyl ethanoate; phases: Liquid
Fixed: Pressure, kPa = 101.3
Property: Viscosity, Pa*s (Liquid); method: CAPTUB:UFactor:2
Temperature, K	Mole fraction of acetic acid	Viscosity, Pa*s	uncertainty
293.15	0	0.000386	6e-06
293.15	0.0496	0.000401	6e-06
293.15	0.0956	0.000417	7e-06
293.15	0.195	0.00046	7e-06
293.15	0.3007	0.000506	8e-06
293.15	0.3902	0.000552	8e-06
293.15	0.4937	0.000617	9e-06
293.15	0.5953	0.000691	1e-05
293.15	0.6894	0.000775	1.1e-05
293.15	0.7943	0.000894	1.2e-05
293.15	0.8987	0.001037	1.4e-05
293.15	0.9502	0.00112	1.5e-05
293.15	1	0.001211	1.6e-05
298.15	0	0.000367	6e-06
298.15	0.0496	0.000381	6e-06
298.15	0.0956	0.000395	6e-06
298.15	0.195	0.000436	7e-06
298.15	0.3007	0.00048	7e-06
298.15	0.3902	0.000521	8e-06
298.15	0.4937	0.00058	8e-06
298.15	0.5953	0.000646	9e-06
298.15	0.6894	0.000725	1e-05
298.15	0.7943	0.000834	1.2e-05
298.15	0.8987	0.000962	1.3e-05
298.15	0.9502	0.001037	1.4e-05
298.15	1	0.001115	1.5e-05
303.15	0	0.000348	6e-06
303.15	0.0496	0.000362	6e-06
303.15	0.0956	0.000376	6e-06
303.15	0.195	0.000412	6e-06
303.15	0.3007	0.000453	7e-06
303.15	0.3902	0.000492	7e-06
303.15	0.4937	0.000547	8e-06
303.15	0.5953	0.000608	9e-06
303.15	0.6894	0.00068	1e-05
303.15	0.7943	0.000782	1.1e-05
303.15	0.8987	0.000896	1.2e-05
303.15	0.9502	0.000964	1.3e-05
303.15	1	0.001034	1.4e-05

System: acetic acid + methyl ethanoate; phases: Liquid
Fixed: Pressure, kPa = 101.3
Property: Speed of sound, m/s (Liquid); method: FPINT:UFactor:2
Temperature, K	Mole fraction of acetic acid	Speed of sound, m/s	uncertainty
293.15	0	1174	2
293.15	0.0496	1177	2
293.15	0.0956	1177	2
293.15	0.195	1177	2
293.15	0.3007	1176	2
293.15	0.3902	1174	2
293.15	0.4937	1172	2
293.15	0.5953	1169	2
293.15	0.6894	1166	2
293.15	0.7943	1162	2
293.15	0.8987	1156	2
293.15	0.9502	1153	2
293.15	1	1149	2
298.15	0	1151	2
298.15	0.0496	1154	2
298.15	0.0956	1155	2
298.15	0.195	1155	2
298.15	0.3007	1154	2
298.15	0.3902	1153	2
298.15	0.4937	1151	2
298.15	0.5953	1149	2
298.15	0.6894	1147	2
298.15	0.7943	1143	2
298.15	0.8987	1138	2
298.15	0.9502	1136	2
298.15	1	1132	2
303.15	0	1128	2
303.15	0.0496	1131	2
303.15	0.0956	1133	2
303.15	0.195	1133	2
303.15	0.3007	1133	2
303.15	0.3902	1132	2
303.15	0.4937	1131	2
303.15	0.5953	1129	2
303.15	0.6894	1127	2
303.15	0.7943	1124	2
303.15	0.8987	1120	2
303.15	0.9502	1118	2
303.15	1	1115	2

System: acetic acid + methyl ethanoate; phases: Liquid
Fixed: Pressure, kPa = 101.3
Property: Mass density, kg/m3 (Liquid); method: VIBTUB:UFactor:4
Temperature, K	Mole fraction of acetic acid	Mass density, kg/m3	uncertainty
293.15	0	933.56	0.53
293.15	0.0496	938.74	0.53
293.15	0.0956	943.44	0.52
293.15	0.195	953.14	0.52
293.15	0.3007	963.86	0.52
293.15	0.3902	973.23	0.52
293.15	0.4937	984.52	0.52
293.15	0.5953	996.15	0.52
293.15	0.6894	1007.51	0.53
293.15	0.7943	1020.92	0.54
293.15	0.8987	1034.93	0.55
293.15	0.9502	1042.19	0.56
293.15	1	1049.3	0.57
298.15	0	926.98	0.53
298.15	0.0496	932.23	0.53
298.15	0.0956	936.98	0.53
298.15	0.195	946.77	0.52
298.15	0.3007	957.58	0.52
298.15	0.3902	967.02	0.52
298.15	0.4937	978.4	0.52
298.15	0.5953	990.1	0.52
298.15	0.6894	1001.55	0.53
298.15	0.7943	1015.05	0.54
298.15	0.8987	1029.17	0.55
298.15	0.9502	1036.49	0.56
298.15	1	1043.65	0.56
303.15	0	920.34	0.53
303.15	0.0496	925.65	0.53
303.15	0.0956	930.46	0.53
303.15	0.195	940.34	0.53
303.15	0.3007	951.24	0.52
303.15	0.3902	960.77	0.52
303.15	0.4937	972.24	0.52
303.15	0.5953	984.03	0.52
303.15	0.6894	995.56	0.52
303.15	0.7943	1009.16	0.53
303.15	0.8987	1023.39	0.54
303.15	0.9502	1030.77	0.55
303.15	1	1038	0.56

System: ethanol + acetic acid; phases: Liquid
Fixed: Pressure, kPa = 101.3
Property: Viscosity, Pa*s (Liquid); method: CAPTUB:UFactor:2
Temperature, K	Mole fraction of acetic acid	Viscosity, Pa*s	uncertainty
293.15	0	0.001187	1.5e-05
293.15	0.0493	0.00119	1.5e-05
293.15	0.1004	0.001195	1.5e-05
293.15	0.1992	0.00123	1.6e-05
293.15	0.2971	0.001276	1.6e-05
293.15	0.3962	0.001336	1.7e-05
293.15	0.4961	0.001383	1.8e-05
293.15	0.5981	0.001432	1.8e-05
293.15	0.7031	0.001444	1.9e-05
293.15	0.7973	0.001419	1.8e-05
293.15	0.8979	0.001338	1.8e-05
293.15	0.9515	0.001275	1.7e-05
293.15	1	0.001211	1.6e-05
298.15	0	0.001082	1.4e-05
298.15	0.0493	0.001083	1.4e-05
298.15	0.1004	0.001089	1.4e-05
298.15	0.1992	0.00112	1.4e-05
298.15	0.2971	0.001162	1.5e-05
298.15	0.3962	0.001215	1.6e-05
298.15	0.4961	0.001258	1.6e-05
298.15	0.5981	0.001297	1.7e-05
298.15	0.7031	0.00131	1.7e-05
298.15	0.7973	0.001291	1.7e-05
298.15	0.8979	0.001225	1.6e-05
298.15	0.9515	0.001172	1.6e-05
298.15	1	0.001115	1.5e-05
303.15	0	0.000987	1.3e-05
303.15	0.0493	0.000989	1.3e-05
303.15	0.1004	0.000994	1.3e-05
303.15	0.1992	0.001023	1.3e-05
303.15	0.2971	0.00106	1.4e-05
303.15	0.3962	0.001108	1.4e-05
303.15	0.4961	0.001152	1.5e-05
303.15	0.5981	0.001183	1.6e-05
303.15	0.7031	0.001198	1.6e-05
303.15	0.7973	0.001181	1.6e-05
303.15	0.8979	0.001126	1.5e-05
303.15	0.9515	0.001084	1.5e-05
303.15	1	0.001034	1.4e-05

System: ethanol + acetic acid; phases: Liquid
Fixed: Pressure, kPa = 101.3
Property: Speed of sound, m/s (Liquid); method: FPINT:UFactor:2
Temperature, K	Mole fraction of acetic acid	Speed of sound, m/s	uncertainty
293.15	0	1162	1
293.15	0.0493	1168	1
293.15	0.1004	1173	1
293.15	0.1992	1182	1
293.15	0.2971	1190	1
293.15	0.3962	1195	1
293.15	0.4961	1197	2
293.15	0.5981	1196	2
293.15	0.7031	1192	2
293.15	0.7973	1184	2
293.15	0.8979	1171	2
293.15	0.9515	1161	2
293.15	1	1149	2
298.15	0	1145	1
298.15	0.0493	1151	1
298.15	0.1004	1156	1
298.15	0.1992	1165	1
298.15	0.2971	1172	1
298.15	0.3962	1177	1
298.15	0.4961	1179	2
298.15	0.5981	1178	2
298.15	0.7031	1175	2
298.15	0.7973	1166	2
298.15	0.8979	1153	2
298.15	0.9515	1143	2
298.15	1	1132	2
303.15	0	1128	1
303.15	0.0493	1133	1
303.15	0.1004	1139	1
303.15	0.1992	1148	1
303.15	0.2971	1155	1
303.15	0.3962	1160	1
303.15	0.4961	1162	2
303.15	0.5981	1160	2
303.15	0.7031	1157	2
303.15	0.7973	1149	2
303.15	0.8979	1136	2
303.15	0.9515	1126	2
303.15	1	1115	2

System: ethanol + acetic acid; phases: Liquid
Fixed: Pressure, kPa = 101.3
Property: Mass density, kg/m3 (Liquid); method: VIBTUB:UFactor:4
Temperature, K	Mole fraction of acetic acid	Mass density, kg/m3	uncertainty
293.15	0	789.75	0.46
293.15	0.0493	803.5	0.44
293.15	0.1004	817.3	0.43
293.15	0.1992	844.8	0.4
293.15	0.2971	871.59	0.39
293.15	0.3962	898.37	0.38
293.15	0.4961	924.97	0.39
293.15	0.5981	951.75	0.4
293.15	0.7031	978.85	0.42
293.15	0.7973	1002.17	0.45
293.15	0.8979	1026.4	0.51
293.15	0.9515	1038.72	0.54
293.15	1	1049.3	0.57
298.15	0	785.46	0.47
298.15	0.0493	799.15	0.45
298.15	0.1004	812.87	0.43
298.15	0.1992	840.2	0.41
298.15	0.2971	866.86	0.39
298.15	0.3962	893.5	0.39
298.15	0.4961	919.96	0.4
298.15	0.5981	946.59	0.4
298.15	0.7031	973.55	0.42
298.15	0.7973	996.74	0.45
298.15	0.8979	1020.84	0.5
298.15	0.9515	1033.11	0.53
298.15	1	1043.65	0.56
303.15	0	781.15	0.47
303.15	0.0493	794.78	0.46
303.15	0.1004	808.39	0.44
303.15	0.1992	835.58	0.42
303.15	0.2971	862.09	0.4
303.15	0.3962	888.6	0.39
303.15	0.4961	914.93	0.4
303.15	0.5981	941.42	0.4
303.15	0.7031	968.23	0.42
303.15	0.7973	991.29	0.45
303.15	0.8979	1015.28	0.5
303.15	0.9515	1027.5	0.53
303.15	1	1038	0.56

System: acetic acid + methanol; phases: Liquid
Fixed: Pressure, kPa = 101.3
Property: Viscosity, Pa*s (Liquid); method: CAPTUB:UFactor:2
Temperature, K	Mole fraction of acetic acid	Viscosity, Pa*s	uncertainty
293.15	0	0.000585	8e-06
293.15	0.0498	0.000626	9e-06
293.15	0.1006	0.000676	9e-06
293.15	0.2016	0.000784	1e-05
293.15	0.2995	0.000899	1.2e-05
293.15	0.401	0.001038	1.3e-05
293.15	0.4992	0.001161	1.5e-05
293.15	0.5996	0.001274	1.6e-05
293.15	0.6998	0.001352	1.7e-05
293.15	0.7969	0.00138	1.8e-05
293.15	0.9555	0.001283	1.7e-05
293.15	1	0.001211	1.6e-05
298.15	0	0.000545	8e-06
298.15	0.0498	0.000583	8e-06
298.15	0.1006	0.000628	9e-06
298.15	0.2016	0.000729	1e-05
298.15	0.2995	0.000825	1.1e-05
298.15	0.401	0.000954	1.3e-05
298.15	0.4992	0.001062	1.4e-05
298.15	0.5996	0.001162	1.5e-05
298.15	0.6998	0.001229	1.6e-05
298.15	0.7969	0.00126	1.7e-05
298.15	0.9	0.001224	1.6e-05
298.15	0.9555	0.001177	1.6e-05
298.15	1	0.001115	1.5e-05
303.15	0	0.000508	7e-06
303.15	0.0498	0.000543	8e-06
303.15	0.1006	0.000585	8e-06
303.15	0.2016	0.000678	9e-06
303.15	0.2995	0.000765	1e-05
303.15	0.401	0.000879	1.2e-05
303.15	0.4992	0.000975	1.3e-05
303.15	0.5996	0.001062	1.4e-05
303.15	0.6998	0.001124	1.5e-05
303.15	0.7969	0.001151	1.6e-05
303.15	0.9	0.001126	1.5e-05
303.15	0.9555	0.001088	1.5e-05
303.15	1	0.001034	1.4e-05

System: acetic acid + methanol; phases: Liquid
Fixed: Pressure, kPa = 101.3
Property: Speed of sound, m/s (Liquid); method: FPINT:UFactor:2
Temperature, K	Mole fraction of acetic acid	Speed of sound, m/s	uncertainty
293.15	0	1121	1
293.15	0.0498	1133	1
293.15	0.1006	1143	1
293.15	0.2016	1162	1
293.15	0.2995	1178	1
293.15	0.401	1189	1
293.15	0.4992	1196	2
293.15	0.5996	1198	2
293.15	0.6998	1195	2
293.15	0.7969	1187	2
293.15	0.9555	1162	2
293.15	1	1149	2
298.15	0	1104	1
298.15	0.0498	1116	1
298.15	0.1006	1127	1
298.15	0.2016	1146	1
298.15	0.2995	1161	1
298.15	0.401	1172	1
298.15	0.4992	1179	2
298.15	0.5996	1181	2
298.15	0.6998	1178	2
298.15	0.7969	1170	2
298.15	0.9	1156	2
298.15	0.9555	1145	2
298.15	1	1132	2
303.15	0	1088	1
303.15	0.0498	1100	1
303.15	0.1006	1111	1
303.15	0.2016	1130	1
303.15	0.2995	1145	1
303.15	0.401	1156	1
303.15	0.4992	1162	2
303.15	0.5996	1164	2
303.15	0.6998	1161	2
303.15	0.7969	1153	2
303.15	0.9	1138	2
303.15	0.9555	1128	2
303.15	1	1115	2

System: acetic acid + methanol; phases: Liquid
Fixed: Pressure, kPa = 101.3
Property: Mass density, kg/m3 (Liquid); method: VIBTUB:UFactor:4
Temperature, K	Mole fraction of acetic acid	Mass density, kg/m3	uncertainty
293.15	0	791.9	0.46
293.15	0.0498	811.92	0.43
293.15	0.1006	831.39	0.41
293.15	0.2016	867.61	0.37
293.15	0.2995	899.77	0.36
293.15	0.401	929.99	0.36
293.15	0.4992	956.37	0.37
293.15	0.5996	980.68	0.38
293.15	0.6998	1001.88	0.41
293.15	0.7969	1020.24	0.46
293.15	0.9555	1043.82	0.55
293.15	1	1049.3	0.57
298.15	0	787.2	0.47
298.15	0.0498	807.17	0.44
298.15	0.1006	826.6	0.42
298.15	0.2016	862.71	0.38
298.15	0.2995	894.77	0.36
298.15	0.401	924.88	0.36
298.15	0.4992	951.16	0.38
298.15	0.5996	975.36	0.38
298.15	0.6998	996.46	0.41
298.15	0.7969	1014.72	0.46
298.15	0.9	1031.06	0.51
298.15	0.9555	1038.2	0.54
298.15	1	1043.65	0.56
303.15	0	782.48	0.47
303.15	0.0498	802.41	0.45
303.15	0.1006	821.79	0.42
303.15	0.2016	857.79	0.39
303.15	0.2995	889.74	0.37
303.15	0.401	919.75	0.37
303.15	0.4992	945.92	0.38
303.15	0.5996	970.01	0.39
303.15	0.6998	991.01	0.41
303.15	0.7969	1009.19	0.45
303.15	0.9	1025.45	0.51
303.15	0.9555	1032.56	0.53
303.15	1	1038	0.56

System: acetic acid + water; phases: Liquid
Fixed: Pressure, kPa = 101.3
Property: Viscosity, Pa*s (Liquid); method: CAPTUB:UFactor:2
Temperature, K	Mole fraction of acetic acid	Viscosity, Pa*s	uncertainty
293.15	0	0.001003	1.3e-05
293.15	0.0503	0.001304	1.7e-05
293.15	0.1009	0.001578	2e-05
293.15	0.2018	0.002031	2.5e-05
293.15	0.3006	0.002355	2.9e-05
293.15	0.4015	0.002559	3.2e-05
293.15	0.5012	0.002652	3.3e-05
293.15	0.6005	0.002627	3.3e-05
293.15	0.7004	0.002417	3e-05
293.15	0.8017	0.002077	2.7e-05
293.15	0.8996	0.001666	2.2e-05
293.15	0.9523	0.001416	1.9e-05
293.15	1	0.001211	1.6e-05
298.15	0	0.00089	1.2e-05
298.15	0.0503	0.001151	1.5e-05
298.15	0.1009	0.001385	1.8e-05
298.15	0.2018	0.001777	2.3e-05
298.15	0.3006	0.002053	2.6e-05
298.15	0.4015	0.002232	2.9e-05
298.15	0.5012	0.002316	3e-05
298.15	0.6005	0.0023	3e-05
298.15	0.7004	0.002129	2.8e-05
298.15	0.8017	0.00185	2.4e-05
298.15	0.8996	0.001503	2e-05
298.15	0.9523	0.001294	1.7e-05
298.15	1	0.001115	1.5e-05
303.15	0	0.000797	1.1e-05
303.15	0.0503	0.001023	1.4e-05
303.15	0.1009	0.001226	1.6e-05
303.15	0.2018	0.001571	2.1e-05
303.15	0.3006	0.001809	2.4e-05
303.15	0.4015	0.001965	2.6e-05
303.15	0.5012	0.002046	2.7e-05
303.15	0.6005	0.002029	2.7e-05
303.15	0.7004	0.00189	2.5e-05
303.15	0.8017	0.001656	2.2e-05
303.15	0.8996	0.001367	1.8e-05
303.15	0.9523	0.00119	1.6e-05
303.15	1	0.001034	1.4e-05

System: acetic acid + water; phases: Liquid
Fixed: Pressure, kPa = 101.3
Property: Speed of sound, m/s (Liquid); method: FPINT:UFactor:2
Temperature, K	Mole fraction of acetic acid	Speed of sound, m/s	uncertainty
293.15	0	1483	2
293.15	0.0503	1528	2
293.15	0.1009	1537	2
293.15	0.2018	1509	2
293.15	0.3006	1465	2
293.15	0.4015	1418	2
293.15	0.5012	1373	2
293.15	0.6005	1329	2
293.15	0.7004	1286	2
293.15	0.8017	1243	2
293.15	0.8996	1199	2
293.15	0.9523	1175	2
293.15	1	1149	2
298.15	0	1497	2
298.15	0.0503	1533	2
298.15	0.1009	1536	2
298.15	0.2018	1502	2
298.15	0.3006	1454	2
298.15	0.4015	1405	2
298.15	0.5012	1359	2
298.15	0.6005	1314	2
298.15	0.7004	1270	2
298.15	0.8017	1226	2
298.15	0.8996	1183	2
298.15	0.9523	1157	2
298.15	1	1132	2
303.15	0	1509	2
303.15	0.0503	1537	2
303.15	0.1009	1535	2
303.15	0.2018	1494	2
303.15	0.3006	1443	2
303.15	0.4015	1392	2
303.15	0.5012	1344	2
303.15	0.6005	1299	2
303.15	0.7004	1254	2
303.15	0.8017	1210	2
303.15	0.8996	1166	2
303.15	0.9523	1140	2
303.15	1	1115	2

System: acetic acid + water; phases: Liquid
Fixed: Pressure, kPa = 101.3
Property: Mass density, kg/m3 (Liquid); method: VIBTUB:UFactor:4
Temperature, K	Mole fraction of acetic acid	Mass density, kg/m3	uncertainty
293.15	0	998.2	0.14
293.15	0.0503	1019.37	0.17
293.15	0.1009	1034.95	0.21
293.15	0.2018	1053.88	0.26
293.15	0.3006	1063.42	0.3
293.15	0.4015	1068.15	0.34
293.15	0.5012	1069.68	0.38
293.15	0.6005	1068.8	0.42
293.15	0.7004	1066.55	0.46
293.15	0.8017	1062.78	0.49
293.15	0.8996	1057.35	0.53
293.15	0.9523	1053.56	0.55
293.15	1	1049.3	0.57
298.15	0	997.05	0.14
298.15	0.0503	1017.24	0.17
298.15	0.1009	1032.04	0.2
298.15	0.2018	1050	0.25
298.15	0.3006	1058.83	0.3
298.15	0.4015	1063.42	0.34
298.15	0.5012	1064.77	0.37
298.15	0.6005	1063.48	0.41
298.15	0.7004	1061.22	0.45
298.15	0.8017	1057.34	0.49
298.15	0.8996	1051.8	0.53
298.15	0.9523	1047.96	0.55
298.15	1	1043.65	0.56
303.15	0	995.65	0.14
303.15	0.0503	1014.94	0.17
303.15	0.1009	1029.02	0.2
303.15	0.2018	1046.07	0.25
303.15	0.3006	1054.2	0.29
303.15	0.4015	1058.66	0.33
303.15	0.5012	1059.78	0.37
303.15	0.6005	1058.24	0.41
303.15	0.7004	1055.91	0.45
303.15	0.8017	1051.9	0.48
303.15	0.8996	1046.25	0.52
303.15	0.9523	1042.35	0.54
303.15	1	1038	0.56
