Measured thermophysical data. Solubility of Alkylbenzenes and a Model for Predicting the Solubility of Liquid Organics in High-Temperature Water
Source: J. Chem. Eng. Data, 2004, 10.1021/je034235c
Compound 1: water, H2O, InChI=1S/H2O/h1H2
Compound 2: ethylbenzene, C8H10, InChI=1S/C8H10/c1-2-8-6-4-3-5-7-8/h3-7H,2H2,1H3
Compound 3: 1,3-dimethylbenzene, C8H10, InChI=1S/C8H10/c1-7-4-3-5-8(2)6-7/h3-6H,1-2H3
Compound 4: benzene, C6H6, InChI=1S/C6H6/c1-2-4-6-5-3-1/h1-6H

System: ethylbenzene + water; phases: Liquid mixture 1, Liquid mixture 2
Fixed: Pressure, kPa = 5000
Property: Mole fraction of ethylbenzene (Liquid mixture 1); method: Chromatography
Temperature, K	Mole fraction of ethylbenzene	uncertainty
298	2.8e-05	4e-06
323	4.1e-05	1.6e-05
373	9.2e-05	1.3e-05
423	0.00024	4e-05
473	0.00081	0.0002

System: 1,3-dimethylbenzene + water; phases: Liquid mixture 1, Liquid mixture 2
Fixed: Pressure, kPa = 5000
Property: Mole fraction of 1,3-dimethylbenzene (Liquid mixture 1); method: Chromatography
Temperature, K	Mole fraction of 1,3-dimethylbenzene	uncertainty
298	3.7e-05	4e-06
373	8e-05	1.8e-05
423	0.00027	3e-05
473	0.00102	0.00018

System: benzene + water; phases: Liquid mixture 1, Liquid mixture 2
Fixed: Pressure, kPa = 5000
Property: Mole fraction of benzene (Liquid mixture 1); method: Chromatography
Temperature, K	Mole fraction of benzene	uncertainty
298	0.00042	6e-05
373	0.00081	0.00018
423	0.0017	0.0004
473	0.0046	0.0008
