Measured thermophysical data. Excess Properties and Isobaric Vapor-Liquid Equilibria for Binary Mixtures of Methyl Esters + tert-Butanol
Source: J. Chem. Eng. Data, 2004, 10.1021/je034290l
Compound 1: methyl butanoate, C5H10O2, InChI=1S/C5H10O2/c1-3-4-5(6)7-2/h3-4H2,1-2H3
Compound 2: 2-methylpropan-2-ol, C4H10O, InChI=1S/C4H10O/c1-4(2,3)5/h5H,1-3H3
Compound 3: methyl methanoate, C2H4O2, InChI=1S/C2H4O2/c1-4-2-3/h2H,1H3
Compound 4: methyl ethanoate, C3H6O2, InChI=1S/C3H6O2/c1-3(4)5-2/h1-2H3
Compound 5: methyl propanoate, C4H8O2, InChI=1S/C4H8O2/c1-3-4(5)6-2/h3H2,1-2H3

System: methyl butanoate; phases: Liquid
Property: Refractive index (Na D-line) (Liquid); method: Standard Abbe refractometry
Temperature, K	Pressure, kPa	Refractive index (Na D-line)	uncertainty
318.15	101.325	1.3753	0.0004

System: methyl butanoate; phases: Liquid
Property: Mass density, kg/m3 (Liquid); method: VIBTUB:UFactor:4
Temperature, K	Pressure, kPa	Mass density, kg/m3	uncertainty
318.15	101.325	870.24	0.45

System: methyl butanoate; phases: Liquid, Gas
Property: Vapor or sublimation pressure, kPa (Liquid); method: EBULLIO:UFactor:64
Temperature, K	Vapor or sublimation pressure, kPa	uncertainty
347.53	40.12	0.7
348.26	41.24	0.7
349.21	42.76	0.71
349.79	43.84	0.71
350.81	45.25	0.72
351.98	46.74	0.73
352.34	47.92	0.73
353.21	49.41	0.74
353.72	50.85	0.75
354.96	51.83	0.76
355.26	53.5	0.76
356.06	54.82	0.77
356.79	55.89	0.77
357.44	57.38	0.78
358.24	58.61	0.79
358.9	60.02	0.79
359.7	61.42	0.8
360.43	62.63	0.81
360.93	64.13	0.82
362.03	66.54	0.83
362.31	68.03	0.83
363.2	69.42	0.84
363.49	70.61	0.85
363.78	71.18	0.85
365.02	73.5	0.86
365.38	74.77	0.87
365.97	75.89	0.87
366.41	77.39	0.88
366.84	78.61	0.89
367.57	80.14	0.9
368.01	81.39	0.9
368.59	82.57	0.91
369.25	83.91	0.91
369.95	85.71	0.92
370.19	86.58	0.93
370.49	87.94	0.93
371.07	88.35	0.94
371.72	90.8	0.97
371.79	92.1	0.97
372.31	93.26	0.96
372.89	94.59	0.97
373.47	95.92	0.97
373.84	97.46	0.98
374.57	99.14	0.99
374.77	100.04	0.99
375.24	101.32	1
375.37	102.58	1.01
375.81	104.06	1.02
376.02	105.47	1.02
376.39	106.5	1.03
376.97	107.92	1.03
377.55	109.23	1.04
378.14	110.58	1.05
378.36	112.15	1.06
378.79	113.36	1.06
378.94	114.67	1.07
379.3	115.84	1.07
379.67	117.27	1.08
380.03	118.72	1.09
380.69	120.15	1.09
381.2	121.36	1.1
381.56	122.59	1.12
381.64	124.01	1.12
381.85	125.24	1.12
382.22	126.48	1.13
382.73	127.91	1.13
382.95	129.4	1.14
383.6	130.75	1.16
383.68	132.15	1.17
384.33	133.49	1.16
384.77	134.91	1.18
384.84	135.92	1.18
385.06	137.27	1.18
385.35	138.45	1.19
385.72	140.01	1.19
386.06	141.27	1.2
386.74	142.63	1.22
386.84	144.13	1.22
387.1	145.37	1.22
387.47	146.49	1.23
387.61	147.69	1.23
387.98	149.24	1.24
388.41	150.57	1.25
388.92	151.94	1.26
389.02	153.4	1.26
389.36	154.57	1.27
390.02	156.49	1.28
390.16	157.37	1.28
390.36	158.7	1.29
390.53	160.05	1.29
390.89	161.18	1.3
391.07	162.57	1.31
391.55	163.94	1.31
391.98	165.7	1.32
392.2	166.69	1.33

System: 2-methylpropan-2-ol; phases: Liquid
Property: Refractive index (Na D-line) (Liquid); method: Standard Abbe refractometry
Temperature, K	Pressure, kPa	Refractive index (Na D-line)	uncertainty
318.15	101.325	1.3741	0.0007

System: 2-methylpropan-2-ol; phases: Liquid
Property: Mass density, kg/m3 (Liquid); method: VIBTUB:UFactor:4
Temperature, K	Pressure, kPa	Mass density, kg/m3	uncertainty
318.15	101.325	759.87	0.52

System: methyl methanoate; phases: Liquid
Property: Refractive index (Na D-line) (Liquid); method: Standard Abbe refractometry
Temperature, K	Pressure, kPa	Refractive index (Na D-line)	uncertainty
299.15	101.325	1.3402	0.0007

System: methyl methanoate; phases: Liquid
Property: Mass density, kg/m3 (Liquid); method: VIBTUB:UFactor:4
Temperature, K	Pressure, kPa	Mass density, kg/m3	uncertainty
299.15	101.325	964.78	0.43

System: methyl methanoate; phases: Liquid, Gas
Property: Vapor or sublimation pressure, kPa (Liquid); method: EBULLIO:UFactor:64
Temperature, K	Vapor or sublimation pressure, kPa	uncertainty
301.23	88.7	0.94
301.42	89.37	0.94
301.78	90.67	0.95
302.15	91.98	0.96
302.53	93.31	0.96
302.89	94.64	0.97
303.41	95.98	0.98
303.77	97.36	0.98
304.13	98.69	0.99
304.44	99.97	1
304.79	101.32	1
304.83	101.39	1
305.21	102.89	1.01
305.51	104.06	1.02
305.85	105.38	1.02
306.2	106.72	1.03
306.54	108.06	1.04
306.84	109.39	1.04
307.2	110.77	1.05
307.54	112.13	1.06
307.85	113.44	1.06
308.13	114.75	1.07
308.47	116.1	1.08
308.81	117.47	1.08
309.15	118.77	1.09
309.43	120.12	1.1
309.72	121.43	1.1
310.03	122.74	1.11
310.33	124.08	1.12
310.64	125.47	1.12
310.92	126.77	1.13
311.19	128.14	1.14
311.48	129.44	1.14
311.78	130.75	1.15
312.06	132.09	1.16
312.37	133.48	1.16
312.67	134.81	1.17
312.9	136.09	1.18
313.17	137.42	1.18
313.45	138.75	1.19
313.74	139.83	1.2
314.01	141.42	1.2
314.3	142.78	1.21
314.37	143.32	1.21
314.6	144.13	1.23
314.63	144.65	1.23
314.88	145.45	1.22
314.93	145.65	1.22
315.12	146.74	1.23
315.18	147.03	1.23
315.52	148.79	1.25
315.56	149.41	1.25
315.77	150.23	1.25
316	151.48	1.25
316.06	152.08	1.26
316.23	152.97	1.26
316.47	154.04	1.27
316.57	154.75	1.27
316.71	155.22	1.27
316.95	156.54	1.28
317.05	157.42	1.28
317.17	157.73	1.28
317.36	158.92	1.29
317.4	159.14	1.29
317.64	160.45	1.3
317.88	161.72	1.31
318	162.65	1.31
318.34	164.18	1.32
318.51	165.32	1.32
318.68	166.44	1.33
319.07	168.3	1.34
319.37	170	1.35
319.45	170.76	1.35
319.67	171.98	1.36
319.93	173.32	1.36
320.22	174.76	1.37
320.34	175.82	1.38
320.65	177.38	1.38
320.78	178.57	1.39
321.04	180.01	1.4
321.34	181.7	1.41
321.46	182.37	1.41
321.72	184.02	1.42
321.94	185.46	1.42
322.2	186.83	1.43

System: methyl ethanoate; phases: Liquid
Property: Refractive index (Na D-line) (Liquid); method: Standard Abbe refractometry
Temperature, K	Pressure, kPa	Refractive index (Na D-line)	uncertainty
318.15	101.325	1.3486	0.0007

System: methyl ethanoate; phases: Liquid
Property: Mass density, kg/m3 (Liquid); method: VIBTUB:UFactor:4
Temperature, K	Pressure, kPa	Mass density, kg/m3	uncertainty
318.15	101.325	900.19	0.36

System: methyl ethanoate; phases: Liquid, Gas
Property: Vapor or sublimation pressure, kPa (Liquid); method: EBULLIO:UFactor:64
Temperature, K	Vapor or sublimation pressure, kPa	uncertainty
305.21	39.85	0.69
305.85	41.28	0.7
306.84	42.46	0.71
307.84	44.04	0.71
308.13	45.37	0.72
308.75	46.97	0.73
309.72	48.14	0.73
310.17	49.41	0.74
311.19	50.42	0.75
311.59	51.81	0.75
312.76	53.53	0.76
313.38	54.58	0.77
313.74	55.9	0.77
314.18	57.49	0.78
314.88	58.59	0.79
315.56	60.05	0.79
316.06	61.43	0.8
316.57	62.5	0.81
317.05	63.9	0.81
318.34	66.51	0.83
318.69	67.81	0.83
319.37	69.23	0.84
319.93	70.45	0.85
320.11	71.01	0.85
320.34	71.9	0.85
320.65	73.35	0.86
321.34	74.58	0.87
321.46	75.27	0.87
321.72	76.13	0.87
322.07	77.22	0.88
322.36	77.87	0.88
322.62	78.83	0.89
323.07	80.15	0.89
323.49	81.23	0.9
324.29	82.59	0.91
324.58	83.84	0.91
324.95	85.23	0.92
325.33	86.76	0.93
325.71	87.86	0.93
326.25	89.23	0.94
326.63	90.98	0.95
327.08	92.06	0.95
327.54	93.46	0.96
328	94.82	0.97
328.17	96.1	0.98
328.96	97.67	0.98
329.38	99.14	0.99
329.55	100.18	0.99
329.86	101.32	1
330.09	102.6	1.01
330.43	104.14	1.01
330.97	105.19	1.02
331.43	106.75	1.03
331.76	107.92	1.03
332.06	109.42	1.04
332.52	110.71	1.05
332.77	112.16	1.05
333.1	113.39	1.06
333.6	114.47	1.07
333.94	115.87	1.07
334.06	117.43	1.08
334.27	118.52	1.09
334.73	120.12	1.09
335.06	121.46	1.1
335.23	122.57	1.11
335.73	123.95	1.11
336.07	125.35	1.12
336.48	126.88	1.13
336.86	127.85	1.13
337.19	129.37	1.14
337.53	130.87	1.15
337.78	131.93	1.15
337.9	133.48	1.16
338.15	134.72	1.17
338.66	136.16	1.17
338.82	137.37	1.18
339.07	138.56	1.19
339.41	140.07	1.19
339.66	141.45	1.2
339.95	142.53	1.21
340.33	144.04	1.21
340.49	145.51	1.22
340.95	146.43	1.22
341.08	147.88	1.23
341.45	149.13	1.24
341.79	150.58	1.25
342	151.93	1.25
342.37	153.34	1.27
342.46	154.61	1.27
342.85	155.92	1.27
343.21	157.52	1.28
343.36	158.57	1.29
343.46	160.01	1.29
343.67	161.1	1.3
344.09	162.7	1.31
344.46	164.2	1.31
344.67	165.28	1.32
344.88	166.78	1.33
345.05	168.02	1.33
345.26	169.24	1.34
345.47	170.37	1.34
345.84	171.92	1.35
345.96	173.2	1.36

System: methyl propanoate; phases: Liquid
Property: Refractive index (Na D-line) (Liquid); method: Standard Abbe refractometry
Temperature, K	Pressure, kPa	Refractive index (Na D-line)	uncertainty
318.15	101.325	1.3641	0.0007

System: methyl propanoate; phases: Liquid
Property: Mass density, kg/m3 (Liquid); method: VIBTUB:UFactor:4
Temperature, K	Pressure, kPa	Mass density, kg/m3	uncertainty
318.15	101.325	884.3	0.51

System: methyl propanoate; phases: Liquid, Gas
Property: Vapor or sublimation pressure, kPa (Liquid); method: EBULLIO:UFactor:64
Temperature, K	Vapor or sublimation pressure, kPa	uncertainty
325.88	40.08	0.7
327.07	42.57	0.71
328.03	44.13	0.72
329	45.29	0.72
329.68	46.72	0.73
330.24	47.97	0.74
330.7	49.34	0.74
332	50.58	0.75
332.74	51.89	0.75
333.19	53.37	0.76
334.04	54.63	0.77
334.49	55.93	0.77
335.63	57.49	0.78
335.97	58.57	0.79
336.7	60.05	0.8
337.5	61.5	0.8
338.06	62.73	0.81
338.52	64.17	0.82
339.43	66.58	0.83
339.71	67.89	0.83
340.73	69.17	0.84
341.07	70.53	0.85
341.52	71.89	0.86
341.72	72.42	0.86
342.35	73.37	0.86
342.6	75.37	0.87
342.88	75.83	0.87
343.25	75.91	0.88
343.95	77.99	0.89
344.15	78.43	0.89
344.25	78.74	0.89
344.75	79.89	0.9
345.4	82.35	0.91
345.65	82.59	0.91
346.32	84.18	0.92
346.57	85.43	0.93
346.65	86.74	0.94
347.23	87.87	0.93
347.4	88.1	0.94
348.15	90.74	0.95
348.73	91.95	0.96
348.98	93.23	0.96
349.23	94.6	0.97
349.73	96.03	0.98
350.23	97.26	0.98
350.59	98.7	0.99
350.99	100	1
351.65	101.32	1
352.23	102.75	1.01
352.4	103.87	1.02
352.82	105.43	1.03
352.9	106.58	1.04
353.73	107.82	1.05
353.82	109.39	1.04
354.15	110.78	1.05
354.57	112.07	1.06
354.82	113.15	1.06
355.65	114.82	1.08
355.74	115.9	1.08
355.82	117.13	1.08
356.32	118.57	1.09
356.9	120.15	1.1
357.15	121.17	1.1
357.39	122.81	1.11
357.9	123.81	1.12
358.24	124.65	1.12
358.48	126.73	1.13
358.65	127.87	1.14
358.98	129.37	1.14
359.32	130.43	1.15
359.48	130.89	1.15
359.98	133.25	1.16
360.4	134.57	1.17
360.57	135.81	1.18
361.08	137.35	1.18
361.4	138.56	1.19
361.73	140	1.2
361.9	141.21	1.2
362.44	142.57	1.22
362.57	144.11	1.22
363.07	145.35	1.22
363.4	146.48	1.23
363.73	148.09	1.24
363.91	149.39	1.24
364.4	151.04	1.25
364.57	152.48	1.26
364.9	153.26	1.26
364.99	154.82	1.28
365.38	156.06	1.28
365.48	156.17	1.28
365.82	158.49	1.3
365.9	159.73	1.3
366.15	160.57	1.3
366.57	162.57	1.31
366.65	163.38	1.32
367.15	165.17	1.32
367.4	166.74	1.33
367.82	167.89	1.34

System: 2-methylpropan-2-ol + methyl methanoate; phases: Liquid, Gas
Fixed: Pressure, kPa = 101.32
Property: Boiling temperature at pressure P, K (Liquid); method: EBULLIO:UFactor:8
Mole fraction of methyl methanoate	Boiling temperature at pressure P, K	uncertainty
0.0257	351.71	0.25
0.0273	351.51	0.25
0.0431	349.34	0.25
0.0434	349.16	0.25
0.0553	347.59	0.25
0.0688	345.85	0.25
0.0855	343.79	0.25
0.0981	342.34	0.25
0.1002	341.94	0.25
0.1182	339.97	0.25
0.1321	338.56	0.25
0.155	336.24	0.25
0.181	333.99	0.25
0.1961	332.91	0.25
0.2056	331.81	0.25
0.2295	330.12	0.25
0.2749	327.06	0.25
0.2751	326.92	0.25
0.302	325.38	0.25
0.3344	323.79	0.25
0.367	322.24	0.25
0.4029	320.6	0.25
0.4402	319.25	0.25
0.4675	318.35	0.25
0.4959	317.52	0.25
0.5299	316.64	0.25
0.572	315.46	0.25
0.61	314.53	0.25
0.6607	312.98	0.25
0.7112	311.83	0.25
0.746	311.05	0.25
0.8009	309.68	0.25
0.8587	308.31	0.25
0.9098	307.03	0.25
0.9456	306.18	0.25
0.981	305.34	0.25

System: 2-methylpropan-2-ol + methyl methanoate; phases: Gas, Liquid
Fixed: Pressure, kPa = 101.32
Property: Mole fraction of methyl methanoate (Gas); method: CHROM:UFactor:4
Mole fraction of methyl methanoate	Mole fraction of methyl methanoate	uncertainty
0.0257	0.1592	0.0059
0.0273	0.1671	0.0062
0.0431	0.2474	0.0092
0.0434	0.2488	0.0093
0.0553	0.3054	0.0114
0.0688	0.3623	0.0135
0.0855	0.4258	0.0159
0.0981	0.4687	0.0175
0.1002	0.4771	0.0178
0.1182	0.5311	0.0176
0.1321	0.5646	0.0163
0.155	0.6178	0.0144
0.181	0.6655	0.0126
0.1961	0.6875	0.0118
0.2056	0.7064	0.0111
0.2295	0.7362	0.01
0.2749	0.7856	0.0082
0.2751	0.7875	0.0081
0.302	0.8091	0.0073
0.3344	0.8302	0.0065
0.367	0.8496	0.0058
0.4029	0.8685	0.0051
0.4402	0.8832	0.0045
0.4675	0.8927	0.0041
0.4959	0.9011	0.0038
0.5299	0.9097	0.0035
0.572	0.9204	0.0031
0.61	0.9286	0.0028
0.6607	0.9411	0.0023
0.7112	0.9498	0.002
0.746	0.9559	0.0017
0.8009	0.9657	0.0013
0.8587	0.9755	0.001
0.9098	0.9846	0.0006
0.9456	0.9907	0.0004
0.981	0.9968	0.0001

System: 2-methylpropan-2-ol + methyl methanoate; phases: Liquid
Fixed: Temperature, K = 299.15
Fixed: Pressure, kPa = 101.32
Property: Excess molar enthalpy (molar enthalpy of mixing), kJ/mol (Liquid); method: Calvet calorimetry
Mole fraction of methyl methanoate	Excess molar enthalpy (molar enthalpy of mixing), kJ/mol	uncertainty
0.0899	0.6595	0.0086
0.202	1.4048	0.0177
0.2873	1.8888	0.0236
0.3657	2.2091	0.0275
0.4323	2.3845	0.0296
0.5033	2.4856	0.0309
0.5567	2.4862	0.0309
0.6017	2.4306	0.0302
0.6287	2.3796	0.0296
0.6747	2.2508	0.028
0.7222	2.0563	0.0256
0.7721	1.811	0.0226
0.8206	1.5248	0.0191
0.8697	1.1793	0.0149
0.9187	0.7781	0.0101
0.9598	0.4173	0.0058

System: 2-methylpropan-2-ol + methyl methanoate; phases: Liquid
Fixed: Temperature, K = 299.15
Fixed: Pressure, kPa = 101.32
Property: Excess molar volume, m3/mol (Liquid); method: SAME:UFactor:2
Mole fraction of methyl methanoate	Excess molar volume, m3/mol	uncertainty
0.0627	2.95e-07	1.7e-08
0.1002	4.51e-07	1.8e-08
0.1302	5.67e-07	1.8e-08
0.1667	6.88e-07	1.9e-08
0.2419	8.67e-07	2e-08
0.319	9.88e-07	2e-08
0.3526	1.025e-06	2e-08
0.4033	1.061e-06	2e-08
0.4976	1.068e-06	2e-08
0.5076	1.067e-06	2e-08
0.5726	1.036e-06	2e-08
0.6163	9.94e-07	2e-08
0.6512	9.55e-07	2e-08
0.7222	8.68e-07	2e-08
0.7382	8.34e-07	1.9e-08
0.7939	7.46e-07	1.9e-08
0.8111	7.04e-07	1.9e-08
0.8902	5.01e-07	1.8e-08
0.9574	2.43e-07	1.7e-08

System: 2-methylpropan-2-ol + methyl ethanoate; phases: Liquid, Gas
Fixed: Pressure, kPa = 101.32
Property: Boiling temperature at pressure P, K (Liquid); method: EBULLIO:UFactor:4
Mole fraction of methyl ethanoate	Boiling temperature at pressure P, K	uncertainty
0.0266	353.94	0.12
0.0458	352.96	0.12
0.0683	351.81	0.12
0.0819	351.17	0.12
0.1016	350.25	0.12
0.1193	349.48	0.12
0.1502	348.16	0.12
0.1614	347.73	0.12
0.1767	347.09	0.12
0.2013	346.17	0.12
0.2161	345.63	0.12
0.2368	344.92	0.12
0.2615	344.07	0.12
0.2829	343.38	0.12
0.2994	342.87	0.12
0.3323	341.9	0.12
0.3465	341.5	0.12
0.3908	340.37	0.12
0.3926	340.28	0.12
0.4266	339.49	0.12
0.4649	338.63	0.12
0.5105	337.66	0.12
0.5498	336.86	0.12
0.59	336.11	0.12
0.6268	335.44	0.12
0.6772	334.58	0.12
0.7288	333.77	0.12
0.7776	333.03	0.12
0.8149	332.5	0.12
0.8489	331.9	0.12
0.8799	331.47	0.12
0.9356	330.73	0.12
0.9839	330.1	0.12

System: 2-methylpropan-2-ol + methyl ethanoate; phases: Gas, Liquid
Fixed: Pressure, kPa = 101.32
Property: Mole fraction of methyl ethanoate (Gas); method: CHROM:UFactor:4
Mole fraction of methyl ethanoate	Mole fraction of methyl ethanoate	uncertainty
0.0266	0.0797	0.003
0.0458	0.1329	0.0049
0.0683	0.1871	0.007
0.0819	0.2197	0.0082
0.1016	0.2658	0.0099
0.1193	0.2979	0.0111
0.1502	0.3585	0.0134
0.1614	0.3768	0.014
0.1767	0.4033	0.015
0.2013	0.4418	0.0165
0.2161	0.4621	0.0172
0.2368	0.4891	0.0182
0.2615	0.5226	0.0178
0.2829	0.5482	0.0169
0.2994	0.5655	0.0162
0.3323	0.5997	0.015
0.3465	0.6143	0.0144
0.3908	0.6522	0.013
0.3926	0.6549	0.0129
0.4266	0.6815	0.0119
0.4649	0.7095	0.0109
0.5105	0.7398	0.0098
0.5498	0.7649	0.0088
0.59	0.7872	0.008
0.6268	0.8073	0.0073
0.6772	0.8346	0.0062
0.7288	0.8578	0.0054
0.7776	0.8831	0.0044
0.8149	0.8997	0.0038
0.8489	0.9186	0.0031
0.8799	0.9338	0.0025
0.9356	0.9641	0.0014
0.9839	0.9904	0.0004

System: 2-methylpropan-2-ol + methyl ethanoate; phases: Liquid
Fixed: Pressure, kPa = 101.32
Property: Excess molar enthalpy (molar enthalpy of mixing), kJ/mol (Liquid); method: Calvet calorimetry
Temperature, K	Mole fraction of methyl ethanoate	Excess molar enthalpy (molar enthalpy of mixing), kJ/mol	uncertainty
299.15	0.0671	0.5276	0.007
299.15	0.1369	0.9966	0.0127
299.15	0.2113	1.4266	0.0179
299.15	0.2812	1.7457	0.0218
299.15	0.3492	1.9737	0.0246
299.15	0.4106	2.1077	0.0262
299.15	0.4675	2.1727	0.027
299.15	0.4928	2.1861	0.0272
299.15	0.5304	2.1941	0.0273
299.15	0.5753	2.1621	0.0269
299.15	0.6226	2.0907	0.026
299.15	0.6741	1.9644	0.0245
299.15	0.7293	1.7845	0.0223
299.15	0.7866	1.5386	0.0193
299.15	0.8439	1.2221	0.0154
299.15	0.9019	0.8409	0.0107
299.15	0.9551	0.4468	0.0059
318.15	0.071	0.4723	0.0063
318.15	0.1469	0.9037	0.0115
318.15	0.2304	1.2996	0.0164
318.15	0.3022	1.5978	0.02
318.15	0.3713	1.8167	0.0227
318.15	0.4322	1.9702	0.0246
318.15	0.4898	2.0503	0.0255
318.15	0.5407	2.0593	0.0257
318.15	0.5865	2.0284	0.0253
318.15	0.6105	1.9879	0.0248
318.15	0.6585	1.8869	0.0236
318.15	0.711	1.7341	0.0217
318.15	0.7628	1.5357	0.0194
318.15	0.817	1.2891	0.0164
318.15	0.8636	1.0146	0.0132
318.15	0.9085	0.7264	0.0099
318.15	0.9567	0.3719	0.0062

System: 2-methylpropan-2-ol + methyl ethanoate; phases: Liquid
Fixed: Pressure, kPa = 101.32
Property: Excess molar volume, m3/mol (Liquid); method: SAME:UFactor:2
Temperature, K	Mole fraction of methyl ethanoate	Excess molar volume, m3/mol	uncertainty
303.15	0.0451	1.65e-07	1.6e-08
303.15	0.0901	3.35e-07	1.7e-08
303.15	0.1537	5.06e-07	1.8e-08
303.15	0.1973	6.07e-07	1.8e-08
303.15	0.2481	7.02e-07	1.9e-08
303.15	0.2631	7.32e-07	1.9e-08
303.15	0.3042	8.09e-07	1.9e-08
303.15	0.3448	8.49e-07	1.9e-08
303.15	0.3957	8.87e-07	2e-08
303.15	0.4411	9.04e-07	2e-08
303.15	0.4445	8.99e-07	2e-08
303.15	0.4964	8.92e-07	2e-08
303.15	0.5515	8.74e-07	2e-08
303.15	0.5677	8.68e-07	2e-08
303.15	0.5954	8.5e-07	1.9e-08
303.15	0.6467	7.94e-07	1.9e-08
303.15	0.6956	7.42e-07	1.9e-08
303.15	0.7432	6.59e-07	1.9e-08
303.15	0.8016	5.54e-07	1.8e-08
303.15	0.8477	4.63e-07	1.8e-08
303.15	0.9067	3.28e-07	1.7e-08
303.15	0.9465	2.17e-07	1.7e-08
318.15	0.102	3.93e-07	1.7e-08
318.15	0.165	5.61e-07	1.8e-08
318.15	0.2168	6.84e-07	1.9e-08
318.15	0.2804	7.71e-07	1.9e-08
318.15	0.349	8.76e-07	2e-08
318.15	0.4031	9.16e-07	2e-08
318.15	0.4596	9.41e-07	2e-08
318.15	0.5227	9.15e-07	2e-08
318.15	0.5784	8.91e-07	2e-08
318.15	0.6398	8.5e-07	1.9e-08
318.15	0.6786	8.06e-07	1.9e-08
318.15	0.7422	7.18e-07	1.9e-08
318.15	0.7969	5.7e-07	1.8e-08
318.15	0.8256	5.31e-07	1.8e-08
318.15	0.9077	3.01e-07	1.7e-08
318.15	0.9496	1.86e-07	1.6e-08

System: 2-methylpropan-2-ol + methyl propanoate; phases: Liquid, Gas
Fixed: Pressure, kPa = 101.32
Property: Boiling temperature at pressure P, K (Liquid); method: EBULLIO:UFactor:4
Mole fraction of methyl propanoate	Boiling temperature at pressure P, K	uncertainty
0.022	355.33	0.12
0.0433	355	0.12
0.0609	354.76	0.12
0.0748	354.56	0.12
0.0901	354.38	0.12
0.0924	354.34	0.12
0.1043	354.2	0.12
0.1146	354.07	0.12
0.1332	353.84	0.12
0.1359	353.82	0.12
0.1597	353.52	0.12
0.1879	353.21	0.12
0.2014	353.07	0.12
0.212	352.96	0.12
0.2371	352.7	0.12
0.2484	352.56	0.12
0.269	352.34	0.12
0.2821	352.24	0.12
0.2975	352.11	0.12
0.3228	351.88	0.12
0.3465	351.7	0.12
0.3773	351.47	0.13
0.4024	351.31	0.13
0.4401	351.07	0.13
0.4715	350.91	0.13
0.4965	350.78	0.13
0.5299	350.66	0.13
0.5566	350.57	0.13
0.5792	350.54	0.13
0.6053	350.51	0.13
0.6341	350.48	0.13
0.6617	350.45	0.13
0.6864	350.44	0.13
0.7162	350.43	0.13
0.7365	350.47	0.13
0.7506	350.52	0.13
0.7676	350.58	0.13
0.7755	350.6	0.13
0.7809	350.61	0.13
0.7983	350.67	0.13
0.8278	350.77	0.13
0.8892	351.03	0.13
0.9099	351.11	0.13
0.9464	351.32	0.13
0.9583	351.42	0.13
0.9753	351.5	0.13

System: 2-methylpropan-2-ol + methyl propanoate; phases: Gas, Liquid
Fixed: Pressure, kPa = 101.32
Property: Mole fraction of methyl propanoate (Gas); method: CHROM:UFactor:4
Mole fraction of methyl propanoate	Mole fraction of methyl propanoate	uncertainty
0.022	0.0314	0.0012
0.0433	0.0614	0.0023
0.0609	0.0854	0.0032
0.0748	0.1041	0.0039
0.0901	0.1235	0.0046
0.0924	0.127	0.0047
0.1043	0.1436	0.0053
0.1146	0.1568	0.0058
0.1332	0.1781	0.0066
0.1359	0.1819	0.0068
0.1597	0.2115	0.0079
0.1879	0.2451	0.0091
0.2014	0.2609	0.0097
0.212	0.2729	0.0102
0.2371	0.3001	0.0112
0.2484	0.3112	0.0116
0.269	0.3332	0.0124
0.2821	0.3469	0.0129
0.2975	0.3623	0.0135
0.3228	0.3877	0.0145
0.3465	0.4106	0.0153
0.3773	0.4396	0.0164
0.4024	0.4626	0.0173
0.4401	0.4965	0.0186
0.4715	0.5218	0.0179
0.4965	0.5448	0.0171
0.5299	0.5699	0.0162
0.5566	0.5927	0.0153
0.5792	0.6111	0.0147
0.6053	0.6326	0.0139
0.6341	0.6551	0.0131
0.6617	0.6775	0.0122
0.6864	0.6969	0.0115
0.7162	0.7193	0.0107
0.7365	0.7345	0.0101
0.7506	0.7446	0.0097
0.7676	0.7579	0.0093
0.7755	0.7642	0.009
0.7809	0.7692	0.0088
0.7983	0.7832	0.0083
0.8278	0.8098	0.0073
0.8892	0.871	0.005
0.9099	0.8926	0.0042
0.9464	0.9336	0.0026
0.9583	0.9476	0.0021
0.9753	0.9684	0.0012

System: 2-methylpropan-2-ol + methyl propanoate; phases: Liquid
Fixed: Pressure, kPa = 101.32
Property: Excess molar enthalpy (molar enthalpy of mixing), kJ/mol (Liquid); method: Calvet calorimetry
Temperature, K	Mole fraction of methyl propanoate	Excess molar enthalpy (molar enthalpy of mixing), kJ/mol	uncertainty
299.15	0.0603	0.4195	0.0057
299.15	0.1414	0.8898	0.0114
299.15	0.2285	1.3268	0.0167
299.15	0.3164	1.6535	0.0207
299.15	0.3971	1.8511	0.0231
299.15	0.4573	1.9286	0.024
299.15	0.4705	1.9394	0.0242
299.15	0.5159	1.9522	0.0243
299.15	0.5343	1.9439	0.0242
299.15	0.5899	1.8955	0.0236
299.15	0.6328	1.8205	0.0227
299.15	0.6447	1.7921	0.0224
299.15	0.7116	1.6194	0.0203
299.15	0.7778	1.3709	0.0172
299.15	0.8496	1.019	0.0129
299.15	0.9351	0.4815	0.0063
318.15	0.0486	0.3261	0.0046
318.15	0.1007	0.6391	0.0083
318.15	0.1707	1.0034	0.0127
318.15	0.2374	1.2986	0.0163
318.15	0.3021	1.5231	0.0191
318.15	0.3578	1.6747	0.0209
318.15	0.4076	1.779	0.0222
318.15	0.4404	1.838	0.0229
318.15	0.4827	1.8619	0.0232
318.15	0.5312	1.8831	0.0235
318.15	0.582	1.8465	0.0231
318.15	0.6358	1.7688	0.0221
318.15	0.6986	1.6462	0.0206
318.15	0.7666	1.4054	0.0178
318.15	0.8289	1.138	0.0146
318.15	0.8931	0.791	0.0105
318.15	0.9582	0.3913	0.0061

System: 2-methylpropan-2-ol + methyl propanoate; phases: Liquid
Fixed: Pressure, kPa = 101.32
Property: Excess molar volume, m3/mol (Liquid); method: SAME:UFactor:2
Temperature, K	Mole fraction of methyl propanoate	Excess molar volume, m3/mol	uncertainty
303.15	0.0517	1.52e-07	1.6e-08
303.15	0.1081	2.93e-07	1.7e-08
303.15	0.1525	3.88e-07	1.7e-08
303.15	0.202	4.71e-07	1.8e-08
303.15	0.2516	5.43e-07	1.8e-08
303.15	0.3129	6.1e-07	1.8e-08
303.15	0.3638	6.48e-07	1.9e-08
303.15	0.406	6.67e-07	1.9e-08
303.15	0.4603	6.78e-07	1.9e-08
303.15	0.5167	6.79e-07	1.9e-08
303.15	0.5558	6.68e-07	1.9e-08
303.15	0.6086	6.41e-07	1.8e-08
303.15	0.6546	6.07e-07	1.8e-08
303.15	0.7197	5.43e-07	1.8e-08
303.15	0.752	4.91e-07	1.8e-08
303.15	0.8122	4.15e-07	1.7e-08
303.15	0.8545	3.48e-07	1.7e-08
303.15	0.9065	2.53e-07	1.7e-08
303.15	0.9394	1.73e-07	1.6e-08
318.15	0.075	1.94e-07	1.6e-08
318.15	0.1476	3.15e-07	1.7e-08
318.15	0.1952	4.16e-07	1.7e-08
318.15	0.2636	4.98e-07	1.8e-08
318.15	0.3159	5.59e-07	1.8e-08
318.15	0.3628	6.06e-07	1.8e-08
318.15	0.4165	6.39e-07	1.8e-08
318.15	0.4931	6.48e-07	1.9e-08
318.15	0.5472	6.41e-07	1.8e-08
318.15	0.6296	6.09e-07	1.8e-08
318.15	0.6429	5.87e-07	1.8e-08
318.15	0.7013	5.41e-07	1.8e-08
318.15	0.795	4.27e-07	1.8e-08
318.15	0.8267	3.68e-07	1.7e-08
318.15	0.8822	2.81e-07	1.7e-08
318.15	0.9493	1.39e-07	1.6e-08

System: 2-methylpropan-2-ol + methyl butanoate; phases: Liquid, Gas
Fixed: Pressure, kPa = 101.32
Property: Boiling temperature at pressure P, K (Liquid); method: EBULLIO:UFactor:8
Mole fraction of methyl butanoate	Boiling temperature at pressure P, K	uncertainty
0.0112	355.66	0.25
0.0426	355.8	0.25
0.0786	356.04	0.25
0.1092	356.28	0.25
0.1403	356.46	0.25
0.1813	356.79	0.25
0.2134	357.11	0.25
0.2561	357.53	0.25
0.3012	358.01	0.25
0.3356	358.37	0.25
0.3655	358.72	0.25
0.4077	359.08	0.25
0.4505	359.58	0.25
0.4825	360	0.25
0.5237	360.58	0.25
0.5633	361.19	0.25
0.6019	361.92	0.25
0.6401	362.56	0.25
0.6664	363.16	0.25
0.6915	363.81	0.25
0.7208	364.4	0.25
0.7409	364.91	0.25
0.7674	365.72	0.25
0.7693	365.91	0.25
0.7881	366.34	0.25
0.7939	366.51	0.25
0.8135	367.09	0.25
0.8303	367.62	0.25
0.8449	368.07	0.25
0.8586	368.62	0.25
0.8767	369.29	0.25
0.8961	370.07	0.25
0.9136	370.8	0.25
0.9335	371.61	0.25
0.9505	372.4	0.25
0.9676	373.29	0.25
0.9809	373.94	0.25

System: 2-methylpropan-2-ol + methyl butanoate; phases: Gas, Liquid
Fixed: Pressure, kPa = 101.32
Property: Mole fraction of methyl butanoate (Gas); method: CHROM:UFactor:4
Mole fraction of methyl butanoate	Mole fraction of methyl butanoate	uncertainty
0.0112	0.008	0.0003
0.0426	0.031	0.0012
0.0786	0.0577	0.0021
0.1092	0.0801	0.003
0.1403	0.1017	0.0038
0.1813	0.1298	0.0048
0.2134	0.1527	0.0057
0.2561	0.181	0.0067
0.3012	0.2101	0.0078
0.3356	0.2335	0.0087
0.3655	0.2539	0.0094
0.4077	0.2789	0.0104
0.4505	0.3085	0.0115
0.4825	0.3328	0.0124
0.5237	0.3614	0.0135
0.5633	0.3925	0.0146
0.6019	0.4239	0.0158
0.6401	0.4537	0.0169
0.6664	0.4781	0.0179
0.6915	0.5035	0.0186
0.7208	0.5326	0.0175
0.7409	0.5542	0.0167
0.7674	0.5845	0.0156
0.7693	0.5864	0.0155
0.7881	0.6085	0.0147
0.7939	0.6147	0.0145
0.8135	0.6418	0.0135
0.8303	0.665	0.0126
0.8449	0.6857	0.0118
0.8586	0.7063	0.0111
0.8767	0.7331	0.0101
0.8961	0.7698	0.0087
0.9136	0.8016	0.0075
0.9335	0.8411	0.0061
0.9505	0.8779	0.0047
0.9676	0.9175	0.0032
0.9809	0.9505	0.0019

System: 2-methylpropan-2-ol + methyl butanoate; phases: Liquid
Fixed: Pressure, kPa = 101.32
Property: Excess molar enthalpy (molar enthalpy of mixing), kJ/mol (Liquid); method: Calvet calorimetry
Temperature, K	Mole fraction of methyl butanoate	Excess molar enthalpy (molar enthalpy of mixing), kJ/mol	uncertainty
299.15	0.0487	0.3278	0.0046
299.15	0.1046	0.6598	0.0086
299.15	0.1632	0.9792	0.0125
299.15	0.2233	1.2519	0.0158
299.15	0.283	1.4698	0.0184
299.15	0.3383	1.6272	0.0204
299.15	0.3915	1.7368	0.0217
299.15	0.4395	1.8021	0.0225
299.15	0.4853	1.8378	0.0229
299.15	0.5221	1.844	0.023
299.15	0.5268	1.8469	0.023
299.15	0.5545	1.8377	0.0229
299.15	0.5745	1.8296	0.0228
299.15	0.636	1.7437	0.0218
299.15	0.7063	1.5873	0.0199
299.15	0.778	1.3525	0.017
299.15	0.8552	1.0059	0.0127
299.15	0.9325	0.5399	0.007
318.15	0.0458	0.292	0.0042
318.15	0.1	0.5896	0.0077
318.15	0.1556	0.8653	0.0111
318.15	0.2136	1.1453	0.0145
318.15	0.2734	1.3753	0.0173
318.15	0.3313	1.5465	0.0194
318.15	0.3854	1.6771	0.021
318.15	0.4221	1.738	0.0217
318.15	0.4655	1.7855	0.0223
318.15	0.5127	1.8039	0.0225
318.15	0.5632	1.7953	0.0224
318.15	0.6217	1.7397	0.0218
318.15	0.6845	1.625	0.0204
318.15	0.7505	1.4409	0.0182
318.15	0.8187	1.1714	0.015
318.15	0.884	0.8154	0.0108
318.15	0.9472	0.4257	0.0065

System: 2-methylpropan-2-ol + methyl butanoate; phases: Liquid
Fixed: Pressure, kPa = 101.32
Property: Excess molar volume, m3/mol (Liquid); method: SAME:UFactor:2
Temperature, K	Mole fraction of methyl butanoate	Excess molar volume, m3/mol	uncertainty
303.15	0.0628	1.6e-07	1.6e-08
303.15	0.0928	2.36e-07	1.7e-08
303.15	0.1566	3.68e-07	1.7e-08
303.15	0.194	4.3e-07	1.7e-08
303.15	0.2507	5.07e-07	1.8e-08
303.15	0.3088	5.69e-07	1.8e-08
303.15	0.3502	6.04e-07	1.8e-08
303.15	0.3916	6.3e-07	1.8e-08
303.15	0.453	6.49e-07	1.9e-08
303.15	0.5059	6.51e-07	1.9e-08
303.15	0.5463	6.4e-07	1.8e-08
303.15	0.6022	6.17e-07	1.8e-08
303.15	0.6588	5.71e-07	1.8e-08
303.15	0.698	5.37e-07	1.8e-08
303.15	0.7527	4.73e-07	1.8e-08
303.15	0.7928	4.2e-07	1.7e-08
303.15	0.851	3.21e-07	1.7e-08
303.15	0.9115	2.06e-07	1.6e-08
303.15	0.942	1.4e-07	1.6e-08
318.15	0.1079	2.35e-07	1.7e-08
318.15	0.1326	2.91e-07	1.7e-08
318.15	0.1749	3.68e-07	1.7e-08
318.15	0.2201	4.34e-07	1.8e-08
318.15	0.2751	5.03e-07	1.8e-08
318.15	0.3257	5.54e-07	1.8e-08
318.15	0.3949	6.05e-07	1.8e-08
318.15	0.4521	6.3e-07	1.8e-08
318.15	0.4783	6.36e-07	1.8e-08
318.15	0.55	6.31e-07	1.8e-08
318.15	0.5996	6.16e-07	1.8e-08
318.15	0.6675	5.74e-07	1.8e-08
318.15	0.7318	5.24e-07	1.8e-08
318.15	0.8163	4.04e-07	1.7e-08
318.15	0.8728	3.17e-07	1.7e-08
