Measured thermophysical data. Solubilities of Some Long-Chain n-Alkanes in Dipropyl Ether, Dibutyl Ether, 1-Chlorobutane, and 1-Chlorooctane as Functions of Temperature
Source: J. Chem. Eng. Data, 2004, 10.1021/je030206q
Compound 1: dipropyl ether, C6H14O, InChI=1S/C6H14O/c1-3-5-7-6-4-2/h3-6H2,1-2H3
Compound 2: dibutyl ether, C8H18O, InChI=1S/C8H18O/c1-3-5-7-9-8-6-4-2/h3-8H2,1-2H3
Compound 3: 1-chlorobutane, C4H9Cl, InChI=1S/C4H9Cl/c1-2-3-4-5/h2-4H2,1H3
Compound 4: 1-chlorooctane, C8H17Cl, InChI=1S/C8H17Cl/c1-2-3-4-5-6-7-8-9/h2-8H2,1H3
Compound 5: octadecane, C18H38, InChI=1S/C18H38/c1-3-5-7-9-11-13-15-17-18-16-14-12-10-8-6-4-2/h3-18H2,1-2H3
Compound 6: nonadecane, C19H40, InChI=1S/C19H40/c1-3-5-7-9-11-13-15-17-19-18-16-14-12-10-8-6-4-2/h3-19H2,1-2H3
Compound 7: eicosane, C20H42, InChI=1S/C20H42/c1-3-5-7-9-11-13-15-17-19-20-18-16-14-12-10-8-6-4-2/h3-20H2,1-2H3
Compound 8: tetracosane, C24H50, InChI=1S/C24H50/c1-3-5-7-9-11-13-15-17-19-21-23-24-22-20-18-16-14-12-10-8-6-4-2/h3-24H2,1-2H3

System: octadecane; phases: Crystal 2, Crystal 1, Air at 1 atmosphere
Property: Triple point temperature, K (Crystal 2); method: OTHER
Triple point temperature, K	uncertainty
300.5	0.5

System: octadecane; phases: Crystal 1, Liquid, Air at 1 atmosphere
Property: Normal melting temperature, K (Crystal 1); method: VISOBS
Normal melting temperature, K	uncertainty
301.7	0.4

System: nonadecane; phases: Crystal 2, Crystal 1, Air at 1 atmosphere
Property: Triple point temperature, K (Crystal 2); method: OTHER
Triple point temperature, K	uncertainty
295.5	0.5

System: nonadecane; phases: Crystal 2, Crystal 1, Air at 1 atmosphere
Property: Triple point temperature, K (Crystal 2); method: OTHER
Triple point temperature, K	uncertainty
304.1	0.5

System: nonadecane; phases: Crystal 1, Liquid, Air at 1 atmosphere
Property: Normal melting temperature, K (Crystal 1); method: VISOBS
Normal melting temperature, K	uncertainty
305.6	0.4

System: eicosane; phases: Crystal 2, Crystal 1, Air at 1 atmosphere
Property: Triple point temperature, K (Crystal 2); method: OTHER
Triple point temperature, K	uncertainty
309.2	0.5

System: eicosane; phases: Crystal 1, Liquid, Air at 1 atmosphere
Property: Normal melting temperature, K (Crystal 1); method: VISOBS
Normal melting temperature, K	uncertainty
310.35	0.4

System: tetracosane; phases: Crystal 2, Crystal 1, Air at 1 atmosphere
Property: Triple point temperature, K (Crystal 2); method: OTHER
Triple point temperature, K	uncertainty
321.4	0.5

System: tetracosane; phases: Crystal 1, Liquid, Air at 1 atmosphere
Property: Normal melting temperature, K (Crystal 1); method: VISOBS
Normal melting temperature, K	uncertainty
323.85	0.4

System: dipropyl ether + octadecane; phases: Liquid, Crystal 1
Fixed: Pressure, kPa = 101.3
Property: Solid-liquid equilibrium temperature, K (Liquid); method: VISOBS:UFactor:2
Mole fraction of octadecane	Solid-liquid equilibrium temperature, K	uncertainty
0.938	300.9	0.4
0.966	301.35	0.4
1	301.7	0.4

System: dipropyl ether + octadecane; phases: Liquid, Crystal 2
Fixed: Pressure, kPa = 101.3
Property: Solid-liquid equilibrium temperature, K (Liquid); method: VISOBS:UFactor:2
Mole fraction of octadecane	Solid-liquid equilibrium temperature, K	uncertainty
0.0765	274.95	0.4
0.0946	276.75	0.4
0.1175	278.85	0.4
0.1384	280.45	0.4
0.1614	281.75	0.4
0.1922	283.55	0.4
0.2275	285.35	0.4
0.268	287	0.4
0.313	288.55	0.4
0.353	289.9	0.4
0.4	291.1	0.4
0.444	292.35	0.4
0.487	293.45	0.4
0.534	294.3	0.4
0.574	295.1	0.4
0.62	296	0.4
0.666	296.85	0.4
0.708	297.5	0.4
0.753	298.25	0.4
0.786	298.8	0.4
0.821	299.3	0.4
0.857	299.75	0.4
0.895	300.3	0.4

System: dibutyl ether + octadecane; phases: Liquid, Crystal 1
Fixed: Pressure, kPa = 101.3
Property: Solid-liquid equilibrium temperature, K (Liquid); method: VISOBS:UFactor:2
Mole fraction of octadecane	Solid-liquid equilibrium temperature, K	uncertainty
0.934	300.8	0.4
0.952	301.1	0.4
0.976	301.4	0.4
1	301.7	0.4

System: dibutyl ether + octadecane; phases: Liquid, Crystal 2
Fixed: Pressure, kPa = 101.3
Property: Solid-liquid equilibrium temperature, K (Liquid); method: VISOBS:UFactor:2
Mole fraction of octadecane	Solid-liquid equilibrium temperature, K	uncertainty
0.0787	274.55	0.4
0.099	276.75	0.4
0.119	278.65	0.4
0.1444	280.55	0.4
0.1727	282.25	0.4
0.205	284.05	0.4
0.2424	285.85	0.4
0.2809	287.4	0.4
0.322	288.85	0.4
0.364	290.15	0.4
0.41	291.45	0.4
0.452	292.55	0.4
0.494	293.45	0.4
0.538	294.45	0.4
0.581	295.25	0.4
0.63	296.15	0.4
0.674	296.85	0.4
0.713	297.65	0.4
0.755	298.4	0.4
0.794	298.95	0.4
0.826	299.3	0.4
0.856	299.75	0.4
0.892	300.2	0.4

System: dipropyl ether + nonadecane; phases: Liquid, Crystal 1
Fixed: Pressure, kPa = 101.3
Property: Solid-liquid equilibrium temperature, K (Liquid); method: VISOBS:UFactor:2
Mole fraction of nonadecane	Solid-liquid equilibrium temperature, K	uncertainty
0.954	304.6	0.4
0.977	305.25	0.4
1	305.65	0.4

System: dipropyl ether + nonadecane; phases: Liquid, Crystal 2
Fixed: Pressure, kPa = 101.3
Property: Solid-liquid equilibrium temperature, K (Liquid); method: VISOBS:UFactor:2
Mole fraction of nonadecane	Solid-liquid equilibrium temperature, K	uncertainty
0.561	296.2	0.4
0.594	297.2	0.4
0.627	298.05	0.4
0.66	298.75	0.4
0.691	299.3	0.4
0.724	300.05	0.4
0.756	300.85	0.4
0.796	301.75	0.4
0.834	302.4	0.4
0.874	303.15	0.4
0.897	303.4	0.4
0.927	303.95	0.4
0.0597	274.05	0.4
0.0694	275.55	0.4
0.0847	277.4	0.4
0.1024	279.35	0.4
0.1213	280.65	0.4
0.1411	282.15	0.4
0.1612	283.45	0.4
0.1844	284.65	0.4
0.2122	285.85	0.4
0.242	287.15	0.4
0.2734	288.4	0.4
0.312	289.8	0.4
0.347	290.95	0.4
0.381	291.95	0.4
0.415	292.9	0.4
0.442	293.6	0.4
0.474	294.3	0.4
0.502	294.85	0.4
0.534	295.5	0.4

System: dibutyl ether + nonadecane; phases: Liquid, Crystal 1
Fixed: Pressure, kPa = 101.3
Property: Solid-liquid equilibrium temperature, K (Liquid); method: VISOBS:UFactor:2
Mole fraction of nonadecane	Solid-liquid equilibrium temperature, K	uncertainty
0.945	304.3	0.4
0.973	304.9	0.4
1	305.55	0.4

System: dibutyl ether + nonadecane; phases: Liquid, Crystal 2
Fixed: Pressure, kPa = 101.3
Property: Solid-liquid equilibrium temperature, K (Liquid); method: VISOBS:UFactor:2
Mole fraction of nonadecane	Solid-liquid equilibrium temperature, K	uncertainty
0.547	295.85	0.4
0.577	296.6	0.4
0.609	297.35	0.4
0.647	298.25	0.4
0.688	299.25	0.4
0.74	300.15	0.4
0.77	300.85	0.4
0.808	301.75	0.4
0.842	302.45	0.4
0.877	303.05	0.4
0.923	303.85	0.4
0.0657	274.35	0.4
0.0783	275.95	0.4
0.0951	277.85	0.4
0.1155	279.75	0.4
0.1382	281.65	0.4
0.1645	283.25	0.4
0.1915	284.75	0.4
0.2239	286.35	0.4
0.2558	287.65	0.4
0.2865	288.75	0.4
0.318	289.85	0.4
0.352	290.95	0.4
0.382	291.9	0.4
0.416	293.05	0.4
0.447	293.6	0.4
0.484	294.55	0.4
0.515	295.2	0.4

System: dipropyl ether + eicosane; phases: Liquid, Crystal 1
Fixed: Pressure, kPa = 101.3
Property: Solid-liquid equilibrium temperature, K (Liquid); method: VISOBS:UFactor:2
Mole fraction of eicosane	Solid-liquid equilibrium temperature, K	uncertainty
0.954	309.55	0.4
0.974	310	0.4
1	310.3	0.4

System: dipropyl ether + eicosane; phases: Liquid, Crystal 2
Fixed: Pressure, kPa = 101.3
Property: Solid-liquid equilibrium temperature, K (Liquid); method: VISOBS:UFactor:2
Mole fraction of eicosane	Solid-liquid equilibrium temperature, K	uncertainty
0.0263	275.05	0.4
0.0315	276.45	0.4
0.0377	278.05	0.4
0.0459	279.85	0.4
0.0559	281.65	0.4
0.0703	283.75	0.4
0.0873	285.55	0.4
0.1084	287.55	0.4
0.131	289.15	0.4
0.1598	290.95	0.4
0.1898	292.55	0.4
0.2245	294.05	0.4
0.2635	295.65	0.4
0.309	297.2	0.4
0.35	298.45	0.4
0.39	299.65	0.4
0.438	300.8	0.4
0.491	301.95	0.4
0.534	302.85	0.4
0.575	303.65	0.4
0.618	304.45	0.4
0.66	305.15	0.4
0.708	305.95	0.4
0.744	306.55	0.4
0.787	307.2	0.4
0.831	307.85	0.4
0.874	308.5	0.4
0.903	308.75	0.4
0.926	309.1	0.4

System: eicosane + dibutyl ether; phases: Liquid, Crystal 1
Fixed: Pressure, kPa = 101.3
Property: Solid-liquid equilibrium temperature, K (Liquid); method: VISOBS:UFactor:2
Mole fraction of eicosane	Solid-liquid equilibrium temperature, K	uncertainty
0.948	309.25	0.4
0.974	309.9	0.4
1	310.35	0.4

System: eicosane + dibutyl ether; phases: Liquid, Crystal 2
Fixed: Pressure, kPa = 101.3
Property: Solid-liquid equilibrium temperature, K (Liquid); method: VISOBS:UFactor:2
Mole fraction of eicosane	Solid-liquid equilibrium temperature, K	uncertainty
0.0277	274.95	0.4
0.0338	276.75	0.4
0.0412	278.35	0.4
0.0495	279.85	0.4
0.0593	281.5	0.4
0.0704	283.15	0.4
0.0843	284.85	0.4
0.0996	286.35	0.4
0.1155	287.75	0.4
0.1336	289.15	0.4
0.1534	290.45	0.4
0.175	291.75	0.4
0.1991	292.9	0.4
0.2309	294.35	0.4
0.267	295.8	0.4
0.31	297.25	0.4
0.354	298.6	0.4
0.403	299.9	0.4
0.456	301.2	0.4
0.509	302.3	0.4
0.555	303.2	0.4
0.604	304.15	0.4
0.651	304.9	0.4
0.688	305.55	0.4
0.734	306.35	0.4
0.781	307	0.4
0.816	307.5	0.4
0.854	308.1	0.4
0.901	308.75	0.4
0.924	308.95	0.4

System: dipropyl ether + tetracosane; phases: Liquid, Crystal 1
Fixed: Pressure, kPa = 101.3
Property: Solid-liquid equilibrium temperature, K (Liquid); method: VISOBS:UFactor:2
Mole fraction of tetracosane	Solid-liquid equilibrium temperature, K	uncertainty
0.872	321.95	0.4
0.9	322.2	0.4
0.929	322.75	0.4
0.965	323.35	0.4
1	323.85	0.4

System: dipropyl ether + tetracosane; phases: Liquid, Crystal 2
Fixed: Pressure, kPa = 101.3
Property: Solid-liquid equilibrium temperature, K (Liquid); method: VISOBS:UFactor:2
Mole fraction of tetracosane	Solid-liquid equilibrium temperature, K	uncertainty
0.0025	273.95	0.4
0.0036	276.65	0.4
0.0051	279.15	0.4
0.0075	281.95	0.4
0.0108	284.75	0.4
0.0149	287.15	0.4
0.018	288.35	0.4
0.02	289.35	0.4
0.0209	289.3	0.4
0.0289	291.75	0.4
0.038	293.9	0.4
0.0509	296.25	0.4
0.0647	298.15	0.4
0.0816	300.05	0.4
0.0968	301.45	0.4
0.1166	303	0.4
0.14	304.5	0.4
0.1665	305.95	0.4
0.1996	307.55	0.4
0.2331	309	0.4
0.2701	310.4	0.4
0.312	311.85	0.4
0.348	312.75	0.4
0.391	313.75	0.4
0.433	314.8	0.4
0.476	315.7	0.4
0.533	316.7	0.4
0.579	317.75	0.4
0.635	318.65	0.4
0.684	319.25	0.4
0.739	320	0.4
0.78	320.5	0.4
0.827	321.15	0.4

System: dibutyl ether + tetracosane; phases: Liquid, Crystal 1
Fixed: Pressure, kPa = 101.3
Property: Solid-liquid equilibrium temperature, K (Liquid); method: VISOBS:UFactor:2
Mole fraction of tetracosane	Solid-liquid equilibrium temperature, K	uncertainty
0.862	321.6	0.4
0.894	322.2	0.4
0.929	322.8	0.4
0.963	323.45	0.4
1	323.85	0.4

System: dibutyl ether + tetracosane; phases: Liquid, Crystal 2
Fixed: Pressure, kPa = 101.3
Property: Solid-liquid equilibrium temperature, K (Liquid); method: VISOBS:UFactor:2
Mole fraction of tetracosane	Solid-liquid equilibrium temperature, K	uncertainty
0.0035	275.45	0.4
0.0046	277.55	0.4
0.0063	279.95	0.4
0.0087	282.45	0.4
0.0122	284.95	0.4
0.017	287.35	0.4
0.0215	289.35	0.4
0.0251	290.55	0.4
0.0271	290.85	0.4
0.0336	292.65	0.4
0.0419	294.35	0.4
0.0517	296.05	0.4
0.0628	297.65	0.4
0.0764	299.25	0.4
0.0913	300.75	0.4
0.109	302.3	0.4
0.1287	303.75	0.4
0.1534	305.25	0.4
0.182	306.65	0.4
0.2161	308.3	0.4
0.2668	310.35	0.4
0.311	311.85	0.4
0.357	313.15	0.4
0.4	314.05	0.4
0.435	314.85	0.4
0.474	315.75	0.4
0.518	316.6	0.4
0.557	317.4	0.4
0.604	318.1	0.4
0.646	318.75	0.4
0.695	319.4	0.4
0.744	320.15	0.4
0.773	320.45	0.4
0.815	321.1	0.4

System: 1-chlorobutane + octadecane; phases: Liquid, Crystal 1
Fixed: Pressure, kPa = 101.3
Property: Solid-liquid equilibrium temperature, K (Liquid); method: VISOBS:UFactor:2
Mole fraction of octadecane	Solid-liquid equilibrium temperature, K	uncertainty
0.924	300.7	0.4
0.947	301.2	0.4
0.97	301.45	0.4
1	301.7	0.4

System: 1-chlorobutane + octadecane; phases: Liquid, Crystal 2
Fixed: Pressure, kPa = 101.3
Property: Solid-liquid equilibrium temperature, K (Liquid); method: VISOBS:UFactor:2
Mole fraction of octadecane	Solid-liquid equilibrium temperature, K	uncertainty
0.0662	274.95	0.4
0.0824	276.95	0.4
0.0991	278.55	0.4
0.1168	279.95	0.4
0.1373	281.65	0.4
0.1652	283.05	0.4
0.1941	284.45	0.4
0.224	285.65	0.4
0.2626	287.05	0.4
0.2974	288.15	0.4
0.332	289.3	0.4
0.373	290.35	0.4
0.412	291.35	0.4
0.45	292.3	0.4
0.491	293.2	0.4
0.54	294.15	0.4
0.586	295.05	0.4
0.641	296.15	0.4
0.69	297.05	0.4
0.734	297.9	0.4
0.784	298.7	0.4
0.832	299.4	0.4
0.88	300.05	0.4

System: 1-chlorooctane + octadecane; phases: Liquid, Crystal 1
Fixed: Pressure, kPa = 101.3
Property: Solid-liquid equilibrium temperature, K (Liquid); method: VISOBS:UFactor:2
Mole fraction of octadecane	Solid-liquid equilibrium temperature, K	uncertainty
0.91	300.55	0.4
0.953	301.15	0.4
0.977	301.4	0.4
1	301.7	0.4

System: 1-chlorooctane + octadecane; phases: Liquid, Crystal 2
Fixed: Pressure, kPa = 101.3
Property: Solid-liquid equilibrium temperature, K (Liquid); method: VISOBS:UFactor:2
Mole fraction of octadecane	Solid-liquid equilibrium temperature, K	uncertainty
0.0636	273.85	0.4
0.0714	275.05	0.4
0.0965	277.85	0.4
0.1238	280.25	0.4
0.1534	282.35	0.4
0.1825	284	0.4
0.2131	285.45	0.4
0.2519	287.05	0.4
0.288	288.35	0.4
0.324	289.45	0.4
0.36	290.5	0.4
0.393	291.45	0.4
0.427	292.35	0.4
0.464	293.3	0.4
0.502	294.05	0.4
0.546	294.95	0.4
0.586	295.65	0.4
0.625	296.3	0.4
0.66	296.9	0.4
0.698	297.45	0.4
0.737	298.05	0.4
0.764	298.55	0.4
0.797	298.95	0.4
0.832	299.45	0.4
0.87	299.95	0.4

System: 1-chlorobutane + nonadecane; phases: Liquid, Crystal 1
Fixed: Pressure, kPa = 101.3
Property: Solid-liquid equilibrium temperature, K (Liquid); method: VISOBS:UFactor:2
Mole fraction of nonadecane	Solid-liquid equilibrium temperature, K	uncertainty
0.953	304.65	0.4
1	305.6	0.4

System: 1-chlorobutane + nonadecane; phases: Liquid, Crystal 2
Fixed: Pressure, kPa = 101.3
Property: Solid-liquid equilibrium temperature, K (Liquid); method: VISOBS:UFactor:2
Mole fraction of nonadecane	Solid-liquid equilibrium temperature, K	uncertainty
0.54	295.85	0.4
0.578	296.85	0.4
0.621	297.95	0.4
0.653	298.7	0.4
0.689	299.45	0.4
0.73	300.3	0.4
0.775	301.3	0.4
0.816	302.25	0.4
0.846	302.85	0.4
0.883	303.25	0.4
0.914	303.85	0.4
0.0559	274.85	0.4
0.0776	277.55	0.4
0.0882	278.95	0.4
0.1076	280.65	0.4
0.1304	282.35	0.4
0.1594	284.05	0.4
0.1939	285.8	0.4
0.2333	287.55	0.4
0.2698	288.75	0.4
0.2967	289.75	0.4
0.329	290.75	0.4
0.361	291.65	0.4
0.39	292.45	0.4
0.432	293.5	0.4
0.464	294.35	0.4
0.504	295.2	0.4

System: 1-chlorooctane + nonadecane; phases: Liquid, Crystal 1
Fixed: Pressure, kPa = 101.3
Property: Solid-liquid equilibrium temperature, K (Liquid); method: VISOBS:UFactor:2
Mole fraction of nonadecane	Solid-liquid equilibrium temperature, K	uncertainty
0.939	304.45	0.4
0.969	304.95	0.4
1	305.65	0.4

System: 1-chlorooctane + nonadecane; phases: Liquid, Crystal 2
Fixed: Pressure, kPa = 101.3
Property: Solid-liquid equilibrium temperature, K (Liquid); method: VISOBS:UFactor:2
Mole fraction of nonadecane	Solid-liquid equilibrium temperature, K	uncertainty
0.515	295.55	0.4
0.552	296.25	0.4
0.583	297.15	0.4
0.617	298	0.4
0.655	298.9	0.4
0.699	299.7	0.4
0.73	300.15	0.4
0.762	300.9	0.4
0.801	301.75	0.4
0.843	302.65	0.4
0.885	303.5	0.4
0.91	303.9	0.4
0.0575	274.95	0.4
0.0732	277.15	0.4
0.0922	279.35	0.4
0.1141	281.2	0.4
0.1399	283.15	0.4
0.1667	284.65	0.4
0.1971	286.25	0.4
0.2295	287.55	0.4
0.2662	289.05	0.4
0.302	290.25	0.4
0.342	291.5	0.4
0.38	292.4	0.4
0.414	293.3	0.4
0.448	294.15	0.4
0.483	294.95	0.4

System: 1-chlorobutane + eicosane; phases: Liquid, Crystal 1
Fixed: Pressure, kPa = 101.3
Property: Solid-liquid equilibrium temperature, K (Liquid); method: VISOBS:UFactor:2
Mole fraction of eicosane	Solid-liquid equilibrium temperature, K	uncertainty
0.94	309.5	0.4
0.971	310.05	0.4
1	310.45	0.4

System: 1-chlorobutane + eicosane; phases: Liquid, Crystal 2
Fixed: Pressure, kPa = 101.3
Property: Solid-liquid equilibrium temperature, K (Liquid); method: VISOBS:UFactor:2
Mole fraction of eicosane	Solid-liquid equilibrium temperature, K	uncertainty
0.0245	275.95	0.4
0.0313	277.85	0.4
0.0394	279.85	0.4
0.0488	281.75	0.4
0.0618	283.65	0.4
0.0848	285.65	0.4
0.0962	287.15	0.4
0.1182	288.95	0.4
0.1428	290.45	0.4
0.1686	291.95	0.4
0.1981	293.45	0.4
0.2321	294.85	0.4
0.2631	296.1	0.4
0.2948	297.05	0.4
0.334	298.3	0.4
0.38	299.6	0.4
0.431	300.85	0.4
0.475	301.85	0.4
0.517	302.75	0.4
0.558	303.55	0.4
0.597	304.15	0.4
0.638	304.9	0.4
0.688	305.75	0.4
0.746	306.75	0.4
0.784	307.35	0.4
0.834	308.2	0.4
0.881	308.65	0.4
0.911	309	0.4

System: 1-chlorooctane + eicosane; phases: Liquid, Crystal 1
Fixed: Pressure, kPa = 101.3
Property: Solid-liquid equilibrium temperature, K (Liquid); method: VISOBS:UFactor:2
Mole fraction of eicosane	Solid-liquid equilibrium temperature, K	uncertainty
0.944	309.3	0.4
0.973	309.85	0.4
1	310.35	0.4

System: 1-chlorooctane + eicosane; phases: Liquid, Crystal 2
Fixed: Pressure, kPa = 101.3
Property: Solid-liquid equilibrium temperature, K (Liquid); method: VISOBS:UFactor:2
Mole fraction of eicosane	Solid-liquid equilibrium temperature, K	uncertainty
0.0238	274.95	0.4
0.0312	277.25	0.4
0.0407	279.85	0.4
0.0533	282.25	0.4
0.0663	283.95	0.4
0.0776	285.65	0.4
0.0886	286.55	0.4
0.1065	288.25	0.4
0.1263	289.75	0.4
0.1459	290.95	0.4
0.1665	292.25	0.4
0.1889	293.45	0.4
0.2155	294.65	0.4
0.2482	295.95	0.4
0.2852	297.2	0.4
0.329	298.6	0.4
0.384	300.15	0.4
0.441	301.45	0.4
0.499	302.6	0.4
0.544	303.4	0.4
0.579	304.05	0.4
0.621	304.75	0.4
0.654	305.25	0.4
0.693	305.85	0.4
0.725	306.35	0.4
0.758	306.85	0.4
0.792	307.35	0.4
0.828	307.75	0.4
0.868	308.35	0.4
0.892	308.6	0.4
0.918	308.95	0.4

System: 1-chlorobutane + tetracosane; phases: Liquid, Crystal 1
Fixed: Pressure, kPa = 101.3
Property: Solid-liquid equilibrium temperature, K (Liquid); method: VISOBS:UFactor:2
Mole fraction of tetracosane	Solid-liquid equilibrium temperature, K	uncertainty
0.824	321.5	0.4
0.855	321.9	0.4
0.864	322.1	0.4
0.897	322.5	0.4
0.909	322.85	0.4
0.945	323.25	0.4
0.953	323.45	0.4
0.955	323.4	0.4
1	323.85	0.4

System: 1-chlorobutane + tetracosane; phases: Liquid, Crystal 2
Fixed: Pressure, kPa = 101.3
Property: Solid-liquid equilibrium temperature, K (Liquid); method: VISOBS:UFactor:2
Mole fraction of tetracosane	Solid-liquid equilibrium temperature, K	uncertainty
0.0027	275.35	0.4
0.0032	276.35	0.4
0.0039	277.75	0.4
0.0045	278.75	0.4
0.0055	280.05	0.4
0.0062	280.95	0.4
0.0074	282.35	0.4
0.0082	283.15	0.4
0.0103	284.65	0.4
0.0109	285.05	0.4
0.0136	286.75	0.4
0.014	286.9	0.4
0.0164	288.1	0.4
0.0183	288.95	0.4
0.0184	288.95	0.4
0.0198	289.5	0.4
0.0239	290.85	0.4
0.0254	291.3	0.4
0.0296	292.45	0.4
0.0328	293.25	0.4
0.0371	294.15	0.4
0.0408	294.85	0.4
0.0456	295.7	0.4
0.0497	296.4	0.4
0.056	297.25	0.4
0.0605	297.85	0.4
0.063	298.25	0.4
0.0737	299.45	0.4
0.0855	300.65	0.4
0.0896	301.05	0.4
0.1015	302.05	0.4
0.1075	302.55	0.4
0.1211	303.5	0.4
0.1291	304.1	0.4
0.1432	304.95	0.4
0.1506	305.4	0.4
0.1652	306.25	0.4
0.1749	306.65	0.4
0.1958	307.65	0.4
0.2014	307.85	0.4
0.225	309	0.4
0.2303	309	0.4
0.2493	309.95	0.4
0.2631	310.4	0.4
0.2817	311.05	0.4
0.302	311.85	0.4
0.31	311.95	0.4
0.332	312.65	0.4
0.34	312.85	0.4
0.368	313.55	0.4
0.377	313.7	0.4
0.406	314.4	0.4
0.417	314.7	0.4
0.443	315.25	0.4
0.461	315.55	0.4
0.481	316.1	0.4
0.508	316.6	0.4
0.525	316.85	0.4
0.555	317.4	0.4
0.568	317.85	0.4
0.608	318.5	0.4
0.65	319.1	0.4
0.694	319.75	0.4
0.717	319.95	0.4
0.741	320.45	0.4
0.774	320.7	0.4
0.788	321.05	0.4
0.812	321.15	0.4

System: 1-chlorooctane + tetracosane; phases: Liquid, Crystal 1
Fixed: Pressure, kPa = 101.3
Property: Solid-liquid equilibrium temperature, K (Liquid); method: VISOBS:UFactor:2
Mole fraction of tetracosane	Solid-liquid equilibrium temperature, K	uncertainty
0.881	321.85	0.4
0.918	322.5	0.4
0.954	323.1	0.4
1	323.85	0.4

System: 1-chlorooctane + tetracosane; phases: Liquid, Crystal 2
Fixed: Pressure, kPa = 101.3
Property: Solid-liquid equilibrium temperature, K (Liquid); method: VISOBS:UFactor:2
Mole fraction of tetracosane	Solid-liquid equilibrium temperature, K	uncertainty
0.0031	275.75	0.4
0.0044	277.95	0.4
0.0064	281.15	0.4
0.0093	283.95	0.4
0.013	286.35	0.4
0.0172	288.55	0.4
0.0218	290.45	0.4
0.0252	291.45	0.4
0.0274	291.95	0.4
0.033	293.45	0.4
0.0413	295.2	0.4
0.0507	296.85	0.4
0.0631	298.65	0.4
0.0777	300.45	0.4
0.0965	302.35	0.4
0.116	303.75	0.4
0.1611	306.55	0.4
0.1866	307.95	0.4
0.2155	309.25	0.4
0.2474	310.45	0.4
0.2804	311.55	0.4
0.32	312.75	0.4
0.363	313.9	0.4
0.405	314.85	0.4
0.446	315.65	0.4
0.486	316.4	0.4
0.521	317.05	0.4
0.564	317.65	0.4
0.616	318.5	0.4
0.665	319.1	0.4
0.719	319.7	0.4
0.778	320.45	0.4
0.82	321	0.4
0.85	321.4	0.4
