Measured thermophysical data. Vapor pressures, molar enthalpies of sublimation and molar enthalpies of solution in water of 5-trifluoromethyluracil
Source: J. Chem. Eng. Data, 2004, 10.1021/je030231w
Compound 1: 5-(trifluoromethyl)uracil, C5H3F3N2O2, InChI=1S/C5H3F3N2O2/c6-5(7,8)2-1-9-4(12)10-3(2)11/h1H,(H2,9,10,11,12)
Compound 2: water, H2O, InChI=1S/H2O/h1H2

System: 5-(trifluoromethyl)uracil; phases: Crystal, Gas
Property: Vapor or sublimation pressure, kPa (Crystal); method: Calculated from knudsen effusion weight loss
Temperature, K	Vapor or sublimation pressure, kPa	uncertainty
373.02	1.187e-05	6e-07
373.02	1.168e-05	5.9e-07
374.94	1.376e-05	7e-07
378.75	2.012e-05	1.02e-06
380.67	2.417e-05	1.22e-06
382.54	2.882e-05	1.45e-06
384.45	3.348e-05	1.68e-06
386.35	3.983e-05	2e-06
388.25	4.61e-05	2.32e-06
390.15	5.586e-05	2.8e-06
392.01	6.401e-05	3.21e-06
392.01	6.45e-05	3.24e-06

System: 5-(trifluoromethyl)uracil + water; phases: Liquid
Fixed: Temperature, K = 298
Fixed: Pressure, kPa = 101.3
Property: Mass density, kg/m3 (Liquid); method: VIBTUB:UFactor:4
Molality, mol/kg of 5-(trifluoromethyl)uracil	Mass density, kg/m3	uncertainty
0.010336	997.88	0.199
0.010923	997.938	0.195
0.011011	997.946	0.187
0.011218	997.96	0.192
0.011866	998.017	0.188
0.012922	998.089	0.185
