Measured thermophysical data. Excess Molar Volume, Viscosity, and Heat Capacity for the Mixtures of 1,4-Butanediol + Water at Different Temperatures
Source: J. Chem. Eng. Data, 2004, 10.1021/je0341918
Compound 1: water, H2O, InChI=1S/H2O/h1H2
Compound 2: 1,4-butanediol, C4H10O2, InChI=1S/C4H10O2/c5-3-1-2-4-6/h5-6H,1-4H2

System: 1,4-butanediol; phases: Liquid
Fixed: Pressure, kPa = 101.325
Property: Mass density, kg/m3 (Liquid); method: VIBTUB:UFactor:8
Temperature, K	Mass density, kg/m3	uncertainty
293.15	1015.76	0.35
298.15	1012.68	0.34
303.15	1009.54	0.33
308.15	1006.43	0.32
313.15	1003.37	0.31
318.15	1000.45	0.3
323.15	997.14	0.31
328.15	994.02	0.32
333.15	990.93	0.33
338.15	987.93	0.33
343.15	984.81	0.34
348.15	981.7	0.35
353.15	978.59	0.36
363.15	972.71	0.38

System: 1,4-butanediol; phases: Liquid
Fixed: Pressure, kPa = 101.325
Property: Viscosity, Pa*s (Liquid); method: CAPTUB:UFactor:8
Temperature, K	Viscosity, Pa*s	uncertainty
293.15	0.090327	0.007361
298.15	0.071149	0.003494
303.15	0.055983	0.000932
308.15	0.044435	0.001457
313.15	0.035741	0.001183
318.15	0.029114	0.000974
323.15	0.02363	0.000802
328.15	0.019679	0.000678
333.15	0.016171	0.000568
338.15	0.013649	0.000488
343.15	0.011449	0.000419
348.15	0.009778	0.000367
353.15	0.00828	0.00032
363.15	0.006213	0.000256

System: 1,4-butanediol; phases: Liquid
Property: Molar heat capacity at constant pressure, J/K/mol (Liquid); method: Small sample (50 mg) DSC
Temperature, K	Pressure, kPa	Molar heat capacity at constant pressure, J/K/mol	uncertainty
298.15	101.325	200.9	4

System: 1,4-butanediol + water; phases: Liquid
Fixed: Pressure, kPa = 101.3
Property: Mass density, kg/m3 (Liquid); method: VIBTUB:UFactor:8
Temperature, K	Mole fraction of 1,4-butanediol	Mass density, kg/m3	uncertainty
293.15	0	998.21	0.26
293.15	0.0218	1001.44	0.26
293.15	0.0478	1005.97	0.27
293.15	0.0789	1010.98	0.29
293.15	0.1175	1015.71	0.3
293.15	0.1665	1019.86	0.32
293.15	0.2305	1022.86	0.33
293.15	0.3179	1024.32	0.33
293.15	0.4441	1024.18	0.34
293.15	0.6426	1021.57	0.34
293.15	0.7917	1019.04	0.34
293.15	0.8663	1017.74	0.34
293.15	1	1015.76	0.35
303.15	0	995.65	0.26
303.15	0.0218	998.53	0.26
303.15	0.0478	1002.4	0.26
303.15	0.0789	1006.62	0.27
303.15	0.1175	1010.6	0.29
303.15	0.1665	1014.11	0.3
303.15	0.2305	1016.62	0.31
303.15	0.3179	1017.88	0.31
303.15	0.4441	1017.65	0.32
303.15	0.6426	1015.15	0.32
303.15	0.7917	1012.77	0.32
303.15	0.8663	1011.48	0.32
303.15	1	1009.54	0.33
313.15	0	992.22	0.27
313.15	0.0218	994.86	0.27
313.15	0.0478	998.21	0.26
313.15	0.0789	1001.79	0.26
313.15	0.1175	1005.16	0.27
313.15	0.1665	1008.13	0.28
313.15	0.2305	1010.28	0.29
313.15	0.3179	1011.36	0.29
313.15	0.4441	1011.09	0.3
313.15	0.6426	1008.76	0.3
313.15	0.7917	1006.4	0.3
313.15	0.8663	1005.15	0.3
313.15	1	1003.31	0.31
323.15	0	988.05	0.29
323.15	0.0218	990.45	0.28
323.15	0.0478	993.4	0.27
323.15	0.0789	996.45	0.26
323.15	0.1175	999.34	0.25
323.15	0.1665	1001.87	0.26
323.15	0.2305	1003.72	0.27
323.15	0.3179	1004.68	0.27
323.15	0.4441	1004.42	0.28
323.15	0.6426	1002.32	0.28
323.15	0.7917	1000	0.28
323.15	0.8663	998.84	0.29
323.15	1	997.14	0.31
333.15	0	983.21	0.3
333.15	0.0218	985.4	0.3
333.15	0.0478	987.96	0.29
333.15	0.0789	990.59	0.28
333.15	0.1175	993.09	0.27
333.15	0.1665	995.27	0.27
333.15	0.2305	996.89	0.27
333.15	0.3179	997.78	0.27
333.15	0.4441	997.58	0.27
333.15	0.6426	995.75	0.29
333.15	0.7917	993.6	0.3
333.15	0.8663	992.48	0.31
333.15	1	990.93	0.32
343.15	0	977.79	0.32
343.15	0.0218	979.61	0.31
343.15	0.0478	981.88	0.31
343.15	0.0789	984.16	0.3
343.15	0.1175	986.37	0.3
343.15	0.1665	988.29	0.29
343.15	0.2305	989.74	0.29
343.15	0.3179	990.6	0.29
343.15	0.4441	990.49	0.29
343.15	0.6426	988.97	0.31
343.15	0.7917	987.21	0.32
343.15	0.8663	986.17	0.33
343.15	1	984.81	0.34
353.15	0	971.83	0.34
353.15	0.0218	973.52	0.33
353.15	0.0478	975.53	0.33
353.15	0.0789	977.47	0.32
353.15	0.1175	979.3	0.32
353.15	0.1665	981.05	0.31
353.15	0.2305	982.41	0.31
353.15	0.3179	983.3	0.31
353.15	0.4441	983.33	0.32
353.15	0.6426	982.14	0.33
353.15	0.7917	980.68	0.34
353.15	0.8663	979.77	0.35
353.15	1	978.59	0.36

System: 1,4-butanediol + water; phases: Liquid
Fixed: Pressure, kPa = 101.3
Property: Viscosity, Pa*s (Liquid); method: CAPTUB:UFactor:16
Temperature, K	Mole fraction of 1,4-butanediol	Viscosity, Pa*s	uncertainty
293.15	0	0.001002	9.9e-05
293.15	0.0218	0.001792	0.000166
293.15	0.0478	0.00265	0.000239
293.15	0.0789	0.003889	0.000343
293.15	0.1175	0.005788	0.000484
293.15	0.1665	0.008755	0.000669
293.15	0.2305	0.01186	0.000865
293.15	0.3179	0.019072	0.001315
293.15	0.4441	0.031722	0.002107
293.15	0.6426	0.05669	0.00203
293.15	0.7917	0.073609	0.00789
293.15	0.8663	0.080526	0.010603
293.15	1	0.090327	0.014713
303.15	0	0.000797	8.1e-05
303.15	0.0218	0.001418	0.000135
303.15	0.0478	0.001957	0.000181
303.15	0.0789	0.002756	0.000248
303.15	0.1175	0.003954	0.000349
303.15	0.1665	0.005775	0.000484
303.15	0.2305	0.007633	0.000601
303.15	0.3179	0.012089	0.00088
303.15	0.4441	0.019656	0.001356
303.15	0.6426	0.034958	0.002317
303.15	0.7917	0.045497	0.002977
303.15	0.8663	0.049819	0.003249
303.15	1	0.055983	0.001852
313.15	0	0.000653	6.9e-05
313.15	0.0218	0.001176	0.000114
313.15	0.0478	0.001522	0.000143
313.15	0.0789	0.002053	0.000189
313.15	0.1175	0.002835	0.000255
313.15	0.1665	0.004008	0.000353
313.15	0.2305	0.005198	0.000448
313.15	0.3179	0.008018	0.000624
313.15	0.4441	0.012775	0.000922
313.15	0.6426	0.022425	0.001528
313.15	0.7917	0.029654	0.00198
313.15	0.8663	0.032533	0.00216
313.15	1	0.035741	0.002363
323.15	0	0.000547	6e-05
323.15	0.0218	0.000981	9.7e-05
323.15	0.0478	0.001222	0.000118
323.15	0.0789	0.001573	0.000148
323.15	0.1175	0.002124	0.000195
323.15	0.1665	0.002909	0.000261
323.15	0.2305	0.003683	0.000326
323.15	0.3179	0.005573	0.000471
323.15	0.4441	0.008706	0.000667
323.15	0.6426	0.0146	0.001036
323.15	0.7917	0.019293	0.001331
323.15	0.8663	0.021115	0.001445
323.15	1	0.02363	0.001601
333.15	0	0.000467	5.3e-05
333.15	0.0218	0.000871	8.8e-05
333.15	0.0478	0.001042	0.000102
333.15	0.0789	0.001281	0.000123
333.15	0.1175	0.001652	0.000155
333.15	0.1665	0.002191	0.0002
333.15	0.2305	0.002705	0.000244
333.15	0.3179	0.004017	0.000354
333.15	0.4441	0.006143	0.000506
333.15	0.6426	0.01012	0.000755
333.15	0.7917	0.01304	0.000938
333.15	0.8663	0.014294	0.001016
333.15	1	0.016171	0.001133
343.15	0	0.000405	4.7e-05
343.15	0.0218	0.000783	8e-05
343.15	0.0478	0.000905	9.1e-05
343.15	0.0789	0.001081	0.000106
343.15	0.1175	0.001338	0.000128
343.15	0.1665	0.001719	0.00016
343.15	0.2305	0.002055	0.000189
343.15	0.3179	0.002991	0.000268
343.15	0.4441	0.004471	0.000391
343.15	0.6426	0.007211	0.000573
343.15	0.7917	0.009223	0.000699
343.15	0.8663	0.010106	0.000754
343.15	1	0.011449	0.000838
353.15	0	0.000356	4.3e-05
353.15	0.0218	0.000723	7.5e-05
353.15	0.0478	0.000809	8.2e-05
353.15	0.0789	0.00094	9.4e-05
353.15	0.1175	0.001108	0.000108
353.15	0.1665	0.001381	0.000131
353.15	0.2305	0.001804	0.000167
353.15	0.3179	0.002283	0.000208
353.15	0.4441	0.003358	0.000299
353.15	0.6426	0.005276	0.000453
353.15	0.7917	0.006743	0.000544
353.15	0.8663	0.007321	0.000581
353.15	1	0.00828	0.000641

System: 1,4-butanediol + water; phases: Liquid
Fixed: Pressure, kPa = 101.3
Property: Molar heat capacity at constant pressure, J/K/mol (Liquid); method: Small sample (50 mg) DSC
Temperature, K	Mole fraction of 1,4-butanediol	Molar heat capacity at constant pressure, J/K/mol	uncertainty
293.15	0	75.2	1.5
293.15	0.0218	88.5	1.8
293.15	0.0478	97.3	1.9
293.15	0.0789	103.9	2.1
293.15	0.1175	111.8	2.2
293.15	0.1665	120.1	2.4
293.15	0.2305	129	2.6
293.15	0.4441	138.7	2.8
293.15	0.6426	169.3	3.4
293.15	1	198.2	4
303.15	0	75.3	1.5
303.15	0.0218	89.3	1.8
303.15	0.0478	97.7	2
303.15	0.0789	104.8	2.1
303.15	0.1175	112.7	2.3
303.15	0.1665	121.3	2.4
303.15	0.2305	130.4	2.6
303.15	0.4441	140.8	2.8
303.15	0.6426	173.3	3.5
303.15	1	203.6	4.1
313.15	0	75.2	1.5
313.15	0.0218	88.8	1.8
313.15	0.0478	98.1	2
313.15	0.0789	105.5	2.1
313.15	0.1175	113.8	2.3
313.15	0.1665	122.4	2.4
313.15	0.2305	131.8	2.6
313.15	0.4441	142.7	2.9
313.15	0.6426	177.1	3.5
313.15	1	208.8	4.2
323.15	0	75.2	1.5
323.15	0.0218	88.9	1.8
323.15	0.0478	98.5	2
323.15	0.0789	106.2	2.1
323.15	0.1175	114.8	2.3
323.15	0.1665	123.5	2.5
323.15	0.2305	133.1	2.7
323.15	0.4441	144.6	2.9
323.15	0.6426	180.7	3.6
323.15	1	214	4.3
333.15	0	75.2	1.5
333.15	0.0218	89.2	1.8
333.15	0.0478	99.1	2
333.15	0.0789	107.3	2.1
333.15	0.1175	116	2.3
333.15	0.1665	125	2.5
333.15	0.2305	135.1	2.7
333.15	0.4441	147.3	2.9
333.15	0.6426	185.7	3.7
333.15	1	221.3	4.4
343.15	0	75.3	1.5
343.15	0.0218	89.1	1.8
343.15	0.0478	99.6	2
343.15	0.0789	108.3	2.2
343.15	0.1175	117.2	2.3
343.15	0.1665	126.5	2.5
343.15	0.2305	137	2.7
343.15	0.4441	149.9	3
343.15	0.6426	190.8	3.8
343.15	1	228.6	4.6
353.15	0	75.4	1.5
353.15	0.0218	89.3	1.8
353.15	0.0478	100.2	2
353.15	0.0789	109.3	2.2
353.15	0.1175	118.5	2.4
353.15	0.1665	128.1	2.6
353.15	0.2305	139.2	2.8
353.15	0.4441	152.9	3.1
353.15	0.6426	196.4	3.9
353.15	1	236.9	4.7
