Measured thermophysical data. Vapor Pressure Measurements of Dimethyl Ether from (233 to 399) K
Source: J. Chem. Eng. Data, 2004, 10.1021/je0340046
Compound 1: dimethyl ether, C2H6O, InChI=1S/C2H6O/c1-3-2/h1-2H3, purity 99.99%

System: dimethyl ether; phases: Liquid, Gas
Property: Vapor or sublimation pressure, kPa (Liquid); method: Closed cell (Static) method
Temperature, K	Vapor or sublimation pressure, kPa	uncertainty
233.128	54.61	1.4
238.126	68.49	1.4
243.157	85.57	1.41
248.152	105.59	1.41
253.152	129.42	1.41
258.16	157.53	1.42
263.16	190.44	1.43
268.161	228.48	1.44
273.153	272.17	1.46
278.145	321.87	1.48
283.16	378.66	1.51
288.174	443.57	1.54
293.161	515.53	1.59
298.172	596.21	1.65
303.16	687.37	1.72
305.16	726.26	1.75
308.158	787.07	1.81
313.156	897.59	1.91
316.154	968.55	1.98
318.158	1018.91	2.03
323.148	1152.35	2.17
328.149	1298.23	2.33
333.157	1457.5	2.52
333.159	1457.76	2.52
338.154	1631.01	2.73
343.147	1818.8	2.96
348.147	2022.45	3.22
353.146	2242.74	3.51
353.158	2243.07	3.51
358.145	2479.92	3.88
363.148	2735.67	4.28
368.158	3010.81	4.71
373.154	3305.67	5.17
378.15	3622.6	5.66
383.143	3962.25	6.19
388.155	4331.48	6.76
393.158	4725.02	7.37
398.157	5146.82	8.03
400.378	5355.8	8.4
