Measured thermophysical data. Effect of Organic Cosolvents on the Solubility of Ionic Liquids in Supercritical CO2
Source: J. Chem. Eng. Data, 2004, 10.1021/je034286+
Compound 1: 1-butyl-3-methylimidazolium tetrafluoroborate, C8H15BF4N2, InChI=1S/C8H15N2.BF4/c1-3-4-5-10-7-6-9(2)8-10;2-1(3,4)5/h6-8H,3-5H2,1-2H3;/q+1;-1
Compound 2: carbon dioxide, CO2, InChI=1S/CO2/c2-1-3
Compound 3: acetonitrile, C2H3N, InChI=1S/C2H3N/c1-2-3/h1H3
Compound 4: methanol, CH4O, InChI=1S/CH4O/c1-2/h2H,1H3
Compound 5: 1-butyl-3-methylimidazolium hexafluorophosphate, C8H15F6N2P, InChI=1S/C8H15N2.F6P/c1-3-4-5-10-7-6-9(2)8-10;1-7(2,3,4,5)6/h6-8H,3-5H2,1-2H3;/q+1;-1
Compound 6: ethanol, C2H6O, InChI=1S/C2H6O/c1-2-3/h3H,2H2,1H3

System: carbon dioxide + 1-butyl-3-methylimidazolium hexafluorophosphate; phases: Gas, Liquid
Property: Mole fraction of 1-butyl-3-methylimidazolium hexafluorophosphate (Gas); method: Gravimetric
Temperature, K	Pressure, kPa	Mole fraction of 1-butyl-3-methylimidazolium hexafluorophosphate	uncertainty
313.15	15000	3.2e-07	4e-08

System: carbon dioxide + 1-butyl-3-methylimidazolium tetrafluoroborate; phases: Gas, Liquid
Property: Mole fraction of 1-butyl-3-methylimidazolium tetrafluoroborate (Gas); method: Gravimetric
Temperature, K	Pressure, kPa	Mole fraction of 1-butyl-3-methylimidazolium tetrafluoroborate	uncertainty
313.15	15000	8.6e-07	1e-07

System: acetonitrile + carbon dioxide + 1-butyl-3-methylimidazolium hexafluorophosphate; phases: Gas, Liquid
Fixed: Temperature, K = 313
Fixed: Pressure, kPa = 15000
Property: Mole fraction of 1-butyl-3-methylimidazolium hexafluorophosphate (Gas); method: Gravimetric
Solvent: Mole fraction of acetonitrile	Mole fraction of 1-butyl-3-methylimidazolium hexafluorophosphate	uncertainty
0.1	9e-05	1.1e-05
0.15	0.0007	8.4e-05
0.2	0.001536	0.000184
0.25	0.01193	0.00143

System: methanol + carbon dioxide + 1-butyl-3-methylimidazolium hexafluorophosphate; phases: Gas, Liquid
Fixed: Pressure, kPa = 15000
Fixed: Temperature, K = 313
Property: Mole fraction of 1-butyl-3-methylimidazolium hexafluorophosphate (Gas); method: Gravimetric
Solvent: Mole fraction of methanol	Mole fraction of 1-butyl-3-methylimidazolium hexafluorophosphate	uncertainty
0.1	9.5e-06	1.1e-06
0.15	3.63e-05	4.4e-06
0.2	0.0001295	1.55e-05
0.24	0.000423	5.1e-05

System: ethanol + carbon dioxide + 1-butyl-3-methylimidazolium tetrafluoroborate; phases: Gas, Liquid
Fixed: Pressure, kPa = 15000
Fixed: Temperature, K = 313
Property: Mole fraction of 1-butyl-3-methylimidazolium tetrafluoroborate (Gas); method: Gravimetric
Solvent: Mole fraction of ethanol	Mole fraction of 1-butyl-3-methylimidazolium tetrafluoroborate	uncertainty
0.1	1.73e-06	2.1e-07
0.15	0.000812	9.7e-05
0.2	0.00205	0.00025
0.25	0.00521	0.00063
0.3	0.00859	0.00103
