Measured thermophysical data. Solubility of -Carotene in Binary Solvents Formed by Some Hydrocarbons with Dibutyl Ether and 1,2-Dimethoxyethane
Source: J. Chem. Eng. Data, 2003, 10.1021/je030165y
Compound 1: 1,2-dimethoxyethane, C4H10O2, InChI=1S/C4H10O2/c1-5-3-4-6-2/h3-4H2,1-2H3, purity 99%
Compound 2: dibutyl ether, C8H18O, InChI=1S/C8H18O/c1-3-5-7-9-8-6-4-2/h3-8H2,1-2H3, purity 99%
Compound 3: cyclohexane, C6H12, InChI=1S/C6H12/c1-2-4-6-5-3-1/h1-6H2, purity 99%
Compound 4: hexane, C6H14, InChI=1S/C6H14/c1-3-5-6-4-2/h3-6H2,1-2H3, purity 99.95%
Compound 5: toluene, C7H8, InChI=1S/C7H8/c1-7-5-3-2-4-6-7/h2-6H,1H3, purity 99%
Compound 6: .beta.-carotene, C40H56, InChI=1S/C40H56/c1-31(19-13-21-33(3)25-27-37-35(5)23-15-29-39(37,7)8)17-11-12-18-32(2)20-14-22-34(4)26-28-38-36(6)24-16-30-40(38,9)10/h11-14,17-22,25-28H,15-16,23-24,29-30H2,1-10H3/b12-11+,19-13+,20-14+,27-25+,28-26+,31-17+,32-18+,33-21+,34-22+, purity 95%

System: 1,2-dimethoxyethane; phases: Liquid
Property: Refractive index (Na D-line) (Liquid); method: Standard Abbe refractometry
Temperature, K	Pressure, kPa	Refractive index (Na D-line)	uncertainty
298.15	101.325	1.3783	0.0008

System: dibutyl ether; phases: Liquid
Property: Refractive index (Na D-line) (Liquid); method: Standard Abbe refractometry
Temperature, K	Pressure, kPa	Refractive index (Na D-line)	uncertainty
298.15	101.325	1.397	0.0008

System: cyclohexane; phases: Liquid
Property: Refractive index (Na D-line) (Liquid); method: Standard Abbe refractometry
Temperature, K	Pressure, kPa	Refractive index (Na D-line)	uncertainty
298.15	101.325	1.4236	0.0008

System: hexane; phases: Liquid
Property: Refractive index (Na D-line) (Liquid); method: Standard Abbe refractometry
Temperature, K	Pressure, kPa	Refractive index (Na D-line)	uncertainty
298.15	101.325	1.3722	0.0007

System: toluene; phases: Liquid
Property: Refractive index (Na D-line) (Liquid); method: Standard Abbe refractometry
Temperature, K	Pressure, kPa	Refractive index (Na D-line)	uncertainty
298.15	101.325	1.4941	0.0008

System: 1,2-dimethoxyethane + .beta.-carotene; phases: Liquid, Crystal
Property: Mole fraction of .beta.-carotene (Liquid); method: OTHER
Pressure, kPa	Temperature, K	Mole fraction of .beta.-carotene	uncertainty
101.3	293.15	6.3e-05	6e-06

System: cyclohexane + .beta.-carotene; phases: Liquid, Crystal
Property: Mole fraction of .beta.-carotene (Liquid); method: OTHER
Pressure, kPa	Temperature, K	Mole fraction of .beta.-carotene	uncertainty
101.3	293.15	0.000353	3.6e-05

System: hexane + .beta.-carotene; phases: Liquid, Crystal
Property: Mole fraction of .beta.-carotene (Liquid); method: OTHER
Pressure, kPa	Temperature, K	Mole fraction of .beta.-carotene	uncertainty
101.3	293.15	8.45e-05	8.5e-06

System: toluene + .beta.-carotene; phases: Liquid, Crystal
Property: Mole fraction of .beta.-carotene (Liquid); method: OTHER
Pressure, kPa	Temperature, K	Mole fraction of .beta.-carotene	uncertainty
101.3	293.15	0.001084	0.000163

System: dibutyl ether + .beta.-carotene; phases: Liquid, Crystal
Property: Mole fraction of .beta.-carotene (Liquid); method: OTHER
Pressure, kPa	Temperature, K	Mole fraction of .beta.-carotene	uncertainty
101.3	293.15	0.000158	1.6e-05

System: 1,2-dimethoxyethane + cyclohexane + .beta.-carotene; phases: Liquid, Crystal
Fixed: Pressure, kPa = 101.3
Fixed: Temperature, K = 293.15
Property: Mole fraction of .beta.-carotene (Liquid); method: OTHER
Solvent: Mole fraction of cyclohexane	Mole fraction of .beta.-carotene	uncertainty
0	6.3e-05	6e-06
0.0954	0.000129	1.3e-05
0.1974	0.000275	2.8e-05
0.3017	0.000399	4e-05
0.3043	0.000407	4.1e-05
0.3962	0.000568	5.7e-05
0.4996	0.000605	6.1e-05
0.615	0.000653	6.6e-05
0.7008	0.000646	6.5e-05
0.8019	0.000558	5.6e-05
0.9365	0.000387	3.9e-05
1	0.000353	3.6e-05

System: hexane + 1,2-dimethoxyethane + .beta.-carotene; phases: Liquid, Crystal
Fixed: Pressure, kPa = 101.3
Fixed: Temperature, K = 293.15
Property: Mole fraction of .beta.-carotene (Liquid); method: OTHER
Solvent: Mole fraction of hexane	Mole fraction of .beta.-carotene	uncertainty
0	6.3e-05	6e-06
0.1013	8.7e-05	9e-06
0.1986	0.000137	1.4e-05
0.299	0.000189	1.9e-05
0.4004	0.000195	2e-05
0.504	0.000227	2.3e-05
0.6028	0.000208	2.1e-05
0.6951	0.00021	2.1e-05
0.7977	0.000191	1.9e-05
0.7982	0.000179	1.8e-05
0.8997	0.000128	1.3e-05
1	8.45e-05	8.5e-06

System: toluene + 1,2-dimethoxyethane + .beta.-carotene; phases: Liquid, Crystal
Fixed: Pressure, kPa = 101.3
Fixed: Temperature, K = 293.15
Property: Mole fraction of .beta.-carotene (Liquid); method: OTHER
Solvent: Mole fraction of toluene	Mole fraction of .beta.-carotene	uncertainty
0	6.3e-05	9e-06
0.1115	0.000111	1.7e-05
0.2004	0.000156	2.3e-05
0.3089	0.000201	3e-05
0.4057	0.000264	4e-05
0.4968	0.000321	4.8e-05
0.6079	0.000306	4.6e-05
0.7035	0.000459	6.9e-05
0.8043	0.000742	0.000112
0.9079	0.000822	0.000124
1	0.001084	0.000163

System: cyclohexane + dibutyl ether + .beta.-carotene; phases: Liquid, Crystal
Fixed: Pressure, kPa = 101.3
Fixed: Temperature, K = 293.15
Property: Mole fraction of .beta.-carotene (Liquid); method: OTHER
Solvent: Mole fraction of cyclohexane	Mole fraction of .beta.-carotene	uncertainty
0	0.000158	1.6e-05
0.1031	0.000218	2.2e-05
0.2018	0.00026	2.6e-05
0.3021	0.00027	2.7e-05
0.404	0.000331	3.3e-05
0.4981	0.000327	3.3e-05
0.6	0.000335	3.4e-05
0.7001	0.000364	3.7e-05
0.799	0.000381	3.8e-05
0.8252	0.00036	3.6e-05
0.9013	0.00037	3.7e-05
1	0.000353	3.6e-05

System: hexane + dibutyl ether + .beta.-carotene; phases: Liquid, Crystal
Fixed: Pressure, kPa = 101.3
Fixed: Temperature, K = 293.15
Property: Mole fraction of .beta.-carotene (Liquid); method: OTHER
Solvent: Mole fraction of hexane	Mole fraction of .beta.-carotene	uncertainty
0	0.000158	1.6e-05
0.1067	0.000147	1.5e-05
0.1481	0.000136	1.4e-05
0.2022	0.000128	1.3e-05
0.3049	0.000127	1.3e-05
0.3049	0.000123	1.2e-05
0.4153	0.000112	1.1e-05
0.491	0.000113	1.1e-05
0.5199	0.000106	1.1e-05
0.6033	0.000101	1e-05
0.7136	9.3e-05	9e-06
0.7974	9.5e-05	1e-05
0.8004	8.9e-05	9e-06
0.833	8.5e-05	9e-06
0.8997	8.7e-05	9e-06
1	8.45e-05	8.5e-06

System: toluene + dibutyl ether + .beta.-carotene; phases: Liquid, Crystal
Fixed: Pressure, kPa = 101.3
Fixed: Temperature, K = 293.15
Property: Mole fraction of .beta.-carotene (Liquid); method: OTHER
Solvent: Mole fraction of toluene	Mole fraction of .beta.-carotene	uncertainty
0	0.000158	2.4e-05
0.1047	0.000161	2.4e-05
0.202	0.000178	2.7e-05
0.2991	0.000222	3.3e-05
0.4074	0.000209	3.1e-05
0.5098	0.000314	4.7e-05
0.6034	0.000378	5.7e-05
0.6795	0.000441	6.6e-05
0.7038	0.000489	7.4e-05
0.7982	0.000561	8.4e-05
0.9024	0.000742	0.000112
1	0.001084	0.000163
