Measured thermophysical data. Measurement of Vapor-Liquid Equilibria for the Binary Mixture of Pentafluoroethane (HFC-125) + Propane (R-290)
Source: J. Chem. Eng. Data, 2004, 10.1021/je030156p
Compound 1: pentafluoroethane, C2HF5, InChI=1S/C2HF5/c3-1(4)2(5,6)7/h1H, purity 99.8%
Compound 2: propane, C3H8, InChI=1S/C3H8/c1-3-2/h3H2,1-2H3, purity 99.5%

System: pentafluoroethane; phases: Liquid, Gas
Property: Vapor or sublimation pressure, kPa (Liquid); method: Ebulliometric method (Recirculating still)
Temperature, K	Vapor or sublimation pressure, kPa	uncertainty
268.15	573.7	2
273.15	671.4	2.1
283.15	907.6	2.1
293.15	1202.8	2.1
303.15	1566	2.2
313.15	2004.9	2.2

System: propane; phases: Liquid, Gas
Property: Vapor or sublimation pressure, kPa (Liquid); method: Ebulliometric method (Recirculating still)
Temperature, K	Vapor or sublimation pressure, kPa	uncertainty
268.15	407.9	2
273.15	476.9	2
283.15	637.2	2.1
293.15	839.2	2.1
303.15	1074.6	2.1
313.15	1364.3	2.2

System: propane + pentafluoroethane; phases: Liquid, Gas
Property: Azeotropic composition: mole fraction of pentafluoroethane (Liquid); method: By X=Y
Temperature, K	Azeotropic composition: mole fraction of pentafluoroethane	uncertainty
268.15	0.6227	0.0055
273.15	0.6352	0.0054
283.15	0.6247	0.0055
293.15	0.644	0.0053
303.15	0.6545	0.0051
313.15	0.6664	0.005

System: propane + pentafluoroethane; phases: Liquid, Gas
Property: Azeotropic composition: mole fraction of pentafluoroethane (Liquid); method: By X=Y
Pressure, kPa	Azeotropic composition: mole fraction of pentafluoroethane	uncertainty
709.7	0.6227	0.0055
827.1	0.6352	0.0054
1092.1	0.6247	0.0055
1418.6	0.644	0.0053
1814	0.6545	0.0051
2292.1	0.6664	0.005

System: propane + pentafluoroethane; phases: Liquid, Gas
Property: Vapor or sublimation pressure, kPa (Liquid); method: Ebulliometric method (Recirculating still)
Mole fraction of pentafluoroethane	Temperature, K	Vapor or sublimation pressure, kPa	uncertainty
0	268.15	407.9	2.5
0	273.15	476.9	2.7
0	283.15	637.2	3.1
0	293.15	839.2	3.7
0	303.15	1074.6	4.5
0	313.15	1364.3	5.5
0.138	283.15	890.4	3.9
0.14	303.15	1432	5.8
0.144	313.15	1789.4	7.2
0.145	293.15	1120.2	4.6
0.157	268.15	594.3	3
0.166	273.15	692	3.3
0.308	273.15	768.2	3.5
0.309	283.15	1020.4	4.3
0.32	268.15	668.6	3.2
0.329	293.15	1328	5.3
0.329	303.15	1677.8	6.7
0.338	313.15	2112.6	8.4
0.506	273.15	820.8	3.6
0.511	293.15	1408	5.6
0.518	303.15	1797	7.2
0.522	313.15	2266.8	9
0.533	268.15	710.6	3.3
0.542	283.15	1088.6	4.5
0.674	293.15	1420	5.7
0.679	273.15	828.4	3.6
0.696	303.15	1813	7.2
0.703	313.15	2292.4	9.1
0.71	268.15	705.2	3.3
0.717	283.15	1087	4.5
0.813	313.15	2239.6	8.8
0.83	283.15	1048.6	4.3
0.831	293.15	1370	5.4
0.832	303.15	1756.6	7
0.854	273.15	786.4	3.5
0.86	268.15	670.6	3.2
1	268.15	573.7	2.9
1	273.15	671.4	3.2
1	283.15	907.6	3.9
1	293.15	1202.8	4.8
1	303.15	1566	6.2
1	313.15	2004.9	7.9

System: propane + pentafluoroethane; phases: Gas, Liquid
Property: Mole fraction of pentafluoroethane (Gas); method: Chromatography
Mole fraction of pentafluoroethane	Temperature, K	Mole fraction of pentafluoroethane	uncertainty
0	268.15	0	
0	273.15	0	
0	283.15	0	
0	293.15	0	
0	303.15	0	
0	313.15	0	
0.138	283.15	0.328	0.004
0.14	303.15	0.291	0.0036
0.144	313.15	0.28	0.0034
0.145	293.15	0.31	0.0038
0.157	268.15	0.367	0.0045
0.166	273.15	0.376	0.0046
0.308	273.15	0.475	0.0059
0.309	283.15	0.47	0.0059
0.32	268.15	0.488	0.0061
0.329	293.15	0.473	0.0059
0.329	303.15	0.457	0.0057
0.338	313.15	0.449	0.0056
0.506	273.15	0.572	0.0054
0.511	293.15	0.566	0.0055
0.518	303.15	0.57	0.0054
0.522	313.15	0.57	0.0054
0.533	268.15	0.584	0.0052
0.542	283.15	0.583	0.0052
0.674	293.15	0.656	0.0043
0.679	273.15	0.628	0.0047
0.696	303.15	0.685	0.004
0.703	313.15	0.695	0.0039
0.71	268.15	0.655	0.0044
0.717	283.15	0.668	0.0042
0.813	313.15	0.782	0.0028
0.83	283.15	0.767	0.003
0.831	293.15	0.774	0.0029
0.832	303.15	0.786	0.0027
0.854	273.15	0.763	0.003
0.86	268.15	0.769	0.0029
1	268.15	1	
1	273.15	1	
1	283.15	1	
1	293.15	1	
1	303.15	1	
1	313.15	1	
