Measured thermophysical data. Density, Viscosity, Refractive Index, and Speed of Sound in the Binary Mixtures of 1,4-Dioxane + Ethyl Acetoacetate, + Diethyl Oxalate, + Diethyl Phthalate, or + Dioctyl Phthalate at 298.15, 303.15, and 308.15 K
Source: J. Chem. Eng. Data, 2003, 10.1021/je0301489
Compound 1: 1,4-dioxane, C4H8O2, InChI=1S/C4H8O2/c1-2-6-4-3-5-1/h1-4H2, purity 99%
Compound 2: ethyl 3-oxobutanoate, C6H10O3, InChI=1S/C6H10O3/c1-3-9-6(8)4-5(2)7/h3-4H2,1-2H3, purity 99%
Compound 3: diethyl ethanedioate, C6H10O4, InChI=1S/C6H10O4/c1-3-9-5(7)6(8)10-4-2/h3-4H2,1-2H3, purity 99.5%
Compound 4: diethyl phthalate, C12H14O4, InChI=1S/C12H14O4/c1-3-15-11(13)9-7-5-6-8-10(9)12(14)16-4-2/h5-8H,3-4H2,1-2H3, purity 97%
Compound 5: dioctyl 1,2-benzenedicarboxylate, C24H38O4, InChI=1S/C24H38O4/c1-3-5-7-9-11-15-19-27-23(25)21-17-13-14-18-22(21)24(26)28-20-16-12-10-8-6-4-2/h13-14,17-18H,3-12,15-16,19-20H2,1-2H3, purity 99.7%

System: 1,4-dioxane; phases: Liquid
Fixed: Pressure, kPa = 101.325
Property: Refractive index (Na D-line) (Liquid); method: ABBE:UFactor:2
Temperature, K	Refractive index (Na D-line)	uncertainty
298.15	1.4201	0.0007
298.15	1.4202	0.0007
303.15	1.417	0.0007
308.15	1.4144	0.0007

System: 1,4-dioxane; phases: Liquid
Fixed: Pressure, kPa = 101.325
Property: Viscosity, Pa*s (Liquid); method: CAPTUB:UFactor:2
Temperature, K	Viscosity, Pa*s	uncertainty
298.15	0.001166	1.5e-05
298.15	0.001167	1.5e-05
303.15	0.001069	1.4e-05
308.15	0.000984	1.3e-05

System: 1,4-dioxane; phases: Liquid
Fixed: Temperature, K = 298.15
Fixed: Pressure, kPa = 101.325
Property: Speed of sound, m/s (Liquid); method: LVPAI:UFactor:2
Speed of sound, m/s	uncertainty
1347	3
1348	3

System: 1,4-dioxane; phases: Liquid
Fixed: Pressure, kPa = 101.325
Property: Mass density, kg/m3 (Liquid); method: PYCNOM:UFactor:4
Temperature, K	Mass density, kg/m3	uncertainty
298.15	1027.6	1.1
303.15	1021.9	1.2
308.15	1016.2	1.2

System: ethyl 3-oxobutanoate; phases: Liquid
Fixed: Pressure, kPa = 101.325
Property: Refractive index (Na D-line) (Liquid); method: ABBE::UFactor:2
Temperature, K	Refractive index (Na D-line)	uncertainty
298.15	1.4166	0.0007
303.15	1.4145	0.0007
308.15	1.412	0.0007

System: ethyl 3-oxobutanoate; phases: Liquid
Fixed: Pressure, kPa = 101.325
Property: Viscosity, Pa*s (Liquid); method: CAPTUB::UFactor:2
Temperature, K	Viscosity, Pa*s	uncertainty
298.15	0.00148	1.9e-05
303.15	0.001339	1.7e-05
308.15	0.001239	1.6e-05

System: ethyl 3-oxobutanoate; phases: Liquid
Property: Speed of sound, m/s (Liquid); method: LVPAI::UFactor:2
Temperature, K	Pressure, kPa	Speed of sound, m/s	uncertainty
298.15	101.325	1331	3

System: ethyl 3-oxobutanoate; phases: Liquid
Fixed: Pressure, kPa = 101.325
Property: Mass density, kg/m3 (Liquid); method: PYCNOM::UFactor:4
Temperature, K	Mass density, kg/m3	uncertainty
298.15	1020.9	1.1
303.15	1014.9	1.2
308.15	1010.2	1.2

System: diethyl ethanedioate; phases: Liquid
Fixed: Pressure, kPa = 101.325
Property: Refractive index (Na D-line) (Liquid); method: ABBE::UFactor:2
Temperature, K	Refractive index (Na D-line)	uncertainty
298.15	1.4084	0.0006
303.15	1.406	0.0006
308.15	1.4034	0.0006

System: diethyl ethanedioate; phases: Liquid
Fixed: Pressure, kPa = 101.325
Property: Viscosity, Pa*s (Liquid); method: CAPTUB::UFactor:2
Temperature, K	Viscosity, Pa*s	uncertainty
298.15	0.001759	2.1e-05
303.15	0.001581	1.9e-05
308.15	0.001437	1.7e-05

System: diethyl ethanedioate; phases: Liquid
Property: Speed of sound, m/s (Liquid); method: LVPAI::UFactor:2
Temperature, K	Pressure, kPa	Speed of sound, m/s	uncertainty
298.15	101.325	1276	3

System: diethyl ethanedioate; phases: Liquid
Fixed: Pressure, kPa = 101.325
Property: Mass density, kg/m3 (Liquid); method: PYCNOM::UFactor:4
Temperature, K	Mass density, kg/m3	uncertainty
298.15	1072.9	1.1
303.15	1066.2	1.1
308.15	1060.8	1.2

System: diethyl phthalate; phases: Liquid
Fixed: Pressure, kPa = 101.325
Property: Refractive index (Na D-line) (Liquid); method: ABBE::UFactor:2
Temperature, K	Refractive index (Na D-line)	uncertainty
298.15	1.5001	0.0009
303.15	1.4978	0.0009
308.15	1.4958	0.0009

System: diethyl phthalate; phases: Liquid
Fixed: Pressure, kPa = 101.325
Property: Viscosity, Pa*s (Liquid); method: CAPTUB::UFactor:2
Temperature, K	Viscosity, Pa*s	uncertainty
298.15	0.007926	0.000142
303.15	0.006129	0.000111
308.15	0.004893	9.1e-05

System: diethyl phthalate; phases: Liquid
Property: Speed of sound, m/s (Liquid); method: LVPAI::UFactor:2
Temperature, K	Pressure, kPa	Speed of sound, m/s	uncertainty
298.15	101.325	1446	5

System: diethyl phthalate; phases: Liquid
Fixed: Pressure, kPa = 101.325
Property: Mass density, kg/m3 (Liquid); method: PYCNOM::UFactor:4
Temperature, K	Mass density, kg/m3	uncertainty
298.15	1115.1	2.1
303.15	1110.2	2.1
308.15	1105.6	2.1

System: dioctyl 1,2-benzenedicarboxylate; phases: Liquid
Fixed: Pressure, kPa = 101.325
Property: Refractive index (Na D-line) (Liquid); method: ABBE::UFactor:8
Temperature, K	Refractive index (Na D-line)	uncertainty
298.15	1.485	0.0025
303.15	1.4831	0.0025
308.15	1.481	0.0025

System: dioctyl 1,2-benzenedicarboxylate; phases: Liquid
Fixed: Pressure, kPa = 101.325
Property: Viscosity, Pa*s (Liquid); method: CAPTUB::UFactor:4
Temperature, K	Viscosity, Pa*s	uncertainty
298.15	0.04303	0.0007
303.15	0.03018	0.0005
308.15	0.02188	0.00037

System: dioctyl 1,2-benzenedicarboxylate; phases: Liquid
Property: Speed of sound, m/s (Liquid); method: LVPAI::UFactor:2
Temperature, K	Pressure, kPa	Speed of sound, m/s	uncertainty
298.15	101.325	1421	3

System: dioctyl 1,2-benzenedicarboxylate; phases: Liquid
Fixed: Pressure, kPa = 101.325
Property: Mass density, kg/m3 (Liquid); method: PYCNOM::UFactor:4
Temperature, K	Mass density, kg/m3	uncertainty
298.15	980.7	1
303.15	977.1	1
308.15	973.1	1

System: 1,4-dioxane + ethyl 3-oxobutanoate; phases: Liquid
Fixed: Temperature, K = 298.15
Fixed: Pressure, kPa = 101.325
Property: Speed of sound, m/s (Liquid); method: LVPAI:UFactor:2
Mole fraction of 1,4-dioxane	Speed of sound, m/s	uncertainty
0	1331	3
0.1134	1335	3
0.2058	1338	3
0.3054	1340	3
0.4008	1342	3
0.4986	1344	3
0.5955	1345	3
0.6972	1346	3
0.7971	1346	3
0.8964	1347	3
1	1347	3

System: 1,4-dioxane + ethyl 3-oxobutanoate; phases: Liquid
Fixed: Pressure, kPa = 101.325
Property: Viscosity, Pa*s (Liquid); method: CAPTUB:UFactor:2
Temperature, K	Mole fraction of 1,4-dioxane	Viscosity, Pa*s	uncertainty
298.15	0	0.00148	1.9e-05
298.15	0.1134	0.001425	1.8e-05
298.15	0.2058	0.001386	1.8e-05
298.15	0.3054	0.001346	1.7e-05
298.15	0.4008	0.001309	1.7e-05
298.15	0.4986	0.001272	1.7e-05
298.15	0.5955	0.001237	1.6e-05
298.15	0.6972	0.001208	1.6e-05
298.15	0.7971	0.001182	1.5e-05
298.15	0.8964	0.001166	1.5e-05
298.15	1	0.001166	1.5e-05
303.15	0	0.001339	1.7e-05
303.15	0.1134	0.001311	1.7e-05
303.15	0.2058	0.001276	1.7e-05
303.15	0.3054	0.00124	1.6e-05
303.15	0.4008	0.001205	1.6e-05
303.15	0.4986	0.001172	1.5e-05
303.15	0.5955	0.00114	1.5e-05
303.15	0.6972	0.001115	1.5e-05
303.15	0.7971	0.001091	1.4e-05
303.15	0.8964	0.001077	1.4e-05
303.15	1	0.001069	1.4e-05
308.15	0	0.001239	1.6e-05
308.15	0.1134	0.001197	1.6e-05
308.15	0.2058	0.001165	1.5e-05
308.15	0.3054	0.001133	1.5e-05
308.15	0.4008	0.001102	1.5e-05
308.15	0.4986	0.001072	1.4e-05
308.15	0.5955	0.001044	1.4e-05
308.15	0.6972	0.001021	1.4e-05
308.15	0.7971	0.001	1.3e-05
308.15	0.8964	0.000988	1.3e-05
308.15	1	0.000984	1.3e-05

System: 1,4-dioxane + ethyl 3-oxobutanoate; phases: Liquid
Fixed: Pressure, kPa = 101.325
Property: Refractive index (Na D-line) (Liquid); method: ABBE:UFactor:2
Temperature, K	Mole fraction of 1,4-dioxane	Refractive index (Na D-line)	uncertainty
298.15	0	1.4166	0.0007
298.15	0.1134	1.417	0.0007
298.15	0.2058	1.4171	0.0007
298.15	0.3054	1.4174	0.0007
298.15	0.4008	1.4176	0.0007
298.15	0.4986	1.4178	0.0007
298.15	0.5955	1.418	0.0007
298.15	0.6972	1.4186	0.0007
298.15	0.7971	1.4192	0.0007
298.15	0.8964	1.4195	0.0007
298.15	1	1.4201	0.0007
303.15	0	1.4145	0.0007
303.15	0.1134	1.4146	0.0007
303.15	0.2058	1.4148	0.0007
303.15	0.3054	1.415	0.0007
303.15	0.4008	1.4154	0.0007
303.15	0.4986	1.4155	0.0007
303.15	0.5955	1.416	0.0007
303.15	0.6972	1.4162	0.0007
303.15	0.7971	1.4166	0.0007
303.15	0.8964	1.4169	0.0007
303.15	1	1.417	0.0007
308.15	0	1.412	0.0007
308.15	0.1134	1.4122	0.0007
308.15	0.2058	1.4124	0.0007
308.15	0.3054	1.4126	0.0007
308.15	0.4008	1.413	0.0007
308.15	0.4986	1.413	0.0007
308.15	0.5955	1.4132	0.0007
308.15	0.6972	1.4137	0.0007
308.15	0.7971	1.414	0.0007
308.15	0.8964	1.4144	0.0007
308.15	1	1.4144	0.0007

System: 1,4-dioxane + ethyl 3-oxobutanoate; phases: Liquid
Fixed: Pressure, kPa = 101.325
Property: Mass density, kg/m3 (Liquid); method: PYCNOM:UFactor:4
Temperature, K	Mole fraction of 1,4-dioxane	Mass density, kg/m3	uncertainty
298.15	0	1020.9	1.1
298.15	0.1134	1021.5	1.1
298.15	0.2058	1022.1	1.1
298.15	0.3054	1022.7	1.1
298.15	0.4008	1023.3	1.1
298.15	0.4986	1024	1.1
298.15	0.5955	1024.7	1.1
298.15	0.6972	1025.4	1.1
298.15	0.7971	1026.1	1.1
298.15	0.8964	1026.8	1.1
298.15	1	1027.6	1.1
303.15	0	1014.9	1.2
303.15	0.1134	1016	1.2
303.15	0.2058	1016.5	1.2
303.15	0.3054	1017.1	1.2
303.15	0.4008	1017.6	1.2
303.15	0.4986	1018.2	1.2
303.15	0.5955	1018.8	1.2
303.15	0.6972	1019.5	1.2
303.15	0.7971	1020.3	1.2
303.15	0.8964	1021	1.2
303.15	1	1021.9	1.2
308.15	0	1010.2	1.2
308.15	0.1134	1010.6	1.2
308.15	0.2058	1011	1.2
308.15	0.3054	1011.4	1.2
308.15	0.4008	1011.9	1.2
308.15	0.4986	1012.4	1.2
308.15	0.5955	1013	1.2
308.15	0.6972	1013.7	1.2
308.15	0.7971	1014.4	1.2
308.15	0.8964	1015.2	1.2
308.15	1	1016.2	1.2

System: diethyl ethanedioate + 1,4-dioxane; phases: Liquid
Fixed: Temperature, K = 298.15
Fixed: Pressure, kPa = 101.325
Property: Speed of sound, m/s (Liquid); method: LVPAI:UFactor:2
Mole fraction of 1,4-dioxane	Speed of sound, m/s	uncertainty
0	1276	3
0.1094	1284	3
0.2069	1292	3
0.3098	1301	3
0.4009	1310	3
0.4975	1320	3
0.5978	1329	3
0.7008	1337	3
0.7971	1343	3
0.8976	1347	3
1	1348	3

System: diethyl ethanedioate + 1,4-dioxane; phases: Liquid
Fixed: Pressure, kPa = 101.325
Property: Viscosity, Pa*s (Liquid); method: CAPTUB:UFactor:2
Temperature, K	Mole fraction of 1,4-dioxane	Viscosity, Pa*s	uncertainty
298.15	0	0.001759	2.1e-05
298.15	0.1094	0.00169	2e-05
298.15	0.2069	0.001631	2e-05
298.15	0.3098	0.001566	1.9e-05
298.15	0.4009	0.001505	1.9e-05
298.15	0.4975	0.00144	1.8e-05
298.15	0.5978	0.001375	1.7e-05
298.15	0.7008	0.001312	1.7e-05
298.15	0.7971	0.001259	1.6e-05
298.15	0.8976	0.001206	1.6e-05
298.15	1	0.001167	1.5e-05
303.15	0	0.001581	1.9e-05
303.15	0.1094	0.001539	1.9e-05
303.15	0.2069	0.001487	1.8e-05
303.15	0.3098	0.001428	1.8e-05
303.15	0.4009	0.001375	1.7e-05
303.15	0.4975	0.001316	1.6e-05
303.15	0.5978	0.001259	1.6e-05
303.15	0.7008	0.001203	1.5e-05
303.15	0.7971	0.001157	1.5e-05
303.15	0.8976	0.001111	1.5e-05
303.15	1	0.001069	1.4e-05
308.15	0	0.001437	1.7e-05
308.15	0.1094	0.001388	1.7e-05
308.15	0.2069	0.001343	1.7e-05
308.15	0.3098	0.001291	1.6e-05
308.15	0.4009	0.001245	1.6e-05
308.15	0.4975	0.001193	1.5e-05
308.15	0.5978	0.001143	1.5e-05
308.15	0.7008	0.001094	1.4e-05
308.15	0.7971	0.001055	1.4e-05
308.15	0.8976	0.001016	1.3e-05
308.15	1	0.000984	1.3e-05

System: diethyl ethanedioate + 1,4-dioxane; phases: Liquid
Fixed: Pressure, kPa = 101.325
Property: Refractive index (Na D-line) (Liquid); method: ABBE:UFactor:2
Temperature, K	Mole fraction of 1,4-dioxane	Refractive index (Na D-line)	uncertainty
298.15	0	1.4084	0.0006
298.15	0.1094	1.4092	0.0006
298.15	0.2069	1.4101	0.0006
298.15	0.3098	1.4112	0.0006
298.15	0.4009	1.4119	0.0006
298.15	0.4975	1.4129	0.0006
298.15	0.5978	1.4144	0.0006
298.15	0.7008	1.4157	0.0006
298.15	0.7971	1.417	0.0006
298.15	0.8976	1.4183	0.0007
298.15	1	1.4202	0.0007
303.15	0	1.406	0.0006
303.15	0.1094	1.4068	0.0006
303.15	0.2069	1.4077	0.0006
303.15	0.3098	1.4087	0.0006
303.15	0.4009	1.4094	0.0006
303.15	0.4975	1.4106	0.0006
303.15	0.5978	1.4118	0.0006
303.15	0.7008	1.4132	0.0006
303.15	0.7971	1.4145	0.0006
303.15	0.8976	1.4158	0.0007
303.15	1	1.417	0.0007
308.15	0	1.4034	0.0006
308.15	0.1094	1.4043	0.0006
308.15	0.2069	1.4052	0.0006
308.15	0.3098	1.4062	0.0006
308.15	0.4009	1.407	0.0006
308.15	0.4975	1.4084	0.0006
308.15	0.5978	1.409	0.0006
308.15	0.7008	1.4106	0.0006
308.15	0.7971	1.412	0.0006
308.15	0.8976	1.4132	0.0007
308.15	1	1.4144	0.0007

System: diethyl ethanedioate + 1,4-dioxane; phases: Liquid
Fixed: Pressure, kPa = 101.325
Property: Mass density, kg/m3 (Liquid); method: PYCNOM:UFactor:4
Temperature, K	Mole fraction of 1,4-dioxane	Mass density, kg/m3	uncertainty
298.15	0	1072.9	1.1
298.15	0.1094	1070.9	1.1
298.15	0.2069	1067.5	1.1
298.15	0.3098	1064.4	1.1
298.15	0.4009	1061.1	1.1
298.15	0.4975	1057.3	1.1
298.15	0.5978	1052.8	1.1
298.15	0.7008	1047.7	1.1
298.15	0.7971	1042.1	1.1
298.15	0.8976	1035.5	1.1
298.15	1	1027.6	1.1
303.15	0	1066.2	1.1
303.15	0.1094	1064.2	1.1
303.15	0.2069	1061.4	1.1
303.15	0.3098	1058.3	1.2
303.15	0.4009	1055	1.2
303.15	0.4975	1051.1	1.2
303.15	0.5978	1046.7	1.2
303.15	0.7008	1041.5	1.2
303.15	0.7971	1036.1	1.2
303.15	0.8976	1029.5	1.2
303.15	1	1021.9	1.2
308.15	0	1060.8	1.2
308.15	0.1094	1058.1	1.2
308.15	0.2069	1055.3	1.2
308.15	0.3098	1052.1	1.2
308.15	0.4009	1048.9	1.2
308.15	0.4975	1045	1.2
308.15	0.5978	1040.6	1.2
308.15	0.7008	1035.4	1.2
308.15	0.7971	1029.9	1.2
308.15	0.8976	1023.6	1.2
308.15	1	1016.2	1.2

System: diethyl phthalate + 1,4-dioxane; phases: Liquid
Fixed: Temperature, K = 298.15
Fixed: Pressure, kPa = 101.325
Property: Speed of sound, m/s (Liquid); method: LVPAI:UFactor:2
Mole fraction of 1,4-dioxane	Speed of sound, m/s	uncertainty
0	1446	5
0.1133	1435	4
0.2083	1427	4
0.3086	1418	4
0.409	1408	4
0.5026	1399	4
0.5985	1390	4
0.702	1380	4
0.8001	1370	4
0.8975	1359	4
1	1347	3

System: diethyl phthalate + 1,4-dioxane; phases: Liquid
Fixed: Pressure, kPa = 101.325
Property: Viscosity, Pa*s (Liquid); method: CAPTUB:UFactor:2
Temperature, K	Mole fraction of 1,4-dioxane	Viscosity, Pa*s	uncertainty
298.15	0	0.007926	0.000142
298.15	0.1133	0.00652	0.000112
298.15	0.2083	0.005536	9.2e-05
298.15	0.3086	0.004593	7.4e-05
298.15	0.409	0.003793	5.9e-05
298.15	0.5026	0.003122	4.7e-05
298.15	0.5985	0.002544	3.7e-05
298.15	0.702	0.002037	2.9e-05
298.15	0.8001	0.001641	2.2e-05
298.15	0.8975	0.001319	1.8e-05
298.15	1	0.001167	1.5e-05
303.15	0	0.006129	0.000111
303.15	0.1133	0.005327	9.3e-05
303.15	0.2083	0.004567	7.7e-05
303.15	0.3086	0.003813	6.2e-05
303.15	0.409	0.00318	5e-05
303.15	0.5026	0.002637	4e-05
303.15	0.5985	0.002184	3.2e-05
303.15	0.702	0.001753	2.5e-05
303.15	0.8001	0.001436	2e-05
303.15	0.8975	0.00118	1.6e-05
303.15	1	0.001069	1.4e-05
308.15	0	0.004893	9.1e-05
308.15	0.1133	0.004134	7.3e-05
308.15	0.2083	0.003597	6.1e-05
308.15	0.3086	0.003032	5e-05
308.15	0.409	0.002568	4e-05
308.15	0.5026	0.002151	3.3e-05
308.15	0.5985	0.001824	2.7e-05
308.15	0.702	0.001468	2.1e-05
308.15	0.8001	0.00123	1.7e-05
308.15	0.8975	0.001042	1.4e-05
308.15	1	0.000984	1.3e-05

System: diethyl phthalate + 1,4-dioxane; phases: Liquid
Fixed: Pressure, kPa = 101.325
Property: Refractive index (Na D-line) (Liquid); method: ABBE:UFactor:2
Temperature, K	Mole fraction of 1,4-dioxane	Refractive index (Na D-line)	uncertainty
298.15	0	1.5001	0.0009
298.15	0.1133	1.4962	0.0008
298.15	0.2083	1.4924	0.0008
298.15	0.3086	1.4882	0.0008
298.15	0.409	1.4826	0.0008
298.15	0.5026	1.4768	0.0007
298.15	0.5985	1.47	0.0007
298.15	0.702	1.4608	0.0007
298.15	0.8001	1.4504	0.0007
298.15	0.8975	1.4376	0.0007
298.15	1	1.4202	0.0007
303.15	0	1.4978	0.0009
303.15	0.1133	1.494	0.0008
303.15	0.2083	1.4902	0.0008
303.15	0.3086	1.486	0.0008
303.15	0.409	1.4805	0.0008
303.15	0.5026	1.4747	0.0007
303.15	0.5985	1.4676	0.0007
303.15	0.702	1.4585	0.0007
303.15	0.8001	1.4481	0.0007
303.15	0.8975	1.435	0.0007
303.15	1	1.417	0.0007
308.15	0	1.4958	0.0009
308.15	0.1133	1.4917	0.0008
308.15	0.2083	1.4882	0.0008
308.15	0.3086	1.4837	0.0008
308.15	0.409	1.4783	0.0008
308.15	0.5026	1.4724	0.0007
308.15	0.5985	1.4653	0.0007
308.15	0.702	1.4564	0.0007
308.15	0.8001	1.4457	0.0007
308.15	0.8975	1.4326	0.0007
308.15	1	1.4144	0.0007

System: diethyl phthalate + 1,4-dioxane; phases: Liquid
Fixed: Pressure, kPa = 101.325
Property: Mass density, kg/m3 (Liquid); method: PYCNOM:UFactor:4
Temperature, K	Mole fraction of 1,4-dioxane	Mass density, kg/m3	uncertainty
298.15	0	1115.1	2.1
298.15	0.1133	1110.7	1.9
298.15	0.2083	1106.5	1.8
298.15	0.3086	1101.4	1.7
298.15	0.409	1095.5	1.6
298.15	0.5026	1089.1	1.6
298.15	0.5985	1081.4	1.5
298.15	0.702	1071.6	1.4
298.15	0.8001	1060.2	1.3
298.15	0.8975	1046.3	1.2
298.15	1	1027.6	1.1
303.15	0	1110.2	2.1
303.15	0.1133	1105.8	2
303.15	0.2083	1101.5	1.9
303.15	0.3086	1096.3	1.8
303.15	0.409	1090.4	1.7
303.15	0.5026	1084	1.6
303.15	0.5985	1076.1	1.5
303.15	0.702	1066.1	1.4
303.15	0.8001	1054.7	1.3
303.15	0.8975	1040.7	1.2
303.15	1	1021.9	1.2
308.15	0	1105.6	2.1
308.15	0.1133	1101	2
308.15	0.2083	1096.6	1.9
308.15	0.3086	1091.4	1.8
308.15	0.409	1085.3	1.7
308.15	0.5026	1078.7	1.6
308.15	0.5985	1070.9	1.5
308.15	0.702	1060.8	1.4
308.15	0.8001	1049.2	1.4
308.15	0.8975	1035	1.3
308.15	1	1016.2	1.2

System: dioctyl 1,2-benzenedicarboxylate + 1,4-dioxane; phases: Liquid
Fixed: Temperature, K = 298.15
Fixed: Pressure, kPa = 101.325
Property: Speed of sound, m/s (Liquid); method: LVPAI:UFactor:2
Mole fraction of 1,4-dioxane	Speed of sound, m/s	uncertainty
0	1421	3
0.1337	1416	3
0.2243	1412	3
0.3207	1406	3
0.4226	1400	3
0.5169	1394	3
0.6054	1388	3
0.7161	1379	3
0.8031	1372	3
0.9017	1361	3
1	1348	3

System: dioctyl 1,2-benzenedicarboxylate + 1,4-dioxane; phases: Liquid
Fixed: Pressure, kPa = 101.325
Property: Viscosity, Pa*s (Liquid); method: CAPTUB:UFactor:4
Temperature, K	Mole fraction of 1,4-dioxane	Viscosity, Pa*s	uncertainty
298.15	0	0.04303	0.0007
298.15	0.1337	0.03258	0.00054
298.15	0.2243	0.02639	0.00044
298.15	0.3207	0.02073	0.00036
298.15	0.4226	0.0154	0.00027
298.15	0.5169	0.01102	0.00021
298.15	0.6054	0.008056	0.000159
298.15	0.7161	0.004947	0.000109
298.15	0.8031	0.003213	7.3e-05
298.15	0.9017	0.001863	4.4e-05
298.15	1	0.001166	2.9e-05
303.15	0	0.03018	0.0005
303.15	0.1337	0.02497	0.00042
303.15	0.2243	0.02041	0.00035
303.15	0.3207	0.0161	0.00028
303.15	0.4226	0.01212	0.00022
303.15	0.5169	0.008852	0.000171
303.15	0.6054	0.006528	0.000134
303.15	0.7161	0.004096	9.1e-05
303.15	0.8031	0.002717	6.2e-05
303.15	0.9017	0.001612	3.9e-05
303.15	1	0.001069	2.7e-05
308.15	0	0.02188	0.00037
308.15	0.1337	0.01736	0.0003
308.15	0.2243	0.01444	0.00026
308.15	0.3207	0.01147	0.00021
308.15	0.4226	0.008836	0.00017
308.15	0.5169	0.006689	0.000137
308.15	0.6054	0.005001	0.00011
308.15	0.7161	0.003246	7.3e-05
308.15	0.8031	0.002222	5.2e-05
308.15	0.9017	0.001361	3.3e-05
308.15	1	0.000984	2.5e-05

System: dioctyl 1,2-benzenedicarboxylate + 1,4-dioxane; phases: Liquid
Fixed: Pressure, kPa = 101.325
Property: Refractive index (Na D-line) (Liquid); method: ABBE:UFactor:8
Temperature, K	Mole fraction of 1,4-dioxane	Refractive index (Na D-line)	uncertainty
298.15	0	1.485	0.0025
298.15	0.1337	1.4836	0.0025
298.15	0.2243	1.4822	0.0025
298.15	0.3207	1.4812	0.0025
298.15	0.4226	1.4781	0.0025
298.15	0.5169	1.4733	0.0025
298.15	0.6054	1.4692	0.0025
298.15	0.7161	1.463	0.0025
298.15	0.8031	1.4566	0.0025
298.15	0.9017	1.4422	0.0025
298.15	1	1.4202	0.0025
303.15	0	1.4831	0.0025
303.15	0.1337	1.4819	0.0025
303.15	0.2243	1.4798	0.0025
303.15	0.3207	1.4784	0.0025
303.15	0.4226	1.4771	0.0025
303.15	0.5169	1.4717	0.0025
303.15	0.6054	1.4673	0.0025
303.15	0.7161	1.461	0.0025
303.15	0.8031	1.4541	0.0025
303.15	0.9017	1.4401	0.0025
303.15	1	1.417	0.0025
308.15	0	1.481	0.0025
308.15	0.1337	1.4804	0.0025
308.15	0.2243	1.4775	0.0025
308.15	0.3207	1.4756	0.0025
308.15	0.4226	1.4762	0.0025
308.15	0.5169	1.47	0.0025
308.15	0.6054	1.4652	0.0025
308.15	0.7161	1.46	0.0025
308.15	0.8031	1.4516	0.0025
308.15	0.9017	1.4379	0.0025
308.15	1	1.4144	0.0025

System: dioctyl 1,2-benzenedicarboxylate + 1,4-dioxane; phases: Liquid
Fixed: Pressure, kPa = 101.325
Property: Mass density, kg/m3 (Liquid); method: PYCNOM:UFactor:4
Temperature, K	Mole fraction of 1,4-dioxane	Mass density, kg/m3	uncertainty
298.15	0	980.7	1
298.15	0.1337	982.2	1
298.15	0.2243	983.4	1
298.15	0.3207	984.8	1
298.15	0.4226	986.5	1
298.15	0.5169	988.4	1
298.15	0.6054	990.7	1
298.15	0.7161	995	1.1
298.15	0.8031	1000.2	1.1
298.15	0.9017	1009.9	1.1
298.15	1	1027.6	1.1
303.15	0	977.1	1
303.15	0.1337	978.3	1
303.15	0.2243	979.4	1
303.15	0.3207	980.5	1
303.15	0.4226	982.2	1
303.15	0.5169	983.9	1.1
303.15	0.6054	986.3	1.1
303.15	0.7161	990.5	1.1
303.15	0.8031	995.4	1.1
303.15	0.9017	1004.6	1.1
303.15	1	1021.9	1.2
308.15	0	973.1	1
308.15	0.1337	974.4	1.1
308.15	0.2243	975.2	1.1
308.15	0.3207	976.4	1.1
308.15	0.4226	977.8	1.1
308.15	0.5169	979.6	1.1
308.15	0.6054	981.9	1.1
308.15	0.7161	985.9	1.1
308.15	0.8031	990.6	1.1
308.15	0.9017	999.5	1.2
308.15	1	1016.2	1.2
