Measured thermophysical data. Isothermal Vapor-Liquid Equilibrium and Excess Enthalpy Data for the Binary Systems Water + Sulfolane and Methanol + N-Methyl-2-pyrrolidone (NMP)
Source: J. Chem. Eng. Data, 2004, 10.1021/je034254m
Compound 1: water, H2O, InChI=1S/H2O/h1H2
Compound 2: sulfolane, C4H8O2S, InChI=1S/C4H8O2S/c5-7(6)3-1-2-4-7/h1-4H2
Compound 3: methanol, CH4O, InChI=1S/CH4O/c1-2/h2H,1H3
Compound 4: N-methylpyrrolidone, C5H9NO, InChI=1S/C5H9NO/c1-6-4-2-3-5(6)7/h2-4H2,1H3

System: sulfolane + water; phases: Liquid
Fixed: Temperature, K = 413.15
Fixed: Pressure, kPa = 1820
Property: Excess molar enthalpy (molar enthalpy of mixing), kJ/mol (Liquid); method: Flow calorimetry
Mole fraction of water	Excess molar enthalpy (molar enthalpy of mixing), kJ/mol	uncertainty
0.0621	0.405	0.009
0.1183	0.712	0.015
0.2159	1.188	0.025
0.3676	1.696	0.036
0.48	1.855	0.04
0.5667	1.861	0.04
0.6355	1.789	0.038
0.6915	1.676	0.036
0.738	1.546	0.033
0.7772	1.409	0.03
0.8395	1.14	0.024
0.8648	1.01	0.022
0.887	0.883	0.019
0.9067	0.758	0.016
0.9243	0.638	0.014
0.9401	0.524	0.011
0.9544	0.412	0.009
0.9674	0.304	0.007
0.9792	0.199	0.005
0.99	0.097	0.005

System: sulfolane + water; phases: Liquid, Gas
Fixed: Temperature, K = 413.18
Property: Vapor or sublimation pressure, kPa (Liquid); method: Closed cell (Static) method
Mole fraction of water	Vapor or sublimation pressure, kPa	uncertainty
0	1.348	0.102
0.04898	32.245	0.212
0.11521	71.052	0.342
0.13149	81.073	0.382
0.22663	131.91	0.59
0.23344	135.56	0.61
0.2866	161.86	0.72
0.33469	183.89	0.81
0.34589	188.23	0.83
0.45093	230.22	1.01
0.45861	233.03	1.02
0.53329	258.05	1.13
0.55568	264.72	1.16
0.59614	276.62	1.21
0.63068	285.51	1.24
0.64573	289.53	1.26
0.70032	302.14	1.32
0.76127	314.66	1.37
0.80874	323.47	1.41
0.81478	324.62	1.41
0.85032	330.64	1.44
0.86206	332.6	1.45
0.90289	339.46	1.48
0.93461	345.25	1.5
0.95827	349.95	1.52
0.97436	353.81	1.54
0.98518	356.71	1.55
0.99253	358.93	1.56
0.99664	360.16	1.57
0.99815	360.72	1.57
0.99935	361.4	1.57
1	361.75	1.57

System: methanol + N-methylpyrrolidone; phases: Liquid
Fixed: Temperature, K = 393.15
Fixed: Pressure, kPa = 1790
Property: Excess molar enthalpy (molar enthalpy of mixing), kJ/mol (Liquid); method: Flow calorimetry
Mole fraction of methanol	Excess molar enthalpy (molar enthalpy of mixing), kJ/mol	uncertainty
0.0576	-0.148	0.004
0.1114	-0.275	0.006
0.2093	-0.471	0.01
0.2959	-0.612	0.013
0.3732	-0.703	0.015
0.4425	-0.755	0.016
0.5051	-0.771	0.017
0.5619	-0.766	0.017
0.6136	-0.74	0.016
0.6609	-0.7	0.015
0.7043	-0.656	0.014
0.7443	-0.597	0.013
0.7813	-0.536	0.012
0.8156	-0.473	0.01
0.8475	-0.405	0.009
0.8772	-0.342	0.008
0.905	-0.273	0.006
0.931	-0.204	0.005
0.9554	-0.135	0.004
0.9784	-0.067	0.004
0.9893	-0.035	0.004

System: methanol + N-methylpyrrolidone; phases: Liquid, Gas
Fixed: Temperature, K = 393.19
Property: Vapor or sublimation pressure, kPa (Liquid); method: Closed cell (Static) method
Mole fraction of methanol	Vapor or sublimation pressure, kPa	uncertainty
0	7.717	0.109
0.04404	21.616	0.155
0.1059	42.135	0.221
0.18745	72.838	0.337
0.27877	114.52	0.52
0.38069	169.49	0.75
0.48783	237.43	1.04
0.58874	303.58	1.33
0.62144	330.42	1.45
0.66244	361.12	1.58
0.73531	421.52	1.84
0.80457	480.84	2.09
0.86303	531.06	2.31
0.90964	569.98	2.48
0.9434	597.62	2.6
0.96702	616.26	2.68
0.98359	629.09	2.73
0.99276	636.02	2.76
0.99614	638.47	2.77
0.9987	640.52	2.78
1	641.42	2.78
