Measured thermophysical data. Vapor Pressures of Pure Diethyl Sulfoxide from (298.15 to 318.15) K and Vapor-Liquid Equilibria of Binary Mixtures of Diethyl Sulfoxide with Water
Source: J. Chem. Eng. Data, 2005, 10.1021/je034278t
Compound 1: diethyl sulfoxide, C4H10OS, InChI=1S/C4H10OS/c1-3-6(5)4-2/h3-4H2,1-2H3, purity 99.5%
Compound 2: water, H2O, InChI=1S/H2O/h1H2

System: diethyl sulfoxide; phases: Liquid, Gas
Property: Vapor or sublimation pressure, kPa (Liquid); method: CCELL:UFactor:4
Temperature, K	Vapor or sublimation pressure, kPa	uncertainty
298.15	0.0202	0.0046
303.15	0.0339	0.005
308.15	0.0438	0.0054
313.15	0.0681	0.0064
318.15	0.0924	0.0075

System: diethyl sulfoxide + water; phases: Liquid, Gas
Property: Vapor or sublimation pressure, kPa (Liquid); method: CCELL:UFactor:4
Temperature, K	Mole fraction of diethyl sulfoxide	Vapor or sublimation pressure, kPa	uncertainty
293.15	0	2.3341	0.0913
293.15	0.0443	2.2174	0.0898
293.15	0.0583	2.0229	0.0873
293.15	0.1101	1.7019	0.0833
293.15	0.1565	1.4491	0.0801
293.15	0.2178	1.1962	0.0823
293.15	0.2564	1.0406	0.0726
293.15	0.3022	0.885	0.063
293.15	0.3577	0.7148	0.0524
293.15	0.4261	0.5543	0.0424
293.15	0.5126	0.3987	0.0328
293.15	0.6256	0.2237	0.0219
293.15	0.7791	0.1069	0.0157
293.15	0.8758	0.0486	0.0087
298.15	0	3.1608	0.1016
298.15	0.0443	3.0101	0.0997
298.15	0.0583	2.7912	0.097
298.15	0.1101	2.3681	0.0916
298.15	0.1565	2.0423	0.0875
298.15	0.2178	1.663	0.0827
298.15	0.2564	1.4394	0.0799
298.15	0.3022	1.2351	0.0847
298.15	0.3577	1.0017	0.0702
298.15	0.4261	0.778	0.0563
298.15	0.5126	0.5641	0.043
298.15	0.6256	0.3064	0.0271
298.15	0.7791	0.1459	0.0171
298.15	0.8758	0.0681	0.0109
298.15	1	0.0202	0.006
303.15	0	4.2403	0.1152
303.15	0.0443	4.0409	0.1126
303.15	0.0583	3.7589	0.1091
303.15	0.1101	3.1802	0.1018
303.15	0.1565	2.7717	0.0966
303.15	0.2178	2.2855	0.0905
303.15	0.2564	1.9645	0.0865
303.15	0.3022	1.6922	0.0831
303.15	0.3577	1.4101	0.0795
303.15	0.4261	1.0892	0.0756
303.15	0.5126	0.7877	0.0569
303.15	0.6256	0.4279	0.0346
303.15	0.7791	0.2042	0.0207
303.15	0.8758	0.1069	0.0157
303.15	1	0.0339	0.0072
