Measured thermophysical data. Solubility of CO2 in the ionic liquid [bmim][PF6]
Source: J. Chem. Eng. Data, 2003, 10.1021/je034023f
Compound 1: carbon dioxide, CO2, InChI=1S/CO2/c2-1-3, purity 99.995%
Compound 2: 1-butyl-3-methylimidazolium hexafluorophosphate, C8H15F6N2P, InChI=1S/C8H15N2.F6P/c1-3-4-5-10-7-6-9(2)8-10;1-7(2,3,4,5)6/h6-8H,3-5H2,1-2H3;/q+1;-1, purity 99%

System: carbon dioxide + 1-butyl-3-methylimidazolium hexafluorophosphate; phases: Liquid, Gas
Fixed: Molality, mol/kg of carbon dioxide = 0
Property: Henry's Law constant (molality scale), kPa*kg/mol of carbon dioxide (Liquid); method: OTHER
Temperature, K	Henry's Law constant (molality scale), kPa*kg/mol of carbon dioxide	uncertainty
293.15	1200	80
313.15	1890	80
333.15	2700	80
353.15	3570	80
373.15	4470	80
393.15	5490	80

System: carbon dioxide + 1-butyl-3-methylimidazolium hexafluorophosphate; phases: Liquid, Gas
Property: Vapor or sublimation pressure, kPa (Liquid); method: CCELL:UFactor:8
Temperature, K	Molality, mol/kg of carbon dioxide	Vapor or sublimation pressure, kPa	uncertainty
293.55	1.199	1533	39
293.55	1.809	1967	500
293.55	2.244	2755	69
293.55	3.497	4190	105
293.55	3.985	4752	119
313.75	0.0557	105	3
313.75	0.6674	1292	32
313.75	1.478	2893	72
313.75	2.187	4242	106
313.75	3.018	5844	146
313.75	3.656	7293	182
313.75	4.391	9480	236
334.05	0.1554	424	11
334.05	0.6344	1746	44
334.05	1.043	2885	72
334.05	1.35	3730	93
334.05	1.614	4492	112
334.05	2.073	5807	145
334.05	2.488	7091	177
334.05	2.719	7822	195
334.05	2.917	8562	213
334.05	3.116	9184	229
354.35	0.0734	266	7
354.35	0.371	1329	33
354.35	0.7914	2915	73
354.35	1.234	4592	114
354.35	1.641	6194	154
354.35	2.088	8025	200
354.35	2.453	9685	241
374.7	0.051	229	6
374.7	0.3286	1486	37
374.7	0.6153	2827	70
374.7	0.9427	4467	111
374.7	1.221	5830	145
374.7	1.459	7055	176
374.7	1.867	9191	229
395.05	0.2179	1199	30
395.05	0.6023	3416	85
395.05	0.7959	4571	114
395.05	0.9649	5513	137
395.05	1.132	6526	162
395.05	1.307	7597	189
395.05	1.43	8324	207
