Measured thermophysical data. Viscosity of H2-CO2 Mixtures at (500, 800, and 1100) K
Source: J. Chem. Eng. Data, 2004, 10.1021/je0342419
Compound 1: hydrogen, H2, InChI=1S/H2/h1H, purity 99.9%
Compound 2: carbon dioxide, CO2, InChI=1S/CO2/c2-1-3, purity 99.9%

System: hydrogen; phases: Fluid (supercritical or subcritical phases)
Fixed: Pressure, kPa = 300
Property: Viscosity, Pa*s (Fluid (supercritical or subcritical phases)); method: OTHER
Temperature, K	Viscosity, Pa*s	uncertainty
500	1.29e-05	4e-07
800	1.79e-05	5e-07
1100	2.26e-05	7e-07

System: carbon dioxide; phases: Fluid (supercritical or subcritical phases)
Fixed: Pressure, kPa = 300
Property: Viscosity, Pa*s (Fluid (supercritical or subcritical phases)); method: OTHER
Temperature, K	Viscosity, Pa*s	uncertainty
500	2.36e-05	7e-07
800	3.56e-05	1.1e-06
1100	4.52e-05	1.4e-06

System: carbon dioxide + hydrogen; phases: Fluid (supercritical or subcritical phases)
Fixed: Pressure, kPa = 300
Property: Viscosity, Pa*s (Fluid (supercritical or subcritical phases)); method: OTHER
Temperature, K	Mole fraction of hydrogen	Viscosity, Pa*s	uncertainty
500	0	2.36e-05	7e-07
500	0.15	2.38e-05	7e-07
500	0.3	2.41e-05	7e-07
500	0.5	2.36e-05	7e-07
500	0.7	2.15e-05	6e-07
500	0.85	1.92e-05	6e-07
500	1	1.29e-05	4e-07
800	0	3.56e-05	1.1e-06
800	0.15	3.51e-05	1.1e-06
800	0.3	3.46e-05	1e-06
800	0.5	3.36e-05	1e-06
800	0.7	3.03e-05	9e-07
800	0.85	2.69e-05	8e-07
800	1	1.79e-05	5e-07
1100	0	4.52e-05	1.4e-06
1100	0.15	4.38e-05	1.3e-06
1100	0.3	4.31e-05	1.3e-06
1100	0.5	4.22e-05	1.3e-06
1100	0.7	4.03e-05	1.2e-06
1100	0.85	3.46e-05	1.1e-06
1100	1	2.26e-05	7e-07
