Measured thermophysical data. Solubility of Syringic and Vanillic Acids in Supercritical Carbon Dioxide
Source: J. Chem. Eng. Data, 2004, 10.1021/je034129a
Compound 1: 4-hydroxy-3,5-dimethoxybenzoic acid, C9H10O5, InChI=1S/C9H10O5/c1-13-6-3-5(9(11)12)4-7(14-2)8(6)10/h3-4,10H,1-2H3,(H,11,12)
Compound 2: 4-hydroxy-3-methoxybenzoic acid, C8H8O4, InChI=1S/C8H8O4/c1-12-7-4-5(8(10)11)2-3-6(7)9/h2-4,9H,1H3,(H,10,11)
Compound 3: carbon dioxide, CO2, InChI=1S/CO2/c2-1-3

System: carbon dioxide + 4-hydroxy-3,5-dimethoxybenzoic acid; phases: Fluid (supercritical or subcritical phases), Crystal
Property: Mole fraction of 4-hydroxy-3,5-dimethoxybenzoic acid (Fluid (supercritical or subcritical phases)); method: Chromatography
Temperature, K	Pressure, kPa	Mole fraction of 4-hydroxy-3,5-dimethoxybenzoic acid	uncertainty
313	10000	3.15e-07	3.7e-08
313	15000	1.221e-06	1.25e-07
313	20000	1.874e-06	1.9e-07
313	25000	2.494e-06	2.52e-07
313	30000	3.009e-06	3.04e-07
313	35000	3.776e-06	3.83e-07
313	40000	4.47e-06	4.51e-07
313	45000	4.892e-06	4.94e-07
313	50000	5.641e-06	5.72e-07
313	10000	5.8e-08	2.4e-08
323	10000	1e-09	1e-09
323	15000	1.26e-06	1.32e-07
323	20000	2.606e-06	2.66e-07
323	25000	3.857e-06	3.9e-07
323	30000	4.459e-06	4.55e-07
323	35000	5.852e-06	5.93e-07
323	40000	6.953e-06	7.03e-07
323	45000	8.006e-06	8.1e-07
323	50000	9.214e-06	9.32e-07
333	15000	1.55e-06	1.62e-07
333	20000	3.034e-06	3.1e-07
333	25000	4.468e-06	4.54e-07
333	30000	6.067e-06	6.15e-07
333	35000	7.559e-06	7.68e-07
333	40000	9.629e-06	9.76e-07
333	45000	1.1106e-05	1.122e-06
333	50000	1.2709e-05	1.285e-06

System: 4-hydroxy-3-methoxybenzoic acid + carbon dioxide; phases: Fluid (supercritical or subcritical phases), Crystal
Property: Mole fraction of 4-hydroxy-3-methoxybenzoic acid (Fluid (supercritical or subcritical phases)); method: Chromatography
Temperature, K	Pressure, kPa	Mole fraction of 4-hydroxy-3-methoxybenzoic acid	uncertainty
313	8500	1.434e-06	3.14e-07
313	10000	3.546e-06	5.55e-07
313	15000	8.519e-06	8.62e-07
313	20000	1.1466e-05	1.158e-06
313	25000	1.5125e-05	1.523e-06
313	30000	1.6748e-05	1.684e-06
313	35000	1.8342e-05	1.853e-06
313	40000	2.2631e-05	2.285e-06
313	45000	2.4393e-05	2.453e-06
313	50000	2.6001e-05	2.615e-06
323	10000	1.688e-06	2.67e-07
323	15000	8.567e-06	8.84e-07
323	20000	1.5709e-05	1.593e-06
323	25000	2.0493e-05	2.07e-06
323	30000	2.5447e-05	2.567e-06
323	35000	2.9653e-05	2.992e-06
323	40000	3.4631e-05	3.484e-06
323	45000	3.6384e-05	3.656e-06
323	50000	3.8923e-05	3.944e-06
333	10000	9.37e-07	2.04e-07
333	15000	8.674e-06	9.13e-07
333	20000	1.9394e-05	1.977e-06
333	25000	2.6486e-05	2.68e-06
333	30000	3.3861e-05	3.417e-06
333	35000	3.9164e-05	3.956e-06
333	40000	4.7423e-05	4.801e-06
333	45000	5.5536e-05	5.602e-06
333	50000	6.071e-05	6.112e-06
