Measured thermophysical data. Liquid Density Measurements of Diethylene Glycol Monoalkyl Ethers as a Function of Temperature and Pressure
Source: J. Chem. Eng. Data, 2004, 10.1021/je034218n
Compound 1: 2-(2-methoxyethoxy)ethanol, C5H12O3, InChI=1S/C5H12O3/c1-7-4-5-8-3-2-6/h6H,2-5H2,1H3
Compound 2: 3,6-dioxa-1-octanol, C6H14O3, InChI=1S/C6H14O3/c1-2-8-5-6-9-4-3-7/h7H,2-6H2,1H3

System: 2-(2-methoxyethoxy)ethanol; phases: Liquid
Property: Mass density, kg/m3 (Liquid); method: VIBTUB:mpoint
Temperature, K	Pressure, kPa	Mass density, kg/m3	uncertainty
283.15	100	1028.5	0.5
283.15	1000	1029	0.5
283.15	2500	1029.8	0.5
283.15	5000	1031.2	0.5
283.15	7500	1032.5	0.5
283.15	10000	1033.9	0.5
283.15	15000	1036.4	0.5
283.15	20000	1039	0.5
283.15	25000	1041.4	0.5
293.15	100	1019.5	0.5
293.15	1000	1020	0.5
293.15	2500	1020.9	0.5
293.15	5000	1022.3	0.5
293.15	7500	1023.7	0.5
293.15	10000	1025.2	0.5
293.15	15000	1027.9	0.5
293.15	20000	1030.5	0.5
293.15	25000	1033.1	0.5
303.15	100	1010.8	0.5
303.15	1000	1011.3	0.5
303.15	2500	1012.2	0.5
303.15	5000	1013.6	0.5
303.15	7500	1015	0.5
303.15	10000	1016.4	0.5
303.15	15000	1019.3	0.5
303.15	20000	1022.1	0.5
303.15	25000	1024.8	0.5
313.15	100	1002	0.5
313.15	1000	1002.6	0.5
313.15	2500	1003.5	0.5
313.15	5000	1005.1	0.5
313.15	7500	1006.7	0.5
313.15	10000	1008.2	0.5
313.15	15000	1011.2	0.5
313.15	20000	1014.1	0.5
313.15	25000	1016.9	0.5
323.15	100	993.2	0.5
323.15	1000	993.9	0.5
323.15	2500	994.9	0.5
323.15	5000	996.6	0.5
323.15	7500	998.3	0.5
323.15	10000	1000	0.5
323.15	15000	1003.2	0.5
323.15	20000	1006.2	0.5
323.15	25000	1009.2	0.5
333.15	100	983.9	0.5
333.15	1000	984.6	0.5
333.15	2500	985.6	0.5
333.15	5000	987.4	0.5
333.15	7500	989.1	0.5
333.15	10000	990.8	0.5
333.15	15000	994.1	0.5
333.15	20000	997.2	0.5
333.15	25000	1000.2	0.5
343.15	100	975.2	0.5
343.15	1000	975.8	0.5
343.15	2500	977	0.5
343.15	5000	978.8	0.5
343.15	7500	980.6	0.5
343.15	10000	982.4	0.5
343.15	15000	985.9	0.5
343.15	20000	989.2	0.5
343.15	25000	992.4	0.5
353.15	100	965.7	0.5
353.15	1000	966.4	0.5
353.15	2500	967.6	0.5
353.15	5000	969.5	0.5
353.15	7500	971.4	0.5
353.15	10000	973.3	0.5
353.15	15000	976.9	0.5
353.15	20000	980.4	0.5
353.15	25000	983.7	0.5

System: 3,6-dioxa-1-octanol; phases: Liquid
Property: Mass density, kg/m3 (Liquid); method: VIBTUB:mpoint
Temperature, K	Pressure, kPa	Mass density, kg/m3	uncertainty
283.15	100	997.7	0.5
283.15	1000	998.2	0.5
283.15	2500	999.1	0.5
283.15	5000	1000.6	0.5
283.15	7500	1002	0.5
283.15	10000	1003.4	0.5
283.15	15000	1006.1	0.5
283.15	20000	1008.8	0.5
283.15	25000	1011.3	0.5
293.15	100	988.4	0.5
293.15	1000	988.9	0.5
293.15	2500	989.8	0.5
293.15	5000	991.3	0.5
293.15	7500	992.8	0.5
293.15	10000	994.3	0.5
293.15	15000	997.2	0.5
293.15	20000	999.9	0.5
293.15	25000	1002.6	0.5
303.15	100	979.5	0.5
303.15	1000	980.1	0.5
303.15	2500	981.1	0.5
303.15	5000	982.6	0.5
303.15	7500	984.2	0.5
303.15	10000	985.8	0.5
303.15	15000	988.8	0.5
303.15	20000	991.7	0.5
303.15	25000	994.6	0.5
313.15	100	970.6	0.5
313.15	1000	971.2	0.5
313.15	2500	972.2	0.5
313.15	5000	973.9	0.5
313.15	7500	975.5	0.5
313.15	10000	977.1	0.5
313.15	15000	980.3	0.5
313.15	20000	983.4	0.5
313.15	25000	986.3	0.5
323.15	100	961.5	0.5
323.15	1000	962.1	0.5
323.15	2500	963.2	0.5
323.15	5000	965	0.5
323.15	7500	966.8	0.5
323.15	10000	968.5	0.5
323.15	15000	971.9	0.5
323.15	20000	975.1	0.5
323.15	25000	978.2	0.5
333.15	100	952.4	0.5
333.15	1000	953.1	0.5
333.15	2500	954.3	0.5
333.15	5000	956.1	0.5
333.15	7500	958	0.5
333.15	10000	959.7	0.5
333.15	15000	963.2	0.5
333.15	20000	966.5	0.5
333.15	25000	969.8	0.5
343.15	100	943.4	0.5
343.15	1000	944.1	0.5
343.15	2500	945.3	0.5
343.15	5000	947.3	0.5
343.15	7500	949.2	0.5
343.15	10000	951.1	0.5
343.15	15000	954.8	0.5
343.15	20000	958.3	0.5
343.15	25000	961.6	0.5
353.15	100	934.1	0.5
353.15	1000	934.9	0.5
353.15	2500	936.1	0.5
353.15	5000	938.2	0.5
353.15	7500	940.2	0.5
353.15	10000	942.2	0.5
353.15	15000	946	0.5
353.15	20000	949.7	0.5
353.15	25000	953.2	0.5
