Measured thermophysical data. Isothermal Vapor-Liquid Equilibrium and Excess Enthalpy Data for the Binary Systems Propylene oxide + 2-Methylpentane and Difluoromethane (R32) + Pentafluoroethane (R125)
Source: J. Chem. Eng. Data, 2004, 10.1021/je034253u
Compound 1: methyloxirane, C3H6O, InChI=1S/C3H6O/c1-3-2-4-3/h3H,2H2,1H3
Compound 2: 2-methylpentane, C6H14, InChI=1S/C6H14/c1-4-5-6(2)3/h6H,4-5H2,1-3H3
Compound 3: difluoromethane, CH2F2, InChI=1S/CH2F2/c2-1-3/h1H2, purity 98%
Compound 4: pentafluoroethane, C2HF5, InChI=1S/C2HF5/c3-1(4)2(5,6)7/h1H, purity 99%

System: methyloxirane + 2-methylpentane; phases: Liquid
Fixed: Temperature, K = 323.15
Fixed: Pressure, kPa = 1140
Property: Excess molar enthalpy (molar enthalpy of mixing), kJ/mol (Liquid); method: Flow calorimetry
Mole fraction of methyloxirane	Excess molar enthalpy (molar enthalpy of mixing), kJ/mol	uncertainty
0.0895	0.404	0.005
0.1719	0.702	0.007
0.2479	0.92	0.008
0.3184	1.066	0.009
0.3838	1.164	0.01
0.4447	1.217	0.01
0.5015	1.24	0.01
0.5547	1.232	0.01
0.6045	1.202	0.01
0.6514	1.156	0.01
0.6954	1.084	0.009
0.737	1.003	0.009
0.7763	0.911	0.008
0.8134	0.805	0.008
0.8486	0.691	0.007
0.882	0.564	0.006
0.9137	0.431	0.006
0.9439	0.289	0.005
0.9726	0.139	0.005

System: methyloxirane + 2-methylpentane; phases: Liquid, Gas
Fixed: Temperature, K = 323.15
Property: Vapor or sublimation pressure, kPa (Liquid); method: Closed cell (Static) method
Mole fraction of methyloxirane	Vapor or sublimation pressure, kPa	uncertainty
0	72.19	0.32
0.00547	74.1	0.34
0.01095	75.88	0.34
0.01724	77.89	0.35
0.02336	79.82	0.36
0.03602	83.58	0.38
0.05277	88.36	0.4
0.07416	93.98	0.42
0.10258	100.99	0.45
0.13562	108.36	0.48
0.17404	116.12	0.51
0.21717	123.82	0.55
0.26393	131.1	0.58
0.31782	138.41	0.61
0.37253	144.8	0.64
0.42731	150.39	0.66
0.48023	155.1	0.68
0.53087	159.06	0.7
0.5775	162.31	0.71
0.60965	164.25	0.72
0.62105	165.03	0.72
0.64957	166.58	0.73
0.66073	167.27	0.73
0.68913	168.66	0.74
0.697	169.12	0.74
0.72828	170.51	0.75
0.76597	172.08	0.75
0.80172	173.38	0.76
0.8351	174.4	0.76
0.86585	175.11	0.77
0.89325	175.54	0.77
0.9174	175.75	0.77
0.93628	175.73	0.77
0.9521	175.61	0.77
0.96497	175.4	0.77
0.97499	175.18	0.77
0.9828	174.95	0.77
0.98795	174.77	0.77
0.99155	174.65	0.76
0.9938	174.55	0.76
0.99606	174.45	0.76
0.99835	174.35	0.76
0.99917	174.3	0.76
1	174.27	0.76

System: methyloxirane + 2-methylpentane; phases: Liquid, Gas
Property: Azeotropic composition: mole fraction of methyloxirane (Liquid); method: By X=Y
Temperature, K	Azeotropic composition: mole fraction of methyloxirane	uncertainty
323.15	0.925	0.002

System: methyloxirane + 2-methylpentane; phases: Liquid, Gas
Property: Azeotropic composition: mole fraction of methyloxirane (Liquid); method: By X=Y
Pressure, kPa	Azeotropic composition: mole fraction of methyloxirane	uncertainty
175.77	0.925	0.002

System: difluoromethane + pentafluoroethane; phases: Liquid
Fixed: Temperature, K = 308.15
Fixed: Pressure, kPa = 5130
Property: Excess molar enthalpy (molar enthalpy of mixing), kJ/mol (Liquid); method: Flow calorimetry
Mole fraction of difluoromethane	Excess molar enthalpy (molar enthalpy of mixing), kJ/mol	uncertainty
0.088	0.025	0.004
0.1692	0.05	0.004
0.2444	0.073	0.004
0.3142	0.095	0.004
0.3792	0.114	0.004
0.4399	0.129	0.004
0.4967	0.141	0.004
0.5499	0.15	0.004
0.5999	0.155	0.004
0.647	0.157	0.004
0.6913	0.155	0.004
0.7332	0.15	0.004
0.7729	0.142	0.004
0.8105	0.13	0.004
0.8461	0.115	0.004
0.88	0.097	0.004
0.9122	0.076	0.004
0.9428	0.052	0.004
0.9721	0.026	0.004

System: difluoromethane + pentafluoroethane; phases: Liquid, Gas
Fixed: Temperature, K = 308.15
Property: Vapor or sublimation pressure, kPa (Liquid); method: Closed cell (Static) method
Mole fraction of difluoromethane	Vapor or sublimation pressure, kPa	uncertainty
0	1778.8	8.5
0.00439	1783.9	8.5
0.02167	1795.7	8.6
0.04553	1819.3	8.7
0.08106	1840.5	8.9
0.09187	1845.7	8.9
0.12935	1870	9.1
0.17193	1893.4	9.3
0.23104	1929.6	9.6
0.26228	1947.2	9.7
0.32483	1985.2	10.1
0.3826	2015.8	10.3
0.43139	2040.9	10.6
0.4353	2046.1	10.6
0.47359	2062.5	10.8
0.49698	2074.5	10.9
0.53291	2090.9	11.1
0.55997	2102.8	11.2
0.5893	2115.2	11.3
0.6161	2122.2	11.5
0.61778	2125.7	11.5
0.64551	2133.4	11.6
0.67741	2144.2	11.7
0.71226	2155.4	11.9
0.75306	2166.4	12.1
0.78323	2172.9	12.2
0.8189	2180.9	12.3
0.87254	2189.2	12.5
0.91899	2193.3	12.7
0.95262	2193.7	12.8
0.96984	2193.7	12.8
0.98226	2192.5	12.9
0.99023	2192	12.9
0.99619	2191.3	12.9
0.9994	2191	12.9
1	2191	12.9

System: difluoromethane + pentafluoroethane; phases: Liquid, Gas
Property: Azeotropic composition: mole fraction of difluoromethane (Liquid); method: By X=Y
Pressure, kPa	Azeotropic composition: mole fraction of difluoromethane	uncertainty
2193.8	0.948	0.001

System: difluoromethane + pentafluoroethane; phases: Liquid, Gas
Property: Azeotropic composition: mole fraction of difluoromethane (Liquid); method: By X=Y
Temperature, K	Azeotropic composition: mole fraction of difluoromethane	uncertainty
308.15	0.948	0.001
