Measured thermophysical data. Solubilities of Alkylcyclohexanes in Water from 30 C to 180 C
Source: J. Chem. Eng. Data, 2004, 10.1021/je0342567
Compound 1: methylcyclohexane, C7H14, InChI=1S/C7H14/c1-7-5-3-2-4-6-7/h7H,2-6H2,1H3
Compound 2: water, H2O, InChI=1S/H2O/h1H2
Compound 3: ethylcyclohexane, C8H16, InChI=1S/C8H16/c1-2-8-6-4-3-5-7-8/h8H,2-7H2,1H3
Compound 4: trans-1,2-dimethylcyclohexane, C8H16, InChI=1S/C8H16/c1-7-5-3-4-6-8(7)2/h7-8H,3-6H2,1-2H3/t7-,8-/m1/s1
Compound 5: cis-1,2-dimethylcyclohexane, C8H16, InChI=1S/C8H16/c1-7-5-3-4-6-8(7)2/h7-8H,3-6H2,1-2H3/t7-,8+

System: methylcyclohexane + water; phases: Liquid mixture 1, Liquid mixture 2
Fixed: Pressure, kPa = 700
Property: Mole fraction of methylcyclohexane (Liquid mixture 1); method: Chromatography
Temperature, K	Mole fraction of methylcyclohexane	uncertainty
299.25	2.96e-06	6e-08
343.65	5.04e-06	1.6e-07
373.65	1.006e-05	1.3e-07
404.15	2.44e-05	8e-07
424.55	4.23e-05	1.4e-06
443.95	7.08e-05	1.3e-06

System: ethylcyclohexane + water; phases: Liquid mixture 1, Liquid mixture 2
Fixed: Pressure, kPa = 700
Property: Mole fraction of ethylcyclohexane (Liquid mixture 1); method: Chromatography
Temperature, K	Mole fraction of ethylcyclohexane	uncertainty
303.45	6.99e-07	1.5e-08
343.55	1.41e-06	2e-08
373.65	4.52e-06	1.3e-07
404.15	1.09e-05	2e-07
424.35	1.777e-05	1.5e-07
443.95	2.94e-05	3e-07

System: trans-1,2-dimethylcyclohexane + water; phases: Liquid mixture 1, Liquid mixture 2
Fixed: Pressure, kPa = 700
Property: Mole fraction of trans-1,2-dimethylcyclohexane (Liquid mixture 1); method: Chromatography
Temperature, K	Mole fraction of trans-1,2-dimethylcyclohexane	uncertainty
303.35	8e-07	4e-08
343.45	1.91e-06	1.4e-07
373.85	4.7e-06	1e-06
404.15	1.08e-05	1e-06
424.15	2.23e-05	8e-07
443.25	3.56e-05	8e-07

System: cis-1,2-dimethylcyclohexane + trans-1,2-dimethylcyclohexane + water; phases: Liquid mixture 1, Liquid mixture 2
Fixed: Pressure, kPa = 700
Fixed: Solvent: Mole fraction of cis-1,2-dimethylcyclohexane = 0.893
Property: Mole fraction of cis-1,2-dimethylcyclohexane (Liquid mixture 1); method: Chromatography
Temperature, K	Mole fraction of cis-1,2-dimethylcyclohexane	uncertainty
303.15	1.09e-08	2e-10
343.15	2.16e-08	6e-10
373.35	4.36e-08	5e-10
403.65	9.87e-08	1.6e-09
423.65	1.96e-07	1e-08
443.65	4.36e-07	7e-09

System: cis-1,2-dimethylcyclohexane + trans-1,2-dimethylcyclohexane + water; phases: Liquid mixture 1, Liquid mixture 2
Fixed: Pressure, kPa = 700
Fixed: Solvent: Mole fraction of cis-1,2-dimethylcyclohexane = 0.893
Property: Mole fraction of trans-1,2-dimethylcyclohexane (Liquid mixture 1); method: Chromatography
Temperature, K	Mole fraction of trans-1,2-dimethylcyclohexane	uncertainty
303.15	9.1e-07	2e-08
343.15	1.81e-06	6e-08
373.35	3.6e-06	4e-07
403.65	8.1e-06	2e-07
423.65	1.68e-05	1.8e-06
443.65	3.4e-05	1e-05
