Measured thermophysical data. Solubilities of p-Tolylboronic Acid, Bromobenzene and 4-Phenyltoluene in Carbon Dioxide at Elevated Pressures
Source: J. Chem. Eng. Data, 2004, 10.1021/je034051y
Compound 1: p-tolylboronic acid, C7H9BO2, InChI=1S/C7H9BO2/c1-6-2-4-7(5-3-6)8(9)10/h2-5,9-10H,1H3, purity 97%
Compound 2: bromobenzene, C6H5Br, InChI=1S/C6H5Br/c7-6-4-2-1-3-5-6/h1-5H, purity 99%
Compound 3: 4-methylbiphenyl, C13H12, InChI=1S/C13H12/c1-11-7-9-13(10-8-11)12-5-3-2-4-6-12/h2-10H,1H3, purity 98%
Compound 4: carbon dioxide, CO2, InChI=1S/CO2/c2-1-3, purity 99.995%

System: carbon dioxide + p-tolylboronic acid; phases: Fluid (supercritical or subcritical phases), Crystal
Property: Mass concentration, kg/m3 (Fluid (supercritical or subcritical phases)); method: OTHER
Pressure, kPa	Temperature, K	Mass concentration, kg/m3	uncertainty
8000	379.25	0.027844	0.002786
8000	400.35	0.037291	0.00373
8000	412.95	0.044214	0.004423
8000	423.45	0.052395	0.005241
8000	440.65	0.05925	0.005926
8000	475.35	0.075703	0.007571
8000	511.15	0.08818	0.008818
8000	518.25	0.091069	0.009107
8000	526.05	0.093081	0.009309
8000	569.85	0.106324	0.010633
8000	585.15	0.111282	0.011128
11000	368.75	0.055227	0.00553
11000	384.55	0.068419	0.006848
11000	398.65	0.078707	0.007876
11000	432.15	0.111164	0.01112
11000	439.95	0.118444	0.011849
11000	445.55	0.12168	0.012171
11000	467.25	0.143468	0.01435
11000	500.45	0.168767	0.01688
11000	514.55	0.181424	0.018145
11000	528.95	0.19284	0.019289
11000	551.55	0.207454	0.020752
11000	578.35	0.221731	0.022177
11000	590.35	0.235991	0.023602

System: bromobenzene + carbon dioxide; phases: Fluid (supercritical or subcritical phases), Liquid
Property: Mass concentration, kg/m3 (Fluid (supercritical or subcritical phases)); method: OTHER
Pressure, kPa	Temperature, K	Mass concentration, kg/m3	uncertainty
8000	371.45	7.1048	0.7131
8000	382.95	10.6163	1.0626
8000	388.45	10.7445	1.075
8000	390.65	10.1792	1.0187
8000	393.35	11.939	1.1947
8000	401.65	13.76	1.3779
8000	407.85	22.4774	2.2496
8000	411.55	27.8632	2.7884
8000	412.95	32.2	3.2223
8000	413.15	32.2201	3.2243
8000	415.75	37.4014	3.7429
8000	422.05	47.0314	4.7067
8000	426.25	65.4819	6.5546
8000	434.35	125.3534	12.5408
8000	435.85	125.4508	12.5508
8000	438.05	136.6621	13.6715
11000	377.85	6.9951	0.7023
11000	387.65	9.963	0.9989
11000	402.55	15.6082	1.5628
11000	415.05	20.2638	2.044
11000	417.25	19.0739	1.9261
11000	433.25	33.6851	3.3761
11000	435.15	33.4674	4.3562
11000	435.45	35.3505	4.5025
11000	452.15	65.5485	6.7831
11000	453.35	69.9491	7.2093
11000	467.25	111.8589	11.2978
11000	471.65	133.996	13.5362
11000	474.35	138.3578	13.8415

System: carbon dioxide + 4-methylbiphenyl; phases: Fluid (supercritical or subcritical phases), Crystal
Property: Mass concentration, kg/m3 (Fluid (supercritical or subcritical phases)); method: OTHER
Pressure, kPa	Temperature, K	Mass concentration, kg/m3	uncertainty
8000	373.95	0.56799	0.09089
8000	377.75	0.60093	0.09616
8000	393.85	1.4163	0.22667
8000	410.85	1.42419	0.2281
8000	422.05	3.49609	0.55964
8000	435.95	6.51459	1.04256
8000	451.75	9.55611	1.5293
8000	474.75	18.06548	2.89079
8000	488.55	28.3161	4.53085
8000	500.65	35.86856	5.73923
8000	501.95	34.8531	5.57676
8000	518.85	50.75834	8.12163
8000	528.45	59.11098	9.45804
11000	367.55	0.68757	0.11003
11000	370.45	0.71186	0.11392
11000	397.85	1.04721	0.16769
11000	413.35	2.253	0.3611
11000	442.65	4.99142	0.79884
11000	451.45	5.10696	0.82571
11000	458.55	9.65274	1.5572
11000	465.05	10.7056	1.71838
11000	488.95	18.98658	3.04103
11000	517.25	27.32426	4.37486
11000	525.05	32.24025	5.15911
11000	525.65	32.40367	5.18483
11000	526.45	32.48805	5.1992
11000	556.15	46.23945	7.40481
11000	580.75	59.50422	9.52773
