Measured thermophysical data. Densities and Excess Molar Volumes for Acetone + Propionic Acid + Water from (283.15 to 323.15) K at Atmospheric Pressure
Source: J. Chem. Eng. Data, 2005, 10.1021/je034250h
Compound 1: acetone, C3H6O, InChI=1S/C3H6O/c1-3(2)4/h1-2H3
Compound 2: propanoic acid, C3H6O2, InChI=1S/C3H6O2/c1-2-3(4)5/h2H2,1H3,(H,4,5)
Compound 3: water, H2O, InChI=1S/H2O/h1H2

System: acetone + propanoic acid + water; phases: Liquid
Fixed: Pressure, kPa = 101.3
Property: Mass density, kg/m3 (Liquid); method: Vibrating tube method
Mole fraction of acetone	Mole fraction of propanoic acid	Temperature, K	Mass density, kg/m3	uncertainty
0.0965	0.1	283.15	986.781	0.178
0.0965	0.1	288.15	982.926	0.18
0.0965	0.1	293.15	979.002	0.181
0.0965	0.1	298.15	975.015	0.182
0.0965	0.1	303.15	970.952	0.184
0.0965	0.1	308.15	966.837	0.185
0.0965	0.1	313.15	962.647	0.187
0.0965	0.1	318.15	958.377	0.188
0.0965	0.1	323.14	954.047	0.19
0.0994	0.5001	283.15	1000.686	0.312
0.0994	0.5001	288.15	995.715	0.312
0.0994	0.5001	293.15	990.721	0.312
0.0994	0.5001	298.15	985.713	0.311
0.0994	0.5001	303.15	980.685	0.31
0.0994	0.5001	308.15	975.632	0.309
0.0994	0.5001	313.15	970.55	0.309
0.0994	0.5001	318.15	965.448	0.308
0.0994	0.5001	323.15	960.316	0.307
0.0996	0.6963	283.15	995.326	0.4
0.0996	0.6963	288.15	990.177	0.399
0.0996	0.6963	293.15	985.011	0.398
0.0996	0.6963	298.15	979.836	0.397
0.0996	0.6963	308.15	969.445	0.395
0.0996	0.6963	313.15	964.23	0.394
0.0996	0.6963	318.15	958.993	0.393
0.0996	0.6963	323.15	953.738	0.392
0.0998	0.6963	303.15	974.649	0.396
0.0999	0.4022	283.15	999.916	0.275
0.0999	0.4022	288.15	995.071	0.274
0.0999	0.4022	293.15	990.188	0.274
0.0999	0.4022	298.15	985.286	0.273
0.0999	0.4022	303.15	980.359	0.272
0.0999	0.4022	308.15	975.406	0.272
0.0999	0.4022	313.15	970.418	0.271
0.0999	0.4022	318.15	965.403	0.271
0.0999	0.4022	323.15	960.35	0.27
0.1	0.5986	283.15	997.709	0.359
0.1	0.5986	288.15	992.651	0.358
0.1	0.5986	293.15	987.566	0.357
0.1	0.5986	298.15	982.469	0.356
0.1	0.5986	303.15	977.356	0.355
0.1	0.5986	308.15	972.224	0.355
0.1	0.5986	313.15	967.073	0.354
0.1	0.5986	318.15	961.896	0.353
0.1	0.5986	323.14	956.695	0.352
0.1	0.7962	283.16	991.791	0.448
0.1	0.7962	288.14	986.542	0.447
0.1	0.7962	293.15	981.285	0.445
0.1	0.7962	298.15	976.023	0.444
0.1	0.7962	303.15	970.757	0.444
0.1	0.7962	308.15	965.48	0.442
0.1	0.7962	313.15	960.187	0.441
0.1	0.7962	318.15	954.885	0.44
0.1	0.7962	323.15	949.575	0.438
0.1004	0.2004	283.15	994.357	0.207
0.1004	0.2004	288.15	989.984	0.209
0.1004	0.2004	293.15	985.559	0.209
0.1004	0.2004	298.15	981.092	0.209
0.1004	0.2004	303.15	976.584	0.209
0.1004	0.2004	308.15	972.025	0.209
0.1004	0.2004	313.15	967.418	0.21
0.1004	0.2004	318.15	962.762	0.21
0.1004	0.2004	323.15	958.428	0.21
0.1014	0.3026	283.15	998.125	0.24
0.1014	0.3026	288.15	993.454	0.24
0.1014	0.3026	293.15	988.74	0.24
0.1014	0.3026	298.15	984	0.24
0.1014	0.3026	303.15	979.227	0.239
0.1014	0.3026	308.15	974.419	0.239
0.1014	0.3026	313.15	969.574	0.239
0.1014	0.3026	318.15	964.692	0.239
0.1014	0.3026	323.15	959.767	0.238
0.1964	0.0899	283.15	954.236	0.266
0.1964	0.0899	288.15	949.799	0.269
0.1964	0.0899	293.16	945.314	0.272
0.1964	0.0899	298.16	940.78	0.275
0.1964	0.0899	303.16	936.19	0.278
0.1964	0.0899	308.15	931.544	0.281
0.1964	0.0899	313.16	926.842	0.284
0.1964	0.0899	318.15	922.078	0.287
0.1964	0.0899	323.15	917.273	0.289
0.197	0.3853	283.15	972.98	0.322
0.197	0.3853	288.15	968.008	0.321
0.197	0.3853	293.15	963	0.321
0.197	0.3853	298.14	957.971	0.321
0.197	0.3853	303.14	952.917	0.321
0.197	0.3853	308.15	947.833	0.321
0.197	0.3853	313.15	942.71	0.321
0.197	0.3853	318.15	937.562	0.321
0.197	0.3853	323.15	932.382	0.321
0.1989	0.5953	283.15	972.714	0.384
0.1989	0.5953	288.15	967.555	0.383
0.1989	0.5953	293.15	962.36	0.382
0.1989	0.5953	298.15	957.182	0.381
0.1989	0.5953	303.15	951.971	0.381
0.1989	0.5953	308.15	946.743	0.38
0.1989	0.5953	313.15	941.49	0.379
0.1989	0.5953	318.15	936.214	0.378
0.1989	0.5953	323.15	930.91	0.377
0.199	0.6986	283.15	972.672	0.425
0.199	0.6986	288.15	967.436	0.423
0.199	0.6986	293.15	962.179	0.422
0.199	0.6986	298.15	956.917	0.421
0.199	0.6986	303.15	951.641	0.42
0.199	0.6986	308.15	946.355	0.418
0.199	0.6986	313.15	941.056	0.417
0.199	0.6986	318.15	935.74	0.416
0.199	0.6986	323.15	930.403	0.414
0.1996	0.4986	308.15	948.372	0.354
0.1998	0.4986	283.15	973.993	0.357
0.1998	0.4986	288.15	968.915	0.356
0.1998	0.4986	293.15	963.804	0.355
0.1998	0.4986	298.15	958.682	0.355
0.1998	0.4986	303.15	953.539	0.354
0.1998	0.4986	313.15	943.179	0.353
0.1998	0.4986	318.15	937.952	0.353
0.1998	0.4986	323.14	932.701	0.353
0.201	0.2996	283.15	969.037	0.31
0.201	0.2996	288.15	964.154	0.31
0.201	0.2996	293.16	959.242	0.31
0.201	0.2996	298.16	954.302	0.311
0.201	0.2996	303.16	949.332	0.311
0.201	0.2996	308.15	944.325	0.311
0.201	0.2996	313.16	939.285	0.312
0.201	0.2996	318.15	934.198	0.312
0.201	0.2996	323.15	929.095	0.313
0.2034	0.1959	283.15	962.779	0.294
0.2034	0.1959	288.14	958.085	0.296
0.2034	0.1959	293.15	953.339	0.297
0.2034	0.1959	298.15	948.556	0.298
0.2034	0.1959	303.15	943.733	0.3
0.2034	0.1959	308.15	938.866	0.301
0.2034	0.1959	313.15	933.959	0.303
0.2034	0.1959	318.15	929.001	0.304
0.2034	0.1959	323.14	923.997	0.307
0.2997	0.5979	283.15	952.539	0.42
0.2997	0.5979	288.15	947.302	0.42
0.2997	0.5979	293.15	942.039	0.419
0.2997	0.5979	298.15	936.768	0.418
0.2997	0.5979	303.15	931.481	0.417
0.2997	0.5979	308.15	926.176	0.416
0.2997	0.5979	313.15	920.848	0.416
0.2997	0.5979	318.15	915.499	0.415
0.2997	0.5979	323.14	910.127	0.414
0.3009	0.0994	283.15	926.944	0.338
0.3009	0.0994	288.15	922.15	0.342
0.3009	0.0994	293.15	917.314	0.345
0.3009	0.0994	298.16	912.432	0.348
0.3009	0.0994	303.16	907.498	0.351
0.3009	0.0994	308.16	902.518	0.354
0.3009	0.0994	313.16	897.485	0.357
0.3009	0.0994	318.15	892.393	0.36
0.3009	0.0994	323.15	887.264	0.362
0.3009	0.4001	283.15	948.748	0.376
0.3009	0.4001	288.15	943.651	0.376
0.3009	0.4001	293.15	938.509	0.377
0.3009	0.4001	298.15	933.348	0.377
0.3009	0.4001	303.15	928.161	0.377
0.3009	0.4001	308.15	922.946	0.377
0.3009	0.4001	313.15	917.695	0.377
0.3009	0.4001	318.15	912.407	0.378
0.3009	0.4001	323.14	907.086	0.378
0.301	0.4951	283.15	951.092	0.398
0.301	0.4951	288.15	945.92	0.397
0.301	0.4951	293.15	940.72	0.397
0.301	0.4951	298.15	935.496	0.397
0.301	0.4951	303.15	930.255	0.397
0.301	0.4951	308.15	924.989	0.396
0.301	0.4951	313.15	919.699	0.396
0.301	0.4951	318.15	914.381	0.396
0.301	0.4951	323.15	909.032	0.396
0.3015	0.297	283.15	943.603	0.363
0.3015	0.297	288.15	938.575	0.364
0.3015	0.297	293.15	933.507	0.365
0.3015	0.297	298.15	928.412	0.365
0.3015	0.297	303.15	923.287	0.366
0.3015	0.297	308.15	918.119	0.367
0.3015	0.297	313.15	912.918	0.368
0.3015	0.297	318.15	907.679	0.369
0.3015	0.297	323.15	902.398	0.37
0.3029	0.2019	283.15	936.594	0.359
0.3029	0.2019	288.15	931.654	0.36
0.3029	0.2019	293.16	926.678	0.362
0.3029	0.2019	298.16	921.667	0.364
0.3029	0.2019	303.16	916.618	0.365
0.3029	0.2019	308.15	911.525	0.367
0.3029	0.2019	313.16	906.387	0.369
0.3029	0.2019	318.15	901.205	0.371
0.3029	0.2019	323.15	895.988	0.372
0.3968	0.2046	283.15	915.335	0.349
0.3968	0.2046	288.15	910.252	0.349
0.3968	0.2046	293.15	905.122	0.35
0.3968	0.2046	298.15	899.961	0.351
0.3968	0.2046	303.15	894.759	0.353
0.3968	0.2046	308.15	889.513	0.354
0.3968	0.2046	313.15	884.229	0.355
0.3968	0.2046	318.15	878.897	0.356
0.3968	0.2046	323.15	873.517	0.358
0.3979	0.1007	283.15	904.234	0.382
0.3979	0.1007	288.15	899.23	0.384
0.3979	0.1007	293.15	894.172	0.387
0.3979	0.1007	298.15	889.07	0.39
0.3979	0.1007	303.15	883.921	0.393
0.3979	0.1007	308.15	878.722	0.396
0.3979	0.1007	313.15	873.474	0.399
0.3979	0.1007	318.15	868.173	0.401
0.3979	0.1007	323.15	862.816	0.404
0.4004	0.2991	283.15	922.398	0.41
0.4004	0.2991	288.15	917.258	0.411
0.4004	0.2991	293.15	912.073	0.412
0.4004	0.2991	298.15	906.86	0.413
0.4004	0.2991	303.15	901.617	0.414
0.4004	0.2991	308.15	896.336	0.415
0.4004	0.2991	313.15	891.017	0.416
0.4004	0.2991	318.15	885.661	0.417
0.4004	0.2991	323.14	880.261	0.418
0.4007	0.3993	283.15	928.632	0.419
0.4007	0.3993	288.15	923.431	0.42
0.4007	0.3993	293.15	918.196	0.42
0.4007	0.3993	298.15	912.942	0.42
0.4007	0.3993	303.15	907.659	0.421
0.4007	0.3993	308.15	902.348	0.421
0.4007	0.3993	313.15	897.004	0.422
0.4007	0.3993	318.15	891.63	0.422
0.4007	0.3993	323.15	886.223	0.423
0.4025	0.4888	283.15	930.254	0.448
0.4025	0.4888	288.15	924.997	0.448
0.4025	0.4888	293.15	919.712	0.448
0.4025	0.4888	298.15	914.412	0.449
0.4025	0.4888	303.15	909.089	0.449
0.4025	0.4888	308.15	903.746	0.449
0.4025	0.4888	313.15	898.376	0.449
0.4025	0.4888	318.15	892.979	0.449
0.4025	0.4888	323.14	887.549	0.449
0.497	0.1009	283.15	884.18	0.384
0.497	0.1009	288.15	879.014	0.383
0.497	0.1009	293.15	873.799	0.386
0.497	0.1009	298.15	868.544	0.388
0.497	0.1009	303.15	863.247	0.39
0.497	0.1009	308.15	857.898	0.392
0.497	0.1009	313.15	852.499	0.395
0.497	0.1009	318.15	847.045	0.401
0.497	0.1009	323.15	841.534	0.401
0.4996	0.3981	283.15	909.42	0.484
0.4996	0.3981	288.15	904.134	0.485
0.4996	0.3981	293.15	898.81	0.486
0.4996	0.3981	298.15	893.467	0.487
0.4996	0.3981	303.15	888.1	0.487
0.4996	0.3981	308.15	882.702	0.488
0.4996	0.3981	313.15	877.278	0.489
0.4996	0.3981	318.15	871.821	0.49
0.4996	0.3981	323.15	866.33	0.491
0.5026	0.2991	283.15	901.998	0.442
0.5026	0.2991	288.15	896.753	0.443
0.5026	0.2991	293.15	891.468	0.444
0.5026	0.2991	298.15	886.158	0.445
0.5026	0.2991	303.15	880.816	0.447
0.5026	0.2991	308.15	875.44	0.448
0.5026	0.2991	313.15	870.023	0.449
0.5026	0.2991	318.15	864.57	0.45
0.5026	0.2991	323.15	859.073	0.451
0.5953	0.2979	283.15	887.333	0.456
0.5953	0.2979	288.15	882.009	0.458
0.5953	0.2979	293.15	876.644	0.459
0.5953	0.2979	298.15	871.251	0.46
0.5953	0.2979	303.15	865.83	0.462
0.5953	0.2979	308.15	860.374	0.463
0.5953	0.2979	313.15	854.884	0.465
0.5953	0.2979	318.15	849.359	0.466
0.5953	0.2979	323.15	843.789	0.467
0.6941	0.0993	283.15	851.832	0.462
0.6941	0.0993	288.15	846.462	0.467
0.6941	0.0993	293.15	841.037	0.47
0.6941	0.0993	298.15	835.576	0.473
0.6941	0.0993	303.15	830.069	0.475
0.6941	0.0993	308.15	824.515	0.478
0.6941	0.0993	313.15	818.907	0.481
0.6941	0.0993	318.15	812.629	0.484
0.6941	0.0993	323.15	807.589	0.482
0.6997	0.1995	283.15	862.898	0.531
0.6997	0.1995	288.15	857.511	0.533
0.6997	0.1995	293.15	852.079	0.536
0.6997	0.1995	298.14	846.619	0.538
0.6997	0.1995	303.15	841.124	0.54
0.6997	0.1995	308.15	835.589	0.543
0.6997	0.1995	313.15	830.011	0.545
0.6997	0.1995	318.15	824.395	0.548
0.6997	0.1995	323.15	818.74	0.55
0.799	0.1006	283.15	838.3	0.457
0.799	0.1006	288.15	832.839	0.461
0.799	0.1006	293.15	827.33	0.463
0.799	0.1006	298.15	821.782	0.465
0.799	0.1006	303.15	816.197	0.468
0.799	0.1006	308.15	810.567	0.47
0.799	0.1006	313.15	804.884	0.472
0.799	0.1006	318.15	799.151	0.458
0.799	0.1006	323.14	793.362	0.478
