Measured thermophysical data. Experimental Surface Tensions and Derived Surface Properties of Binary Mixtures of Water + Alkoxyethanols (C1Em, m = 1, 2, 3) and Water + Ethylene Glycol Dimethyl Ether (C1E1C1) at (298.15, 308.15, and 318.15) K
Source: J. Chem. Eng. Data, 2003, 10.1021/je030173e
Compound 1: 2-(2-methoxyethoxy)ethanol, C5H12O3, InChI=1S/C5H12O3/c1-7-4-5-8-3-2-6/h6H,2-5H2,1H3, purity 98%
Compound 2: 2-[2-(2-methoxyethoxy)ethoxy]ethanol, C7H16O4, InChI=1S/C7H16O4/c1-9-4-5-11-7-6-10-3-2-8/h8H,2-7H2,1H3, purity 97%
Compound 3: 1,2-dimethoxyethane, C4H10O2, InChI=1S/C4H10O2/c1-5-3-4-6-2/h3-4H2,1-2H3, purity 99%
Compound 4: water, H2O, InChI=1S/H2O/h1H2
Compound 5: 2-methoxyethan-1-ol, C3H8O2, InChI=1S/C3H8O2/c1-5-3-2-4/h4H,2-3H2,1H3, purity 99.5%

System: 2-(2-methoxyethoxy)ethanol; phases: Liquid, Gas
Property: Surface tension liquid-gas, N/m (Liquid); method: RINGTE::UFactor:2
Temperature, K	Surface tension liquid-gas, N/m	uncertainty
298.15	0.03473	0.00102
308.15	0.03391	0.001
318.15	0.03295	0.00098

System: 2-[2-(2-methoxyethoxy)ethoxy]ethanol; phases: Liquid, Gas
Property: Surface tension liquid-gas, N/m (Liquid); method: RINGTE::UFactor:2
Temperature, K	Surface tension liquid-gas, N/m	uncertainty
298.15	0.03628	0.00114
308.15	0.03579	0.00112
318.15	0.03521	0.00111

System: 1,2-dimethoxyethane; phases: Liquid, Gas
Property: Surface tension liquid-gas, N/m (Liquid); method: RINGTE::UFactor:2
Temperature, K	Surface tension liquid-gas, N/m	uncertainty
298.15	0.02379	0.00072
308.15	0.02291	0.0007
318.15	0.02189	0.00067

System: water; phases: Liquid, Gas
Property: Surface tension liquid-gas, N/m (Liquid); method: RINGTE::UFactor:2
Temperature, K	Surface tension liquid-gas, N/m	uncertainty
298.15	0.07199	0.00183
308.15	0.07038	0.00179
318.15	0.06882	0.00175

System: 2-methoxyethan-1-ol; phases: Liquid, Gas
Property: Surface tension liquid-gas, N/m (Liquid); method: RINGTE::UFactor:2
Temperature, K	Surface tension liquid-gas, N/m	uncertainty
298.15	0.03082	0.00087
308.15	0.03002	0.00086
318.15	0.0291	0.00083

System: 2-(2-methoxyethoxy)ethanol + water; phases: Liquid, Air at 1 atmosphere
Property: Surface tension liquid-gas, N/m (Liquid); method: RINGTE:UFactor:2
Temperature, K	Mole fraction of 2-(2-methoxyethoxy)ethanol	Surface tension liquid-gas, N/m	uncertainty
298.15	0	0.07199	0.00183
298.15	0.0374	0.05857	0.00152
298.15	0.0558	0.05528	0.00144
298.15	0.1191	0.04514	0.00121
298.15	0.1951	0.04105	0.00111
298.15	0.3021	0.04002	0.00109
298.15	0.4427	0.03827	0.00106
298.15	0.491	0.03757	0.00104
298.15	0.5502	0.03687	0.00103
298.15	0.7494	0.03537	0.00101
298.15	0.8564	0.03502	0.00101
298.15	1	0.03473	0.00102
308.15	0	0.07038	0.00179
308.15	0.0374	0.05712	0.00148
308.15	0.0558	0.0539	0.00141
308.15	0.1191	0.04386	0.00118
308.15	0.1951	0.03978	0.00108
308.15	0.3021	0.0388	0.00106
308.15	0.4427	0.03712	0.00103
308.15	0.491	0.03646	0.00102
308.15	0.5502	0.03592	0.00101
308.15	0.7494	0.03449	0.00099
308.15	0.8564	0.03418	0.00099
308.15	1	0.03391	0.001
318.15	0	0.06882	0.00175
318.15	0.0374	0.05597	0.00146
318.15	0.0558	0.05221	0.00137
318.15	0.1191	0.04313	0.00116
318.15	0.1951	0.03896	0.00106
318.15	0.3021	0.03855	0.00106
318.15	0.4427	0.03631	0.00101
318.15	0.491	0.03526	0.00099
318.15	0.5502	0.03453	0.00098
318.15	0.7494	0.03345	0.00097
318.15	0.8564	0.03312	0.00097
318.15	1	0.03295	0.00098

System: 2-[2-(2-methoxyethoxy)ethoxy]ethanol + water; phases: Liquid, Air at 1 atmosphere
Property: Surface tension liquid-gas, N/m (Liquid); method: RINGTE:UFactor:2
Temperature, K	Mole fraction of 2-[2-(2-methoxyethoxy)ethoxy]ethanol	Surface tension liquid-gas, N/m	uncertainty
298.15	0	0.07199	0.00183
298.15	0.0564	0.05462	0.00143
298.15	0.0964	0.04743	0.00126
298.15	0.1673	0.04173	0.00113
298.15	0.3525	0.04045	0.00112
298.15	0.474	0.0391	0.0011
298.15	0.5536	0.03776	0.00108
298.15	0.6606	0.03713	0.00108
298.15	0.7512	0.03691	0.00109
298.15	0.8736	0.03669	0.00112
298.15	1	0.03628	0.00114
308.15	0	0.07038	0.00179
308.15	0.0564	0.05311	0.00139
308.15	0.0964	0.04598	0.00123
308.15	0.1673	0.04046	0.0011
308.15	0.3525	0.03945	0.00109
308.15	0.474	0.03829	0.00108
308.15	0.5536	0.03704	0.00106
308.15	0.6606	0.03649	0.00107
308.15	0.7512	0.03635	0.00108
308.15	0.8736	0.03618	0.0011
308.15	1	0.03579	0.00112
318.15	0	0.06882	0.00175
318.15	0.0564	0.05153	0.00135
318.15	0.0964	0.04495	0.0012
318.15	0.1673	0.03901	0.00107
318.15	0.3525	0.03812	0.00106
318.15	0.474	0.03742	0.00106
318.15	0.5536	0.03612	0.00104
318.15	0.6606	0.03585	0.00105
318.15	0.7512	0.03546	0.00106
318.15	0.8736	0.03529	0.00108
318.15	1	0.03521	0.00111

System: 1,2-dimethoxyethane + water; phases: Liquid, Air at 1 atmosphere
Property: Surface tension liquid-gas, N/m (Liquid); method: RINGTE:UFactor:2
Temperature, K	Mole fraction of 1,2-dimethoxyethane	Surface tension liquid-gas, N/m	uncertainty
298.15	0	0.07199	0.00183
298.15	0.047	0.04835	0.00128
298.15	0.066	0.04242	0.00114
298.15	0.0759	0.04062	0.0011
298.15	0.1286	0.03196	0.0009
298.15	0.1942	0.02855	0.00082
298.15	0.2612	0.02781	0.0008
298.15	0.4132	0.02608	0.00076
298.15	0.6313	0.02541	0.00075
298.15	1	0.02379	0.00072
308.15	0	0.07038	0.00179
308.15	0.047	0.04683	0.00124
308.15	0.066	0.04097	0.00111
308.15	0.0759	0.03926	0.00107
308.15	0.1286	0.03069	0.00087
308.15	0.1942	0.02743	0.00079
308.15	0.2612	0.02681	0.00078
308.15	0.4132	0.02512	0.00074
308.15	0.6313	0.02449	0.00073
308.15	1	0.02291	0.0007
318.15	0	0.06882	0.00175
318.15	0.047	0.04647	0.00124
318.15	0.066	0.04062	0.0011
318.15	0.0759	0.03771	0.00103
318.15	0.1286	0.02926	0.00084
318.15	0.1942	0.02653	0.00077
318.15	0.2612	0.02592	0.00076
318.15	0.4132	0.02478	0.00073
318.15	0.6313	0.0236	0.00071
318.15	1	0.02189	0.00067

System: 2-methoxyethan-1-ol + water; phases: Liquid, Air at 1 atmosphere
Property: Surface tension liquid-gas, N/m (Liquid); method: RINGTE:UFactor:2
Temperature, K	Mole fraction of 2-methoxyethan-1-ol	Surface tension liquid-gas, N/m	uncertainty
298.15	0	0.07199	0.00183
298.15	0.0509	0.05633	0.00146
298.15	0.0559	0.05511	0.00144
298.15	0.1052	0.04686	0.00124
298.15	0.1494	0.04331	0.00116
298.15	0.2215	0.0397	0.00108
298.15	0.3373	0.03675	0.00101
298.15	0.4783	0.03502	0.00097
298.15	0.6258	0.03291	0.00092
298.15	0.7814	0.03178	0.0009
298.15	0.8912	0.03102	0.00088
298.15	1	0.03082	0.00087
308.15	0	0.07038	0.00179
308.15	0.0509	0.05517	0.00144
308.15	0.0559	0.05404	0.00141
308.15	0.1052	0.04588	0.00122
308.15	0.1494	0.04237	0.00114
308.15	0.2215	0.03881	0.00106
308.15	0.3373	0.03589	0.00099
308.15	0.4783	0.03418	0.00095
308.15	0.6258	0.03202	0.0009
308.15	0.7814	0.03096	0.00088
308.15	0.8912	0.03021	0.00086
308.15	1	0.03002	0.00086
318.15	0	0.06882	0.00175
318.15	0.0509	0.0539	0.00141
318.15	0.0559	0.05282	0.00138
318.15	0.1052	0.0448	0.0012
318.15	0.1494	0.04135	0.00112
318.15	0.2215	0.03783	0.00103
318.15	0.3373	0.03492	0.00097
318.15	0.4783	0.03322	0.00093
318.15	0.6258	0.03113	0.00088
318.15	0.7814	0.03002	0.00085
318.15	0.8912	0.02928	0.00084
318.15	1	0.0291	0.00083
