Measured thermophysical data. Densities, Viscosities, and Surface and Interfacial Tensions of the Ternary Mixture Water + Ethyl Butyrate + Methanol at 303.15 K.
Source: J. Chem. Eng. Data, 2003, 10.1021/je0301500
Compound 1: water, H2O, InChI=1S/H2O/h1H2
Compound 2: methanol, CH4O, InChI=1S/CH4O/c1-2/h2H,1H3, purity 99.8%
Compound 3: ethyl butanoate, C6H12O2, InChI=1S/C6H12O2/c1-3-5-6(7)8-4-2/h3-5H2,1-2H3

System: methanol; phases: Liquid
Property: Mass density, kg/m3 (Liquid); method: Vibrating tube method
Temperature, K	Pressure, kPa	Mass density, kg/m3	uncertainty
303.15	101.325	781.91	0.14

System: methanol; phases: Liquid, Air at 1 atmosphere
Property: Surface tension liquid-gas, N/m (Liquid); method: Ring tensiometer
Temperature, K	Surface tension liquid-gas, N/m	uncertainty
303.15	0.02168	0.00043

System: methanol; phases: Liquid
Property: Viscosity, Pa*s (Liquid); method: Falling or rolling sphere viscometry
Temperature, K	Pressure, kPa	Viscosity, Pa*s	uncertainty
303.15	101.325	0.000504	4e-06

System: ethyl butanoate; phases: Liquid
Property: Mass density, kg/m3 (Liquid); method: Vibrating tube method
Temperature, K	Pressure, kPa	Mass density, kg/m3	uncertainty
303.15	101.325	868.21	0.45

System: ethyl butanoate; phases: Liquid, Air at 1 atmosphere
Property: Surface tension liquid-gas, N/m (Liquid); method: Ring tensiometer
Temperature, K	Surface tension liquid-gas, N/m	uncertainty
303.15	0.0234	0.00047

System: ethyl butanoate; phases: Liquid
Property: Viscosity, Pa*s (Liquid); method: Falling or rolling sphere viscometry
Temperature, K	Pressure, kPa	Viscosity, Pa*s	uncertainty
303.15	101.325	0.000591	6e-06

System: methanol + ethyl butanoate; phases: Liquid, Air at 1 atmosphere
Fixed: Temperature, K = 303.15
Property: Surface tension liquid-gas, N/m (Liquid); method: Ring tensiometer
Mole fraction of ethyl butanoate	Surface tension liquid-gas, N/m	uncertainty
0.05	0.02186	0.00033
0.101	0.02203	0.00033
0.15	0.02222	0.00034
0.2	0.02236	0.00034
0.299	0.02265	0.00034
0.4	0.02285	0.00035
0.496	0.02299	0.00035
0.605	0.02312	0.00036
0.7	0.02318	0.00036
0.8	0.02329	0.00036
0.883	0.02335	0.00036

System: methanol + ethyl butanoate; phases: Liquid
Fixed: Temperature, K = 303.15
Fixed: Pressure, kPa = 101.325
Property: Viscosity, Pa*s (Liquid); method: Falling or rolling sphere viscometry
Mole fraction of ethyl butanoate	Viscosity, Pa*s	uncertainty
0.104	0.000511	4e-06
0.2036	0.000517	4e-06
0.3147	0.000522	4e-06
0.4147	0.000529	4e-06
0.5064	0.000535	5e-06
0.6226	0.000543	5e-06
0.6976	0.000551	5e-06
0.8054	0.000565	5e-06
0.9004	0.000577	5e-06

System: methanol + ethyl butanoate; phases: Liquid
Fixed: Temperature, K = 303.15
Fixed: Pressure, kPa = 101.325
Property: Mass density, kg/m3 (Liquid); method: Vibrating tube method
Mole fraction of ethyl butanoate	Mass density, kg/m3	uncertainty
0.1993	820.83	0.18
0.3	832.61	0.21
0.4	841.45	0.24
0.449	845.03	0.26
0.474	846.71	0.26
0.4995	848.3	0.27
0.5997	853.94	0.31
0.65	856.33	0.32
0.7495	860.43	0.36
0.899	865.48	0.41
0.9001	865.54	0.41
0.9465	866.88	0.43

System: ethyl butanoate + water; phases: Liquid, Air at 1 atmosphere
Fixed: Temperature, K = 303.15
Property: Surface tension liquid-gas, N/m (Liquid); method: Ring tensiometer
Mole fraction of water	Surface tension liquid-gas, N/m	uncertainty
0.018	0.02346	0.00037
0.041	0.02353	0.00037
0.055	0.0236	0.00037

System: ethyl butanoate + water; phases: Liquid
Fixed: Temperature, K = 303.15
Fixed: Pressure, kPa = 101.325
Property: Viscosity, Pa*s (Liquid); method: Falling or rolling sphere viscometry
Mole fraction of water	Viscosity, Pa*s	uncertainty
0.0128	0.000587	6e-06
0.0319	0.000584	5e-06
0.039	0.000586	5e-06
0.0488	0.000584	5e-06
0.0588	0.000597	6e-06

System: ethyl butanoate + water; phases: Liquid
Fixed: Temperature, K = 303.15
Fixed: Pressure, kPa = 101.325
Property: Mass density, kg/m3 (Liquid); method: Vibrating tube method
Mole fraction of water	Mass density, kg/m3	uncertainty
0.019	868.19	0.45
0.033	868.46	0.45
0.039	868.71	0.45
0.056	868.98	0.45

System: methanol + water; phases: Liquid
Fixed: Temperature, K = 303.15
Fixed: Pressure, kPa = 101.325
Property: Mass density, kg/m3 (Liquid); method: Vibrating tube method
Mole fraction of water	Mass density, kg/m3	uncertainty
0.1031	799.74	0.16
0.2055	818.52	0.18
0.3014	836.97	0.21
0.4013	857.06	0.24
0.4994	877.48	0.28

System: methanol + ethyl butanoate + water; phases: Liquid mixture 1, Liquid mixture 2
Fixed: Pressure, kPa = 101.325
Fixed: Temperature, K = 303.15
Property: Interfacial tension, N/m (Liquid mixture 1); method: Ring tensiometer
Mole fraction of water	Interfacial tension, N/m	uncertainty
0.722	0.0027	0.0001
0.819	0.0059	0.0001
0.892	0.0084	0.0002
0.955	0.0122	0.0002
0.999	0.0153	0.0003

System: methanol + ethyl butanoate + water; phases: Liquid, Air at 1 atmosphere
Fixed: Temperature, K = 303.15
Property: Surface tension liquid-gas, N/m (Liquid); method: Ring tensiometer
Mole fraction of water	Mole fraction of ethyl butanoate	Surface tension liquid-gas, N/m	uncertainty
0	0.05	0.02186	0.00033
0	0.101	0.02203	0.00033
0	0.15	0.02222	0.00034
0	0.2	0.02236	0.00034
0	0.299	0.02265	0.00034
0	0.4	0.02285	0.00035
0	0.496	0.02299	0.00035
0	0.605	0.02312	0.00036
0	0.7	0.02318	0.00036
0	0.8	0.02329	0.00036
0	0.883	0.02335	0.00036
0.018	0.982	0.02346	0.00037
0.021	0.837	0.02356	0.00037
0.033	0.745	0.02358	0.00036
0.037	0.675	0.02348	0.00036
0.041	0.959	0.02353	0.00037
0.051	0.549	0.02342	0.00036
0.053	0.747	0.02356	0.00036
0.055	0.945	0.0236	0.00037
0.059	0.453	0.02334	0.00036
0.069	0.345	0.02319	0.00035
0.07	0.646	0.0235	0.00036
0.077	0.25	0.02305	0.00035
0.09	0.15	0.02318	0.00035
0.091	0.55	0.02362	0.00036
0.101	0.05	0.02308	0.00035
0.101	0.65	0.02334	0.00036
0.111	0.45	0.02374	0.00036
0.13	0.55	0.02361	0.00036
0.131	0.35	0.02376	0.00036
0.149	0.25	0.02378	0.00036
0.161	0.45	0.02364	0.00036
0.17	0.149	0.02386	0.00036
0.19	0.05	0.02408	0.00036
0.192	0.35	0.02373	0.00036
0.22	0.249	0.02383	0.00036
0.25	0.15	0.02439	0.00037
0.279	0.05	0.0251	0.00037
0.301	0.249	0.0235	0.00036
0.341	0.15	0.02404	0.00036
0.38	0.05	0.02536	0.00038
0.45	0.1	0.02448	0.00037
0.48	0.05	0.02558	0.00038

System: methanol + ethyl butanoate + water; phases: Liquid, Air at 1 atmosphere
Fixed: Temperature, K = 303.15
Property: Surface tension liquid-gas, N/m (Liquid); method: Ring tensiometer
Mole fraction of water	Mole fraction of methanol	Surface tension liquid-gas, N/m	uncertainty
0.722	0.269	0.02887	0.00044
0.819	0.177	0.03885	0.00056
0.892	0.107	0.04529	0.0007
0.955	0.044	0.05043	0.00071

System: methanol + ethyl butanoate + water; phases: Liquid, Air at 1 atmosphere
Fixed: Temperature, K = 303.15
Property: Surface tension liquid-gas, N/m (Liquid); method: Ring tensiometer
Mole fraction of water	Mole fraction of methanol	Surface tension liquid-gas, N/m	uncertainty
0.076	0.039	0.02363	0.00037
0.101	0.123	0.02358	0.00037
0.124	0.215	0.02377	0.00037
0.185	0.319	0.0238	0.00036

System: methanol + ethyl butanoate + water; phases: Liquid
Fixed: Temperature, K = 303.15
Fixed: Pressure, kPa = 101.325
Property: Viscosity, Pa*s (Liquid); method: Falling or rolling sphere viscometry
Mole fraction of water	Mole fraction of ethyl butanoate	Viscosity, Pa*s	uncertainty
0	0.104	0.000511	4e-06
0	0.2036	0.000517	4e-06
0	0.3147	0.000522	4e-06
0	0.4147	0.000529	4e-06
0	0.5064	0.000535	5e-06
0	0.6226	0.000543	5e-06
0	0.6976	0.000551	5e-06
0	0.8054	0.000565	5e-06
0	0.9004	0.000577	5e-06
0.0128	0.9872	0.000587	6e-06
0.0319	0.9681	0.000584	5e-06
0.039	0.961	0.000586	5e-06
0.0394	0.043	0.00056	5e-06
0.0408	0.7249	0.000565	5e-06
0.0423	0.1607	0.000558	5e-06
0.0488	0.9512	0.000584	5e-06
0.0579	0.2522	0.000567	5e-06
0.0588	0.9412	0.000597	6e-06
0.0813	0.0635	0.000601	5e-06
0.0946	0.3198	0.000598	5e-06
0.095	0.6997	0.000585	5e-06
0.1205	0.1369	0.000633	5e-06
0.1326	0.6091	0.0006	5e-06
0.1415	0.2059	0.00065	5e-06
0.1432	0.0639	0.000669	5e-06
0.1564	0.5272	0.000626	5e-06
0.1603	0.3344	0.000645	5e-06
0.1785	0.4458	0.000651	6e-06
0.1808	0.3865	0.000662	6e-06
0.206	0.2205	0.000706	6e-06
0.2127	0.3726	0.000688	6e-06
0.2214	0.0473	0.000768	6e-06
0.2333	0.1315	0.000763	6e-06
0.2567	0.2398	0.000751	6e-06
0.2582	0.3038	0.00074	6e-06
0.2769	0.0633	0.000839	7e-06
0.3167	0.2313	0.000826	7e-06
0.3189	0.082	0.000894	7e-06
0.3219	0.1412	0.000865	7e-06
0.3825	0.0672	0.000989	8e-06
0.4097	0.14	0.001022	9e-06
0.4597	0.064	0.00112	9e-06

System: methanol + ethyl butanoate + water; phases: Liquid
Fixed: Temperature, K = 303.15
Fixed: Pressure, kPa = 101.325
Property: Mass density, kg/m3 (Liquid); method: Vibrating tube method
Mole fraction of water	Mole fraction of ethyl butanoate	Mass density, kg/m3	uncertainty
0	0.1993	820.83	0.18
0	0.3	832.61	0.21
0	0.4	841.45	0.24
0	0.449	845.03	0.26
0	0.474	846.71	0.26
0	0.4995	848.3	0.27
0	0.5997	853.94	0.31
0	0.65	856.33	0.32
0	0.7495	860.43	0.36
0	0.899	865.48	0.41
0	0.9001	865.54	0.41
0	0.9465	866.88	0.43
0.019	0.981	868.19	0.45
0.033	0.967	868.46	0.45
0.039	0.961	868.71	0.45
0.0471	0.3999	846.12	0.25
0.0507	0.7903	865.11	0.39
0.0514	0.4738	851.21	0.28
0.0521	0.1889	826.26	0.19
0.0523	0.0962	811.92	0.17
0.0531	0.5679	856.49	0.31
0.056	0.944	868.98	0.45
0.0563	0.6639	860.99	0.35
0.0847	0.7201	865.02	0.38
0.09	0.2763	840.1	0.23
0.098	0.0499	810.07	0.17
0.103	0.0911	818.81	0.18
0.1031	0	799.74	0.16
0.1032	0.4705	855.13	0.3
0.1032	0.5378	858.55	0.32
0.1034	0.1787	831.37	0.2
0.1061	0.3576	848.61	0.26
0.1111	0.4408	854.43	0.29
0.1207	0.6186	863.16	0.35
0.1317	0.3093	847.66	0.25
0.1434	0.591	864.21	0.35
0.1537	0.2483	845.07	0.24
0.1572	0.3371	852.41	0.27
0.1586	0.1677	837.46	0.22
0.1705	0.4976	861.37	0.33
0.185	0.0994	832.29	0.2
0.1952	0.0499	826.27	0.19
0.2023	0.3191	856.16	0.28
0.2055	0	818.52	0.18
0.2099	0.1575	843.39	0.23
0.225	0.3389	860.17	0.3
0.2503	0.2999	860.14	0.29
0.2561	0.1504	848.89	0.24
0.2709	0.1012	845.68	0.23
0.2866	0.0491	841.71	0.22
0.3014	0	836.97	0.21
0.3021	0.2473	862.37	0.29
0.3218	0.1982	861.55	0.28
0.3415	0.149	859.74	0.27
0.3516	0.1995	865.13	0.29
0.3613	0.0997	859.74	0.26
0.3813	0.05	858.53	0.25
0.4013	0	857.06	0.24
0.4495	0.0997	873.58	0.29
0.4744	0.05	875.34	0.29
0.4994	0	877.48	0.28
