Measured thermophysical data. Surface Tensions and Densities of Sulfuric Acid + Dimethylamine + Water Solutions
Source: J. Chem. Eng. Data, 2004, 10.1021/je034225b
Compound 1: sulfuric acid, H2O4S, InChI=1S/H2O4S/c1-5(2,3)4/h(H2,1,2,3,4), purity 96%
Compound 2: dimethylamine, C2H7N, InChI=1S/C2H7N/c1-3-2/h3H,1-2H3
Compound 3: water, H2O, InChI=1S/H2O/h1H2

System: water; phases: Liquid, Air at 1 atmosphere
Property: Surface tension liquid-gas, N/m (Liquid); method: OTHER
Temperature, K	Surface tension liquid-gas, N/m	uncertainty
297	0.0704	0.0028

System: dimethylamine + water; phases: Liquid, Air at 1 atmosphere
Fixed: Temperature, K = 297
Property: Surface tension liquid-gas, N/m (Liquid); method: OTHER
Mole fraction of dimethylamine	Surface tension liquid-gas, N/m	uncertainty
0.002	0.0684	0.0027
0.003	0.0657	0.0026
0.004	0.0658	0.0026
0.006	0.0647	0.0026
0.008	0.0628	0.0025
0.01	0.0618	0.0025
0.013	0.0604	0.0024
0.016	0.0584	0.0023
0.025	0.0561	0.0022
0.034	0.0532	0.0021
0.043	0.051	0.002
0.052	0.0491	0.002
0.061	0.0481	0.0019
0.071	0.0478	0.0019
0.091	0.0424	0.0017
0.112	0.0404	0.0016
0.135	0.0389	0.0016
0.158	0.0368	0.0015
0.184	0.0353	0.0014
0.21	0.0337	0.0014

System: dimethylamine + water; phases: Liquid
Fixed: Pressure, kPa = 100
Property: Mass density, kg/m3 (Liquid); method: Pycnometric method
Mole fraction of dimethylamine	Temperature, K	Mass density, kg/m3	uncertainty
0.001	298.15	998	10
0.001	571.15	998	20
0.002	298.15	994	10
0.002	571.15	994	20
0.004	298.15	988	10
0.004	571.15	988	20
0.008	298.15	987	10
0.008	571.15	987	20
0.016	298.15	984	10
0.016	571.15	984	20
0.025	298.15	974	10
0.025	571.15	974	20
0.034	298.15	969	10
0.034	571.15	969	19
0.043	298.15	967	10
0.043	571.15	967	19
0.091	298.15	941	9
0.091	571.15	941	19
0.146	298.15	918	9
0.146	571.15	918	18
0.21	298.15	888	9
0.21	571.15	888	18

System: sulfuric acid + water; phases: Liquid, Air at 1 atmosphere
Fixed: Temperature, K = 297
Property: Surface tension liquid-gas, N/m (Liquid); method: OTHER
Mole fraction of sulfuric acid	Surface tension liquid-gas, N/m	uncertainty
0.001	0.0716	0.0029
0.003	0.0714	0.0029
0.006	0.0712	0.0028
0.008	0.0719	0.0029
0.026	0.0724	0.0029
0.052	0.0731	0.0029
0.09	0.074	0.003
0.125	0.0747	0.003
0.18	0.0752	0.003
0.25	0.0736	0.003
0.35	0.0723	0.0029
0.48	0.0694	0.0029

System: sulfuric acid + water; phases: Liquid
Fixed: Pressure, kPa = 100
Property: Mass density, kg/m3 (Liquid); method: Pycnometric method
Mole fraction of sulfuric acid	Temperature, K	Mass density, kg/m3	uncertainty
0.001	298.15	998	10
0.001	571.15	998	20
0.003	298.15	1005	10
0.003	571.15	1005	20
0.006	298.15	1017	10
0.006	571.15	1017	20
0.008	298.15	1024	10
0.008	571.15	1024	21
0.026	298.15	1085	11
0.026	571.15	1085	22
0.052	298.15	1156	12
0.052	571.15	1156	23
0.09	298.15	1253	13
0.09	571.15	1253	25
0.125	298.15	1328	13
0.125	571.15	1328	27
0.18	298.15	1422	14
0.18	571.15	1422	28
0.25	298.15	1528	15
0.25	571.15	1528	31
0.35	298.15	1622	16
0.35	571.15	1622	32
0.48	298.15	1725	17
0.48	571.15	1725	35

System: dimethylamine + sulfuric acid + water; phases: Liquid, Air at 1 atmosphere
Fixed: Temperature, K = 297
Property: Surface tension liquid-gas, N/m (Liquid); method: OTHER
Mole fraction of sulfuric acid	Mole fraction of dimethylamine	Surface tension liquid-gas, N/m	uncertainty
0	0	0.0704	0.0028
0	0.002	0.0684	0.0027
0	0.003	0.0657	0.0026
0	0.004	0.0658	0.0026
0	0.006	0.0647	0.0026
0	0.008	0.0628	0.0025
0	0.01	0.0618	0.0025
0	0.013	0.0604	0.0024
0	0.016	0.0584	0.0023
0	0.025	0.0561	0.0022
0	0.034	0.0532	0.0021
0	0.043	0.051	0.002
0	0.052	0.0491	0.002
0	0.061	0.0481	0.0019
0	0.071	0.0478	0.0019
0	0.091	0.0424	0.0017
0	0.112	0.0404	0.0016
0	0.135	0.0389	0.0016
0	0.158	0.0368	0.0015
0	0.184	0.0353	0.0014
0	0.21	0.0337	0.0014
0.001	0	0.0716	0.0029
0.001	0.002	0.0719	0.0029
0.001	0.004	0.069	0.0028
0.001	0.007	0.0645	0.0026
0.001	0.015	0.0595	0.0024
0.001	0.022	0.0566	0.0023
0.001	0.03	0.0528	0.0021
0.001	0.038	0.0512	0.002
0.001	0.082	0.0455	0.0018
0.001	0.132	0.0399	0.0016
0.001	0.182	0.0348	0.0014
0.003	0	0.0714	0.0029
0.003	0.002	0.0716	0.0029
0.003	0.004	0.0713	0.0029
0.003	0.007	0.0692	0.0028
0.003	0.015	0.0613	0.0025
0.003	0.022	0.0563	0.0023
0.003	0.03	0.0539	0.0022
0.003	0.038	0.0517	0.0021
0.003	0.082	0.0441	0.0018
0.003	0.132	0.0387	0.0015
0.003	0.183	0.0342	0.0014
0.003	0.132	0.0387	0.0015
0.006	0	0.0712	0.0028
0.006	0.002	0.0714	0.0029
0.006	0.004	0.0716	0.0029
0.006	0.007	0.0716	0.0029
0.006	0.015	0.0673	0.0027
0.006	0.022	0.06	0.0024
0.006	0.03	0.0558	0.0022
0.006	0.038	0.0529	0.0021
0.006	0.082	0.0446	0.0018
0.006	0.131	0.0387	0.0016
0.006	0.189	0.0346	0.0014
0.006	0.189	0.0346	0.0014
0.008	0	0.0719	0.0029
0.008	0.002	0.0717	0.0029
0.008	0.004	0.0717	0.0029
0.008	0.007	0.0719	0.0029
0.008	0.015	0.0721	0.0029
0.008	0.03	0.0581	0.0023
0.008	0.038	0.0547	0.0022
0.008	0.046	0.0504	0.002
0.008	0.082	0.0455	0.0018
0.008	0.131	0.0387	0.0016
0.008	0.189	0.0346	0.0014
0.026	0	0.0724	0.0029
0.026	0.001	0.0709	0.0028
0.026	0.002	0.0723	0.0029
0.026	0.003	0.0712	0.0028
0.026	0.007	0.0704	0.0028
0.026	0.017	0.0722	0.0029
0.026	0.037	0.0712	0.0028
0.026	0.086	0.0468	0.0019
0.052	0	0.0731	0.0029
0.052	0.001	0.073	0.0029
0.052	0.002	0.0727	0.0029
0.052	0.003	0.0722	0.0029
0.052	0.004	0.0729	0.0029
0.052	0.007	0.073	0.0029
0.052	0.018	0.0729	0.0029
0.052	0.038	0.0703	0.0028
0.052	0.089	0.0715	0.0029
0.09	0	0.074	0.003
0.09	0.001	0.0738	0.003
0.09	0.002	0.0749	0.003
0.09	0.003	0.0737	0.003
0.09	0.007	0.0747	0.003
0.09	0.018	0.0744	0.003
0.09	0.038	0.0741	0.003
0.09	0.088	0.0724	0.0029
0.125	0	0.0747	0.003
0.125	0.001	0.0747	0.003
0.125	0.002	0.075	0.003
0.125	0.004	0.0747	0.003
0.125	0.007	0.0742	0.003
0.125	0.018	0.075	0.003
0.125	0.038	0.0746	0.003
0.125	0.089	0.0691	0.0028
0.18	0	0.0752	0.003
0.18	0.001	0.0752	0.003
0.18	0.002	0.0752	0.003
0.18	0.003	0.0755	0.003
0.18	0.007	0.0749	0.003
0.18	0.017	0.0747	0.003
0.18	0.036	0.074	0.003
0.18	0.084	0.0724	0.0029
0.25	0	0.0736	0.003
0.25	0.001	0.0735	0.003
0.25	0.002	0.0739	0.003
0.25	0.003	0.0723	0.0029
0.25	0.007	0.0729	0.0029
0.25	0.017	0.0709	0.0029
0.25	0.037	0.0706	0.0029
0.35	0	0.0723	0.0029
0.35	0.001	0.072	0.0029
0.35	0.002	0.0718	0.0029
0.35	0.003	0.0721	0.0029
0.35	0.007	0.0719	0.0029
0.35	0.018	0.072	0.0029
0.35	0.038	0.0722	0.0029
0.35	0.087	0.0711	0.0029
0.48	0	0.0694	0.0029
0.48	0.001	0.0685	0.0028
0.48	0.002	0.0683	0.0028
0.48	0.004	0.0688	0.0028
0.48	0.007	0.0682	0.0028
0.48	0.017	0.0683	0.0028
0.48	0.037	0.0668	0.0028
0.48	0.087	0.0675	0.0028

System: dimethylamine + sulfuric acid + water; phases: Liquid
Fixed: Temperature, K = 298
Fixed: Pressure, kPa = 100
Property: Mass density, kg/m3 (Liquid); method: Pycnometric method
Mole fraction of sulfuric acid	Mole fraction of dimethylamine	Mass density, kg/m3	uncertainty
0	0.001	998	20
0	0.002	994	20
0	0.004	988	20
0	0.008	987	20
0	0.016	984	20
0	0.025	974	20
0	0.034	969	19
0	0.043	967	19
0	0.091	941	19
0	0.146	918	18
0	0.21	888	18
0.001	0	998	20
0.001	0.002	997	20
0.001	0.004	994	20
0.001	0.007	994	20
0.001	0.015	991	20
0.001	0.022	985	20
0.001	0.03	980	20
0.001	0.038	974	20
0.001	0.082	950	19
0.001	0.131	928	19
0.001	0.188	901	18
0.003	0	1005	20
0.003	0.002	1003	20
0.003	0.004	1007	20
0.003	0.007	1001	20
0.003	0.015	998	20
0.003	0.023	994	20
0.003	0.03	988	20
0.003	0.038	982	20
0.003	0.082	957	19
0.003	0.132	934	19
0.003	0.19	905	18
0.006	0	1017	20
0.006	0.002	1013	20
0.006	0.004	1015	20
0.006	0.007	1011	20
0.006	0.015	1011	20
0.006	0.023	1003	20
0.006	0.031	999	20
0.006	0.039	993	20
0.006	0.083	968	19
0.006	0.134	943	19
0.006	0.193	912	18
0.008	0	1024	21
0.008	0.002	1018	20
0.008	0.004	1019	20
0.008	0.007	1015	20
0.008	0.015	1016	20
0.008	0.023	1016	20
0.008	0.031	1007	20
0.008	0.039	1003	20
0.008	0.084	974	20
0.008	0.135	948	19
0.008	0.195	917	18
0.026	0	1085	22
0.026	0.001	1084	22
0.026	0.002	1082	22
0.026	0.003	1080	22
0.026	0.007	1071	21
0.026	0.017	1071	21
0.026	0.037	1061	21
0.026	0.086	1039	21
0.052	0	1156	23
0.052	0.001	1156	23
0.052	0.002	1157	23
0.052	0.003	1156	23
0.052	0.007	1153	23
0.052	0.018	1141	23
0.052	0.038	1127	23
0.052	0.089	1109	22
0.09	0	1253	25
0.09	0.001	1251	25
0.09	0.002	1253	25
0.09	0.004	1245	25
0.09	0.007	1245	25
0.09	0.014	1235	25
0.09	0.038	1216	24
0.09	0.088	1184	24
0.125	0	1328	27
0.125	0.001	1333	27
0.125	0.002	1329	27
0.125	0.003	1331	27
0.125	0.007	1316	26
0.125	0.014	1312	26
0.125	0.038	1289	26
0.125	0.089	1258	25
0.18	0	1422	28
0.18	0.001	1427	29
0.18	0.002	1425	29
0.18	0.003	1421	28
0.18	0.007	1413	28
0.18	0.017	1402	28
0.18	0.036	1378	28
0.18	0.084	1337	27
0.25	0	1528	31
0.25	0.001	1525	31
0.25	0.002	1527	31
0.25	0.004	1516	30
0.25	0.007	1513	30
0.25	0.018	1498	30
0.25	0.037	1478	30
0.25	0.086	1428	29
0.35	0	1622	32
0.35	0.001	1632	33
0.35	0.002	1636	33
0.35	0.003	1625	33
0.35	0.007	1625	33
0.35	0.018	1608	32
0.35	0.038	1591	32
0.35	0.087	1532	31
0.48	0	1725	35
0.48	0.001	1748	35
0.48	0.002	1742	35
0.48	0.003	1734	35
0.48	0.007	1727	35
0.48	0.017	1722	35
0.48	0.037	1709	34
0.48	0.086	1611	32
