Measured thermophysical data. Solubility of Tripolycyanamide and Cyanuric Acid in Ethanediol, N,N-Dimethylformamide, and N,N-Dimethylacetamide from (301.07 to 363.35) K
Source: J. Chem. Eng. Data, 2004, 10.1021/je0342015
Compound 1: 1,3,5-triazine-2,4,6-triamine, C3H6N6, InChI=1S/C3H6N6/c4-1-7-2(5)9-3(6)8-1/h(H6,4,5,6,7,8,9)
Compound 2: 1,3,5-triazine-2,4,6-triol, C3H3N3O3, InChI=1S/C3H3N3O3/c7-1-4-2(8)6-3(9)5-1/h(H3,4,5,6,7,8,9)
Compound 3: 1,2-ethanediol, C2H6O2, InChI=1S/C2H6O2/c3-1-2-4/h3-4H,1-2H2
Compound 4: dimethylformamide, C3H7NO, InChI=1S/C3H7NO/c1-4(2)3-5/h3H,1-2H3
Compound 5: N,N-dimethylethanamide, C4H9NO, InChI=1S/C4H9NO/c1-4(6)5(2)3/h1-3H3

System: 1,2-ethanediol + 1,3,5-triazine-2,4,6-triamine; phases: Liquid, Crystal
Fixed: Pressure, kPa = 101.3
Property: Mole fraction of 1,3,5-triazine-2,4,6-triamine (Liquid); method: OTHER
Temperature, K	Mole fraction of 1,3,5-triazine-2,4,6-triamine	uncertainty
311.23	0.01172	0.001801
319.3	0.01198	0.001801
326.3	0.01223	0.001801
339.65	0.01296	0.001801
341.75	0.01313	0.001801
346.53	0.01365	0.001801
347.15	0.01372	0.001801
347.7	0.01376	0.001801
350.97	0.01403	0.001803
351.44	0.0144	0.001803
353.4	0.01459	0.001801

System: 1,2-ethanediol + 1,3,5-triazine-2,4,6-triol; phases: Liquid, Crystal
Fixed: Pressure, kPa = 101.3
Property: Mole fraction of 1,3,5-triazine-2,4,6-triol (Liquid); method: OTHER
Temperature, K	Mole fraction of 1,3,5-triazine-2,4,6-triol	uncertainty
308.25	0.0004	0.0004
318.05	0.000516	0.0004
324.45	0.000608	0.0004
329.05	0.000682	0.0004
331.15	0.000717	0.0004
336.15	0.000809	0.0004
338.85	0.000863	0.0004
345.55	0.001006	0.0004
348.24	0.001068	0.0004
351.45	0.00115	0.0004

System: dimethylformamide + 1,3,5-triazine-2,4,6-triamine; phases: Liquid, Crystal
Fixed: Pressure, kPa = 101.3
Property: Mole fraction of 1,3,5-triazine-2,4,6-triamine (Liquid); method: OTHER
Temperature, K	Mole fraction of 1,3,5-triazine-2,4,6-triamine	uncertainty
303.25	0.00065	0.00065
320.6	0.001014	0.001
324.86	0.001108	0.001
325.25	0.001116	0.001
332.4	0.00129	0.001
335.25	0.001373	0.001
338.13	0.00146	0.001
340.85	0.001551	0.001
351.55	0.001972	0.001
351.63	0.001981	0.001
354.75	0.002113	0.001
356.8	0.002214	0.001
363.35	0.002567	0.001

System: dimethylformamide + 1,3,5-triazine-2,4,6-triol; phases: Liquid, Crystal
Fixed: Pressure, kPa = 101.3
Property: Mole fraction of 1,3,5-triazine-2,4,6-triol (Liquid); method: OTHER
Temperature, K	Mole fraction of 1,3,5-triazine-2,4,6-triol	uncertainty
305.15	0.000528	0.000528
309.35	0.000648	0.000648
313.93	0.0008	0.0008
314.93	0.000838	0.0008
316.33	0.000891	0.0008
318.05	0.00096	0.0008
319.7	0.00103	0.0008
321.15	0.001094	0.0008
325.1	0.001285	0.0008
328.97	0.001493	0.0008
334.3	0.001816	0.0008
337.46	0.002029	0.0008

System: 1,3,5-triazine-2,4,6-triamine + N,N-dimethylethanamide; phases: Liquid, Crystal
Fixed: Pressure, kPa = 101.3
Property: Mole fraction of 1,3,5-triazine-2,4,6-triamine (Liquid); method: OTHER
Temperature, K	Mole fraction of 1,3,5-triazine-2,4,6-triamine	uncertainty
322.75	0.000467	0.000467
325.25	0.00053	0.00053
329.45	0.000657	0.000657
333.77	0.000801	0.000801
337.45	0.000949	0.000949
340.55	0.001094	0.001094
342.39	0.001189	0.001189
343.8	0.001268	0.001268
344.95	0.001336	0.001336
348.4	0.001563	0.00134
350.76	0.001739	0.00134
353.63	0.001979	0.00134
355.03	0.002108	0.00134
357.05	0.002308	0.00134
361.55	0.002823	0.00134

System: 1,3,5-triazine-2,4,6-triol + N,N-dimethylethanamide; phases: Liquid, Crystal
Fixed: Pressure, kPa = 101.3
Property: Mole fraction of 1,3,5-triazine-2,4,6-triol (Liquid); method: OTHER
Temperature, K	Mole fraction of 1,3,5-triazine-2,4,6-triol	uncertainty
301.07	0.001618	0.001618
304.98	0.001784	0.001784
308.2	0.001965	0.0018
311	0.002131	0.0018
314.13	0.002325	0.0018
317.3	0.00253	0.0018
321.95	0.002845	0.0018
327.37	0.003232	0.0018
330.94	0.003498	0.0018
337.75	0.004022	0.0018
343.45	0.004475	0.0018
