Measured thermophysical data. Vapor-Liquid Equilibrium for the Carbon Dioxide + Hydrogen + Methanol Ternary System
Source: J. Chem. Eng. Data, 2004, 10.1021/je0301491
Compound 1: carbon dioxide, CO2, InChI=1S/CO2/c2-1-3, purity 99.5%
Compound 2: hydrogen, H2, InChI=1S/H2/h1H, purity 99.98%
Compound 3: methanol, CH4O, InChI=1S/CH4O/c1-2/h2H,1H3, purity 99.8%

System: methanol + carbon dioxide + hydrogen; phases: Liquid, Gas
Property: Vapor or sublimation pressure, kPa (Liquid); method: Closed cell (Static) method
Temperature, K	Mole fraction of carbon dioxide	Mole fraction of hydrogen	Vapor or sublimation pressure, kPa	uncertainty
278	0.1764	0.0269	17000	1700
278	0.3336	0.0202	9000	1200
278	0.5301	0.0336	9000	900
278	0.8223	0.0751	11000	500
288	0.5381	0.0742	17000	1100
288	0.7544	0.1069	15000	1600
288	0.8026	0.0758	11000	1600
298	0.1194	0.0066	4000	400

System: methanol + carbon dioxide + hydrogen; phases: Liquid, Gas
Property: Mole fraction of hydrogen (Liquid); method: UNKNOWN
Property: Mole fraction of hydrogen (Gas); method: UNKNOWN
Property: Mole fraction of carbon dioxide (Gas); method: UNKNOWN
Temperature, K	Pressure, kPa	Mole fraction of carbon dioxide	Mole fraction of hydrogen	uncertainty	Mole fraction of hydrogen	uncertainty	Mole fraction of carbon dioxide	uncertainty
288	20000	0.1568	0.0463	0.0037	0.8368	0.0669	0.1632	
288	17000	0.1268	0.0346	0.0028	0.8338	0.0667	0.1662	
288	17000	0.1738	0.0406	0.0032	0.7971	0.0638	0.2029	
288	5000	0.0878	0.0104	0.0008	0.7231	0.0578	0.2354	
288	13000	0.1784	0.0313	0.0025	0.7445	0.0596	0.2385	
298	4000	0.0657	0.0079	0.0006	0.7041	0.0563	0.24	
288	4000	0.0795	0.0082	0.0007	0.7533	0.0603	0.2466	
298	2000	0.0391	0.0039	0.0003	0.7354	0.0588	0.2469	
278	11000	0.0989	0.0126	0.001	0.7505	0.06	0.2495	
298	20000	0.1984	0.0513	0.0041	0.7237	0.0579	0.2515	
288	15000	0.1557	0.0355	0.0028	0.747	0.0598	0.253	
298	7000	0.1093	0.0151	0.0012	0.7107	0.0569	0.26	
288	15000	0.2133	0.0378	0.003	0.7374	0.059	0.2626	
278	20000	0.164	0.0301	0.0024	0.7363	0.0589	0.2637	
298	6000	0.1153	0.0152	0.0012	0.7345	0.0588	0.2655	
278	5000	0.0466	0.0046	0.0004	0.7327	0.0586	0.2673	
298	11000	0.1556	0.026	0.0021	0.6299	0.0504	0.276	
288	9000	0.1601	0.0207	0.0017	0.7228	0.0578	0.2772	
288	2000	0.0621	0.0046	0.0004	0.7158	0.0573	0.2842	
278	2000	0.065	0.0033	0.0003	0.7065	0.0565	0.2935	
288	13000	0.2221	0.0325	0.0026	0.6905	0.0552	0.2949	
298	13000	0.1897	0.0311	0.0025	0.6358	0.0509	0.3043	
278	3000	0.0916	0.0052	0.0004	0.6942	0.0555	0.3058	
298	17000	0.2247	0.0431	0.0034	0.6493	0.0519	0.3062	
288	11000	0.1717	0.0258	0.0021	0.6924	0.0554	0.3076	
298	9000	0.1191	0.0211	0.0017	0.674	0.0539	0.3077	
298	20000	0.2428	0.0528	0.0042	0.6541	0.0523	0.3099	
278	3950	0.1143	0.007	0.0006	0.6897	0.0552	0.3103	
278	13000	0.1549	0.0183	0.0015	0.6859	0.0549	0.3141	
288	20000	0.2987	0.0554	0.0044	0.682	0.0546	0.318	
288	17000	0.2846	0.0462	0.0037	0.6748	0.054	0.3252	
278	20000	0.2523	0.0411	0.0033	0.6627	0.053	0.3373	
298	15000	0.2284	0.0382	0.0031	0.6249	0.05	0.3425	
278	9000	0.2636	0.0222	0.0018	0.6479	0.0518	0.3521	
298	20000	0.2833	0.0557	0.0045	0.6205	0.0496	0.3576	
278	15000	0.2428	0.0293	0.0023	0.6322	0.0506	0.3678	
288	11000	0.2518	0.0272	0.0022	0.6318	0.0505	0.3682	
278	17000	0.3011	0.0419	0.0034	0.623	0.0498	0.377	
278	15000	0.2647	0.0316	0.0025	0.6187	0.0495	0.3813	
288	20000	0.3719	0.0624	0.005	0.6156	0.0493	0.3822	
278	20000	0.3788	0.0607	0.0049	0.6174	0.0494	0.3826	
288	7000	0.1971	0.0149	0.0012	0.6052	0.0484	0.3948	
278	7000	0.2549	0.0154	0.0012	0.5948	0.0476	0.4052	
278	20000	0.6662	0.1211	0.0097	0.5926	0.0474	0.4074	
278	13000	0.2724	0.0275	0.0022	0.5906	0.0473	0.4094	
298	20000	0.329	0.0592	0.0047	0.574	0.0459	0.4097	
288	15000	0.3561	0.0444	0.0036	0.5884	0.0471	0.4116	
288	2000	0.0798	0.0034	0.0003	0.5874	0.047	0.4125	
278	20000	0.7298	0.1383	0.0111	0.5865	0.0469	0.4135	
278	17000	0.5504	0.0803	0.0064	0.582	0.0466	0.418	
278	15000	0.5487	0.0639	0.0051	0.5812	0.0465	0.4188	
278	17000	0.6631	0.1017	0.0081	0.5758	0.0461	0.4242	
278	17000	0.7327	0.1147	0.0092	0.572	0.0458	0.428	
288	13000	0.3511	0.0374	0.003	0.5655	0.0452	0.432	
278	15000	0.6284	0.0823	0.0066	0.5604	0.0448	0.4396	
278	15000	0.7384	0.1007	0.0081	0.5558	0.0445	0.4442	
288	17000	0.4536	0.0615	0.0049	0.5555	0.0444	0.4445	
288	5000	0.188	0.0105	0.0008	0.5139	0.0411	0.4464	
278	13000	0.476	0.0492	0.0039	0.5432	0.0435	0.4568	
298	17000	0.3535	0.0515	0.0041	0.5174	0.0414	0.4571	
288	20000	0.5145	0.0836	0.0067	0.5366	0.0429	0.4601	
288	9000	0.2938	0.0217	0.0017	0.5237	0.0419	0.4626	
278	13000	0.5912	0.064	0.0051	0.5372	0.043	0.4628	
298	11000	0.2803	0.0275	0.0022	0.4999	0.04	0.4638	
298	2000	0.0687	0.0027	0.0002	0.5158	0.0413	0.4696	
278	11000	0.1927	0.0173	0.0014	0.5277	0.0422	0.4707	
288	11000	0.3481	0.0303	0.0024	0.5291	0.0423	0.4709	
278	9000	0.2373	0.0153	0.0012	0.5263	0.0421	0.4737	
288	4000	0.155	0.0065	0.0005	0.5228	0.0418	0.4777	
298	15000	0.3463	0.0432	0.0035	0.4911	0.0393	0.4888	
278	11000	0.4528	0.037	0.003	0.5068	0.0406	0.4932	
298	6000	0.2001	0.0104	0.0008	0.4323	0.0346	0.4943	
278	2000	0.1142	0.0028	0.0002	0.5018	0.0402	0.4982	
278	11000	0.5928	0.0513	0.0041	0.5016	0.0401	0.4984	
288	9000	0.3314	0.0225	0.0018	0.4801	0.0384	0.4991	
298	7000	0.2262	0.014	0.0011	0.4441	0.0355	0.4996	
288	20000	0.7285	0.1474	0.0118	0.4851	0.0388	0.5102	
298	20000	0.4449	0.0733	0.0059	0.4731	0.0379	0.5152	
288	15000	0.5745	0.0706	0.0056	0.4798	0.0384	0.5175	
278	13000	0.8404	0.1001	0.008	0.4786	0.0383	0.5214	
288	17000	0.7259	0.1208	0.0097	0.4733	0.0379	0.5234	
278	9000	0.4181	0.0252	0.002	0.4668	0.0374	0.5332	
288	7000	0.289	0.0145	0.0012	0.464	0.0371	0.536	
298	13000	0.3914	0.0397	0.0032	0.4365	0.0349	0.5397	
288	13000	0.5755	0.0586	0.0047	0.4515	0.0361	0.5461	
278	9000	0.743	0.0494	0.004	0.4526	0.0362	0.5474	
278	7000	0.4191	0.0181	0.0014	0.4474	0.0358	0.5526	
298	9000	0.2697	0.0201	0.0016	0.4318	0.0346	0.5594	
278	9000	0.808	0.0542	0.0043	0.4389	0.0351	0.5611	
298	15000	0.4571	0.0536	0.0043	0.4225	0.0338	0.5653	
278	5000	0.2867	0.0086	0.0007	0.4315	0.0345	0.5685	
288	11000	0.5121	0.0394	0.0032	0.4282	0.0343	0.5717	
298	17000	0.5071	0.0702	0.0056	0.4134	0.0331	0.5739	
288	13000	0.7761	0.0923	0.0074	0.4242	0.0339	0.5758	
288	2000	0.1371	0.0011	0.0001	0.3986	0.0319	0.5796	
298	20000	0.5534	0.0953	0.0076	0.4049	0.0324	0.5814	
288	9000	0.4347	0.0256	0.002	0.4143	0.0332	0.5857	
288	17000	0.5742	0.0816	0.0065	0.413	0.033	0.587	
278	3000	0.0904	0.0019	0.0002	0.4098	0.0328	0.5902	
298	17000	0.5425	0.0756	0.006	0.3995	0.032	0.5903	
288	11000	0.6795	0.0575	0.0046	0.3944	0.0316	0.6055	
278	7000	0.6053	0.0243	0.0019	0.39	0.0312	0.61	
288	9000	0.4687	0.0261	0.0021	0.3893	0.0312	0.6107	
298	20000	0.6608	0.1298	0.0104	0.3698	0.0296	0.6178	
298	17000	0.6779	0.1102	0.0088	0.3624	0.029	0.6288	
298	20000	0.7037	0.1568	0.0125	0.3584	0.0287	0.6297	
298	15000	0.6269	0.0794	0.0064	0.3628	0.029	0.6305	
278	7000	0.8196	0.0367	0.0029	0.3665	0.0293	0.6335	
298	11000	0.441	0.0307	0.0025	0.346	0.0277	0.6355	
288	9000	0.599	0.034	0.0027	0.3488	0.0279	0.6512	
278	3950	0.2697	0.0052	0.0004	0.346	0.0277	0.6537	
298	2000	0.1109	0.0007	0.0001	0.2373	0.019	0.6566	
298	13000	0.6389	0.065	0.0052	0.3295	0.0264	0.6613	
288	7000	0.4076	0.0149	0.0012	0.3373	0.027	0.6627	
288	9000	0.7419	0.0462	0.0037	0.3334	0.0267	0.6666	
288	5000	0.2684	0.0069	0.0006	0.3293	0.0263	0.6694	
298	17000	0.7465	0.1428	0.0114	0.282	0.0226	0.6806	
288	7000	0.4423	0.0153	0.0012	0.3121	0.025	0.6879	
298	4000	0.2019	0.0038	0.0003	0.2486	0.0199	0.6954	
278	3000	0.1134	0.0015	0.0001	0.297	0.0238	0.703	
298	11000	0.6647	0.0509	0.0041	0.2748	0.022	0.709	
298	9000	0.4847	0.0215	0.0017	0.2611	0.0209	0.7306	
288	4000	0.2618	0.0041	0.0003	0.2543	0.0203	0.7457	
298	6000	0.3267	0.0077	0.0006	0.2389	0.0191	0.7474	
278	5000	0.5828	0.0101	0.0008	0.2454	0.0196	0.7546	
298	11000	0.805	0.0743	0.0059	0.2367	0.0189	0.7553	
288	7000	0.6922	0.0226	0.0018	0.239	0.0191	0.761	
298	7000	0.4131	0.0116	0.0009	0.2162	0.0173	0.7616	
288	7000	0.7214	0.0237	0.0019	0.2376	0.019	0.7624	
298	15000	0.7613	0.1198	0.0096	0.2102	0.0168	0.7641	
278	5000	0.7272	0.0134	0.0011	0.2318	0.0185	0.7682	
298	9000	0.6549	0.0298	0.0024	0.2115	0.0169	0.7815	
278	2000	0.1701	0.0012	0.0001	0.207	0.0166	0.793	
298	9000	0.8042	0.0437	0.0035	0.1763	0.0141	0.8177	
278	3000	0.2779	0.0022	0.0002	0.1757	0.0141	0.8243	
298	13000	0.7987	0.1	0.008	0.1414	0.0113	0.8408	
298	7000	0.4974	0.0101	0.0008	0.1396	0.0112	0.8465	
278	3950	0.4478	0.0031	0.0003	0.1452	0.0116	0.8548	
298	7000	0.6881	0.0126	0.001	0.0996	0.008	0.8918	
298	7000	0.8254	0.0165	0.0013	0.0871	0.007	0.9006	
278	3950	0.471	0.002	0.0002	0.0813	0.0065	0.9187	
298	6000	0.5199	0.0044	0.0004	0.0688	0.0055	0.9332	
