Measured thermophysical data. Thermodynamics of Mixtures Involving Some Linear or Cyclic Ketones and Cyclic Ethers. 3. Systems Containing 1,4-Dioxane
Source: J. Chem. Eng. Data, 2003, 10.1021/je034037l
Compound 1: 1,4-dioxane, C4H8O2, InChI=1S/C4H8O2/c1-2-6-4-3-5-1/h1-4H2, purity 99%
Compound 2: cyclopentanone, C5H8O, InChI=1S/C5H8O/c6-5-3-1-2-4-5/h1-4H2, purity 99%
Compound 3: cyclohexanone, C6H10O, InChI=1S/C6H10O/c7-6-4-2-1-3-5-6/h1-5H2, purity 99.8%
Compound 4: pentan-2-one, C5H10O, InChI=1S/C5H10O/c1-3-4-5(2)6/h3-4H2,1-2H3, purity 99%
Compound 5: 2-heptanone, C7H14O, InChI=1S/C7H14O/c1-3-4-5-6-7(2)8/h3-6H2,1-2H3, purity 98%

System: cyclopentanone + 1,4-dioxane; phases: Liquid
Fixed: Temperature, K = 298.15
Fixed: Pressure, kPa = 101.3
Property: Heat capacity at constant pressure per volume, J/K/m3 (Liquid); method: Flow calorimetry
Mole fraction of 1,4-dioxane	Heat capacity at constant pressure per volume, J/K/m3	uncertainty
0.0645	1713100	2700
0.1362	1714600	2700
0.2233	1716800	2700
0.3019	1719300	2700
0.3791	1722000	2700
0.4577	1725000	2700
0.5366	1728400	2700
0.6146	1732200	2700
0.6963	1736800	2700
0.7708	1741600	2700
0.8495	1747000	2700
0.9261	1752300	2700

System: cyclopentanone + 1,4-dioxane; phases: Liquid
Fixed: Temperature, K = 298.15
Fixed: Pressure, kPa = 101.3
Property: Excess molar enthalpy (molar enthalpy of mixing), kJ/mol (Liquid); method: Flow calorimetry
Mole fraction of 1,4-dioxane	Excess molar enthalpy (molar enthalpy of mixing), kJ/mol	uncertainty
0.1	0.0199	0.00095
0.15	0.02917	0.00102
0.2	0.03776	0.00108
0.25	0.04589	0.00114
0.3	0.05323	0.0012
0.35	0.06	0.00125
0.4	0.06608	0.00129
0.45	0.07073	0.00133
0.5	0.07457	0.00136
0.55	0.07692	0.00137
0.6	0.07813	0.00138
0.65	0.07769	0.00138
0.7	0.07539	0.00136
0.75	0.07097	0.00133
0.8	0.06469	0.00129
0.85	0.05542	0.00123
0.9	0.04225	0.00114

System: cyclopentanone + 1,4-dioxane; phases: Liquid
Fixed: Temperature, K = 298.15
Fixed: Pressure, kPa = 101.3
Property: Refractive index (Na D-line) (Liquid); method: ABBE:monoch
Mole fraction of 1,4-dioxane	Refractive index (Na D-line)	uncertainty
0.0821	1.43365	0.00031
0.1491	1.43258	0.00031
0.2308	1.43129	0.00031
0.3091	1.43007	0.00031
0.3454	1.4295	0.00031
0.3876	1.42885	0.00031
0.4271	1.42824	0.00031
0.4694	1.42759	0.00031
0.5083	1.427	0.00031
0.5467	1.42642	0.00031
0.5861	1.42583	0.00031
0.6281	1.42521	0.00031
0.6666	1.42464	0.00031
0.7037	1.4241	0.00031
0.7822	1.42297	0.00031
0.8699	1.42174	0.00031
0.944	1.42073	0.00031

System: cyclopentanone + 1,4-dioxane; phases: Liquid
Fixed: Temperature, K = 298.15
Fixed: Pressure, kPa = 101.3
Property: Mass density, kg/m3 (Liquid); method: Vibrating tube method
Mole fraction of 1,4-dioxane	Mass density, kg/m3	uncertainty
0.0751	949.93	0.48
0.1537	956.16	0.49
0.2436	963.35	0.49
0.3199	969.53	0.49
0.3527	972.22	0.49
0.3834	974.73	0.49
0.434	978.9	0.5
0.4613	981.17	0.5
0.5063	984.92	0.5
0.5751	990.7	0.5
0.6381	996.05	0.5
0.6608	997.99	0.51
0.722	1003.25	0.51
0.7778	1008.1	0.51
0.936	1022.08	0.52

System: cyclohexanone + 1,4-dioxane; phases: Liquid
Fixed: Temperature, K = 298.15
Fixed: Pressure, kPa = 101.3
Property: Excess molar enthalpy (molar enthalpy of mixing), kJ/mol (Liquid); method: Flow calorimetry
Mole fraction of 1,4-dioxane	Excess molar enthalpy (molar enthalpy of mixing), kJ/mol	uncertainty
0.1	0.09378	0.0017
0.15	0.13402	0.00197
0.2	0.17035	0.0022
0.25	0.20076	0.00242
0.3	0.22563	0.00261
0.35	0.2479	0.00279
0.4	0.26636	0.00293
0.45	0.27783	0.00302
0.5	0.28584	0.00308
0.55	0.28752	0.0031
0.6	0.28371	0.00307
0.65	0.27332	0.00298
0.7	0.25791	0.00287
0.75	0.23662	0.00271
0.8	0.20736	0.0025
0.85	0.1704	0.00225
0.9	0.12466	0.00197

System: pentan-2-one + 1,4-dioxane; phases: Liquid
Fixed: Temperature, K = 298.15
Fixed: Pressure, kPa = 101.3
Property: Heat capacity at constant pressure per volume, J/K/m3 (Liquid); method: Flow calorimetry
Mole fraction of 1,4-dioxane	Heat capacity at constant pressure per volume, J/K/m3	uncertainty
0.0636	1710000	2600
0.1415	1712200	2700
0.2227	1714400	2700
0.3002	1716900	2700
0.3823	1719800	2700
0.4598	1722800	2700
0.5398	1726900	2700
0.619	1731000	2700
0.6995	1735600	2700
0.7756	1741400	2700
0.8544	1748000	2700
0.9334	1755800	2700

System: pentan-2-one + 1,4-dioxane; phases: Liquid
Fixed: Temperature, K = 298.15
Fixed: Pressure, kPa = 101.3
Property: Excess molar enthalpy (molar enthalpy of mixing), kJ/mol (Liquid); method: Flow calorimetry
Mole fraction of 1,4-dioxane	Excess molar enthalpy (molar enthalpy of mixing), kJ/mol	uncertainty
0.1	0.0735	0.0015
0.15	0.10804	0.00175
0.2	0.14075	0.00197
0.25	0.1704	0.00217
0.3	0.19689	0.00237
0.35	0.22021	0.00256
0.4	0.23922	0.0027
0.45	0.25459	0.00283
0.5	0.26523	0.00291
0.55	0.27156	0.00296
0.6	0.27198	0.00296
0.65	0.2671	0.00293
0.7	0.2558	0.00284
0.75	0.23761	0.0027
0.8	0.21148	0.00252
0.85	0.17592	0.00229
0.9	0.1298	0.00201

System: pentan-2-one + 1,4-dioxane; phases: Liquid
Fixed: Temperature, K = 298.15
Fixed: Pressure, kPa = 101.3
Property: Refractive index (Na D-line) (Liquid); method: ABBE:monoch
Mole fraction of 1,4-dioxane	Refractive index (Na D-line)	uncertainty
0.073	1.38985	0.00031
0.1639	1.39232	0.00031
0.2209	1.39391	0.00031
0.3131	1.39654	0.00031
0.3536	1.39772	0.00031
0.3902	1.3988	0.00031
0.3939	1.39891	0.00031
0.4325	1.40007	0.00031
0.4776	1.40145	0.00031
0.5191	1.40275	0.00031
0.5511	1.40376	0.00031
0.5889	1.40498	0.00031
0.6276	1.40625	0.00031
0.6739	1.40781	0.00031
0.7085	1.40899	0.00031
0.7821	1.41159	0.00031
0.8599	1.41445	0.00031
0.9315	1.41721	0.00031

System: pentan-2-one + 1,4-dioxane; phases: Liquid
Fixed: Temperature, K = 298.15
Fixed: Pressure, kPa = 101.3
Property: Mass density, kg/m3 (Liquid); method: Vibrating tube method
Mole fraction of 1,4-dioxane	Mass density, kg/m3	uncertainty
0.0791	816.01	0.43
0.1602	831.49	0.43
0.2254	844.28	0.44
0.3061	860.59	0.44
0.3462	868.89	0.45
0.4012	880.5	0.45
0.4202	884.59	0.45
0.4796	897.53	0.46
0.5122	904.78	0.46
0.5411	911.3	0.47
0.5964	924.01	0.47
0.6188	929.26	0.47
0.6786	943.5	0.48
0.7013	949.01	0.48
0.7823	969.2	0.49
0.864	990.42	0.5
0.9465	1012.78	0.51

System: 2-heptanone + 1,4-dioxane; phases: Liquid
Fixed: Temperature, K = 298.15
Fixed: Pressure, kPa = 101.3
Property: Heat capacity at constant pressure per volume, J/K/m3 (Liquid); method: Flow calorimetry
Mole fraction of 1,4-dioxane	Heat capacity at constant pressure per volume, J/K/m3	uncertainty
0.0664	1721700	2700
0.1439	1721400	2700
0.2233	1720700	2700
0.2992	1720400	2700
0.3801	1720500	2700
0.4599	1721200	2700
0.5405	1722400	2700
0.6164	1724300	2700
0.6977	1727500	2700
0.7795	1732400	2700
0.858	1739000	2700
0.9338	1747900	2700

System: 2-heptanone + 1,4-dioxane; phases: Liquid
Fixed: Temperature, K = 298.15
Fixed: Pressure, kPa = 101.3
Property: Excess molar enthalpy (molar enthalpy of mixing), kJ/mol (Liquid); method: Flow calorimetry
Mole fraction of 1,4-dioxane	Excess molar enthalpy (molar enthalpy of mixing), kJ/mol	uncertainty
0.1	0.1253	0.00213
0.15	0.1856	0.00251
0.2	0.2398	0.00289
0.25	0.2911	0.00328
0.3	0.3364	0.00362
0.35	0.37478	0.00391
0.4	0.4077	0.00417
0.45	0.4332	0.00437
0.5	0.4509	0.00451
0.55	0.46117	0.00459
0.6	0.46217	0.0046
0.65	0.45443	0.00454
0.7	0.43595	0.0044
0.75	0.4064	0.00418
0.8	0.36333	0.00388
0.85	0.30435	0.00352
0.9	0.22704	0.00301

System: 2-heptanone + 1,4-dioxane; phases: Liquid
Fixed: Temperature, K = 298.15
Fixed: Pressure, kPa = 101.3
Property: Refractive index (Na D-line) (Liquid); method: Standard Abbe refractometry
Mole fraction of 1,4-dioxane	Refractive index (Na D-line)	uncertainty
0.0812	1.4074	0.00049
0.1552	1.40794	0.00048
0.2399	1.40861	0.00047
0.3116	1.40923	0.00046
0.3137	1.40926	0.00046
0.353	1.40963	0.00045
0.3902	1.40999	0.00045
0.4316	1.41041	0.00044
0.4719	1.41085	0.00044
0.5155	1.41135	0.00043
0.5529	1.4118	0.00042
0.5935	1.41232	0.00042
0.6355	1.41289	0.00041
0.6738	1.41344	0.00041
0.7101	1.41399	0.0004
0.7881	1.41531	0.00039
0.871	1.41691	0.00038
0.9463	1.41861	0.00037

System: 2-heptanone + 1,4-dioxane; phases: Liquid
Fixed: Temperature, K = 298.15
Fixed: Pressure, kPa = 101.3
Property: Mass density, kg/m3 (Liquid); method: Vibrating tube method
Mole fraction of 1,4-dioxane	Mass density, kg/m3	uncertainty
0.0937	823.49	0.81
0.1378	829.74	0.8
0.2203	842.08	0.77
0.315	857.4	0.74
0.3534	864.01	0.73
0.3795	868.62	0.72
0.4369	879.21	0.71
0.4702	885.63	0.7
0.5006	891.67	0.69
0.5469	901.26	0.67
0.5866	909.84	0.66
0.6297	919.59	0.64
0.6701	929.17	0.63
0.714	940.07	0.62
0.7803	957.65	0.6
0.8752	985.46	0.56
0.9537	1011.24	0.54
