Measured thermophysical data. Determination and Study on the Solubility of Methane in Heptane + Cyclohexane and Heptane + Ethanol at High Pressures
Source: J. Chem. Eng. Data, 2004, 10.1021/je034138j
Compound 1: methane, CH4, InChI=1S/CH4/h1H4, purity 99.9%
Compound 2: methanol, CH4O, InChI=1S/CH4O/c1-2/h2H,1H3, purity 99.5%
Compound 3: hexane, C6H14, InChI=1S/C6H14/c1-3-5-6-4-2/h3-6H2,1-2H3, purity 99.5%
Compound 4: heptane, C7H16, InChI=1S/C7H16/c1-3-5-7-6-4-2/h3-7H2,1-2H3, purity 99.5%
Compound 5: cyclohexane, C6H12, InChI=1S/C6H12/c1-2-4-6-5-3-1/h1-6H2, purity 99.5%
Compound 6: ethanol, C2H6O, InChI=1S/C2H6O/c1-2-3/h3H,2H2,1H3, purity 99.5%

System: methanol + methane; phases: Liquid, Gas
Fixed: Temperature, K = 298.15
Property: Mole fraction of methane (Liquid); method: OTHER
Pressure, kPa	Mole fraction of methane	uncertainty
5450	0.04418	0.004
12000	0.09121	0.004

System: methane + hexane; phases: Liquid, Gas
Fixed: Temperature, K = 310.9
Property: Mole fraction of methane (Liquid); method: OTHER
Pressure, kPa	Mole fraction of methane	uncertainty
2150	0.0985	0.004
4500	0.1921	0.004
6000	0.254	0.004

System: methane + cyclohexane + heptane; phases: Liquid, Gas
Fixed: Temperature, K = 310.9
Property: Mole fraction of methane (Liquid); method: OTHER
Pressure, kPa	Mole fraction of heptane	Mole fraction of methane	uncertainty
2640	0.158	0.091	0.004
2640	0.409	0.102	0.004
2640	0.683	0.112	0.004
5120	0.143	0.173	0.004
5120	0.368	0.193	0.004
5120	0.604	0.216	0.004
8060	0.127	0.268	0.004
8060	0.32	0.298	0.004
8060	0.521	0.323	0.004
12000	0.108	0.374	0.004
12000	0.266	0.415	0.004
12000	0.421	0.453	0.004

System: ethanol + methane + heptane; phases: Liquid, Gas
Property: Mole fraction of methane (Liquid); method: OTHER
Temperature, K	Pressure, kPa	Mole fraction of heptane	Mole fraction of methane	uncertainty
291.15	2650	0.594	0.095	0.004
291.15	2670	0.718	0.099	0.004
291.15	5110	0.533	0.188	0.004
291.15	5110	0.638	0.196	0.004
291.15	8060	0.471	0.283	0.004
291.15	8060	0.553	0.305	0.004
291.15	11980	0.381	0.42	0.004
291.15	12000	0.445	0.441	0.004
303.15	2640	0.099	0.039	0.004
303.15	2640	0.601	0.085	0.004
303.15	2650	0.722	0.094	0.004
303.15	5090	0.646	0.19	0.004
303.15	5100	0.54	0.18	0.004
303.15	5120	0.095	0.082	0.004
303.15	8060	0.09	0.126	0.005
303.15	8070	0.478	0.273	0.004
303.15	8070	0.56	0.297	0.004
303.15	12000	0.084	0.19	0.005
303.15	12000	0.387	0.41	0.004
303.15	12000	0.453	0.431	0.004
318.15	2650	0.73	0.084	0.004
318.15	2660	0.606	0.077	0.004
318.15	5110	0.549	0.165	0.004
318.15	5120	0.654	0.18	0.004
318.15	8040	0.485	0.262	0.004
318.15	8060	0.565	0.29	0.004
318.15	12000	0.394	0.4	0.004
318.15	12010	0.469	0.412	0.004
