Measured thermophysical data. Experimental P-T- and Enthalpy-Increment Measurements of an Equimolar Mixture of Trichlorofluoromethane (R-11) + Dichlorodifluoromethane (R-12)
Source: J. Chem. Eng. Data, 2003, 10.1021/je0301038
Compound 1: trichlorofluoromethane, CCl3F, InChI=1S/CCl3F/c2-1(3,4)5, purity 99.9%
Compound 2: dichlorodifluoromethane, CCl2F2, InChI=1S/CCl2F2/c2-1(3,4)5, purity 99%

System: trichlorofluoromethane + dichlorodifluoromethane; phases: Liquid
Property: Molar enthalpy, kJ/mol (Liquid); method: Flow calorimetry
Temperature, K	Pressure, kPa	Mole fraction of trichlorofluoromethane	Molar enthalpy, kJ/mol	uncertainty
455.881	6621	0.4946	25.43083	0.4543

System: trichlorofluoromethane + dichlorodifluoromethane; phases: Liquid
Property: Molar enthalpy, kJ/mol (Liquid); method: Flow calorimetry
Temperature, K	Pressure, kPa	Mole fraction of trichlorofluoromethane	Molar enthalpy, kJ/mol	uncertainty
460.769	6612	0.4946	26.27612	0.4801

System: trichlorofluoromethane + dichlorodifluoromethane; phases: Liquid
Property: Molar enthalpy, kJ/mol (Liquid); method: Flow calorimetry
Temperature, K	Pressure, kPa	Mole fraction of trichlorofluoromethane	Molar enthalpy, kJ/mol	uncertainty
265.461	4594	0.4946	-3.80056	0.083

System: trichlorofluoromethane + dichlorodifluoromethane; phases: Liquid
Property: Molar enthalpy, kJ/mol (Liquid); method: Flow calorimetry
Temperature, K	Pressure, kPa	Mole fraction of trichlorofluoromethane	Molar enthalpy, kJ/mol	uncertainty
357.608	4414	0.4946	8.00892	0.112

System: trichlorofluoromethane + dichlorodifluoromethane; phases: Liquid
Property: Molar enthalpy, kJ/mol (Liquid); method: Flow calorimetry
Temperature, K	Pressure, kPa	Mole fraction of trichlorofluoromethane	Molar enthalpy, kJ/mol	uncertainty
231.991	6628	0.4946	-7.73146	0.094

System: trichlorofluoromethane + dichlorodifluoromethane; phases: Liquid
Property: Molar enthalpy, kJ/mol (Liquid); method: Flow calorimetry
Temperature, K	Pressure, kPa	Mole fraction of trichlorofluoromethane	Molar enthalpy, kJ/mol	uncertainty
265.032	6693	0.4946	-3.77475	0.081

System: trichlorofluoromethane + dichlorodifluoromethane; phases: Liquid
Property: Molar enthalpy, kJ/mol (Liquid); method: Flow calorimetry
Temperature, K	Pressure, kPa	Mole fraction of trichlorofluoromethane	Molar enthalpy, kJ/mol	uncertainty
351.336	6571	0.4946	6.77003	0.102

System: trichlorofluoromethane + dichlorodifluoromethane; phases: Liquid
Property: Molar enthalpy, kJ/mol (Liquid); method: Flow calorimetry
Temperature, K	Pressure, kPa	Mole fraction of trichlorofluoromethane	Molar enthalpy, kJ/mol	uncertainty
372.504	6613	0.4946	9.82467	0.1316

System: trichlorofluoromethane + dichlorodifluoromethane; phases: Liquid
Property: Molar enthalpy, kJ/mol (Liquid); method: Flow calorimetry
Temperature, K	Pressure, kPa	Mole fraction of trichlorofluoromethane	Molar enthalpy, kJ/mol	uncertainty
407.245	6621	0.4946	16.08107	0.2297

System: trichlorofluoromethane + dichlorodifluoromethane; phases: Liquid
Property: Molar enthalpy, kJ/mol (Liquid); method: Flow calorimetry
Temperature, K	Pressure, kPa	Mole fraction of trichlorofluoromethane	Molar enthalpy, kJ/mol	uncertainty
417.712	6652	0.4946	18.41303	0.2762

System: trichlorofluoromethane + dichlorodifluoromethane; phases: Liquid
Property: Molar enthalpy, kJ/mol (Liquid); method: Flow calorimetry
Temperature, K	Pressure, kPa	Mole fraction of trichlorofluoromethane	Molar enthalpy, kJ/mol	uncertainty
448.729	6641	0.4946	23.91061	0.4143

System: trichlorofluoromethane + dichlorodifluoromethane; phases: Liquid
Fixed: Mole fraction of trichlorofluoromethane = 0.4998
Property: Mass density, kg/m3 (Liquid); method: Pycnometric method
Temperature, K	Pressure, kPa	Mass density, kg/m3	uncertainty
229.988	36407	1642.58	1.72
229.997	2061	1587.07	2.02
230.003	3560	1589.87	1.99
230.004	1073	1584.87	2.02
230.006	2764	1588.35	2.01
230.006	22197	1621.64	1.78
230.007	63788	1677.26	1.64
230.008	3080	1589	2
230.011	1769	1586.39	2.02
230.012	10736	1602.83	1.93
230.013	1362	1585.49	2.02
230.013	50366	1660.98	1.69
230.015	2415	1587.69	2.01
269.996	2040	1483.59	2
269.997	15483	1517.06	1.84
269.998	45944	1574.79	1.63
269.999	755	1479.99	2.01
270.003	25381	1538	1.7
270.003	35970	1557.73	1.68
270.003	56182	1590.7	1.58
270.004	2400	1484.58	2
270.004	2768	1485.54	1.99
270.004	63322	1601.09	1.6
270.005	1039	1480.78	2.02
270.005	1716	1482.68	2.01
270.005	3627	1487.88	1.98
270.006	3077	1486.41	1.99
270.007	8526	1500.56	1.91
270.008	1412	1481.79	2.01
298.139	63755	1550.31	1.55
298.139	69807	1559.74	1.52
298.14	20993	1465.01	1.77
298.14	57226	1539.49	1.56
298.141	6905	1424.28	1.96
298.142	1019	1403.48	2.12
298.142	2749	1409.89	2.08
298.142	42543	1512.9	1.58
298.143	50266	1527.35	1.55
298.144	686	1402.27	2.11
298.144	2429	1408.71	2.09
298.145	2067	1407.39	2.1
298.145	14368	1447.12	1.85
298.147	1714	1406.06	2.11
298.147	3086	1411.1	2.07
298.149	36116	1499.98	1.64
298.15	1398	1404.87	2.11
298.151	3454	1412.44	2.08
298.151	28151	1482.31	1.69
319.987	62748	1510.07	1.48
319.988	69080	1521.1	1.51
319.989	36829	1456.94	1.6
319.99	1422	1340.05	2.36
319.99	2102	1343.35	2.32
319.99	2807	1346.81	2.28
319.99	3154	1348.46	2.27
319.99	3382	1349.54	2.22
319.99	43292	1471.79	1.55
319.991	1077	1338.31	2.38
319.991	2468	1345.14	2.3
319.991	7540	1367.61	2.1
319.991	49802	1485.45	1.51
319.991	56704	1498.94	1.49
319.992	1769	1341.72	2.34
319.992	14192	1392.66	1.89
319.992	27780	1434.19	1.67
319.994	20555	1413.23	1.77
349.975	1415	1240.4	2.47
349.978	7128	1280.11	2.26
349.979	2137	1246.23	2.66
349.979	2476	1248.87	2.62
349.979	2793	1251.27	2.58
349.979	21180	1347.2	1.83
349.979	35848	1396.4	1.63
349.979	49699	1433.1	1.56
349.98	14242	1317.8	2
349.98	27731	1370.9	1.73
349.98	42725	1415.5	1.59
349.98	67876	1472.9	1.47
349.981	3057	1253.22	2.55
349.983	3564	1256.93	2.51
349.983	63152	1463.4	1.54
349.985	1706	1242.74	2.64
349.988	56839	1449.7	1.54
374.97	21029	1284.3	1.92
374.971	3513	1160.16	3.27
374.971	13814	1245.37	2.14
374.972	2088	1141.8	3.06
374.972	2486	1147.25	3.27
374.972	7191	1197.39	2.63
374.973	3125	1156.09	3.4
374.974	35276	1341.17	1.69
374.975	2825	1151.69	3.33
374.975	42480	1364.11	1.63
374.975	61365	1413.75	1.51
374.976	27477	1312.44	1.79
374.976	69602	1432.06	1.55
374.977	49122	1383.05	1.6
374.98	55869	1400.52	1.58
399.963	21341	1223.13	1.96
399.964	4220	1047.59	4.57
399.965	3164	1019.46	3.95
399.967	3545	1030.57	4.2
399.967	42176	1315.43	1.6
399.967	49196	1338.37	1.57
399.968	6171	1085.57	3.51
399.968	14445	1176.05	2.31
399.969	4902	1062.22	4.83
399.97	56478	1359.31	1.55
399.971	5593	1075.12	4.56
399.973	7297	1101.78	3.24
399.974	27495	1255.89	1.79
399.975	35409	1290.45	1.67
399.975	62903	1376.29	1.52
399.975	68677	1390.42	1.58
424.958	6222	944.04	4.19
424.96	5555	914.74	4.65
424.96	13955	1091.53	2.84
424.961	4905	873.33	5.39
424.963	7091	972.83	3.52
424.963	27401	1198.64	1.89
424.966	21076	1156.9	2.13
424.966	41997	1268.18	1.64
424.966	68657	1352.82	1.59
424.967	56094	1317.32	1.58
424.967	62391	1335.91	1.57
424.969	35181	1238.98	1.73
424.969	49019	1294.18	1.6
