Measured thermophysical data. Volumetric Properties and Viscosities for Aqueous DIPA Solutions from 25 0C to 70 0C
Source: J. Chem. Eng. Data, 2003, 10.1021/je030132i
Compound 1: N-(2-hydroxypropyl)-2-hydroxy-1-propanamine, C6H15NO2, InChI=1S/C6H15NO2/c1-5(8)3-7-4-6(2)9/h5-9H,3-4H2,1-2H3, purity 98%
Compound 2: water, H2O, InChI=1S/H2O/h1H2

System: N-(2-hydroxypropyl)-2-hydroxy-1-propanamine; phases: Liquid
Fixed: Pressure, kPa = 101.3
Property: Viscosity, Pa*s (Liquid); method: Capillary tube (Ostwald; Ubbelohde) method
Temperature, K	Viscosity, Pa*s	uncertainty
318.65	0.1866	0.0046
323.15	0.1257	0.0023
333.15	0.05799	0.00062
343.15	0.02955	0.00033

System: N-(2-hydroxypropyl)-2-hydroxy-1-propanamine; phases: Liquid
Fixed: Pressure, kPa = 101.3
Property: Mass density, kg/m3 (Liquid); method: Vibrating tube method
Temperature, K	Mass density, kg/m3	uncertainty
318.65	988.22	1.01
323.15	984.9	1.01
333.15	977.3	1
343.15	969.58	0.99

System: water; phases: Liquid
Fixed: Pressure, kPa = 101.3
Property: Viscosity, Pa*s (Liquid); method: Capillary tube (Ostwald; Ubbelohde) method
Temperature, K	Viscosity, Pa*s	uncertainty
298.15	0.00089	6e-06
313.15	0.000653	4e-06
318.65	0.000595	4e-06
323.15	0.000547	4e-06
333.15	0.000466	3e-06
343.15	0.000405	3e-06

System: water; phases: Liquid
Fixed: Pressure, kPa = 101.3
Property: Mass density, kg/m3 (Liquid); method: Vibrating tube method
Temperature, K	Mass density, kg/m3	uncertainty
298.15	997.04	0.08
313.15	992.21	0.08
318.65	990.21	0.08
323.15	988.04	0.08
333.15	983.12	0.08
343.15	977.77	0.08

System: N-(2-hydroxypropyl)-2-hydroxy-1-propanamine + water; phases: Liquid
Fixed: Pressure, kPa = 101.3
Property: Viscosity, Pa*s (Liquid); method: Capillary tube (Ostwald; Ubbelohde) method
Temperature, K	Mole fraction of N-(2-hydroxypropyl)-2-hydroxy-1-propanamine	Viscosity, Pa*s	uncertainty
298.15	0	0.00089	6e-06
298.15	0.02	0.001645	1e-05
298.15	0.0498	0.003723	2.3e-05
298.15	0.0701	0.00606	4e-05
298.15	0.1001	0.01155	7e-05
298.15	0.1999	0.05569	0.00028
298.15	0.3006	0.1661	0.0035
298.15	0.3963	0.3387	0.0111
298.15	0.5012	0.613	0.026
298.15	0.5957	0.861	0.042
298.15	0.7034	1.142	0.061
298.15	0.8029	1.326	0.074
298.15	0.9016	1.478	0.085
313.15	0	0.000653	4e-06
313.15	0.02	0.001112	7e-06
313.15	0.0498	0.002218	1.4e-05
313.15	0.0701	0.003335	2.1e-05
313.15	0.1001	0.00556	4e-05
313.15	0.1999	0.02063	0.00012
313.15	0.3006	0.0469	0.0003
313.15	0.3963	0.0877	0.001
313.15	0.5012	0.1391	0.0026
313.15	0.5957	0.1846	0.0043
313.15	0.7034	0.2299	0.0062
313.15	0.8029	0.2646	0.0078
313.15	0.9016	0.2907	0.0091
318.65	0	0.000595	4e-06
318.65	0.02	0.000992	6e-06
318.65	0.0498	0.001914	1.2e-05
318.65	0.0701	0.002776	1.7e-05
318.65	0.1001	0.0046	3e-05
318.65	0.1999	0.01521	9e-05
318.65	0.3006	0.03242	0.0002
318.65	0.3963	0.0587	0.0004
318.65	0.5012	0.0881	0.001
318.65	0.5957	0.1145	0.0018
318.65	0.7034	0.14	0.0027
318.65	0.8029	0.1595	0.0034
318.65	0.9016	0.1742	0.004
318.65	1	0.1866	0.0046
323.15	0	0.000547	4e-06
323.15	0.02	0.000907	6e-06
323.15	0.0498	0.001684	1.1e-05
323.15	0.0701	0.002408	1.5e-05
323.15	0.1001	0.00378	2e-05
323.15	0.1999	0.01206	7e-05
323.15	0.3006	0.02456	0.00015
323.15	0.3963	0.0428	0.0003
323.15	0.5012	0.06337	0.00046
323.15	0.5957	0.07993	0.00082
323.15	0.7034	0.09622	0.00129
323.15	0.8029	0.1087	0.0017
323.15	0.9016	0.118	0.002
323.15	1	0.1257	0.0023
333.15	0	0.000466	3e-06
333.15	0.02	0.000733	5e-06
333.15	0.0498	0.001355	9e-06
333.15	0.0701	0.001816	1.1e-05
333.15	0.1001	0.002719	1.7e-05
333.15	0.1999	0.0075	5e-05
333.15	0.3006	0.01415	9e-05
333.15	0.3963	0.02289	0.00015
333.15	0.5012	0.03212	0.00023
333.15	0.5957	0.03931	0.00031
333.15	0.7034	0.04632	0.0004
333.15	0.8029	0.05138	0.00045
333.15	0.9016	0.05503	0.00053
333.15	1	0.05799	0.00062
343.15	0	0.000405	3e-06
343.15	0.02	0.000621	4e-06
343.15	0.0498	0.001061	7e-06
343.15	0.0701	0.001412	9e-06
343.15	0.1001	0.002042	1.3e-05
343.15	0.1999	0.00505	3e-05
343.15	0.3006	0.0087	6e-05
343.15	0.3963	0.01334	9e-05
343.15	0.5012	0.01788	0.00013
343.15	0.5957	0.02119	0.00017
343.15	0.7034	0.02442	0.00021
343.15	0.8029	0.02664	0.00025
343.15	0.9016	0.02829	0.00029
343.15	1	0.02955	0.00033

System: N-(2-hydroxypropyl)-2-hydroxy-1-propanamine + water; phases: Liquid
Fixed: Pressure, kPa = 101.3
Property: Mass density, kg/m3 (Liquid); method: Vibrating tube method
Temperature, K	Mole fraction of N-(2-hydroxypropyl)-2-hydroxy-1-propanamine	Mass density, kg/m3	uncertainty
298.15	0	997.04	0.08
298.15	0.02	1005.22	0.09
298.15	0.0498	1015.93	0.11
298.15	0.0701	1021.72	0.13
298.15	0.1001	1027.13	0.16
298.15	0.1999	1030.9	0.25
298.15	0.3006	1027.13	0.35
298.15	0.3963	1022.42	0.44
298.15	0.5012	1017.79	0.54
298.15	0.5957	1014.09	0.64
298.15	0.7034	1010.66	0.74
298.15	0.8029	1008.07	0.83
298.15	0.9016	1006.28	0.93
313.15	0	992.21	0.08
313.15	0.02	999.64	0.09
313.15	0.0498	1008.66	0.11
313.15	0.0701	1013.2	0.13
313.15	0.1001	1017.4	0.16
313.15	0.1999	1019.77	0.25
313.15	0.3006	1016.15	0.35
313.15	0.3963	1011.45	0.44
313.15	0.5012	1006.84	0.54
313.15	0.5957	1003.2	0.63
313.15	0.7034	999.62	0.73
313.15	0.8029	997.1	0.83
313.15	0.9016	995.03	0.92
318.65	0	990.21	0.08
318.65	0.02	997.52	0.09
318.65	0.0498	1006.43	0.11
318.65	0.0701	1010.34	0.13
318.65	0.1001	1014	0.16
318.65	0.1999	1015.54	0.25
318.65	0.3006	1011.9	0.35
318.65	0.3963	1007.24	0.44
318.65	0.5012	1002.82	0.54
318.65	0.5957	999.15	0.63
318.65	0.7034	995.55	0.73
318.65	0.8029	993.04	0.82
318.65	0.9016	990.99	0.92
318.65	1	988.22	1.01
323.15	0	988.04	0.08
323.15	0.02	995.02	0.09
323.15	0.0498	1003.09	0.11
323.15	0.0701	1006.95	0.13
323.15	0.1001	1010.46	0.16
323.15	0.1999	1012.04	0.25
323.15	0.3006	1008.24	0.35
323.15	0.3963	1003.75	0.44
323.15	0.5012	999.39	0.53
323.15	0.5957	995.71	0.62
323.15	0.7034	992.23	0.73
323.15	0.8029	989.58	0.82
323.15	0.9016	987.51	0.91
323.15	1	984.9	1.01
333.15	0	983.12	0.08
333.15	0.02	989.76	0.09
333.15	0.0498	996.93	0.11
333.15	0.0701	1000.34	0.13
333.15	0.1001	1003.16	0.16
333.15	0.1999	1004.03	0.25
333.15	0.3006	1000.17	0.34
333.15	0.3963	995.77	0.43
333.15	0.5012	991.52	0.53
333.15	0.5957	987.88	0.62
333.15	0.7034	984.45	0.72
333.15	0.8029	981.79	0.81
333.15	0.9016	979.72	0.91
333.15	1	977.3	1
343.15	0	977.77	0.08
343.15	0.02	983.93	0.09
343.15	0.0498	990.37	0.11
343.15	0.0701	993.22	0.13
343.15	0.1001	995.55	0.16
343.15	0.1999	995.78	0.25
343.15	0.3006	991.86	0.34
343.15	0.3963	987.44	0.43
343.15	0.5012	983.33	0.53
343.15	0.5957	979.75	0.61
343.15	0.7034	976.35	0.71
343.15	0.8029	973.95	0.81
343.15	0.9016	971.72	0.9
343.15	1	969.58	0.99
