Measured thermophysical data. Excess Molar Volumes and Viscosities of Binary Mixtures of Sulfolane with Benzene, Toluene, Ethylbenzene, p-Xylene, o-Xylene, and m-Xylene at 303.15 and 323.15 K and Atmospheric Pressure
Source: J. Chem. Eng. Data, 2004, 10.1021/je0341920
Compound 1: benzene, C6H6, InChI=1S/C6H6/c1-2-4-6-5-3-1/h1-6H
Compound 2: toluene, C7H8, InChI=1S/C7H8/c1-7-5-3-2-4-6-7/h2-6H,1H3
Compound 3: ethylbenzene, C8H10, InChI=1S/C8H10/c1-2-8-6-4-3-5-7-8/h3-7H,2H2,1H3
Compound 4: 1,4-dimethylbenzene, C8H10, InChI=1S/C8H10/c1-7-3-5-8(2)6-4-7/h3-6H,1-2H3
Compound 5: 1,2-dimethylbenzene, C8H10, InChI=1S/C8H10/c1-7-5-3-4-6-8(7)2/h3-6H,1-2H3
Compound 6: 1,3-dimethylbenzene, C8H10, InChI=1S/C8H10/c1-7-4-3-5-8(2)6-7/h3-6H,1-2H3
Compound 7: sulfolane, C4H8O2S, InChI=1S/C4H8O2S/c5-7(6)3-1-2-4-7/h1-4H2

System: benzene; phases: Liquid
Fixed: Pressure, kPa = 101.3
Property: Viscosity, Pa*s (Liquid); method: CAPTUB:UFactor:4
Temperature, K	Viscosity, Pa*s	uncertainty
298.15	0.0006038	1.62e-05
303.15	0.0005612	1.53e-05
323.15	0.0004362	1.26e-05

System: benzene; phases: Liquid
Fixed: Pressure, kPa = 101.3
Property: Mass density, kg/m3 (Liquid); method: VIBTUB:UFactor:2
Temperature, K	Mass density, kg/m3	uncertainty
298.15	873.57	0.27
303.15	868.21	0.27
323.15	846.65	0.28

System: toluene; phases: Liquid
Fixed: Pressure, kPa = 101.3
Property: Viscosity, Pa*s (Liquid); method: CAPTUB:UFactor:4
Temperature, K	Viscosity, Pa*s	uncertainty
298.15	0.000554	1.52e-05
303.15	0.0005251	1.46e-05
323.15	0.0004229	1.23e-05

System: toluene; phases: Liquid
Fixed: Pressure, kPa = 101.3
Property: Mass density, kg/m3 (Liquid); method: VIBTUB:UFactor:2
Temperature, K	Mass density, kg/m3	uncertainty
298.15	863.01	0.35
303.15	858.32	0.35
323.15	839.45	0.35

System: ethylbenzene; phases: Liquid
Fixed: Pressure, kPa = 101.3
Property: Viscosity, Pa*s (Liquid); method: CAPTUB:UFactor:8
Temperature, K	Viscosity, Pa*s	uncertainty
298.15	0.0006299	3.35e-05
303.15	0.0005981	3.21e-05
323.15	0.0004829	2.71e-05

System: ethylbenzene; phases: Liquid
Fixed: Pressure, kPa = 101.3
Property: Mass density, kg/m3 (Liquid); method: VIBTUB:UFactor:2
Temperature, K	Mass density, kg/m3	uncertainty
298.15	864.33	0.35
303.15	859.95	0.35
323.15	842.27	0.35

System: 1,4-dimethylbenzene; phases: Liquid
Fixed: Pressure, kPa = 101.3
Property: Viscosity, Pa*s (Liquid); method: CAPTUB:UFactor:4
Temperature, K	Viscosity, Pa*s	uncertainty
298.15	0.0006078	1.62e-05
303.15	0.0005715	1.55e-05
323.15	0.0004599	1.31e-05

System: 1,4-dimethylbenzene; phases: Liquid
Fixed: Pressure, kPa = 101.3
Property: Mass density, kg/m3 (Liquid); method: VIBTUB:UFactor:2
Temperature, K	Mass density, kg/m3	uncertainty
298.15	856.7	0.19
303.15	852.35	0.2
323.15	834.9	0.21

System: 1,2-dimethylbenzene; phases: Liquid
Fixed: Pressure, kPa = 101.3
Property: Viscosity, Pa*s (Liquid); method: CAPTUB:UFactor:8
Temperature, K	Viscosity, Pa*s	uncertainty
298.15	0.000744	3.84e-05
303.15	0.0007062	3.67e-05
323.15	0.0005554	3.02e-05

System: 1,2-dimethylbenzene; phases: Liquid
Fixed: Pressure, kPa = 101.3
Property: Mass density, kg/m3 (Liquid); method: VIBTUB:UFactor:2
Temperature, K	Mass density, kg/m3	uncertainty
298.15	874.87	0.24
303.15	870.66	0.24
323.15	853.79	0.25

System: 1,3-dimethylbenzene; phases: Liquid
Fixed: Pressure, kPa = 101.3
Property: Viscosity, Pa*s (Liquid); method: CAPTUB:UFactor:4
Temperature, K	Viscosity, Pa*s	uncertainty
298.15	0.0005892	1.6e-05
303.15	0.0005471	1.51e-05
323.15	0.0004428	1.28e-05

System: 1,3-dimethylbenzene; phases: Liquid
Fixed: Pressure, kPa = 101.3
Property: Mass density, kg/m3 (Liquid); method: VIBTUB:UFactor:2
Temperature, K	Mass density, kg/m3	uncertainty
298.15	859.8	0.39
303.15	855.51	0.39
323.15	838.25	0.39

System: sulfolane; phases: Liquid
Fixed: Pressure, kPa = 101.3
Property: Viscosity, Pa*s (Liquid); method: CAPTUB::UFactor:4
Temperature, K	Viscosity, Pa*s	uncertainty
303.15	0.0100742	0.0001937
323.15	0.0061936	0.0001307

System: sulfolane; phases: Liquid
Fixed: Pressure, kPa = 101.3
Property: Mass density, kg/m3 (Liquid); method: VIBTUB:UFactor:2
Temperature, K	Mass density, kg/m3	uncertainty
298.15	1265.4	0.69
303.15	1260.8	0.69
323.15	1243.36	0.68

System: benzene + sulfolane; phases: Liquid
Fixed: Pressure, kPa = 101.3
Property: Viscosity, Pa*s (Liquid); method: CAPTUB:UFactor:4
Temperature, K	Mole fraction of benzene	Viscosity, Pa*s	uncertainty
303.15	0	0.0100742	0.0001937
303.15	0.1417	0.0060747	0.0001283
303.15	0.2777	0.0040025	8.96e-05
303.15	0.3972	0.0028261	6.44e-05
303.15	0.5062	0.0020659	4.8e-05
303.15	0.6063	0.0015715	3.73e-05
303.15	0.6976	0.0011999	2.92e-05
303.15	0.7823	0.0009625	2.4e-05
303.15	0.8602	0.000786	2.02e-05
303.15	0.9327	0.000652	1.73e-05
303.15	1	0.0005612	1.53e-05
323.15	0	0.0061936	0.0001307
323.15	0.1417	0.0039276	8.83e-05
323.15	0.2777	0.0026755	6.13e-05
323.15	0.3972	0.0019499	4.56e-05
323.15	0.5062	0.0014685	3.51e-05
323.15	0.6063	0.0011367	2.79e-05
323.15	0.6976	0.0008791	2.23e-05
323.15	0.7823	0.000717	1.87e-05
323.15	0.8602	0.0005933	1.6e-05
323.15	0.9327	0.0005029	1.4e-05
323.15	1	0.0004362	1.26e-05

System: benzene + sulfolane; phases: Liquid
Fixed: Pressure, kPa = 101.3
Property: Mass density, kg/m3 (Liquid); method: VIBTUB:UFactor:2
Temperature, K	Mole fraction of benzene	Mass density, kg/m3	uncertainty
303.15	0	1260.8	0.69
303.15	0.1417	1211.21	0.61
303.15	0.2777	1164.97	0.54
303.15	0.3972	1120.9	0.48
303.15	0.5062	1079.14	0.43
303.15	0.6063	1039.2	0.38
303.15	0.6976	1001.76	0.34
303.15	0.7823	965.81	0.31
303.15	0.8602	931.48	0.3
303.15	0.9327	897.62	0.28
303.15	1	868.21	0.27
323.15	0	1243.36	0.68
323.15	0.1417	1193.23	0.6
323.15	0.2777	1146.6	0.53
323.15	0.3972	1102.13	0.47
323.15	0.5062	1059.91	0.42
323.15	0.6063	1019.54	0.37
323.15	0.6976	981.64	0.34
323.15	0.7823	945.38	0.31
323.15	0.8602	910.67	0.3
323.15	0.9327	876.47	0.29
323.15	1	846.65	0.28

System: toluene + sulfolane; phases: Liquid
Fixed: Pressure, kPa = 101.3
Property: Viscosity, Pa*s (Liquid); method: CAPTUB:UFactor:4
Temperature, K	Mole fraction of toluene	Viscosity, Pa*s	uncertainty
303.15	0	0.0100742	0.0001937
303.15	0.1267	0.0060515	0.0001281
303.15	0.2458	0.0039501	8.88e-05
303.15	0.3587	0.0027316	6.26e-05
303.15	0.4651	0.002029	4.74e-05
303.15	0.5662	0.0015569	3.71e-05
303.15	0.6617	0.0011728	2.88e-05
303.15	0.7527	0.0009289	2.34e-05
303.15	0.8392	0.0007548	1.96e-05
303.15	0.9206	0.0006265	1.68e-05
303.15	1	0.0005251	1.46e-05
323.15	0	0.0061936	0.0001307
323.15	0.1267	0.0039064	8.8e-05
323.15	0.2458	0.0026621	6.12e-05
323.15	0.3587	0.0019191	4.51e-05
323.15	0.4651	0.001458	3.5e-05
323.15	0.5662	0.0011506	2.83e-05
323.15	0.6617	0.0008828	2.24e-05
323.15	0.7527	0.0007151	1.88e-05
323.15	0.8392	0.0005893	1.6e-05
323.15	0.9206	0.0004967	1.4e-05
323.15	1	0.0004229	1.23e-05

System: toluene + sulfolane; phases: Liquid
Fixed: Pressure, kPa = 101.3
Property: Mass density, kg/m3 (Liquid); method: VIBTUB:UFactor:2
Temperature, K	Mole fraction of toluene	Mass density, kg/m3	uncertainty
303.15	0	1260.8	0.69
303.15	0.1267	1209.84	0.63
303.15	0.2458	1161.72	0.58
303.15	0.3587	1115.78	0.53
303.15	0.4651	1072.79	0.48
303.15	0.5662	1031.84	0.44
303.15	0.6617	994.05	0.41
303.15	0.7527	957.36	0.39
303.15	0.8392	922.76	0.37
303.15	0.9206	890.24	0.36
303.15	1	858.32	0.35
323.15	0	1243.36	0.68
323.15	0.1267	1191.98	0.62
323.15	0.2458	1143.65	0.56
323.15	0.3587	1097.6	0.51
323.15	0.4651	1054.45	0.47
323.15	0.5662	1013.37	0.43
323.15	0.6617	975.51	0.41
323.15	0.7527	938.7	0.39
323.15	0.8392	903.99	0.37
323.15	0.9206	871.46	0.36
323.15	1	839.45	0.35

System: ethylbenzene + sulfolane; phases: Liquid
Fixed: Pressure, kPa = 101.3
Property: Viscosity, Pa*s (Liquid); method: CAPTUB:UFactor:8
Temperature, K	Mole fraction of ethylbenzene	Viscosity, Pa*s	uncertainty
303.15	0	0.0100742	0.0003775
303.15	0.1118	0.0062242	0.0002566
303.15	0.2205	0.0041551	0.0001832
303.15	0.3267	0.0029424	0.0001324
303.15	0.4301	0.0021852	0.0001003
303.15	0.5309	0.0015364	7.25e-05
303.15	0.6293	0.0013237	6.34e-05
303.15	0.7254	0.0010567	5.19e-05
303.15	0.8194	0.0008613	4.35e-05
303.15	0.9106	0.0007155	3.72e-05
303.15	1	0.0005981	3.21e-05
323.15	0	0.0061936	0.0002558
323.15	0.1118	0.0040068	0.0001771
323.15	0.2205	0.0028007	0.0001264
323.15	0.3267	0.0020479	9.44e-05
323.15	0.4301	0.0015611	7.36e-05
323.15	0.5309	0.0011363	5.54e-05
323.15	0.6293	0.0009927	4.92e-05
323.15	0.7254	0.0008125	4.14e-05
323.15	0.8194	0.0006653	3.5e-05
323.15	0.9106	0.0005639	3.06e-05
323.15	1	0.0004829	2.71e-05

System: ethylbenzene + sulfolane; phases: Liquid
Fixed: Pressure, kPa = 101.3
Property: Mass density, kg/m3 (Liquid); method: VIBTUB:UFactor:2
Temperature, K	Mole fraction of ethylbenzene	Mass density, kg/m3	uncertainty
303.15	0	1260.8	0.69
303.15	0.1118	1209.27	0.63
303.15	0.2205	1160.4	0.58
303.15	0.3267	1114.66	0.53
303.15	0.4301	1071.65	0.49
303.15	0.5309	1031.19	0.45
303.15	0.6293	993.33	0.42
303.15	0.7254	957.17	0.39
303.15	0.8194	923.09	0.37
303.15	0.9106	890.45	0.36
303.15	1	859.95	0.35
323.15	0	1243.36	0.68
323.15	0.1118	1191.64	0.62
323.15	0.2205	1142.7	0.57
323.15	0.3267	1096.92	0.52
323.15	0.4301	1053.9	0.48
323.15	0.5309	1013.47	0.44
323.15	0.6293	975.58	0.41
323.15	0.7254	939.43	0.39
323.15	0.8194	905.36	0.37
323.15	0.9106	872.72	0.36
323.15	1	842.27	0.35

System: 1,4-dimethylbenzene + sulfolane; phases: Liquid
Fixed: Pressure, kPa = 101.3
Property: Viscosity, Pa*s (Liquid); method: CAPTUB:UFactor:4
Temperature, K	Mole fraction of 1,4-dimethylbenzene	Viscosity, Pa*s	uncertainty
303.15	0	0.0100742	0.0001937
303.15	0.1118	0.0061562	0.0001295
303.15	0.2206	0.0040927	9.14e-05
303.15	0.3266	0.0028874	6.56e-05
303.15	0.4301	0.0021432	4.95e-05
303.15	0.531	0.0016081	3.79e-05
303.15	0.6293	0.0012525	3.02e-05
303.15	0.7252	0.0009893	2.45e-05
303.15	0.8191	0.0008122	2.07e-05
303.15	0.9106	0.0006727	1.77e-05
303.15	1	0.0005715	1.55e-05
323.15	0	0.0061936	0.0001307
323.15	0.1118	0.003964	8.9e-05
323.15	0.2206	0.0027395	6.26e-05
323.15	0.3266	0.0020001	4.66e-05
323.15	0.4301	0.001526	3.63e-05
323.15	0.531	0.0011659	2.84e-05
323.15	0.6293	0.0009254	2.32e-05
323.15	0.7252	0.0007473	1.93e-05
323.15	0.8191	0.0006269	1.67e-05
323.15	0.9106	0.00053	1.46e-05
323.15	1	0.0004599	1.31e-05

System: 1,4-dimethylbenzene + sulfolane; phases: Liquid
Fixed: Pressure, kPa = 101.3
Property: Mass density, kg/m3 (Liquid); method: VIBTUB:UFactor:2
Temperature, K	Mole fraction of 1,4-dimethylbenzene	Mass density, kg/m3	uncertainty
303.15	0	1260.8	0.69
303.15	0.1118	1207.85	0.6
303.15	0.2206	1158.09	0.52
303.15	0.3266	1110.7	0.44
303.15	0.4301	1066.73	0.37
303.15	0.531	1025.22	0.31
303.15	0.6293	986.5	0.26
303.15	0.7252	950.04	0.23
303.15	0.8191	915.82	0.21
303.15	0.9106	883.35	0.2
303.15	1	852.35	0.2
323.15	0	1243.36	0.68
323.15	0.1118	1190.21	0.59
323.15	0.2206	1140.37	0.51
323.15	0.3266	1092.99	0.43
323.15	0.4301	1049.03	0.36
323.15	0.531	1007.58	0.3
323.15	0.6293	968.88	0.26
323.15	0.7252	932.4	0.23
323.15	0.8191	898.26	0.21
323.15	0.9106	865.85	0.21
323.15	1	834.9	0.21

System: 1,2-dimethylbenzene + sulfolane; phases: Liquid
Fixed: Pressure, kPa = 101.3
Property: Viscosity, Pa*s (Liquid); method: CAPTUB:UFactor:8
Temperature, K	Mole fraction of 1,2-dimethylbenzene	Viscosity, Pa*s	uncertainty
303.15	0	0.0100742	0.0003775
303.15	0.1118	0.0068903	0.0002773
303.15	0.2206	0.0048749	0.0002128
303.15	0.3267	0.0035819	0.000159
303.15	0.4301	0.0026915	0.0001216
303.15	0.5311	0.0020657	9.5e-05
303.15	0.6293	0.001618	7.59e-05
303.15	0.7254	0.0012434	5.99e-05
303.15	0.8191	0.0010398	5.11e-05
303.15	0.9105	0.0008453	4.27e-05
303.15	1	0.0007062	3.67e-05
323.15	0	0.0061936	0.0002558
323.15	0.1118	0.0043582	0.0001916
323.15	0.2206	0.003169	0.0001418
323.15	0.3267	0.0023966	0.0001092
323.15	0.4301	0.0018537	8.6e-05
323.15	0.5311	0.0014562	6.9e-05
323.15	0.6293	0.0011727	5.68e-05
323.15	0.7254	0.0009211	4.6e-05
323.15	0.8191	0.0008044	4.1e-05
323.15	0.9105	0.0006503	3.43e-05
323.15	1	0.0005554	3.02e-05

System: 1,2-dimethylbenzene + sulfolane; phases: Liquid
Fixed: Pressure, kPa = 101.3
Property: Mass density, kg/m3 (Liquid); method: VIBTUB:UFactor:2
Temperature, K	Mole fraction of 1,2-dimethylbenzene	Mass density, kg/m3	uncertainty
303.15	0	1260.8	0.69
303.15	0.1118	1210.86	0.62
303.15	0.2206	1163.38	0.55
303.15	0.3267	1118.72	0.48
303.15	0.4301	1076.59	0.42
303.15	0.5311	1037.09	0.37
303.15	0.6293	1000.09	0.32
303.15	0.7254	964.88	0.29
303.15	0.8191	931.97	0.27
303.15	0.9105	900.64	0.25
303.15	1	870.66	0.24
323.15	0	1243.36	0.68
323.15	0.1118	1193.29	0.6
323.15	0.2206	1145.77	0.53
323.15	0.3267	1101.18	0.47
323.15	0.4301	1059.09	0.41
323.15	0.5311	1019.64	0.36
323.15	0.6293	982.76	0.32
323.15	0.7254	947.64	0.29
323.15	0.8191	914.83	0.27
323.15	0.9105	883.61	0.26
323.15	1	853.79	0.25

System: 1,3-dimethylbenzene + sulfolane; phases: Liquid
Fixed: Pressure, kPa = 101.3
Property: Viscosity, Pa*s (Liquid); method: CAPTUB:UFactor:4
Temperature, K	Mole fraction of 1,3-dimethylbenzene	Viscosity, Pa*s	uncertainty
303.15	0	0.0100742	0.0001937
303.15	0.1117	0.0062312	0.0001311
303.15	0.2206	0.0042144	9.45e-05
303.15	0.3267	0.0029606	6.77e-05
303.15	0.4301	0.0021708	5.06e-05
303.15	0.531	0.0016499	3.92e-05
303.15	0.6294	0.0012753	3.11e-05
303.15	0.7254	0.0010073	2.52e-05
303.15	0.8191	0.0007887	2.04e-05
303.15	0.9106	0.0006551	1.75e-05
303.15	1	0.0005471	1.51e-05
323.15	0	0.0061936	0.0001307
323.15	0.1117	0.004014	9.03e-05
323.15	0.2206	0.0027981	6.42e-05
323.15	0.3267	0.0020418	4.78e-05
323.15	0.4301	0.0015431	3.7e-05
323.15	0.531	0.0012037	2.95e-05
323.15	0.6294	0.0009507	2.4e-05
323.15	0.7254	0.0007638	1.99e-05
323.15	0.8191	0.0006203	1.67e-05
323.15	0.9106	0.0005221	1.45e-05
323.15	1	0.0004428	1.28e-05

System: 1,3-dimethylbenzene + sulfolane; phases: Liquid
Fixed: Pressure, kPa = 101.3
Property: Mass density, kg/m3 (Liquid); method: VIBTUB:UFactor:2
Temperature, K	Mole fraction of 1,3-dimethylbenzene	Mass density, kg/m3	uncertainty
303.15	0	1260.8	0.69
303.15	0.1117	1207.79	0.64
303.15	0.2206	1158.39	0.59
303.15	0.3267	1111.81	0.55
303.15	0.4301	1068.11	0.51
303.15	0.531	1027.14	0.47
303.15	0.6294	988.81	0.45
303.15	0.7254	952.64	0.43
303.15	0.8191	918.49	0.41
303.15	0.9106	886.27	0.4
303.15	1	855.51	0.39
323.15	0	1243.36	0.68
323.15	0.1117	1190.18	0.63
323.15	0.2206	1140.73	0.58
323.15	0.3267	1094.18	0.54
323.15	0.4301	1050.48	0.5
323.15	0.531	1009.56	0.46
323.15	0.6294	971.29	0.44
323.15	0.7254	935.15	0.42
323.15	0.8191	901.08	0.41
323.15	0.9106	868.92	0.4
323.15	1	838.25	0.39
