Measured thermophysical data. Surface Thermodynamics of Aqueous Solutions of Morpholine and Methylmorpholine
Source: J. Chem. Eng. Data, 2004, 10.1021/je0340250
Compound 1: water, H2O, InChI=1S/H2O/h1H2, purity 99.99%
Compound 2: tetrahydro-1,4-oxazine, C4H9NO, InChI=1S/C4H9NO/c1-3-6-4-2-5-1/h5H,1-4H2, purity 99%
Compound 3: N-methylmorpholine, C5H11NO, InChI=1S/C5H11NO/c1-6-2-4-7-5-3-6/h2-5H2,1H3, purity 99%

System: tetrahydro-1,4-oxazine; phases: Liquid, Air at 1 atmosphere
Property: Surface tension liquid-gas, N/m (Liquid); method: OTHER
Temperature, K	Surface tension liquid-gas, N/m	uncertainty
298.15	0.03768	0.00091
308.15	0.03646	0.00088
318.15	0.03524	0.00085
328.15	0.03402	0.00083

System: N-methylmorpholine; phases: Liquid, Air at 1 atmosphere
Property: Surface tension liquid-gas, N/m (Liquid); method: OTHER
Temperature, K	Surface tension liquid-gas, N/m	uncertainty
298.15	0.02822	0.00069
308.15	0.0272	0.00067
318.15	0.02618	0.00064
328.15	0.02515	0.00062

System: tetrahydro-1,4-oxazine + water; phases: Liquid, Air at 1 atmosphere
Property: Surface tension liquid-gas, N/m (Liquid); method: OTHER
Mole fraction of tetrahydro-1,4-oxazine	Temperature, K	Surface tension liquid-gas, N/m	uncertainty
0	298.15	0.07201	0.00167
0	308.15	0.07041	0.00163
0	318.15	0.06879	0.00159
0	328.15	0.06717	0.00156
0.0125	298.15	0.06836	0.00158
0.0125	308.15	0.06665	0.00155
0.0125	318.15	0.06455	0.0015
0.0125	328.15	0.06268	0.00146
0.0155	298.15	0.06766	0.00157
0.0155	308.15	0.06585	0.00153
0.0155	318.15	0.06674	0.006
0.0155	328.15	0.0618	0.00145
0.0251	298.15	0.06541	0.00152
0.0251	308.15	0.06327	0.00147
0.0251	318.15	0.06114	0.00142
0.0251	328.15	0.059	0.00137
0.0496	298.15	0.06208	0.00144
0.0496	308.15	0.06005	0.0014
0.0496	318.15	0.05803	0.00135
0.0496	328.15	0.056	0.00131
0.06	298.15	0.06089	0.00142
0.06	308.15	0.05894	0.00137
0.06	318.15	0.05698	0.00133
0.06	328.15	0.05503	0.00128
0.0735	298.15	0.0596	0.00139
0.0735	308.15	0.05766	0.00134
0.0735	318.15	0.05572	0.0013
0.0735	328.15	0.05378	0.00126
0.0793	298.15	0.05943	0.00138
0.0793	308.15	0.05769	0.00134
0.0793	318.15	0.05563	0.0013
0.0793	328.15	0.05365	0.00126
0.0854	298.15	0.05894	0.00137
0.0854	308.15	0.05656	0.00132
0.0854	318.15	0.05418	0.00127
0.0854	328.15	0.0518	0.00121
0.0991	298.15	0.05771	0.00135
0.0991	308.15	0.05542	0.00129
0.0991	318.15	0.05312	0.00124
0.0991	328.15	0.05083	0.00119
0.2005	298.15	0.05123	0.0012
0.2005	308.15	0.04914	0.00115
0.2005	318.15	0.04705	0.00111
0.2005	328.15	0.04496	0.00106
0.2973	298.15	0.04724	0.00111
0.2973	308.15	0.04552	0.00107
0.2973	318.15	0.0438	0.00103
0.2973	328.15	0.04209	0.00099
0.3969	298.15	0.04464	0.00105
0.3969	308.15	0.0432	0.00102
0.3969	318.15	0.04175	0.00099
0.3969	328.15	0.04031	0.00095
0.4996	298.15	0.04306	0.00102
0.4996	308.15	0.0417	0.00099
0.4996	318.15	0.04033	0.00096
0.4996	328.15	0.03897	0.00093
0.5977	298.15	0.04155	0.00099
0.5977	308.15	0.04025	0.00096
0.5977	318.15	0.03896	0.00093
0.5977	328.15	0.03766	0.0009
0.7005	298.15	0.04033	0.00096
0.7005	308.15	0.03912	0.00093
0.7005	318.15	0.03791	0.00091
0.7005	328.15	0.0367	0.00088
0.8034	298.15	0.0393	0.00094
0.8034	308.15	0.0381	0.00091
0.8034	318.15	0.0369	0.00089
0.8034	328.15	0.03569	0.00086
0.9096	298.15	0.03838	0.00092
0.9096	308.15	0.03716	0.00089
0.9096	318.15	0.03595	0.00087
0.9096	328.15	0.03473	0.00084
1	298.15	0.03768	0.00091
1	308.15	0.03646	0.00088
1	318.15	0.03524	0.00085
1	328.15	0.03402	0.00083

System: N-methylmorpholine + water; phases: Liquid, Air at 1 atmosphere
Property: Surface tension liquid-gas, N/m (Liquid); method: OTHER
Mole fraction of N-methylmorpholine	Temperature, K	Surface tension liquid-gas, N/m	uncertainty
0	298.15	0.07201	0.00167
0	308.15	0.07041	0.00163
0	318.15	0.06879	0.00159
0	328.15	0.06717	0.00156
0.0082	298.15	0.06964	0.00161
0.0082	308.15	0.06764	0.00157
0.0082	318.15	0.06575	0.00153
0.0082	328.15	0.06398	0.00149
0.0256	298.15	0.05494	0.00131
0.0256	308.15	0.05318	0.00124
0.0256	318.15	0.05142	0.0012
0.0256	328.15	0.04966	0.00117
0.0481	298.15	0.05058	0.00118
0.0481	308.15	0.04864	0.00114
0.0481	318.15	0.0467	0.0011
0.0481	328.15	0.04476	0.00105
0.0539	298.15	0.04942	0.00116
0.0539	308.15	0.04771	0.00112
0.0539	318.15	0.046	0.00108
0.0539	328.15	0.0443	0.00104
0.0747	298.15	0.04686	0.0011
0.0747	308.15	0.04535	0.00106
0.0747	318.15	0.04383	0.00103
0.0747	328.15	0.04232	0.001
0.0992	298.15	0.04462	0.00105
0.0992	308.15	0.04324	0.00102
0.0992	318.15	0.04187	0.00099
0.0992	328.15	0.04049	0.00095
0.1962	298.15	0.03866	0.00092
0.1962	308.15	0.03736	0.00088
0.1962	318.15	0.03605	0.00085
0.1962	328.15	0.03475	0.00082
0.2972	298.15	0.0349	0.00083
0.2972	308.15	0.03366	0.0008
0.2972	318.15	0.03243	0.00077
0.2972	328.15	0.03119	0.00074
0.395	298.15	0.03272	0.00078
0.395	308.15	0.03154	0.00075
0.395	318.15	0.03035	0.00073
0.395	328.15	0.02916	0.0007
0.4993	298.15	0.03133	0.00075
0.4993	308.15	0.03017	0.00073
0.4993	318.15	0.02902	0.0007
0.4993	328.15	0.02786	0.00067
0.5952	298.15	0.03056	0.00074
0.5952	308.15	0.02947	0.00071
0.5952	318.15	0.02837	0.00069
0.5952	328.15	0.02728	0.00066
0.6979	298.15	0.02981	0.00072
0.6979	308.15	0.02873	0.0007
0.6979	318.15	0.02765	0.00067
0.6979	328.15	0.02657	0.00065
0.8028	298.15	0.02924	0.00071
0.8028	308.15	0.02814	0.00068
0.8028	318.15	0.02703	0.00066
0.8028	328.15	0.02593	0.00063
0.8925	298.15	0.02881	0.0007
0.8925	308.15	0.02769	0.00068
0.8925	318.15	0.02657	0.00065
0.8925	328.15	0.02545	0.00063
1	298.15	0.02822	0.00069
1	308.15	0.0272	0.00067
1	318.15	0.02618	0.00064
1	328.15	0.02515	0.00062
