Measured thermophysical data. Density, Viscosity, Refractive Index, and Speed of Sound in the Binary Mixtures of Tri-n-butylamine + Triethylamine, + Tetrahydrofuran, + Tetradecane, + Tetrachloroethylene, + Pyridine, or + Trichloroethylene at (298.15, 303.15, and 308.15) K
Source: J. Chem. Eng. Data, 2003, 10.1021/je030147g
Compound 1: tributylamine, C12H27N, InChI=1S/C12H27N/c1-4-7-10-13(11-8-5-2)12-9-6-3/h4-12H2,1-3H3, purity 99%
Compound 2: triethylamine, C6H15N, InChI=1S/C6H15N/c1-4-7(5-2)6-3/h4-6H2,1-3H3, purity 99.5%
Compound 3: tetrahydrofuran, C4H8O, InChI=1S/C4H8O/c1-2-4-5-3-1/h1-4H2, purity 99.7%
Compound 4: tetradecane, C14H30, InChI=1S/C14H30/c1-3-5-7-9-11-13-14-12-10-8-6-4-2/h3-14H2,1-2H3, purity 99%
Compound 5: tetrachloroethene, C2Cl4, InChI=1S/C2Cl4/c3-1(4)2(5)6, purity 99.9%
Compound 6: pyridine, C5H5N, InChI=1S/C5H5N/c1-2-4-6-5-3-1/h1-5H, purity 99.5%
Compound 7: trichloroethene, C2HCl3, InChI=1S/C2HCl3/c3-1-2(4)5/h1H, purity 99.5%

System: tributylamine; phases: Liquid
Fixed: Pressure, kPa = 101.325
Property: Refractive index (Na D-line) (Liquid); method: ABBE:UFactor:4
Temperature, K	Refractive index (Na D-line)	uncertainty
298.15	1.4276	0.0013
303.15	1.4255	0.0013
303.15	1.4254	0.0013
308.15	1.4228	0.0013

System: tributylamine; phases: Liquid
Fixed: Pressure, kPa = 101.325
Property: Viscosity, Pa*s (Liquid); method: CAPTUB:UFactor:4
Temperature, K	Viscosity, Pa*s	uncertainty
298.15	0.001239	3e-05
303.15	0.001123	2.8e-05
303.15	0.001124	2.8e-05
308.15	0.001028	2.6e-05
308.15	0.00102	2.6e-05
308.15	0.001103	0.000108

System: tributylamine; phases: Liquid
Property: Speed of sound, m/s (Liquid); method: LVPAI:UFactor:4
Temperature, K	Pressure, kPa	Speed of sound, m/s	uncertainty
298.15	101.325	1262	6

System: tributylamine; phases: Liquid
Fixed: Pressure, kPa = 101.325
Property: Mass density, kg/m3 (Liquid); method: PYCNOM:UFactor:4
Temperature, K	Mass density, kg/m3	uncertainty
298.15	773.9	0.8
298.15	773.3	0.8
303.15	769.2	0.8
308.15	765.7	0.9

System: triethylamine; phases: Liquid
Fixed: Pressure, kPa = 101.325
Property: Refractive index (Na D-line) (Liquid); method: ABBE::UFactor:4
Temperature, K	Refractive index (Na D-line)	uncertainty
298.15	1.3992	0.0012
303.15	1.3958	0.0012
308.15	1.3929	0.0012

System: triethylamine; phases: Liquid
Fixed: Pressure, kPa = 101.325
Property: Viscosity, Pa*s (Liquid); method: CAPTUB::UFactor:4
Temperature, K	Viscosity, Pa*s	uncertainty
298.15	0.000367	1.1e-05
303.15	0.000349	1.1e-05
308.15	0.000332	1e-05

System: triethylamine; phases: Liquid
Property: Speed of sound, m/s (Liquid); method: LVPAI::UFactor:4
Temperature, K	Pressure, kPa	Speed of sound, m/s	uncertainty
298.15	101.325	1123	5

System: triethylamine; phases: Liquid
Fixed: Pressure, kPa = 101.325
Property: Mass density, kg/m3 (Liquid); method: PYCNOM::UFactor:4
Temperature, K	Mass density, kg/m3	uncertainty
298.15	723.3	0.7
303.15	718.6	0.7
308.15	713.7	0.7

System: tetrahydrofuran; phases: Liquid
Fixed: Pressure, kPa = 101.325
Property: Refractive index (Na D-line) (Liquid); method: ABBE::UFactor:4
Temperature, K	Refractive index (Na D-line)	uncertainty
298.15	1.4049	0.0012
303.15	1.4026	0.0012
308.15	1.3998	0.0012

System: tetrahydrofuran; phases: Liquid
Fixed: Pressure, kPa = 101.325
Property: Viscosity, Pa*s (Liquid); method: CAPTUB::UFactor:4
Temperature, K	Viscosity, Pa*s	uncertainty
298.15	0.000485	1.4e-05
303.15	0.00046	1.3e-05
308.15	0.000439	1.3e-05

System: tetrahydrofuran; phases: Liquid
Property: Speed of sound, m/s (Liquid); method: LVPAI::UFactor:4
Temperature, K	Pressure, kPa	Speed of sound, m/s	uncertainty
298.15	101.325	1288	6

System: tetrahydrofuran; phases: Liquid
Fixed: Pressure, kPa = 101.325
Property: Mass density, kg/m3 (Liquid); method: PYCNOM::UFactor:4
Temperature, K	Mass density, kg/m3	uncertainty
298.15	882.9	0.8
303.15	877.5	0.9
308.15	871.2	0.9

System: tetradecane; phases: Liquid
Fixed: Pressure, kPa = 101.325
Property: Refractive index (Na D-line) (Liquid); method: ABBE::UFactor:2
Temperature, K	Refractive index (Na D-line)	uncertainty
298.15	1.4282	0.0007
303.15	1.426	0.0007
308.15	1.4236	0.0007

System: tetradecane; phases: Liquid
Fixed: Pressure, kPa = 101.325
Property: Viscosity, Pa*s (Liquid); method: CAPTUB::UFactor:16
Temperature, K	Viscosity, Pa*s	uncertainty
298.15	0.002032	0.000187
303.15	0.001827	0.000169
308.15	0.001653	0.000155

System: tetradecane; phases: Liquid
Property: Speed of sound, m/s (Liquid); method: LVPAI::UFactor:4
Temperature, K	Pressure, kPa	Speed of sound, m/s	uncertainty
298.15	101.325	1315	6

System: tetradecane; phases: Liquid
Fixed: Pressure, kPa = 101.325
Property: Mass density, kg/m3 (Liquid); method: PYCNOM:UFactor:4
Temperature, K	Mass density, kg/m3	uncertainty
298.15	760.7	0.8
303.15	757	0.8
308.15	753.3	0.9

System: tetrachloroethene; phases: Liquid
Fixed: Pressure, kPa = 101.325
Property: Refractive index (Na D-line) (Liquid); method: ABBE::UFactor:4
Temperature, K	Refractive index (Na D-line)	uncertainty
298.15	1.5036	0.0012
303.15	1.5005	0.0012
308.15	1.4978	0.0012

System: tetrachloroethene; phases: Liquid
Fixed: Pressure, kPa = 101.325
Property: Viscosity, Pa*s (Liquid); method: CAPTUB::UFactor:4
Temperature, K	Viscosity, Pa*s	uncertainty
298.15	0.000875	2.2e-05
303.15	0.000831	2.1e-05
308.15	0.000791	2e-05

System: tetrachloroethene; phases: Liquid
Property: Speed of sound, m/s (Liquid); method: LVPAI::UFactor:4
Temperature, K	Pressure, kPa	Speed of sound, m/s	uncertainty
298.15	101.325	1033	5

System: tetrachloroethene; phases: Liquid
Fixed: Pressure, kPa = 101.325
Property: Mass density, kg/m3 (Liquid); method: PYCNOM::UFactor:4
Temperature, K	Mass density, kg/m3	uncertainty
298.15	1616	1.7
303.15	1607.5	1.8
308.15	1597.5	1.8

System: pyridine; phases: Liquid
Fixed: Pressure, kPa = 101.325
Property: Refractive index (Na D-line) (Liquid); method: ABBE::UFactor:4
Temperature, K	Refractive index (Na D-line)	uncertainty
298.15	1.5062	0.0012
303.15	1.5025	0.0012
308.15	1.5016	0.0012

System: pyridine; phases: Liquid
Fixed: Pressure, kPa = 101.325
Property: Viscosity, Pa*s (Liquid); method: CAPTUB::UFactor:4
Temperature, K	Viscosity, Pa*s	uncertainty
298.15	0.000885	2.2e-05
303.15	0.00082	2.1e-05
308.15	0.000766	2e-05

System: pyridine; phases: Liquid
Property: Speed of sound, m/s (Liquid); method: LVPAI::UFactor:4
Temperature, K	Pressure, kPa	Speed of sound, m/s	uncertainty
298.15	101.325	1412	6

System: pyridine; phases: Liquid
Fixed: Pressure, kPa = 101.325
Property: Mass density, kg/m3 (Liquid); method: PYCNOM::UFactor:4
Temperature, K	Mass density, kg/m3	uncertainty
298.15	979	1
303.15	973.7	1
308.15	968.6	1.1

System: trichloroethene; phases: Liquid
Fixed: Pressure, kPa = 101.325
Property: Refractive index (Na D-line) (Liquid); method: ABBE::UFactor:4
Temperature, K	Refractive index (Na D-line)	uncertainty
298.15	1.4752	0.0012
303.15	1.4722	0.0012
308.15	1.469	0.0012

System: trichloroethene; phases: Liquid
Fixed: Pressure, kPa = 101.325
Property: Viscosity, Pa*s (Liquid); method: CAPTUB::UFactor:4
Temperature, K	Viscosity, Pa*s	uncertainty
298.15	0.000595	1.6e-05
303.15	0.000571	1.6e-05
308.15	0.000549	1.5e-05

System: trichloroethene; phases: Liquid
Property: Speed of sound, m/s (Liquid); method: LVPAI::UFactor:4
Temperature, K	Pressure, kPa	Speed of sound, m/s	uncertainty
298.15	101.325	1028	5

System: trichloroethene; phases: Liquid
Fixed: Pressure, kPa = 101.325
Property: Mass density, kg/m3 (Liquid); method: PYCNOM::UFactor:4
Temperature, K	Mass density, kg/m3	uncertainty
298.15	1456.7	1.6
303.15	1447.1	1.6
308.15	1439.5	1.7

System: tributylamine + triethylamine; phases: Liquid
Fixed: Temperature, K = 298.15
Fixed: Pressure, kPa = 101.325
Property: Speed of sound, m/s (Liquid); method: LVPAI:UFactor:4
Mole fraction of tributylamine	Speed of sound, m/s	uncertainty
0	1123	5
0.1072	1143	5
0.2039	1160	5
0.3083	1179	5
0.4066	1196	5
0.5029	1210	5
0.5905	1221	5
0.6928	1232	5
0.7914	1236	5
0.8942	1246	6
1	1262	6

System: tributylamine + triethylamine; phases: Liquid
Fixed: Pressure, kPa = 101.325
Property: Viscosity, Pa*s (Liquid); method: CAPTUB:UFactor:4
Temperature, K	Mole fraction of tributylamine	Viscosity, Pa*s	uncertainty
298.15	0	0.000367	1.1e-05
298.15	0.1072	0.000433	1.3e-05
298.15	0.2039	0.000491	1.4e-05
298.15	0.3083	0.000567	1.5e-05
298.15	0.4066	0.000643	1.7e-05
298.15	0.5029	0.000719	1.9e-05
298.15	0.5905	0.000801	2.1e-05
298.15	0.6928	0.000899	2.3e-05
298.15	0.7914	0.001003	2.5e-05
298.15	0.8942	0.001118	2.8e-05
298.15	1	0.001239	3e-05
303.15	0	0.000349	1.1e-05
303.15	0.1072	0.000411	1.2e-05
303.15	0.2039	0.000464	1.3e-05
303.15	0.3083	0.000533	1.5e-05
303.15	0.4066	0.000602	1.6e-05
303.15	0.5029	0.000672	1.8e-05
303.15	0.5905	0.000746	1.9e-05
303.15	0.6928	0.000833	2.1e-05
303.15	0.7914	0.000923	2.3e-05
303.15	0.8942	0.001026	2.6e-05
303.15	1	0.001123	2.8e-05
308.15	0	0.000332	1e-05
308.15	0.1072	0.000388	1.2e-05
308.15	0.2039	0.000438	1.3e-05
308.15	0.3083	0.000499	1.4e-05
308.15	0.4066	0.000561	1.5e-05
308.15	0.5029	0.000625	1.7e-05
308.15	0.5905	0.000688	1.8e-05
308.15	0.6928	0.000767	2e-05
308.15	0.7914	0.000844	2.2e-05
308.15	0.8942	0.000934	2.4e-05
308.15	1	0.001028	2.6e-05

System: tributylamine + triethylamine; phases: Liquid
Fixed: Pressure, kPa = 101.325
Property: Refractive index (Na D-line) (Liquid); method: ABBE:UFactor:4
Temperature, K	Mole fraction of tributylamine	Refractive index (Na D-line)	uncertainty
298.15	0	1.3992	0.0012
298.15	0.1072	1.4052	0.0012
298.15	0.2039	1.4104	0.0012
298.15	0.3083	1.4131	0.0012
298.15	0.4066	1.4164	0.0012
298.15	0.5029	1.4208	0.0012
298.15	0.5905	1.4218	0.0013
298.15	0.6928	1.4238	0.0013
298.15	0.7914	1.4256	0.0013
298.15	0.8942	1.4265	0.0013
298.15	1	1.4276	0.0013
303.15	0	1.3958	0.0012
303.15	0.1072	1.4031	0.0012
303.15	0.2039	1.4079	0.0012
303.15	0.3083	1.4116	0.0012
303.15	0.4066	1.4144	0.0012
303.15	0.5029	1.4178	0.0012
303.15	0.5905	1.4194	0.0013
303.15	0.6928	1.4213	0.0013
303.15	0.7914	1.423	0.0013
303.15	0.8942	1.4241	0.0013
303.15	1	1.4255	0.0013
308.15	0	1.3929	0.0012
308.15	0.1072	1.4012	0.0012
308.15	0.2039	1.4054	0.0012
308.15	0.3083	1.4102	0.0012
308.15	0.4066	1.4122	0.0012
308.15	0.5029	1.4148	0.0012
308.15	0.5905	1.4169	0.0013
308.15	0.6928	1.4189	0.0013
308.15	0.7914	1.4204	0.0013
308.15	0.8942	1.4217	0.0013
308.15	1	1.4228	0.0013

System: tributylamine + triethylamine; phases: Liquid
Fixed: Pressure, kPa = 101.325
Property: Mass density, kg/m3 (Liquid); method: PYCNOM:UFactor:4
Temperature, K	Mole fraction of tributylamine	Mass density, kg/m3	uncertainty
298.15	0	723.3	0.7
298.15	0.1072	732	0.7
298.15	0.2039	739.2	0.7
298.15	0.3083	745.9	0.7
298.15	0.4066	751.5	0.7
298.15	0.5029	756.4	0.7
298.15	0.5905	760.2	0.7
298.15	0.6928	763.7	0.8
298.15	0.7914	767.1	0.8
298.15	0.8942	770.6	0.8
298.15	1	773.9	0.8
303.15	0	718.6	0.7
303.15	0.1072	727.3	0.7
303.15	0.2039	734.6	0.7
303.15	0.3083	741.4	0.7
303.15	0.4066	747.2	0.8
303.15	0.5029	752.2	0.8
303.15	0.5905	756	0.8
303.15	0.6928	759.5	0.8
303.15	0.7914	763	0.8
303.15	0.8942	766.5	0.8
303.15	1	769.2	0.8
308.15	0	713.7	0.7
308.15	0.1072	722.8	0.8
308.15	0.2039	730.2	0.8
308.15	0.3083	737.1	0.8
308.15	0.4066	742.9	0.8
308.15	0.5029	747.9	0.8
308.15	0.5905	751.8	0.8
308.15	0.6928	755.4	0.8
308.15	0.7914	758.9	0.8
308.15	0.8942	762.4	0.9
308.15	1	765.7	0.9

System: tributylamine + tetrahydrofuran; phases: Liquid
Fixed: Temperature, K = 298.15
Fixed: Pressure, kPa = 101.325
Property: Speed of sound, m/s (Liquid); method: LVPAI:UFactor:4
Mole fraction of tributylamine	Speed of sound, m/s	uncertainty
0	1288	6
0.1033	1283	6
0.2033	1278	6
0.3041	1274	6
0.4012	1271	6
0.5024	1269	6
0.5974	1267	6
0.6814	1266	6
0.7898	1264	6
0.8941	1263	6
1	1262	6

System: tributylamine + tetrahydrofuran; phases: Liquid
Fixed: Pressure, kPa = 101.325
Property: Viscosity, Pa*s (Liquid); method: CAPTUB:UFactor:4
Temperature, K	Mole fraction of tributylamine	Viscosity, Pa*s	uncertainty
298.15	0	0.000485	1.4e-05
298.15	0.1033	0.000571	1.5e-05
298.15	0.2033	0.000656	1.7e-05
298.15	0.3041	0.000741	1.9e-05
298.15	0.4012	0.000818	2.1e-05
298.15	0.5024	0.000897	2.3e-05
298.15	0.5974	0.000967	2.4e-05
298.15	0.6814	0.001028	2.6e-05
298.15	0.7898	0.0011	2.7e-05
298.15	0.8941	0.001167	2.9e-05
298.15	1	0.001239	3e-05
303.15	0	0.00046	1.3e-05
303.15	0.1033	0.000539	1.5e-05
303.15	0.2033	0.000618	1.7e-05
303.15	0.3041	0.000693	1.8e-05
303.15	0.4012	0.000763	2e-05
303.15	0.5024	0.000833	2.1e-05
303.15	0.5974	0.000896	2.3e-05
303.15	0.6814	0.000949	2.4e-05
303.15	0.7898	0.001014	2.5e-05
303.15	0.8941	0.001071	2.7e-05
303.15	1	0.001124	2.8e-05
308.15	0	0.000439	1.3e-05
308.15	0.1033	0.000509	1.4e-05
308.15	0.2033	0.000581	1.6e-05
308.15	0.3041	0.000646	1.7e-05
308.15	0.4012	0.000708	1.9e-05
308.15	0.5024	0.000769	2e-05
308.15	0.5974	0.000825	2.1e-05
308.15	0.6814	0.000871	2.2e-05
308.15	0.7898	0.000928	2.3e-05
308.15	0.8941	0.000976	2.5e-05
308.15	1	0.00102	2.6e-05

System: tributylamine + tetrahydrofuran; phases: Liquid
Fixed: Pressure, kPa = 101.325
Property: Refractive index (Na D-line) (Liquid); method: ABBE:UFactor:4
Temperature, K	Mole fraction of tributylamine	Refractive index (Na D-line)	uncertainty
298.15	0	1.4049	0.0012
298.15	0.1033	1.412	0.0012
298.15	0.2033	1.415	0.0012
298.15	0.3041	1.418	0.0012
298.15	0.4012	1.42	0.0012
298.15	0.5024	1.4229	0.0012
298.15	0.5974	1.4235	0.0012
298.15	0.6814	1.4249	0.0013
298.15	0.7898	1.4265	0.0013
298.15	0.8941	1.4269	0.0013
298.15	1	1.4276	0.0013
303.15	0	1.4026	0.0012
303.15	0.1033	1.4094	0.0012
303.15	0.2033	1.4141	0.0012
303.15	0.3041	1.4155	0.0012
303.15	0.4012	1.4178	0.0012
303.15	0.5024	1.4203	0.0012
303.15	0.5974	1.4211	0.0012
303.15	0.6814	1.4226	0.0013
303.15	0.7898	1.4238	0.0013
303.15	0.8941	1.4246	0.0013
303.15	1	1.4254	0.0013
308.15	0	1.3998	0.0012
308.15	0.1033	1.4068	0.0012
308.15	0.2033	1.4132	0.0012
308.15	0.3041	1.413	0.0012
308.15	0.4012	1.4156	0.0012
308.15	0.5024	1.4178	0.0012
308.15	0.5974	1.4188	0.0012
308.15	0.6814	1.4203	0.0013
308.15	0.7898	1.4212	0.0013
308.15	0.8941	1.4224	0.0013
308.15	1	1.4228	0.0013

System: tributylamine + tetrahydrofuran; phases: Liquid
Fixed: Pressure, kPa = 101.325
Property: Mass density, kg/m3 (Liquid); method: PYCNOM:UFactor:4
Temperature, K	Mole fraction of tributylamine	Mass density, kg/m3	uncertainty
298.15	0	882.9	0.8
298.15	0.1033	853.3	0.8
298.15	0.2033	833.4	0.8
298.15	0.3041	818.9	0.8
298.15	0.4012	808.1	0.8
298.15	0.5024	799.2	0.8
298.15	0.5974	792.5	0.8
298.15	0.6814	787.5	0.8
298.15	0.7898	782.1	0.8
298.15	0.8941	777.8	0.8
298.15	1	773.9	0.8
303.15	0	877.5	0.9
303.15	0.1033	847.9	0.9
303.15	0.2033	828.4	0.8
303.15	0.3041	814.2	0.8
303.15	0.4012	803.5	0.8
303.15	0.5024	794.7	0.8
303.15	0.5974	788.2	0.8
303.15	0.6814	783.1	0.8
303.15	0.7898	777.9	0.8
303.15	0.8941	773.6	0.8
303.15	1	769.2	0.8
308.15	0	871.2	0.9
308.15	0.1033	842.5	0.9
308.15	0.2033	823.5	0.9
308.15	0.3041	809.3	0.9
308.15	0.4012	798.9	0.9
308.15	0.5024	790.3	0.9
308.15	0.5974	783.8	0.9
308.15	0.6814	778.9	0.9
308.15	0.7898	773.6	0.9
308.15	0.8941	769.4	0.9
308.15	1	765.7	0.9

System: tributylamine + tetradecane; phases: Liquid
Fixed: Temperature, K = 298.15
Fixed: Pressure, kPa = 101.325
Property: Speed of sound, m/s (Liquid); method: LVPAI:UFactor:4
Mole fraction of tributylamine	Speed of sound, m/s	uncertainty
0	1315	6
0.1081	1303	6
0.2058	1292	6
0.2802	1287	6
0.4095	1283	6
0.5112	1279	6
0.6101	1275	6
0.7051	1272	6
0.7999	1270	6
0.8953	1267	6
1	1262	6

System: tributylamine + tetradecane; phases: Liquid
Fixed: Pressure, kPa = 101.325
Property: Viscosity, Pa*s (Liquid); method: CAPTUB:UFactor:16
Temperature, K	Mole fraction of tributylamine	Viscosity, Pa*s	uncertainty
298.15	0	0.002032	0.000187
298.15	0.1081	0.00193	0.000178
298.15	0.2058	0.001842	0.000171
298.15	0.2802	0.001774	0.000165
298.15	0.4095	0.001668	0.000156
298.15	0.5112	0.001585	0.000149
298.15	0.6101	0.001511	0.000143
298.15	0.7051	0.001441	0.000137
298.15	0.7999	0.001375	0.000131
298.15	0.8953	0.001309	0.000125
298.15	1	0.001239	0.000119
303.15	0	0.001827	0.000169
303.15	0.1081	0.00175	0.000163
303.15	0.2058	0.001671	0.000156
303.15	0.2802	0.001612	0.000151
303.15	0.4095	0.001518	0.000143
303.15	0.5112	0.001448	0.000137
303.15	0.6101	0.001386	0.000132
303.15	0.7051	0.001329	0.000127
303.15	0.7999	0.001274	0.000122
303.15	0.8953	0.001222	0.000118
303.15	1	0.001124	0.000109
308.15	0	0.001653	0.000155
308.15	0.1081	0.00157	0.000148
308.15	0.2058	0.001499	0.000142
308.15	0.2802	0.00145	0.000137
308.15	0.4095	0.001368	0.00013
308.15	0.5112	0.00131	0.000125
308.15	0.6101	0.001261	0.000121
308.15	0.7051	0.001216	0.000117
308.15	0.7999	0.001173	0.000114
308.15	0.8953	0.001135	0.00011
308.15	1	0.001103	0.000108

System: tributylamine + tetradecane; phases: Liquid
Fixed: Pressure, kPa = 101.325
Property: Refractive index (Na D-line) (Liquid); method: ABBE:UFactor:2
Temperature, K	Mole fraction of tributylamine	Refractive index (Na D-line)	uncertainty
298.15	0	1.4282	0.0007
298.15	0.1081	1.4283	0.0007
298.15	0.2058	1.4282	0.0007
298.15	0.2802	1.428	0.0007
298.15	0.4095	1.4278	0.0007
298.15	0.5112	1.4278	0.0007
298.15	0.6101	1.4278	0.0007
298.15	0.7051	1.4279	0.0007
298.15	0.7999	1.4281	0.0007
298.15	0.8953	1.428	0.0007
298.15	1	1.4276	0.0007
303.15	0	1.426	0.0007
303.15	0.1081	1.4258	0.0007
303.15	0.2058	1.4257	0.0007
303.15	0.2802	1.4256	0.0007
303.15	0.4095	1.4254	0.0007
303.15	0.5112	1.4254	0.0007
303.15	0.6101	1.4254	0.0007
303.15	0.7051	1.4255	0.0007
303.15	0.7999	1.4256	0.0007
303.15	0.8953	1.4255	0.0007
303.15	1	1.4255	0.0007
308.15	0	1.4236	0.0007
308.15	0.1081	1.4234	0.0007
308.15	0.2058	1.4234	0.0007
308.15	0.2802	1.4232	0.0007
308.15	0.4095	1.4231	0.0007
308.15	0.5112	1.423	0.0007
308.15	0.6101	1.423	0.0007
308.15	0.7051	1.4231	0.0007
308.15	0.7999	1.4231	0.0007
308.15	0.8953	1.4231	0.0007
308.15	1	1.4228	0.0007

System: tributylamine + tetradecane; phases: Liquid
Fixed: Pressure, kPa = 101.325
Property: Mass density, kg/m3 (Liquid); method: PYCNOM:UFactor:4
Temperature, K	Mole fraction of tributylamine	Mass density, kg/m3	uncertainty
298.15	0	760.7	0.8
298.15	0.1081	761.9	0.8
298.15	0.2058	762.9	0.8
298.15	0.2802	763.8	0.8
298.15	0.4095	765.3	0.8
298.15	0.5112	766.6	0.8
298.15	0.6101	767.9	0.8
298.15	0.7051	769.3	0.8
298.15	0.7999	770.9	0.8
298.15	0.8953	772.4	0.8
298.15	1	773.9	0.8
303.15	0	757	0.8
303.15	0.1081	758.1	0.8
303.15	0.2058	759.2	0.8
303.15	0.2802	760	0.8
303.15	0.4095	761.5	0.8
303.15	0.5112	762.9	0.8
303.15	0.6101	764.2	0.8
303.15	0.7051	765.5	0.8
303.15	0.7999	767	0.8
303.15	0.8953	768.4	0.8
303.15	1	769.2	0.8
308.15	0	753.3	0.9
308.15	0.1081	754.4	0.9
308.15	0.2058	755.5	0.9
308.15	0.2802	756.3	0.9
308.15	0.4095	757.8	0.9
308.15	0.5112	759.1	0.9
308.15	0.6101	760.5	0.9
308.15	0.7051	761.9	0.9
308.15	0.7999	763.1	0.9
308.15	0.8953	764.4	0.9
308.15	1	765.7	0.9

System: tributylamine + tetrachloroethene; phases: Liquid
Fixed: Temperature, K = 298.15
Fixed: Pressure, kPa = 101.325
Property: Speed of sound, m/s (Liquid); method: LVPAI:UFactor:4
Mole fraction of tributylamine	Speed of sound, m/s	uncertainty
0	1033	5
0.104	1052	5
0.2059	1073	5
0.3068	1094	5
0.4073	1116	5
0.4967	1136	5
0.6069	1162	5
0.699	1184	5
0.8018	1209	5
0.9007	1235	5
1	1262	6

System: tributylamine + tetrachloroethene; phases: Liquid
Fixed: Pressure, kPa = 101.325
Property: Viscosity, Pa*s (Liquid); method: CAPTUB:UFactor:4
Temperature, K	Mole fraction of tributylamine	Viscosity, Pa*s	uncertainty
298.15	0	0.000875	2.2e-05
298.15	0.104	0.000917	2.3e-05
298.15	0.2059	0.000958	2.4e-05
298.15	0.3068	0.000996	2.5e-05
298.15	0.4073	0.001033	2.5e-05
298.15	0.4967	0.001065	2.6e-05
298.15	0.6069	0.001104	2.7e-05
298.15	0.699	0.001136	2.8e-05
298.15	0.8018	0.001172	2.9e-05
298.15	0.9007	0.001206	3e-05
298.15	1	0.001239	3e-05
303.15	0	0.000831	2.1e-05
303.15	0.104	0.000869	2.2e-05
303.15	0.2059	0.000902	2.3e-05
303.15	0.3068	0.00093	2.3e-05
303.15	0.4073	0.00096	2.4e-05
303.15	0.4967	0.00099	2.5e-05
303.15	0.6069	0.001018	2.5e-05
303.15	0.699	0.001053	2.6e-05
303.15	0.8018	0.001081	2.7e-05
303.15	0.9007	0.001104	2.7e-05
303.15	1	0.001124	2.8e-05
308.15	0	0.000791	2e-05
308.15	0.104	0.000818	2.1e-05
308.15	0.2059	0.000844	2.1e-05
308.15	0.3068	0.000869	2.2e-05
308.15	0.4073	0.000893	2.2e-05
308.15	0.4967	0.000914	2.3e-05
308.15	0.6069	0.00094	2.4e-05
308.15	0.699	0.000961	2.4e-05
308.15	0.8018	0.000984	2.5e-05
308.15	0.9007	0.001006	2.5e-05
308.15	1	0.001028	2.6e-05

System: tributylamine + tetrachloroethene; phases: Liquid
Fixed: Pressure, kPa = 101.325
Property: Refractive index (Na D-line) (Liquid); method: ABBE:UFactor:4
Temperature, K	Mole fraction of tributylamine	Refractive index (Na D-line)	uncertainty
298.15	0	1.5036	0.0012
298.15	0.104	1.4872	0.0012
298.15	0.2059	1.4748	0.0012
298.15	0.3068	1.4659	0.0012
298.15	0.4073	1.4566	0.0012
298.15	0.4967	1.4506	0.0012
298.15	0.6069	1.4437	0.0012
298.15	0.699	1.4396	0.0012
298.15	0.8018	1.435	0.0013
298.15	0.9007	1.4316	0.0013
298.15	1	1.4276	0.0013
303.15	0	1.5005	0.0012
303.15	0.104	1.4842	0.0012
303.15	0.2059	1.4721	0.0012
303.15	0.3068	1.4656	0.005
303.15	0.4073	1.4539	0.0012
303.15	0.4967	1.4479	0.0012
303.15	0.6069	1.4415	0.0012
303.15	0.699	1.4367	0.0012
303.15	0.8018	1.4325	0.0013
303.15	0.9007	1.4289	0.0013
303.15	1	1.4255	0.0013
308.15	0	1.4978	0.0012
308.15	0.104	1.481	0.0012
308.15	0.2059	1.4692	0.0012
308.15	0.3068	1.4594	0.0012
308.15	0.4073	1.451	0.0012
308.15	0.4967	1.445	0.0012
308.15	0.6069	1.4392	0.0012
308.15	0.699	1.434	0.0012
308.15	0.8018	1.4298	0.0013
308.15	0.9007	1.4263	0.0013
308.15	1	1.4228	0.0013

System: tributylamine + tetrachloroethene; phases: Liquid
Fixed: Pressure, kPa = 101.325
Property: Mass density, kg/m3 (Liquid); method: PYCNOM:UFactor:4
Temperature, K	Mole fraction of tributylamine	Mass density, kg/m3	uncertainty
298.15	0	1616	1.7
298.15	0.104	1433.8	1.6
298.15	0.2059	1295.5	1.4
298.15	0.3068	1185.4	1.2
298.15	0.4073	1095	1.1
298.15	0.4967	1026.9	1.1
298.15	0.6069	955.4	1
298.15	0.699	904.2	0.9
298.15	0.8018	854.3	0.9
298.15	0.9007	812	0.8
298.15	1	773.9	0.8
303.15	0	1607.5	1.8
303.15	0.104	1425.9	1.6
303.15	0.2059	1288.1	1.4
303.15	0.3068	1181.4	1.3
303.15	0.4073	1089.1	1.2
303.15	0.4967	1021.5	1.1
303.15	0.6069	949.9	1
303.15	0.699	899.4	1
303.15	0.8018	849.4	0.9
303.15	0.9007	808	0.9
303.15	1	769.2	0.8
308.15	0	1597.5	1.8
308.15	0.104	1418.2	1.6
308.15	0.2059	1281.3	1.5
308.15	0.3068	1172.5	1.3
308.15	0.4073	1083.2	1.2
308.15	0.4967	1015.9	1.1
308.15	0.6069	945.2	1.1
308.15	0.699	894.7	1
308.15	0.8018	845.3	1
308.15	0.9007	803.4	0.9
308.15	1	765.7	0.9

System: tributylamine + pyridine; phases: Liquid
Fixed: Temperature, K = 298.15
Fixed: Pressure, kPa = 101.325
Property: Speed of sound, m/s (Liquid); method: LVPAI:UFactor:4
Mole fraction of tributylamine	Speed of sound, m/s	uncertainty
0	1412	6
0.0977	1363	6
0.1951	1333	6
0.2949	1308	6
0.3938	1290	6
0.4898	1282	6
0.5884	1278	6
0.6899	1275	6
0.7846	1271	6
0.8869	1266	6
1	1262	6

System: tributylamine + pyridine; phases: Liquid
Fixed: Pressure, kPa = 101.325
Property: Viscosity, Pa*s (Liquid); method: CAPTUB:UFactor:4
Temperature, K	Mole fraction of tributylamine	Viscosity, Pa*s	uncertainty
298.15	0	0.000885	2.2e-05
298.15	0.0977	0.000895	2.3e-05
298.15	0.1951	0.000914	2.3e-05
298.15	0.2949	0.000941	2.4e-05
298.15	0.3938	0.000971	2.4e-05
298.15	0.4898	0.001002	2.5e-05
298.15	0.5884	0.001038	2.6e-05
298.15	0.6899	0.001077	2.7e-05
298.15	0.7846	0.001122	2.8e-05
298.15	0.8869	0.001175	2.9e-05
298.15	1	0.001239	3e-05
303.15	0	0.00082	2.1e-05
303.15	0.0977	0.000833	2.1e-05
303.15	0.1951	0.000849	2.2e-05
303.15	0.2949	0.000872	2.2e-05
303.15	0.3938	0.000898	2.3e-05
303.15	0.4898	0.000925	2.3e-05
303.15	0.5884	0.000957	2.4e-05
303.15	0.6899	0.000993	2.5e-05
303.15	0.7846	0.001031	2.6e-05
303.15	0.8869	0.001077	2.7e-05
303.15	1	0.001124	2.8e-05
308.15	0	0.000766	2e-05
308.15	0.0977	0.000771	2e-05
308.15	0.1951	0.000783	2e-05
308.15	0.2949	0.000804	2.1e-05
308.15	0.3938	0.000825	2.1e-05
308.15	0.4898	0.000848	2.2e-05
308.15	0.5884	0.000876	2.2e-05
308.15	0.6899	0.000909	2.3e-05
308.15	0.7846	0.00094	2.4e-05
308.15	0.8869	0.000979	2.5e-05
308.15	1	0.001028	2.6e-05

System: tributylamine + pyridine; phases: Liquid
Fixed: Pressure, kPa = 101.325
Property: Refractive index (Na D-line) (Liquid); method: ABBE:UFactor:4
Temperature, K	Mole fraction of tributylamine	Refractive index (Na D-line)	uncertainty
298.15	0	1.5062	0.0012
298.15	0.0977	1.4866	0.0012
298.15	0.1951	1.4708	0.0012
298.15	0.2949	1.4606	0.0012
298.15	0.3938	1.4513	0.0012
298.15	0.4898	1.4464	0.0012
298.15	0.5884	1.4403	0.0013
298.15	0.6899	1.4359	0.0013
298.15	0.7846	1.4333	0.0013
298.15	0.8869	1.4303	0.0013
298.15	1	1.4276	0.0013
303.15	0	1.5025	0.0012
303.15	0.0977	1.483	0.0012
303.15	0.1951	1.4685	0.0012
303.15	0.2949	1.4574	0.0012
303.15	0.3938	1.4491	0.0012
303.15	0.4898	1.4428	0.0012
303.15	0.5884	1.4376	0.0013
303.15	0.6899	1.4335	0.0013
303.15	0.7846	1.43	0.0013
303.15	0.8869	1.4277	0.0013
303.15	1	1.4255	0.0013
308.15	0	1.5016	0.0012
308.15	0.0977	1.4795	0.0012
308.15	0.1951	1.4662	0.0012
308.15	0.2949	1.4542	0.0012
308.15	0.3938	1.447	0.0012
308.15	0.4898	1.4392	0.0012
308.15	0.5884	1.4348	0.0013
308.15	0.6899	1.4311	0.0013
308.15	0.7846	1.4268	0.0013
308.15	0.8869	1.4252	0.0013
308.15	1	1.4228	0.0013

System: tributylamine + pyridine; phases: Liquid
Fixed: Pressure, kPa = 101.325
Property: Mass density, kg/m3 (Liquid); method: PYCNOM:UFactor:4
Temperature, K	Mole fraction of tributylamine	Mass density, kg/m3	uncertainty
298.15	0	979	1
298.15	0.0977	927.2	0.9
298.15	0.1951	890.5	0.9
298.15	0.2949	862.6	0.9
298.15	0.3938	841.3	0.8
298.15	0.4898	824.7	0.8
298.15	0.5884	810.8	0.8
298.15	0.6899	799	0.8
298.15	0.7846	789.9	0.8
298.15	0.8869	781.6	0.8
298.15	1	773.9	0.8
303.15	0	973.7	1
303.15	0.0977	922.3	1
303.15	0.1951	885.6	0.9
303.15	0.2949	858	0.9
303.15	0.3938	836.8	0.9
303.15	0.4898	820.3	0.9
303.15	0.5884	806.5	0.9
303.15	0.6899	794.7	0.8
303.15	0.7846	785.7	0.8
303.15	0.8869	777.5	0.8
303.15	1	769.2	0.8
308.15	0	968.6	1.1
308.15	0.0977	917.4	1
308.15	0.1951	880.7	1
308.15	0.2949	853.3	0.9
308.15	0.3938	832.2	0.9
308.15	0.4898	815.9	0.9
308.15	0.5884	802.1	0.9
308.15	0.6899	790.5	0.9
308.15	0.7846	781.6	0.9
308.15	0.8869	773.3	0.9
308.15	1	765.7	0.9

System: trichloroethene + tributylamine; phases: Liquid
Fixed: Temperature, K = 298.15
Fixed: Pressure, kPa = 101.325
Property: Speed of sound, m/s (Liquid); method: LVPAI:UFactor:4
Mole fraction of tributylamine	Speed of sound, m/s	uncertainty
0	1028	5
0.0996	1054	5
0.1953	1084	5
0.2913	1108	5
0.3902	1129	5
0.4875	1151	5
0.5906	1170	5
0.6843	1187	5
0.7846	1205	5
0.8835	1227	5
1	1262	6

System: trichloroethene + tributylamine; phases: Liquid
Fixed: Pressure, kPa = 101.325
Property: Viscosity, Pa*s (Liquid); method: CAPTUB:UFactor:4
Temperature, K	Mole fraction of tributylamine	Viscosity, Pa*s	uncertainty
298.15	0	0.000595	1.6e-05
298.15	0.0996	0.000652	1.7e-05
298.15	0.1953	0.000713	1.9e-05
298.15	0.2913	0.000776	2e-05
298.15	0.3902	0.000842	2.1e-05
298.15	0.4875	0.000909	2.3e-05
298.15	0.5906	0.000978	2.5e-05
298.15	0.6843	0.001041	2.6e-05
298.15	0.7846	0.001105	2.7e-05
298.15	0.8835	0.001167	2.9e-05
298.15	1	0.001239	3e-05
303.15	0	0.000571	1.6e-05
303.15	0.0996	0.000622	1.7e-05
303.15	0.1953	0.000675	1.8e-05
303.15	0.2913	0.00073	1.9e-05
303.15	0.3902	0.000788	2e-05
303.15	0.4875	0.000846	2.2e-05
303.15	0.5906	0.000907	2.3e-05
303.15	0.6843	0.000962	2.4e-05
303.15	0.7846	0.001018	2.5e-05
303.15	0.8835	0.001071	2.7e-05
303.15	1	0.001124	2.8e-05
308.15	0	0.000549	1.5e-05
308.15	0.0996	0.000592	1.6e-05
308.15	0.1953	0.000637	1.7e-05
308.15	0.2913	0.000684	1.8e-05
308.15	0.3902	0.000734	1.9e-05
308.15	0.4875	0.000783	2e-05
308.15	0.5906	0.000835	2.1e-05
308.15	0.6843	0.000882	2.2e-05
308.15	0.7846	0.00093	2.4e-05
308.15	0.8835	0.000976	2.5e-05
308.15	1	0.001028	2.6e-05

System: trichloroethene + tributylamine; phases: Liquid
Fixed: Pressure, kPa = 101.325
Property: Refractive index (Na D-line) (Liquid); method: ABBE:UFactor:4
Temperature, K	Mole fraction of tributylamine	Refractive index (Na D-line)	uncertainty
298.15	0	1.4752	0.0012
298.15	0.0996	1.4632	0.0012
298.15	0.1953	1.4563	0.0012
298.15	0.2913	1.4502	0.0012
298.15	0.3902	1.4448	0.0012
298.15	0.4875	1.4402	0.0012
298.15	0.5906	1.437	0.0013
298.15	0.6843	1.4346	0.0013
298.15	0.7846	1.4318	0.0013
298.15	0.8835	1.4298	0.0013
298.15	1	1.4276	0.0013
303.15	0	1.4722	0.0012
303.15	0.0996	1.4604	0.0012
303.15	0.1953	1.453	0.0012
303.15	0.2913	1.4469	0.0012
303.15	0.3902	1.4417	0.0012
303.15	0.4875	1.4377	0.0012
303.15	0.5906	1.4343	0.0013
303.15	0.6843	1.4315	0.0013
303.15	0.7846	1.4295	0.0013
303.15	0.8835	1.4272	0.0013
303.15	1	1.4255	0.0013
308.15	0	1.469	0.0012
308.15	0.0996	1.4576	0.0012
308.15	0.1953	1.4495	0.0012
308.15	0.2913	1.4436	0.0012
308.15	0.3902	1.4386	0.0012
308.15	0.4875	1.4352	0.0012
308.15	0.5906	1.4317	0.0013
308.15	0.6843	1.4284	0.0013
308.15	0.7846	1.427	0.0013
308.15	0.8835	1.4246	0.0013
308.15	1	1.4228	0.0013

System: trichloroethene + tributylamine; phases: Liquid
Fixed: Pressure, kPa = 101.325
Property: Mass density, kg/m3 (Liquid); method: PYCNOM:UFactor:4
Temperature, K	Mole fraction of tributylamine	Mass density, kg/m3	uncertainty
298.15	0	1456.7	1.6
298.15	0.0996	1299.3	1.4
298.15	0.1953	1186.7	1.3
298.15	0.2913	1098.3	1.2
298.15	0.3902	1025.1	1.1
298.15	0.4875	966.3	1
298.15	0.5906	914.7	1
298.15	0.6843	875	0.9
298.15	0.7846	838.1	0.9
298.15	0.8835	806.5	0.8
298.15	1	773.3	0.8
303.15	0	1447.1	1.6
303.15	0.0996	1291.8	1.5
303.15	0.1953	1180.1	1.3
303.15	0.2913	1092.1	1.2
303.15	0.3902	1019.6	1.1
303.15	0.4875	961	1
303.15	0.5906	909.8	1
303.15	0.6843	870.3	0.9
303.15	0.7846	833.7	0.9
303.15	0.8835	802.2	0.9
303.15	1	769.2	0.8
308.15	0	1439.5	1.7
308.15	0.0996	1284.4	1.5
308.15	0.1953	1173.3	1.3
308.15	0.2913	1086	1.2
308.15	0.3902	1013.9	1.2
308.15	0.4875	955.8	1.1
308.15	0.5906	904.9	1
308.15	0.6843	865.7	1
308.15	0.7846	829.1	0.9
308.15	0.8835	797.8	0.9
308.15	1	765.7	0.9
