Measured thermophysical data. prTx Data for the Dimethyl Carbonate + Decane system
Source: J. Chem. Eng. Data, 2004, 10.1021/je0342320
Compound 1: dimethyl carbonate, C3H6O3, InChI=1S/C3H6O3/c1-5-3(4)6-2/h1-2H3, purity 99%
Compound 2: decane, C10H22, InChI=1S/C10H22/c1-3-5-7-9-10-8-6-4-2/h3-10H2,1-2H3, purity 99%

System: dimethyl carbonate; phases: Liquid
Property: Mass density, kg/m3 (Liquid); method: Vibrating tube method
Pressure, kPa	Temperature, K	Mass density, kg/m3	uncertainty
100	283.15	1083.17	0.63
100	288.15	1076.43	0.62
100	293.15	1069.76	0.62
100	298.15	1063.1	0.62
100	303.15	1056.41	0.61
100	308.15	1049.66	0.61
100	313.15	1042.86	0.61
100	318.15	1036.04	0.6
100	323.15	1029.21	0.6
100	328.15	1022.24	0.6
5000	283.15	1087.33	0.63
5000	288.15	1080.8	0.63
5000	293.15	1074.22	0.62
5000	298.15	1067.7	0.62
5000	303.15	1061.17	0.62
5000	308.15	1054.59	0.61
5000	313.15	1047.94	0.61
5000	318.15	1041.3	0.61
5000	323.15	1034.63	0.6
5000	328.15	1027.92	0.6
10000	283.15	1091.39	0.63
10000	288.15	1085.02	0.63
10000	293.15	1078.58	0.63
10000	298.15	1072.21	0.62
10000	303.15	1065.82	0.62
10000	308.15	1059.39	0.62
10000	313.15	1052.91	0.61
10000	318.15	1046.44	0.61
10000	323.15	1039.95	0.61
10000	328.15	1033.45	0.6
15000	283.15	1095.34	0.64
15000	288.15	1089.07	0.64
15000	293.15	1082.76	0.63
15000	298.15	1076.52	0.63
15000	303.15	1070.29	0.63
15000	308.15	1064	0.62
15000	313.15	1057.67	0.62
15000	318.15	1051.36	0.61
15000	323.15	1045.04	0.61
15000	328.15	1038.69	0.61
20000	283.15	1099.13	0.65
20000	288.15	1093	0.64
20000	293.15	1086.83	0.64
20000	298.15	1080.7	0.63
20000	303.15	1074.59	0.63
20000	308.15	1068.43	0.63
20000	313.15	1062.22	0.62
20000	318.15	1056.08	0.62
20000	323.15	1049.91	0.61
20000	328.15	1043.71	0.61
25000	283.15	1102.79	0.65
25000	288.15	1096.79	0.65
25000	293.15	1090.73	0.64
25000	298.15	1084.74	0.64
25000	303.15	1078.74	0.63
25000	308.15	1072.65	0.63
25000	313.15	1066.6	0.63
25000	318.15	1060.6	0.62
25000	323.15	1054.58	0.62
25000	328.15	1048.53	0.62
30000	283.15	1106.39	0.66
30000	288.15	1100.48	0.65
30000	293.15	1094.5	0.65
30000	298.15	1088.62	0.65
30000	303.15	1082.75	0.64
30000	308.15	1076.8	0.64
30000	313.15	1070.82	0.63
30000	318.15	1064.95	0.63
30000	323.15	1059.07	0.62
30000	328.15	1053.14	0.62
35000	283.15	1109.85	0.67
35000	288.15	1104.03	0.66
35000	293.15	1098.19	0.66
35000	298.15	1092.39	0.65
35000	303.15	1086.6	0.65
35000	308.15	1080.78	0.64
35000	313.15	1074.93	0.64
35000	318.15	1069.15	0.63
35000	323.15	1063.39	0.63
35000	328.15	1057.57	0.62
40000	283.15	1113.17	0.68
40000	288.15	1107.5	0.67
40000	293.15	1101.74	0.67
40000	298.15	1096.04	0.66
40000	303.15	1090.35	0.65
40000	308.15	1084.63	0.65
40000	313.15	1078.87	0.64
40000	318.15	1073.21	0.64
40000	323.15	1067.56	0.63
40000	328.15	1061.87	0.63

System: decane; phases: Liquid
Property: Mass density, kg/m3 (Liquid); method: Vibrating tube method
Pressure, kPa	Temperature, K	Mass density, kg/m3	uncertainty
100	283.15	737.4	0.44
100	288.15	733.69	0.44
100	293.15	729.94	0.44
100	298.15	726.19	0.44
100	303.15	722.46	0.44
100	308.15	718.65	0.44
100	313.15	714.79	0.44
100	318.15	710.99	0.44
100	323.15	707.17	0.43
100	328.15	703.3	0.43
5000	283.15	740.81	0.45
5000	288.15	737.19	0.45
5000	293.15	733.53	0.45
5000	298.15	729.88	0.45
5000	303.15	726.23	0.45
5000	308.15	722.52	0.45
5000	313.15	718.83	0.45
5000	318.15	715.08	0.45
5000	323.15	711.4	0.45
5000	328.15	707.67	0.45
10000	283.15	744.17	0.47
10000	288.15	740.63	0.47
10000	293.15	737.08	0.47
10000	298.15	733.52	0.47
10000	303.15	729.98	0.47
10000	308.15	726.36	0.47
10000	313.15	722.76	0.47
10000	318.15	719.13	0.48
10000	323.15	715.55	0.48
10000	328.15	711.97	0.48
15000	283.15	747.39	0.49
15000	288.15	743.93	0.49
15000	293.15	740.5	0.5
15000	298.15	737	0.5
15000	303.15	733.55	0.5
15000	308.15	730.01	0.5
15000	313.15	726.52	0.5
15000	318.15	722.99	0.5
15000	323.15	719.49	0.5
15000	328.15	716.03	0.5
20000	283.15	750.49	0.52
20000	288.15	747.14	0.52
20000	293.15	743.76	0.52
20000	298.15	740.37	0.52
20000	303.15	736.98	0.52
20000	308.15	733.55	0.52
20000	313.15	730.14	0.53
20000	318.15	726.69	0.53
20000	323.15	723.28	0.53
20000	328.15	719.87	0.53
25000	283.15	753.52	0.54
25000	288.15	750.22	0.54
25000	293.15	746.92	0.55
25000	298.15	743.6	0.55
25000	303.15	740.29	0.55
25000	308.15	737.01	0.55
25000	313.15	733.61	0.55
25000	318.15	730.22	0.55
25000	323.15	726.9	0.56
25000	328.15	723.57	0.56
30000	283.15	756.43	0.57
30000	288.15	753.19	0.57
30000	293.15	749.98	0.57
30000	298.15	746.72	0.57
30000	303.15	743.46	0.58
30000	308.15	740.13	0.58
30000	313.15	736.95	0.58
30000	318.15	733.65	0.58
30000	323.15	730.37	0.59
30000	328.15	727.1	0.59
35000	283.15	759.27	0.59
35000	288.15	756.11	0.6
35000	293.15	752.94	0.6
35000	298.15	749.72	0.6
35000	303.15	746.54	0.61
35000	308.15	743.26	0.61
35000	313.15	740.17	0.61
35000	318.15	736.93	0.61
35000	323.15	733.71	0.62
35000	328.15	730.51	0.62
40000	283.15	762.02	0.62
40000	288.15	758.92	0.62
40000	293.15	755.79	0.63
40000	298.15	752.67	0.63
40000	303.15	749.5	0.64
40000	308.15	746.32	0.64
40000	313.15	743.25	0.64
40000	318.15	740.05	0.65
40000	323.15	736.93	0.65
40000	328.15	733.79	0.65

System: decane + dimethyl carbonate; phases: Liquid
Property: Mass density, kg/m3 (Liquid); method: Vibrating tube method
Pressure, kPa	Temperature, K	Mole fraction of dimethyl carbonate	Mass density, kg/m3	uncertainty
100	288.15	0.0676	741.97	0.44
100	288.15	0.2303	767.95	0.46
100	288.15	0.2934	780.23	0.46
100	288.15	0.4055	804.52	0.48
100	288.15	0.502	829.72	0.49
100	288.15	0.5476	843.28	0.5
100	288.15	0.665	883.8	0.52
100	288.15	0.7101	901.71	0.53
100	288.15	0.9062	1004.68	0.58
100	293.15	0.0676	738.16	0.44
100	293.15	0.2303	763.84	0.46
100	293.15	0.2934	775.99	0.46
100	293.15	0.4055	799.94	0.48
100	293.15	0.502	824.83	0.49
100	293.15	0.5476	838.17	0.5
100	293.15	0.5883	851.08	0.5
100	293.15	0.665	878.01	0.52
100	293.15	0.7101	896.39	0.53
100	293.15	0.7993	936.74	0.55
100	293.15	0.9062	998.35	0.58
100	298.15	0.0676	734.31	0.44
100	298.15	0.2303	759.7	0.46
100	298.15	0.2934	771.64	0.46
100	298.15	0.4055	795.37	0.48
100	298.15	0.502	819.95	0.49
100	298.15	0.5476	833.19	0.5
100	298.15	0.5883	845.93	0.5
100	298.15	0.665	872.69	0.52
100	298.15	0.7101	890.82	0.53
100	298.15	0.7993	930.88	0.55
100	298.15	0.9062	992.18	0.58
100	303.15	0.0676	730.48	0.44
100	303.15	0.2303	755.57	0.46
100	303.15	0.2934	767.36	0.46
100	303.15	0.4055	790.78	0.47
100	303.15	0.502	815.09	0.49
100	303.15	0.5476	828.19	0.49
100	303.15	0.5883	840.82	0.5
100	303.15	0.665	867.33	0.51
100	303.15	0.7101	885.21	0.52
100	303.15	0.7993	925.09	0.54
100	303.15	0.9062	985.93	0.58
100	308.15	0.0676	726.53	0.44
100	308.15	0.2303	751.35	0.45
100	308.15	0.2934	763	0.46
100	308.15	0.4055	786.2	0.47
100	308.15	0.502	810.29	0.49
100	308.15	0.5476	823.17	0.49
100	308.15	0.5883	835.71	0.5
100	308.15	0.665	861.96	0.51
100	308.15	0.7101	879.57	0.52
100	308.15	0.7993	919.3	0.54
100	308.15	0.9062	979.75	0.57
100	313.15	0.0676	722.58	0.44
100	313.15	0.2303	747.1	0.45
100	313.15	0.2934	758.66	0.46
100	313.15	0.4055	781.63	0.47
100	313.15	0.502	805.45	0.48
100	313.15	0.5476	818.21	0.49
100	313.15	0.665	856.63	0.51
100	313.15	0.7101	874	0.52
100	313.15	0.7993	913.46	0.54
100	313.15	0.9062	973.48	0.57
100	318.15	0.0676	718.68	0.44
100	318.15	0.2303	742.9	0.45
100	318.15	0.2934	754.31	0.46
100	318.15	0.4055	777.08	0.47
100	318.15	0.502	800.57	0.48
100	318.15	0.5476	813.18	0.49
100	318.15	0.665	851.25	0.51
100	318.15	0.7101	868.41	0.52
100	318.15	0.7993	907.56	0.54
100	318.15	0.9062	967.13	0.57
100	323.15	0.0676	714.71	0.44
100	323.15	0.2303	738.81	0.45
100	323.15	0.2934	749.94	0.46
100	323.15	0.4055	772.41	0.47
100	323.15	0.502	795.68	0.48
100	323.15	0.5476	808.16	0.49
100	323.15	0.665	845.86	0.51
100	323.15	0.7101	862.69	0.52
100	323.15	0.7993	901.72	0.54
100	323.15	0.9062	960.79	0.57
100	328.15	0.0676	710.69	0.44
100	328.15	0.2303	734.47	0.45
100	328.15	0.2934	745.53	0.46
100	328.15	0.4055	767.74	0.47
100	328.15	0.502	790.73	0.48
100	328.15	0.5476	803.07	0.49
100	328.15	0.665	840.35	0.51
100	328.15	0.7101	857.01	0.51
100	328.15	0.7993	895.68	0.53
100	328.15	0.9062	954.3	0.56
10000	288.15	0.0676	749.1	0.48
10000	288.15	0.2303	775.45	0.48
10000	288.15	0.2934	787.82	0.49
10000	288.15	0.4055	812.34	0.5
10000	288.15	0.502	837.73	0.51
10000	288.15	0.5476	851.4	0.51
10000	288.15	0.9062	1013.19	0.59
10000	293.15	0.0676	745.45	0.48
10000	293.15	0.2303	771.54	0.48
10000	293.15	0.2934	783.79	0.49
10000	293.15	0.4055	807.99	0.5
10000	293.15	0.502	833.07	0.51
10000	293.15	0.5476	846.56	0.51
10000	293.15	0.5883	859.46	0.52
10000	293.15	0.665	886.63	0.53
10000	293.15	0.7101	905.11	0.54
10000	293.15	0.7993	945.44	0.55
10000	293.15	0.9062	1007.19	0.59
10000	298.15	0.0676	741.8	0.48
10000	298.15	0.2303	767.62	0.48
10000	298.15	0.2934	779.68	0.49
10000	298.15	0.4055	803.65	0.5
10000	298.15	0.502	828.44	0.5
10000	298.15	0.5476	841.77	0.51
10000	298.15	0.5883	854.59	0.51
10000	298.15	0.665	881.52	0.53
10000	298.15	0.7101	899.75	0.53
10000	298.15	0.7993	939.91	0.55
10000	298.15	0.9062	1001.24	0.58
10000	303.15	0.0676	738.15	0.48
10000	303.15	0.2303	763.68	0.48
10000	303.15	0.2934	775.58	0.49
10000	303.15	0.4055	799.32	0.5
10000	303.15	0.502	823.86	0.5
10000	303.15	0.5476	837.03	0.51
10000	303.15	0.5883	849.74	0.51
10000	303.15	0.665	876.43	0.52
10000	303.15	0.7101	894.46	0.53
10000	303.15	0.7993	934.41	0.55
10000	303.15	0.9062	995.33	0.58
10000	308.15	0.0676	734.45	0.48
10000	308.15	0.2303	759.73	0.48
10000	308.15	0.2934	771.51	0.49
10000	308.15	0.4055	794.99	0.5
10000	308.15	0.502	819.3	0.5
10000	308.15	0.5476	832.33	0.51
10000	308.15	0.5883	844.95	0.51
10000	308.15	0.665	871.37	0.52
10000	308.15	0.7101	889.19	0.53
10000	308.15	0.7993	928.93	0.55
10000	308.15	0.9062	989.47	0.58
10000	313.15	0.0676	730.76	0.48
10000	313.15	0.2303	755.75	0.48
10000	313.15	0.2934	767.5	0.49
10000	313.15	0.4055	790.74	0.5
10000	313.15	0.502	814.81	0.5
10000	313.15	0.5476	827.67	0.51
10000	313.15	0.665	866.37	0.52
10000	313.15	0.7101	883.94	0.53
10000	313.15	0.7993	923.44	0.55
10000	313.15	0.9062	983.52	0.58
10000	318.15	0.0676	727.04	0.48
10000	318.15	0.2303	751.73	0.48
10000	318.15	0.2934	763.4	0.49
10000	318.15	0.4055	786.45	0.49
10000	318.15	0.502	810.24	0.5
10000	318.15	0.5476	822.96	0.51
10000	318.15	0.665	861.33	0.52
10000	318.15	0.7101	878.62	0.53
10000	318.15	0.7993	917.9	0.55
10000	318.15	0.9062	977.56	0.57
10000	323.15	0.0676	723.36	0.48
10000	323.15	0.2303	747.9	0.48
10000	323.15	0.2934	759.3	0.49
10000	323.15	0.4055	782.1	0.49
10000	323.15	0.502	805.66	0.5
10000	323.15	0.5476	818.26	0.51
10000	323.15	0.665	856.25	0.52
10000	323.15	0.7101	873.27	0.53
10000	323.15	0.7993	912.4	0.54
10000	323.15	0.9062	971.62	0.57
10000	328.15	0.0676	719.66	0.48
10000	328.15	0.2303	743.93	0.48
10000	328.15	0.2934	755.2	0.49
10000	328.15	0.4055	777.74	0.49
10000	328.15	0.502	801.04	0.5
10000	328.15	0.5476	813.56	0.51
10000	328.15	0.665	851.18	0.52
10000	328.15	0.7101	867.93	0.53
10000	328.15	0.7993	906.86	0.54
10000	328.15	0.9062	965.6	0.57
20000	288.15	0.0676	755.73	0.52
20000	288.15	0.2303	782.4	0.52
20000	288.15	0.2934	794.87	0.52
20000	288.15	0.4055	819.59	0.52
20000	288.15	0.502	844.78	0.52
20000	288.15	0.9062	1021.19	0.59
20000	293.15	0.0676	752.25	0.52
20000	293.15	0.2303	778.69	0.52
20000	293.15	0.2934	791.01	0.52
20000	293.15	0.4055	815.46	0.52
20000	293.15	0.502	840.72	0.53
20000	293.15	0.5476	854.35	0.53
20000	293.15	0.5883	867.28	0.53
20000	293.15	0.665	894.64	0.54
20000	293.15	0.7101	913.24	0.54
20000	293.15	0.7993	953.46	0.56
20000	293.15	0.9062	1015.43	0.59
20000	298.15	0.0676	748.75	0.52
20000	298.15	0.2303	774.95	0.52
20000	298.15	0.2934	787.1	0.52
20000	298.15	0.4055	811.3	0.52
20000	298.15	0.502	836.29	0.53
20000	298.15	0.5476	849.77	0.53
20000	298.15	0.5883	862.62	0.53
20000	298.15	0.665	889.73	0.54
20000	298.15	0.7101	908.1	0.54
20000	298.15	0.7993	948.28	0.56
20000	298.15	0.9062	1009.74	0.59
20000	303.15	0.0676	745.3	0.52
20000	303.15	0.2303	771.21	0.52
20000	303.15	0.2934	783.23	0.52
20000	303.15	0.4055	807.2	0.52
20000	303.15	0.502	831.94	0.53
20000	303.15	0.5476	845.25	0.53
20000	303.15	0.5883	858.02	0.53
20000	303.15	0.665	884.86	0.54
20000	303.15	0.7101	903.07	0.54
20000	303.15	0.7993	943.03	0.56
20000	303.15	0.9062	1004.09	0.58
20000	308.15	0.0676	741.78	0.52
20000	308.15	0.2303	767.45	0.52
20000	308.15	0.2934	779.37	0.52
20000	308.15	0.4055	803.1	0.52
20000	308.15	0.502	827.62	0.53
20000	308.15	0.5476	840.77	0.53
20000	308.15	0.5883	853.46	0.53
20000	308.15	0.665	880.05	0.54
20000	308.15	0.7101	898.05	0.54
20000	308.15	0.7993	937.83	0.56
20000	308.15	0.9062	998.48	0.58
20000	313.15	0.0676	738.28	0.52
20000	313.15	0.2303	763.69	0.52
20000	313.15	0.2934	775.54	0.52
20000	313.15	0.4055	799.07	0.52
20000	313.15	0.502	823.33	0.53
20000	313.15	0.5476	836.31	0.53
20000	313.15	0.665	875.3	0.54
20000	313.15	0.7101	893.08	0.54
20000	313.15	0.7993	932.63	0.55
20000	313.15	0.9062	992.81	0.58
20000	318.15	0.0676	734.75	0.53
20000	318.15	0.2303	759.87	0.52
20000	318.15	0.2934	771.65	0.52
20000	318.15	0.4055	794.97	0.53
20000	318.15	0.502	819.01	0.53
20000	318.15	0.5476	831.86	0.53
20000	318.15	0.665	870.52	0.54
20000	318.15	0.7101	888.03	0.54
20000	318.15	0.7993	927.38	0.55
20000	318.15	0.9062	987.16	0.58
20000	323.15	0.0676	731.25	0.53
20000	323.15	0.2303	756.2	0.53
20000	323.15	0.2934	767.8	0.53
20000	323.15	0.4055	790.9	0.53
20000	323.15	0.502	814.72	0.53
20000	323.15	0.5476	827.41	0.53
20000	323.15	0.665	865.73	0.54
20000	323.15	0.7101	882.95	0.54
20000	323.15	0.7993	922.17	0.55
20000	323.15	0.9062	981.53	0.58
20000	328.15	0.0676	727.74	0.53
20000	328.15	0.2303	752.49	0.53
20000	328.15	0.2934	763.94	0.53
20000	328.15	0.4055	786.78	0.53
20000	328.15	0.502	810.36	0.53
20000	328.15	0.5476	822.99	0.53
20000	328.15	0.665	860.94	0.54
20000	328.15	0.7101	877.85	0.54
20000	328.15	0.7993	916.93	0.55
20000	328.15	0.9062	975.83	0.57
30000	288.15	0.0676	761.88	0.57
30000	288.15	0.2303	788.87	0.56
30000	288.15	0.2934	801.43	0.55
30000	288.15	0.4055	826.32	0.55
30000	288.15	0.9062	1028.63	0.6
30000	293.15	0.0676	758.56	0.57
30000	293.15	0.2303	785.31	0.56
30000	293.15	0.2934	797.71	0.56
30000	293.15	0.4055	822.34	0.55
30000	293.15	0.502	847.8	0.55
30000	293.15	0.5476	861.57	0.55
30000	293.15	0.5883	874.53	0.55
30000	293.15	0.665	902.11	0.55
30000	293.15	0.7101	920.82	0.55
30000	293.15	0.9062	1023.08	0.59
30000	298.15	0.0676	755.23	0.57
30000	298.15	0.2303	781.73	0.56
30000	298.15	0.4055	818.38	0.55
30000	298.15	0.502	843.57	0.55
30000	298.15	0.5476	857.18	0.55
30000	298.15	0.5883	870.04	0.55
30000	298.15	0.665	897.31	0.55
30000	298.15	0.7101	915.87	0.55
30000	298.15	0.7993	956.06	0.56
30000	298.15	0.9062	1017.62	0.59
30000	303.15	0.0676	751.9	0.57
30000	303.15	0.2303	778.15	0.56
30000	303.15	0.2934	790.27	0.56
30000	303.15	0.4055	814.45	0.55
30000	303.15	0.502	839.39	0.55
30000	303.15	0.5476	852.82	0.55
30000	303.15	0.5883	865.63	0.55
30000	303.15	0.665	892.63	0.55
30000	303.15	0.7101	911.02	0.55
30000	303.15	0.7993	951.01	0.56
30000	303.15	0.9062	1012.2	0.59
30000	308.15	0.0676	748.49	0.58
30000	308.15	0.2303	774.52	0.57
30000	308.15	0.2934	786.53	0.56
30000	308.15	0.4055	810.51	0.56
30000	308.15	0.502	835.23	0.55
30000	308.15	0.5476	848.52	0.55
30000	308.15	0.5883	861.27	0.55
30000	308.15	0.665	888.01	0.55
30000	308.15	0.7101	906.21	0.55
30000	308.15	0.7993	946.02	0.56
30000	308.15	0.9062	1006.83	0.59
30000	313.15	0.0676	745.23	0.58
30000	313.15	0.2303	770.99	0.57
30000	313.15	0.2934	782.96	0.56
30000	313.15	0.4055	806.72	0.56
30000	313.15	0.502	831.19	0.55
30000	313.15	0.5476	844.29	0.55
30000	313.15	0.665	883.49	0.55
30000	313.15	0.7101	901.47	0.55
30000	313.15	0.7993	941.03	0.56
30000	313.15	0.9062	1001.36	0.58
30000	318.15	0.0676	741.84	0.58
30000	318.15	0.2303	767.35	0.57
30000	318.15	0.2934	779.22	0.57
30000	318.15	0.4055	802.8	0.56
30000	318.15	0.502	827.05	0.55
30000	318.15	0.5476	840	0.55
30000	318.15	0.665	878.91	0.55
30000	318.15	0.7101	896.64	0.55
30000	318.15	0.7993	936.02	0.56
30000	318.15	0.9062	995.97	0.58
30000	323.15	0.0676	738.46	0.58
30000	323.15	0.2303	763.83	0.57
30000	323.15	0.2934	775.53	0.57
30000	323.15	0.4055	798.87	0.56
30000	323.15	0.502	822.91	0.56
30000	323.15	0.5476	835.74	0.55
30000	323.15	0.665	874.34	0.55
30000	323.15	0.7101	891.78	0.55
30000	323.15	0.7993	931.08	0.56
30000	323.15	0.9062	990.6	0.58
30000	328.15	0.0676	735.12	0.59
30000	328.15	0.2303	760.25	0.57
30000	328.15	0.2934	771.85	0.57
30000	328.15	0.4055	794.98	0.56
30000	328.15	0.502	818.78	0.56
30000	328.15	0.5476	831.5	0.55
30000	328.15	0.665	869.79	0.55
30000	328.15	0.7101	886.87	0.55
30000	328.15	0.7993	926.1	0.56
30000	328.15	0.9062	985.17	0.58
40000	288.15	0.0676	767.71	0.62
40000	288.15	0.2303	794.93	0.6
40000	288.15	0.2934	807.54	0.59
40000	288.15	0.4055	832.65	0.58
40000	288.15	0.9062	1035.61	0.6
40000	293.15	0.0676	764.48	0.62
40000	293.15	0.2303	791.49	0.6
40000	293.15	0.2934	803.97	0.59
40000	293.15	0.4055	828.8	0.58
40000	293.15	0.502	854.44	0.57
40000	293.15	0.5476	868.38	0.56
40000	293.15	0.9062	1030.28	0.6
40000	298.15	0.0676	761.28	0.62
40000	298.15	0.2303	788.05	0.6
40000	298.15	0.2934	800.4	0.6
40000	298.15	0.4055	825	0.58
40000	298.15	0.502	850.35	0.57
40000	298.15	0.5476	864.11	0.57
40000	298.15	0.5883	876.98	0.56
40000	298.15	0.665	904.39	0.56
40000	298.15	0.7101	923.09	0.56
40000	298.15	0.9062	1025.01	0.6
40000	303.15	0.0676	758.05	0.63
40000	303.15	0.2303	784.61	0.61
40000	303.15	0.2934	796.82	0.6
40000	303.15	0.4055	821.19	0.59
40000	303.15	0.502	846.29	0.57
40000	303.15	0.5476	859.91	0.57
40000	303.15	0.5883	872.72	0.56
40000	303.15	0.665	899.87	0.56
40000	303.15	0.7101	918.42	0.56
40000	303.15	0.7993	958.41	0.56
40000	303.15	0.9062	1019.78	0.59
40000	308.15	0.2303	778.52	0.61
40000	313.15	0.0676	751.65	0.64
40000	313.15	0.2303	777.72	0.61
40000	313.15	0.2934	789.79	0.61
40000	313.15	0.4055	813.78	0.59
40000	313.15	0.502	838.42	0.58
40000	313.15	0.5476	851.66	0.57
40000	313.15	0.665	891.08	0.56
40000	313.15	0.7101	909.27	0.56
40000	313.15	0.7993	948.81	0.56
40000	313.15	0.9062	1009.35	0.59
40000	318.15	0.0676	748.36	0.64
40000	318.15	0.2303	774.2	0.62
40000	318.15	0.2934	786.19	0.61
40000	318.15	0.4055	809.98	0.59
40000	318.15	0.502	834.42	0.58
40000	318.15	0.5476	847.53	0.58
40000	318.15	0.665	886.65	0.56
40000	318.15	0.7101	904.62	0.56
40000	318.15	0.7993	944	0.56
40000	318.15	0.9062	1004.15	0.58
40000	323.15	0.0676	745.15	0.64
40000	323.15	0.2303	770.85	0.62
40000	323.15	0.2934	782.66	0.61
40000	323.15	0.4055	806.24	0.6
40000	323.15	0.502	830.5	0.58
40000	323.15	0.5476	843.43	0.58
40000	323.15	0.665	882.27	0.57
40000	323.15	0.7101	899.97	0.56
40000	323.15	0.7993	939.25	0.56
40000	328.15	0.0676	741.93	0.65
40000	328.15	0.2303	767.41	0.63
40000	328.15	0.2934	779.13	0.62
40000	328.15	0.4055	802.5	0.6
40000	328.15	0.502	826.54	0.59
40000	328.15	0.5476	839.36	0.58
40000	328.15	0.665	877.9	0.57
40000	328.15	0.7101	895.22	0.56
40000	328.15	0.7993	934.48	0.56
40000	328.15	0.9062	993.79	0.58
