Measured thermophysical data. Densities and Viscosities of Binary Mixtures of N,N-Dimethylformamide with Benzyl Alcohol and Acetophenone at (298.15, 303.15, 308.15, and 313.15) K
Source: J. Chem. Eng. Data, 2003, 10.1021/je030163d
Compound 1: dimethylformamide, C3H7NO, InChI=1S/C3H7NO/c1-4(2)3-5/h3H,1-2H3
Compound 2: benzenemethanol, C7H8O, InChI=1S/C7H8O/c8-6-7-4-2-1-3-5-7/h1-5,8H,6H2
Compound 3: acetophenone, C8H8O, InChI=1S/C8H8O/c1-7(9)8-5-3-2-4-6-8/h2-6H,1H3

System: dimethylformamide; phases: Liquid
Fixed: Pressure, kPa = 101.3
Property: Viscosity, Pa*s (Liquid); method: Capillary tube (Ostwald; Ubbelohde) method
Temperature, K	Viscosity, Pa*s	uncertainty
298.15	0.000803	6e-06
303.15	0.000756	6e-06
308.15	0.00071	5e-06
313.15	0.000673	5e-06

System: dimethylformamide; phases: Liquid
Fixed: Pressure, kPa = 101.3
Property: Mass density, kg/m3 (Liquid); method: Pycnometric method
Temperature, K	Mass density, kg/m3	uncertainty
298.15	944.5	0.3
303.15	939.8	0.3
308.15	935.1	0.3
313.15	930.2	0.4

System: benzenemethanol; phases: Liquid
Fixed: Pressure, kPa = 101.3
Property: Viscosity, Pa*s (Liquid); method: Capillary tube (Ostwald; Ubbelohde) method
Temperature, K	Viscosity, Pa*s	uncertainty
298.15	0.00516	3.1e-05
303.15	0.00467	2.8e-05
308.15	0.004004	2.4e-05
313.15	0.00352	2.1e-05

System: benzenemethanol; phases: Liquid
Fixed: Pressure, kPa = 101.3
Property: Mass density, kg/m3 (Liquid); method: Pycnometric method
Temperature, K	Mass density, kg/m3	uncertainty
298.15	1041.3	0.4
303.15	1037.5	0.4
308.15	1033.7	0.4
313.15	1029.4	0.4

System: acetophenone; phases: Liquid
Fixed: Pressure, kPa = 101.3
Property: Viscosity, Pa*s (Liquid); method: Capillary tube (Ostwald; Ubbelohde) method
Temperature, K	Viscosity, Pa*s	uncertainty
298.15	0.00168	1.3e-05
303.15	0.00154	1.2e-05
308.15	0.00141	1.1e-05
313.15	0.00131	1e-05

System: acetophenone; phases: Liquid
Fixed: Pressure, kPa = 101.3
Property: Mass density, kg/m3 (Liquid); method: Pycnometric method
Temperature, K	Mass density, kg/m3	uncertainty
298.15	1024.1	0.6
303.15	1019.9	0.6
308.15	1015.7	0.6
313.15	1011.2	0.6

System: dimethylformamide + benzenemethanol; phases: Liquid
Fixed: Pressure, kPa = 101.3
Property: Viscosity, Pa*s (Liquid); method: Capillary tube (Ostwald; Ubbelohde) method
Temperature, K	Mole fraction of dimethylformamide	Viscosity, Pa*s	uncertainty
298.15	0	0.00516	3.1e-05
298.15	0.1088	0.004473	2.7e-05
298.15	0.1712	0.004011	2.4e-05
298.15	0.3055	0.00314	1.9e-05
298.15	0.4003	0.00259	1.6e-05
298.15	0.5393	0.00202	1.3e-05
298.15	0.5865	0.00185	1.2e-05
298.15	0.717	0.00144	9e-06
298.15	0.7962	0.00123	8e-06
298.15	0.8972	0.001001	7e-06
298.15	1	0.000803	6e-06
303.15	0	0.00467	2.8e-05
303.15	0.1088	0.00406	2.5e-05
303.15	0.1712	0.003648	2.2e-05
303.15	0.3055	0.00287	1.8e-05
303.15	0.4003	0.002378	1.5e-05
303.15	0.5393	0.00186	1.2e-05
303.15	0.5865	0.00171	1.1e-05
303.15	0.717	0.001335	9e-06
303.15	0.7962	0.001146	8e-06
303.15	0.8972	0.000938	7e-06
303.15	1	0.000756	6e-06
308.15	0	0.004004	2.4e-05
308.15	0.1088	0.00351	2.1e-05
308.15	0.1712	0.00317	1.9e-05
308.15	0.3055	0.002517	1.6e-05
308.15	0.4003	0.0021	1.3e-05
308.15	0.5393	0.00167	1.1e-05
308.15	0.5865	0.001541	1e-05
308.15	0.717	0.001218	8e-06
308.15	0.7962	0.001054	7e-06
308.15	0.8972	0.000872	6e-06
308.15	1	0.00071	5e-06
313.15	0	0.00352	2.1e-05
313.15	0.1088	0.003106	1.9e-05
313.15	0.1712	0.002817	1.7e-05
313.15	0.3055	0.00226	1.4e-05
313.15	0.4003	0.0019	1.2e-05
313.15	0.5393	0.00152	1e-05
313.15	0.5865	0.001411	9e-06
313.15	0.717	0.001127	8e-06
313.15	0.7962	0.000982	7e-06
313.15	0.8972	0.000819	6e-06
313.15	1	0.000673	5e-06

System: dimethylformamide + benzenemethanol; phases: Liquid
Fixed: Pressure, kPa = 101.3
Property: Mass density, kg/m3 (Liquid); method: Pycnometric method
Temperature, K	Mole fraction of dimethylformamide	Mass density, kg/m3	uncertainty
298.15	0	1041.3	0.4
298.15	0.1088	1036.1	0.4
298.15	0.1712	1032.5	0.4
298.15	0.3055	1022.7	0.4
298.15	0.4003	1014.8	0.4
298.15	0.5393	1001.3	0.4
298.15	0.5865	996.1	0.4
298.15	0.717	980.7	0.3
298.15	0.7962	970.3	0.3
298.15	0.8972	957.6	0.3
298.15	1	944.5	0.3
303.15	0	1037.5	0.4
303.15	0.1088	1032.3	0.4
303.15	0.1712	1028.7	0.4
303.15	0.3055	1018.8	0.4
303.15	0.4003	1010.8	0.4
303.15	0.5393	997.2	0.4
303.15	0.5865	992	0.4
303.15	0.717	976.4	0.4
303.15	0.7962	965.9	0.3
303.15	0.8972	953.1	0.3
303.15	1	939.8	0.3
308.15	0	1033.7	0.4
308.15	0.1088	1028.5	0.4
308.15	0.1712	1024.9	0.4
308.15	0.3055	1014.9	0.4
308.15	0.4003	1006.8	0.4
308.15	0.5393	993.1	0.4
308.15	0.5865	987.9	0.4
308.15	0.717	972.1	0.4
308.15	0.7962	961.5	0.4
308.15	0.8972	948.7	0.4
308.15	1	935.1	0.3
313.15	0	1029.4	0.4
313.15	0.1088	1024.3	0.4
313.15	0.1712	1020.6	0.4
313.15	0.3055	1010.6	0.4
313.15	0.4003	1002.4	0.4
313.15	0.5393	988.7	0.4
313.15	0.5865	983.4	0.4
313.15	0.717	967.6	0.4
313.15	0.7962	956.9	0.4
313.15	0.8972	944	0.4
313.15	1	930.2	0.4

System: dimethylformamide + acetophenone; phases: Liquid
Fixed: Pressure, kPa = 101.3
Property: Viscosity, Pa*s (Liquid); method: Capillary tube (Ostwald; Ubbelohde) method
Temperature, K	Mole fraction of dimethylformamide	Viscosity, Pa*s	uncertainty
298.15	0	0.00168	1.3e-05
298.15	0.1123	0.001584	1.2e-05
298.15	0.1641	0.001544	1.2e-05
298.15	0.308	0.00143	1e-05
298.15	0.4328	0.001328	9e-06
298.15	0.5286	0.001246	9e-06
298.15	0.6256	0.001156	8e-06
298.15	0.7165	0.001072	8e-06
298.15	0.7943	0.000999	7e-06
298.15	0.9378	0.000863	6e-06
298.15	1	0.000803	6e-06
303.15	0	0.00154	1.2e-05
303.15	0.1123	0.001453	1.1e-05
303.15	0.1641	0.001418	1.1e-05
303.15	0.308	0.001314	1e-05
303.15	0.4328	0.001221	9e-06
303.15	0.5286	0.001148	8e-06
303.15	0.6256	0.001069	8e-06
303.15	0.7165	0.000995	7e-06
303.15	0.7943	0.00093	7e-06
303.15	0.9378	0.000809	6e-06
303.15	1	0.000756	6e-06
308.15	0	0.00141	1.1e-05
308.15	0.1123	0.00133	1e-05
308.15	0.1641	0.001299	1e-05
308.15	0.308	0.001205	9e-06
308.15	0.4328	0.001122	8e-06
308.15	0.5286	0.001056	8e-06
308.15	0.6256	0.000984	7e-06
308.15	0.7165	0.000918	7e-06
308.15	0.7943	0.000861	6e-06
308.15	0.9378	0.000755	6e-06
308.15	1	0.00071	5e-06
313.15	0	0.00131	1e-05
313.15	0.1123	0.001238	9e-06
313.15	0.1641	0.001206	9e-06
313.15	0.308	0.001123	8e-06
313.15	0.4328	0.001047	8e-06
313.15	0.5286	0.000987	7e-06
313.15	0.6256	0.000922	7e-06
313.15	0.7165	0.000862	6e-06
313.15	0.7943	0.00081	6e-06
313.15	0.9378	0.000714	6e-06
313.15	1	0.000673	5e-06

System: dimethylformamide + acetophenone; phases: Liquid
Fixed: Pressure, kPa = 101.3
Property: Mass density, kg/m3 (Liquid); method: Pycnometric method
Temperature, K	Mole fraction of dimethylformamide	Mass density, kg/m3	uncertainty
298.15	0	1024.1	0.6
298.15	0.1123	1018	0.5
298.15	0.1641	1015.6	0.5
298.15	0.308	1008.8	0.5
298.15	0.4328	1001	0.5
298.15	0.5286	994.2	0.4
298.15	0.6256	985.8	0.4
298.15	0.7165	977.2	0.4
298.15	0.7943	969	0.4
298.15	0.9378	952.5	0.3
298.15	1	944.5	0.3
303.15	0	1019.9	0.6
303.15	0.1123	1013.9	0.6
303.15	0.1641	1011.4	0.5
303.15	0.308	1004.6	0.5
303.15	0.4328	996.8	0.5
303.15	0.5286	989.9	0.4
303.15	0.6256	981.4	0.4
303.15	0.7165	972.8	0.4
303.15	0.7943	964.5	0.4
303.15	0.9378	947.9	0.4
303.15	1	939.8	0.3
308.15	0	1015.7	0.6
308.15	0.1123	1009.7	0.6
308.15	0.1641	1007.2	0.5
308.15	0.308	1000.4	0.5
308.15	0.4328	992.5	0.5
308.15	0.5286	985.6	0.5
308.15	0.6256	977.1	0.4
308.15	0.7165	968.4	0.4
308.15	0.7943	960	0.4
308.15	0.9378	943.3	0.4
308.15	1	935.1	0.3
313.15	0	1011.2	0.6
313.15	0.1123	1005.2	0.6
313.15	0.1641	1002.7	0.5
313.15	0.308	995.9	0.5
313.15	0.4328	988	0.5
313.15	0.5286	981.1	0.5
313.15	0.6256	972.5	0.4
313.15	0.7165	963.8	0.4
313.15	0.7943	955.3	0.4
313.15	0.9378	938.5	0.4
313.15	1	930.2	0.4
