Measured thermophysical data. Surface Tension for the 1,1,1-Trifluoroethane (R-143a) + 1,1,1,2-Tetrafluoroethane (R-134a) System
Source: J. Chem. Eng. Data, 2004, 10.1021/je0342163
Compound 1: 1,1,1-trifluoroethane, C2H3F3, InChI=1S/C2H3F3/c1-2(3,4)5/h1H3, purity 99.95%
Compound 2: 1,1,1,2-tetrafluoroethane, C2H2F4, InChI=1S/C2H2F4/c3-1-2(4,5)6/h1H2, purity 99.95%

System: 1,1,1-trifluoroethane + 1,1,1,2-tetrafluoroethane; phases: Liquid, Gas
Property: Surface tension liquid-gas, N/m (Liquid); method: CAPRISE:UFactor:2
Temperature, K	Mass fraction of 1,1,1-trifluoroethane	Surface tension liquid-gas, N/m	uncertainty
256.91	0.7511	0.010685	0.000177
257.03	0.263	0.0126	0.000179
257.14	0.5656	0.011495	0.000178
258.79	0.7508	0.01037	0.000176
258.87	0.2627	0.01239	0.000179
260.95	0.565	0.010855	0.000177
261	0.7503	0.01013	0.000176
262.96	0.75	0.0098	0.000176
263.05	0.5646	0.01049	0.000176
264.97	0.2618	0.01146	0.000178
264.97	0.7496	0.009615	0.000176
265.07	0.5643	0.010395	0.000176
266.84	0.564	0.010025	0.000176
267.09	0.7491	0.009245	0.000175
268.62	0.7488	0.00917	0.000175
268.83	0.2611	0.01094	0.000177
268.92	0.5636	0.00981	0.000176
270.52	0.5633	0.00946	0.000175
270.6	0.7484	0.00884	0.000175
271.15	0.2607	0.01062	0.000177
273.07	0.5628	0.00914	0.000175
273.2	0.2604	0.01039	0.000176
273.23	0.7478	0.00849	0.000174
274.99	0.5625	0.008825	0.000175
275.4	0.7473	0.00826	0.000174
275.43	0.26	0.01006	0.000176
277.04	0.2597	0.009845	0.000176
277.27	0.562	0.008575	0.000174
278.99	0.5617	0.00835	0.000174
279.15	0.2593	0.0095	0.000175
279.35	0.7463	0.007755	0.000174
281.43	0.2589	0.00923	0.000175
281.48	0.5612	0.008	0.000174
281.54	0.7458	0.00746	0.000173
282.89	0.2586	0.00901	0.000175
283.35	0.5608	0.007755	0.000174
283.39	0.7453	0.00725	0.000173
285.2	0.5604	0.007465	0.000173
285.24	0.2581	0.008695	0.000175
285.45	0.7448	0.006985	0.000173
287.35	0.5599	0.007295	0.000173
287.39	0.7443	0.006725	0.000172
287.4	0.2577	0.008415	0.000174
289.05	0.7438	0.0065	0.000172
289.29	0.5595	0.007115	0.000173
289.31	0.2573	0.00823	0.000174
291.17	0.7432	0.00623	0.000172
291.2	0.5591	0.00682	0.000173
291.37	0.2569	0.00803	0.000174
293.21	0.2565	0.007725	0.000174
293.45	0.2564	0.00757	0.000173
293.49	0.5585	0.00647	0.000172
293.71	0.7425	0.00582	0.000171
295.16	0.5582	0.00613	0.000172
295.56	0.7419	0.00558	0.000171
295.58	0.256	0.007285	0.000173
297.38	0.2556	0.00706	0.000173
297.49	0.7413	0.005375	0.000171
297.52	0.5576	0.005875	0.000172
299.41	0.7407	0.00514	0.000171
299.51	0.5571	0.00572	0.000171
299.53	0.2552	0.006855	0.000173
301.41	0.7401	0.00489	0.000171
301.53	0.2547	0.006585	0.000172
302.95	0.5563	0.005335	0.000171
303.65	0.7394	0.00463	0.00017
303.66	0.2542	0.006325	0.000172
305.21	0.5557	0.005055	0.000171
305.38	0.7388	0.004425	0.00017
305.56	0.2538	0.00613	0.000172
307.4	0.5552	0.004755	0.00017
307.46	0.2534	0.005835	0.000171
307.74	0.738	0.00417	0.00017
309.3	0.5547	0.00456	0.00017
309.6	0.2529	0.005585	0.000171
309.65	0.7373	0.00397	0.00017
311.25	0.2525	0.005385	0.000171
311.41	0.5541	0.00429	0.00017
311.44	0.7367	0.003755	0.000169
313.47	0.736	0.0035	0.000169
313.55	0.252	0.005095	0.000171
313.61	0.5536	0.00403	0.00017
315.3	0.5531	0.003825	0.000169
315.54	0.7352	0.0033	0.000169
315.59	0.2515	0.00485	0.00017
317.36	0.2511	0.00466	0.00017
317.41	0.5525	0.003605	0.000169
317.57	0.7345	0.00311	0.000169
319.33	0.552	0.003415	0.000169
319.39	0.7338	0.002875	0.000169
319.66	0.2506	0.00441	0.00017
321.23	0.7331	0.002685	0.000168
321.33	0.5515	0.00318	0.000169
322.01	0.25	0.00412	0.00017
323.26	0.2497	0.004	0.00017
323.33	0.7323	0.00244	0.000168
323.42	0.5509	0.002925	0.000169
325.17	0.5505	0.00275	0.000168
325.28	0.7315	0.00225	0.000168
325.69	0.2492	0.00367	0.000169
327.33	0.2488	0.003545	0.000169
327.36	0.7306	0.002065	0.000168
327.38	0.5498	0.00253	0.000168
329.42	0.7298	0.00181	0.000168
329.44	0.5493	0.00232	0.000168
