Measured thermophysical data. Thermodynamics of Mixtures Involving Some Linear or Cyclic Ketones and Cyclic Ethers. 4. Systems Containing 1,3-Dioxolane
Source: J. Chem. Eng. Data, 2004, 10.1021/je034223r
Compound 1: 1,3-dioxolane, C3H6O2, InChI=1S/C3H6O2/c1-2-5-3-4-1/h1-3H2, purity 99%
Compound 2: pentan-2-one, C5H10O, InChI=1S/C5H10O/c1-3-4-5(2)6/h3-4H2,1-2H3, purity 99%
Compound 3: 2-heptanone, C7H14O, InChI=1S/C7H14O/c1-3-4-5-6-7(2)8/h3-6H2,1-2H3, purity 98%
Compound 4: cyclopentanone, C5H8O, InChI=1S/C5H8O/c6-5-3-1-2-4-5/h1-4H2, purity 99%
Compound 5: cyclohexanone, C6H10O, InChI=1S/C6H10O/c7-6-4-2-1-3-5-6/h1-5H2, purity 99.8%

System: 1,3-dioxolane; phases: Liquid
Property: Molar heat capacity at constant pressure, J/K/mol (Liquid); method: Flow calorimetry
Temperature, K	Pressure, kPa	Molar heat capacity at constant pressure, J/K/mol	uncertainty
298.15	101.325	121.66	0.25

System: 1,3-dioxolane; phases: Liquid
Property: Refractive index (Na D-line) (Liquid); method: Standard Abbe refractometry
Temperature, K	Pressure, kPa	Refractive index (Na D-line)	uncertainty
298.15	101.325	1.39797	0.00075

System: 1,3-dioxolane; phases: Liquid
Property: Mass density, kg/m3 (Liquid); method: Vibrating tube method
Temperature, K	Pressure, kPa	Mass density, kg/m3	uncertainty
298.15	101.325	1058.67	0.54

System: cyclopentanone + 1,3-dioxolane; phases: Liquid
Fixed: Temperature, K = 298.15
Fixed: Pressure, kPa = 101.3
Property: Heat capacity at constant pressure per volume, J/K/m3 (Liquid); method: Flow calorimetry
Mole fraction of 1,3-dioxolane	Heat capacity at constant pressure per volume, J/K/m3	uncertainty
0.0645	1713700	2700
0.1429	1716000	2700
0.3008	1720700	2700
0.3817	1723100	2700
0.4603	1725400	2700
0.5381	1727400	2700
0.6191	1729600	2700
0.6973	1731600	2700
0.8468	1734900	2700
0.928	1736500	2700

System: cyclopentanone + 1,3-dioxolane; phases: Liquid
Fixed: Temperature, K = 298.15
Fixed: Pressure, kPa = 101.3
Property: Excess molar enthalpy (molar enthalpy of mixing), kJ/mol (Liquid); method: Flow calorimetry
Mole fraction of 1,3-dioxolane	Excess molar enthalpy (molar enthalpy of mixing), kJ/mol	uncertainty
0.1	-0.00399	0.00081
0.2	-0.00853	0.00085
0.3	-0.0138	0.00089
0.4	-0.0183	0.00092
0.5	-0.02181	0.00095
0.6	-0.02361	0.00096
0.7	-0.02292	0.00096
0.8	-0.01937	0.00093
0.9	-0.01205	0.00088

System: cyclopentanone + 1,3-dioxolane; phases: Liquid
Fixed: Temperature, K = 298.15
Fixed: Pressure, kPa = 101.3
Property: Refractive index (Na D-line) (Liquid); method: REFRACT:monoch
Mole fraction of 1,3-dioxolane	Refractive index (Na D-line)	uncertainty
0.0815	1.43248	0.00021
0.1569	1.43014	0.00021
0.2322	1.42774	0.00021
0.3155	1.425	0.00021
0.3526	1.42375	0.00021
0.3965	1.42224	0.00021
0.4345	1.42091	0.00021
0.4742	1.41949	0.00021
0.5109	1.41816	0.00021
0.5558	1.4165	0.00021
0.5858	1.41537	0.00021
0.6334	1.41355	0.00021
0.6716	1.41206	0.00021
0.7127	1.41042	0.00021
0.7862	1.4074	0.00021
0.8695	1.40385	0.00021
0.9509	1.40023	0.00021

System: cyclopentanone + 1,3-dioxolane; phases: Liquid
Fixed: Temperature, K = 298.15
Fixed: Pressure, kPa = 101.3
Property: Mass density, kg/m3 (Liquid); method: VIBTUB:mpoint
Mole fraction of 1,3-dioxolane	Mass density, kg/m3	uncertainty
0.0808	951.41	0.49
0.1586	958.77	0.49
0.2251	965.28	0.49
0.3113	974.02	0.5
0.3507	978.14	0.5
0.4024	983.65	0.5
0.4295	986.6	0.5
0.4749	991.62	0.51
0.509	995.47	0.51
0.5451	999.61	0.51
0.5465	999.76	0.51
0.5891	1004.75	0.51
0.6248	1009	0.51
0.6813	1015.89	0.52
0.7075	1019.14	0.52
0.7891	1029.57	0.52
0.8629	1039.38	0.53

System: cyclohexanone + 1,3-dioxolane; phases: Liquid
Fixed: Temperature, K = 298.15
Fixed: Pressure, kPa = 101.3
Property: Excess molar enthalpy (molar enthalpy of mixing), kJ/mol (Liquid); method: Flow calorimetry
Mole fraction of 1,3-dioxolane	Excess molar enthalpy (molar enthalpy of mixing), kJ/mol	uncertainty
0.1	0.0639	0.0014
0.15	0.0897	0.0015
0.2	0.1109	0.0017
0.25	0.12918	0.00181
0.3	0.1457	0.0019
0.35	0.15984	0.00202
0.4	0.16701	0.00207
0.45	0.17121	0.0021
0.5	0.17137	0.0021
0.55	0.16885	0.00209
0.6	0.16308	0.00204
0.65	0.15443	0.00198
0.7	0.14262	0.0019
0.75	0.1275	0.0018
0.8	0.10917	0.00167
0.85	0.08714	0.00153
0.9	0.06186	0.00136

System: pentan-2-one + 1,3-dioxolane; phases: Liquid
Fixed: Temperature, K = 298.15
Fixed: Pressure, kPa = 101.3
Property: Heat capacity at constant pressure per volume, J/K/m3 (Liquid); method: Flow calorimetry
Mole fraction of 1,3-dioxolane	Heat capacity at constant pressure per volume, J/K/m3	uncertainty
0.0638	1709600	2600
0.1404	1711100	2700
0.2192	1712900	2700
0.2981	1714700	2700
0.3819	1716700	2700
0.4598	1719100	2700
0.5386	1721800	2700
0.6171	1724700	2700
0.6915	1727300	2700
0.7737	1730500	2700
0.8546	1733700	2700
0.9324	1736700	2700

System: pentan-2-one + 1,3-dioxolane; phases: Liquid
Fixed: Temperature, K = 298.15
Fixed: Pressure, kPa = 101.3
Property: Excess molar enthalpy (molar enthalpy of mixing), kJ/mol (Liquid); method: Flow calorimetry
Mole fraction of 1,3-dioxolane	Excess molar enthalpy (molar enthalpy of mixing), kJ/mol	uncertainty
0.1	0.0534	0.0013
0.15	0.082	0.0015
0.2	0.1113	0.0017
0.25	0.13777	0.0019
0.3	0.15698	0.00203
0.35	0.17755	0.00219
0.4	0.19318	0.00231
0.45	0.2057	0.0024
0.5	0.21077	0.00244
0.55	0.21171	0.00245
0.6	0.20836	0.00242
0.65	0.20049	0.00236
0.7	0.188	0.00227
0.75	0.17046	0.00214
0.8	0.14785	0.00199
0.85	0.11952	0.00181
0.9	0.08596	0.00159

System: pentan-2-one + 1,3-dioxolane; phases: Liquid
Fixed: Temperature, K = 298.15
Fixed: Pressure, kPa = 101.3
Property: Refractive index (Na D-line) (Liquid); method: REFRACT:monoch
Mole fraction of 1,3-dioxolane	Refractive index (Na D-line)	uncertainty
0.0759	1.3885	0.00021
0.1654	1.38924	0.00021
0.2333	1.38982	0.00021
0.3134	1.39054	0.00021
0.3532	1.39091	0.00021
0.3984	1.39134	0.00021
0.431	1.39166	0.00021
0.4741	1.39208	0.00021
0.5178	1.39252	0.00021
0.5578	1.39293	0.00021
0.5924	1.39329	0.00021
0.6321	1.39372	0.00021
0.6761	1.39419	0.00021
0.7128	1.3946	0.00021
0.7928	1.3955	0.00021
0.9448	1.3973	0.00021

System: pentan-2-one + 1,3-dioxolane; phases: Liquid
Fixed: Temperature, K = 298.15
Fixed: Pressure, kPa = 101.3
Property: Mass density, kg/m3 (Liquid); method: VIBTUB:mpoint
Mole fraction of 1,3-dioxolane	Mass density, kg/m3	uncertainty
0.0882	816.74	0.42
0.1647	830.91	0.43
0.2307	843.79	0.43
0.3499	868.72	0.44
0.3798	875.35	0.45
0.4314	887.14	0.45
0.4631	894.63	0.46
0.5169	907.82	0.46
0.5183	908.18	0.46
0.5529	916.98	0.47
0.5897	926.62	0.47
0.6338	938.59	0.48
0.6667	947.78	0.48
0.7131	961.29	0.49
0.7174	962.55	0.49
0.7909	985.17	0.5
0.8704	1011.41	0.52
0.9486	1039.18	0.53

System: 2-heptanone + 1,3-dioxolane; phases: Liquid
Fixed: Temperature, K = 298.15
Fixed: Pressure, kPa = 101.3
Property: Heat capacity at constant pressure per volume, J/K/m3 (Liquid); method: Flow calorimetry
Mole fraction of 1,3-dioxolane	Heat capacity at constant pressure per volume, J/K/m3	uncertainty
0.0872	1721500	2700
0.1656	1720700	2700
0.2372	1720000	2700
0.3167	1719700	2700
0.3868	1719900	2700
0.4649	1720200	2700
0.541	1721000	2700
0.6252	1722500	2700
0.6995	1724400	2700
0.7807	1726700	2700
0.8584	1729700	2700

System: 2-heptanone + 1,3-dioxolane; phases: Liquid
Fixed: Temperature, K = 298.15
Fixed: Pressure, kPa = 101.3
Property: Excess molar enthalpy (molar enthalpy of mixing), kJ/mol (Liquid); method: Flow calorimetry
Mole fraction of 1,3-dioxolane	Excess molar enthalpy (molar enthalpy of mixing), kJ/mol	uncertainty
0.1	0.117	0.002
0.15	0.1714	0.0024
0.2	0.2253	0.0028
0.25	0.2754	0.0031
0.3	0.3197	0.0035
0.35	0.3586	0.0038
0.4	0.39142	0.00403
0.45	0.41554	0.00422
0.5	0.43148	0.00434
0.55	0.4389	0.0044
0.6	0.43524	0.00437
0.65	0.4264	0.0043
0.7	0.40685	0.00416
0.75	0.37402	0.00391
0.8	0.33159	0.00361
0.85	0.27602	0.00326
0.9	0.20324	0.00279

System: 2-heptanone + 1,3-dioxolane; phases: Liquid
Fixed: Temperature, K = 298.15
Fixed: Pressure, kPa = 101.3
Property: Refractive index (Na D-line) (Liquid); method: REFRACT:monoch
Mole fraction of 1,3-dioxolane	Refractive index (Na D-line)	uncertainty
0.0796	1.4064	0.00039
0.1592	1.40592	0.00037
0.2381	1.40542	0.00036
0.315	1.40489	0.00034
0.3582	1.40459	0.00033
0.3981	1.4043	0.00033
0.437	1.404	0.00032
0.4767	1.4037	0.00031
0.5147	1.4034	0.0003
0.5562	1.40305	0.00029
0.5892	1.40276	0.00029
0.6363	1.40234	0.00028
0.6694	1.40202	0.00027
0.7034	1.40169	0.00027
0.7886	1.40078	0.00025
0.8717	1.39979	0.00023
0.9502	1.39873	0.00022

System: 2-heptanone + 1,3-dioxolane; phases: Liquid
Fixed: Temperature, K = 298.15
Fixed: Pressure, kPa = 101.3
Property: Mass density, kg/m3 (Liquid); method: VIBTUB:mpoint
Mole fraction of 1,3-dioxolane	Mass density, kg/m3	uncertainty
0.1058	824.42	0.8
0.1274	827.37	0.79
0.244	844.52	0.76
0.3122	855.72	0.74
0.3693	865.84	0.72
0.3985	871.31	0.71
0.4258	876.6	0.7
0.4304	877.56	0.7
0.4313	877.69	0.7
0.4768	887.06	0.69
0.5071	893.63	0.68
0.5125	894.83	0.68
0.5141	895.15	0.68
0.536	900.1	0.67
0.5433	901.8	0.67
0.5928	913.69	0.66
0.6302	923.33	0.65
0.6308	923.51	0.64
0.667	933.32	0.63
0.7125	946.48	0.62
0.785	969.65	0.6
0.8627	997.8	0.58
0.9533	1036.16	0.55
