Measured thermophysical data. The Effects of Temperature and Inorganic Salts on the Aqueous Solubility of Selected Chlorobenzenes
Source: J. Chem. Eng. Data, 2004, 10.1021/je034170d
Compound 1: 1,2-dichlorobenzene, C6H4Cl2, InChI=1S/C6H4Cl2/c7-5-3-1-2-4-6(5)8/h1-4H, purity 98%
Compound 2: water, H2O, InChI=1S/H2O/h1H2
Compound 3: hexachlorobenzene, C6Cl6, InChI=1S/C6Cl6/c7-1-2(8)4(10)6(12)5(11)3(1)9, purity 99%
Compound 4: biphenyl, C12H10, InChI=1S/C12H10/c1-3-7-11(8-4-1)12-9-5-2-6-10-12/h1-10H, purity 99.5%
Compound 5: sodium chloride, ClNa, InChI=1S/ClH.Na/h1H;/q;+1/p-1, purity 99.5%
Compound 6: potassium chloride, ClK, InChI=1S/ClH.K/h1H;/q;+1/p-1, purity 99.9%
Compound 7: calcium chloride, CaCl2, InChI=1S/Ca.2ClH/h;2*1H/q+2;;/p-2, purity 99.9%

System: 1,2-dichlorobenzene + water; phases: Liquid mixture 1, Liquid mixture 2
Fixed: Pressure, kPa = 101.3
Property: Mass concentration, kg/m3 of 1,2-dichlorobenzene (Liquid mixture 1); method: Chromatography
Temperature, K	Mass concentration, kg/m3 of 1,2-dichlorobenzene	uncertainty
298.15	0.0944	0.0092
298.15	0.0937	0.0072
308.15	0.108	0.0062
318.15	0.1227	0.015
328.15	0.1391	0.011

System: hexachlorobenzene + water; phases: Liquid, Crystal
Fixed: Pressure, kPa = 101.3
Property: Mass concentration, kg/m3 of hexachlorobenzene (Liquid); method: Chromatography
Temperature, K	Mass concentration, kg/m3 of hexachlorobenzene	uncertainty
288.15	7e-06	1e-06
298.15	9.6e-06	1e-06
298.15	1e-05	1e-06
308.15	1.8e-05	4e-06
318.15	2.4e-05	4e-06
328.15	3.8e-05	1e-05

System: biphenyl + water; phases: Liquid, Crystal
Fixed: Pressure, kPa = 101.3
Fixed: Temperature, K = 298
Property: Mass concentration, kg/m3 of biphenyl (Liquid); method: Chromatography
Mass concentration, kg/m3 of biphenyl	uncertainty
0.00537	0.00037
0.00532	0.00028

System: hexachlorobenzene + sodium chloride + water; phases: Liquid, Crystal
Fixed: Temperature, K = 298
Fixed: Pressure, kPa = 101.3
Property: Mass concentration, kg/m3 of hexachlorobenzene (Liquid); method: Chromatography
Solvent: Amount concentration (molarity), mol/dm3 of sodium chloride	Mass concentration, kg/m3 of hexachlorobenzene	uncertainty
0	9.6e-06	8e-07
0.022	9.6e-06	1.4e-06
0.089	8.9e-06	3.4e-06
0.185	8.4e-06	2.8e-06
0.505	6.5e-06	8e-07

System: hexachlorobenzene + potassium chloride + water; phases: Liquid, Crystal
Fixed: Temperature, K = 298
Fixed: Pressure, kPa = 101.3
Property: Mass concentration, kg/m3 of hexachlorobenzene (Liquid); method: Chromatography
Solvent: Amount concentration (molarity), mol/dm3 of potassium chloride	Mass concentration, kg/m3 of hexachlorobenzene	uncertainty
0.011	9.5e-06	1.2e-06
0.046	9.4e-06	8e-07
0.325	7.8e-06	2.4e-06
0.53	6.9e-06	3e-06

System: hexachlorobenzene + water + calcium chloride; phases: Liquid, Crystal
Fixed: Temperature, K = 298
Fixed: Pressure, kPa = 101.3
Property: Mass concentration, kg/m3 of hexachlorobenzene (Liquid); method: Chromatography
Solvent: Amount concentration (molarity), mol/dm3 of calcium chloride	Mass concentration, kg/m3 of hexachlorobenzene	uncertainty
0.073	8.2e-06	2.4e-06
0.158	7.3e-06	5e-06
0.24	6.6e-06	1.2e-06
0.41	4.8e-06	2.4e-06
