Measured thermophysical data. Thermochemistry of Branched Ethers: Experimental Study of Chemical Equilibrium in the Reacting System of tert-Amyl Alkyl Ether Synthesis
Source: J. Chem. Eng. Data, 2004, 10.1021/je034172y
Compound 1: propan-1-ol, C3H8O, InChI=1S/C3H8O/c1-2-3-4/h4H,2-3H2,1H3
Compound 2: 2-methyl-2-butene, C5H10, InChI=1S/C5H10/c1-4-5(2)3/h4H,1-3H3
Compound 3: butan-1-ol, C4H10O, InChI=1S/C4H10O/c1-2-3-4-5/h5H,2-4H2,1H3
Compound 4: propan-2-ol, C3H8O, InChI=1S/C3H8O/c1-3(2)4/h3-4H,1-2H3
Compound 5: butan-2-ol, C4H10O, InChI=1S/C4H10O/c1-3-4(2)5/h4-5H,3H2,1-2H3
Compound 6: cyclohexanol, C6H12O, InChI=1S/C6H12O/c7-6-4-2-1-3-5-6/h6-7H,1-5H2
Compound 7: ethanol, C2H6O, InChI=1S/C2H6O/c1-2-3/h3H,2H2,1H3
Compound 8: 1,1-dimethylpropyl ethyl ether, C7H16O, InChI=1S/C7H16O/c1-5-7(3,4)8-6-2/h5-6H2,1-4H3
Compound 9: 1,1-dimethylpropyl propyl ether, C8H18O, InChI=1S/C8H18O/c1-5-7-9-8(3,4)6-2/h5-7H2,1-4H3
Compound 10: butyl 1,1-dimethylpropyl ether, C9H20O, InChI=1S/C9H20O/c1-5-7-8-10-9(3,4)6-2/h5-8H2,1-4H3
Compound 11: 2-methyl-2-(1-methylethoxy)butane, C8H18O, InChI=1S/C8H18O/c1-6-8(4,5)9-7(2)3/h7H,6H2,1-5H3
Compound 12: sec-butyl tert-pentyl ether, C9H20O, InChI=1S/C9H20O/c1-6-8(3)10-9(4,5)7-2/h8H,6-7H2,1-5H3
Compound 13: tert-pentyl cyclohexyl ether, C11H22O, InChI=1S/C11H22O/c1-4-11(2,3)12-10-8-6-5-7-9-10/h10H,4-9H2,1-3H3

Reaction: -1 ethanol + -1 2-methyl-2-butene + 1 1,1-dimethylpropyl ethyl ether
Property: Thermodynamic equilibrium constant
9.8
9.5
9.8
5.2
5.5
3.1
3
1.65
1.64
1.06
1.02
0.63

Reaction: -1 propan-1-ol + -1 2-methyl-2-butene + 1 1,1-dimethylpropyl propyl ether
Property: Thermodynamic equilibrium constant
11.8
10.7
10.8
11.8
11.2
5.7
2.93
2.94
1.88
1.76
1.02
0.73

Reaction: -1 butan-1-ol + -1 2-methyl-2-butene + 1 butyl 1,1-dimethylpropyl ether
Property: Thermodynamic equilibrium constant
12.2
12
11.9
12.2
12.2
7
3.7
3.38
1.81
2.1
1.2
0.8

Reaction: -1 propan-2-ol + -1 2-methyl-2-butene + 1 2-methyl-2-(1-methylethoxy)butane
Property: Thermodynamic equilibrium constant
0.219
0.226
0.167
0.15
0.106
0.113
0.089
0.078
0.069
0.056

Reaction: -1 butan-2-ol + -1 2-methyl-2-butene + 1 sec-butyl tert-pentyl ether
Property: Thermodynamic equilibrium constant
0.285
0.29
0.29
0.21
0.148
0.122
0.102
0.093
0.078
0.084
0.064

Reaction: -1 cyclohexanol + -1 2-methyl-2-butene + 1 tert-pentyl cyclohexyl ether
Property: Thermodynamic equilibrium constant
0.564
0.552
0.543
0.395
0.405
0.283
0.281
0.213
0.191
0.202
0.162
0.162
