Measured thermophysical data. Physicochemical Properties of 8-2 Fluorinated Telomer B Alcohol
Source: J. Chem. Eng. Data, 2004, 10.1021/je034222z
Compound 1: 1-decanol, 3,3,4,4,5,5,6,6,7,7,8,8,9,9,-heptadecafluoro, C10H5F17O, InChI=1S/C10H5F17O/c11-3(12,1-2-28)4(13,14)5(15,16)6(17,18)7(19,20)8(21,22)9(23,24)10(25,26)27/h28H,1-2H2, purity 99.2%
Compound 2: water, H2O, InChI=1S/H2O/h1H2

System: 1-decanol, 3,3,4,4,5,5,6,6,7,7,8,8,9,9,-heptadecafluoro; phases: Crystal, Liquid, Air at 1 atmosphere
Property: Normal melting temperature, K (Crystal); method: VISOBS
Normal melting temperature, K	uncertainty
322.1	2

System: 1-decanol, 3,3,4,4,5,5,6,6,7,7,8,8,9,9,-heptadecafluoro; phases: Crystal, Gas
Property: Vapor or sublimation pressure, kPa (Crystal); method: Transpiration method
Temperature, K	Vapor or sublimation pressure, kPa	uncertainty
294.1	0.003	0.001

System: 1-decanol, 3,3,4,4,5,5,6,6,7,7,8,8,9,9,-heptadecafluoro; phases: Liquid, Gas
Property: Vapor or sublimation pressure, kPa (Liquid); method: CCELL:UFactor:16
Temperature, K	Vapor or sublimation pressure, kPa	uncertainty
357.15	0.708	0.134
369.15	1.465	0.207
380.15	2.774	0.249
392.15	4.91	0.317
403.15	8.284	0.425
415.15	13.798	0.602
428.15	22.752	0.888
439.15	34.449	1.263
452.15	51.667	1.814
463.15	72.339	2.476
474.15	100.607	3.381

System: 1-decanol, 3,3,4,4,5,5,6,6,7,7,8,8,9,9,-heptadecafluoro; phases: Liquid, Gas
Property: Vapor or sublimation pressure, kPa (Liquid); method: OTHER
Temperature, K	Vapor or sublimation pressure, kPa	uncertainty
397.15	5.1	1.02
421.15	15.267	3.053
430.15	23.4	4.68
440.15	32	6.4
445.15	35.667	7.133
468.15	75.75	15.15
498.15	162.1	32.42

System: 1-decanol, 3,3,4,4,5,5,6,6,7,7,8,8,9,9,-heptadecafluoro + water; phases: Liquid, Crystal
Fixed: Pressure, kPa = 100
Property: Mass concentration, kg/m3 (Liquid); method: Chromatography
Temperature, K	Mass concentration, kg/m3	uncertainty
285.15	134	54
298.15	137	95
310.15	318	319

System: 1-decanol, 3,3,4,4,5,5,6,6,7,7,8,8,9,9,-heptadecafluoro + water; phases: Liquid mixture 1, Liquid mixture 2
Property: Mass concentration, kg/m3 (Liquid mixture 1); method: Chromatography
Temperature, K	Pressure, kPa	Mass concentration, kg/m3	uncertainty
333.15	100	225	92
