Measured thermophysical data. Isobaric Vapor-Liquid Equilibria for Water + Acetic Acid + Potassium Acetate
Source: J. Chem. Eng. Data, 2004, 10.1021/je034169e
Compound 1: water, H2O, InChI=1S/H2O/h1H2, purity 99.8%
Compound 2: acetic acid, C2H4O2, InChI=1S/C2H4O2/c1-2(3)4/h1H3,(H,3,4), purity 99.8%
Compound 3: potassium ethanoate, C2H3KO2, InChI=1S/C2H4O2.K/c1-2(3)4;/h1H3,(H,3,4);/q;+1/p-1

System: potassium ethanoate + water; phases: Liquid, Gas
Fixed: Pressure, kPa = 100
Property: Boiling temperature at pressure P, K (Liquid); method: EBULLIO:UFactor:8
Mole fraction of potassium ethanoate	Boiling temperature at pressure P, K	uncertainty
0.0064	373.15	0.25
0.0109	373.45	0.25
0.0157	373.75	0.25
0.021	374.05	0.25
0.0265	374.35	0.25
0.0326	374.85	0.25
0.0387	375.25	0.25
0.0447	375.75	0.25
0.0503	376.25	0.25
0.055	376.55	0.25
0.0596	377.05	0.25
0.0646	377.45	0.25
0.0698	377.95	0.25
0.0752	378.45	0.25
0.0801	378.95	0.25
0.0854	379.55	0.25
0.0904	380.15	0.25
0.0957	380.75	0.25
0.1015	381.35	0.25
0.1079	382.05	0.25
0.1132	382.65	0.25
0.1191	383.45	0.25
0.1261	384.15	0.25

System: acetic acid + potassium ethanoate; phases: Liquid, Gas
Fixed: Pressure, kPa = 100
Property: Boiling temperature at pressure P, K (Liquid); method: EBULLIO:UFactor:8
Mole fraction of potassium ethanoate	Boiling temperature at pressure P, K	uncertainty
0.003	390.55	0.25
0.0058	390.65	0.25
0.0089	390.75	0.25
0.0123	390.95	0.25
0.0159	391.15	0.25
0.0196	391.35	0.25
0.0234	391.55	0.25
0.0271	391.75	0.25
0.0302	391.95	0.25
0.0337	392.15	0.25
0.037	392.35	0.25
0.0401	392.65	0.25
0.0426	392.75	0.25
0.046	393.05	0.25
0.0485	393.15	0.25
0.0511	393.35	0.25
0.0542	393.65	0.25
0.0571	393.85	0.25
0.0602	394.05	0.25
0.0641	394.35	0.25
0.0673	394.65	0.25
0.0715	395.15	0.25
0.0751	395.45	0.25
0.0789	395.85	0.25
0.0826	396.15	0.25
0.0863	396.65	0.25
0.09	397.15	0.25
0.0943	397.75	0.25
0.0989	398.35	0.25
0.1034	398.85	0.25
0.1082	399.55	0.25
0.1127	400.15	0.25
0.1184	400.75	0.25

System: acetic acid + potassium ethanoate + water; phases: Liquid, Gas
Fixed: Pressure, kPa = 100
Property: Boiling temperature at pressure P, K (Liquid); method: EBULLIO:UFactor:8
Mole fraction of potassium ethanoate	Solvent: Mole fraction of water	Boiling temperature at pressure P, K	uncertainty
0.0099	0.969	373.55	0.25
0.01	0.888	374.05	0.25
0.01	0.925	373.85	0.25
0.0102	0.775	374.95	0.25
0.0102	0.83	374.45	0.25
0.0103	0.102	386.35	0.26
0.0103	0.613	376.65	0.25
0.0103	0.672	376.05	0.25
0.0103	0.72	375.45	0.25
0.0104	0.41	379.35	0.25
0.0104	0.479	378.35	0.25
0.0104	0.545	377.45	0.25
0.0105	0.006	390.75	0.26
0.0105	0.183	383.45	0.25
0.0105	0.329	380.65	0.25
0.0106	0.258	382.15	0.25
0.0301	0.966	374.85	0.25
0.0304	0.886	375.35	0.25
0.0304	0.924	375.05	0.25
0.0308	0.832	375.65	0.25
0.0312	0.727	376.55	0.25
0.0314	0.666	377.15	0.25
0.0314	0.776	376.15	0.25
0.0316	0.414	380.45	0.25
0.0316	0.489	379.45	0.25
0.0317	0.606	377.75	0.25
0.0318	0.264	383.25	0.25
0.0318	0.345	381.65	0.25
0.0318	0.542	378.55	0.25
0.032	0.006	391.75	0.26
0.032	0.096	387.85	0.26
0.032	0.181	385.25	0.25
0.0499	0.962	376.35	0.25
0.0506	0.91	376.65	0.25
0.051	0.814	377.35	0.25
0.051	0.859	376.95	0.25
0.0513	0.005	393.15	0.26
0.0514	0.087	389.75	0.26
0.0516	0.447	381.35	0.25
0.0517	0.161	387.25	0.25
0.0517	0.517	380.35	0.25
0.0517	0.582	379.55	0.25
0.0517	0.702	378.15	0.25
0.0517	0.759	377.65	0.25
0.0519	0.241	385.25	0.25
0.052	0.383	382.45	0.25
0.052	0.638	378.75	0.25
0.0521	0.305	383.85	0.25
0.0679	0.972	378.25	0.25
0.0691	0.924	378.35	0.25
0.0699	0.826	378.95	0.25
0.0703	0.772	379.35	0.25
0.0703	0.869	378.65	0.25
0.0705	0.709	379.95	0.25
0.0713	0.647	380.45	0.25
0.0714	0.585	381.15	0.25
0.0717	0.453	383.15	0.25
0.0717	0.516	382.15	0.25
0.072	0.386	384.25	0.25
0.0721	0.319	385.45	0.25
0.0724	0.088	391.45	0.26
0.0725	0.162	389.35	0.25
0.0726	0.239	387.25	0.25
0.0728	0.007	394.55	0.26
0.0861	0.009	396.65	0.26
0.0869	0.09	393.25	0.26
0.0877	0.162	390.85	0.25
0.0896	0.319	387.15	0.25
0.0901	0.244	388.85	0.25
0.0902	0.38	386.05	0.25
0.0902	0.449	384.95	0.25
0.0903	0.969	380.35	0.25
0.0905	0.522	383.75	0.25
0.0906	0.583	383.05	0.25
0.0907	0.64	382.35	0.25
0.0908	0.917	380.55	0.25
0.0915	0.759	381.35	0.25
0.0917	0.694	381.75	0.25
0.0917	0.861	380.75	0.25
0.0919	0.813	381.05	0.25
0.1098	0.006	398.75	0.26
0.1107	0.076	396.35	0.26
0.1112	0.154	393.75	0.26
0.1123	0.238	391.45	0.25
0.1135	0.308	389.75	0.25
0.1151	0.438	387.45	0.25
0.1152	0.376	388.45	0.25
0.1156	0.501	386.45	0.25
0.1163	0.561	385.65	0.25
0.1167	0.625	384.95	0.25
0.1169	0.691	384.45	0.25
0.1177	0.96	383.55	0.25
0.1186	0.908	383.65	0.25
0.1195	0.806	384.15	0.25
0.1197	0.852	383.85	0.25
0.1199	0.746	384.35	0.25

System: acetic acid + potassium ethanoate + water; phases: Gas, Liquid
Fixed: Pressure, kPa = 100
Property: Mole fraction of water (Gas); method: CHROM:UFactor:2
Mole fraction of potassium ethanoate	Solvent: Mole fraction of water	Mole fraction of water	uncertainty
0.0099	0.969	0.976	0.001
0.01	0.888	0.918	0.002
0.01	0.925	0.947	0.002
0.0102	0.775	0.85	0.004
0.0102	0.83	0.883	0.003
0.0103	0.102	0.178	0.005
0.0103	0.613	0.724	0.007
0.0103	0.672	0.771	0.006
0.0103	0.72	0.813	0.005
0.0104	0.41	0.54	0.011
0.0104	0.479	0.605	0.01
0.0104	0.545	0.668	0.008
0.0105	0.006	0.006	0.003
0.0105	0.183	0.29	0.007
0.0105	0.329	0.458	0.011
0.0106	0.258	0.378	0.009
0.0301	0.966	0.977	0.001
0.0304	0.886	0.925	0.002
0.0304	0.924	0.951	0.002
0.0308	0.832	0.894	0.003
0.0312	0.727	0.826	0.005
0.0314	0.666	0.784	0.006
0.0314	0.776	0.862	0.004
0.0316	0.414	0.553	0.011
0.0316	0.489	0.629	0.009
0.0317	0.606	0.739	0.007
0.0318	0.264	0.386	0.01
0.0318	0.345	0.479	0.012
0.0318	0.542	0.686	0.008
0.032	0.006	0.007	0.003
0.032	0.096	0.165	0.005
0.032	0.181	0.283	0.007
0.0499	0.962	0.976	0.001
0.0506	0.91	0.948	0.002
0.051	0.814	0.893	0.003
0.051	0.859	0.922	0.002
0.0513	0.005	0.007	0.003
0.0514	0.087	0.147	0.004
0.0516	0.447	0.605	0.01
0.0517	0.161	0.26	0.007
0.0517	0.517	0.674	0.008
0.0517	0.582	0.732	0.007
0.0517	0.702	0.829	0.004
0.0517	0.759	0.864	0.004
0.0519	0.241	0.365	0.009
0.052	0.383	0.536	0.012
0.052	0.638	0.783	0.006
0.0521	0.305	0.446	0.011
0.0679	0.972	0.98	0.001
0.0691	0.924	0.955	0.002
0.0699	0.826	0.902	0.003
0.0703	0.772	0.873	0.003
0.0703	0.869	0.928	0.002
0.0705	0.709	0.837	0.004
0.0713	0.647	0.797	0.005
0.0714	0.585	0.747	0.006
0.0717	0.453	0.621	0.01
0.0717	0.516	0.688	0.008
0.072	0.386	0.549	0.011
0.0721	0.319	0.468	0.012
0.0724	0.088	0.143	0.004
0.0725	0.162	0.256	0.007
0.0726	0.239	0.365	0.009
0.0728	0.007	0.005	0.003
0.0861	0.009	0.008	0.003
0.0869	0.09	0.151	0.004
0.0877	0.162	0.269	0.007
0.0896	0.319	0.494	0.012
0.0901	0.244	0.393	0.01
0.0902	0.38	0.566	0.011
0.0902	0.449	0.642	0.009
0.0903	0.969	0.98	0.001
0.0905	0.522	0.715	0.007
0.0906	0.583	0.768	0.006
0.0907	0.64	0.812	0.005
0.0908	0.917	0.959	0.001
0.0915	0.759	0.885	0.003
0.0917	0.694	0.849	0.004
0.0917	0.861	0.936	0.002
0.0919	0.813	0.909	0.002
0.1098	0.006	0.013	0.003
0.1107	0.076	0.14	0.004
0.1112	0.154	0.278	0.007
0.1123	0.238	0.41	0.01
0.1135	0.308	0.513	0.012
0.1151	0.438	0.667	0.008
0.1152	0.376	0.599	0.01
0.1156	0.501	0.731	0.007
0.1163	0.561	0.782	0.006
0.1167	0.625	0.829	0.004
0.1169	0.691	0.865	0.004
0.1177	0.96	0.98	0.001
0.1186	0.908	0.963	0.001
0.1195	0.806	0.921	0.002
0.1197	0.852	0.94	0.002
0.1199	0.746	0.896	0.003
