Measured thermophysical data. Vapor-Liquid Equilibria of the Binary System 1-Pentanol + Anisole and the Quaternary System Benzene+Cyclohexane+1-Pentanol+Anisole at 101.32 kPa
Source: J. Chem. Eng. Data, 2004, 10.1021/je034189g
Compound 1: benzene, C6H6, InChI=1S/C6H6/c1-2-4-6-5-3-1/h1-6H
Compound 2: cyclohexane, C6H12, InChI=1S/C6H12/c1-2-4-6-5-3-1/h1-6H2
Compound 3: pentan-1-ol, C5H12O, InChI=1S/C5H12O/c1-2-3-4-5-6/h6H,2-5H2,1H3
Compound 4: anisole, C7H8O, InChI=1S/C7H8O/c1-8-7-5-3-2-4-6-7/h2-6H,1H3

System: benzene; phases: Liquid, Gas
Property: Normal boiling temperature, K (Liquid); method: Ebulliometric method (Recirculating still)
Normal boiling temperature, K	uncertainty
353.16	0.15

System: cyclohexane; phases: Liquid, Gas
Property: Normal boiling temperature, K (Liquid); method: Ebulliometric method (Recirculating still)
Normal boiling temperature, K	uncertainty
353.78	0.15

System: pentan-1-ol; phases: Liquid, Gas
Property: Normal boiling temperature, K (Liquid); method: Ebulliometric method (Recirculating still)
Normal boiling temperature, K	uncertainty
410.78	0.15

System: anisole; phases: Liquid, Gas
Property: Normal boiling temperature, K (Liquid); method: Ebulliometric method (Recirculating still)
Normal boiling temperature, K	uncertainty
426.77	0.15

System: pentan-1-ol + anisole; phases: Liquid, Gas
Fixed: Pressure, kPa = 101.32
Property: Boiling temperature at pressure P, K (Liquid); method: EBULLIO:UFactor:2
Mole fraction of pentan-1-ol	Boiling temperature at pressure P, K	uncertainty
0.057	422.8	0.34
0.125	419.69	0.34
0.146	418.69	0.32
0.175	417.55	0.24
0.213	416.7	0.21
0.283	414.8	0.19
0.349	413.71	0.16
0.393	413	0.16
0.435	412.42	0.15
0.459	412.13	0.15
0.488	411.76	0.15
0.515	411.45	0.14
0.543	411.21	0.13
0.568	411.07	0.13
0.588	410.87	0.13
0.622	410.62	0.13
0.644	410.53	0.12
0.669	410.44	0.12
0.688	410.33	0.13
0.72	410.17	0.13
0.73	410.12	0.12
0.755	410.14	0.12
0.781	410.06	0.12
0.796	410.08	0.12
0.83	410.06	0.12
0.868	410.07	0.12
0.904	410.17	0.12
0.941	410.31	0.13

System: pentan-1-ol + anisole; phases: Gas, Liquid
Fixed: Pressure, kPa = 101.32
Property: Mole fraction of pentan-1-ol (Gas); method: Chromatography
Mole fraction of pentan-1-ol	Mole fraction of pentan-1-ol	uncertainty
0.057	0.153	0.015
0.125	0.276	0.014
0.146	0.31	0.013
0.175	0.351	0.012
0.213	0.395	0.011
0.283	0.47	0.011
0.349	0.521	0.01
0.393	0.554	0.009
0.435	0.575	0.009
0.459	0.588	0.009
0.488	0.609	0.009
0.515	0.626	0.009
0.543	0.642	0.009
0.568	0.652	0.009
0.588	0.667	0.009
0.622	0.689	0.009
0.644	0.701	0.009
0.669	0.717	0.009
0.688	0.729	0.009
0.72	0.748	0.009
0.73	0.758	0.009
0.755	0.776	0.009
0.781	0.792	0.009
0.796	0.803	0.009
0.83	0.828	0.009
0.868	0.858	0.009
0.904	0.892	0.01
0.941	0.93	0.01
