Measured thermophysical data. The Solubility of Benzocaine, Lidocaine, and Procaine in Liquid and Supercritical Carbon Dioxide
Source: J. Chem. Eng. Data, 2004, 10.1021/je034163p
Compound 1: carbon dioxide, CO2, InChI=1S/CO2/c2-1-3
Compound 2: 2-(diethylamino)-N-(2,6-dimethylphenyl)acetamide, C14H22N2O, InChI=1S/C14H22N2O/c1-5-16(6-2)10-13(17)15-14-11(3)8-7-9-12(14)4/h7-9H,5-6,10H2,1-4H3,(H,15,17)
Compound 3: ethyl 4-aminobenzoate, C9H11NO2, InChI=1S/C9H11NO2/c1-2-12-9(11)7-3-5-8(10)6-4-7/h3-6H,2,10H2,1H3
Compound 4: benzoic acid, p-amino-, 2-(diethylamino) ethyl ester, C13H20N2O2, InChI=1S/C13H20N2O2/c1-3-15(4-2)9-10-17-13(16)11-5-7-12(14)8-6-11/h5-8H,3-4,9-10,14H2,1-2H3
Compound 5: ketoprofen, C16H14O3, InChI=1S/C16H14O3/c1-11(16(18)19)13-8-5-9-14(10-13)15(17)12-6-3-2-4-7-12/h2-11H,1H3,(H,18,19)

System: benzoic acid, p-amino-, 2-(diethylamino) ethyl ester + carbon dioxide; phases: Fluid (supercritical or subcritical phases), Crystal
Property: Mole fraction of benzoic acid, p-amino-, 2-(diethylamino) ethyl ester (Fluid (supercritical or subcritical phases)); method: OTHER
Temperature, K	Pressure, kPa	Mole fraction of benzoic acid, p-amino-, 2-(diethylamino) ethyl ester	uncertainty
298	6900	5.82e-05	8.8e-06
298	7500	6.1e-05	9.2e-06
298	8400	6.13e-05	9.3e-06
298	10100	6.42e-05	9.7e-06
298	12400	7.2e-05	1.08e-05
298	15100	8.82e-05	1.33e-05
298	17500	9.37e-05	1.41e-05
298	19200	9.75e-05	1.47e-05
298	22500	0.000103	1.56e-05
298	25200	0.000103	1.57e-05
308	9400	8.31e-05	1.25e-05
308	10000	8.55e-05	1.28e-05
308	12200	8.97e-05	1.35e-05
308	14900	0.0001008	1.52e-05
308	16900	0.000108	1.63e-05
308	19800	0.000125	1.88e-05
308	22200	0.000139	2.1e-05
308	24900	0.000153	2.3e-05
318	8000	7.14e-05	1.07e-05
318	8500	7.15e-05	1.07e-05
318	9000	7.31e-05	1.1e-05
318	9400	7.72e-05	1.16e-05
318	10900	9.54e-05	1.43e-05
318	12500	0.000109	1.64e-05
318	15000	0.000131	1.97e-05
318	17400	0.000143	2.15e-05
318	19500	0.00015	2.26e-05
318	24500	0.000165	2.48e-05

System: carbon dioxide + 2-(diethylamino)-N-(2,6-dimethylphenyl)acetamide; phases: Fluid (supercritical or subcritical phases), Crystal
Property: Mole fraction of 2-(diethylamino)-N-(2,6-dimethylphenyl)acetamide (Fluid (supercritical or subcritical phases)); method: OTHER
Temperature, K	Pressure, kPa	Mole fraction of 2-(diethylamino)-N-(2,6-dimethylphenyl)acetamide	uncertainty
298	7000	7.44e-05	1.18e-05
298	7400	7.59e-05	1.2e-05
298	8900	8.3e-05	1.28e-05
298	10000	7.9e-05	1.22e-05
298	11400	8.74e-05	1.37e-05
298	12400	0.000108	1.67e-05
298	14300	0.000132	2.07e-05
298	15600	0.000154	2.38e-05
298	17700	0.000187	2.89e-05
298	19500	0.000222	3.41e-05
298	24800	0.000275	4.18e-05
308	7800	1.55e-05	4.2e-06
308	8500	2.57e-05	4.2e-06
308	8900	3.11e-05	5e-06
308	9900	3.2e-05	5e-06
308	12300	3.53e-05	5.7e-06
308	14600	3.88e-05	6.5e-06
308	16600	5.59e-05	9.1e-06
308	17500	6.67e-05	1.06e-05
308	19700	9.07e-05	1.41e-05
308	21200	0.000108	1.62e-05
308	23400	0.000132	1.99e-05
308	24800	0.000163	2.47e-05
318	7500	3.33e-05	5.1e-06
318	8500	2.91e-05	4.4e-06
318	10000	3.14e-05	4.7e-06
318	12200	3.92e-05	5.9e-06
318	14800	4.09e-05	6.2e-06
318	17600	6.88e-05	1.03e-05
318	19700	9.78e-05	1.47e-05
318	22100	0.000138	2.07e-05
318	23400	0.000162	2.44e-05
318	25200	0.000197	2.96e-05

System: ethyl 4-aminobenzoate + carbon dioxide; phases: Fluid (supercritical or subcritical phases), Crystal
Property: Mole fraction of ethyl 4-aminobenzoate (Fluid (supercritical or subcritical phases)); method: OTHER
Temperature, K	Pressure, kPa	Mole fraction of ethyl 4-aminobenzoate	uncertainty
298	8400	4.65e-05	9.6e-06
298	9500	7.47e-05	1.54e-05
298	10900	0.000101	2.05e-05
298	12500	0.000114	2.33e-05
298	15300	0.000128	2.6e-05
298	17600	0.000135	2.73e-05
298	21100	0.000173	3.5e-05
298	22500	0.000191	3.84e-05
298	24800	0.000209	4.19e-05
308	8800	1.79e-05	4e-06
308	9900	2.12e-05	4.5e-06
308	10500	2.8e-05	6.1e-06
308	11400	3.09e-05	6.6e-06
308	12400	3.43e-05	7.3e-06
308	14900	5.25e-05	1.08e-05
308	17500	7.36e-05	1.5e-05
308	20800	8.07e-05	1.65e-05
308	22400	0.000121	2.44e-05
308	25100	0.000163	3.27e-05
318	9900	2.4e-05	4.8e-06
318	10400	1.75e-05	4e-06
318	11000	2.35e-05	4.7e-06
318	11400	2.52e-05	5.1e-06
318	12400	3.05e-05	6.1e-06
318	15000	4.36e-05	8.8e-06
318	17200	4.46e-05	9e-06
318	19900	5.55e-05	1.11e-05
318	22500	8.26e-05	1.67e-05
318	25000	0.000119	2.39e-05

System: carbon dioxide + ketoprofen; phases: Fluid (supercritical or subcritical phases), Crystal
Fixed: Temperature, K = 313
Property: Mole fraction of ketoprofen (Fluid (supercritical or subcritical phases)); method: OTHER
Pressure, kPa	Mole fraction of ketoprofen	uncertainty
9000	3.9e-06	3.9e-06
9500	4.8e-06	4e-06
10000	1.39e-05	4e-06
10300	1.55e-05	4e-06
11000	2.12e-05	4e-06
13000	5.52e-05	8.3e-06
13000	5.35e-05	8e-06
14700	6.3e-05	9.5e-06
15000	6.32e-05	9.5e-06
19800	8.99e-05	1.35e-05
20000	8.78e-05	1.32e-05
24900	9.85e-05	1.49e-05
25000	9.15e-05	1.38e-05
