Measured thermophysical data. Vapor-Liquid Equilibria of the Carbon Dioxide + Ethyl Propanoate and Carbon Dioxide + Ethyl Acetate Systems at Pressure from 2.96 MPa to 11.79 MPa and Temperature from 313 K to 393 K
Source: J. Chem. Eng. Data, 2004, 10.1021/je034224j
Compound 1: carbon dioxide, CO2, InChI=1S/CO2/c2-1-3, purity 99.99%
Compound 2: ethyl propanoate, C5H10O2, InChI=1S/C5H10O2/c1-3-5(6)7-4-2/h3-4H2,1-2H3, purity 99%
Compound 3: ethyl acetate, C4H8O2, InChI=1S/C4H8O2/c1-3-6-4(2)5/h3H2,1-2H3, purity 99%

System: ethyl propanoate + carbon dioxide; phases: Liquid, Gas
Property: Vapor or sublimation pressure, kPa (Liquid); method: CCELL:UFactor:16
Mole fraction of carbon dioxide	Temperature, K	Vapor or sublimation pressure, kPa	uncertainty
0.3282	373	2960	150
0.3557	353	2960	150
0.3961	373	4460	220
0.4093	333	2960	150
0.4093	353	3860	190
0.4733	333	3460	170
0.4746	353	4960	250
0.4965	373	5960	300
0.5422	373	7470	370
0.5459	353	5960	300
0.5479	333	4460	220
0.5818	313	2960	150
0.6173	353	6960	350
0.6214	333	5460	270
0.6332	373	8970	450
0.6608	333	5960	300
0.6847	353	7970	400
0.6881	313	3960	200
0.7127	373	10570	530
0.7224	333	6660	330
0.7391	373	10970	550
0.7509	313	4460	220
0.7529	353	8870	440
0.7819	333	7260	360
0.799	313	4960	250
0.8301	313	5460	270
0.8675	313	5970	300
0.8871	313	6270	310

System: ethyl propanoate + carbon dioxide; phases: Gas, Liquid
Property: Mole fraction of carbon dioxide (Gas); method: OTHER
Mole fraction of carbon dioxide	Temperature, K	Mole fraction of carbon dioxide	uncertainty
0.3282	373	0.0444	0.0021
0.3557	353	0.0484	0.0021
0.3961	373	0.0686	0.0021
0.4093	333	0.0524	0.002
0.4093	353	0.0679	0.0021
0.4733	333	0.0629	0.0021
0.4746	353	0.0923	0.0021
0.4965	373	0.1045	0.0022
0.5422	373	0.134	0.0026
0.5459	353	0.1162	0.0022
0.5479	333	0.094	0.0022
0.5818	313	0.066	0.0021
0.6173	353	0.1485	0.0024
0.6214	333	0.1235	0.0022
0.6332	373	0.2177	0.0034
0.6608	333	0.1461	0.0025
0.6847	353	0.1954	0.0029
0.6881	313	0.1018	0.0022
0.7127	373	0.359	0.0042
0.7224	333	0.2018	0.0027
0.7391	373	0.3922	0.0037
0.7509	313	0.1106	0.0023
0.7529	353	0.2698	0.004
0.7819	333	0.2616	0.0025
0.799	313	0.1368	0.003
0.8301	313	0.1887	0.0041
0.8675	313	0.2484	0.0041
0.8871	313	0.2799	0.0042

System: ethyl propanoate + carbon dioxide; phases: Liquid
Property: Mass density, kg/m3 (Liquid); method: VIBTUB:UFactor:128
Temperature, K	Pressure, kPa	Mole fraction of carbon dioxide	Mass density, kg/m3	uncertainty
313	2960	0.5818	971	6
313	3960	0.6881	973.6	6.2
313	4460	0.7509	965.9	6.5
313	4960	0.799	960.9	7.1
313	5460	0.8301	950.9	13.6
313	5970	0.8675	923.3	10.6
313	6270	0.8871	902.4	12.3
333	2960	0.4093	900.2	10.4
333	3460	0.4733	905.3	10.3
333	4460	0.5479	902.9	11
333	5460	0.6214	895.5	12
333	5960	0.6608	886.6	13
333	6660	0.7224	868.7	16.7
333	7260	0.7819	842.2	17.7
353	2960	0.3557	864.4	12.7
353	3860	0.4093	864.9	13.3
353	4960	0.4746	869.1	14.5
353	5960	0.5459	855.1	15.5
353	6960	0.6173	854	16.4
353	7970	0.6847	850.5	22.1
353	8870	0.7529	824.3	20.5
373	2960	0.3282	817	15.8
373	4460	0.3961	812.4	17.8
373	5960	0.4965	802.1	19.7
373	7470	0.5422	788.2	22.4
373	8970	0.6332	766.7	26.2
373	10570	0.7127	735.7	31.2
373	10970	0.7391	720.9	33.2

System: ethyl propanoate + carbon dioxide; phases: Gas
Property: Mass density, kg/m3 (Gas); method: VIBTUB:UFactor:128
Temperature, K	Pressure, kPa	Mole fraction of carbon dioxide	Mass density, kg/m3	uncertainty
313	2960	0.066	993.3	4.4
313	3960	0.1018	996.8	4.2
313	4460	0.1106	997.8	4.2
313	4960	0.1368	998	4.1
313	5460	0.1887	997	4.2
313	5970	0.2484	996.1	4.3
313	6270	0.2799	995.6	4.3
333	2960	0.0524	996.3	4.3
333	3460	0.0629	996.1	4.3
333	4460	0.094	994.5	4.4
333	5460	0.1235	992.9	4.5
333	5960	0.1461	991	4.7
333	6660	0.2018	990.5	4.8
333	7260	0.2616	990	4.8
353	2960	0.0484	993	4.5
353	3860	0.0679	990	4.7
353	4960	0.0923	989.1	4.8
353	5960	0.1162	986	5.1
353	6960	0.1485	982	5.5
353	7970	0.1954	974.2	6.3
353	8870	0.2698	972.2	6.6
373	2960	0.0444	981.3	7.2
373	4460	0.0686	975.5	11
373	5960	0.1045	972.9	6.2
373	7470	0.134	972.5	6.5
373	8970	0.2177	962.6	7.6
373	10570	0.359	954.5	8.7
373	10970	0.3922	946.4	9.6

System: carbon dioxide + ethyl acetate; phases: Liquid, Gas
Property: Vapor or sublimation pressure, kPa (Liquid); method: CCELL:UFactor:16
Mole fraction of carbon dioxide	Temperature, K	Vapor or sublimation pressure, kPa	uncertainty
0.455	393	5060	250
0.4697	373	5690	290
0.4831	393	5460	280
0.5001	373	6460	330
0.5129	393	6970	360
0.545	393	8480	430
0.5505	373	7960	400
0.5532	353	3960	200
0.5727	333	5360	270
0.5744	393	9970	500
0.5767	353	5060	260
0.6046	373	9470	470
0.6075	353	6270	330
0.6237	393	11470	570
0.627	353	7470	380
0.6283	333	5960	300
0.6584	333	6470	320
0.6629	393	11970	590
0.6668	353	8470	420
0.6715	373	10570	530
0.7259	373	11370	570
0.7586	333	7570	380
0.7587	353	9470	470
0.8057	333	8460	420
0.8421	333	8970	450

System: carbon dioxide + ethyl acetate; phases: Gas, Liquid
Property: Mole fraction of carbon dioxide (Gas); method: OTHER
Mole fraction of carbon dioxide	Temperature, K	Mole fraction of carbon dioxide	uncertainty
0.455	393	0.055	0.0029
0.4697	373	0.0819	0.0032
0.4831	393	0.0849	0.0031
0.5001	373	0.1202	0.0029
0.5129	393	0.1218	0.0036
0.545	393	0.1766	0.0048
0.5505	373	0.1682	0.0032
0.5532	353	0.0666	0.0021
0.5727	333	0.1231	0.0023
0.5744	393	0.255	0.0061
0.5767	353	0.0935	0.0026
0.6046	373	0.2401	0.0039
0.6075	353	0.127	0.0048
0.6237	393	0.4	0.0082
0.627	353	0.1822	0.0033
0.6283	333	0.1544	0.0023
0.6584	333	0.1698	0.0022
0.6629	393	0.6025	0.011
0.6668	353	0.22	0.0024
0.6715	373	0.352	0.0048
0.7259	373	0.4692	0.0057
0.7586	333	0.2068	0.0025
0.7587	353	0.2634	0.0024
0.8057	333	0.2731	0.0045
0.8421	333	0.3708	0.006

System: carbon dioxide + ethyl acetate; phases: Liquid
Property: Mass density, kg/m3 (Liquid); method: VIBTUB:UFactor:128
Temperature, K	Pressure, kPa	Mole fraction of carbon dioxide	Mass density, kg/m3	uncertainty
333	5360	0.5727	865.7	14.2
333	5960	0.6283	836.3	17
333	6470	0.6584	814.8	19.1
333	7570	0.7586	785.3	22.7
333	8460	0.8057	746.7	27.2
333	8970	0.8421	720.4	30.3
353	3960	0.5532	923.2	9.9
353	5060	0.5767	920.9	10
353	6270	0.6075	919.6	10.5
353	7470	0.627	901.7	12.8
353	8470	0.6668	854	17.6
353	9470	0.7587	746.5	28.6
373	5690	0.4697	758.8	22.8
373	6460	0.5001	784.3	21.7
373	7960	0.5505	790.5	22.7
373	9470	0.6046	781.7	25.1
373	10570	0.6715	788.4	25.7
373	11370	0.7259	780.3	27.3
393	5060	0.455	713.7	25.7
393	5460	0.4831	744.8	23.8
393	6970	0.5129	771.1	23.5
393	8480	0.545	804.3	22.1
393	9970	0.5744	791.8	24.9
393	11470	0.6237	755.8	30.2
393	11970	0.6629	719.7	34.8

System: carbon dioxide + ethyl acetate; phases: Gas
Property: Mass density, kg/m3 (Gas); method: VIBTUB:UFactor:128
Temperature, K	Pressure, kPa	Mole fraction of carbon dioxide	Mass density, kg/m3	uncertainty
333	5360	0.1231	987.7	4.9
333	5960	0.1544	986	5.1
333	6470	0.1698	986.1	5.1
333	7570	0.2068	978.7	5.8
333	8460	0.2731	973.6	6.4
333	8970	0.3708	969.6	6.8
353	3960	0.0666	980.2	5.4
353	5060	0.0935	978.3	5.8
353	6270	0.127	973.9	6.1
353	7470	0.1822	967.8	6.8
353	8470	0.22	966.1	7.1
353	9470	0.2634	956	8.2
373	5690	0.0819	964.1	6.9
373	6460	0.1202	961.2	7.2
373	7960	0.1682	955.5	8
373	9470	0.2401	944	9.5
373	10570	0.352	923.9	11.8
373	11370	0.4692	913.5	13.3
393	5060	0.055	951.6	7.8
393	5460	0.0849	941.9	8.7
393	6970	0.1218	932.1	17.2
393	8480	0.1766	917.3	11.8
393	9970	0.255	895.6	14.5
393	11470	0.4	856.8	19.4
393	11970	0.6025	846.6	20.9
