Measured thermophysical data. Excess Molar Volumes and Surface Tensions of Xylene with Acetone or 2-Butanone at 298.15 K
Source: J. Chem. Eng. Data, 2004, 10.1021/je0341763
Compound 1: 1,3-dimethylbenzene, C8H10, InChI=1S/C8H10/c1-7-4-3-5-8(2)6-7/h3-6H,1-2H3, purity 99%
Compound 2: 1,4-dimethylbenzene, C8H10, InChI=1S/C8H10/c1-7-3-5-8(2)6-4-7/h3-6H,1-2H3, purity 99%
Compound 3: acetone, C3H6O, InChI=1S/C3H6O/c1-3(2)4/h1-2H3, purity 99.5%
Compound 4: butanone, C4H8O, InChI=1S/C4H8O/c1-3-4(2)5/h3H2,1-2H3, purity 99.5%
Compound 5: 1,2-dimethylbenzene, C8H10, InChI=1S/C8H10/c1-7-5-3-4-6-8(7)2/h3-6H,1-2H3, purity 99%

System: 1,3-dimethylbenzene; phases: Liquid
Property: Mass density, kg/m3 (Liquid); method: VIBTUB:UFactor:4
Temperature, K	Pressure, kPa	Mass density, kg/m3	uncertainty
298.15	101.325	859.78	0.49

System: 1,3-dimethylbenzene; phases: Liquid, Air at 1 atmosphere
Property: Surface tension liquid-gas, N/m (Liquid); method: Pendant drop shape
Temperature, K	Surface tension liquid-gas, N/m	uncertainty
298.15	0.02836	0.0003

System: 1,4-dimethylbenzene; phases: Liquid
Property: Mass density, kg/m3 (Liquid); method: VIBTUB:UFactor:4
Temperature, K	Pressure, kPa	Mass density, kg/m3	uncertainty
298.15	101.325	856.85	0.46

System: 1,4-dimethylbenzene; phases: Liquid, Air at 1 atmosphere
Property: Surface tension liquid-gas, N/m (Liquid); method: Pendant drop shape
Temperature, K	Surface tension liquid-gas, N/m	uncertainty
298.15	0.02789	0.00029

System: acetone; phases: Liquid
Property: Mass density, kg/m3 (Liquid); method: VIBTUB:UFactor:4
Temperature, K	Pressure, kPa	Mass density, kg/m3	uncertainty
298.15	101.325	784.39	0.61

System: acetone; phases: Liquid, Air at 1 atmosphere
Property: Surface tension liquid-gas, N/m (Liquid); method: Pendant drop shape
Temperature, K	Surface tension liquid-gas, N/m	uncertainty
298.15	0.02401	0.00026

System: butanone; phases: Liquid
Property: Mass density, kg/m3 (Liquid); method: VIBTUB:UFactor:4
Temperature, K	Pressure, kPa	Mass density, kg/m3	uncertainty
298.15	101.325	799.62	0.57

System: butanone; phases: Liquid, Air at 1 atmosphere
Property: Surface tension liquid-gas, N/m (Liquid); method: Pendant drop shape
Temperature, K	Surface tension liquid-gas, N/m	uncertainty
298.15	0.02428	0.00027

System: 1,2-dimethylbenzene; phases: Liquid
Property: Mass density, kg/m3 (Liquid); method: VIBTUB:UFactor:4
Temperature, K	Pressure, kPa	Mass density, kg/m3	uncertainty
298.15	101.325	875.92	0.42

System: 1,2-dimethylbenzene; phases: Liquid, Air at 1 atmosphere
Property: Surface tension liquid-gas, N/m (Liquid); method: Pendant drop shape
Temperature, K	Surface tension liquid-gas, N/m	uncertainty
298.15	0.02935	0.0003

System: acetone + 1,3-dimethylbenzene; phases: Liquid, Air at 1 atmosphere
Fixed: Temperature, K = 298.15
Property: Surface tension liquid-gas, N/m (Liquid); method: Pendant drop shape
Mole fraction of acetone	Surface tension liquid-gas, N/m	uncertainty
0.1027	0.02816	0.0003
0.1996	0.02795	0.0003
0.3049	0.02767	0.00029
0.4029	0.02731	0.00029
0.4993	0.02691	0.00029
0.6024	0.02641	0.00028
0.7002	0.02586	0.00028
0.801	0.02527	0.00027
0.9014	0.02466	0.00027

System: acetone + 1,3-dimethylbenzene; phases: Liquid
Fixed: Temperature, K = 298.15
Fixed: Pressure, kPa = 101
Property: Excess molar volume, m3/mol (Liquid); method: Calculated with densities of this investigation
Mole fraction of acetone	Excess molar volume, m3/mol	uncertainty
0.052	-1.8e-08	1e-08
0.0991	-3e-08	1e-08
0.1503	-4.2e-08	1e-08
0.2003	-5.1e-08	1e-08
0.2488	-6.2e-08	1e-08
0.2998	-6.7e-08	1e-08
0.355	-7.1e-08	1e-08
0.4006	-7.3e-08	1e-08
0.4493	-7.5e-08	1e-08
0.5	-7.4e-08	1e-08
0.5498	-7e-08	1e-08
0.6005	-6.5e-08	1e-08
0.65	-6e-08	1e-08
0.7	-5.1e-08	1e-08
0.7504	-4.5e-08	1e-08
0.8	-3.6e-08	1e-08
0.8507	-2.9e-08	1e-08
0.9002	-2e-08	1e-08
0.9498	-1.1e-08	1e-08

System: acetone + 1,4-dimethylbenzene; phases: Liquid, Air at 1 atmosphere
Fixed: Temperature, K = 298.15
Property: Surface tension liquid-gas, N/m (Liquid); method: Pendant drop shape
Mole fraction of acetone	Surface tension liquid-gas, N/m	uncertainty
0.1027	0.02769	0.00029
0.2022	0.02741	0.00029
0.3029	0.02711	0.00029
0.3993	0.02678	0.00028
0.5009	0.02641	0.00028
0.6006	0.02598	0.00028
0.7005	0.02551	0.00028
0.8002	0.02503	0.00027
0.9007	0.02451	0.00027

System: acetone + 1,4-dimethylbenzene; phases: Liquid
Fixed: Temperature, K = 298.15
Fixed: Pressure, kPa = 101
Property: Excess molar volume, m3/mol (Liquid); method: Calculated with densities of this investigation
Mole fraction of acetone	Excess molar volume, m3/mol	uncertainty
0.05	-2.5e-08	1e-08
0.1011	-4.5e-08	1e-08
0.1518	-6.7e-08	1e-08
0.2004	-8.6e-08	1e-08
0.2516	-9.9e-08	1e-08
0.3006	-1.11e-07	1e-08
0.3498	-1.19e-07	1e-08
0.4001	-1.25e-07	1e-08
0.4511	-1.28e-07	1e-08
0.5018	-1.29e-07	1e-08
0.5501	-1.27e-07	1e-08
0.6	-1.2e-07	1e-08
0.6499	-1.12e-07	1e-08
0.7024	-1.01e-07	1e-08
0.7505	-8.8e-08	1e-08
0.8003	-7.5e-08	1e-08
0.8512	-5.8e-08	1e-08
0.9002	-3.9e-08	1e-08
0.9484	-2.1e-08	1e-08

System: butanone + 1,2-dimethylbenzene; phases: Liquid, Air at 1 atmosphere
Fixed: Temperature, K = 298.15
Property: Surface tension liquid-gas, N/m (Liquid); method: Pendant drop shape
Mole fraction of butanone	Surface tension liquid-gas, N/m	uncertainty
0.1001	0.029	0.0003
0.2028	0.02858	0.0003
0.3001	0.02817	0.0003
0.4017	0.02768	0.00029
0.5006	0.02719	0.00029
0.6018	0.02665	0.00028
0.7012	0.02611	0.00028
0.8006	0.02555	0.00028
0.8994	0.02496	0.00027

System: butanone + 1,2-dimethylbenzene; phases: Liquid
Fixed: Temperature, K = 298.15
Fixed: Pressure, kPa = 101
Property: Excess molar volume, m3/mol (Liquid); method: Calculated with densities of this investigation
Mole fraction of butanone	Excess molar volume, m3/mol	uncertainty
0.0505	-3.8e-08	1e-08
0.0993	-7.1e-08	1e-08
0.15	-1.04e-07	1e-08
0.2029	-1.31e-07	1e-08
0.2507	-1.54e-07	1e-08
0.2996	-1.76e-07	1.1e-08
0.3496	-1.94e-07	1.1e-08
0.4002	-2.08e-07	1.1e-08
0.4497	-2.2e-07	1.1e-08
0.5015	-2.28e-07	1.1e-08
0.5517	-2.31e-07	1.1e-08
0.5998	-2.27e-07	1.1e-08
0.6499	-2.23e-07	1.1e-08
0.6998	-2.14e-07	1.1e-08
0.7498	-1.97e-07	1.1e-08
0.7997	-1.71e-07	1.1e-08
0.8501	-1.44e-07	1e-08
0.9007	-1.11e-07	1e-08
0.9502	-7e-08	1e-08

System: butanone + 1,3-dimethylbenzene; phases: Liquid, Air at 1 atmosphere
Fixed: Temperature, K = 298.15
Property: Surface tension liquid-gas, N/m (Liquid); method: Pendant drop shape
Mole fraction of butanone	Surface tension liquid-gas, N/m	uncertainty
0.1044	0.02799	0.0003
0.2015	0.02766	0.0003
0.3028	0.02729	0.00029
0.4011	0.02693	0.00029
0.5013	0.02653	0.00028
0.6009	0.02611	0.00028
0.6999	0.02568	0.00028
0.7999	0.02524	0.00027
0.9	0.02476	0.00027

System: butanone + 1,3-dimethylbenzene; phases: Liquid
Fixed: Temperature, K = 298.15
Fixed: Pressure, kPa = 101
Property: Excess molar volume, m3/mol (Liquid); method: Calculated with densities of this investigation
Mole fraction of butanone	Excess molar volume, m3/mol	uncertainty
0.051	-2.4e-08	1e-08
0.1005	-4.8e-08	1e-08
0.1547	-7.1e-08	1e-08
0.2009	-9.1e-08	1e-08
0.2509	-1.06e-07	1e-08
0.3013	-1.18e-07	1e-08
0.3499	-1.34e-07	1e-08
0.3995	-1.4e-07	1e-08
0.4495	-1.48e-07	1e-08
0.5008	-1.53e-07	1e-08
0.5502	-1.53e-07	1e-08
0.5995	-1.48e-07	1e-08
0.6512	-1.39e-07	1e-08
0.7008	-1.34e-07	1e-08
0.7504	-1.18e-07	1e-08
0.8001	-1.01e-07	1e-08
0.8519	-8.5e-08	1e-08
0.9002	-6.3e-08	1e-08
0.9495	-3.5e-08	1e-08

System: butanone + 1,4-dimethylbenzene; phases: Liquid, Air at 1 atmosphere
Fixed: Temperature, K = 298.15
Property: Surface tension liquid-gas, N/m (Liquid); method: Pendant drop shape
Mole fraction of butanone	Surface tension liquid-gas, N/m	uncertainty
0.0999	0.02758	0.00029
0.2007	0.02727	0.00029
0.3001	0.02695	0.00029
0.402	0.02662	0.00028
0.5001	0.02628	0.00028
0.6006	0.02591	0.00028
0.7009	0.02551	0.00028
0.8009	0.02512	0.00027
0.8999	0.02471	0.00027

System: butanone + 1,4-dimethylbenzene; phases: Liquid
Fixed: Temperature, K = 298.15
Fixed: Pressure, kPa = 101
Property: Excess molar volume, m3/mol (Liquid); method: Calculated with densities of this investigation
Mole fraction of butanone	Excess molar volume, m3/mol	uncertainty
0.0502	-3.3e-08	1e-08
0.1002	-6.5e-08	1e-08
0.1505	-9e-08	1e-08
0.1996	-1.13e-07	1e-08
0.2499	-1.35e-07	1e-08
0.2991	-1.57e-07	1e-08
0.3502	-1.7e-07	1.1e-08
0.4003	-1.83e-07	1.1e-08
0.4504	-1.92e-07	1.1e-08
0.4998	-1.95e-07	1.1e-08
0.5505	-1.91e-07	1.1e-08
0.5999	-1.88e-07	1.1e-08
0.6598	-1.77e-07	1.1e-08
0.7002	-1.72e-07	1.1e-08
0.7504	-1.54e-07	1e-08
0.7997	-1.39e-07	1e-08
0.8506	-1.08e-07	1e-08
0.8993	-8e-08	1e-08
0.9481	-4.8e-08	1e-08

System: acetone + 1,2-dimethylbenzene; phases: Liquid, Air at 1 atmosphere
Fixed: Temperature, K = 298.15
Property: Surface tension liquid-gas, N/m (Liquid); method: Pendant drop shape
Mole fraction of acetone	Surface tension liquid-gas, N/m	uncertainty
0.0995	0.02913	0.0003
0.2016	0.02884	0.0003
0.3047	0.02845	0.0003
0.403	0.02807	0.00029
0.4999	0.02758	0.00029
0.6017	0.02699	0.00029
0.6991	0.02634	0.00028
0.7998	0.02565	0.00028
0.9002	0.02486	0.00027

System: acetone + 1,2-dimethylbenzene; phases: Liquid
Fixed: Temperature, K = 298.15
Fixed: Pressure, kPa = 101
Property: Excess molar volume, m3/mol (Liquid); method: Calculated with densities of this investigation
Mole fraction of acetone	Excess molar volume, m3/mol	uncertainty
0.0501	-3.4e-08	1e-08
0.1	-6.1e-08	1e-08
0.1507	-8.8e-08	1e-08
0.2068	-1.09e-07	1e-08
0.2501	-1.25e-07	1e-08
0.3026	-1.42e-07	1e-08
0.3496	-1.54e-07	1e-08
0.3995	-1.6e-07	1e-08
0.4495	-1.65e-07	1.1e-08
0.5011	-1.71e-07	1.1e-08
0.5506	-1.71e-07	1.1e-08
0.6023	-1.68e-07	1.1e-08
0.65	-1.63e-07	1.1e-08
0.7007	-1.55e-07	1e-08
0.7501	-1.43e-07	1e-08
0.8004	-1.23e-07	1e-08
0.8501	-1.03e-07	1e-08
0.9006	-7.1e-08	1e-08
0.9495	-4.2e-08	1e-08
