Measured thermophysical data. Liquid-Liquid Equilibria of the System Water/Phosphoric Acid/ Diisopropyl Ether at (273.15, 283.15, and 293.15) K
Source: J. Chem. Eng. Data, 2004, 10.1021/je030158+
Compound 1: diisopropyl ether, C6H14O, InChI=1S/C6H14O/c1-5(2)7-6(3)4/h5-6H,1-4H3, purity 99.998%
Compound 2: phosphoric acid, H3O4P, InChI=1S/H3O4P/c1-5(2,3)4/h(H3,1,2,3,4), purity 88.53%
Compound 3: water, H2O, InChI=1S/H2O/h1H2

System: diisopropyl ether + phosphoric acid + water; phases: Liquid mixture 3, Liquid mixture 1, Liquid mixture 2
Fixed: Pressure, kPa = 77.99
Property: Mass fraction of diisopropyl ether (Liquid mixture 3); method: OTHER
Property: Mass fraction of diisopropyl ether (Liquid mixture 1); method: OTHER
Property: Mass fraction of diisopropyl ether (Liquid mixture 2); method: OTHER
Property: Mass fraction of water (Liquid mixture 3); method: OTHER
Property: Mass fraction of water (Liquid mixture 1); method: OTHER
Property: Mass fraction of water (Liquid mixture 2); method: OTHER
Temperature, K	Mass fraction of diisopropyl ether	uncertainty	Mass fraction of diisopropyl ether	uncertainty	Mass fraction of diisopropyl ether	uncertainty	Mass fraction of water	uncertainty	Mass fraction of water	uncertainty	Mass fraction of water	uncertainty
273.15	0.8887	0.005	0.0113	0.005	0.6178	0.005	0.016	0.005	0.3217	0.005	0.0669	0.005
283.15	0.9164	0.005	0.012	0.005	0.5708	0.005	0.0101	0.005	0.3017	0.005	0.0745	0.005
293.15	0.935	0.005	0.0255	0.005	0.5172	0.005	0.0096	0.005	0.2689	0.005	0.0718	0.005

System: diisopropyl ether + phosphoric acid + water; phases: Liquid mixture 3, Liquid mixture 2
Fixed: Pressure, kPa = 77.99
Property: Mass fraction of water (Liquid mixture 3); method: Titration method
Property: Mass fraction of water (Liquid mixture 2); method: Titration method
Property: Mass fraction of diisopropyl ether (Liquid mixture 2); method: Titration method
Temperature, K	Mass fraction of diisopropyl ether	Mass fraction of water	uncertainty	Mass fraction of water	uncertainty	Mass fraction of diisopropyl ether	uncertainty
273.15	0.9196	0.0133	0.005	0.0499	0.0052	0.6149	
283.15	0.9426	0.0091	0.005	0.0485	0.0052	0.5888	
293.15	0.9509	0.0094	0.005	0.0441	0.0052	0.5575	

System: diisopropyl ether + phosphoric acid + water; phases: Liquid mixture 2, Liquid mixture 1
Fixed: Pressure, kPa = 77.99
Property: Mass fraction of water (Liquid mixture 2); method: OTHER
Property: Mass fraction of diisopropyl ether (Liquid mixture 1); method: OTHER
Property: Mass fraction of water (Liquid mixture 1); method: OTHER
Temperature, K	Mass fraction of diisopropyl ether	Mass fraction of water	uncertainty	Mass fraction of diisopropyl ether	uncertainty	Mass fraction of water	uncertainty
293.15	0.9794	0.0093	0.0003	0.018	0.0005	0.2821	
293.15	0.9871	0.0087	0.0003	0.0035	0.0001	0.3962	
283.15	0.9888	0.0036	0.0001	0.0108	0.0003	0.4008	
273.15	0.9893	0.0031	0.0001	0.0074	0.0002	0.4782	
293.15	0.9908	0.0069	0.0002	0.0042	0.0001	0.7198	
293.15	0.9918	0.0082	0.0003	0.0087	0.0003	0.9913	
283.15	0.9934	0.0027	0.0001	0.0067	0.0002	0.7165	
273.15	0.9936	0.0025	0.0001	0.006	0.0002	0.7082	
283.15	0.9942	0.0058	0.0002	0.0079	0.0002	0.9921	
273.15	0.9944	0.0056	0.0002	0.0075	0.0002	0.9925	

System: diisopropyl ether + phosphoric acid + water; phases: Liquid mixture 3, Liquid mixture 1
Fixed: Pressure, kPa = 77.99
Property: Mass fraction of water (Liquid mixture 3); method: OTHER
Property: Mass fraction of diisopropyl ether (Liquid mixture 1); method: OTHER
Property: Mass fraction of water (Liquid mixture 1); method: OTHER
Temperature, K	Mass fraction of diisopropyl ether	Mass fraction of water	uncertainty	Mass fraction of diisopropyl ether	uncertainty	Mass fraction of water	uncertainty
283.15	0.3187	0.104	0.0031	0.0551	0.0017	0.189	
273.15	0.3228	0.0942	0.0028	0.0513	0.0015	0.1904	
293.15	0.3351	0.102	0.0031	0.0632	0.0019	0.1884	
273.15	0.3474	0.0968	0.0029	0.0426	0.0013	0.21	
283.15	0.3526	0.0989	0.003	0.0515	0.0015	0.1985	
293.15	0.3676	0.1014	0.003	0.0514	0.0015	0.2088	
273.15	0.3723	0.0895	0.0027	0.041	0.0012	0.2208	
293.15	0.3858	0.0969	0.0029	0.0417	0.0013	0.2271	
283.15	0.3892	0.0941	0.0028	0.0273	0.0008	0.2517	
273.15	0.4076	0.089	0.0027	0.0276	0.0008	0.2555	
283.15	0.4216	0.0884	0.0027	0.0227	0.0007	0.262	
293.15	0.4285	0.0875	0.0026	0.0288	0.0009	0.2474	
273.15	0.4592	0.086	0.0026	0.0182	0.0005	0.2893	
283.15	0.4866	0.0798	0.0024	0.0186	0.0006	0.2883	
273.15	0.4905	0.0843	0.0025	0.0106	0.0003	0.3075	
273.15	0.5374	0.0657	0.002	0.0153	0.0005	0.3185	
