Measured thermophysical data. Densities, Excess Molar Volumes, Viscosities, Speeds of Sound, Excess Isentropic Compressibilities, and Relative Permittivities for Alkyl (Methyl, Ethyl, Butyl, and Isoamyl) Acetates + Glycols at Different Temperatures
Source: J. Chem. Eng. Data, 2003, 10.1021/je0340248
Compound 1: methyl ethanoate, C3H6O2, InChI=1S/C3H6O2/c1-3(4)5-2/h1-2H3, purity 99%
Compound 2: ethyl acetate, C4H8O2, InChI=1S/C4H8O2/c1-3-6-4(2)5/h3H2,1-2H3, purity 99%
Compound 3: butyl ethanoate, C6H12O2, InChI=1S/C6H12O2/c1-3-4-5-8-6(2)7/h3-5H2,1-2H3, purity 99%
Compound 4: 3-methylbutyl ethanoate, C7H14O2, InChI=1S/C7H14O2/c1-6(2)4-5-9-7(3)8/h6H,4-5H2,1-3H3, purity 99%
Compound 5: 1,2-ethanediol, C2H6O2, InChI=1S/C2H6O2/c3-1-2-4/h3-4H,1-2H2, purity 99%
Compound 6: 1,2-propanediol, C3H8O2, InChI=1S/C3H8O2/c1-3(5)2-4/h3-5H,2H2,1H3, purity 99%
Compound 7: diethylene glycol, C4H10O3, InChI=1S/C4H10O3/c5-1-3-7-4-2-6/h5-6H,1-4H2, purity 99%
Compound 8: triethylene glycol, C6H14O4, InChI=1S/C6H14O4/c7-1-3-9-5-6-10-4-2-8/h7-8H,1-6H2, purity 99%

System: methyl ethanoate; phases: Liquid
Fixed: Pressure, kPa = 101.325
Property: Viscosity, Pa*s (Liquid); method: CAPTUB:UFactor:2
Temperature, K	Viscosity, Pa*s	uncertainty
298.15	0.000384	8e-06
308.15	0.000351	7e-06

System: methyl ethanoate; phases: Liquid
Fixed: Pressure, kPa = 101.325
Property: Speed of sound, m/s (Liquid); method: FPINT:UFactor:2
Temperature, K	Speed of sound, m/s	uncertainty
298.15	1150	2
308.15	1103	2

System: methyl ethanoate; phases: Liquid
Fixed: Pressure, kPa = 101.325
Property: Mass density, kg/m3 (Liquid); method: VIBTUB:UFactor:8
Temperature, K	Mass density, kg/m3	uncertainty
298.15	926.8	0.78
303.15	919.7	0.8
308.15	915.22	0.81
313.15	908.33	0.84

System: ethyl acetate; phases: Liquid
Fixed: Pressure, kPa = 101.325
Property: Viscosity, Pa*s (Liquid); method: CAPTUB:UFactor:2
Temperature, K	Viscosity, Pa*s	uncertainty
298.15	0.000428	8e-06
308.15	0.000387	8e-06

System: ethyl acetate; phases: Liquid
Fixed: Pressure, kPa = 101.325
Property: Speed of sound, m/s (Liquid); method: FPINT:UFactor:2
Temperature, K	Speed of sound, m/s	uncertainty
298.15	1138	2
308.15	1095	2

System: ethyl acetate; phases: Liquid
Fixed: Pressure, kPa = 101.325
Property: Mass density, kg/m3 (Liquid); method: VIBTUB:UFactor:8
Temperature, K	Mass density, kg/m3	uncertainty
298.15	894.55	0.88
303.15	888.48	0.9
308.15	882.5	0.92
313.15	875.97	0.94

System: butyl ethanoate; phases: Liquid
Fixed: Pressure, kPa = 101.325
Property: Viscosity, Pa*s (Liquid); method: CAPTUB:UFactor:2
Temperature, K	Viscosity, Pa*s	uncertainty
298.15	0.000674	1.2e-05
308.15	0.000594	1.1e-05

System: butyl ethanoate; phases: Liquid
Fixed: Pressure, kPa = 101.325
Property: Speed of sound, m/s (Liquid); method: FPINT:UFactor:2
Temperature, K	Speed of sound, m/s	uncertainty
298.15	1190	2
308.15	1150	2

System: butyl ethanoate; phases: Liquid
Fixed: Pressure, kPa = 101.325
Property: Mass density, kg/m3 (Liquid); method: VIBTUB:UFactor:8
Temperature, K	Mass density, kg/m3	uncertainty
298.15	876.19	0.94
303.15	871.27	0.96
308.15	865.43	0.98
313.15	860.48	1

System: 3-methylbutyl ethanoate; phases: Liquid
Fixed: Pressure, kPa = 101.325
Property: Viscosity, Pa*s (Liquid); method: CAPTUB:UFactor:2
Temperature, K	Viscosity, Pa*s	uncertainty
298.15	0.000781	1.3e-05
308.15	0.000747	1.3e-05

System: 3-methylbutyl ethanoate; phases: Liquid
Fixed: Pressure, kPa = 101.325
Property: Speed of sound, m/s (Liquid); method: FPINT:UFactor:2
Temperature, K	Speed of sound, m/s	uncertainty
298.15	1195	2
308.15	1154	2

System: 3-methylbutyl ethanoate; phases: Liquid
Fixed: Pressure, kPa = 101.325
Property: Mass density, kg/m3 (Liquid); method: VIBTUB:UFactor:8
Temperature, K	Mass density, kg/m3	uncertainty
298.15	866.21	0.97
303.15	861.05	0.99
308.15	855.85	1.01
313.15	852.95	1.02

System: 1,2-ethanediol; phases: Liquid
Fixed: Pressure, kPa = 101.325
Property: Viscosity, Pa*s (Liquid); method: CAPTUB:UFactor:2
Temperature, K	Viscosity, Pa*s	uncertainty
298.15	0.01482	0.000193
308.15	0.010478	0.000154

System: 1,2-ethanediol; phases: Liquid
Fixed: Pressure, kPa = 101.325
Property: Speed of sound, m/s (Liquid); method: FPINT:UFactor:2
Temperature, K	Speed of sound, m/s	uncertainty
298.15	1662	2
308.15	1635	2

System: 1,2-ethanediol; phases: Liquid
Fixed: Pressure, kPa = 101.325
Property: Mass density, kg/m3 (Liquid); method: VIBTUB:UFactor:8
Temperature, K	Mass density, kg/m3	uncertainty
298.15	1110	0.31
303.15	1106.63	0.3
308.15	1103.08	0.3
313.15	1099.64	0.29

System: 1,2-propanediol; phases: Liquid
Fixed: Pressure, kPa = 101.325
Property: Viscosity, Pa*s (Liquid); method: CAPTUB:UFactor:2
Temperature, K	Viscosity, Pa*s	uncertainty
298.15	0.043434	0.000605
308.15	0.024244	0.000469

System: 1,2-propanediol; phases: Liquid
Fixed: Pressure, kPa = 101.325
Property: Speed of sound, m/s (Liquid); method: FPINT:UFactor:2
Temperature, K	Speed of sound, m/s	uncertainty
298.15	1492	2
308.15	1454	2

System: 1,2-propanediol; phases: Liquid
Fixed: Pressure, kPa = 101.325
Property: Mass density, kg/m3 (Liquid); method: VIBTUB:UFactor:8
Temperature, K	Mass density, kg/m3	uncertainty
298.15	1032.75	0.32
303.15	1029.02	0.33
308.15	1025.4	0.34
313.15	1021.53	0.35

System: diethylene glycol; phases: Liquid
Fixed: Pressure, kPa = 101.325
Property: Viscosity, Pa*s (Liquid); method: CAPTUB:UFactor:2
Temperature, K	Viscosity, Pa*s	uncertainty
298.15	0.030012	0.00042
308.15	0.016972	0.000325

System: diethylene glycol; phases: Liquid
Fixed: Pressure, kPa = 101.325
Property: Speed of sound, m/s (Liquid); method: FPINT:UFactor:2
Temperature, K	Speed of sound, m/s	uncertainty
298.15	1580	2
308.15	1550	2

System: diethylene glycol; phases: Liquid
Fixed: Pressure, kPa = 101.325
Property: Mass density, kg/m3 (Liquid); method: VIBTUB:UFactor:8
Temperature, K	Mass density, kg/m3	uncertainty
298.15	1113.51	0.32
303.15	1109.56	0.31
308.15	1106.22	0.3
313.15	1103.02	0.3

System: triethylene glycol; phases: Liquid
Fixed: Pressure, kPa = 101.325
Property: Viscosity, Pa*s (Liquid); method: CAPTUB:UFactor:2
Temperature, K	Viscosity, Pa*s	uncertainty
298.15	0.034398	0.000457
308.15	0.021306	0.000355

System: triethylene glycol; phases: Liquid
Fixed: Pressure, kPa = 101.325
Property: Speed of sound, m/s (Liquid); method: FPINT:UFactor:2
Temperature, K	Speed of sound, m/s	uncertainty
298.15	1612	2
308.15	1586	2

System: triethylene glycol; phases: Liquid
Fixed: Pressure, kPa = 101.325
Property: Mass density, kg/m3 (Liquid); method: VIBTUB:UFactor:32
Temperature, K	Mass density, kg/m3	uncertainty
298.15	1119.59	0.75
303.15	1115.88	0.69
308.15	1111.96	0.63
313.15	1109.53	0.6

System: methyl ethanoate + 1,2-ethanediol; phases: Liquid
Fixed: Pressure, kPa = 101
Property: Viscosity, Pa*s (Liquid); method: CAPTUB:UFactor:2
Temperature, K	Mole fraction of methyl ethanoate	Viscosity, Pa*s	uncertainty
298.15	0.0444	0.011857	0.000156
298.15	0.1488	0.007177	0.000104
298.15	0.2505	0.004535	6.9e-05
298.15	0.3485	0.002996	4.6e-05
298.15	0.4411	0.002078	3.2e-05
298.15	0.4856	0.001758	2.8e-05
298.15	0.5507	0.00139	2.2e-05
298.15	0.6503	0.000994	1.7e-05
298.15	0.7489	0.000734	1.3e-05
298.15	0.8498	0.000554	1e-05
298.15	0.9453	0.000435	8e-06
308.15	0.0444	0.008678	0.000126
308.15	0.1488	0.005649	8.2e-05
308.15	0.2505	0.003788	5.6e-05
308.15	0.3485	0.002623	4e-05
308.15	0.4411	0.001882	2.9e-05
308.15	0.4856	0.001614	2.5e-05
308.15	0.5507	0.001296	2.1e-05
308.15	0.6503	0.000941	1.6e-05
308.15	0.7489	0.000697	1.2e-05
308.15	0.8498	0.000522	1e-05
308.15	0.9453	0.000404	8e-06

System: methyl ethanoate + 1,2-ethanediol; phases: Liquid
Fixed: Pressure, kPa = 101
Property: Speed of sound, m/s (Liquid); method: FPINT:UFactor:2
Temperature, K	Mole fraction of methyl ethanoate	Speed of sound, m/s	uncertainty
298.15	0.0444	1627	2
298.15	0.1488	1550	2
298.15	0.2505	1482	2
298.15	0.3485	1424	2
298.15	0.4411	1374	2
298.15	0.4856	1351	2
298.15	0.5507	1320	2
298.15	0.6503	1276	2
298.15	0.7489	1237	2
298.15	0.8498	1199	2
298.15	0.9453	1167	2
308.15	0.0444	1600	2
308.15	0.1488	1521	2
308.15	0.2505	1452	2
308.15	0.3485	1391	2
308.15	0.4411	1338	2
308.15	0.4856	1315	2
308.15	0.5507	1282	2
308.15	0.6503	1237	2
308.15	0.7489	1196	2
308.15	0.8498	1157	2
308.15	0.9453	1122	2

System: methyl ethanoate + 1,2-ethanediol; phases: Liquid
Fixed: Pressure, kPa = 101
Property: Mass density, kg/m3 (Liquid); method: VIBTUB:UFactor:8
Temperature, K	Mole fraction of methyl ethanoate	Mass density, kg/m3	uncertainty
298.15	0.0444	1100.26	0.3
298.15	0.1488	1077.91	0.32
298.15	0.2505	1056.96	0.35
298.15	0.3485	1037.61	0.4
298.15	0.4411	1020.06	0.45
298.15	0.4856	1011.89	0.48
298.15	0.5507	1000.2	0.51
298.15	0.6503	982.94	0.57
298.15	0.7489	966.49	0.63
298.15	0.8498	950.22	0.69
298.15	0.9453	935.24	0.74
303.15	0.0444	1096.48	0.3
303.15	0.1488	1073.64	0.31
303.15	0.2505	1052.6	0.35
303.15	0.3485	1033.23	0.4
303.15	0.4411	1015.63	0.46
303.15	0.4856	1007.39	0.49
303.15	0.5507	995.55	0.52
303.15	0.6503	977.9	0.58
303.15	0.7489	960.93	0.64
303.15	0.8498	944.03	0.7
303.15	0.9453	928.45	0.76
308.15	0.0444	1092.85	0.29
308.15	0.1488	1070.12	0.31
308.15	0.2505	1049.33	0.36
308.15	0.3485	1030.22	0.41
308.15	0.4411	1012.78	0.46
308.15	0.4856	1004.56	0.49
308.15	0.5507	992.71	0.53
308.15	0.6503	974.92	0.59
308.15	0.7489	957.65	0.65
308.15	0.8498	940.33	0.71
308.15	0.9453	924.26	0.77
313.15	0.0444	1089.11	0.29
313.15	0.1488	1065.97	0.32
313.15	0.2505	1045.05	0.36
313.15	0.3485	1025.91	0.42
313.15	0.4411	1008.44	0.47
313.15	0.4856	1000.19	0.5
313.15	0.5507	988.26	0.54
313.15	0.6503	970.21	0.6
313.15	0.7489	952.55	0.67
313.15	0.8498	934.64	0.73
313.15	0.9453	917.85	0.79

System: methyl ethanoate + diethylene glycol; phases: Liquid
Fixed: Pressure, kPa = 101
Property: Viscosity, Pa*s (Liquid); method: CAPTUB:UFactor:2
Temperature, K	Mole fraction of methyl ethanoate	Viscosity, Pa*s	uncertainty
298.15	0.0406	0.026415	0.000381
298.15	0.1512	0.018265	0.000291
298.15	0.2516	0.012721	0.000213
298.15	0.3488	0.008747	0.000153
298.15	0.44	0.006023	0.000109
298.15	0.4926	0.004811	8.9e-05
298.15	0.5504	0.003728	6.9e-05
298.15	0.6509	0.002345	4.4e-05
298.15	0.751	0.00144	2.7e-05
298.15	0.8504	0.000866	1.6e-05
298.15	0.9429	0.000527	1e-05
308.15	0.0406	0.014199	0.000295
308.15	0.1512	0.008812	0.000208
308.15	0.2516	0.00578	0.000154
308.15	0.3488	0.003883	0.000109
308.15	0.44	0.002698	7.7e-05
308.15	0.4926	0.002196	6.2e-05
308.15	0.5504	0.001757	4.7e-05
308.15	0.6509	0.001203	2.9e-05
308.15	0.751	0.000834	1.8e-05
308.15	0.8504	0.000586	1.2e-05
308.15	0.9429	0.000426	8e-06

System: methyl ethanoate + diethylene glycol; phases: Liquid
Fixed: Pressure, kPa = 101
Property: Speed of sound, m/s (Liquid); method: FPINT:UFactor:2
Temperature, K	Mole fraction of methyl ethanoate	Speed of sound, m/s	uncertainty
298.15	0.0406	1562	2
298.15	0.1512	1513	2
298.15	0.2516	1472	2
298.15	0.3488	1431	2
298.15	0.44	1392	2
298.15	0.4926	1370	2
298.15	0.5504	1345	2
298.15	0.6509	1301	2
298.15	0.751	1258	2
298.15	0.8504	1214	2
298.15	0.9429	1174	2
308.15	0.0406	1533	2
308.15	0.1512	1485	2
308.15	0.2516	1441	2
308.15	0.3488	1398	2
308.15	0.44	1357	2
308.15	0.4926	1334	2
308.15	0.5504	1308	2
308.15	0.6509	1260	2
308.15	0.751	1213	2
308.15	0.8504	1168	2
308.15	0.9429	1127	2

System: methyl ethanoate + diethylene glycol; phases: Liquid
Fixed: Pressure, kPa = 101
Property: Mass density, kg/m3 (Liquid); method: VIBTUB:UFactor:8
Temperature, K	Mole fraction of methyl ethanoate	Mass density, kg/m3	uncertainty
298.15	0.0406	1107.83	0.31
298.15	0.1512	1091.77	0.32
298.15	0.2516	1076.55	0.34
298.15	0.3488	1061.26	0.37
298.15	0.44	1046.36	0.41
298.15	0.4926	1037.46	0.44
298.15	0.5504	1027.35	0.46
298.15	0.6509	1008.76	0.51
298.15	0.751	988.53	0.57
298.15	0.8504	966.18	0.64
298.15	0.9429	942.76	0.72
303.15	0.0406	1103.83	0.31
303.15	0.1512	1087.47	0.32
303.15	0.2516	1071.84	0.34
303.15	0.3488	1056.15	0.38
303.15	0.44	1040.88	0.42
303.15	0.4926	1031.79	0.44
303.15	0.5504	1021.49	0.47
303.15	0.6509	1002.63	0.53
303.15	0.751	982.17	0.59
303.15	0.8504	959.59	0.66
303.15	0.9429	935.89	0.74
308.15	0.0406	1100.41	0.3
308.15	0.1512	1083.89	0.32
308.15	0.2516	1068.15	0.34
308.15	0.3488	1052.35	0.38
308.15	0.44	1036.96	0.42
308.15	0.4926	1027.79	0.45
308.15	0.5504	1017.4	0.48
308.15	0.6509	998.36	0.53
308.15	0.751	977.74	0.6
308.15	0.8504	955.04	0.67
308.15	0.9429	931.35	0.75
313.15	0.0406	1097.07	0.3
313.15	0.1512	1080.13	0.32
313.15	0.2516	1063.99	0.35
313.15	0.3488	1047.79	0.38
313.15	0.44	1032.05	0.43
313.15	0.4926	1022.69	0.46
313.15	0.5504	1012.1	0.49
313.15	0.6509	992.71	0.55
313.15	0.751	971.76	0.62
313.15	0.8504	948.73	0.69
313.15	0.9429	924.7	0.77

System: methyl ethanoate + triethylene glycol; phases: Liquid
Fixed: Pressure, kPa = 101
Property: Viscosity, Pa*s (Liquid); method: CAPTUB:UFactor:2
Temperature, K	Mole fraction of methyl ethanoate	Viscosity, Pa*s	uncertainty
298.15	0.0455	0.032014	0.000431
298.15	0.1522	0.025742	0.000356
298.15	0.2512	0.019759	0.000283
298.15	0.3504	0.014274	0.000211
298.15	0.4457	0.009869	0.00015
298.15	0.49	0.008158	0.000126
298.15	0.5519	0.006128	9.9e-05
298.15	0.6512	0.003687	6.3e-05
298.15	0.7516	0.002075	3.6e-05
298.15	0.8513	0.001103	2e-05
298.15	0.9424	0.000587	1.1e-05
308.15	0.0455	0.019446	0.000334
308.15	0.1522	0.015145	0.000274
308.15	0.2512	0.011485	0.000214
308.15	0.3504	0.008336	0.000157
308.15	0.4457	0.005882	0.000113
308.15	0.49	0.004935	9.6e-05
308.15	0.5519	0.003806	7.2e-05
308.15	0.6512	0.002422	4.3e-05
308.15	0.7516	0.001467	2.5e-05
308.15	0.8513	0.000854	1.5e-05
308.15	0.9424	0.000501	9e-06

System: methyl ethanoate + triethylene glycol; phases: Liquid
Fixed: Pressure, kPa = 101
Property: Speed of sound, m/s (Liquid); method: FPINT:UFactor:2
Temperature, K	Mole fraction of methyl ethanoate	Speed of sound, m/s	uncertainty
298.15	0.0455	1598	2
298.15	0.1522	1559	2
298.15	0.2512	1521	2
298.15	0.3504	1482	2
298.15	0.4457	1446	2
298.15	0.49	1428	2
298.15	0.5519	1402	2
298.15	0.6512	1357	2
298.15	0.7516	1305	2
298.15	0.8513	1246	2
298.15	0.9424	1188	2
308.15	0.0455	1572	2
308.15	0.1522	1533	2
308.15	0.2512	1493	2
308.15	0.3504	1452	2
308.15	0.4457	1414	2
308.15	0.49	1396	2
308.15	0.5519	1369	2
308.15	0.6512	1323	2
308.15	0.7516	1268	2
308.15	0.8513	1206	2
308.15	0.9424	1143	2

System: methyl ethanoate + triethylene glycol; phases: Liquid
Fixed: Pressure, kPa = 101
Property: Mass density, kg/m3 (Liquid); method: VIBTUB:UFactor:8
Temperature, K	Mole fraction of methyl ethanoate	Mass density, kg/m3	uncertainty
298.15	0.0455	1115.19	0.33
298.15	0.1522	1103.73	0.34
298.15	0.2512	1091.78	0.35
298.15	0.3504	1078.53	0.37
298.15	0.4457	1064.43	0.4
298.15	0.49	1057.35	0.42
298.15	0.5519	1046.77	0.44
298.15	0.6512	1027.79	0.48
298.15	0.7516	1005.3	0.54
298.15	0.8513	978.49	0.61
298.15	0.9424	948.8	0.71
303.15	0.0455	1111.41	0.32
303.15	0.1522	1099.72	0.33
303.15	0.2512	1087.49	0.35
303.15	0.3504	1073.91	0.37
303.15	0.4457	1059.49	0.4
303.15	0.49	1052.25	0.42
303.15	0.5519	1041.46	0.45
303.15	0.6512	1022.13	0.49
303.15	0.7516	999.28	0.55
303.15	0.8513	972.08	0.63
303.15	0.9424	941.98	0.72
308.15	0.0455	1107.51	0.31
308.15	0.1522	1095.8	0.33
308.15	0.2512	1083.5	0.34
308.15	0.3504	1069.84	0.37
308.15	0.4457	1055.35	0.4
308.15	0.49	1048.08	0.42
308.15	0.5519	1037.27	0.45
308.15	0.6512	1017.92	0.5
308.15	0.7516	995.06	0.56
308.15	0.8513	967.82	0.64
308.15	0.9424	937.63	0.74
313.15	0.0455	1105.03	0.31
313.15	0.1522	1093.05	0.32
313.15	0.2512	1080.38	0.34
313.15	0.3504	1066.3	0.37
313.15	0.4457	1051.39	0.41
313.15	0.49	1043.93	0.43
313.15	0.5519	1032.85	0.46
313.15	0.6512	1013.08	0.51
313.15	0.7516	989.76	0.57
313.15	0.8513	962.01	0.66
313.15	0.9424	931.21	0.75

System: 1,2-propanediol + methyl ethanoate; phases: Liquid
Fixed: Pressure, kPa = 101
Property: Viscosity, Pa*s (Liquid); method: CAPTUB:UFactor:2
Temperature, K	Mole fraction of methyl ethanoate	Viscosity, Pa*s	uncertainty
298.15	0.0465	0.034285	0.00048
298.15	0.1493	0.020441	0.000316
298.15	0.251	0.012351	0.000195
298.15	0.3512	0.007576	0.000123
298.15	0.4412	0.004915	8.3e-05
298.15	0.4906	0.003887	6.5e-05
298.15	0.5499	0.002939	5e-05
298.15	0.6483	0.001859	3.2e-05
298.15	0.7483	0.001176	2.1e-05
298.15	0.8499	0.000744	1.3e-05
298.15	0.9447	0.000489	9e-06
308.15	0.0465	0.019206	0.000372
308.15	0.1493	0.01162	0.00021
308.15	0.251	0.007189	0.000132
308.15	0.3512	0.004553	8.6e-05
308.15	0.4412	0.003063	5.8e-05
308.15	0.4906	0.002478	4.7e-05
308.15	0.5499	0.001932	3.5e-05
308.15	0.6483	0.001294	2.3e-05
308.15	0.7483	0.000875	1.6e-05
308.15	0.8499	0.000598	1.1e-05
308.15	0.9447	0.000425	8e-06

System: 1,2-propanediol + methyl ethanoate; phases: Liquid
Fixed: Pressure, kPa = 101
Property: Speed of sound, m/s (Liquid); method: FPINT:UFactor:2
Temperature, K	Mole fraction of methyl ethanoate	Speed of sound, m/s	uncertainty
298.15	0.0465	1472	2
298.15	0.1493	1429	2
298.15	0.251	1388	2
298.15	0.3512	1350	2
298.15	0.4412	1318	2
298.15	0.4906	1301	2
298.15	0.5499	1281	2
298.15	0.6483	1249	2
298.15	0.7483	1218	2
298.15	0.8499	1189	2
298.15	0.9447	1164	2
308.15	0.0465	1434	2
308.15	0.1493	1391	2
308.15	0.251	1350	2
308.15	0.3512	1313	2
308.15	0.4412	1281	2
308.15	0.4906	1264	2
308.15	0.5499	1244	2
308.15	0.6483	1211	2
308.15	0.7483	1178	2
308.15	0.8499	1147	2
308.15	0.9447	1119	2

System: 1,2-propanediol + methyl ethanoate; phases: Liquid
Fixed: Pressure, kPa = 101
Property: Mass density, kg/m3 (Liquid); method: VIBTUB:UFactor:8
Temperature, K	Mole fraction of methyl ethanoate	Mass density, kg/m3	uncertainty
298.15	0.0465	1027.72	0.34
298.15	0.1493	1016.8	0.39
298.15	0.251	1006.23	0.44
298.15	0.3512	995.96	0.48
298.15	0.4412	986.79	0.52
298.15	0.4906	981.76	0.54
298.15	0.5499	975.7	0.57
298.15	0.6483	965.55	0.61
298.15	0.7483	955.01	0.66
298.15	0.8499	943.97	0.7
298.15	0.9447	933.26	0.75
303.15	0.0465	1023.69	0.35
303.15	0.1493	1012.28	0.4
303.15	0.251	1001.34	0.45
303.15	0.3512	990.75	0.49
303.15	0.4412	981.3	0.54
303.15	0.4906	976.11	0.56
303.15	0.5499	969.85	0.59
303.15	0.6483	959.34	0.63
303.15	0.7483	948.45	0.68
303.15	0.8499	937.1	0.72
303.15	0.9447	926.21	0.77
308.15	0.0465	1020.09	0.36
308.15	0.1493	1008.63	0.41
308.15	0.251	997.58	0.46
308.15	0.3512	986.86	0.5
308.15	0.4412	977.29	0.55
308.15	0.4906	972.05	0.57
308.15	0.5499	965.73	0.6
308.15	0.6483	955.15	0.64
308.15	0.7483	944.2	0.69
308.15	0.8499	932.79	0.74
308.15	0.9447	921.8	0.78
313.15	0.0465	1015.96	0.37
313.15	0.1493	1004.03	0.42
313.15	0.251	992.61	0.47
313.15	0.3512	981.59	0.52
313.15	0.4412	971.76	0.56
313.15	0.4906	966.37	0.59
313.15	0.5499	959.87	0.62
313.15	0.6483	949	0.66
313.15	0.7483	937.77	0.71
313.15	0.8499	926.1	0.76
313.15	0.9447	914.96	0.8

System: diethylene glycol + ethyl acetate; phases: Liquid
Fixed: Pressure, kPa = 101
Property: Viscosity, Pa*s (Liquid); method: CAPTUB:UFactor:2
Temperature, K	Mole fraction of ethyl acetate	Viscosity, Pa*s	uncertainty
298.15	0.0441	0.026538	0.000379
298.15	0.1491	0.019331	0.000293
298.15	0.2504	0.013792	0.000217
298.15	0.3491	0.009631	0.000158
298.15	0.4487	0.006504	0.00011
298.15	0.5011	0.005226	9.1e-05
298.15	0.5485	0.004257	7.5e-05
298.15	0.6492	0.002692	4.8e-05
298.15	0.7505	0.001645	2.9e-05
298.15	0.8492	0.000988	1.8e-05
298.15	0.9445	0.000587	1.1e-05
308.15	0.0441	0.014599	0.000293
308.15	0.1491	0.010139	0.000215
308.15	0.2504	0.007076	0.000159
308.15	0.3491	0.004946	0.000115
308.15	0.4487	0.00342	7.9e-05
308.15	0.5011	0.002808	6.4e-05
308.15	0.5485	0.002345	5.2e-05
308.15	0.6492	0.001591	3.2e-05
308.15	0.7505	0.001068	2e-05
308.15	0.8492	0.000719	1.3e-05
308.15	0.9445	0.000487	9e-06

System: diethylene glycol + ethyl acetate; phases: Liquid
Fixed: Pressure, kPa = 101
Property: Speed of sound, m/s (Liquid); method: FPINT:UFactor:2
Temperature, K	Mole fraction of ethyl acetate	Speed of sound, m/s	uncertainty
298.15	0.0441	1557	2
298.15	0.1491	1501	2
298.15	0.2504	1444	2
298.15	0.3491	1393	2
298.15	0.4487	1346	2
298.15	0.5011	1322	2
298.15	0.5485	1301	2
298.15	0.6492	1261	2
298.15	0.7505	1223	2
298.15	0.8492	1189	2
298.15	0.9445	1157	2
308.15	0.0441	1527	2
308.15	0.1491	1467	2
308.15	0.2504	1410	2
308.15	0.3491	1358	2
308.15	0.4487	1311	2
308.15	0.5011	1287	2
308.15	0.5485	1267	2
308.15	0.6492	1226	2
308.15	0.7505	1188	2
308.15	0.8492	1151	2
308.15	0.9445	1116	2

System: diethylene glycol + ethyl acetate; phases: Liquid
Fixed: Pressure, kPa = 101
Property: Mass density, kg/m3 (Liquid); method: VIBTUB:UFactor:8
Temperature, K	Mole fraction of ethyl acetate	Mass density, kg/m3	uncertainty
298.15	0.0441	1103.89	0.31
298.15	0.1491	1081.32	0.32
298.15	0.2504	1059.83	0.35
298.15	0.3491	1039	0.4
298.15	0.4487	1017.94	0.46
298.15	0.5011	1006.8	0.49
298.15	0.5485	996.65	0.52
298.15	0.6492	974.85	0.59
298.15	0.7505	952.44	0.67
298.15	0.8492	930.05	0.75
298.15	0.9445	907.81	0.83
303.15	0.0441	1100.06	0.3
303.15	0.1491	1077.52	0.32
303.15	0.2504	1055.84	0.35
303.15	0.3491	1034.73	0.4
303.15	0.4487	1013.34	0.47
303.15	0.5011	1002.03	0.5
303.15	0.5485	991.74	0.54
303.15	0.6492	969.64	0.61
303.15	0.7505	946.98	0.68
303.15	0.8492	924.36	0.76
303.15	0.9445	901.89	0.84
308.15	0.0441	1096.4	0.3
308.15	0.1491	1073.43	0.32
308.15	0.2504	1051.57	0.36
308.15	0.3491	1030.34	0.41
308.15	0.4487	1008.79	0.48
308.15	0.5011	997.36	0.52
308.15	0.5485	986.94	0.55
308.15	0.6492	964.5	0.62
308.15	0.7505	941.47	0.7
308.15	0.8492	918.52	0.78
308.15	0.9445	895.89	0.86
313.15	0.0441	1092.83	0.29
313.15	0.1491	1069.24	0.32
313.15	0.2504	1047.06	0.36
313.15	0.3491	1025.66	0.42
313.15	0.4487	1004.01	0.49
313.15	0.5011	992.53	0.53
313.15	0.5485	982.07	0.56
313.15	0.6492	959.48	0.63
313.15	0.7505	936.2	0.71
313.15	0.8492	912.88	0.8
313.15	0.9445	889.73	0.88

System: triethylene glycol + ethyl acetate; phases: Liquid
Fixed: Pressure, kPa = 101
Property: Viscosity, Pa*s (Liquid); method: CAPTUB:UFactor:2
Temperature, K	Mole fraction of ethyl acetate	Viscosity, Pa*s	uncertainty
298.15	0.0466	0.03014	0.000403
298.15	0.1482	0.022048	0.000306
298.15	0.25	0.015585	0.000222
298.15	0.3499	0.010731	0.000158
298.15	0.4493	0.007167	0.00011
298.15	0.4995	0.005775	9.1e-05
298.15	0.5503	0.004602	7.5e-05
298.15	0.6497	0.002881	4.8e-05
298.15	0.749	0.001748	3e-05
298.15	0.8503	0.001015	1.8e-05
298.15	0.9417	0.000604	1.1e-05
308.15	0.0466	0.018654	0.000313
308.15	0.1482	0.013708	0.000228
308.15	0.25	0.009818	0.000164
308.15	0.3499	0.006905	0.000117
308.15	0.4493	0.004749	8.4e-05
308.15	0.4995	0.003896	6.8e-05
308.15	0.5503	0.003168	5.5e-05
308.15	0.6497	0.002076	3.5e-05
308.15	0.749	0.001329	2.2e-05
308.15	0.8503	0.000823	1.4e-05
308.15	0.9417	0.000523	1e-05

System: triethylene glycol + ethyl acetate; phases: Liquid
Fixed: Pressure, kPa = 101
Property: Speed of sound, m/s (Liquid); method: FPINT:UFactor:2
Temperature, K	Mole fraction of ethyl acetate	Speed of sound, m/s	uncertainty
298.15	0.0466	1592	2
298.15	0.1482	1547	2
298.15	0.25	1499	2
298.15	0.3499	1452	2
298.15	0.4493	1408	2
298.15	0.4995	1386	2
298.15	0.5503	1363	2
298.15	0.6497	1318	2
298.15	0.749	1271	2
298.15	0.8503	1220	2
298.15	0.9417	1171	2
308.15	0.0466	1567	2
308.15	0.1482	1523	2
308.15	0.25	1473	2
308.15	0.3499	1426	2
308.15	0.4493	1379	2
308.15	0.4995	1356	2
308.15	0.5503	1333	2
308.15	0.6497	1286	2
308.15	0.749	1236	2
308.15	0.8503	1181	2
308.15	0.9417	1130	2

System: triethylene glycol + ethyl acetate; phases: Liquid
Fixed: Pressure, kPa = 101
Property: Mass density, kg/m3 (Liquid); method: VIBTUB:UFactor:8
Temperature, K	Mole fraction of ethyl acetate	Mass density, kg/m3	uncertainty
298.15	0.0466	1112.15	0.32
298.15	0.1482	1095.3	0.33
298.15	0.25	1077.4	0.34
298.15	0.3499	1058.65	0.38
298.15	0.4493	1038.63	0.43
298.15	0.4995	1027.95	0.46
298.15	0.5503	1016.71	0.48
298.15	0.6497	993.4	0.55
298.15	0.749	968.18	0.62
298.15	0.8503	940.27	0.72
298.15	0.9417	913.03	0.81
303.15	0.0466	1108.39	0.32
303.15	0.1482	1091.27	0.32
303.15	0.25	1073.02	0.34
303.15	0.3499	1053.94	0.38
303.15	0.4493	1033.67	0.43
303.15	0.4995	1022.9	0.46
303.15	0.5503	1011.6	0.49
303.15	0.6497	988.21	0.56
303.15	0.749	962.95	0.64
303.15	0.8503	934.9	0.73
303.15	0.9417	907.33	0.83
308.15	0.0466	1104.32	0.31
308.15	0.1482	1086.97	0.32
308.15	0.25	1068.55	0.34
308.15	0.3499	1049.34	0.38
308.15	0.4493	1028.96	0.44
308.15	0.4995	1018.12	0.47
308.15	0.5503	1006.75	0.5
308.15	0.6497	983.2	0.57
308.15	0.749	957.73	0.65
308.15	0.8503	929.41	0.75
308.15	0.9417	901.55	0.84
313.15	0.0466	1101.76	0.3
313.15	0.1482	1084.07	0.32
313.15	0.25	1065.26	0.34
313.15	0.3499	1045.63	0.39
313.15	0.4493	1024.82	0.45
313.15	0.4995	1013.77	0.48
313.15	0.5503	1002.18	0.51
313.15	0.6497	978.19	0.59
313.15	0.749	952.29	0.67
313.15	0.8503	923.53	0.77
313.15	0.9417	895.28	0.87

System: 1,2-propanediol + ethyl acetate; phases: Liquid
Fixed: Pressure, kPa = 101
Property: Viscosity, Pa*s (Liquid); method: CAPTUB:UFactor:2
Temperature, K	Mole fraction of ethyl acetate	Viscosity, Pa*s	uncertainty
298.15	0.0451	0.032316	0.000438
298.15	0.1493	0.016843	0.000249
298.15	0.2515	0.009278	0.000133
298.15	0.3514	0.005396	8.1e-05
298.15	0.4393	0.003463	5.3e-05
298.15	0.5	0.002597	4e-05
298.15	0.5497	0.002075	3.2e-05
298.15	0.6505	0.001357	2.2e-05
298.15	0.7495	0.00093	1.6e-05
298.15	0.8499	0.000661	1.2e-05
298.15	0.9487	0.000491	9e-06
308.15	0.0451	0.019383	0.000339
308.15	0.1493	0.011715	0.000163
308.15	0.2515	0.00728	0.0001
308.15	0.3514	0.004653	6.8e-05
308.15	0.4393	0.003184	4.8e-05
308.15	0.5	0.002469	3.8e-05
308.15	0.5497	0.002014	3.1e-05
308.15	0.6505	0.001351	2.2e-05
308.15	0.7495	0.000928	1.6e-05
308.15	0.8499	0.000645	1.1e-05
308.15	0.9487	0.000459	9e-06

System: 1,2-propanediol + ethyl acetate; phases: Liquid
Fixed: Pressure, kPa = 101
Property: Speed of sound, m/s (Liquid); method: FPINT:UFactor:2
Temperature, K	Mole fraction of ethyl acetate	Speed of sound, m/s	uncertainty
298.15	0.0451	1463	2
298.15	0.1493	1401	2
298.15	0.2515	1343	2
298.15	0.3514	1294	2
298.15	0.4393	1255	2
298.15	0.5	1232	2
298.15	0.5497	1215	2
298.15	0.6505	1186	2
298.15	0.7495	1164	2
298.15	0.8499	1149	2
298.15	0.9487	1140	2
308.15	0.0451	1429	2
308.15	0.1493	1371	2
308.15	0.2515	1317	2
308.15	0.3514	1268	2
308.15	0.4393	1229	2
308.15	0.5	1205	2
308.15	0.5497	1186	2
308.15	0.6505	1153	2
308.15	0.7495	1128	2
308.15	0.8499	1109	2
308.15	0.9487	1098	2

System: 1,2-propanediol + ethyl acetate; phases: Liquid
Fixed: Pressure, kPa = 101
Property: Mass density, kg/m3 (Liquid); method: VIBTUB:UFactor:8
Temperature, K	Mole fraction of ethyl acetate	Mass density, kg/m3	uncertainty
298.15	0.0451	1024.21	0.35
298.15	0.1493	1005.58	0.42
298.15	0.2515	988.63	0.48
298.15	0.3514	973.2	0.55
298.15	0.4393	960.46	0.6
298.15	0.5	952.1	0.63
298.15	0.5497	945.49	0.66
298.15	0.6505	932.74	0.71
298.15	0.7495	921.01	0.76
298.15	0.8499	909.87	0.81
298.15	0.9487	899.61	0.85
303.15	0.0451	1020.33	0.36
303.15	0.1493	1001.36	0.43
303.15	0.2515	984.09	0.5
303.15	0.3514	968.36	0.56
303.15	0.4393	955.37	0.61
303.15	0.5	946.85	0.65
303.15	0.5497	940.12	0.68
303.15	0.6505	927.13	0.73
303.15	0.7495	915.21	0.78
303.15	0.8499	903.92	0.83
303.15	0.9487	893.57	0.87
308.15	0.0451	1016.53	0.37
308.15	0.1493	997.21	0.44
308.15	0.2515	979.68	0.51
308.15	0.3514	963.71	0.57
308.15	0.4393	950.52	0.63
308.15	0.5	941.84	0.66
308.15	0.5497	934.99	0.69
308.15	0.6505	921.75	0.75
308.15	0.7495	909.59	0.8
308.15	0.8499	898.1	0.85
308.15	0.9487	887.61	0.89
313.15	0.0451	1012.46	0.38
313.15	0.1493	992.76	0.45
313.15	0.2515	974.9	0.52
313.15	0.3514	958.63	0.59
313.15	0.4393	945.17	0.65
313.15	0.5	936.31	0.68
313.15	0.5497	929.3	0.71
313.15	0.6505	915.78	0.77
313.15	0.7495	903.37	0.82
313.15	0.8499	891.68	0.87
313.15	0.9487	881.09	0.91

System: triethylene glycol + butyl ethanoate; phases: Liquid
Fixed: Pressure, kPa = 101
Property: Viscosity, Pa*s (Liquid); method: CAPTUB:UFactor:2
Temperature, K	Mole fraction of butyl ethanoate	Viscosity, Pa*s	uncertainty
298.15	0.0452	0.031196	0.00042
298.15	0.1515	0.024062	0.000338
298.15	0.2488	0.018288	0.000265
298.15	0.3493	0.013276	0.000198
298.15	0.4464	0.009402	0.000144
298.15	0.4953	0.007798	0.000121
298.15	0.5495	0.006273	0.000101
298.15	0.6493	0.004084	6.9e-05
298.15	0.7488	0.002566	4.4e-05
298.15	0.8515	0.001528	2.6e-05
298.15	0.9421	0.000936	1.6e-05
308.15	0.0452	0.018956	0.000326
308.15	0.1515	0.014161	0.000254
308.15	0.2488	0.010622	0.000198
308.15	0.3493	0.007731	0.000147
308.15	0.4464	0.005575	0.000109
308.15	0.4953	0.004694	9.2e-05
308.15	0.5495	0.003856	7.4e-05
308.15	0.6493	0.002642	4.8e-05
308.15	0.7488	0.001776	3.1e-05
308.15	0.8515	0.001153	2e-05
308.15	0.9421	0.000774	1.4e-05

System: triethylene glycol + butyl ethanoate; phases: Liquid
Fixed: Pressure, kPa = 101
Property: Speed of sound, m/s (Liquid); method: FPINT:UFactor:2
Temperature, K	Mole fraction of butyl ethanoate	Speed of sound, m/s	uncertainty
298.15	0.0452	1586	2
298.15	0.1515	1524	2
298.15	0.2488	1470	2
298.15	0.3493	1420	2
298.15	0.4464	1375	2
298.15	0.4953	1355	2
298.15	0.5495	1334	2
298.15	0.6493	1298	2
298.15	0.7488	1265	2
298.15	0.8515	1233	2
298.15	0.9421	1207	2
308.15	0.0452	1559	2
308.15	0.1515	1498	2
308.15	0.2488	1446	2
308.15	0.3493	1395	2
308.15	0.4464	1350	2
308.15	0.4953	1329	2
308.15	0.5495	1307	2
308.15	0.6493	1267	2
308.15	0.7488	1232	2
308.15	0.8515	1197	2
308.15	0.9421	1168	2

System: triethylene glycol + butyl ethanoate; phases: Liquid
Fixed: Pressure, kPa = 101
Property: Mass density, kg/m3 (Liquid); method: VIBTUB:UFactor:8
Temperature, K	Mole fraction of butyl ethanoate	Mass density, kg/m3	uncertainty
298.15	0.0452	1108.89	0.32
298.15	0.1515	1083.49	0.32
298.15	0.2488	1060.06	0.35
298.15	0.3493	1035.73	0.4
298.15	0.4464	1012.14	0.47
298.15	0.4953	1000.24	0.51
298.15	0.5495	987.03	0.55
298.15	0.6493	962.66	0.63
298.15	0.7488	938.29	0.71
298.15	0.8515	913.02	0.8
298.15	0.9421	890.6	0.88
303.15	0.0452	1105.14	0.31
303.15	0.1515	1079.63	0.32
303.15	0.2488	1056.08	0.35
303.15	0.3493	1031.63	0.41
303.15	0.4464	1007.94	0.48
303.15	0.4953	995.98	0.52
303.15	0.5495	982.72	0.56
303.15	0.6493	958.25	0.64
303.15	0.7488	933.77	0.72
303.15	0.8515	908.37	0.81
303.15	0.9421	885.8	0.9
308.15	0.0452	1101.13	0.3
308.15	0.1515	1075.41	0.32
308.15	0.2488	1051.65	0.36
308.15	0.3493	1026.98	0.42
308.15	0.4464	1003.07	0.49
308.15	0.4953	991.02	0.53
308.15	0.5495	977.64	0.57
308.15	0.6493	952.97	0.65
308.15	0.7488	928.31	0.74
308.15	0.8515	902.74	0.83
308.15	0.9421	880.04	0.91
313.15	0.0452	1098.6	0.3
313.15	0.1515	1072.59	0.32
313.15	0.2488	1048.53	0.36
313.15	0.3493	1023.57	0.42
313.15	0.4464	999.41	0.5
313.15	0.4953	987.24	0.54
313.15	0.5495	973.75	0.58
313.15	0.6493	948.88	0.66
313.15	0.7488	924.03	0.75
313.15	0.8515	898.24	0.84
313.15	0.9421	875.29	0.93

System: 1,2-propanediol + butyl ethanoate; phases: Liquid
Fixed: Pressure, kPa = 101
Property: Viscosity, Pa*s (Liquid); method: CAPTUB:UFactor:2
Temperature, K	Mole fraction of butyl ethanoate	Viscosity, Pa*s	uncertainty
298.15	0.0445	0.031874	0.000439
298.15	0.1493	0.016098	0.000254
298.15	0.2487	0.008935	0.000139
298.15	0.3511	0.005175	8.4e-05
298.15	0.446	0.003295	5.3e-05
298.15	0.4973	0.002638	4.2e-05
298.15	0.5491	0.002141	3.4e-05
298.15	0.6504	0.001489	2.4e-05
298.15	0.7495	0.001106	1.9e-05
298.15	0.8489	0.00087	1.5e-05
298.15	0.946	0.000727	1.3e-05
308.15	0.0445	0.018512	0.00034
308.15	0.1493	0.010192	0.000156
308.15	0.2487	0.006083	9.5e-05
308.15	0.3511	0.003762	6e-05
308.15	0.446	0.002523	4.1e-05
308.15	0.4973	0.002071	3.4e-05
308.15	0.5491	0.001719	2.8e-05
308.15	0.6504	0.001241	2e-05
308.15	0.7495	0.000947	1.6e-05
308.15	0.8489	0.000759	1.3e-05
308.15	0.946	0.00064	1.2e-05

System: 1,2-propanediol + butyl ethanoate; phases: Liquid
Fixed: Pressure, kPa = 101
Property: Speed of sound, m/s (Liquid); method: FPINT:UFactor:2
Temperature, K	Mole fraction of butyl ethanoate	Speed of sound, m/s	uncertainty
298.15	0.0445	1467	2
298.15	0.1493	1407	2
298.15	0.2487	1355	2
298.15	0.3511	1310	2
298.15	0.446	1276	2
298.15	0.4973	1260	2
298.15	0.5491	1247	2
298.15	0.6504	1226	2
298.15	0.7495	1210	2
298.15	0.8489	1200	2
298.15	0.946	1194	2
308.15	0.0445	1429	2
308.15	0.1493	1372	2
308.15	0.2487	1322	2
308.15	0.3511	1280	2
308.15	0.446	1246	2
308.15	0.4973	1230	2
308.15	0.5491	1217	2
308.15	0.6504	1194	2
308.15	0.7495	1178	2
308.15	0.8489	1165	2
308.15	0.946	1155	2

System: 1,2-propanediol + butyl ethanoate; phases: Liquid
Fixed: Pressure, kPa = 101
Property: Mass density, kg/m3 (Liquid); method: VIBTUB:UFactor:8
Temperature, K	Mole fraction of butyl ethanoate	Mass density, kg/m3	uncertainty
298.15	0.0445	1020.01	0.36
298.15	0.1493	993.58	0.45
298.15	0.2487	972.28	0.53
298.15	0.3511	953.32	0.61
298.15	0.446	937.92	0.67
298.15	0.4973	930.34	0.7
298.15	0.5491	923.15	0.73
298.15	0.6504	910.32	0.78
298.15	0.7495	899.15	0.83
298.15	0.8489	889.19	0.87
298.15	0.946	880.55	0.91
303.15	0.0445	1016.1	0.37
303.15	0.1493	989.44	0.46
303.15	0.2487	968.01	0.55
303.15	0.3511	948.95	0.62
303.15	0.446	933.47	0.68
303.15	0.4973	925.83	0.72
303.15	0.5491	918.58	0.75
303.15	0.6504	905.62	0.8
303.15	0.7495	894.34	0.85
303.15	0.8489	884.29	0.89
303.15	0.946	875.62	0.93
308.15	0.0445	1012.28	0.38
308.15	0.1493	985.19	0.48
308.15	0.2487	963.42	0.56
308.15	0.3511	944.08	0.64
308.15	0.446	928.39	0.7
308.15	0.4973	920.66	0.73
308.15	0.5491	913.33	0.76
308.15	0.6504	900.23	0.82
308.15	0.7495	888.84	0.87
308.15	0.8489	878.67	0.91
308.15	0.946	869.86	0.95
313.15	0.0445	1008.28	0.39
313.15	0.1493	980.98	0.49
313.15	0.2487	959.09	0.57
313.15	0.3511	939.65	0.65
313.15	0.446	923.85	0.72
313.15	0.4973	916.07	0.75
313.15	0.5491	908.68	0.78
313.15	0.6504	895.46	0.83
313.15	0.7495	883.97	0.88
313.15	0.8489	873.72	0.93
313.15	0.946	864.9	0.97

System: 1,2-propanediol + 3-methylbutyl ethanoate; phases: Liquid
Fixed: Pressure, kPa = 101
Property: Viscosity, Pa*s (Liquid); method: CAPTUB:UFactor:2
Temperature, K	Mole fraction of 3-methylbutyl ethanoate	Viscosity, Pa*s	uncertainty
298.15	0.0455	0.031606	0.000435
298.15	0.1457	0.016423	0.000258
298.15	0.2483	0.008962	0.00014
298.15	0.3508	0.005224	8.4e-05
298.15	0.452	0.003269	5.2e-05
298.15	0.4959	0.002721	4.3e-05
298.15	0.5551	0.002165	3.4e-05
298.15	0.6523	0.00156	2.5e-05
298.15	0.7497	0.001191	2e-05
298.15	0.8495	0.000961	1.6e-05
298.15	0.9426	0.000831	1.4e-05
308.15	0.0455	0.018401	0.000337
308.15	0.1457	0.010429	0.000159
308.15	0.2483	0.006168	9.5e-05
308.15	0.3508	0.003864	6e-05
308.15	0.452	0.002574	4.1e-05
308.15	0.4959	0.002196	3.5e-05
308.15	0.5551	0.001802	2.9e-05
308.15	0.6523	0.001357	2.2e-05
308.15	0.7497	0.001075	1.8e-05
308.15	0.8495	0.000893	1.5e-05
308.15	0.9426	0.000788	1.4e-05

System: 1,2-propanediol + 3-methylbutyl ethanoate; phases: Liquid
Fixed: Pressure, kPa = 101
Property: Speed of sound, m/s (Liquid); method: FPINT:UFactor:2
Temperature, K	Mole fraction of 3-methylbutyl ethanoate	Speed of sound, m/s	uncertainty
298.15	0.0455	1460	2
298.15	0.1457	1398	2
298.15	0.2483	1346	2
298.15	0.3508	1304	2
298.15	0.452	1270	2
298.15	0.4959	1258	2
298.15	0.5551	1243	2
298.15	0.6523	1223	2
298.15	0.7497	1211	2
298.15	0.8495	1202	2
298.15	0.9426	1197	2
308.15	0.0455	1425	2
308.15	0.1457	1369	2
308.15	0.2483	1320	2
308.15	0.3508	1281	2
308.15	0.452	1248	2
308.15	0.4959	1235	2
308.15	0.5551	1220	2
308.15	0.6523	1199	2
308.15	0.7497	1182	2
308.15	0.8495	1169	2
308.15	0.9426	1160	2

System: 1,2-propanediol + 3-methylbutyl ethanoate; phases: Liquid
Fixed: Pressure, kPa = 101
Property: Mass density, kg/m3 (Liquid); method: VIBTUB:UFactor:8
Temperature, K	Mole fraction of 3-methylbutyl ethanoate	Mass density, kg/m3	uncertainty
298.15	0.0455	1017.21	0.37
298.15	0.1457	988	0.47
298.15	0.2483	963.53	0.56
298.15	0.3508	943.13	0.64
298.15	0.452	926.02	0.71
298.15	0.4959	919.36	0.74
298.15	0.5551	911.01	0.77
298.15	0.6523	898.71	0.82
298.15	0.7497	887.92	0.87
298.15	0.8495	878.28	0.91
298.15	0.9426	870.47	0.95
303.15	0.0455	1013.29	0.38
303.15	0.1457	983.78	0.48
303.15	0.2483	959.11	0.58
303.15	0.3508	938.57	0.66
303.15	0.452	921.33	0.73
303.15	0.4959	914.62	0.75
303.15	0.5551	906.21	0.79
303.15	0.6523	893.81	0.84
303.15	0.7497	882.93	0.89
303.15	0.8495	873.2	0.93
303.15	0.9426	865.34	0.96
308.15	0.0455	1009.48	0.39
308.15	0.1457	979.64	0.49
308.15	0.2483	954.73	0.59
308.15	0.3508	934.01	0.67
308.15	0.452	916.63	0.74
308.15	0.4959	909.86	0.77
308.15	0.5551	901.38	0.8
308.15	0.6523	888.88	0.86
308.15	0.7497	877.91	0.9
308.15	0.8495	868.1	0.95
308.15	0.9426	860.17	0.98
313.15	0.0455	1005.69	0.4
313.15	0.1457	976.02	0.5
313.15	0.2483	951.27	0.6
313.15	0.3508	930.68	0.68
313.15	0.452	913.4	0.75
313.15	0.4959	906.68	0.78
313.15	0.5551	898.24	0.81
313.15	0.6523	885.8	0.87
313.15	0.7497	874.87	0.91
313.15	0.8495	865.12	0.95
313.15	0.9426	857.24	0.99
