Measured thermophysical data. Dynamic Viscosities of 2-Pentanol with Alkanes (Octane, Decane, and Dodecane) at Three Temperatures T ) (293.15, 298.15, and 303.15) K. New UNIFAC-VISCO Interaction Parameters
Source: J. Chem. Eng. Data, 2004, 10.1021/je034208m
Compound 1: pentan-2-ol, C5H12O, InChI=1S/C5H12O/c1-3-4-5(2)6/h5-6H,3-4H2,1-2H3
Compound 2: octane, C8H18, InChI=1S/C8H18/c1-3-5-7-8-6-4-2/h3-8H2,1-2H3
Compound 3: decane, C10H22, InChI=1S/C10H22/c1-3-5-7-9-10-8-6-4-2/h3-10H2,1-2H3
Compound 4: dodecane, C12H26, InChI=1S/C12H26/c1-3-5-7-9-11-12-10-8-6-4-2/h3-12H2,1-2H3

System: pentan-2-ol; phases: Liquid
Fixed: Pressure, kPa = 101.325
Property: Viscosity, Pa*s (Liquid); method: CAPTUB:UFactor:2
Temperature, K	Viscosity, Pa*s	uncertainty
293.15	0.004001	7.5e-05
298.15	0.003273	6.3e-05
303.15	0.002708	5.3e-05

System: pentan-2-ol; phases: Liquid
Fixed: Pressure, kPa = 101.325
Property: Speed of sound, m/s (Liquid); method: Sing-around technique in a fixed-path interferometer
Temperature, K	Speed of sound, m/s	uncertainty
293.15	1250	2
298.15	1232	2
303.15	1214	2

System: pentan-2-ol; phases: Liquid
Fixed: Pressure, kPa = 101.325
Property: Mass density, kg/m3 (Liquid); method: VIBTUB:UFactor:4
Temperature, K	Mass density, kg/m3	uncertainty
293.15	809.04	0.99
298.15	805.01	0.99
298.15	805	0.99
303.15	800.9	0.99

System: octane; phases: Liquid
Fixed: Pressure, kPa = 101.325
Property: Viscosity, Pa*s (Liquid); method: CAPTUB::UFactor:2
Temperature, K	Viscosity, Pa*s	uncertainty
293.15	0.000538	1e-05
298.15	0.000506	9e-06
303.15	0.000478	9e-06

System: octane; phases: Liquid
Fixed: Pressure, kPa = 101.325
Property: Speed of sound, m/s (Liquid); method: Sing-around technique in a fixed-path interferometer
Temperature, K	Speed of sound, m/s	uncertainty
293.15	1193	1
298.15	1173	1
303.15	1152	1

System: octane; phases: Liquid
Fixed: Pressure, kPa = 101.325
Property: Mass density, kg/m3 (Liquid); method: VIBTUB::UFactor:4
Temperature, K	Mass density, kg/m3	uncertainty
293.15	702.57	0.78
298.15	698.54	0.79
303.15	694.49	0.8

System: decane; phases: Liquid
Fixed: Pressure, kPa = 101.325
Property: Viscosity, Pa*s (Liquid); method: CAPTUB::UFactor:2
Temperature, K	Viscosity, Pa*s	uncertainty
293.15	0.000911	1.6e-05
298.15	0.000845	1.5e-05
303.15	0.000787	1.4e-05

System: decane; phases: Liquid
Fixed: Pressure, kPa = 101.325
Property: Speed of sound, m/s (Liquid); method: Sing-around technique in a fixed-path interferometer
Temperature, K	Speed of sound, m/s	uncertainty
293.15	1254	1
298.15	1235	1
303.15	1215	1

System: decane; phases: Liquid
Fixed: Pressure, kPa = 101.325
Property: Mass density, kg/m3 (Liquid); method: VIBTUB::UFactor:4
Temperature, K	Mass density, kg/m3	uncertainty
293.15	729.89	0.8
298.15	726.12	0.8
303.15	722.33	0.81

System: dodecane; phases: Liquid
Fixed: Pressure, kPa = 101.325
Property: Viscosity, Pa*s (Liquid); method: CAPTUB::UFactor:2
Temperature, K	Viscosity, Pa*s	uncertainty
293.15	0.001454	2.4e-05
298.15	0.001327	2.2e-05
303.15	0.001219	2e-05

System: dodecane; phases: Liquid
Fixed: Pressure, kPa = 101.325
Property: Speed of sound, m/s (Liquid); method: Sing-around technique in a fixed-path interferometer
Temperature, K	Speed of sound, m/s	uncertainty
293.15	1297	1
298.15	1278	1
303.15	1259	1

System: dodecane; phases: Liquid
Fixed: Pressure, kPa = 101.325
Property: Mass density, kg/m3 (Liquid); method: VIBTUB::UFactor:4
Temperature, K	Mass density, kg/m3	uncertainty
293.15	748.54	0.77
298.15	744.9	0.77
303.15	741.27	0.78

System: octane + pentan-2-ol; phases: Liquid
Fixed: Pressure, kPa = 101.325
Property: Viscosity, Pa*s (Liquid); method: CAPTUB:UFactor:2
Temperature, K	Mole fraction of pentan-2-ol	Viscosity, Pa*s	uncertainty
293.15	0	0.000538	1e-05
293.15	0.0509	0.000548	1e-05
293.15	0.105	0.000566	1e-05
293.15	0.1853	0.000598	1.1e-05
293.15	0.2976	0.000658	1.2e-05
293.15	0.3968	0.000732	1.3e-05
293.15	0.4953	0.000841	1.5e-05
293.15	0.5965	0.001008	1.8e-05
293.15	0.6993	0.001296	2.4e-05
293.15	0.7971	0.001727	3.3e-05
293.15	0.8997	0.002531	4.8e-05
293.15	0.9509	0.00319	6e-05
293.15	1	0.004001	7.5e-05
298.15	0	0.000506	9e-06
298.15	0.0509	0.000517	9e-06
298.15	0.105	0.00053	1e-05
298.15	0.1853	0.00056	1e-05
298.15	0.2976	0.000613	1.1e-05
298.15	0.3968	0.000678	1.2e-05
298.15	0.4953	0.00077	1.4e-05
298.15	0.5965	0.000915	1.6e-05
298.15	0.6993	0.001147	2.1e-05
298.15	0.7971	0.001495	2.7e-05
298.15	0.8997	0.002133	4e-05
298.15	0.9509	0.002635	5e-05
298.15	1	0.003273	6.3e-05
303.15	0	0.000478	9e-06
303.15	0.0509	0.000486	9e-06
303.15	0.105	0.000498	9e-06
303.15	0.1853	0.000525	1e-05
303.15	0.2976	0.000572	1e-05
303.15	0.3968	0.000629	1.1e-05
303.15	0.4953	0.000709	1.3e-05
303.15	0.5965	0.000826	1.5e-05
303.15	0.6993	0.001022	1.8e-05
303.15	0.7971	0.001307	2.4e-05
303.15	0.8997	0.001821	3.4e-05
303.15	0.9509	0.002215	4.2e-05
303.15	1	0.002708	5.3e-05

System: octane + pentan-2-ol; phases: Liquid
Fixed: Pressure, kPa = 101.325
Property: Speed of sound, m/s (Liquid); method: Sing-around technique in a fixed-path interferometer
Temperature, K	Mole fraction of pentan-2-ol	Speed of sound, m/s	uncertainty
293.15	0	1193	1
293.15	0.0509	1190	1
293.15	0.105	1189	1
293.15	0.1853	1188	1
293.15	0.2976	1188	1
293.15	0.3968	1189	2
293.15	0.4953	1192	2
293.15	0.5965	1198	2
293.15	0.6993	1207	2
293.15	0.7971	1218	2
293.15	0.8997	1233	2
293.15	0.9509	1242	2
293.15	1	1250	2
298.15	0	1173	1
298.15	0.0509	1170	1
298.15	0.105	1169	1
298.15	0.1853	1168	1
298.15	0.2976	1168	1
298.15	0.3968	1169	2
298.15	0.4953	1172	2
298.15	0.5965	1178	2
298.15	0.6993	1187	2
298.15	0.7971	1199	2
298.15	0.8997	1214	2
298.15	0.9509	1223	2
298.15	1	1232	2
303.15	0	1152	1
303.15	0.0509	1149	1
303.15	0.105	1148	1
303.15	0.1853	1147	1
303.15	0.2976	1147	1
303.15	0.3968	1149	2
303.15	0.4953	1153	2
303.15	0.5965	1158	2
303.15	0.6993	1167	2
303.15	0.7971	1179	2
303.15	0.8997	1195	2
303.15	0.9509	1204	2
303.15	1	1214	2

System: octane + pentan-2-ol; phases: Liquid
Fixed: Pressure, kPa = 101.325
Property: Mass density, kg/m3 (Liquid); method: VIBTUB:UFactor:4
Temperature, K	Mole fraction of pentan-2-ol	Mass density, kg/m3	uncertainty
293.15	0	702.57	0.78
293.15	0.0509	705.58	0.78
293.15	0.105	709.15	0.78
293.15	0.1853	714.98	0.79
293.15	0.2976	723.78	0.8
293.15	0.3968	732.4	0.81
293.15	0.4953	741.91	0.83
293.15	0.5965	752.73	0.85
293.15	0.6993	764.97	0.88
293.15	0.7971	777.92	0.91
293.15	0.8997	792.82	0.95
293.15	0.9509	800.83	0.97
293.15	1	809.04	0.99
298.15	0	698.54	0.79
298.15	0.0509	701.48	0.79
298.15	0.105	705.03	0.79
298.15	0.1853	710.84	0.8
298.15	0.2976	719.63	0.8
298.15	0.3968	728.24	0.82
298.15	0.4953	737.73	0.83
298.15	0.5965	748.53	0.85
298.15	0.6993	760.76	0.88
298.15	0.7971	773.74	0.91
298.15	0.8997	788.69	0.95
298.15	0.9509	796.75	0.97
298.15	1	805.01	0.99
303.15	0	694.49	0.8
303.15	0.0509	697.35	0.8
303.15	0.105	700.87	0.8
303.15	0.1853	706.65	0.8
303.15	0.2976	715.43	0.81
303.15	0.3968	724.03	0.82
303.15	0.4953	733.5	0.84
303.15	0.5965	744.29	0.86
303.15	0.6993	756.5	0.88
303.15	0.7971	769.48	0.91
303.15	0.8997	784.49	0.95
303.15	0.9509	792.59	0.97
303.15	1	800.9	0.99

System: decane + pentan-2-ol; phases: Liquid
Fixed: Pressure, kPa = 101.325
Property: Viscosity, Pa*s (Liquid); method: CAPTUB:UFactor:2
Temperature, K	Mole fraction of pentan-2-ol	Viscosity, Pa*s	uncertainty
293.15	0	0.000911	1.6e-05
293.15	0.0487	0.000914	1.6e-05
293.15	0.0987	0.000912	1.6e-05
293.15	0.2043	0.000956	1.7e-05
293.15	0.2996	0.000989	1.7e-05
293.15	0.4006	0.001084	1.9e-05
293.15	0.5017	0.001149	2.1e-05
293.15	0.6002	0.0013	2.4e-05
293.15	0.6985	0.001531	2.8e-05
293.15	0.7992	0.001914	3.7e-05
293.15	0.8996	0.002626	5e-05
293.15	0.95	0.003205	6.1e-05
293.15	1	0.004001	7.5e-05
298.15	0	0.000845	1.5e-05
298.15	0.0487	0.000845	1.5e-05
298.15	0.0987	0.000844	1.5e-05
298.15	0.2043	0.000882	1.6e-05
298.15	0.2996	0.000909	1.6e-05
298.15	0.4006	0.00099	1.8e-05
298.15	0.5017	0.001044	1.9e-05
298.15	0.6002	0.001166	2.1e-05
298.15	0.6985	0.001352	2.5e-05
298.15	0.7992	0.001646	3e-05
298.15	0.8996	0.002214	4.2e-05
298.15	0.95	0.002651	5e-05
298.15	1	0.003273	6.3e-05
303.15	0	0.000787	1.4e-05
303.15	0.0487	0.000779	1.4e-05
303.15	0.0987	0.000782	1.4e-05
303.15	0.2043	0.00081	1.4e-05
303.15	0.2996	0.000842	1.5e-05
303.15	0.4006	0.000883	1.6e-05
303.15	0.5017	0.000952	1.7e-05
303.15	0.6002	0.001053	1.9e-05
303.15	0.6985	0.001201	2.2e-05
303.15	0.7992	0.001439	2.6e-05
303.15	0.8996	0.001888	3.5e-05
303.15	0.95	0.002244	4.2e-05
303.15	1	0.002708	5.3e-05

System: decane + pentan-2-ol; phases: Liquid
Fixed: Pressure, kPa = 101.325
Property: Speed of sound, m/s (Liquid); method: Sing-around technique in a fixed-path interferometer
Temperature, K	Mole fraction of pentan-2-ol	Speed of sound, m/s	uncertainty
293.15	0	1254	1
293.15	0.0487	1251	1
293.15	0.0987	1248	2
293.15	0.2043	1243	2
293.15	0.2996	1239	2
293.15	0.4006	1236	2
293.15	0.5017	1233	2
293.15	0.6002	1232	2
293.15	0.6985	1233	2
293.15	0.7992	1237	2
293.15	0.8996	1242	2
293.15	0.95	1246	2
293.15	1	1250	2
298.15	0	1235	1
298.15	0.0487	1231	1
298.15	0.0987	1228	2
298.15	0.2043	1223	2
298.15	0.2996	1220	2
298.15	0.4006	1216	2
298.15	0.5017	1214	2
298.15	0.6002	1213	2
298.15	0.6985	1214	2
298.15	0.7992	1217	2
298.15	0.8996	1223	2
298.15	0.95	1228	2
298.15	1	1232	2
303.15	0	1215	1
303.15	0.0487	1211	1
303.15	0.0987	1209	2
303.15	0.2043	1204	2
303.15	0.2996	1200	2
303.15	0.4006	1197	2
303.15	0.5017	1194	2
303.15	0.6002	1193	2
303.15	0.6985	1194	2
303.15	0.7992	1198	2
303.15	0.8996	1204	2
303.15	0.95	1209	2
303.15	1	1214	2

System: decane + pentan-2-ol; phases: Liquid
Fixed: Pressure, kPa = 101.325
Property: Mass density, kg/m3 (Liquid); method: VIBTUB:UFactor:4
Temperature, K	Mole fraction of pentan-2-ol	Mass density, kg/m3	uncertainty
293.15	0	729.89	0.8
293.15	0.0487	731.62	0.8
293.15	0.0987	733.41	0.81
293.15	0.2043	738.14	0.82
293.15	0.2996	742.88	0.84
293.15	0.4006	748.67	0.85
293.15	0.5017	755.31	0.87
293.15	0.6002	762.88	0.89
293.15	0.6985	771.67	0.91
293.15	0.7992	782.4	0.94
293.15	0.8996	794.55	0.96
293.15	0.95	801.5	0.98
293.15	1	809.04	0.99
298.15	0	726.12	0.8
298.15	0.0487	727.76	0.81
298.15	0.0987	729.53	0.82
298.15	0.2043	734.23	0.83
298.15	0.2996	738.94	0.84
298.15	0.4006	744.7	0.86
298.15	0.5017	751.3	0.88
298.15	0.6002	758.83	0.9
298.15	0.6985	767.58	0.92
298.15	0.7992	778.29	0.94
298.15	0.8996	790.46	0.96
298.15	0.95	797.43	0.98
298.15	1	805.01	0.99
303.15	0	722.33	0.81
303.15	0.0487	723.89	0.81
303.15	0.0987	725.62	0.82
303.15	0.2043	730.28	0.83
303.15	0.2996	734.96	0.85
303.15	0.4006	740.69	0.86
303.15	0.5017	747.25	0.88
303.15	0.6002	754.73	0.9
303.15	0.6985	763.44	0.92
303.15	0.7992	774.12	0.94
303.15	0.8996	786.3	0.96
303.15	0.95	793.28	0.98
303.15	1	800.9	0.99

System: dodecane + pentan-2-ol; phases: Liquid
Fixed: Pressure, kPa = 101.325
Property: Viscosity, Pa*s (Liquid); method: CAPTUB:UFactor:2
Temperature, K	Mole fraction of pentan-2-ol	Viscosity, Pa*s	uncertainty
293.15	0	0.001454	2.4e-05
293.15	0.049	0.001443	2.4e-05
293.15	0.0965	0.001441	2.4e-05
293.15	0.2065	0.001438	2.4e-05
293.15	0.2993	0.001465	2.5e-05
293.15	0.3986	0.001499	2.6e-05
293.15	0.5046	0.001563	2.7e-05
293.15	0.5974	0.001667	3e-05
293.15	0.7026	0.001865	3.4e-05
293.15	0.8001	0.002205	4.1e-05
293.15	0.8994	0.002786	5.3e-05
293.15	0.9497	0.003267	6.2e-05
293.15	1	0.004001	7.5e-05
298.15	0	0.001327	2.2e-05
298.15	0.049	0.001316	2.2e-05
298.15	0.0965	0.001312	2.2e-05
298.15	0.2065	0.001307	2.2e-05
298.15	0.2993	0.00133	2.3e-05
298.15	0.3986	0.001355	2.4e-05
298.15	0.5046	0.001406	2.5e-05
298.15	0.5974	0.001487	2.6e-05
298.15	0.7026	0.001635	3e-05
298.15	0.8001	0.0019	3.5e-05
298.15	0.8994	0.002347	4.4e-05
298.15	0.9497	0.002717	5.1e-05
298.15	1	0.003273	6.3e-05
303.15	0	0.001219	2e-05
303.15	0.049	0.001206	2e-05
303.15	0.0965	0.001201	2e-05
303.15	0.2065	0.001194	2e-05
303.15	0.2993	0.001211	2.1e-05
303.15	0.3986	0.001231	2.1e-05
303.15	0.5046	0.00127	2.2e-05
303.15	0.5974	0.001338	2.4e-05
303.15	0.7026	0.001447	2.6e-05
303.15	0.8001	0.001652	3e-05
303.15	0.8994	0.001998	3.7e-05
303.15	0.9497	0.002284	4.3e-05
303.15	1	0.002708	5.3e-05

System: dodecane + pentan-2-ol; phases: Liquid
Fixed: Pressure, kPa = 101.325
Property: Speed of sound, m/s (Liquid); method: Sing-around technique in a fixed-path interferometer
Temperature, K	Mole fraction of pentan-2-ol	Speed of sound, m/s	uncertainty
293.15	0	1297	1
293.15	0.049	1294	2
293.15	0.0965	1291	2
293.15	0.2065	1284	2
293.15	0.2993	1278	2
293.15	0.3986	1271	2
293.15	0.5046	1265	2
293.15	0.5974	1260	2
293.15	0.7026	1255	2
293.15	0.8001	1253	2
293.15	0.8994	1251	2
293.15	0.9497	1251	2
293.15	1	1250	2
298.15	0	1278	1
298.15	0.049	1275	1
298.15	0.0965	1271	2
298.15	0.2065	1265	2
298.15	0.2993	1259	2
298.15	0.3986	1252	2
298.15	0.5046	1246	2
298.15	0.5974	1241	2
298.15	0.7026	1236	2
298.15	0.8001	1233	2
298.15	0.8994	1232	2
298.15	0.9497	1232	2
298.15	1	1232	2
303.15	0	1259	1
303.15	0.049	1256	1
303.15	0.0965	1252	2
303.15	0.2065	1245	2
303.15	0.2993	1240	2
303.15	0.3986	1233	2
303.15	0.5046	1227	2
303.15	0.5974	1222	2
303.15	0.7026	1217	2
303.15	0.8001	1214	2
303.15	0.8994	1213	2
303.15	0.9497	1213	2
303.15	1	1214	2

System: dodecane + pentan-2-ol; phases: Liquid
Fixed: Pressure, kPa = 101.325
Property: Mass density, kg/m3 (Liquid); method: VIBTUB:UFactor:4
Temperature, K	Mole fraction of pentan-2-ol	Mass density, kg/m3	uncertainty
293.15	0	748.54	0.77
293.15	0.049	749.65	0.78
293.15	0.0965	750.77	0.78
293.15	0.2065	753.81	0.8
293.15	0.2993	756.86	0.82
293.15	0.3986	760.67	0.84
293.15	0.5046	765.6	0.86
293.15	0.5974	770.7	0.88
293.15	0.7026	777.76	0.91
293.15	0.8001	785.82	0.93
293.15	0.8994	795.9	0.96
293.15	0.9497	802.07	0.98
293.15	1	809.04	0.99
298.15	0	744.9	0.77
298.15	0.049	745.96	0.78
298.15	0.0965	747.03	0.79
298.15	0.2065	750.05	0.81
298.15	0.2993	753.06	0.83
298.15	0.3986	756.84	0.84
298.15	0.5046	761.71	0.87
298.15	0.5974	766.77	0.89
298.15	0.7026	773.76	0.91
298.15	0.8001	781.77	0.94
298.15	0.8994	791.84	0.96
298.15	0.9497	798.02	0.98
298.15	1	805	0.99
303.15	0	741.27	0.78
303.15	0.049	742.26	0.79
303.15	0.0965	743.3	0.79
303.15	0.2065	746.25	0.81
303.15	0.2993	749.23	0.83
303.15	0.3986	752.97	0.85
303.15	0.5046	757.79	0.87
303.15	0.5974	762.79	0.89
303.15	0.7026	769.72	0.91
303.15	0.8001	777.66	0.94
303.15	0.8994	787.71	0.96
303.15	0.9497	793.89	0.98
303.15	1	800.9	0.99
