Measured thermophysical data. Dynamic Viscosities of Diethyl Carbonate with Linear and Secondary Alcohols at Several Temperatures
Source: J. Chem. Eng. Data, 2004, 10.1021/je0341413
Compound 1: diethyl carbonate, C5H10O3, InChI=1S/C5H10O3/c1-3-7-5(6)8-4-2/h3-4H2,1-2H3
Compound 2: methanol, CH4O, InChI=1S/CH4O/c1-2/h2H,1H3
Compound 3: ethanol, C2H6O, InChI=1S/C2H6O/c1-2-3/h3H,2H2,1H3
Compound 4: propan-1-ol, C3H8O, InChI=1S/C3H8O/c1-2-3-4/h4H,2-3H2,1H3
Compound 5: propan-2-ol, C3H8O, InChI=1S/C3H8O/c1-3(2)4/h3-4H,1-2H3
Compound 6: butan-1-ol, C4H10O, InChI=1S/C4H10O/c1-2-3-4-5/h5H,2-4H2,1H3
Compound 7: butan-2-ol, C4H10O, InChI=1S/C4H10O/c1-3-4(2)5/h4-5H,3H2,1-2H3
Compound 8: pentan-1-ol, C5H12O, InChI=1S/C5H12O/c1-2-3-4-5-6/h6H,2-5H2,1H3

System: diethyl carbonate; phases: Liquid
Property: Mass density, kg/m3 (Liquid); method: VIBTUB:UFactor:4
Temperature, K	Pressure, kPa	Mass density, kg/m3	uncertainty
298.15	101.325	969.1	0.3

System: diethyl carbonate; phases: Liquid
Fixed: Pressure, kPa = 101.3
Property: Viscosity, Pa*s (Liquid); method: SPHERE:UFactor:4
Temperature, K	Viscosity, Pa*s	uncertainty
293.15	0.000795	2.5e-05
298.15	0.000749	2.4e-05
303.15	0.000699	2.2e-05
313.15	0.000623	2e-05

System: methanol; phases: Liquid
Property: Mass density, kg/m3 (Liquid); method: VIBTUB:UFactor:4
Temperature, K	Pressure, kPa	Mass density, kg/m3	uncertainty
298.15	101.325	786.6	0.5

System: methanol; phases: Liquid
Fixed: Pressure, kPa = 101.3
Property: Viscosity, Pa*s (Liquid); method: SPHERE::UFactor:4
Temperature, K	Viscosity, Pa*s	uncertainty
293.15	0.000591	1.9e-05
298.15	0.000553	1.8e-05
303.15	0.000514	1.6e-05
313.15	0.00045	1.4e-05

System: ethanol; phases: Liquid
Property: Mass density, kg/m3 (Liquid); method: VIBTUB:UFactor:4
Temperature, K	Pressure, kPa	Mass density, kg/m3	uncertainty
298.15	101.325	785	0.5

System: ethanol; phases: Liquid
Fixed: Pressure, kPa = 101.3
Property: Viscosity, Pa*s (Liquid); method: SPHERE::UFactor:4
Temperature, K	Viscosity, Pa*s	uncertainty
293.15	0.001194	3.7e-05
298.15	0.001105	3.5e-05
303.15	0.000972	3.1e-05
313.15	0.000826	2.6e-05

System: propan-1-ol; phases: Liquid
Property: Mass density, kg/m3 (Liquid); method: VIBTUB:UFactor:4
Temperature, K	Pressure, kPa	Mass density, kg/m3	uncertainty
298.15	101.325	799.5	0.5

System: propan-1-ol; phases: Liquid
Fixed: Pressure, kPa = 101.3
Property: Viscosity, Pa*s (Liquid); method: SPHERE::UFactor:4
Temperature, K	Viscosity, Pa*s	uncertainty
293.15	0.002198	6.9e-05
298.15	0.00197	6.2e-05
303.15	0.001707	5.4e-05
313.15	0.001361	4.3e-05

System: propan-2-ol; phases: Liquid
Property: Mass density, kg/m3 (Liquid); method: VIBTUB:UFactor:4
Temperature, K	Pressure, kPa	Mass density, kg/m3	uncertainty
298.15	101.325	780.9	0.5

System: propan-2-ol; phases: Liquid
Fixed: Pressure, kPa = 101.3
Property: Viscosity, Pa*s (Liquid); method: SPHERE::UFactor:4
Temperature, K	Viscosity, Pa*s	uncertainty
293.15	0.002386	7.5e-05
298.15	0.002098	6.7e-05
303.15	0.001763	5.6e-05
313.15	0.001325	4.2e-05

System: butan-1-ol; phases: Liquid
Property: Mass density, kg/m3 (Liquid); method: VIBTUB:UFactor:4
Temperature, K	Pressure, kPa	Mass density, kg/m3	uncertainty
298.15	101.325	805.9	0.4

System: butan-1-ol; phases: Liquid
Fixed: Pressure, kPa = 101.3
Property: Viscosity, Pa*s (Liquid); method: SPHERE::UFactor:4
Temperature, K	Viscosity, Pa*s	uncertainty
293.15	0.002941	9.2e-05
298.15	0.00262	8.3e-05
303.15	0.002255	7.1e-05
313.15	0.001754	5.6e-05

System: butan-2-ol; phases: Liquid
Property: Mass density, kg/m3 (Liquid); method: VIBTUB:UFactor:4
Temperature, K	Pressure, kPa	Mass density, kg/m3	uncertainty
298.15	101.325	802.4	0.5

System: butan-2-ol; phases: Liquid
Fixed: Pressure, kPa = 101.3
Property: Viscosity, Pa*s (Liquid); method: SPHERE::UFactor:8
Temperature, K	Viscosity, Pa*s	uncertainty
293.15	0.003619	0.000226
298.15	0.003115	0.000195
303.15	0.002503	0.000157
313.15	0.001784	0.000112

System: pentan-1-ol; phases: Liquid
Property: Mass density, kg/m3 (Liquid); method: VIBTUB:UFactor:4
Temperature, K	Pressure, kPa	Mass density, kg/m3	uncertainty
298.15	101.325	810.9	0.6

System: pentan-1-ol; phases: Liquid
Fixed: Pressure, kPa = 101.3
Property: Viscosity, Pa*s (Liquid); method: SPHERE::UFactor:4
Temperature, K	Viscosity, Pa*s	uncertainty
293.15	0.003979	0.000128
298.15	0.003347	0.000107
303.15	0.002932	9.3e-05
313.15	0.002256	7.2e-05

System: methanol + diethyl carbonate; phases: Liquid
Fixed: Pressure, kPa = 101.3
Property: Viscosity, Pa*s (Liquid); method: SPHERE:UFactor:4
Temperature, K	Mole fraction of diethyl carbonate	Viscosity, Pa*s	uncertainty
293.15	0	0.000591	1.9e-05
293.15	0.0513	0.000592	1.9e-05
293.15	0.1002	0.000596	1.9e-05
293.15	0.1972	0.000608	1.9e-05
293.15	0.2839	0.000623	2e-05
293.15	0.4038	0.000642	2e-05
293.15	0.5	0.000657	2.1e-05
293.15	0.5933	0.000675	2.1e-05
293.15	0.6417	0.000685	2.2e-05
293.15	0.7996	0.000722	2.3e-05
293.15	0.9014	0.00075	2.4e-05
293.15	0.9709	0.000782	2.5e-05
293.15	1	0.000795	2.5e-05
298.15	0	0.000553	1.8e-05
298.15	0.0496	0.000556	1.8e-05
298.15	0.0996	0.000558	1.8e-05
298.15	0.1985	0.000574	1.8e-05
298.15	0.2944	0.000588	1.9e-05
298.15	0.4014	0.000603	1.9e-05
298.15	0.4975	0.000615	1.9e-05
298.15	0.6068	0.000637	2e-05
298.15	0.7087	0.000658	2.1e-05
298.15	0.8365	0.000688	2.2e-05
298.15	0.9091	0.00071	2.2e-05
298.15	0.9598	0.000731	2.3e-05
298.15	1	0.000749	2.4e-05
303.15	0	0.000514	1.6e-05
303.15	0.049	0.000518	1.6e-05
303.15	0.0966	0.000524	1.7e-05
303.15	0.1958	0.000537	1.7e-05
303.15	0.2824	0.000548	1.7e-05
303.15	0.3914	0.000563	1.8e-05
303.15	0.4936	0.000578	1.8e-05
303.15	0.581	0.000592	1.9e-05
303.15	0.6945	0.000612	1.9e-05
303.15	0.7349	0.00062	2e-05
303.15	0.8512	0.000645	2e-05
303.15	0.9214	0.000663	2.1e-05
303.15	1	0.000699	2.2e-05
313.15	0	0.00045	1.4e-05
313.15	0.0509	0.000456	1.5e-05
313.15	0.0999	0.00046	1.5e-05
313.15	0.2009	0.000475	1.5e-05
313.15	0.2981	0.00049	1.6e-05
313.15	0.4009	0.000505	1.6e-05
313.15	0.5056	0.000524	1.7e-05
313.15	0.6062	0.000543	1.7e-05
313.15	0.7033	0.000561	1.8e-05
313.15	0.8055	0.000584	1.8e-05
313.15	0.902	0.000603	1.9e-05
313.15	0.9448	0.00061	1.9e-05
313.15	1	0.000623	2e-05

System: ethanol + diethyl carbonate; phases: Liquid
Fixed: Pressure, kPa = 101.3
Property: Viscosity, Pa*s (Liquid); method: SPHERE:UFactor:4
Temperature, K	Mole fraction of diethyl carbonate	Viscosity, Pa*s	uncertainty
293.15	0	0.001194	3.7e-05
293.15	0.0503	0.001098	3.4e-05
293.15	0.0997	0.001021	3.2e-05
293.15	0.198	0.000906	2.9e-05
293.15	0.3006	0.000835	2.6e-05
293.15	0.4031	0.000792	2.5e-05
293.15	0.5031	0.00077	2.4e-05
293.15	0.6063	0.000761	2.4e-05
293.15	0.6898	0.000755	2.4e-05
293.15	0.8066	0.000759	2.4e-05
293.15	0.895	0.00077	2.4e-05
293.15	0.945	0.000776	2.5e-05
293.15	1	0.000795	2.5e-05
298.15	0	0.001105	3.5e-05
298.15	0.0496	0.00105	3.3e-05
298.15	0.0973	0.000943	3e-05
298.15	0.1963	0.000835	2.6e-05
298.15	0.2985	0.000771	2.4e-05
298.15	0.398	0.000728	2.3e-05
298.15	0.5057	0.000714	2.3e-05
298.15	0.6032	0.000708	2.2e-05
298.15	0.7035	0.000703	2.2e-05
298.15	0.7999	0.000702	2.2e-05
298.15	0.8989	0.000714	2.3e-05
298.15	0.9283	0.000721	2.3e-05
298.15	1	0.000749	2.4e-05
303.15	0	0.000972	3.1e-05
303.15	0.0491	0.000899	2.8e-05
303.15	0.0984	0.000834	2.6e-05
303.15	0.1952	0.000754	2.4e-05
303.15	0.2961	0.000704	2.2e-05
303.15	0.3946	0.000673	2.1e-05
303.15	0.4859	0.000661	2.1e-05
303.15	0.5995	0.000649	2.1e-05
303.15	0.6959	0.000648	2e-05
303.15	0.7862	0.000649	2.1e-05
303.15	0.8911	0.000661	2.1e-05
303.15	0.9254	0.000669	2.1e-05
303.15	1	0.000699	2.2e-05
313.15	0	0.000826	2.6e-05
313.15	0.0499	0.000777	2.5e-05
313.15	0.102	0.00074	2.3e-05
313.15	0.2038	0.000676	2.1e-05
313.15	0.3116	0.000636	2e-05
313.15	0.4001	0.000613	1.9e-05
313.15	0.4971	0.0006	1.9e-05
313.15	0.6023	0.00059	1.9e-05
313.15	0.7058	0.000591	1.9e-05
313.15	0.8065	0.000596	1.9e-05
313.15	0.9022	0.000608	1.9e-05
313.15	0.9518	0.000616	1.9e-05
313.15	1	0.000623	2e-05

System: propan-1-ol + diethyl carbonate; phases: Liquid
Fixed: Pressure, kPa = 101.3
Property: Viscosity, Pa*s (Liquid); method: SPHERE:UFactor:4
Temperature, K	Mole fraction of diethyl carbonate	Viscosity, Pa*s	uncertainty
293.15	0	0.002198	6.9e-05
293.15	0.0504	0.0019	6e-05
293.15	0.1007	0.001662	5.3e-05
293.15	0.2008	0.001325	4.2e-05
293.15	0.3019	0.001115	3.5e-05
293.15	0.4004	0.000998	3.2e-05
293.15	0.5039	0.000921	2.9e-05
293.15	0.6031	0.000877	2.8e-05
293.15	0.7007	0.00084	2.7e-05
293.15	0.7999	0.000808	2.6e-05
293.15	0.9132	0.000786	2.5e-05
293.15	0.9531	0.000785	2.5e-05
293.15	1	0.000795	2.5e-05
298.15	0	0.00197	6.2e-05
298.15	0.0515	0.001689	5.3e-05
298.15	0.0993	0.001482	4.7e-05
298.15	0.2012	0.001178	3.7e-05
298.15	0.3007	0.001005	3.2e-05
298.15	0.4026	0.000904	2.9e-05
298.15	0.5022	0.000845	2.7e-05
298.15	0.6029	0.000801	2.5e-05
298.15	0.7041	0.000762	2.4e-05
298.15	0.8087	0.00073	2.3e-05
298.15	0.9065	0.000721	2.3e-05
298.15	0.9523	0.000729	2.3e-05
298.15	1	0.000749	2.4e-05
303.15	0	0.001707	5.4e-05
303.15	0.0464	0.001494	4.7e-05
303.15	0.0963	0.001315	4.1e-05
303.15	0.1968	0.001062	3.3e-05
303.15	0.2981	0.000907	2.9e-05
303.15	0.3987	0.000818	2.6e-05
303.15	0.4958	0.000771	2.4e-05
303.15	0.5991	0.000732	2.3e-05
303.15	0.6967	0.000703	2.2e-05
303.15	0.8063	0.000678	2.1e-05
303.15	0.908	0.000674	2.1e-05
303.15	0.9448	0.000682	2.2e-05
303.15	1	0.000699	2.2e-05
313.15	0	0.001361	4.3e-05
313.15	0.05	0.001214	3.8e-05
313.15	0.1018	0.001087	3.4e-05
313.15	0.2001	0.000911	2.9e-05
313.15	0.3017	0.000795	2.5e-05
313.15	0.3958	0.000727	2.3e-05
313.15	0.504	0.000674	2.1e-05
313.15	0.6009	0.000642	2e-05
313.15	0.7032	0.000624	2e-05
313.15	0.7998	0.00061	1.9e-05
313.15	0.8997	0.000608	1.9e-05
313.15	0.9468	0.000612	1.9e-05
313.15	1	0.000623	2e-05

System: propan-2-ol + diethyl carbonate; phases: Liquid
Fixed: Pressure, kPa = 101.3
Property: Viscosity, Pa*s (Liquid); method: SPHERE:UFactor:4
Temperature, K	Mole fraction of diethyl carbonate	Viscosity, Pa*s	uncertainty
293.15	0	0.002386	7.5e-05
293.15	0.0502	0.001973	6.2e-05
293.15	0.1001	0.00167	5.3e-05
293.15	0.203	0.00127	4.1e-05
293.15	0.3012	0.001073	3.4e-05
293.15	0.3954	0.000962	3.1e-05
293.15	0.5021	0.000886	2.8e-05
293.15	0.6035	0.000841	2.7e-05
293.15	0.6976	0.000811	2.6e-05
293.15	0.8048	0.000794	2.5e-05
293.15	0.9129	0.000796	2.5e-05
293.15	0.9529	0.000799	2.5e-05
293.15	1	0.000795	2.5e-05
298.15	0	0.002098	6.7e-05
298.15	0.049	0.001766	5.6e-05
298.15	0.0987	0.001501	4.8e-05
298.15	0.1978	0.001135	3.6e-05
298.15	0.2945	0.00094	3e-05
298.15	0.3925	0.000836	2.7e-05
298.15	0.4925	0.000788	2.5e-05
298.15	0.5939	0.000763	2.4e-05
298.15	0.7004	0.00074	2.3e-05
298.15	0.7979	0.000719	2.3e-05
298.15	0.8967	0.000717	2.3e-05
298.15	0.9504	0.000726	2.3e-05
298.15	1	0.000749	2.4e-05
303.15	0	0.001763	5.6e-05
303.15	0.0522	0.001468	4.6e-05
303.15	0.099	0.001277	4e-05
303.15	0.1944	0.001009	3.2e-05
303.15	0.2913	0.000864	2.7e-05
303.15	0.392	0.000777	2.5e-05
303.15	0.4763	0.000733	2.3e-05
303.15	0.5883	0.000702	2.2e-05
303.15	0.6972	0.000683	2.2e-05
303.15	0.7854	0.00068	2.1e-05
303.15	0.889	0.000684	2.2e-05
303.15	0.9488	0.00069	2.2e-05
303.15	1	0.000699	2.2e-05
313.15	0	0.001325	4.2e-05
313.15	0.0506	0.001148	3.6e-05
313.15	0.0997	0.001011	3.2e-05
313.15	0.2016	0.000821	2.6e-05
313.15	0.303	0.00071	2.2e-05
313.15	0.4008	0.000661	2.1e-05
313.15	0.4969	0.000634	2e-05
313.15	0.599	0.000617	2e-05
313.15	0.7007	0.000604	1.9e-05
313.15	0.8011	0.000594	1.9e-05
313.15	0.903	0.000596	1.9e-05
313.15	0.9511	0.000605	1.9e-05
313.15	1	0.000623	2e-05

System: butan-1-ol + diethyl carbonate; phases: Liquid
Fixed: Pressure, kPa = 101.3
Property: Viscosity, Pa*s (Liquid); method: SPHERE:UFactor:4
Temperature, K	Mole fraction of diethyl carbonate	Viscosity, Pa*s	uncertainty
293.15	0	0.002941	9.2e-05
293.15	0.051	0.0025	7.9e-05
293.15	0.1027	0.002148	6.8e-05
293.15	0.2008	0.001672	5.3e-05
293.15	0.2978	0.001376	4.4e-05
293.15	0.4026	0.001173	3.7e-05
293.15	0.5079	0.001031	3.3e-05
293.15	0.6014	0.000944	3e-05
293.15	0.7033	0.000878	2.8e-05
293.15	0.7986	0.000841	2.7e-05
293.15	0.9031	0.000814	2.6e-05
293.15	0.951	0.00081	2.6e-05
293.15	1	0.000795	2.5e-05
298.15	0	0.00262	8.3e-05
298.15	0.0519	0.002203	7e-05
298.15	0.0993	0.001899	6e-05
298.15	0.1996	0.001445	4.6e-05
298.15	0.2923	0.001195	3.8e-05
298.15	0.3989	0.00103	3.3e-05
298.15	0.5017	0.000939	3e-05
298.15	0.6016	0.000874	2.8e-05
298.15	0.7043	0.000815	2.6e-05
298.15	0.8002	0.000766	2.4e-05
298.15	0.8968	0.000736	2.3e-05
298.15	0.9471	0.000734	2.3e-05
298.15	1	0.000749	2.4e-05
303.15	0	0.002255	7.1e-05
303.15	0.0508	0.001905	6e-05
303.15	0.1004	0.001642	5.2e-05
303.15	0.2016	0.0013	4.1e-05
303.15	0.3	0.001101	3.5e-05
303.15	0.3917	0.000977	3.1e-05
303.15	0.5032	0.00087	2.7e-05
303.15	0.597	0.000794	2.5e-05
303.15	0.7099	0.000729	2.3e-05
303.15	0.8216	0.000699	2.2e-05
303.15	0.9035	0.000697	2.2e-05
303.15	0.9488	0.000697	2.2e-05
303.15	1	0.000699	2.2e-05
313.15	0	0.001754	5.6e-05
313.15	0.0506	0.001535	4.8e-05
313.15	0.1007	0.001356	4.3e-05
313.15	0.2005	0.00109	3.4e-05
313.15	0.2975	0.000926	2.9e-05
313.15	0.4122	0.000802	2.5e-05
313.15	0.5035	0.000741	2.3e-05
313.15	0.6084	0.000691	2.2e-05
313.15	0.7044	0.000656	2.1e-05
313.15	0.8055	0.000634	2e-05
313.15	0.9016	0.000618	2e-05
313.15	0.9486	0.000617	2e-05
313.15	1	0.000623	2e-05

System: butan-2-ol + diethyl carbonate; phases: Liquid
Fixed: Pressure, kPa = 101.3
Property: Viscosity, Pa*s (Liquid); method: SPHERE:UFactor:8
Temperature, K	Mole fraction of diethyl carbonate	Viscosity, Pa*s	uncertainty
293.15	0	0.003619	0.000226
293.15	0.0512	0.002892	0.000181
293.15	0.1031	0.002341	0.000147
293.15	0.2021	0.001652	0.000104
293.15	0.2997	0.001289	8.1e-05
293.15	0.4023	0.001092	6.9e-05
293.15	0.5115	0.000979	6.2e-05
293.15	0.607	0.00091	5.7e-05
293.15	0.707	0.000861	5.4e-05
293.15	0.8038	0.000825	5.2e-05
293.15	0.9089	0.000804	5.1e-05
293.15	0.9524	0.000803	5.1e-05
293.15	1	0.000795	5e-05
298.15	0	0.003115	0.000195
298.15	0.0509	0.002485	0.000156
298.15	0.101	0.002001	0.000125
298.15	0.202	0.001379	8.6e-05
298.15	0.3002	0.001071	6.7e-05
298.15	0.404	0.000937	5.9e-05
298.15	0.5003	0.000888	5.6e-05
298.15	0.6008	0.000858	5.4e-05
298.15	0.6963	0.000813	5.1e-05
298.15	0.7987	0.000752	4.7e-05
298.15	0.8999	0.000709	4.5e-05
298.15	0.9466	0.000712	4.5e-05
298.15	1	0.000749	4.7e-05
303.15	0	0.002503	0.000157
303.15	0.0517	0.002023	0.000127
303.15	0.1132	0.001623	0.000102
303.15	0.2267	0.001211	7.6e-05
303.15	0.3316	0.001021	6.4e-05
303.15	0.4467	0.00089	5.6e-05
303.15	0.5422	0.000809	5.1e-05
303.15	0.6426	0.000739	4.7e-05
303.15	0.7416	0.000698	4.4e-05
303.15	0.8281	0.000684	4.3e-05
303.15	0.9196	0.000691	4.4e-05
303.15	0.9494	0.000697	4.4e-05
303.15	1	0.000699	4.4e-05
313.15	0	0.001784	0.000112
313.15	0.0511	0.001503	9.4e-05
313.15	0.1026	0.00128	8e-05
313.15	0.1988	0.000996	6.3e-05
313.15	0.2955	0.00083	5.2e-05
313.15	0.4041	0.000738	4.7e-05
313.15	0.5084	0.00069	4.3e-05
313.15	0.5983	0.000662	4.2e-05
313.15	0.6988	0.000636	4e-05
313.15	0.8034	0.00061	3.8e-05
313.15	0.9022	0.000601	3.8e-05
313.15	0.9523	0.000606	3.8e-05
313.15	1	0.000623	3.9e-05

System: pentan-1-ol + diethyl carbonate; phases: Liquid
Fixed: Pressure, kPa = 101.3
Property: Viscosity, Pa*s (Liquid); method: SPHERE:UFactor:4
Temperature, K	Mole fraction of diethyl carbonate	Viscosity, Pa*s	uncertainty
293.15	0	0.003979	0.000128
293.15	0.0496	0.003384	0.000109
293.15	0.1016	0.002868	9.2e-05
293.15	0.2034	0.002125	6.8e-05
293.15	0.3124	0.001618	5.2e-05
293.15	0.3801	0.001412	4.5e-05
293.15	0.5085	0.001162	3.7e-05
293.15	0.6047	0.001051	3.3e-05
293.15	0.7068	0.000955	3e-05
293.15	0.8058	0.00088	2.8e-05
293.15	0.9058	0.000825	2.6e-05
293.15	0.9521	0.000804	2.5e-05
293.15	1	0.000795	2.5e-05
298.15	0	0.003347	0.000107
298.15	0.0459	0.00291	9.3e-05
298.15	0.0984	0.002492	8e-05
298.15	0.2067	0.001857	5.9e-05
298.15	0.3012	0.001497	4.8e-05
298.15	0.4002	0.001242	3.9e-05
298.15	0.5091	0.001067	3.4e-05
298.15	0.5884	0.000972	3.1e-05
298.15	0.6988	0.000871	2.8e-05
298.15	0.7986	0.000802	2.5e-05
298.15	0.9133	0.000751	2.4e-05
298.15	0.9663	0.000745	2.4e-05
298.15	1	0.000749	2.4e-05
303.15	0	0.002932	9.3e-05
303.15	0.0541	0.002471	7.9e-05
303.15	0.0951	0.002186	7e-05
303.15	0.1968	0.001664	5.3e-05
303.15	0.292	0.001356	4.3e-05
303.15	0.3986	0.001131	3.6e-05
303.15	0.4966	0.000992	3.1e-05
303.15	0.5963	0.00088	2.8e-05
303.15	0.6847	0.000803	2.5e-05
303.15	0.7988	0.000733	2.3e-05
303.15	0.8885	0.000706	2.2e-05
303.15	0.9493	0.0007	2.2e-05
303.15	1	0.000699	2.2e-05
313.15	0	0.002256	7.2e-05
313.15	0.0505	0.00197	6.3e-05
313.15	0.1009	0.001729	5.5e-05
313.15	0.2038	0.001359	4.3e-05
313.15	0.3044	0.00112	3.6e-05
313.15	0.4054	0.00096	3e-05
313.15	0.5077	0.000845	2.7e-05
313.15	0.5969	0.000771	2.4e-05
313.15	0.71	0.000697	2.2e-05
313.15	0.81	0.00065	2.1e-05
313.15	0.9036	0.000623	2e-05
313.15	0.9537	0.000621	2e-05
313.15	1	0.000623	2e-05
