Measured thermophysical data. Oxygenated Gasoline Additives: Saturated Heat Capacities between (277 and 355) K
Source: J. Chem. Eng. Data, 2004, 10.1021/je0340699
Compound 1: 2-methoxy-2-methylpropane, C5H12O, InChI=1S/C5H12O/c1-5(2,3)6-4/h1-4H3, purity 99.5%
Compound 2: 2-ethoxy-2-methylpropane, C6H14O, InChI=1S/C6H14O/c1-5-7-6(2,3)4/h5H2,1-4H3, purity 97%
Compound 3: diisopropyl ether, C6H14O, InChI=1S/C6H14O/c1-5(2)7-6(3)4/h5-6H,1-4H3, purity 99%
Compound 4: 2-methoxy-2-methylbutane, C6H14O, InChI=1S/C6H14O/c1-5-6(2,3)7-4/h5H2,1-4H3, purity 97%

System: 2-methoxy-2-methylpropane; phases: Liquid, Gas
Property: Molar heat capacity at saturation pressure, J/K/mol (Liquid); method: Large sample (1 g) DSC
Temperature, K	Molar heat capacity at saturation pressure, J/K/mol	uncertainty
277.15	180.9	2.8
279.15	181.4	2.8
281.16	182.3	2.8
283.15	183.1	2.8
285.15	183.8	2.8
287.14	184.4	2.9
289.16	185.3	2.9
291.15	186	2.9
293.16	186.8	2.9
295.15	187.7	2.9
297.14	188.3	2.9
299.14	189	2.9
301.16	189.7	2.9
303.16	190.4	3
305.15	191.1	3
307.15	191.8	3
309.16	192.6	3
311.16	193.2	3
313.15	193.9	3
315.15	194.6	3
317.14	195.2	3
319.16	196	3
321.15	196.5	3
323.15	197.3	3.1
325.15	198	3.1

System: 2-ethoxy-2-methylpropane; phases: Liquid, Gas
Property: Molar heat capacity at saturation pressure, J/K/mol (Liquid); method: Large sample (1 g) DSC
Temperature, K	Molar heat capacity at saturation pressure, J/K/mol	uncertainty
277.14	211.4	3.3
281.17	213.3	3.3
283.15	214.2	3.3
285.16	215.2	3.3
287.15	216	3.3
289.16	216.9	3.4
291.14	217.7	3.4
293.14	218.5	3.4
295.15	219.3	3.4
297.14	220.1	3.4
299.15	220.9	3.4
301.14	221.7	3.4
303.16	222.6	3.4
305.14	223.3	3.5
307.15	224.2	3.5
309.14	225.3	3.5
311.15	225.9	3.5
313.14	226.7	3.5
315.16	227.6	3.5
317.14	228.6	3.5
319.15	229.5	3.6
321.14	230.1	3.6
323.15	231	3.6
325.14	231.7	3.6
327.16	232.6	3.6
329.15	233.3	3.6
331.16	234.2	3.6
333.15	235.1	3.6
335.16	235.9	3.7
338.16	237.1	3.7
339.14	237.4	3.7
341.15	238.1	3.7

System: diisopropyl ether; phases: Liquid, Gas
Property: Molar heat capacity at saturation pressure, J/K/mol (Liquid); method: Large sample (1 g) DSC
Temperature, K	Molar heat capacity at saturation pressure, J/K/mol	uncertainty
277.17	207.7	3.2
279.16	208.5	3.2
281.15	209.4	3.2
283.14	210.4	3.3
285.16	211.3	3.3
287.16	212.2	3.3
289.15	213.1	3.3
291.17	214	3.3
293.15	214.8	3.3
295.16	215.5	3.3
297.16	216.3	3.4
299.16	217.2	3.4
301.16	218	3.4
303.15	218.7	3.4
305.14	219.5	3.4
307.14	220.3	3.4
309.16	221	3.4
311.15	222	3.4
313.15	222.7	3.5
315.15	223.6	3.5
317.17	224.4	3.5
319.16	225.1	3.5
321.15	225.9	3.5
323.14	226.7	3.5
325.14	227.4	3.5
327.13	228.3	3.5
329.16	229	3.5
331.15	229.9	3.6
333.15	230.5	3.6
335.14	231.4	3.6
337.14	232.2	3.6

System: 2-methoxy-2-methylbutane; phases: Liquid, Gas
Property: Molar heat capacity at saturation pressure, J/K/mol (Liquid); method: Large sample (1 g) DSC
Temperature, K	Molar heat capacity at saturation pressure, J/K/mol	uncertainty
279.16	206.8	3.2
281.15	207.7	3.2
283.16	208.5	3.2
285.16	209.3	3.2
287.16	210.2	3.3
289.16	211	3.3
291.17	211.7	3.3
293.15	212.5	3.3
295.15	213.5	3.3
297.16	214.5	3.3
299.16	215.3	3.3
301.14	216.1	3.3
303.14	216.9	3.4
305.15	217.8	3.4
307.15	218.3	3.4
309.15	219.1	3.4
311.16	220.1	3.4
313.16	220.6	3.4
315.13	221.3	3.4
317.13	222.1	3.4
319.14	222.8	3.5
321.14	223.5	3.5
323.14	224.5	3.5
325.15	225	3.5
327.16	225.7	3.5
329.16	226.7	3.5
331.17	227.4	3.5
333.13	228.1	3.5
335.14	228.9	3.5
337.14	229.7	3.6
339.15	230.4	3.6
341.16	231	3.6
343.17	231.9	3.6
345.14	232.6	3.6
347.14	233.5	3.6
349.15	234.3	3.6
351.15	234.9	3.6
353.16	235.7	3.7
355.14	236.4	3.7
