Measured thermophysical data. Solubility of Flurbiprofen in Supercritical Carbon Dioxide
Source: J. Chem. Eng. Data, 2004, 10.1021/je034099b
Compound 1: 2-(2-fluoro-4-biphenylyl)propanoic acid, C15H13FO2, InChI=1S/C15H13FO2/c1-10(15(17)18)12-7-8-13(14(16)9-12)11-5-3-2-4-6-11/h2-10H,1H3,(H,17,18), purity 97%
Compound 2: ethanol, C2H6O, InChI=1S/C2H6O/c1-2-3/h3H,2H2,1H3, purity 99.8%
Compound 3: carbon dioxide, CO2, InChI=1S/CO2/c2-1-3, purity 99.998%

System: carbon dioxide + 2-(2-fluoro-4-biphenylyl)propanoic acid; phases: Fluid (supercritical or subcritical phases), Crystal 1
Property: Mole fraction of 2-(2-fluoro-4-biphenylyl)propanoic acid (Fluid (supercritical or subcritical phases)); method: OTHER
Temperature, K	Pressure, kPa	Mole fraction of 2-(2-fluoro-4-biphenylyl)propanoic acid	uncertainty
303	8900	2.17e-05	3.9e-06
303	11200	2.897e-05	5.22e-06
303	13100	3.53e-05	6.37e-06
303	14100	4.144e-05	7.49e-06
303	15300	5.312e-05	9.58e-06
303	17300	5.991e-05	1.08e-05
303	18500	6.236e-05	1.124e-05
303	19500	7.259e-05	1.311e-05
303	21900	7.896e-05	1.426e-05
303	23100	8.211e-05	1.482e-05
303	24500	8.337e-05	1.507e-05
313	9800	1.672e-05	3.12e-06
313	11800	3.608e-05	6.56e-06
313	13100	5.389e-05	9.72e-06
313	14100	5.25e-05	9.47e-06
313	15300	6.646e-05	1.2e-05
313	17100	8.116e-05	1.465e-05
313	20200	0.00012563	2.264e-05
313	23400	0.00013904	2.506e-05
313	24400	0.0001495	2.695e-05
323	11200	2.603e-05	4.79e-06
323	13300	5.272e-05	9.56e-06
323	16600	0.00010179	1.84e-05
323	17700	0.00014012	2.526e-05
323	19700	0.00014838	2.672e-05
323	20600	0.00016213	2.921e-05
323	23400	0.00019683	3.546e-05

System: ethanol + carbon dioxide + 2-(2-fluoro-4-biphenylyl)propanoic acid; phases: Fluid (supercritical or subcritical phases), Crystal
Fixed: Pressure, kPa = 18000
Fixed: Temperature, K = 313
Property: Mole fraction of 2-(2-fluoro-4-biphenylyl)propanoic acid (Fluid (supercritical or subcritical phases)); method: OTHER
Solvent: Mole fraction of ethanol	Mole fraction of 2-(2-fluoro-4-biphenylyl)propanoic acid	uncertainty
0	4.848e-05	8.73e-06
0.025	0.00037648	6.777e-05
0.05	0.00078519	0.00014133
0.075	0.00155522	0.00027994
0.1	0.00367575	0.00066164
