Measured thermophysical data. Determination of Physical Properties for the Binary System of 1-Ethyl-3-methylimidazolium Tetrafluoroborate + H2O
Source: J. Chem. Eng. Data, 2004, 10.1021/je030191w
Compound 1: water, H2O, InChI=1S/H2O/h1H2
Compound 2: 1-ethyl-3-methylimidazolium tetrafluoroborate, C6H11BF4N2, InChI=1S/C6H11N2.BF4/c1-3-8-5-4-7(2)6-8;2-1(3,4)5/h4-6H,3H2,1-2H3;/q+1;-1, purity 99%

System: 1-ethyl-3-methylimidazolium tetrafluoroborate; phases: Liquid
Fixed: Pressure, kPa = 101
Property: Viscosity, Pa*s (Liquid); method: CAPTUB:UFactor:16
Temperature, K	Viscosity, Pa*s	uncertainty
293.15	0.04529	0.002944
298.15	0.03719	0.00244
303.15	0.031362	0.002077
308.15	0.025557	0.001715
313.15	0.021537	0.001464
318.15	0.018838	0.001296
323.15	0.015903	0.001114

System: 1-ethyl-3-methylimidazolium tetrafluoroborate; phases: Liquid
Fixed: Pressure, kPa = 101
Property: Mass density, kg/m3 (Liquid); method: PYCNOM:UFactor:8
Temperature, K	Mass density, kg/m3	uncertainty
293.15	1340.7	50.1
298.15	1336.7	50.1
303.15	1332.9	50.1
308.15	1329.6	50.1
313.15	1325.9	50.1
318.15	1322.2	50.1
323.15	1319.5	50.1

System: water + 1-ethyl-3-methylimidazolium tetrafluoroborate; phases: Liquid
Fixed: Pressure, kPa = 101
Property: Mass density, kg/m3 (Liquid); method: PYCNOM:UFactor:8
Temperature, K	Mole fraction of water	Mass density, kg/m3	uncertainty
293.15	0	1340.7	50.1
293.15	0.0995	1336.1	50.1
293.15	0.2062	1330	50.1
293.15	0.3047	1322.9	50.1
293.15	0.4034	1313.4	50.1
293.15	0.5034	1299.8	50.1
293.15	0.5998	1284.2	50.1
293.15	0.7005	1262	50.1
293.15	0.8011	1225.9	50.1
293.15	0.9027	1157.4	50
293.15	1	998.2	50
298.15	0	1336.7	50.1
298.15	0.0995	1332.1	50.1
298.15	0.2062	1326	50.1
298.15	0.3047	1318.9	50.1
298.15	0.4034	1309.5	50.1
298.15	0.5034	1296	50.1
298.15	0.5998	1280.6	50.1
298.15	0.7005	1258.4	50.1
298.15	0.8011	1222.3	50.1
298.15	0.9027	1154.2	50
298.15	1	997	50
303.15	0	1332.9	50.1
303.15	0.0995	1328.3	50.1
303.15	0.2062	1322.2	50.1
303.15	0.3047	1315.2	50.1
303.15	0.4034	1305.8	50.1
303.15	0.5034	1292.3	50.1
303.15	0.5998	1276.9	50.1
303.15	0.7005	1254.8	50.1
303.15	0.8011	1218.7	50.1
303.15	0.9027	1151.1	50
303.15	1	995.7	50
308.15	0	1329.6	50.1
308.15	0.0995	1324.9	50.1
308.15	0.2062	1318.9	50.1
308.15	0.3047	1311.9	50.1
308.15	0.4034	1302.5	50.1
308.15	0.5034	1288.9	50.1
308.15	0.5998	1273.5	50.1
308.15	0.7005	1251.4	50.1
308.15	0.8011	1215.4	50.1
308.15	0.9027	1148	50.1
308.15	1	994	50
313.15	0	1325.9	50.1
313.15	0.0995	1321.2	50.1
313.15	0.2062	1315.2	50.1
313.15	0.3047	1308.1	50.1
313.15	0.4034	1298.7	50.1
313.15	0.5034	1285.3	50.1
313.15	0.5998	1269.7	50.1
313.15	0.7005	1247.5	50.1
313.15	0.8011	1211.8	50.1
313.15	0.9027	1145	50.1
313.15	1	992.2	50
318.15	0	1322.2	50.1
318.15	0.0995	1317.6	50.1
318.15	0.2062	1311.6	50.1
318.15	0.3047	1304.5	50.1
318.15	0.4034	1295	50.1
318.15	0.5034	1281.6	50.1
318.15	0.5998	1266	50.1
318.15	0.7005	1243.9	50.1
318.15	0.8011	1208.2	50.1
318.15	0.9027	1141.8	50.1
318.15	1	990.1	50
323.15	0	1319.5	50.1
323.15	0.0995	1314.8	50.1
323.15	0.2062	1308.8	50.1
323.15	0.3047	1301.6	50.1
323.15	0.4034	1292	50.1
323.15	0.5034	1278.6	50.1
323.15	0.5998	1263.1	50.1
323.15	0.7005	1240.7	50.1
323.15	0.8011	1205	50.1
323.15	0.9027	1138.5	50.1
323.15	1	988	50

System: water + 1-ethyl-3-methylimidazolium tetrafluoroborate; phases: Liquid
Fixed: Pressure, kPa = 101
Property: Viscosity, Pa*s (Liquid); method: CAPTUB:UFactor:16
Temperature, K	Mole fraction of water	Viscosity, Pa*s	uncertainty
293.15	0	0.04529	0.002944
293.15	0.0995	0.034431	0.002266
293.15	0.2062	0.025098	0.001685
293.15	0.3047	0.019252	0.001321
293.15	0.4034	0.01376	0.00098
293.15	0.5034	0.010365	0.000768
293.15	0.5998	0.007892	0.000614
293.15	0.7005	0.005797	0.000484
293.15	0.8011	0.004127	0.000362
293.15	0.9027	0.003035	0.000271
293.15	1	0.001002	9.9e-05
298.15	0	0.03719	0.00244
298.15	0.0995	0.029025	0.00193
298.15	0.2062	0.021008	0.00143
298.15	0.3047	0.015965	0.001116
298.15	0.4034	0.011448	0.000835
298.15	0.5034	0.008597	0.000658
298.15	0.5998	0.006975	0.000557
298.15	0.7005	0.004822	0.00042
298.15	0.8011	0.003499	0.00031
298.15	0.9027	0.002584	0.000233
298.15	1	0.00089	8.9e-05
303.15	0	0.031362	0.002077
303.15	0.0995	0.0248	0.001667
303.15	0.2062	0.017897	0.001237
303.15	0.3047	0.013577	0.000968
303.15	0.4034	0.009674	0.000725
303.15	0.5034	0.007384	0.000582
303.15	0.5998	0.005492	0.000465
303.15	0.7005	0.003896	0.000343
303.15	0.8011	0.002962	0.000265
303.15	0.9027	0.002189	0.0002
303.15	1	0.000798	8.1e-05
308.15	0	0.025557	0.001715
308.15	0.0995	0.020533	0.001401
308.15	0.2062	0.014584	0.001031
308.15	0.3047	0.010931	0.000803
308.15	0.4034	0.008187	0.000632
308.15	0.5034	0.006409	0.000522
308.15	0.5998	0.004707	0.00041
308.15	0.7005	0.003531	0.000313
308.15	0.8011	0.002555	0.000231
308.15	0.9027	0.001898	0.000175
308.15	1	0.000719	7.5e-05
313.15	0	0.021537	0.001464
313.15	0.0995	0.017964	0.001241
313.15	0.2062	0.012678	0.000912
313.15	0.3047	0.009634	0.000722
313.15	0.4034	0.007165	0.000569
313.15	0.5034	0.005465	0.000463
313.15	0.5998	0.004159	0.000365
313.15	0.7005	0.003133	0.00028
313.15	0.8011	0.002267	0.000207
313.15	0.9027	0.001689	0.000158
313.15	1	0.000653	6.9e-05
318.15	0	0.018838	0.001296
318.15	0.0995	0.015927	0.001114
318.15	0.2062	0.011157	0.000817
318.15	0.3047	0.008324	0.000641
318.15	0.4034	0.006357	0.000519
318.15	0.5034	0.004979	0.000432
318.15	0.5998	0.00363	0.000321
318.15	0.7005	0.002584	0.000233
318.15	0.8011	0.002044	0.000188
318.15	0.9027	0.00153	0.000144
318.15	1	0.000599	6.4e-05
323.15	0	0.015903	0.001114
323.15	0.0995	0.013743	0.000979
323.15	0.2062	0.009797	0.000732
323.15	0.3047	0.00747	0.000588
323.15	0.4034	0.005692	0.000477
323.15	0.5034	0.004522	0.000395
323.15	0.5998	0.003215	0.000286
323.15	0.7005	0.002512	0.000227
323.15	0.8011	0.001904	0.000176
323.15	0.9027	0.001439	0.000136
323.15	1	0.000547	6e-05
