Measured thermophysical data. Isothermal Vapor-Liquid Equilibria of ethyl acetate + dibromomethane, or + bromochloromethane or + 1,2-dichloroethane or +1-bromo-2-chloroethane at T = 313.15 K
Source: J. Chem. Eng. Data, 2004, 10.1021/je034259j
Compound 1: ethyl acetate, C4H8O2, InChI=1S/C4H8O2/c1-3-6-4(2)5/h3H2,1-2H3, purity 99.5%
Compound 2: dibromomethane, CH2Br2, InChI=1S/CH2Br2/c2-1-3/h1H2, purity 98.5%
Compound 3: bromochloromethane, CH2BrCl, InChI=1S/CH2BrCl/c2-1-3/h1H2, purity 99%
Compound 4: 1,2-dichloroethane, C2H4Cl2, InChI=1S/C2H4Cl2/c3-1-2-4/h1-2H2, purity 99.5%
Compound 5: 1-bromo-2-chloroethane, C2H4BrCl, InChI=1S/C2H4BrCl/c3-1-2-4/h1-2H2, purity 98%

System: ethyl acetate; phases: Liquid, Gas
Property: Vapor or sublimation pressure, kPa (Liquid); method: Ebulliometric method (Recirculating still)
Temperature, K	Vapor or sublimation pressure, kPa	uncertainty
313.15	25.296	0.2

System: ethyl acetate; phases: Liquid
Property: Mass density, kg/m3 (Liquid); method: VIBTUB:UFactor:2
Temperature, K	Pressure, kPa	Mass density, kg/m3	uncertainty
298.15	101.325	894.97	0.27

System: ethyl acetate; phases: Liquid
Property: Molar volume, m3/mol (Liquid); method: Vibrating tube method
Temperature, K	Pressure, kPa	Molar volume, m3/mol	uncertainty
313.15	101.325	0.000101	1e-06

System: dibromomethane; phases: Liquid, Gas
Property: Vapor or sublimation pressure, kPa (Liquid); method: Ebulliometric method (Recirculating still)
Temperature, K	Vapor or sublimation pressure, kPa	uncertainty
313.15	13.012	0.15

System: dibromomethane; phases: Liquid
Property: Mass density, kg/m3 (Liquid); method: VIBTUB:UFactor:2
Temperature, K	Pressure, kPa	Mass density, kg/m3	uncertainty
298.15	101.325	2478.37	2.26

System: dibromomethane; phases: Liquid
Property: Molar volume, m3/mol (Liquid); method: Vibrating tube method
Temperature, K	Pressure, kPa	Molar volume, m3/mol	uncertainty
313.15	101.325	7.1e-05	1e-06

System: bromochloromethane; phases: Liquid, Gas
Property: Vapor or sublimation pressure, kPa (Liquid); method: Ebulliometric method (Recirculating still)
Temperature, K	Vapor or sublimation pressure, kPa	uncertainty
313.15	37.285	0.43

System: bromochloromethane; phases: Liquid
Property: Mass density, kg/m3 (Liquid); method: VIBTUB:UFactor:2
Temperature, K	Pressure, kPa	Mass density, kg/m3	uncertainty
298.15	101.325	1924.88	1.26

System: bromochloromethane; phases: Liquid
Property: Molar volume, m3/mol (Liquid); method: Vibrating tube method
Temperature, K	Pressure, kPa	Molar volume, m3/mol	uncertainty
313.15	101.325	6.9e-05	1e-06

System: 1,2-dichloroethane; phases: Liquid, Gas
Property: Vapor or sublimation pressure, kPa (Liquid); method: Ebulliometric method (Recirculating still)
Temperature, K	Vapor or sublimation pressure, kPa	uncertainty
313.15	21.047	0.2

System: 1,2-dichloroethane; phases: Liquid
Property: Mass density, kg/m3 (Liquid); method: VIBTUB:UFactor:2
Temperature, K	Pressure, kPa	Mass density, kg/m3	uncertainty
298.15	101.325	1246.59	0.41

System: 1,2-dichloroethane; phases: Liquid
Property: Molar volume, m3/mol (Liquid); method: Vibrating tube method
Temperature, K	Pressure, kPa	Molar volume, m3/mol	uncertainty
313.15	101.325	8.1e-05	1e-06

System: 1-bromo-2-chloroethane; phases: Liquid, Gas
Property: Vapor or sublimation pressure, kPa (Liquid); method: Ebulliometric method (Recirculating still)
Temperature, K	Vapor or sublimation pressure, kPa	uncertainty
313.15	8.91	0.1

System: 1-bromo-2-chloroethane; phases: Liquid
Property: Mass density, kg/m3 (Liquid); method: VIBTUB:UFactor:2
Temperature, K	Pressure, kPa	Mass density, kg/m3	uncertainty
298.15	101.325	1727.88	1.88

System: 1-bromo-2-chloroethane; phases: Liquid
Property: Molar volume, m3/mol (Liquid); method: Vibrating tube method
Temperature, K	Pressure, kPa	Molar volume, m3/mol	uncertainty
313.15	101.325	8.4e-05	1e-06

System: dibromomethane + ethyl acetate; phases: Liquid, Gas
Fixed: Temperature, K = 313.15
Property: Vapor or sublimation pressure, kPa (Liquid); method: EBULLIO:UFactor:2
Mole fraction of dibromomethane	Vapor or sublimation pressure, kPa	uncertainty
0.071	24.306	0.196
0.0936	23.948	0.196
0.1817	22.685	0.194
0.2469	21.755	0.193
0.3738	20.094	0.19
0.4147	19.52	0.19
0.4929	18.496	0.188
0.5222	18.088	0.188
0.6137	16.902	0.186
0.6855	16.055	0.184
0.7001	15.808	0.184
0.8084	14.694	0.182
0.8306	14.51	0.182
0.9154	13.733	0.181

System: dibromomethane + ethyl acetate; phases: Gas, Liquid
Fixed: Temperature, K = 313.15
Property: Mole fraction of dibromomethane (Gas); method: RIXVDN
Mole fraction of dibromomethane	Mole fraction of dibromomethane	uncertainty
0.071	0.0315	0.02
0.0936	0.0429	0.02
0.1817	0.0882	0.02
0.2469	0.1365	0.02
0.3738	0.2339	0.02
0.4147	0.2669	0.02
0.4929	0.3405	0.02
0.5222	0.3701	0.0201
0.6137	0.4568	0.0202
0.6855	0.5355	0.0203
0.7001	0.561	0.0203
0.8084	0.6908	0.0203
0.8306	0.7166	0.0203
0.9154	0.8192	0.0202

System: bromochloromethane + ethyl acetate; phases: Liquid, Gas
Fixed: Temperature, K = 313.15
Property: Vapor or sublimation pressure, kPa (Liquid); method: EBULLIO:UFactor:2
Mole fraction of bromochloromethane	Vapor or sublimation pressure, kPa	uncertainty
0.0887	25.402	0.198
0.1583	25.515	0.198
0.2451	25.851	0.199
0.3372	26.348	0.201
0.4046	26.935	0.202
0.437	27.219	0.203
0.4901	27.851	0.204
0.5083	28.049	0.205
0.5445	28.533	0.206
0.7428	31.797	0.214
0.7916	32.844	0.217
0.8362	33.768	0.219
0.9274	35.746	0.224

System: bromochloromethane + ethyl acetate; phases: Gas, Liquid
Fixed: Temperature, K = 313.15
Property: Mole fraction of bromochloromethane (Gas); method: RIXVDN
Mole fraction of bromochloromethane	Mole fraction of bromochloromethane	uncertainty
0.0887	0.0898	0.02
0.1583	0.1661	0.02
0.2451	0.2686	0.02
0.3372	0.3789	0.0201
0.4046	0.4535	0.0201
0.437	0.4973	0.0202
0.4901	0.5788	0.0202
0.5083	0.6072	0.0202
0.5445	0.646	0.0202
0.7428	0.8413	0.0201
0.7916	0.8801	0.0201
0.8362	0.9116	0.02
0.9274	0.9644	0.02

System: 1,2-dichloroethane + ethyl acetate; phases: Liquid, Gas
Fixed: Temperature, K = 313.15
Property: Vapor or sublimation pressure, kPa (Liquid); method: EBULLIO:UFactor:2
Mole fraction of 1,2-dichloroethane	Vapor or sublimation pressure, kPa	uncertainty
0.1523	24.143	0.195
0.2147	23.672	0.194
0.2835	23.035	0.193
0.3225	22.659	0.193
0.4036	22.033	0.192
0.4253	21.864	0.191
0.5301	21.367	0.19
0.5472	21.28	0.19
0.5831	21.138	0.19
0.6198	21.071	0.19
0.6402	21.015	0.19
0.6789	20.94	0.19
0.7503	20.822	0.189
0.7825	20.772	0.189
0.8282	20.734	0.189
0.8964	20.706	0.189
0.9393	20.762	0.189
0.9782	20.806	0.189

System: 1,2-dichloroethane + ethyl acetate; phases: Gas, Liquid
Fixed: Temperature, K = 313.15
Property: Mole fraction of 1,2-dichloroethane (Gas); method: RIXVDN
Mole fraction of 1,2-dichloroethane	Mole fraction of 1,2-dichloroethane	uncertainty
0.1523	0.1146	0.02
0.2147	0.1648	0.02
0.2835	0.2216	0.02
0.3225	0.2663	0.02
0.4036	0.3462	0.02
0.4253	0.3727	0.02
0.5301	0.49	0.0201
0.5472	0.5108	0.0201
0.5831	0.5541	0.0201
0.6198	0.5958	0.0201
0.6402	0.6182	0.0201
0.6789	0.664	0.0201
0.7503	0.7445	0.02
0.7825	0.7796	0.02
0.8282	0.8319	0.02
0.8964	0.9005	0.02
0.9393	0.9445	0.02
0.9782	0.9814	0.0186

System: 1-bromo-2-chloroethane + ethyl acetate; phases: Liquid, Gas
Fixed: Temperature, K = 313.15
Property: Vapor or sublimation pressure, kPa (Liquid); method: EBULLIO:UFactor:2
Mole fraction of 1-bromo-2-chloroethane	Vapor or sublimation pressure, kPa	uncertainty
0.0879	23.784	0.196
0.1691	22.368	0.194
0.2861	20.402	0.191
0.4053	18.225	0.188
0.4305	17.719	0.188
0.4676	17.098	0.187
0.5236	16.071	0.185
0.5716	15.266	0.184
0.6032	14.776	0.183
0.6367	14.252	0.182
0.726	12.894	0.18
0.7487	12.588	0.18
0.7691	12.307	0.179
0.8086	11.711	0.178
0.8449	11.175	0.177
0.8784	10.684	0.176
0.9144	10.165	0.175

System: 1-bromo-2-chloroethane + ethyl acetate; phases: Gas, Liquid
Fixed: Temperature, K = 313.15
Property: Mole fraction of 1-bromo-2-chloroethane (Gas); method: RIXVDN
Mole fraction of 1-bromo-2-chloroethane	Mole fraction of 1-bromo-2-chloroethane	uncertainty
0.0879	0.0344	0.02
0.1691	0.0749	0.02
0.2861	0.1377	0.02
0.4053	0.2006	0.02
0.4305	0.2187	0.02
0.4676	0.2595	0.02
0.5236	0.2954	0.02
0.5716	0.347	0.0201
0.6032	0.3733	0.0201
0.6367	0.4012	0.0202
0.726	0.5158	0.0205
0.7487	0.5372	0.0205
0.7691	0.5657	0.0205
0.8086	0.6225	0.0206
0.8449	0.6823	0.0205
0.8784	0.7387	0.0205
0.9144	0.8074	0.0204
