Measured thermophysical data. Vapor-Liquid Equilibrium Studies for Systems Containing n-Butylisocyanate at Temperatures between 323.15 K and 371.15 K
Source: J. Chem. Eng. Data, 2004, 10.1021/je030222n
Compound 1: butan-1-ol, C4H10O, InChI=1S/C4H10O/c1-2-3-4-5/h5H,2-4H2,1H3, purity 99%
Compound 2: butyl isocyanate, C5H9NO, InChI=1S/C5H9NO/c1-2-3-4-6-5-7/h2-4H2,1H3, purity 98%
Compound 3: ethyl carbamate, C3H7NO2, InChI=1S/C3H7NO2/c1-2-6-3(4)5/h2H2,1H3,(H2,4,5)
Compound 4: nonane, C9H20, InChI=1S/C9H20/c1-3-5-7-9-8-6-4-2/h3-9H2,1-2H3, purity 99.5%

System: butan-1-ol; phases: Liquid, Gas
Property: Vapor or sublimation pressure, kPa (Liquid); method: Closed cell (Static) method
Temperature, K	Vapor or sublimation pressure, kPa	uncertainty
314.19	2.7	0.41
323.2	4.49	0.43
338.21	10.38	0.45
342.17	12.89	0.55
352.81	21.44	0.63
361.24	31.52	0.84
371.94	49.26	0.92

System: butyl isocyanate; phases: Liquid, Gas
Property: Vapor or sublimation pressure, kPa (Liquid); method: CCELL:UFactor:32
Temperature, K	Vapor or sublimation pressure, kPa	uncertainty
294.15	2.48	0.41
323.24	9.52	0.74
338.02	17.88	1.2
353.02	32.1	1.92
362.65	44.82	2.59
372.6	61.84	3.49
387.87	99.08	5.31

System: ethyl carbamate; phases: Liquid, Gas
Property: Vapor or sublimation pressure, kPa (Liquid); method: Closed cell (Static) method
Temperature, K	Vapor or sublimation pressure, kPa	uncertainty
322.6	0.88	0.201
337.2	1.287	0.201
342.3	1.494	0.201
352.5	1.957	0.202
362.6	2.381	0.202
371.7	2.953	0.203

System: nonane; phases: Liquid, Gas
Property: Vapor or sublimation pressure, kPa (Liquid); method: Closed cell (Static) method
Temperature, K	Vapor or sublimation pressure, kPa	uncertainty
322.59	2.34	0.22
338.33	4.99	0.23
351.53	9	0.3
371.37	19.81	0.34

System: butan-1-ol + nonane; phases: Liquid, Gas
Property: Vapor or sublimation pressure, kPa (Liquid); method: Closed cell (Static) method
Temperature, K	Mole fraction of butan-1-ol	Vapor or sublimation pressure, kPa	uncertainty
323.15	0.129	4.96	0.44
323.15	0.313	5.32	0.45
323.15	0.449	5.38	0.45
323.15	0.458	5.43	0.45
323.15	0.595	5.61	0.45
323.15	0.669	5.73	0.45
323.15	0.832	5.55	0.45
323.15	0.91	5.32	0.44
338.15	0.042	8.38	0.47
338.15	0.072	9.45	0.5
338.15	0.129	10.18	0.47
338.15	0.313	11.08	0.49
338.15	0.449	11.35	0.5
338.15	0.458	11.28	0.5
338.15	0.595	11.63	0.5
338.15	0.669	11.74	0.5
338.15	0.832	11.72	0.5
338.15	0.91	11.02	0.5
353.15	0.042	15.6	0.52
353.15	0.072	17.85	0.56
353.15	0.129	19.58	0.6
353.15	0.313	22.39	0.68
353.15	0.449	23.03	0.7
353.15	0.458	23.45	0.7
353.15	0.595	23.58	0.71
353.15	0.669	23.96	0.72
353.15	0.832	23.45	0.72
353.15	0.91	22.84	0.72
371.15	0.042	29.43	0.56
371.15	0.072	34.3	0.6
371.15	0.129	38.62	0.66
371.15	0.313	46.29	0.76
371.15	0.449	48.15	0.82
371.15	0.458	48.33	0.82
371.15	0.595	49.73	0.85
371.15	0.669	50.31	0.85
371.15	0.832	49.99	0.85
371.15	0.91	49.53	0.86

System: ethyl carbamate + nonane; phases: Liquid, Gas
Property: Vapor or sublimation pressure, kPa (Liquid); method: Closed cell (Static) method
Temperature, K	Mole fraction of ethyl carbamate	Vapor or sublimation pressure, kPa	uncertainty
323.15	0.088	2.37	0.41
323.15	0.278	2.26	0.41
323.15	0.362	2.16	0.41
323.15	0.465	2.07	0.41
323.15	0.551	1.98	0.41
323.15	0.729	1.76	0.4
323.15	0.93	1.27	0.4
338.15	0.088	5.09	0.42
338.15	0.278	4.95	0.42
338.15	0.362	4.92	0.42
338.15	0.465	4.62	0.41
338.15	0.551	4.32	0.41
338.15	0.729	3.44	0.41
338.15	0.93	2.05	0.4
353.15	0.088	9.69	0.46
353.15	0.278	9.22	0.45
353.15	0.362	8.78	0.44
353.15	0.465	7.94	0.44
353.15	0.551	7.4	0.43
353.15	0.729	5.34	0.41
353.15	0.93	2.78	0.4
371.15	0.088	19.23	0.49
371.15	0.278	18.33	0.48
371.15	0.362	17.19	0.47
371.15	0.465	15.56	0.46
371.15	0.551	14.02	0.44
371.15	0.729	9.69	0.42
371.15	0.93	4.56	0.4

System: ethyl carbamate + butan-1-ol; phases: Liquid, Gas
Property: Vapor or sublimation pressure, kPa (Liquid); method: Closed cell (Static) method
Temperature, K	Mole fraction of ethyl carbamate	Vapor or sublimation pressure, kPa	uncertainty
323.15	0.212	3.92	0.43
323.15	0.33	3.63	0.43
323.15	0.393	3.55	0.43
323.15	0.429	3.4	0.43
323.15	0.528	3.23	0.42
323.15	0.638	2.84	0.42
323.15	0.817	2.17	0.41
338.15	0.212	8.95	0.47
338.15	0.33	8.21	0.46
338.15	0.393	7.91	0.45
338.15	0.429	7.68	0.45
338.15	0.528	7.01	0.44
338.15	0.638	6.09	0.43
338.15	0.817	4.54	0.42
353.15	0.212	18.42	0.62
353.15	0.33	16.95	0.59
353.15	0.393	16.04	0.57
353.15	0.429	15.26	0.56
353.15	0.528	13.84	0.54
353.15	0.638	12.24	0.51
353.15	0.817	8.55	0.46
371.15	0.212	39.73	0.73
371.15	0.33	35.5	0.68
371.15	0.393	33.77	0.66
371.15	0.429	33.04	0.65
371.15	0.528	30.02	0.62
371.15	0.638	26.2	0.57
371.15	0.817	18.51	0.5

System: ethyl carbamate + butyl isocyanate; phases: Liquid, Gas
Property: Vapor or sublimation pressure, kPa (Liquid); method: Closed cell (Static) method
Temperature, K	Mole fraction of ethyl carbamate	Vapor or sublimation pressure, kPa	uncertainty
323.15	0.174	8.5	0.47
323.15	0.294	7.81	0.46
323.15	0.499	7.09	0.45
323.15	0.745	6.2	0.44
323.15	0.916	4	0.41
338.15	0.174	15.82	0.52
338.15	0.294	14.67	0.5
338.15	0.499	12.81	0.47
338.15	0.745	10.67	0.44
338.15	0.916	6.25	0.41
353.15	0.174	27.83	0.69
353.15	0.294	24.9	0.63
353.15	0.499	20.65	0.56
353.15	0.745	16.4	0.48
353.15	0.916	9.41	0.42
371.15	0.174	51.19	0.81
371.15	0.294	44.74	0.74
371.15	0.499	36.68	0.63
371.15	0.745	25.9	0.48
371.15	0.916	13.38	0.43

System: butyl isocyanate + nonane; phases: Liquid, Gas
Property: Vapor or sublimation pressure, kPa (Liquid); method: Closed cell (Static) method
Temperature, K	Mole fraction of butyl isocyanate	Vapor or sublimation pressure, kPa	uncertainty
323.15	0.112	4.45	0.43
323.15	0.155	5	0.43
323.15	0.371	6.65	0.45
323.15	0.574	7.65	0.46
323.15	0.614	7.94	0.47
323.15	0.729	8.44	0.47
323.15	0.877	8.96	0.48
338.15	0.112	8.83	0.44
338.15	0.155	9.37	0.45
338.15	0.371	12.72	0.48
338.15	0.574	14.51	0.5
338.15	0.614	14.96	0.51
338.15	0.729	15.71	0.52
338.15	0.877	16.98	0.54
353.15	0.112	15.78	0.52
353.15	0.155	16.61	0.52
353.15	0.371	22.28	0.61
353.15	0.574	25.56	0.66
353.15	0.614	26.64	0.67
353.15	0.729	27.94	0.7
353.15	0.877	30.12	0.73
371.15	0.112	30.04	0.57
371.15	0.155	30.89	0.57
371.15	0.371	41.64	0.66
371.15	0.574	48.03	0.77
371.15	0.614	49.46	0.77
371.15	0.729	51.98	0.82
371.15	0.877	55.76	0.86
