Measured thermophysical data. Densities and Excess Molar Properties of Dimethyl Carbonate with Alkanes (C6 to C10) and VLE of Dimethyl Carbonate with Alkanes (C9 to C10) at 101.3 kPa
Source: J. Chem. Eng. Data, 2004, 10.1021/je0301794
Compound 1: dimethyl carbonate, C3H6O3, InChI=1S/C3H6O3/c1-5-3(4)6-2/h1-2H3
Compound 2: hexane, C6H14, InChI=1S/C6H14/c1-3-5-6-4-2/h3-6H2,1-2H3
Compound 3: heptane, C7H16, InChI=1S/C7H16/c1-3-5-7-6-4-2/h3-7H2,1-2H3
Compound 4: octane, C8H18, InChI=1S/C8H18/c1-3-5-7-8-6-4-2/h3-8H2,1-2H3
Compound 5: nonane, C9H20, InChI=1S/C9H20/c1-3-5-7-9-8-6-4-2/h3-9H2,1-2H3
Compound 6: decane, C10H22, InChI=1S/C10H22/c1-3-5-7-9-10-8-6-4-2/h3-10H2,1-2H3

System: dimethyl carbonate; phases: Liquid, Gas
Property: Normal boiling temperature, K (Liquid); method: Closed cell (Static) method
Normal boiling temperature, K	uncertainty
363.46	0.2

System: dimethyl carbonate; phases: Liquid
Fixed: Pressure, kPa = 101.3
Property: Mass density, kg/m3 (Liquid); method: VIBTUB:UFactor:2
Temperature, K	Mass density, kg/m3	uncertainty
293.15	1070	0.6
298.15	1063.5	0.6
303.15	1056.5	0.6
303.15	1056.6	0.6
313.15	1043.4	0.5
318.15	1036.9	0.5

System: hexane; phases: Liquid, Gas
Property: Normal boiling temperature, K (Liquid); method: Closed cell (Static) method
Normal boiling temperature, K	uncertainty
341.93	0.2

System: hexane; phases: Liquid
Fixed: Pressure, kPa = 101.3
Property: Mass density, kg/m3 (Liquid); method: VIBTUB:UFactor:2
Temperature, K	Mass density, kg/m3	uncertainty
293.15	659.3	0.5
298.15	654.8	0.5
303.15	650.4	0.5
313.15	641.1	0.6
318.15	636.4	0.6

System: heptane; phases: Liquid, Gas
Property: Normal boiling temperature, K (Liquid); method: Closed cell (Static) method
Normal boiling temperature, K	uncertainty
371.18	0.2

System: heptane; phases: Liquid
Fixed: Pressure, kPa = 101.3
Property: Mass density, kg/m3 (Liquid); method: VIBTUB::UFactor:2
Temperature, K	Mass density, kg/m3	uncertainty
293.15	683.6	0.5
298.15	679.4	0.5
303.15	675.3	0.5
313.15	666.6	0.5
318.15	661.5	0.5

System: octane; phases: Liquid, Gas
Property: Normal boiling temperature, K (Liquid); method: Closed cell (Static) method
Normal boiling temperature, K	uncertainty
398.65	0.2

System: octane; phases: Liquid
Fixed: Pressure, kPa = 101.3
Property: Mass density, kg/m3 (Liquid); method: VIBTUB::UFactor:2
Temperature, K	Mass density, kg/m3	uncertainty
293.15	702.5	0.5
298.15	698.5	0.5
303.15	694.5	0.5
313.15	686.3	0.5
318.15	682.1	0.5

System: nonane; phases: Liquid, Gas
Property: Normal boiling temperature, K (Liquid); method: Closed cell (Static) method
Normal boiling temperature, K	uncertainty
423.66	0.2

System: nonane; phases: Liquid
Fixed: Pressure, kPa = 101.3
Property: Mass density, kg/m3 (Liquid); method: VIBTUB::UFactor:2
Temperature, K	Mass density, kg/m3	uncertainty
293.15	717.7	0.5
298.15	713.9	0.5
303.15	710.1	0.5
313.15	702.2	0.5
318.15	698.1	0.5

System: decane; phases: Liquid, Gas
Property: Normal boiling temperature, K (Liquid); method: Closed cell (Static) method
Normal boiling temperature, K	uncertainty
446.9	0.2

System: decane; phases: Liquid
Fixed: Pressure, kPa = 101.3
Property: Mass density, kg/m3 (Liquid); method: VIBTUB::UFactor:2
Temperature, K	Mass density, kg/m3	uncertainty
298.15	726.2	0.5
303.15	722.3	0.5
313.15	714.7	0.5
318.15	710.9	0.5

System: hexane + dimethyl carbonate; phases: Liquid
Fixed: Temperature, K = 318.15
Fixed: Pressure, kPa = 101.3
Property: Excess molar enthalpy (molar enthalpy of mixing), kJ/mol (Liquid); method: CALVET:UFactor:2
Mole fraction of dimethyl carbonate	Excess molar enthalpy (molar enthalpy of mixing), kJ/mol	uncertainty
0	0	0.002
0.088	0.716	0.016
0.1762	1.223	0.026
0.2418	1.544	0.033
0.3259	1.808	0.038
0.4027	1.973	0.041
0.4703	2.049	0.043
0.5162	2.071	0.043
0.5554	2.06	0.043
0.6261	1.994	0.042
0.6776	1.904	0.04
0.7263	1.763	0.037
0.7728	1.594	0.034
0.8189	1.351	0.029
0.866	1.096	0.024
0.9005	0.852	0.019
0.9393	0.545	0.013
0.9822	0.197	0.006
1	0	0.002

System: hexane + dimethyl carbonate; phases: Liquid
Fixed: Pressure, kPa = 101.3
Property: Mass density, kg/m3 (Liquid); method: VIBTUB:UFactor:2
Temperature, K	Mole fraction of dimethyl carbonate	Mass density, kg/m3	uncertainty
293.15	0	659.3	0.5
293.15	0.0722	677.3	0.5
293.15	0.1448	696.6	0.5
293.15	0.2286	720.8	0.5
293.15	0.3026	744	0.5
293.15	0.4102	780.8	0.5
293.15	0.5062	817	0.5
293.15	0.6026	857.1	0.5
293.15	0.7052	904	0.5
293.15	0.7974	950.5	0.5
293.15	0.901	1008.3	0.5
293.15	0.9506	1038.5	0.6
293.15	1	1070	0.6
298.15	0	654.8	0.5
298.15	0.082	674.9	0.5
298.15	0.1269	686.7	0.5
298.15	0.2131	710.9	0.5
298.15	0.3197	744.1	0.5
298.15	0.3787	764	0.5
298.15	0.4712	797.6	0.5
298.15	0.5121	813.4	0.5
298.15	0.6067	852.6	0.5
298.15	0.6987	894.5	0.5
298.15	0.842	967.9	0.5
298.15	0.9248	1015.9	0.5
298.15	0.9615	1038.7	0.6
298.15	1	1063.5	0.6
303.15	0	650.4	0.5
303.15	0.0468	661.4	0.5
303.15	0.0991	674.5	0.5
303.15	0.1951	700.4	0.5
303.15	0.295	730.4	0.5
303.15	0.3832	759.5	0.5
303.15	0.4865	797.1	0.5
303.15	0.5899	838.7	0.5
303.15	0.696	886.3	0.5
303.15	0.7947	935.5	0.5
303.15	0.8939	990.5	0.5
303.15	0.9436	1020.3	0.5
303.15	1	1056.5	0.6
313.15	0	641.1	0.6
313.15	0.0495	652.7	0.5
313.15	0.1	665.2	0.5
313.15	0.2092	694.5	0.5
313.15	0.3093	724.6	0.5
313.15	0.4043	756.1	0.5
313.15	0.4941	788.8	0.5
313.15	0.6052	833.6	0.5
313.15	0.7063	879.2	0.5
313.15	0.8046	928.6	0.5
313.15	0.9014	982.5	0.5
313.15	0.9497	1011.6	0.5
313.15	1	1043.4	0.5
318.15	0	636.4	0.6
318.15	0.0773	654.9	0.5
318.15	0.1163	664.6	0.5
318.15	0.1621	676.6	0.5
318.15	0.2689	706.8	0.5
318.15	0.3288	725.3	0.5
318.15	0.4097	752.4	0.5
318.15	0.4753	776	0.5
318.15	0.5256	795.2	0.5
318.15	0.5452	803.1	0.5
318.15	0.5879	820.6	0.5
318.15	0.6449	845.2	0.5
318.15	0.6976	869.3	0.5
318.15	0.7615	900.4	0.5
318.15	0.8039	922.2	0.5
318.15	0.8422	942.9	0.5
318.15	0.8808	964.3	0.5
318.15	0.9311	993.8	0.5
318.15	0.9657	1015.1	0.5
318.15	1	1036.9	0.5

System: heptane + dimethyl carbonate; phases: Liquid
Fixed: Temperature, K = 318.15
Fixed: Pressure, kPa = 101.3
Property: Excess molar enthalpy (molar enthalpy of mixing), kJ/mol (Liquid); method: CALVET:UFactor:2
Mole fraction of dimethyl carbonate	Excess molar enthalpy (molar enthalpy of mixing), kJ/mol	uncertainty
0	0	0.002
0.095	0.798	0.018
0.1875	1.326	0.029
0.2819	1.726	0.037
0.3677	1.984	0.042
0.4442	2.103	0.044
0.5016	2.144	0.045
0.5205	2.143	0.045
0.5497	2.138	0.045
0.5542	2.133	0.045
0.5906	2.114	0.044
0.6326	2.061	0.043
0.674	1.982	0.042
0.7188	1.853	0.039
0.7582	1.696	0.036
0.8053	1.493	0.032
0.8488	1.25	0.027
0.892	0.962	0.021
0.929	0.656	0.015
0.9663	0.328	0.009
1	0	0.002

System: heptane + dimethyl carbonate; phases: Liquid
Fixed: Pressure, kPa = 101.3
Property: Mass density, kg/m3 (Liquid); method: VIBTUB:UFactor:2
Temperature, K	Mole fraction of dimethyl carbonate	Mass density, kg/m3	uncertainty
293.15	0	683.6	0.5
293.15	0.05	694	0.5
293.15	0.094	703.5	0.5
293.15	0.2039	729.2	0.5
293.15	0.324	761.2	0.5
293.15	0.4062	785.9	0.5
293.15	0.5059	819.4	0.5
293.15	0.6099	859.2	0.5
293.15	0.6987	897.8	0.5
293.15	0.8086	952.7	0.5
293.15	0.9029	1006.6	0.5
293.15	0.9504	1036.6	0.5
293.15	1	1070	0.6
298.15	0	679.4	0.5
298.15	0.0594	691.6	0.5
298.15	0.1204	704.9	0.5
298.15	0.2132	726.7	0.5
298.15	0.3135	753.1	0.5
298.15	0.4018	779	0.5
298.15	0.4716	801.6	0.5
298.15	0.6051	851	0.5
298.15	0.6946	889.3	0.5
298.15	0.8031	943	0.5
298.15	0.902	999.5	0.5
298.15	0.9477	1028.2	0.5
298.15	1	1063.5	0.6
303.15	0	675.3	0.5
303.15	0.0586	687.2	0.5
303.15	0.0873	693.2	0.5
303.15	0.1996	718.7	0.5
303.15	0.299	744.2	0.5
303.15	0.4009	773.6	0.5
303.15	0.5081	808.9	0.5
303.15	0.6069	846.2	0.5
303.15	0.6979	885.2	0.5
303.15	0.8051	938	0.5
303.15	0.9069	995.8	0.5
303.15	0.9638	1031.6	0.5
303.15	1	1056.5	0.6
313.15	0	666.6	0.5
313.15	0.0649	679.3	0.5
313.15	0.1157	690.1	0.5
313.15	0.3432	746.6	0.5
313.15	0.4378	775.1	0.5
313.15	0.5458	812	0.5
313.15	0.6259	842.9	0.5
313.15	0.7191	883.2	0.5
313.15	0.8128	929.3	0.5
313.15	0.8798	966.5	0.5
313.15	0.9536	1012	0.5
313.15	0.9822	1031.1	0.5
313.15	1	1043.4	0.5
318.15	0	661.5	0.5
318.15	0.0693	675.1	0.5
318.15	0.1044	682.5	0.5
318.15	0.1947	702.6	0.5
318.15	0.2734	722	0.5
318.15	0.3512	743.2	0.5
318.15	0.419	763.3	0.5
318.15	0.4889	785.9	0.5
318.15	0.5518	808.1	0.5
318.15	0.61	830.3	0.5
318.15	0.6632	852	0.5
318.15	0.7142	874.6	0.5
318.15	0.762	897.1	0.5
318.15	0.8077	920.1	0.5
318.15	0.8514	943.8	0.5
318.15	0.8883	965	0.5
318.15	0.9289	989.7	0.5
318.15	0.964	1012.4	0.5
318.15	1	1036.9	0.5

System: octane + dimethyl carbonate; phases: Liquid
Fixed: Temperature, K = 318.15
Fixed: Pressure, kPa = 101.3
Property: Excess molar enthalpy (molar enthalpy of mixing), kJ/mol (Liquid); method: CALVET:UFactor:2
Mole fraction of dimethyl carbonate	Excess molar enthalpy (molar enthalpy of mixing), kJ/mol	uncertainty
0	0	0.002
0.0844	0.687	0.016
0.1746	1.252	0.027
0.2622	1.687	0.036
0.3463	1.989	0.042
0.4232	2.15	0.045
0.4922	2.211	0.046
0.5544	2.208	0.046
0.6104	2.16	0.045
0.6455	2.109	0.044
0.683	2.042	0.043
0.7224	1.93	0.041
0.7671	1.755	0.037
0.8115	1.54	0.033
0.8562	1.286	0.028
0.8987	0.995	0.022
0.9358	0.697	0.016
0.9713	0.349	0.009
1	0	0.002

System: octane + dimethyl carbonate; phases: Liquid
Fixed: Pressure, kPa = 101.3
Property: Mass density, kg/m3 (Liquid); method: VIBTUB:UFactor:2
Temperature, K	Mole fraction of dimethyl carbonate	Mass density, kg/m3	uncertainty
293.15	0	702.5	0.5
293.15	0.0513	711.1	0.5
293.15	0.0997	719.8	0.5
293.15	0.2027	740.5	0.5
293.15	0.3063	764.5	0.5
293.15	0.3994	789.1	0.5
293.15	0.5123	823.6	0.5
293.15	0.6078	857.4	0.5
293.15	0.7137	901.2	0.5
293.15	0.8055	945.8	0.5
293.15	0.9061	1004	0.5
293.15	0.9516	1034.3	0.5
293.15	1	1070	0.6
298.15	0	698.5	0.5
298.15	0.0558	707.8	0.5
298.15	0.096	715	0.5
298.15	0.1488	725.1	0.5
298.15	0.2289	741.8	0.5
298.15	0.2947	756.9	0.5
298.15	0.4216	790.4	0.5
298.15	0.4883	810.6	0.5
298.15	0.4968	813.3	0.5
298.15	0.5931	846.6	0.5
298.15	0.6867	884.1	0.5
298.15	0.7879	931.6	0.5
298.15	0.8873	987.1	0.5
298.15	0.9502	1027.7	0.5
298.15	1	1063.5	0.6
303.15	0	694.5	0.5
303.15	0.0519	702.9	0.5
303.15	0.0827	708.3	0.5
303.15	0.1947	729.9	0.5
303.15	0.2829	749.4	0.5
303.15	0.3948	778.1	0.5
303.15	0.4942	807.5	0.5
303.15	0.5964	842.4	0.5
303.15	0.6983	883.1	0.5
303.15	0.7886	925.2	0.5
303.15	0.8946	984.3	0.5
303.15	0.9545	1023.4	0.5
303.15	1	1056.5	0.6
313.15	0	686.3	0.5
313.15	0.0512	694.5	0.5
313.15	0.1005	703	0.5
313.15	0.186	719.2	0.5
313.15	0.301	744.5	0.5
313.15	0.4072	771.6	0.5
313.15	0.5002	799.1	0.5
313.15	0.6042	834.5	0.5
313.15	0.709	876.3	0.5
313.15	0.7993	918.8	0.5
313.15	0.8465	944	0.5
313.15	0.9524	1009.1	0.5
313.15	1	1043.4	0.5
318.15	0	682.1	0.5
318.15	0.0823	695.4	0.5
318.15	0.1827	714.2	0.5
318.15	0.2965	738.7	0.5
318.15	0.3626	754.9	0.5
318.15	0.436	774.6	0.5
318.15	0.5156	798.6	0.5
318.15	0.5606	813.4	0.5
318.15	0.6305	838.7	0.5
318.15	0.6756	856.4	0.5
318.15	0.7428	885.6	0.5
318.15	0.7845	905.6	0.5
318.15	0.8233	925.5	0.5
318.15	0.8711	951.7	0.5
318.15	0.9071	973.5	0.5
318.15	0.964	1010.8	0.5
318.15	0.9761	1019.5	0.5
318.15	1	1036.9	0.5

System: nonane + dimethyl carbonate; phases: Liquid
Fixed: Temperature, K = 318.15
Fixed: Pressure, kPa = 101.3
Property: Excess molar enthalpy (molar enthalpy of mixing), kJ/mol (Liquid); method: CALVET:UFactor:2
Mole fraction of dimethyl carbonate	Excess molar enthalpy (molar enthalpy of mixing), kJ/mol	uncertainty
0	0	0.002
0.1291	1.004	0.022
0.2483	1.658	0.035
0.3498	2.047	0.043
0.4426	2.252	0.047
0.5099	2.299	0.048
0.573	2.3	0.048
0.627	2.23	0.047
0.6622	2.155	0.045
0.6743	2.131	0.045
0.7043	2.052	0.043
0.748	1.904	0.04
0.7814	1.786	0.038
0.8236	1.583	0.034
0.8663	1.321	0.028
0.9069	1.044	0.023
0.9415	0.754	0.017
0.9752	0.41	0.01
1	0	0.002

System: nonane + dimethyl carbonate; phases: Liquid, Gas
Fixed: Pressure, kPa = 101.3
Property: Boiling temperature at pressure P, K (Liquid); method: EBULLIO:UFactor:16
Mole fraction of dimethyl carbonate	Boiling temperature at pressure P, K	uncertainty
0.0022	421.7	1.34
0.0045	421	1.28
0.0059	419.4	0.98
0.0154	415.94	0.85
0.0189	415	0.73
0.0353	410.92	0.71
0.0616	404.23	0.72
0.0723	401.26	0.65
0.0878	398.58	0.6
0.1175	393.72	0.69
0.1219	392.67	0.69
0.1674	386.15	0.57
0.1801	384.17	0.53
0.218	380.98	0.52
0.2415	378.95	0.52
0.2663	377.32	0.52
0.2889	375.49	0.51
0.3257	373.28	0.5
0.3568	372.21	0.5
0.3925	370.96	0.5
0.4257	369.93	0.5
0.4661	368.85	0.5
0.505	367.92	0.5
0.5255	367.19	0.5
0.5548	366.92	0.49
0.593	366.66	0.49
0.6298	366.34	0.49
0.6677	365.93	0.5
0.6878	365.46	0.5
0.7141	365.26	0.49
0.7502	364.92	0.49
0.774	364.66	0.49
0.8035	364.44	0.49
0.8271	364.16	0.49
0.8529	364.06	0.49
0.9147	363.43	0.49
0.9778	363.05	0.49

System: nonane + dimethyl carbonate; phases: Gas, Liquid
Fixed: Pressure, kPa = 101.3
Property: Mole fraction of dimethyl carbonate (Gas); method: OTHER
Mole fraction of dimethyl carbonate	Mole fraction of dimethyl carbonate	uncertainty
0.0022	0.0418	0.0355
0.0045	0.0593	0.0593
0.0059	0.099	0.0655
0.0154	0.1908	0.0902
0.0189	0.2131	0.0645
0.0353	0.3315	0.059
0.0616	0.4647	0.0504
0.0723	0.5129	0.0355
0.0878	0.5549	0.0286
0.1175	0.6331	0.0263
0.1219	0.6437	0.0263
0.1674	0.7224	0.0198
0.1801	0.7409	0.0145
0.218	0.7753	0.013
0.2415	0.7892	0.012
0.2663	0.8051	0.012
0.2889	0.819	0.0112
0.3257	0.8333	0.0109
0.3568	0.8457	0.0107
0.3925	0.8559	0.0106
0.4257	0.8673	0.0105
0.4661	0.8774	0.0104
0.505	0.8857	0.0104
0.5255	0.8924	0.0103
0.5548	0.8956	0.0101
0.593	0.8964	0.0101
0.6298	0.8984	0.0101
0.6677	0.9048	0.0103
0.6878	0.9111	0.0104
0.7141	0.9164	0.0102
0.7502	0.922	0.0102
0.774	0.9264	0.0103
0.8035	0.9339	0.0104
0.8271	0.9398	0.0104
0.8529	0.9469	0.0105
0.9147	0.9667	0.0106
0.9778	0.9907	0.0093

System: nonane + dimethyl carbonate; phases: Liquid
Fixed: Pressure, kPa = 101.3
Property: Mass density, kg/m3 (Liquid); method: VIBTUB:UFactor:2
Temperature, K	Mole fraction of dimethyl carbonate	Mass density, kg/m3	uncertainty
293.15	0	717.7	0.5
293.15	0.0444	724.2	0.5
293.15	0.0909	731.4	0.5
293.15	0.1838	747.3	0.5
293.15	0.28	766.3	0.5
293.15	0.3783	789	0.5
293.15	0.4778	815.8	0.5
293.15	0.5789	847.5	0.5
293.15	0.6816	885.9	0.5
293.15	0.7851	932.5	0.5
293.15	0.8921	991.9	0.5
293.15	0.9461	1028.3	0.5
293.15	1	1070	0.6
298.15	0	713.9	0.5
298.15	0.0247	717.5	0.5
298.15	0.083	726.1	0.5
298.15	0.1221	732.4	0.5
298.15	0.1812	742.6	0.5
298.15	0.2278	751.4	0.5
298.15	0.317	770	0.5
298.15	0.3986	789.4	0.5
298.15	0.4701	808.5	0.5
298.15	0.5281	825.7	0.5
298.15	0.601	849.8	0.5
298.15	0.6553	869.8	0.5
298.15	0.7064	890.4	0.5
298.15	0.7517	910.5	0.5
298.15	0.7982	933	0.5
298.15	0.8404	955.5	0.5
298.15	0.8725	973.9	0.5
298.15	0.9073	995.7	0.5
298.15	0.9371	1015.5	0.5
298.15	0.9711	1040.4	0.5
298.15	1	1063.5	0.6
303.15	0	710.1	0.5
303.15	0.0444	716.3	0.5
303.15	0.0909	723.3	0.5
303.15	0.1838	738.9	0.5
303.15	0.28	757.5	0.5
303.15	0.3783	779.7	0.5
303.15	0.4778	805.9	0.5
303.15	0.5789	837	0.5
303.15	0.6816	874.8	0.5
303.15	0.7851	920.7	0.5
303.15	0.8921	979.7	0.5
303.15	0.9461	1015.6	0.5
303.15	1	1056.6	0.6
313.15	0	702.2	0.5
313.15	0.0444	708.3	0.5
313.15	0.0909	715.1	0.5
313.15	0.1838	730.4	0.5
313.15	0.28	748.7	0.5
313.15	0.3783	770.5	0.5
313.15	0.4778	796	0.5
313.15	0.5789	826.7	0.5
313.15	0.6816	864	0.5
313.15	0.7851	909.4	0.5
313.15	0.8921	967.3	0.5
313.15	0.9461	1002.8	0.5
313.15	1	1043.4	0.5
318.15	0	698.1	0.5
318.15	0.0409	703.8	0.5
318.15	0.0763	709	0.5
318.15	0.1089	714	0.5
318.15	0.1249	716.6	0.5
318.15	0.1452	719.9	0.5
318.15	0.1957	728.5	0.5
318.15	0.2309	735	0.5
318.15	0.3153	751.7	0.5
318.15	0.3894	768.3	0.5
318.15	0.4732	789.6	0.5
318.15	0.5442	810.1	0.5
318.15	0.6088	831.2	0.5
318.15	0.6356	840.8	0.5
318.15	0.711	870.1	0.5
318.15	0.761	891.8	0.5
318.15	0.787	904	0.5
318.15	0.8304	926	0.5
318.15	0.8802	954.1	0.5
318.15	0.9335	987.7	0.5
318.15	0.9414	993.1	0.5
318.15	0.972	1015	0.5
318.15	1	1036.9	0.5

System: decane + dimethyl carbonate; phases: Liquid
Fixed: Temperature, K = 318.15
Fixed: Pressure, kPa = 101.3
Property: Excess molar enthalpy (molar enthalpy of mixing), kJ/mol (Liquid); method: CALVET:UFactor:2
Mole fraction of dimethyl carbonate	Excess molar enthalpy (molar enthalpy of mixing), kJ/mol	uncertainty
0	0	0.002
0.0948	0.796	0.018
0.1964	1.425	0.031
0.29	1.896	0.04
0.3757	2.193	0.046
0.4516	2.347	0.049
0.5089	2.395	0.05
0.5556	2.397	0.05
0.5944	2.376	0.05
0.6291	2.343	0.049
0.6358	2.328	0.049
0.6748	2.255	0.047
0.7141	2.167	0.045
0.7558	2.025	0.043
0.7914	1.862	0.039
0.8294	1.646	0.035
0.8725	1.382	0.03
0.9085	1.067	0.023
0.9429	0.726	0.017
0.9788	0.31	0.008
1	0	0.002

System: decane + dimethyl carbonate; phases: Liquid, Gas
Fixed: Pressure, kPa = 101.3
Property: Boiling temperature at pressure P, K (Liquid); method: EBULLIO:UFactor:16
Mole fraction of dimethyl carbonate	Boiling temperature at pressure P, K	uncertainty
0.0066	440.54	1.76
0.013	435.15	1.78
0.0222	427.18	1.45
0.0374	418.22	1.14
0.0617	406.72	0.93
0.0895	397.71	0.71
0.1194	391.77	0.61
0.1834	380.74	0.54
0.2743	374.62	0.51
0.3343	372.62	0.5
0.4381	369	0.5
0.5073	367.55	0.5
0.5531	366.67	0.49
0.6216	365.93	0.49
0.7027	365.58	0.49
0.743	365.06	0.49
0.8091	364.86	0.49
0.8509	364.58	0.49
0.8998	363.84	0.49
0.9521	363.29	0.49
0.981	363.09	0.49

System: decane + dimethyl carbonate; phases: Gas, Liquid
Fixed: Pressure, kPa = 101.3
Property: Mole fraction of dimethyl carbonate (Gas); method: OTHER
Mole fraction of dimethyl carbonate	Mole fraction of dimethyl carbonate	uncertainty
0.0066	0.1436	0.1063
0.013	0.2462	0.1588
0.0222	0.391	0.1162
0.0374	0.5345	0.0733
0.0617	0.6822	0.0465
0.0895	0.7722	0.0261
0.1194	0.821	0.0159
0.1834	0.8889	0.0118
0.2743	0.918	0.0104
0.3343	0.928	0.0102
0.4381	0.9422	0.0101
0.5073	0.9472	0.01
0.5531	0.9497	0.01
0.6216	0.9515	0.01
0.7027	0.9549	0.01
0.743	0.9582	0.01
0.8091	0.9627	0.01
0.8509	0.9674	0.0101
0.8998	0.9774	0.0102
0.9521	0.987	0.0102
0.981	0.994	0.006

System: decane + dimethyl carbonate; phases: Liquid
Fixed: Pressure, kPa = 101.3
Property: Mass density, kg/m3 (Liquid); method: VIBTUB:UFactor:2
Temperature, K	Mole fraction of dimethyl carbonate	Mass density, kg/m3	uncertainty
298.15	0	726.2	0.5
298.15	0.0043	726.8	0.5
298.15	0.0235	729.1	0.5
298.15	0.0888	737.6	0.5
298.15	0.1363	744.6	0.5
298.15	0.1922	753.4	0.5
298.15	0.2402	761.6	0.5
298.15	0.3348	779.8	0.5
298.15	0.4201	798.8	0.5
298.15	0.4876	816	0.5
298.15	0.5607	837.1	0.5
298.15	0.6214	856.8	0.5
298.15	0.6754	876.5	0.5
298.15	0.7219	895.2	0.5
298.15	0.7702	916.6	0.5
298.15	0.8104	936.3	0.5
298.15	0.8421	953.4	0.5
298.15	0.8849	978.5	0.5
298.15	0.9135	997	0.5
298.15	0.9424	1017.3	0.5
298.15	0.9709	1039	0.5
298.15	1	1063.5	0.6
303.15	0	722.3	0.5
303.15	0.0489	728.4	0.5
303.15	0.0996	735.2	0.5
303.15	0.1998	750.3	0.5
303.15	0.299	768.1	0.5
303.15	0.3991	789.2	0.5
303.15	0.4992	814.3	0.5
303.15	0.6023	845.3	0.5
303.15	0.7013	881.5	0.5
303.15	0.8008	925.9	0.5
303.15	0.9012	982.6	0.5
303.15	0.9505	1016.6	0.5
303.15	1	1056.6	0.6
313.15	0	714.7	0.5
313.15	0.0489	720.6	0.5
313.15	0.0996	727.2	0.5
313.15	0.1998	742	0.5
313.15	0.299	759.4	0.5
313.15	0.3991	780.1	0.5
313.15	0.4992	804.7	0.5
313.15	0.6023	835.2	0.5
313.15	0.7013	870.6	0.5
313.15	0.8008	914.4	0.5
313.15	0.9012	970.3	0.5
313.15	0.9505	1003.6	0.5
313.15	1	1043.4	0.5
318.15	0	710.9	0.5
318.15	0.0902	722.1	0.5
318.15	0.1142	725.4	0.5
318.15	0.1922	736.9	0.5
318.15	0.3283	760.8	0.5
318.15	0.4184	780	0.5
318.15	0.4855	796.3	0.5
318.15	0.4962	799.1	0.5
318.15	0.5666	818.8	0.5
318.15	0.6142	833.9	0.5
318.15	0.6732	854.3	0.5
318.15	0.728	875.8	0.5
318.15	0.7735	895.6	0.5
318.15	0.8087	912.6	0.5
318.15	0.8503	934.4	0.5
318.15	0.8944	960.1	0.5
318.15	0.9252	980	0.5
318.15	0.9473	995.6	0.5
318.15	0.9768	1017.9	0.5
318.15	1	1036.9	0.5
