Measured thermophysical data. Measurement and Prediction of Excess Molar Enthalpies and Excess Molar Volumes of the Ternary System 1,3-dichlorobenzene + Benzene + Hexane at 298.15 K.
Source: J. Chem. Eng. Data, 2004, 10.1021/je034237x
Compound 1: 1,3-dichlorobenzene, C6H4Cl2, InChI=1S/C6H4Cl2/c7-5-2-1-3-6(8)4-5/h1-4H, purity 99%
Compound 2: benzene, C6H6, InChI=1S/C6H6/c1-2-4-6-5-3-1/h1-6H, purity 99.9%
Compound 3: hexane, C6H14, InChI=1S/C6H14/c1-3-5-6-4-2/h3-6H2,1-2H3, purity 99%

System: benzene + hexane + 1,3-dichlorobenzene; phases: Liquid
Fixed: Temperature, K = 298.15
Fixed: Pressure, kPa = 101.3
Property: Excess molar enthalpy (molar enthalpy of mixing), kJ/mol (Liquid); method: CALVET:UFactor:2
Solvent: Amount ratio of component to other component of binary solvent of 1,3-dichlorobenzene	Mole fraction of hexane	Excess molar enthalpy (molar enthalpy of mixing), kJ/mol	uncertainty
0.3266	0.0365	0.118	0.003
0.3266	0.0661	0.208	0.005
0.3266	0.1142	0.329	0.007
0.3266	0.1542	0.411	0.008
0.3266	0.1886	0.482	0.01
0.3266	0.2431	0.578	0.011
0.3266	0.3192	0.663	0.013
0.3266	0.3504	0.688	0.013
0.3266	0.4333	0.729	0.014
0.3266	0.4908	0.745	0.014
0.3266	0.5275	0.74	0.014
0.3266	0.5743	0.726	0.014
0.3266	0.6265	0.689	0.013
0.3266	0.6837	0.631	0.012
0.3266	0.7352	0.565	0.011
0.3266	0.8055	0.449	0.009
0.3266	0.8856	0.279	0.006
0.3266	0.9359	0.167	0.004
1.0169	0.0456	0.127	0.004
1.0169	0.0831	0.2	0.005
1.0169	0.1192	0.285	0.006
1.0169	0.1587	0.366	0.008
1.0169	0.2134	0.458	0.009
1.0169	0.2767	0.522	0.01
1.0169	0.3403	0.602	0.012
1.0169	0.3853	0.63	0.012
1.0169	0.4472	0.649	0.012
1.0169	0.4813	0.656	0.013
1.0169	0.551	0.653	0.013
1.0169	0.6587	0.612	0.012
1.0169	0.7027	0.546	0.011
1.0169	0.7715	0.459	0.009
1.0169	0.8703	0.31	0.007
1.0169	0.929	0.181	0.004
3.1701	0.045	0.105	0.003
3.1701	0.077	0.177	0.004
3.1701	0.1268	0.279	0.006
3.1701	0.1572	0.343	0.007
3.1701	0.2077	0.429	0.009
3.1701	0.2501	0.48	0.01
3.1701	0.3106	0.539	0.011
3.1701	0.3498	0.571	0.011
3.1701	0.3945	0.606	0.012
3.1701	0.4443	0.621	0.012
3.1701	0.5199	0.626	0.012
3.1701	0.5648	0.611	0.012
3.1701	0.6093	0.602	0.012
3.1701	0.6567	0.562	0.011
3.1701	0.7096	0.517	0.01
3.1701	0.7687	0.45	0.009
3.1701	0.8246	0.371	0.008
3.1701	0.8749	0.284	0.006
3.1701	0.9228	0.193	0.005

System: benzene + hexane + 1,3-dichlorobenzene; phases: Liquid
Fixed: Temperature, K = 298.15
Fixed: Pressure, kPa = 101
Property: Mass density, kg/m3 (Liquid); method: VIBTUB:mpoint
Mole fraction of 1,3-dichlorobenzene	Mole fraction of benzene	Mass density, kg/m3	uncertainty
0.0183	0.1009	680.66	0.33
0.031	0.1704	699.42	0.31
0.0351	0.0815	687.33	0.33
0.0519	0.2855	732.66	0.29
0.059	0.0717	699.72	0.34
0.0612	0.1421	712.71	0.33
0.0718	0.3949	767.31	0.27
0.0777	0.025	703.27	0.36
0.0781	0.0517	707.79	0.35
0.081	0.0984	717.12	0.34
0.0894	0.0076	707.3	0.37
0.0898	0.4936	801.42	0.25
0.0962	0.5288	814.23	0.24
0.0988	0.2296	751.62	0.32
0.1009	0.0669	723.74	0.36
0.1091	0.6001	841.52	0.21
0.1243	0.6838	875.68	0.2
0.13	0.0419	736.67	0.37
0.1319	0.0112	732.6	0.38
0.1401	0.1701	765.95	0.34
0.1405	0.7725	914.72	0.18
0.1476	0.3432	806.53	0.3
0.1713	0.3982	835.15	0.29
0.1847	0.4294	851.89	0.28
0.189	0.1253	787.63	0.37
0.2117	0.2571	829.48	0.34
0.212	0.4927	887.43	0.27
0.2283	0.0735	801.48	0.39
0.2409	0.5599	851.54	0.24
0.2538	0.0216	806.76	0.41
0.2597	0.3154	875.01	0.33
0.2732	0.6351	974.52	0.27
0.2763	0.1831	854.77	0.37
0.28	0.34	894.88	0.33
0.3391	0.2247	905.61	0.38
0.3446	0.4186	961.5	0.32
0.3448	0.1111	882.11	0.41
0.3704	0.2454	931.74	0.38
0.3705	0.45	989.49	0.32
0.3885	0.033	891.66	0.45
0.4124	0.5009	1036.26	0.31
0.4143	0.2745	969.33	0.38
0.4186	0.1348	935.17	0.43
0.4617	0.1487	966.92	0.44
0.4827	0.3198	1030.08	0.39
0.5145	0.0437	973.82	0.48
0.5199	0.1675	1010.8	0.45
0.5466	0.3622	1089.24	0.39
0.5621	0.0478	1005.55	0.5
0.6068	0.1955	1078.15	0.46
0.6214	0.0528	1045.54	0.51
0.6814	0.2195	1137.93	0.47
0.7441	0.0632	1130.18	0.55
0.8393	0.0713	1197.53	0.58
