Measured thermophysical data. Sublimation Pressure and Vapor Molecular Weight of Pentaerythritol Tetranitrate
Source: J. Chem. Eng. Data, 2004, 10.1021/je0302203
Compound 1: 2,2-bis(hydroxymethyl)-1,3-propanediol tetranitrate, C5H8N4O12, InChI=1S/C5H8N4O12/c10-6(11)18-1-5(2-19-7(12)13,3-20-8(14)15)4-21-9(16)17/h1-4H2

System: 2,2-bis(hydroxymethyl)-1,3-propanediol tetranitrate; phases: Crystal, Gas
Property: Vapor or sublimation pressure, kPa (Crystal); method: KNUDSEN:UFactor:2
Temperature, K	Vapor or sublimation pressure, kPa	uncertainty
302.2	2.31e-09	1e-09
310	9.5e-09	3e-09
315	3.02e-08	6e-09
325.4	1.64e-07	3.6e-08
329	3.59e-07	5.6e-08
333	7.31e-07	9.3e-08
343.3	4.08e-06	4.3e-07
344.8	5.41e-06	5.6e-07
350.1	1.28e-05	1.3e-06
353.3	2.17e-05	2.2e-06
356.1	3.01e-05	3e-06
356.9	3.53e-05	3.6e-06
361.1	6.42e-05	6.4e-06
361.9	7.5e-05	7.5e-06
363.2	8.52e-05	8.5e-06
368.1	0.000177	1.8e-05
368.9	0.000204	2e-05
369.2	0.000208	2.1e-05
370	0.00023	2.3e-05
373	0.000342	3.4e-05
374.9	0.000446	4.5e-05
376.2	0.000486	4.9e-05
376.6	0.000576	5.8e-05
379	0.000762	7.6e-05
380.5	0.000944	9.4e-05
380.8	0.000958	9.6e-05
382	0.00115	0.00024
