Measured thermophysical data. Density of Water + Carbon Dioxide at Elevated Pressures: Measurements and Correlation
Source: J. Chem. Eng. Data, 2004, 10.1021/je034260i
Compound 1: carbon dioxide, CO2, InChI=1S/CO2/c2-1-3, purity 99.9999%
Compound 2: water, H2O, InChI=1S/H2O/h1H2

System: carbon dioxide + water; phases: Liquid, Fluid (supercritical or subcritical phases)
Property: Mass density, kg/m3 (Liquid); method: Vibrating tube method
Temperature, K	Pressure, kPa	Mass density, kg/m3	uncertainty
281.05	6210	1021.49	3.06
281.65	1100	1006.19	3.02
283.01	1130	1005.23	3.02
283.02	2140	1008.52	3.03
283.02	8260	1021.53	3.06
283.03	6220	1020.06	3.06
283.8	26490	1030.33	3.09
283.87	20420	1028.31	3.09
283.89	26610	1030.7	3.09
283.9	28640	1031.77	3.1
283.91	24470	1029.66	3.09
283.93	30660	1033.05	3.1
283.95	22460	1028.78	3.09
283.97	10260	1022.65	3.07
283.99	16370	1025.86	3.08
284.04	8250	1021.57	3.07
284.04	12300	1023.52	3.07
284.04	14240	1024.52	3.07
284.05	6230	1020.2	3.06
284.05	18400	1027.24	3.08
284.35	5210	1019.32	3.06
284.38	4180	1015.54	3.05
284.38	4720	1019.07	3.08
284.42	6230	1019.81	3.06
284.47	2110	1008.28	3.03
284.47	4830	1019.14	3.06
284.48	1100	1004.79	3.01
284.48	4710	1018.78	3.06
284.5	4760	1019.07	3.06
284.51	3110	1011.88	3.04
284.54	6220	1019.42	3.06
284.58	4100	1015.97	3.05
284.58	5160	1018.85	3.06
284.59	4100	1015.77	3.05
284.63	2090	1009.19	3.04
284.67	5230	1019.23	3.06
284.7	6230	1019.82	3.06
284.86	1100	1004.81	3.01
284.86	2120	1009.49	3.03
284.89	20550	1027.51	3.08
284.89	22570	1028.58	3.09
284.9	16520	1025.25	3.08
284.91	1070	1004.32	3.01
284.91	4140	1014.67	3.04
284.91	12370	1023.03	3.07
284.91	14480	1024.18	3.07
284.91	18540	1026.43	3.08
284.92	24590	1029.66	3.09
284.93	6180	1019.24	3.06
284.94	8220	1020.51	3.06
284.94	10290	1021.88	3.07
287.63	2110	1008.5	3.03
287.65	12310	1021.85	3.07
287.66	5200	1017.95	3.06
287.68	4180	1015.26	3.05
287.68	10270	1020.68	3.06
287.68	26390	1029.51	3.09
287.69	4900	1017.24	3.05
287.69	22350	1027.36	3.08
287.71	4910	1016.84	3.05
287.72	18330	1025.2	3.08
287.73	1080	1003.32	3.01
287.73	14270	1022.85	3.07
287.75	2130	1008.3	3.04
287.75	5210	1017.95	3.06
287.76	1090	1003.12	3.01
287.76	28390	1030.69	3.09
287.79	8230	1019.62	3.06
287.81	4180	1015.37	3.05
287.84	6160	1018.36	3.06
292.69	12420	1019.91	3.06
292.75	5760	1016.16	3.05
292.76	8360	1017.36	3.05
292.81	6290	1016.3	3.05
292.81	10390	1018.54	3.06
292.83	2140	1005.98	3.08
292.83	8340	1017.37	3.05
292.84	18480	1022.64	3.07
292.84	22490	1025.1	3.08
292.85	1110	1001.4	3.07
292.85	1170	1001.98	3.01
292.85	4180	1011.95	3.04
292.85	16440	1021.87	3.07
292.85	24490	1026.09	3.08
292.86	2190	1006.57	3.02
292.86	30580	1029.11	3.09
292.87	4190	1012.55	3.04
292.87	5660	1015.7	3.05
292.87	8280	1017.39	3.05
292.87	10310	1018.46	3.06
292.88	20470	1023.93	3.07
292.88	28550	1028.23	3.09
292.89	6260	1016.11	3.05
292.89	12360	1019.73	3.06
292.89	14410	1020.7	3.06
292.9	26510	1027.06	3.08
292.9	28530	1028.14	3.08
292.91	1110	1000.5	3.07
292.91	18420	1022.96	3.07
292.91	20470	1023.93	3.07
292.92	26530	1027.26	3.08
292.93	16460	1021.87	3.07
292.93	22470	1024.91	3.08
292.94	2160	1004.88	3.03
292.94	4220	1012.55	3.04
292.98	24490	1025.89	3.08
292.99	14420	1020.6	3.06
293.82	14340	1020.25	3.06
293.82	16380	1021.33	3.06
293.82	18400	1022.5	3.07
293.82	20440	1023.47	3.07
293.83	26480	1026.61	3.08
293.83	28520	1027.68	3.08
293.84	6180	1015.57	3.05
293.84	8240	1017.04	3.05
293.84	12320	1019.18	3.06
293.84	24450	1025.54	3.08
293.84	30530	1028.76	3.09
293.85	10280	1018.01	3.05
293.85	22440	1024.56	3.07
293.88	4160	1011.8	3.04
293.92	2120	1006.03	3.02
293.93	1110	1000.44	3
302.61	4200	1006.91	3.04
302.61	7170	1011.69	3.04
302.68	4180	1005.12	3.04
302.73	6250	1010.48	3.03
302.75	6280	1010.47	3.03
302.75	8260	1012.56	3.04
302.75	14380	1015.77	3.05
302.76	7100	1011.52	3.04
302.76	8260	1012.56	3.04
302.77	16440	1016.84	3.05
302.77	28550	1023.1	3.07
302.78	2150	1000.65	3.01
302.79	10320	1013.73	3.04
302.79	12360	1014.7	3.04
302.79	18460	1017.92	3.05
302.79	30500	1024.1	3.07
302.81	24520	1021.05	3.06
302.82	26540	1022.02	3.07
302.84	22520	1019.96	3.06
302.85	1120	998.17	2.99
302.87	20490	1018.89	3.06
303.06	2150	1001.66	3.01
303.17	1110	998.38	3
312.54	22460	1014.64	3.04
312.73	8300	1006.82	3.02
312.74	6250	1004.25	3.01
312.74	10330	1008.19	3.02
312.74	12380	1009.36	3.03
312.74	16430	1011.61	3.04
312.74	24460	1015.73	3.05
312.75	4190	1000.89	3
312.75	18460	1012.59	3.04
312.77	2170	996.81	2.99
312.77	14410	1010.54	3.03
312.83	28480	1017.8	3.05
312.85	20400	1013.69	3.04
312.88	26490	1016.71	3.05
312.89	1100	994.25	2.98
322.78	16410	1006.09	3.02
322.79	8260	1000.51	3
322.8	1100	988.52	2.97
322.81	2100	990.71	2.97
322.81	18430	1007.07	3.02
322.84	10280	1002.38	3.01
322.84	20440	1008.15	3.02
322.84	22450	1009.13	3.03
322.84	28550	1012.45	3.04
322.85	6220	997.94	2.99
322.85	12330	1003.75	3.01
322.85	14400	1005.11	3.02
322.9	4180	995.07	2.99
322.94	24500	1010.3	3.03
322.94	26530	1011.27	3.03
331.66	22420	1003.86	3.01
331.75	20410	1002.59	3.01
331.82	10320	996.6	2.99
331.83	6260	992.46	2.98
331.83	8310	995.03	2.99
331.85	1180	984.63	2.95
331.85	2190	986.11	2.96
331.85	4200	989.69	2.97
332.06	24460	1005.05	3.02
332.15	12310	998.3	3
332.15	14340	999.28	3
332.15	16360	1000.25	3
332.15	26470	1005.93	3.02
332.15	28470	1007.22	3.02
332.16	18390	1001.53	3
333.02	6240	991.01	2.97
333.02	22470	1003.4	3.01
333.02	24490	1004.48	3.01
333.02	26510	1005.45	3.02
333.03	16410	999.87	3
333.03	18440	1001.14	3
333.03	20460	1002.52	3.01
333.04	10310	994.55	2.98
333.09	12350	996.63	2.99
333.1	4190	988.24	2.97
333.12	14390	998.4	3
333.13	8270	993.09	2.98
333.19	2150	985.58	2.96
333.23	1110	983.7	2.95
