Measured thermophysical data. Solubility in Binary Solvent Mixtures: Anthracene Dissolved in Alcohol + Carbon Tetrachloride Mixtures at 298.2 K
Source: J. Chem. Eng. Data, 2003, 10.1021/je0301904
Compound 1: anthracene, C14H10, InChI=1S/C14H10/c1-2-6-12-10-14-8-4-3-7-13(14)9-11(12)5-1/h1-10H, purity 99%
Compound 2: tetrachloromethane, CCl4, InChI=1S/CCl4/c2-1(3,4)5, purity 99.5%
Compound 3: propan-1-ol, C3H8O, InChI=1S/C3H8O/c1-2-3-4/h4H,2-3H2,1H3, purity 99%
Compound 4: propan-2-ol, C3H8O, InChI=1S/C3H8O/c1-3(2)4/h3-4H,1-2H3, purity 99%
Compound 5: butan-1-ol, C4H10O, InChI=1S/C4H10O/c1-2-3-4-5/h5H,2-4H2,1H3, purity 99%
Compound 6: butan-2-ol, C4H10O, InChI=1S/C4H10O/c1-3-4(2)5/h4-5H,3H2,1-2H3, purity 99%
Compound 7: 2-methyl-1-propanol, C4H10O, InChI=1S/C4H10O/c1-4(2)3-5/h4-5H,3H2,1-2H3, purity 99.5%
Compound 8: 3-methylbutan-1-ol, C5H12O, InChI=1S/C5H12O/c1-5(2)3-4-6/h5-6H,3-4H2,1-2H3, purity 99%

System: propan-1-ol + anthracene; phases: Liquid, Crystal
Property: Mole fraction of anthracene (Liquid); method: OTHER
Temperature, K	Pressure, kPa	Mole fraction of anthracene	uncertainty
298	101	0.000591	1.1e-05

System: tetrachloromethane + anthracene; phases: Liquid, Crystal
Property: Mole fraction of anthracene (Liquid); method: OTHER
Temperature, K	Pressure, kPa	Mole fraction of anthracene	uncertainty
298	101	0.004622	8.7e-05

System: propan-2-ol + anthracene; phases: Liquid, Crystal
Property: Mole fraction of anthracene (Liquid); method: OTHER
Temperature, K	Pressure, kPa	Mole fraction of anthracene	uncertainty
298	101	0.000411	8e-06

System: butan-1-ol + anthracene; phases: Liquid, Crystal
Property: Mole fraction of anthracene (Liquid); method: OTHER
Temperature, K	Pressure, kPa	Mole fraction of anthracene	uncertainty
298	101	0.000801	1.5e-05

System: butan-2-ol + anthracene; phases: Liquid, Crystal
Property: Mole fraction of anthracene (Liquid); method: OTHER
Temperature, K	Pressure, kPa	Mole fraction of anthracene	uncertainty
298	101	0.000585	1.1e-05

System: 2-methyl-1-propanol + anthracene; phases: Liquid, Crystal
Property: Mole fraction of anthracene (Liquid); method: OTHER
Temperature, K	Pressure, kPa	Mole fraction of anthracene	uncertainty
298	101	0.00047	9e-06

System: anthracene + 3-methylbutan-1-ol; phases: Liquid, Crystal
Property: Mole fraction of anthracene (Liquid); method: OTHER
Pressure, kPa	Temperature, K	Mole fraction of anthracene	uncertainty
101	298	0.000727	1.4e-05

System: tetrachloromethane + propan-1-ol + anthracene; phases: Liquid, Crystal
Fixed: Pressure, kPa = 101
Fixed: Temperature, K = 298
Property: Mole fraction of anthracene (Liquid); method: OTHER
Solvent: Mole fraction of tetrachloromethane	Mole fraction of anthracene	uncertainty
0	0.000591	1.1e-05
0.0962	0.00077	1.5e-05
0.1768	0.000965	1.8e-05
0.3363	0.001499	2.8e-05
0.4363	0.001975	3.7e-05
0.5579	0.002651	5e-05
0.765	0.003756	7.1e-05
0.8485	0.004163	7.8e-05
1	0.004622	8.7e-05

System: tetrachloromethane + propan-2-ol + anthracene; phases: Liquid, Crystal
Fixed: Pressure, kPa = 101
Fixed: Temperature, K = 298
Property: Mole fraction of anthracene (Liquid); method: OTHER
Solvent: Mole fraction of tetrachloromethane	Mole fraction of anthracene	uncertainty
0	0.000411	8e-06
0.0947	0.000581	1.1e-05
0.1836	0.000809	1.5e-05
0.3447	0.001406	2.7e-05
0.434	0.001871	3.5e-05
0.5843	0.002703	5.1e-05
0.7524	0.003696	7e-05
0.8736	0.004284	8.1e-05
1	0.004622	8.7e-05

System: tetrachloromethane + butan-1-ol + anthracene; phases: Liquid, Crystal
Fixed: Pressure, kPa = 101
Fixed: Temperature, K = 298
Property: Mole fraction of anthracene (Liquid); method: OTHER
Solvent: Mole fraction of tetrachloromethane	Mole fraction of anthracene	uncertainty
0	0.000801	1.5e-05
0.0983	0.000953	1.8e-05
0.195	0.001178	2.2e-05
0.3955	0.001833	3.5e-05
0.4886	0.002236	4.2e-05
0.5864	0.002768	5.2e-05
0.7894	0.003844	7.2e-05
0.8969	0.004364	8.2e-05
1	0.004622	8.7e-05

System: tetrachloromethane + butan-2-ol + anthracene; phases: Liquid, Crystal
Fixed: Pressure, kPa = 101
Fixed: Temperature, K = 298
Property: Mole fraction of anthracene (Liquid); method: OTHER
Solvent: Mole fraction of tetrachloromethane	Mole fraction of anthracene	uncertainty
0	0.000585	1.1e-05
0.1231	0.000863	1.6e-05
0.207	0.001109	2.1e-05
0.3943	0.001815	3.4e-05
0.4872	0.002252	4.2e-05
0.5925	0.002802	5.3e-05
0.7912	0.003882	7.3e-05
0.8834	0.004306	8.1e-05
1	0.004622	8.7e-05

System: tetrachloromethane + 2-methyl-1-propanol + anthracene; phases: Liquid, Crystal
Fixed: Pressure, kPa = 101
Fixed: Temperature, K = 298
Property: Mole fraction of anthracene (Liquid); method: OTHER
Solvent: Mole fraction of tetrachloromethane	Mole fraction of anthracene	uncertainty
0	0.00047	9e-06
0.1281	0.000696	1.3e-05
0.2088	0.000897	1.7e-05
0.3831	0.001489	2.8e-05
0.495	0.002049	3.9e-05
0.6027	0.002627	5e-05
0.7893	0.003718	7e-05
0.8936	0.004283	8.1e-05
1	0.004622	8.7e-05

System: tetrachloromethane + anthracene + 3-methylbutan-1-ol; phases: Liquid, Crystal
Fixed: Temperature, K = 298
Fixed: Pressure, kPa = 101
Property: Mole fraction of anthracene (Liquid); method: OTHER
Solvent: Mole fraction of tetrachloromethane	Mole fraction of anthracene	uncertainty
0	0.000727	1.4e-05
0.1181	0.000926	1.7e-05
0.2261	0.001187	2.2e-05
0.4333	0.001927	3.6e-05
0.5339	0.00239	4.5e-05
0.6336	0.002922	5.5e-05
0.8162	0.003864	7.3e-05
0.9003	0.004312	8.1e-05
1	0.004622	8.7e-05
