Measured thermophysical data. Vapor Pressure and Liquid Heat Capacity of Alkylene Carbonates
Source: J. Chem. Eng. Data, 2004, 10.1021/je034173q
Compound 1: ethylene carbonate, C3H4O3, InChI=1S/C3H4O3/c4-3-5-1-2-6-3/h1-2H2, purity 99.9%
Compound 2: 4-methyl-1,3-dioxolan-2-one, C4H6O3, InChI=1S/C4H6O3/c1-3-2-6-4(5)7-3/h3H,2H2,1H3, purity 99.9%
Compound 3: 1,2-butylene carbonate, C5H8O3, InChI=1S/C5H8O3/c1-2-4-3-7-5(6)8-4/h4H,2-3H2,1H3, purity 99.7%
Compound 4: glycerine carbonate, C4H6O4, InChI=1S/C4H6O4/c5-1-3-2-7-4(6)8-3/h3,5H,1-2H2

System: ethylene carbonate; phases: Liquid
Fixed: Pressure, kPa = 101.325
Property: Molar heat capacity at constant pressure, J/K/mol (Liquid); method: Small sample (50 mg) DSC
Temperature, K	Molar heat capacity at constant pressure, J/K/mol	uncertainty
383.15	155.8698462	4.403103
388.15	156.7504668	4.403103
393.15	157.6310874	4.403103
398.15	158.511708	4.403103

System: ethylene carbonate; phases: Liquid, Gas
Property: Vapor or sublimation pressure, kPa (Liquid); method: Ebulliometric method (Recirculating still)
Temperature, K	Vapor or sublimation pressure, kPa	uncertainty
451.58	15.19	0.3
456.04	17.52	0.35
460.15	19.94	0.4
466.22	24.23	0.49
487.1	44.69	0.89
493.67	53.59	1.07
500.01	63.34	1.27
505.5	73.45	1.47

System: 4-methyl-1,3-dioxolan-2-one; phases: Liquid
Fixed: Pressure, kPa = 101.325
Property: Molar heat capacity at constant pressure, J/K/mol (Liquid); method: Small sample (50 mg) DSC
Temperature, K	Molar heat capacity at constant pressure, J/K/mol	uncertainty
303.15	170.4880288	5.104432
313.15	172.5298016	5.104432
323.15	174.5715744	5.104432
333.15	176.6133472	5.104432
343.15	178.65512	5.104432
353.15	180.6968928	5.104432
363.15	183.759552	5.104432
373.15	185.8013248	5.104432
383.15	188.863984	5.104432
393.15	190.9057568	5.104432

System: 4-methyl-1,3-dioxolan-2-one; phases: Liquid, Gas
Property: Vapor or sublimation pressure, kPa (Liquid); method: Ebulliometric method (Recirculating still)
Temperature, K	Vapor or sublimation pressure, kPa	uncertainty
459.85	24.21	0.48
465.35	28.46	0.57
468.45	31.24	0.63
471.75	34.04	0.68
475.85	38.09	0.76
478.35	40.81	0.82
482.25	45.44	0.91
485.05	49.16	0.98
491.25	57.38	1.15
494.25	61.83	1.24
496.95	66.33	1.33
499.45	70.45	1.41
501.25	73.46	1.47
504.05	78.67	1.57
506.65	83.64	1.67
508.15	86.64	1.73
509.75	89.87	1.8
511.15	92.66	1.85
513.25	97.17	1.94

System: 1,2-butylene carbonate; phases: Liquid
Fixed: Pressure, kPa = 101.325
Property: Molar heat capacity at constant pressure, J/K/mol (Liquid); method: Small sample (50 mg) DSC
Temperature, K	Molar heat capacity at constant pressure, J/K/mol	uncertainty
283.15	192.7512652	5.805761
293.15	195.0735696	5.805761
303.15	197.395874	5.805761
313.15	199.7181784	5.805761
323.15	202.0404828	5.805761
333.15	205.5239394	5.805761
343.15	207.8462438	5.805761
353.15	210.1685482	5.805761
363.15	212.4908526	5.805761
373.15	214.813157	5.805761

System: 1,2-butylene carbonate; phases: Liquid, Gas
Property: Vapor or sublimation pressure, kPa (Liquid); method: Ebulliometric method (Recirculating still)
Temperature, K	Vapor or sublimation pressure, kPa	uncertainty
397.25	1.9	0.04
402.93	2.44	0.05
409.65	3.23	0.07
417.69	4.45	0.09
424.67	5.8	0.12
432.03	7.57	0.15
438.31	9.43	0.19
445.57	12.03	0.24
453.2	15.39	0.31
460.53	19.28	0.39
467.68	23.89	0.48
474.59	29.14	0.58
481.93	35.77	0.72
488.3	42.38	0.85
495.04	50.52	1.01
501.76	59.91	1.2
508.33	70.54	1.41
515.54	83.68	1.67
522.74	99.08	1.98

System: glycerine carbonate; phases: Liquid
Fixed: Pressure, kPa = 101.325
Property: Molar heat capacity at constant pressure, J/K/mol (Liquid); method: Small sample (50 mg) DSC
Temperature, K	Molar heat capacity at constant pressure, J/K/mol	uncertainty
283.15	211.3775916	5.904402
293.15	213.7393524	5.904402
303.15	214.9202328	5.904402
313.15	216.1011132	5.904402
323.15	217.2819936	5.904402
333.15	218.462874	5.904402
343.15	220.8246348	5.904402
353.15	223.1863956	5.904402
363.15	225.5481564	7.0852824
373.15	226.7290368	7.0852824

System: glycerine carbonate; phases: Liquid, Gas
Property: Vapor or sublimation pressure, kPa (Liquid); method: Ebulliometric method (Recirculating still)
Temperature, K	Vapor or sublimation pressure, kPa	uncertainty
429.91	0.26	0.01
432.47	0.3	0.01
434.39	0.33	0.01
435.94	0.36	0.01
438.9	0.41	0.01
447.48	0.62	0.02
449.41	0.68	0.02
452.48	0.78	0.02
455.61	0.9	0.02
