Measured thermophysical data. Surface Tension Measurements of Propane (R-290) and Isobutane (R-600a) from (253 to 333) K
Source: J. Chem. Eng. Data, 2003, 10.1021/je034093m
Compound 1: propane, C3H8, InChI=1S/C3H8/c1-3-2/h3H2,1-2H3
Compound 2: 2-methylpropane, C4H10, InChI=1S/C4H10/c1-4(2)3/h4H,1-3H3

System: propane; phases: Liquid, Gas
Property: Surface tension liquid-gas, N/m (Liquid); method: Capillary rise
Temperature, K	Surface tension liquid-gas, N/m	uncertainty
253.08	0.01298	0.00016
253.08	0.01298	0.00016
254.8	0.0127	0.00016
254.8	0.01269	0.00016
256.89	0.01238	0.00016
256.89	0.01238	0.00016
258.68	0.01221	0.00016
258.68	0.0122	0.00016
260.71	0.01194	0.00016
260.71	0.01197	0.00016
262.7	0.01156	0.00016
262.7	0.01158	0.00016
265.09	0.01131	0.00016
265.09	0.01132	0.00016
267.09	0.01106	0.00016
267.09	0.01105	0.00016
268.88	0.01081	0.00016
268.88	0.01081	0.00016
270.72	0.01052	0.00016
270.72	0.01053	0.00016
273.2	0.01017	0.00016
273.2	0.01017	0.00016
275.38	0.00997	0.00016
275.38	0.00997	0.00016
277.43	0.00971	0.00016
277.43	0.00971	0.00016
279.39	0.0094	0.00016
279.39	0.0094	0.00016
281.48	0.00914	0.00016
281.48	0.00915	0.00016
289.27	0.00814	0.00016
289.27	0.00815	0.00016
293.85	0.00749	0.00016
293.85	0.00749	0.00016
295.73	0.00723	0.00016
295.73	0.00723	0.00016
297.4	0.00704	0.00016
297.4	0.00704	0.00016
299.41	0.00685	0.00016
299.41	0.00687	0.00016
301.45	0.00662	0.00016
301.45	0.00662	0.00016
303.54	0.00633	0.00016
303.54	0.00634	0.00016
305.17	0.00621	0.00016
305.17	0.00622	0.00016
308.01	0.00586	0.00016
308.01	0.00586	0.00016
310.73	0.00555	0.00016
310.73	0.00555	0.00016
314.39	0.00506	0.00016
314.39	0.00506	0.00016
315.71	0.00485	0.00016
315.71	0.00484	0.00016
317.64	0.00462	0.00016
317.64	0.00463	0.00016
319.43	0.00442	0.00016
319.43	0.00442	0.00016
321.41	0.00425	0.00016
321.41	0.00426	0.00016
323.34	0.00401	0.00016
323.34	0.00402	0.00016
325.32	0.0038	0.00016
325.32	0.00381	0.00016
327.4	0.0036	0.00016
327.4	0.00362	0.00016
329.79	0.00332	0.00016
329.79	0.00331	0.00016
331.79	0.00312	0.00016
331.79	0.00313	0.00016
333.3	0.00294	0.00015
333.3	0.00295	0.00015

System: 2-methylpropane; phases: Liquid, Gas
Property: Surface tension liquid-gas, N/m (Liquid); method: Capillary rise
Temperature, K	Surface tension liquid-gas, N/m	uncertainty
255.02	0.01485	0.00016
255.02	0.01485	0.00016
256.94	0.01469	0.00016
256.94	0.01469	0.00016
258.83	0.01436	0.00016
258.83	0.01437	0.00016
261.09	0.01417	0.00016
261.09	0.01417	0.00016
262.95	0.01402	0.00016
262.95	0.01403	0.00016
264.86	0.0137	0.00016
264.86	0.01372	0.00016
267.09	0.01346	0.00016
267.09	0.01344	0.00016
268.86	0.01316	0.00016
268.86	0.01316	0.00016
270.9	0.01295	0.00016
270.9	0.01297	0.00016
273.38	0.01268	0.00016
273.38	0.01268	0.00016
275.39	0.01257	0.00016
275.39	0.0126	0.00016
277.16	0.01229	0.00016
277.16	0.01229	0.00016
279.34	0.01206	0.00016
279.34	0.01206	0.00016
281.3	0.01177	0.00016
281.3	0.01175	0.00016
283.29	0.01162	0.00016
283.29	0.01162	0.00016
285.43	0.01128	0.00016
285.43	0.01128	0.00016
287.5	0.01114	0.00016
287.5	0.01113	0.00016
289.31	0.01086	0.00016
289.31	0.01086	0.00016
291.65	0.01074	0.00016
291.65	0.01072	0.00016
293.66	0.0105	0.00016
293.66	0.0105	0.00016
295.75	0.01028	0.00016
295.75	0.01028	0.00016
297.83	0.01001	0.00016
297.83	0.01005	0.00016
299.48	0.00984	0.00016
299.48	0.00984	0.00016
301.43	0.00957	0.00016
301.43	0.0096	0.00016
303.91	0.00937	0.00016
303.91	0.00938	0.00016
305.75	0.00914	0.00016
305.75	0.00914	0.00016
307.41	0.00898	0.00016
307.41	0.00898	0.00016
309.49	0.00875	0.00016
309.49	0.00877	0.00016
311.81	0.00852	0.00016
311.81	0.00851	0.00016
313.49	0.00829	0.00016
313.49	0.00831	0.00016
315.82	0.00805	0.00016
315.82	0.00809	0.00016
317.75	0.0079	0.00016
317.75	0.00791	0.00016
319.32	0.00769	0.00016
319.32	0.00768	0.00016
321.96	0.00745	0.00016
321.96	0.00746	0.00016
323.71	0.00725	0.00016
323.71	0.00722	0.00016
325.37	0.00702	0.00016
325.37	0.00704	0.00016
327.8	0.00679	0.00016
327.8	0.00681	0.00016
329.49	0.00671	0.00016
329.49	0.00671	0.00016
331.68	0.00642	0.00016
331.68	0.00642	0.00016
333.28	0.00629	0.00016
333.28	0.00629	0.00016
