Measured thermophysical data. Isobaric Vapor-Liquid Equilibria for Binary and Ternary Mixtures of Ethanol, Methylcyclohexane and p-Xylene
Source: J. Chem. Eng. Data, 2004, 10.1021/je0342318
Compound 1: ethanol, C2H6O, InChI=1S/C2H6O/c1-2-3/h3H,2H2,1H3, purity 99.5%
Compound 2: methylcyclohexane, C7H14, InChI=1S/C7H14/c1-7-5-3-2-4-6-7/h7H,2-6H2,1H3, purity 99%
Compound 3: 1,4-dimethylbenzene, C8H10, InChI=1S/C8H10/c1-7-3-5-8(2)6-4-7/h3-6H,1-2H3, purity 99%

System: ethanol; phases: Liquid, Gas
Property: Normal boiling temperature, K (Liquid); method: EBULLIO:UFactor:32
Normal boiling temperature, K	uncertainty
351.41	0.1

System: ethanol; phases: Liquid
Property: Refractive index (Na D-line) (Liquid); method: ABBE:monoch:UFactor:2
Temperature, K	Pressure, kPa	Refractive index (Na D-line)	uncertainty
298.15	101.325	1.3592	0.0006

System: ethanol; phases: Liquid
Property: Mass density, kg/m3 (Liquid); method: Vibrating tube method
Temperature, K	Pressure, kPa	Mass density, kg/m3	uncertainty
298.15	101.325	785.04	0.51

System: methylcyclohexane; phases: Liquid, Gas
Property: Normal boiling temperature, K (Liquid); method: EBULLIO:UFactor:32
Normal boiling temperature, K	uncertainty
373.96	0.5

System: methylcyclohexane; phases: Liquid
Property: Refractive index (Na D-line) (Liquid); method: ABBE:monoch:UFactor:2
Temperature, K	Pressure, kPa	Refractive index (Na D-line)	uncertainty
298.15	101.325	1.4204	0.0006

System: methylcyclohexane; phases: Liquid
Property: Mass density, kg/m3 (Liquid); method: VIBTUB:mpoint:UFactor:4
Temperature, K	Pressure, kPa	Mass density, kg/m3	uncertainty
298.15	101.325	764.87	0.44

System: 1,4-dimethylbenzene; phases: Liquid, Gas
Property: Normal boiling temperature, K (Liquid); method: EBULLIO:UFactor:32
Normal boiling temperature, K	uncertainty
411.23	0.5

System: 1,4-dimethylbenzene; phases: Liquid
Property: Refractive index (Na D-line) (Liquid); method: ABBE:monoch:UFactor:2
Temperature, K	Pressure, kPa	Refractive index (Na D-line)	uncertainty
298.15	101.325	1.493	0.001

System: 1,4-dimethylbenzene; phases: Liquid
Property: Mass density, kg/m3 (Liquid); method: Vibrating tube method
Temperature, K	Pressure, kPa	Mass density, kg/m3	uncertainty
298.15	101.325	856.55	0.56

System: ethanol + methylcyclohexane; phases: Liquid, Gas
Fixed: Pressure, kPa = 101.3
Property: Boiling temperature at pressure P, K (Liquid); method: EBULLIO:UFactor:8
Mole fraction of ethanol	Boiling temperature at pressure P, K	uncertainty
0.008	368.84	1.3
0.024	360.02	1.12
0.04	354.69	0.75
0.086	349.67	0.69
0.143	347.79	0.68
0.197	346.93	0.68
0.221	346.64	0.68
0.307	346.03	0.68
0.358	345.82	0.68
0.399	345.68	0.68
0.44	345.59	0.68
0.523	345.4	0.68
0.549	345.36	0.68
0.607	345.32	0.68
0.66	345.3	0.68
0.718	345.35	0.68
0.754	345.46	0.68
0.797	345.66	0.68
0.849	346.12	0.68
0.899	346.92	0.68
0.948	348.35	0.68
0.976	349.75	0.69

System: ethanol + methylcyclohexane; phases: Gas, Liquid
Fixed: Pressure, kPa = 101.3
Property: Mole fraction of ethanol (Gas); method: CHROM:UFactor:2
Mole fraction of ethanol	Mole fraction of ethanol	uncertainty
0.008	0.161	0.023
0.024	0.342	0.02
0.04	0.464	0.011
0.086	0.554	0.009
0.143	0.583	0.008
0.197	0.594	0.008
0.221	0.604	0.008
0.307	0.612	0.008
0.358	0.615	0.008
0.399	0.622	0.007
0.44	0.628	0.007
0.523	0.632	0.007
0.549	0.636	0.007
0.607	0.643	0.007
0.66	0.65	0.007
0.718	0.664	0.007
0.754	0.673	0.007
0.797	0.69	0.006
0.849	0.722	0.006
0.899	0.765	0.005
0.948	0.839	0.005
0.976	0.909	0.006

System: ethanol + methylcyclohexane; phases: Liquid, Gas
Property: Azeotropic composition: mole fraction of ethanol (Liquid); method: By X=Y
Temperature, K	Azeotropic composition: mole fraction of ethanol	uncertainty
345.3	0.65	0.01

System: ethanol + methylcyclohexane; phases: Liquid, Gas
Property: Azeotropic composition: mole fraction of ethanol (Liquid); method: By X=Y
Pressure, kPa	Azeotropic composition: mole fraction of ethanol	uncertainty
101.3	0.65	0.01

System: ethanol + 1,4-dimethylbenzene; phases: Liquid, Gas
Fixed: Pressure, kPa = 101.3
Property: Boiling temperature at pressure P, K (Liquid); method: EBULLIO:UFactor:8
Mole fraction of ethanol	Boiling temperature at pressure P, K	uncertainty
0.008	404.93	1.36
0.031	391.42	1.1
0.082	372.38	0.88
0.123	366.03	0.71
0.196	361.22	0.69
0.255	359.31	0.68
0.313	358.12	0.68
0.349	357.3	0.68
0.397	356.39	0.68
0.464	355.72	0.68
0.488	355.34	0.68
0.553	354.74	0.68
0.6	354.28	0.68
0.65	353.89	0.68
0.706	353.45	0.68
0.75	353.09	0.68
0.802	352.7	0.68
0.85	352.32	0.68
0.896	351.99	0.68
0.949	351.63	0.68
0.979	351.48	0.68

System: ethanol + 1,4-dimethylbenzene; phases: Gas, Liquid
Fixed: Pressure, kPa = 101.3
Property: Mole fraction of ethanol (Gas); method: CHROM:UFactor:4
Mole fraction of ethanol	Mole fraction of ethanol	uncertainty
0.008	0.189	0.026
0.031	0.479	0.023
0.082	0.734	0.012
0.123	0.795	0.008
0.196	0.835	0.006
0.255	0.847	0.006
0.313	0.857	0.005
0.349	0.863	0.005
0.397	0.875	0.005
0.464	0.881	0.005
0.488	0.883	0.005
0.553	0.887	0.004
0.6	0.893	0.004
0.65	0.898	0.004
0.706	0.902	0.004
0.75	0.906	0.004
0.802	0.915	0.004
0.85	0.927	0.003
0.896	0.94	0.003
0.949	0.962	0.003
0.979	0.982	0.003

System: 1,4-dimethylbenzene + methylcyclohexane; phases: Liquid, Gas
Fixed: Pressure, kPa = 101.3
Property: Boiling temperature at pressure P, K (Liquid); method: EBULLIO:UFactor:8
Mole fraction of methylcyclohexane	Boiling temperature at pressure P, K	uncertainty
0.056	407.55	0.69
0.153	401.8	0.69
0.198	399.38	0.69
0.244	396.93	0.69
0.3	394.46	0.69
0.353	392.34	0.69
0.454	388.79	0.69
0.502	387.07	0.69
0.544	385.62	0.69
0.598	383.8	0.69
0.648	382.27	0.68
0.695	381.22	0.68
0.745	379.88	0.68
0.81	378.36	0.68
0.85	377.28	0.68
0.901	376.11	0.68
0.946	375.07	0.68
0.98	374.38	0.68

System: 1,4-dimethylbenzene + methylcyclohexane; phases: Gas, Liquid
Fixed: Pressure, kPa = 101.3
Property: Mole fraction of methylcyclohexane (Gas); method: CHROM:UFactor:4
Mole fraction of methylcyclohexane	Mole fraction of methylcyclohexane	uncertainty
0.056	0.164	0.007
0.153	0.371	0.014
0.198	0.432	0.017
0.244	0.506	0.019
0.3	0.569	0.017
0.353	0.628	0.014
0.454	0.725	0.011
0.502	0.759	0.01
0.544	0.791	0.008
0.598	0.819	0.007
0.648	0.847	0.006
0.695	0.87	0.005
0.745	0.898	0.004
0.81	0.926	0.004
0.85	0.945	0.003
0.901	0.965	0.003
0.946	0.981	0.002
0.98	0.993	0.002

System: ethanol + 1,4-dimethylbenzene + methylcyclohexane; phases: Liquid, Gas
Fixed: Pressure, kPa = 101.3
Property: Mole fraction of methylcyclohexane (Liquid); method: CHROM:UFactor:8
Property: Mole fraction of methylcyclohexane (Gas); method: CHROM:UFactor:8
Property: Mole fraction of ethanol (Gas); method: CHROM:UFactor:8
Temperature, K	Mole fraction of ethanol	Mole fraction of methylcyclohexane	uncertainty	Mole fraction of methylcyclohexane	uncertainty	Mole fraction of ethanol	uncertainty
388.1	0.03	0.045	0.003	0.087	0.006	0.524	
375.71	0.048	0.21	0.013	0.248	0.018	0.533	
365.56	0.046	0.509	0.03	0.403	0.03	0.502	
355.85	0.043	0.899	0.006	0.519	0.036	0.47	
351.6	0.082	0.818	0.011	0.422	0.031	0.564	
353	0.09	0.694	0.019	0.384	0.029	0.585	
354.54	0.094	0.594	0.025	0.355	0.026	0.598	
356	0.099	0.504	0.031	0.325	0.024	0.613	
357.85	0.1	0.411	0.026	0.288	0.021	0.635	
360.29	0.091	0.308	0.019	0.244	0.018	0.664	
358.15	0.194	0.1	0.006	0.09	0.007	0.802	
355.64	0.195	0.197	0.012	0.156	0.012	0.758	
353.95	0.206	0.297	0.018	0.21	0.016	0.722	
352.45	0.198	0.405	0.025	0.26	0.019	0.687	
350.99	0.205	0.496	0.031	0.299	0.022	0.659	
348.6	0.215	0.638	0.022	0.348	0.026	0.632	
347.87	0.179	0.765	0.015	0.382	0.028	0.61	
347.43	0.299	0.601	0.025	0.346	0.026	0.639	
348.72	0.294	0.505	0.031	0.306	0.023	0.668	
353.55	0.286	0.201	0.012	0.164	0.012	0.768	
353.87	0.396	0.097	0.006	0.098	0.007	0.823	
351.83	0.403	0.198	0.012	0.171	0.013	0.768	
349.75	0.394	0.292	0.018	0.232	0.017	0.724	
348.53	0.405	0.399	0.025	0.286	0.021	0.685	
346.29	0.441	0.51	0.03	0.346	0.026	0.645	
346.97	0.5	0.402	0.025	0.318	0.024	0.665	
348.85	0.498	0.302	0.019	0.246	0.018	0.71	
350.86	0.499	0.183	0.011	0.181	0.013	0.761	
349	0.609	0.201	0.012	0.222	0.017	0.736	
346.25	0.611	0.339	0.021	0.322	0.024	0.665	
347.53	0.702	0.201	0.012	0.26	0.019	0.714	
351.45	0.707	0.057	0.004	0.098	0.007	0.835	
348.83	0.797	0.1	0.1	0.185	0.014	0.78	
349.81	0.898	0.053	0.004	0.143	0.011	0.831	
