Measured thermophysical data. Excess Enthalpy, Excess Volume, Viscosity Deviation, and Speed of Sound Deviation for the Mixture Tetrahydrofuran + 2,2,2-Trifluoroethanol at (283.15, 298.15, and 313.15) K
Source: J. Chem. Eng. Data, 2003, 10.1021/je034076x
Compound 1: tetrahydrofuran, C4H8O, InChI=1S/C4H8O/c1-2-4-5-3-1/h1-4H2
Compound 2: 2,2,2-trifluoroethanol, C2H3F3O, InChI=1S/C2H3F3O/c3-2(4,5)1-6/h6H,1H2

System: tetrahydrofuran; phases: Liquid
Fixed: Pressure, kPa = 101.325
Property: Viscosity, Pa*s (Liquid); method: Capillary tube (Ostwald; Ubbelohde) method
Temperature, K	Viscosity, Pa*s	uncertainty
283.15	0.0005438	5.5e-06
298.15	0.0004645	4.8e-06
313.15	0.0003992	4.3e-06

System: tetrahydrofuran; phases: Liquid
Fixed: Pressure, kPa = 101.325
Property: Speed of sound, m/s (Liquid); method: Pulse-echo method
Temperature, K	Speed of sound, m/s	uncertainty
283.15	1348.8	1.2
298.15	1279	1.2
313.15	1204.8	1.2

System: tetrahydrofuran; phases: Liquid
Fixed: Pressure, kPa = 101.325
Property: Mass density, kg/m3 (Liquid); method: Vibrating tube method
Temperature, K	Mass density, kg/m3	uncertainty
283.15	898.62	0.47
298.15	882.18	0.46
313.15	865.95	0.45

System: 2,2,2-trifluoroethanol; phases: Liquid
Fixed: Pressure, kPa = 101.325
Property: Viscosity, Pa*s (Liquid); method: Capillary tube (Ostwald; Ubbelohde) method
Temperature, K	Viscosity, Pa*s	uncertainty
283.15	0.0026935	1.98e-05
298.15	0.0017548	1.33e-05
313.15	0.0012085	9.5e-06

System: 2,2,2-trifluoroethanol; phases: Liquid
Fixed: Pressure, kPa = 101.325
Property: Speed of sound, m/s (Liquid); method: Pulse-echo method
Temperature, K	Speed of sound, m/s	uncertainty
283.15	872.7	0.5
298.15	833.2	0.5
313.15	793.3	0.5

System: 2,2,2-trifluoroethanol; phases: Liquid
Fixed: Pressure, kPa = 101.325
Property: Mass density, kg/m3 (Liquid); method: Vibrating tube method
Temperature, K	Mass density, kg/m3	uncertainty
283.15	1408.1	0.3
298.15	1382.56	0.28
313.15	1356.89	0.27

System: 2,2,2-trifluoroethanol + tetrahydrofuran; phases: Liquid
Fixed: Pressure, kPa = 101.3
Property: Excess molar enthalpy (molar enthalpy of mixing), kJ/mol (Liquid); method: Flow calorimetry
Temperature, K	Mole fraction of tetrahydrofuran	Excess molar enthalpy (molar enthalpy of mixing), kJ/mol	uncertainty
283.15	0.053	-0.383	0.005
283.15	0.107	-0.723	0.009
283.15	0.212	-1.235	0.016
283.15	0.316	-1.594	0.02
283.15	0.417	-1.735	0.022
283.15	0.517	-1.729	0.022
283.15	0.618	-1.569	0.02
283.15	0.717	-1.27	0.016
283.15	0.81	-0.904	0.012
283.15	0.908	-0.448	0.006
283.15	0.954	-0.213	0.003
298.15	0.053	-0.472	0.006
298.15	0.107	-0.939	0.012
298.15	0.212	-1.543	0.019
298.15	0.316	-1.883	0.023
298.15	0.417	-2.003	0.025
298.15	0.517	-1.956	0.024
298.15	0.618	-1.751	0.022
298.15	0.717	-1.427	0.018
298.15	0.81	-0.993	0.013
298.15	0.908	-0.489	0.006
298.15	0.954	-0.234	0.003
313.15	0.053	-0.474	0.006
313.15	0.107	-0.928	0.012
313.15	0.212	-1.57	0.02
313.15	0.316	-1.984	0.025
313.15	0.417	-2.144	0.027
313.15	0.517	-2.094	0.026
313.15	0.618	-1.869	0.023
313.15	0.717	-1.51	0.019
313.15	0.81	-1.063	0.013
313.15	0.908	-0.525	0.007
313.15	0.954	-0.257	0.004

System: 2,2,2-trifluoroethanol + tetrahydrofuran; phases: Liquid
Fixed: Pressure, kPa = 101.3
Property: Viscosity, Pa*s (Liquid); method: Capillary tube (Ostwald; Ubbelohde) method
Temperature, K	Mole fraction of tetrahydrofuran	Viscosity, Pa*s	uncertainty
283.15	0.1022	0.0021068	1.59e-05
283.15	0.2018	0.0015776	1.23e-05
283.15	0.3033	0.0012459	1.01e-05
283.15	0.4037	0.0010367	8.7e-06
283.15	0.5014	0.0008927	7.7e-06
283.15	0.6036	0.0007821	7e-06
283.15	0.7004	0.0007023	6.5e-06
283.15	0.8532	0.0006208	6e-06
283.15	0.9033	0.0005846	5.8e-06
298.15	0.1022	0.001467	1.14e-05
298.15	0.2018	0.0011691	9.4e-06
298.15	0.3033	0.0009632	8e-06
298.15	0.4037	0.0008286	7.1e-06
298.15	0.5014	0.0007228	6.4e-06
298.15	0.6036	0.0006432	5.9e-06
298.15	0.7004	0.0005841	5.5e-06
298.15	0.8532	0.0005222	5.2e-06
298.15	0.9033	0.0004959	5e-06
313.15	0.1022	0.0010567	8.5e-06
313.15	0.2018	0.0008873	7.4e-06
313.15	0.3033	0.0007583	6.5e-06
313.15	0.4037	0.0006648	5.9e-06
313.15	0.5014	0.0005936	5.5e-06
313.15	0.6036	0.0005356	5.1e-06
313.15	0.7004	0.0004916	4.8e-06
313.15	0.8532	0.0004431	4.5e-06
313.15	0.9033	0.0004239	4.4e-06

System: 2,2,2-trifluoroethanol + tetrahydrofuran; phases: Liquid
Fixed: Pressure, kPa = 101.3
Property: Speed of sound, m/s (Liquid); method: Pulse-echo method
Temperature, K	Mole fraction of tetrahydrofuran	Speed of sound, m/s	uncertainty
283.15	0.1087	897.7	0.6
283.15	0.2084	932.6	0.6
283.15	0.299	966.8	0.7
283.15	0.4038	1010.1	0.8
283.15	0.4953	1052.1	0.8
283.15	0.6013	1104.4	0.9
283.15	0.7048	1161.1	1
283.15	0.7958	1213.8	1
283.15	0.9058	1283.2	1.1
283.15	0.9657	1324.1	1.2
298.15	0.1106	854.6	0.6
298.15	0.2095	885	0.6
298.15	0.3019	917.9	0.7
298.15	0.4065	959.4	0.7
298.15	0.5076	1003.3	0.8
298.15	0.6172	1055.8	0.9
298.15	0.7123	1104.9	1
298.15	0.8205	1164.5	1.1
298.15	0.9042	1216.3	1.1
313.15	0.1024	808.3	0.6
313.15	0.1991	834.3	0.6
313.15	0.3032	868.4	0.7
313.15	0.3554	886.4	0.7
313.15	0.4972	942.6	0.8
313.15	0.596	985.9	0.9
313.15	0.7191	1045.5	1
313.15	0.7922	1082.8	1
313.15	0.8937	1138.7	1.1

System: 2,2,2-trifluoroethanol + tetrahydrofuran; phases: Liquid
Fixed: Pressure, kPa = 101.3
Property: Mass density, kg/m3 (Liquid); method: Vibrating tube method
Temperature, K	Mole fraction of tetrahydrofuran	Mass density, kg/m3	uncertainty
283.15	0.1087	1336.89	0.26
283.15	0.2084	1277.4	0.28
283.15	0.299	1226.31	0.3
283.15	0.4038	1171.02	0.33
283.15	0.4953	1125.37	0.35
283.15	0.5967	1076.79	0.38
283.15	0.7048	1027.26	0.4
283.15	0.8048	982.37	0.42
283.15	0.8868	946.79	0.44
283.15	0.9657	913.1	0.46
298.15	0.0362	1358.26	0.24
298.15	0.1041	1315.13	0.25
298.15	0.2053	1255.19	0.27
298.15	0.3031	1201.4	0.29
298.15	0.4018	1150.15	0.32
298.15	0.4986	1103.07	0.34
298.15	0.5989	1055.77	0.37
298.15	0.7019	1009.19	0.39
298.15	0.7978	967.32	0.41
298.15	0.899	924.33	0.44
313.15	0.1024	1291.64	0.24
313.15	0.1991	1234.96	0.26
313.15	0.3032	1178.51	0.29
313.15	0.3554	1151.61	0.3
313.15	0.4972	1082.56	0.34
313.15	0.596	1037.96	0.36
313.15	0.7191	983.05	0.39
313.15	0.7922	952.13	0.41
313.15	0.8937	909.37	0.43
