Measured thermophysical data. Pressure-Density-Temperature Behavior of CO2/Acetone, CO2/Toluene, and CO2/Monochlorobenzene Mixtures in the Near-Critical Region
Source: J. Chem. Eng. Data, 2004, 10.1021/je0342771
Compound 1: carbon dioxide, CO2, InChI=1S/CO2/c2-1-3
Compound 2: toluene, C7H8, InChI=1S/C7H8/c1-7-5-3-2-4-6-7/h2-6H,1H3
Compound 3: acetone, C3H6O, InChI=1S/C3H6O/c1-3(2)4/h1-2H3
Compound 4: chlorobenzene, C6H5Cl, InChI=1S/C6H5Cl/c7-6-4-2-1-3-5-6/h1-5H

System: acetone + carbon dioxide; phases: Gas, Liquid
Fixed: Mole fraction of carbon dioxide = 0.9
Property: Boiling temperature at pressure P, K (Gas); method: ISOPVT
Pressure, kPa	Boiling temperature at pressure P, K	uncertainty
9200	363	1.3
9500	322.1	1.3
10300	357.1	1.3
10800	347.2	1.2
10800	352.1	1.2
10900	338.2	1.2
10900	343	1.2
11000	334.4	1.2

System: acetone + carbon dioxide; phases: Fluid (supercritical or subcritical phases)
Fixed: Mole fraction of carbon dioxide = 0.9
Property: Amount density, mol/m3 (Fluid (supercritical or subcritical phases)); method: ISOCHOR
Temperature, K	Pressure, kPa	Amount density, mol/m3	uncertainty
313.2	4190	2910	40
313.2	5760	5340	60
313.2	6390	6900	90
313.2	6780	8430	140
313.2	6950	9670	420
313.2	7030	12630	460
313.2	7220	14100	170
313.2	7850	15660	170
313.2	7030	11110	490
323.2	4600	2910	40
323.2	6540	5340	50
323.2	7390	6900	100
323.2	7980	8430	150
323.2	8330	9670	100
323.2	8590	11110	160
323.2	8880	12630	180
323.2	9110	14100	140
323.2	9680	15660	120
333.2	4980	2910	30
333.2	7220	5340	40
333.2	8290	6900	60
333.2	8960	8430	100
333.2	9400	9670	120
333.2	9750	11110	150
333.2	10100	12630	100
333.2	10800	14100	60
333.2	13260	15660	40
343.2	5380	2910	30
343.2	7880	5340	30
343.2	9150	6900	50
343.2	9930	8430	90
343.2	10440	9670	100
343.2	10900	11110	80
343.2	11820	12630	60
343.2	13550	14100	40
343.2	17150	15660	30
353.2	5760	2910	30
353.2	8560	5340	30
353.2	9950	6900	40
353.2	10890	8430	60
353.2	11780	9670	60
353.2	12820	11110	50
353.2	14190	12630	50
353.2	16520	14100	30
353.2	20990	15660	20
363.2	6140	2910	20
363.2	9220	5340	20
363.2	10850	6900	30
363.2	12190	8430	40
363.2	13410	9670	40
363.2	14780	11110	40
363.2	16710	12630	40
363.2	19600	14100	30
363.2	24870	15660	20
373.2	6540	2910	20
373.2	9930	5340	20
373.2	11870	6900	30
373.2	13570	8430	30
373.2	15080	9670	40
373.2	16800	11110	40
373.2	19290	12630	30
373.2	22770	14100	20
373.2	28810	15660	20
383.2	6990	2910	20
383.2	10650	5340	20
383.2	12900	6900	30
383.2	14950	8430	30
383.2	16770	9670	30
383.2	18850	11110	30
383.2	21910	12630	30
383.2	25980	14100	20
383.2	32840	15660	20
393.2	7420	2910	20
393.2	11410	5340	20
393.2	13930	6900	30
393.2	16330	8430	30
393.2	18470	9670	30
393.2	20920	11110	30
393.2	24570	12630	30
393.2	29240	14100	20
393.2	36990	15660	20

System: toluene + carbon dioxide; phases: Gas, Liquid
Fixed: Mole fraction of carbon dioxide = 0.9
Property: Boiling temperature at pressure P, K (Gas); method: ISOPVT
Pressure, kPa	Boiling temperature at pressure P, K	uncertainty
11100	323.6	1.2
13000	341.2	1.2
14900	357	1.1
15200	386	1.1
15500	374.4	1.1

System: toluene + carbon dioxide; phases: Fluid (supercritical or subcritical phases)
Fixed: Mole fraction of carbon dioxide = 0.9
Property: Amount density, mol/m3 (Fluid (supercritical or subcritical phases)); method: ISOCHOR
Temperature, K	Pressure, kPa	Amount density, mol/m3	uncertainty
313.2	4400	2980	50
313.2	6760	6700	140
313.2	7190	8440	150
313.2	7540	10140	190
313.2	7850	12250	220
313.2	8040	13750	180
313.2	8530	15770	190
323.2	4740	2980	40
323.2	7780	6700	50
323.2	8540	8440	140
323.2	8950	10140	120
323.2	9420	12250	160
323.2	9760	13750	110
323.2	11000	15770	80
333.2	5070	2980	30
333.2	8710	6700	50
333.2	9690	8440	90
333.2	10290	10140	110
333.2	10960	12250	100
333.2	11600	13750	100
333.2	15350	15770	30
343.2	5410	2980	30
343.2	9550	6700	40
343.2	10730	8440	70
343.2	11590	10140	80
343.2	12630	12250	70
343.2	13680	13750	60
343.2	19790	15770	20
353.2	5740	2980	20
353.2	10360	6700	30
353.2	11830	8440	50
353.2	12850	10140	60
353.2	14260	12250	50
353.2	16660	13750	30
353.2	24390	15770	20
363.2	6060	2980	20
363.2	11190	6700	30
363.2	12830	8440	40
363.2	14080	10140	40
363.2	16380	12250	30
363.2	19780	13750	20
363.2	28990	15770	20
373.2	6390	2980	20
373.2	11970	6700	20
373.2	13810	8440	30
373.2	15330	10140	30
373.2	18810	12250	20
373.2	23110	13750	20
373.2	33580	15770	20
383.2	6770	2980	20
383.2	12740	6700	20
383.2	14880	8440	40
383.2	16890	10140	20
383.2	21340	12250	30
383.2	26440	13750	20
383.2	38330	15770	20
393.2	7110	2980	20
393.2	13500	6700	20
393.2	15990	8440	30
393.2	18670	10140	30
393.2	24000	12250	20
393.2	29820	13750	20
393.2	43060	15770	20

System: chlorobenzene + carbon dioxide; phases: Gas, Liquid
Fixed: Mole fraction of carbon dioxide = 0.9
Property: Boiling temperature at pressure P, K (Gas); method: ISOPVT
Pressure, kPa	Boiling temperature at pressure P, K	uncertainty
11600	326.6	1.2
15100	349	1.1
19400	377.4	1.1

System: chlorobenzene + carbon dioxide; phases: Fluid (supercritical or subcritical phases)
Fixed: Mole fraction of carbon dioxide = 0.9
Property: Amount density, mol/m3 (Fluid (supercritical or subcritical phases)); method: ISOCHOR
Temperature, K	Pressure, kPa	Amount density, mol/m3	uncertainty
313.2	4600	3020	40
313.2	6720	5840	60
313.2	7510	8030	120
313.2	7850	10140	190
313.2	8100	11950	220
313.2	8280	13540	310
313.2	9220	15760	140
323.2	4940	3020	30
323.2	7550	5840	50
323.2	8750	8030	100
323.2	9470	10140	140
323.2	9870	11950	120
323.2	10220	13540	120
323.2	11000	15760	130
333.2	5270	3020	30
333.2	8280	5840	40
333.2	9770	8030	60
333.2	10850	10140	90
333.2	11670	11950	120
333.2	12140	13540	120
333.2	14340	15760	50
343.2	5580	3020	20
343.2	8990	5840	30
343.2	10760	8030	40
343.2	12230	10140	60
343.2	13400	11950	70
343.2	14030	13540	70
343.2	18470	15760	30
353.2	5930	3020	20
353.2	9670	5840	30
353.2	11770	8030	40
353.2	13660	10140	50
353.2	15200	11950	50
353.2	16290	13540	60
353.2	22850	15760	20
363.2	6260	3020	20
363.2	10310	5840	20
363.2	12910	8030	30
363.2	15060	10140	40
363.2	16890	11950	40
363.2	19050	13540	30
363.2	27360	15760	20
373.2	6580	3020	20
373.2	10960	5840	20
373.2	14030	8030	30
373.2	16430	10140	30
373.2	18670	11950	30
373.2	22120	13540	20
373.2	31770	15760	20
383.2	6930	3020	20
383.2	11660	5840	20
383.2	15080	8030	30
383.2	17840	10140	30
383.2	20870	11950	30
383.2	25420	13540	20
383.2	36290	15760	20
393.2	7290	3020	20
393.2	12490	5840	20
393.2	16110	8030	20
393.2	19180	10140	30
393.2	23370	11950	20
393.2	28730	13540	20
393.2	40780	15760	20
