Measured thermophysical data. Isentropic Compressibility, Electrical Conductivity, Shear Relaxation Time, Surface Tension, and Raman Spectra of Aqueous Zinc Nitrate Solutions
Source: J. Chem. Eng. Data, 2004, 10.1021/je0302001
Compound 1: nitric acid, zinc salt, N2O6Zn, InChI=1S/2NO3.Zn/c2*2-1(3)4;/q2*-1;+2
Compound 2: water, H2O, InChI=1S/H2O/h1H2

System: water + nitric acid, zinc salt; phases: Liquid, Air at 1 atmosphere
Property: Surface tension liquid-gas, N/m (Liquid); method: Ring tensiometer
Temperature, K	Molality, mol/kg of nitric acid, zinc salt	Surface tension liquid-gas, N/m	uncertainty
273.15	0.2263	0.07565	0.00096
273.15	0.334	0.07579	0.00096
273.15	0.6198	0.07635	0.00097
273.15	0.8228	0.07703	0.00098
273.15	1.259	0.07802	0.001
273.15	1.549	0.07863	0.00101
273.15	1.818	0.07899	0.00102
273.15	2.222	0.08042	0.00104
273.15	2.526	0.08129	0.00106
273.15	2.721	0.08196	0.00107
273.15	3.426	0.08368	0.0011
273.15	4.011	0.08535	0.00113
273.15	4.231	0.08577	0.00114
273.15	5.133	0.08784	0.00118
283.15	0.2263	0.07442	0.00094
283.15	0.334	0.07463	0.00095
283.15	0.6198	0.07526	0.00096
283.15	0.8228	0.07594	0.00097
283.15	1.259	0.07701	0.00099
283.15	1.549	0.07742	0.001
283.15	1.818	0.07805	0.00101
283.15	2.222	0.07929	0.00103
283.15	2.526	0.08048	0.00105
283.15	2.721	0.08075	0.00106
283.15	3.426	0.08259	0.00109
283.15	4.011	0.08421	0.00112
283.15	4.231	0.08455	0.00113
283.15	5.133	0.08675	0.00117
283.15	6.245	0.08817	0.0012
293.15	0.2263	0.07317	0.00093
293.15	0.334	0.0733	0.00093
293.15	0.6198	0.07402	0.00094
293.15	0.8228	0.07483	0.00096
293.15	1.259	0.07592	0.00097
293.15	1.549	0.07632	0.00098
293.15	1.818	0.07687	0.00099
293.15	2.222	0.07811	0.00102
293.15	2.526	0.079	0.00103
293.15	2.721	0.07959	0.00104
293.15	3.426	0.08148	0.00108
293.15	4.011	0.08301	0.0011
293.15	4.231	0.08339	0.00111
293.15	5.133	0.0857	0.00115
293.15	6.245	0.08695	0.00119
303.15	0.2263	0.07191	0.00092
303.15	0.334	0.07194	0.00092
303.15	0.6198	0.07268	0.00093
303.15	0.8228	0.07352	0.00094
303.15	1.259	0.07463	0.00096
303.15	1.549	0.07519	0.00097
303.15	1.818	0.07565	0.00098
303.15	2.222	0.07695	0.001
303.15	2.526	0.07793	0.00102
303.15	2.721	0.07839	0.00103
303.15	3.426	0.08038	0.00106
303.15	4.011	0.08168	0.00109
303.15	4.231	0.08216	0.0011
303.15	5.133	0.08417	0.00114
303.15	6.245	0.08554	0.00117
313.15	0.2263	0.07059	0.0009
313.15	0.334	0.07083	0.0009
313.15	0.6198	0.0715	0.00091
313.15	0.8228	0.0722	0.00092
313.15	1.259	0.07337	0.00094
313.15	1.549	0.0741	0.00096
313.15	1.818	0.07461	0.00097
313.15	2.222	0.07605	0.00099
313.15	2.526	0.07702	0.00101
313.15	2.721	0.07755	0.00102
313.15	3.426	0.07909	0.00105
313.15	4.011	0.08079	0.00108
313.15	4.231	0.08105	0.00108
313.15	5.133	0.08304	0.00112
313.15	6.245	0.08464	0.00116

System: water + nitric acid, zinc salt; phases: Liquid
Fixed: Pressure, kPa = 101.3
Property: Viscosity, Pa*s (Liquid); method: Capillary tube (Ostwald; Ubbelohde) method
Temperature, K	Molality, mol/kg of nitric acid, zinc salt	Viscosity, Pa*s	uncertainty
273.15	0.1329	0.001863	2.1e-05
273.15	0.2466	0.001905	2.2e-05
273.15	0.3388	0.00195	2.2e-05
273.15	0.6111	0.002081	2.4e-05
273.15	0.6405	0.002103	2.4e-05
273.15	1.113	0.002431	2.8e-05
273.15	1.258	0.002573	3e-05
273.15	1.551	0.002833	3.3e-05
273.15	1.906	0.003306	3.8e-05
273.15	2.145	0.003662	4.3e-05
273.15	2.29	0.003902	4.6e-05
273.15	2.344	0.003935	4.6e-05
273.15	2.91	0.005033	5.9e-05
273.15	3.472	0.006559	7.8e-05
273.15	4.075	0.008684	0.000103
273.15	4.817	0.01249	0.00015
273.15	5.224	0.01505	0.00018
278.15	0.1329	0.001585	1.8e-05
278.15	0.2466	0.001626	1.9e-05
278.15	0.3388	0.001667	1.9e-05
278.15	0.6111	0.001788	2e-05
278.15	0.6405	0.001807	2.1e-05
278.15	1.113	0.002096	2.4e-05
278.15	1.258	0.002221	2.6e-05
278.15	1.551	0.002436	2.8e-05
278.15	1.906	0.002838	3.3e-05
278.15	2.145	0.00315	3.7e-05
278.15	2.29	0.003351	3.9e-05
278.15	2.344	0.00338	4e-05
278.15	2.91	0.004293	5.1e-05
278.15	3.472	0.005554	6.6e-05
278.15	4.075	0.007273	8.7e-05
278.15	4.817	0.01032	0.00012
278.15	5.224	0.01233	0.00015
283.15	0.1329	0.001368	1.6e-05
283.15	0.2466	0.001406	1.6e-05
283.15	0.3388	0.001444	1.7e-05
283.15	0.6111	0.001559	1.8e-05
283.15	0.6405	0.001571	1.8e-05
283.15	1.113	0.001827	2.1e-05
283.15	1.258	0.001936	2.2e-05
283.15	1.551	0.00213	2.5e-05
283.15	1.906	0.002478	2.9e-05
283.15	2.145	0.002737	3.2e-05
283.15	2.29	0.002901	3.4e-05
283.15	2.344	0.002932	3.4e-05
283.15	2.91	0.003705	4.4e-05
283.15	3.472	0.004774	5.7e-05
283.15	4.075	0.006175	7.4e-05
283.15	4.817	0.008641	0.000104
283.15	5.224	0.01024	0.00012
288.15	0.1329	0.001195	1.4e-05
288.15	0.2466	0.001229	1.4e-05
288.15	0.3388	0.001265	1.5e-05
288.15	0.6111	0.001368	1.6e-05
288.15	0.6405	0.00138	1.6e-05
288.15	1.113	0.001609	1.9e-05
288.15	1.258	0.001705	2e-05
288.15	1.551	0.001875	2.2e-05
288.15	1.906	0.002178	2.5e-05
288.15	2.145	0.002403	2.8e-05
288.15	2.29	0.002545	3e-05
288.15	2.344	0.00257	3e-05
288.15	2.91	0.003231	3.8e-05
288.15	3.472	0.004124	4.9e-05
288.15	4.075	0.00531	6.4e-05
288.15	4.817	0.007338	8.9e-05
288.15	5.224	0.008634	0.000105
293.15	0.1329	0.001053	1.2e-05
293.15	0.2466	0.001086	1.2e-05
293.15	0.3388	0.001118	1.3e-05
293.15	0.6111	0.00121	1.4e-05
293.15	0.6405	0.001223	1.4e-05
293.15	1.113	0.001428	1.7e-05
293.15	1.258	0.001514	1.8e-05
293.15	1.551	0.001664	1.9e-05
293.15	1.906	0.001931	2.3e-05
293.15	2.145	0.002133	2.5e-05
293.15	2.29	0.002258	2.7e-05
293.15	2.344	0.002273	2.7e-05
293.15	2.91	0.002846	3.4e-05
293.15	3.472	0.00361	4.3e-05
293.15	4.075	0.004615	5.6e-05
293.15	4.817	0.006303	7.7e-05
293.15	5.224	0.007371	9e-05
293.15	5.797	0.009658	0.000118
293.15	6.34	0.01198	0.00015
298.15	0.1329	0.000937	1.1e-05
298.15	0.2466	0.000968	1.1e-05
298.15	0.3388	0.000997	1.2e-05
298.15	0.6111	0.001081	1.2e-05
298.15	0.6405	0.001093	1.3e-05
298.15	1.113	0.001278	1.5e-05
298.15	1.258	0.001355	1.6e-05
298.15	1.551	0.001489	1.7e-05
298.15	1.906	0.001725	2e-05
298.15	2.145	0.001903	2.2e-05
298.15	2.29	0.002009	2.4e-05
298.15	2.344	0.002026	2.4e-05
298.15	2.91	0.002527	3e-05
298.15	3.472	0.003188	3.8e-05
298.15	4.075	0.004048	4.9e-05
298.15	4.817	0.005473	6.7e-05
298.15	5.224	0.006362	7.8e-05
298.15	5.797	0.008228	0.000101
298.15	6.34	0.01012	0.00012
303.15	0.1329	0.000841	1e-05
303.15	0.2466	0.00087	1e-05
303.15	0.3388	0.000896	1e-05
303.15	0.6111	0.000976	1.1e-05
303.15	0.6405	0.000984	1.1e-05
303.15	1.113	0.00115	1.3e-05
303.15	1.258	0.001221	1.4e-05
303.15	1.551	0.00134	1.6e-05
303.15	1.906	0.001549	1.8e-05
303.15	2.145	0.001711	2e-05
303.15	2.29	0.001797	2.1e-05
303.15	2.344	0.001819	2.1e-05
303.15	2.91	0.002259	2.7e-05
303.15	3.472	0.002839	3.4e-05
303.15	4.075	0.003581	4.3e-05
303.15	4.817	0.004795	5.9e-05
303.15	5.224	0.005544	6.8e-05
303.15	5.797	0.0071	8.8e-05
303.15	6.34	0.008647	0.000107
303.15	6.89	0.01085	0.00014
303.15	7.349	0.01293	0.00016
308.15	0.1329	0.00076	9e-06
308.15	0.2466	0.000787	9e-06
308.15	0.3388	0.000809	9e-06
308.15	0.6111	0.000884	1e-05
308.15	0.6405	0.000892	1e-05
308.15	1.113	0.001044	1.2e-05
308.15	1.258	0.001107	1.3e-05
308.15	1.551	0.001216	1.4e-05
308.15	1.906	0.001405	1.6e-05
308.15	2.145	0.001548	1.8e-05
308.15	2.29	0.001622	1.9e-05
308.15	2.344	0.001645	1.9e-05
308.15	2.91	0.002035	2.4e-05
308.15	3.472	0.002554	3.1e-05
308.15	4.075	0.003149	3.8e-05
308.15	4.817	0.00424	5.2e-05
308.15	5.224	0.004878	6e-05
308.15	5.797	0.006183	7.7e-05
308.15	6.34	0.007469	9.3e-05
308.15	6.89	0.009274	0.000116
308.15	7.349	0.01094	0.00014
313.15	0.1329	0.000691	8e-06
313.15	0.2466	0.000716	8e-06
313.15	0.3388	0.000739	9e-06
313.15	0.6111	0.000805	9e-06
313.15	0.6405	0.000813	9e-06
313.15	1.113	0.000952	1.1e-05
313.15	1.258	0.00101	1.2e-05
313.15	1.551	0.001106	1.3e-05
313.15	1.906	0.001277	1.5e-05
313.15	2.145	0.001408	1.7e-05
313.15	2.29	0.001475	1.7e-05
313.15	2.344	0.001495	1.8e-05
313.15	2.91	0.001843	2.2e-05
313.15	3.472	0.002305	2.8e-05
313.15	4.075	0.002868	3.5e-05
313.15	4.817	0.003774	4.6e-05
313.15	5.224	0.004322	5.3e-05
313.15	5.797	0.005432	6.7e-05
313.15	6.34	0.006509	8.1e-05
313.15	6.89	0.007997	0.0001
313.15	7.349	0.009383	0.000118
318.15	0.1329	0.000632	7e-06
318.15	0.2466	0.000655	8e-06
318.15	0.3388	0.000676	8e-06
318.15	0.6111	0.000738	9e-06
318.15	0.6405	0.000745	9e-06
318.15	1.113	0.000873	1e-05
318.15	1.258	0.000926	1.1e-05
318.15	1.551	0.001014	1.2e-05
318.15	1.906	0.001169	1.4e-05
318.15	2.145	0.001287	1.5e-05
318.15	2.29	0.00135	1.6e-05
318.15	2.344	0.001366	1.6e-05
318.15	2.91	0.00168	2e-05
318.15	3.472	0.002088	2.5e-05
318.15	4.075	0.002588	3.1e-05
318.15	4.817	0.003383	4.2e-05
318.15	5.224	0.003857	4.8e-05
318.15	5.797	0.004807	6e-05
318.15	6.34	0.005725	7.2e-05
318.15	6.89	0.006968	8.7e-05
318.15	7.349	0.008113	0.000102
323.15	0.1329	0.00058	7e-06
323.15	0.2466	0.000601	7e-06
323.15	0.3388	0.000621	7e-06
323.15	0.6111	0.000679	8e-06
323.15	0.6405	0.000686	8e-06
323.15	1.113	0.000804	9e-06
323.15	1.258	0.000853	1e-05
323.15	1.551	0.000935	1.1e-05
323.15	1.906	0.001077	1.3e-05
323.15	2.145	0.001183	1.4e-05
323.15	2.29	0.001245	1.5e-05
323.15	2.344	0.001254	1.5e-05
323.15	2.91	0.001537	1.8e-05
323.15	3.472	0.001908	2.3e-05
323.15	4.075	0.002349	2.9e-05
323.15	4.817	0.003051	3.7e-05
323.15	5.224	0.003464	4.3e-05
323.15	5.797	0.004283	5.3e-05
323.15	6.34	0.005066	6.4e-05
323.15	6.89	0.006121	7.7e-05
323.15	7.349	0.007071	8.9e-05

System: water + nitric acid, zinc salt; phases: Liquid
Fixed: Pressure, kPa = 101.3
Property: Speed of sound, m/s (Liquid); method: LVPAI:UFactor:2
Temperature, K	Molality, mol/kg of nitric acid, zinc salt	Speed of sound, m/s	uncertainty
273.15	0.0875	1413	3.8
273.15	0.1329	1413.5	3.8
273.15	0.2466	1422.7	3.9
273.15	0.3388	1429.7	3.9
273.15	0.6111	1454.8	3.9
273.15	0.6405	1457	3.9
273.15	1.113	1500.1	4
273.15	1.258	1516.9	4.1
273.15	1.551	1544.4	4.1
273.15	1.906	1578.6	4.2
273.15	2.145	1600.1	4.2
273.15	2.29	1612.6	4.3
273.15	2.292	1612.3	4.3
273.15	2.344	1617.4	4.3
273.15	2.91	1663.1	4.4
273.15	3.472	1707.7	4.5
273.15	4.075	1740.8	4.6
273.15	4.817	1780.2	4.7
273.15	5.224	1794	4.7
278.15	0.0875	1435.8	3.9
278.15	0.1329	1436.3	3.9
278.15	0.2466	1444.2	3.9
278.15	0.3388	1450.4	3.9
278.15	0.6111	1472.6	4
278.15	0.6405	1474.8	4
278.15	1.113	1514.5	4.1
278.15	1.258	1530.4	4.1
278.15	1.551	1555	4.1
278.15	1.906	1586.2	4.2
278.15	2.145	1606.1	4.3
278.15	2.29	1618.1	4.3
278.15	2.292	1617.3	4.3
278.15	2.344	1622.2	4.3
278.15	2.91	1664.7	4.4
278.15	3.472	1703.6	4.5
278.15	4.075	1737.6	4.6
278.15	4.817	1772.3	4.6
278.15	5.224	1786.4	4.7
283.15	0.0875	1456.4	3.9
283.15	0.1329	1455.8	3.9
283.15	0.2466	1463.2	3.9
283.15	0.3388	1468.8	3.9
283.15	0.6111	1487.8	4
283.15	0.6405	1491.2	4
283.15	1.113	1526.3	4.1
283.15	1.258	1540.8	4.1
283.15	1.551	1564	4.2
283.15	1.906	1592.7	4.2
283.15	2.145	1611.1	4.3
283.15	2.29	1618.7	4.3
283.15	2.292	1619.7	4.3
283.15	2.344	1626.1	4.3
283.15	2.91	1665.6	4.4
283.15	3.472	1701.3	4.5
283.15	4.075	1733.5	4.6
283.15	4.817	1765.9	4.6
283.15	5.224	1779.8	4.7
283.15	5.797	1795	4.7
288.15	0.0875	1473.6	4
288.15	0.1329	1473.1	3.9
288.15	0.2466	1479.5	4
288.15	0.3388	1484.8	4
288.15	0.6111	1503	4
288.15	0.6405	1505.2	4
288.15	1.113	1537.3	4.1
288.15	1.258	1550.2	4.1
288.15	1.551	1571.7	4.2
288.15	1.906	1598.9	4.2
288.15	2.145	1615	4.3
288.15	2.29	1625	4.3
288.15	2.292	1623.1	4.3
288.15	2.344	1629.2	4.3
288.15	2.91	1666	4.4
288.15	3.472	1699.5	4.5
288.15	4.075	1729.1	4.5
288.15	4.817	1761.2	4.6
288.15	5.224	1769.8	4.7
288.15	5.797	1786.4	4.7
288.15	6.34	1797.7	4.7
293.15	0.0875	1489.1	4
293.15	0.1329	1488.6	4
293.15	0.2466	1494.3	4
293.15	0.3388	1499	4
293.15	0.6111	1514.8	4
293.15	0.6405	1517	4
293.15	1.113	1546	4.1
293.15	1.258	1558.9	4.1
293.15	1.551	1578.3	4.2
293.15	1.906	1603.4	4.2
293.15	2.145	1618.3	4.3
293.15	2.29	1627.9	4.3
293.15	2.292	1626.3	4.3
293.15	2.344	1631.6	4.3
293.15	2.91	1666.2	4.4
293.15	3.472	1697.2	4.5
293.15	4.075	1724.9	4.5
293.15	4.817	1752.8	4.6
293.15	5.224	1762.1	4.6
293.15	5.797	1777.6	4.7
293.15	6.34	1787.7	4.7
293.15	6.89	1796.2	4.7
298.15	0.0875	1502.8	4
298.15	0.1329	1501.5	4
298.15	0.2466	1506.6	4
298.15	0.3388	1512.2	4
298.15	0.6111	1526.1	4.1
298.15	0.6405	1527.3	4.1
298.15	1.113	1554.3	4.1
298.15	1.258	1570.5	4.2
298.15	1.551	1584.3	4.2
298.15	1.906	1606.9	4.3
298.15	2.145	1620.9	4.3
298.15	2.29	1633	4.3
298.15	2.292	1628.3	4.3
298.15	2.344	1633.6	4.3
298.15	2.91	1665.2	4.4
298.15	3.472	1694.4	4.5
298.15	4.075	1719.1	4.5
298.15	4.817	1748.7	4.6
298.15	5.224	1755.5	4.6
298.15	5.797	1769.4	4.7
298.15	6.34	1777.8	4.7
298.15	6.89	1783	4.7
303.15	0.0875	1514.4	4
303.15	0.1329	1513	4
303.15	0.2466	1518.2	4
303.15	0.3388	1520.9	4
303.15	0.6111	1535.9	4.1
303.15	0.6405	1536.9	4.1
303.15	1.113	1561.1	4.1
303.15	1.258	1571.6	4.2
303.15	1.551	1589.3	4.2
303.15	1.906	1610.2	4.3
303.15	2.145	1622.9	4.3
303.15	2.29	1632.6	4.3
303.15	2.292	1630.1	4.3
303.15	2.344	1634.7	4.3
303.15	2.91	1664	4.4
303.15	3.472	1691.2	4.5
303.15	4.075	1714.1	4.5
303.15	4.817	1739.4	4.6
303.15	5.224	1748.1	4.6
303.15	5.797	1760.4	4.6
303.15	6.34	1768.2	4.7
303.15	6.89	1772.4	4.7
303.15	7.349	1774	4.7
308.15	0.0875	1525.6	4.1
308.15	0.1329	1523.4	4
308.15	0.2466	1527.9	4.1
308.15	0.3388	1532.5	4.1
308.15	0.6111	1543.7	4.1
308.15	0.6405	1544.7	4.1
308.15	1.113	1566.6	4.2
308.15	1.258	1576.6	4.2
308.15	1.551	1592.5	4.2
308.15	1.906	1612.5	4.3
308.15	2.145	1624.2	4.3
308.15	2.29	1632.3	4.3
308.15	2.292	1630.7	4.3
308.15	2.344	1635	4.3
308.15	2.91	1662.2	4.4
308.15	3.472	1687	4.5
308.15	4.075	1708.9	4.5
308.15	4.817	1733.1	4.6
308.15	5.224	1740.5	4.6
308.15	5.797	1751.6	4.6
308.15	6.34	1757.7	4.6
308.15	6.89	1762.2	4.7
308.15	7.349	1762.6	4.7
313.15	0.0875	1533.4	4.1
313.15	0.1329	1531.7	4.1
313.15	0.2466	1535.7	4.1
313.15	0.3388	1540.3	4.1
313.15	0.6111	1548.3	4.1
313.15	0.6405	1550.9	4.1
313.15	1.113	1571.8	4.2
313.15	1.258	1580.9	4.2
313.15	1.551	1595.3	4.2
313.15	1.906	1613.8	4.3
313.15	2.145	1624.5	4.3
313.15	2.29	1630.2	4.3
313.15	2.292	1631.4	4.3
313.15	2.344	1634.6	4.3
313.15	2.91	1659.9	4.4
313.15	3.472	1683.4	4.4
313.15	4.075	1702.8	4.5
313.15	4.817	1727.1	4.6
313.15	5.224	1733.1	4.6
313.15	5.797	1742.3	4.6
313.15	6.34	1747.6	4.6
313.15	6.89	1751.5	4.6
313.15	7.349	1751.7	4.7
318.15	0.0875	1540.1	4.1
318.15	0.1329	1539.2	4.1
318.15	0.2466	1542.8	4.1
318.15	0.3388	1544.7	4.1
318.15	0.6111	1555.1	4.1
318.15	0.6405	1557.5	4.1
318.15	1.113	1574.6	4.2
318.15	1.258	1583.5	4.2
318.15	1.551	1597.5	4.2
318.15	1.906	1606.7	4.3
318.15	2.145	1623.3	4.3
318.15	2.29	1629.6	4.3
318.15	2.292	1631.3	4.3
318.15	2.344	1633.9	4.3
318.15	2.91	1657.1	4.4
318.15	3.472	1678.7	4.4
318.15	4.075	1696.7	4.5
318.15	4.817	1717.9	4.5
318.15	5.224	1724.7	4.6
318.15	5.797	1732	4.6
318.15	6.34	1735.3	4.6
318.15	6.89	1740.7	4.6
318.15	7.349	1740.9	4.6
323.15	0.0875	1545.6	4.1
323.15	0.1329	1544.6	4.1
323.15	0.2466	1547.7	4.1
323.15	0.3388	1551.5	4.1
323.15	0.6111	1560.9	4.1
323.15	0.6405	1561	4.1
323.15	1.113	1577.8	4.2
323.15	1.258	1585.2	4.2
323.15	1.551	1598.3	4.2
323.15	1.906	1611	4.3
323.15	2.145	1622.9	4.3
323.15	2.29	1630	4.3
323.15	2.292	1631.1	4.3
323.15	2.344	1628.1	4.3
323.15	2.91	1651.1	4.4
323.15	3.472	1675.6	4.4
323.15	4.075	1690.4	4.5
323.15	4.817	1707.1	4.5
323.15	5.224	1716.7	4.5
323.15	5.797	1723.6	4.6
323.15	6.34	1724.9	4.6
323.15	6.89	1729.5	4.6
323.15	7.349	1729.7	4.6

System: water + nitric acid, zinc salt; phases: Liquid
Fixed: Pressure, kPa = 101.3
Property: Mass density, kg/m3 (Liquid); method: PYCNOM:UFactor:2
Molality, mol/kg of nitric acid, zinc salt	Temperature, K	Mass density, kg/m3	uncertainty
0.0875	294.3	1010.8	0.6
0.0875	298.45	1009.7	0.7
0.0875	302.35	1008.6	0.7
0.0875	305.65	1007.5	0.7
0.0875	308.75	1006.4	0.7
0.0875	311.5	1005.4	0.7
0.0875	314.1	1004.4	0.8
0.0875	316.75	1003.3	0.8
0.0875	319.05	1002.2	0.8
0.0875	321.3	1001.2	0.8
0.1329	297.85	1016.6	0.7
0.1329	301.4	1015.6	0.7
0.1329	304.85	1014.5	0.7
0.1329	307.85	1013.4	0.7
0.1329	310.75	1012.3	0.7
0.1329	313.55	1011.2	0.8
0.1329	315.95	1010.2	0.8
0.1329	318.6	1009.1	0.8
0.1329	320.75	1008.1	0.8
0.2466	296.15	1034.3	0.7
0.2466	299.7	1033.3	0.7
0.2466	303.15	1032.1	0.7
0.2466	306.25	1031	0.7
0.2466	309.15	1029.9	0.7
0.2466	311.85	1028.8	0.8
0.2466	314.35	1027.8	0.8
0.2466	316.8	1026.7	0.8
0.2466	319.2	1025.6	0.8
0.2466	321.35	1024.5	0.8
0.3388	297.05	1047.7	0.7
0.3388	300.55	1046.5	0.7
0.3388	303.7	1045.4	0.7
0.3388	306.6	1044.3	0.7
0.3388	309.4	1043.2	0.8
0.3388	311.85	1042.2	0.8
0.3388	314.45	1041	0.8
0.3388	316.8	1039.9	0.8
0.3388	319.05	1038.8	0.8
0.3388	321.3	1037.8	0.8
0.6111	297.8	1087.1	0.8
0.6111	300.8	1085.9	0.7
0.6111	303.65	1084.7	0.8
0.6111	306.35	1083.6	0.8
0.6111	309.05	1082.4	0.8
0.6111	311.35	1081.4	0.8
0.6111	313.85	1080.1	0.8
0.6111	316.15	1079	0.8
0.6111	318.25	1077.9	0.8
0.6111	320.5	1076.8	0.9
0.6111	322.4	1075.8	0.9
0.6405	298.65	1090.9	0.7
0.6405	301.55	1089.7	0.8
0.6405	304.35	1088.5	0.8
0.6405	307.05	1087.4	0.8
0.6405	309.45	1086.3	0.8
0.6405	311.9	1085.1	0.8
0.6405	314.25	1084	0.8
0.6405	316.4	1082.8	0.8
0.6405	318.8	1081.7	0.8
0.6405	322.95	1079.6	0.9
1.113	298.75	1156.5	0.8
1.113	301.25	1155.2	0.8
1.113	303.75	1154	0.8
1.113	306.25	1152.7	0.8
1.113	308.35	1151.6	0.9
1.113	310.7	1150.3	0.9
1.113	312.85	1149.1	0.9
1.113	315.05	1147.9	0.9
1.113	317.25	1146.8	0.9
1.113	319.15	1145.7	0.9
1.113	321.25	1144.5	0.9
1.258	296.5	1177	0.8
1.258	298.95	1175.8	0.8
1.258	301.5	1174.5	0.8
1.258	303.75	1173.4	0.9
1.258	306.1	1172	0.9
1.258	308.3	1170.8	0.9
1.258	310.45	1169.6	0.9
1.258	312.7	1168.4	0.9
1.258	316.85	1166.1	0.9
1.258	321	1163.6	0.9
1.551	299.7	1213.3	0.9
1.551	302	1212	0.9
1.551	304.3	1210.3	0.9
1.551	306.55	1209.4	0.9
1.551	308.6	1208.2	0.9
1.551	310.85	1206.9	0.9
1.551	312.95	1205.6	0.9
1.551	314.95	1204.4	1
1.551	316.9	1203.1	1
1.551	318.85	1202	1
1.551	322.75	1199.5	1
1.906	297.05	1259.3	0.9
1.906	299.2	1258	0.9
1.906	301.4	1256.6	0.9
1.906	303.65	1255.3	1
1.906	305.7	1254.1	1
1.906	307.9	1252.7	1
1.906	311.9	1250.1	1
1.906	313.95	1248.8	1
1.906	317.9	1246.3	1
1.906	321.7	1243.6	1
2.145	298.85	1286.9	1
2.145	301	1285.5	1
2.145	303.15	1284.1	1
2.145	305.4	1282.8	1
2.145	307.35	1281.5	1
2.145	309.45	1280.1	1
2.145	311.4	1278.8	1
2.145	313.3	1277.4	1
2.145	317.15	1274.9	1.1
2.145	321.05	1272.2	1.1
2.29	297.5	1304.8	1
2.29	299.75	1303.4	1
2.29	301.85	1302	1
2.29	303.95	1300.6	1
2.29	306.15	1299.2	1
2.29	310.1	1296.5	1
2.29	312	1295.1	1.1
2.29	313.95	1293.8	1.1
2.29	317.8	1291.2	1.1
2.29	321.4	1288.5	1.1
2.292	297.9	1304.8	1
2.292	300.05	1303.4	1.1
2.292	302.2	1302	1
2.292	304.45	1300.6	1
2.292	306.35	1299.4	1
2.292	310.45	1296.6	1
2.292	312.35	1295.2	1.1
2.292	316.2	1292.7	1.1
2.292	318.15	1291.3	1.1
2.292	322.05	1288.5	1.1
2.344	298	1310.8	1
2.344	300.2	1309.4	1
2.344	302.25	1308.1	1
2.344	304.3	1306.7	1
2.344	306.3	1305.3	1
2.344	308.25	1303.9	1
2.344	310.35	1302.6	1
2.344	314.2	1300	1.1
2.344	317.9	1297.2	1.1
2.344	321.65	1294.6	1.1
2.91	298.75	1373.5	1.1
2.91	300.8	1372.1	1.1
2.91	302.9	1370.6	1.1
2.91	304.85	1369.1	1.1
2.91	306.75	1367.8	1.1
2.91	308.85	1366.3	1.1
2.91	310.7	1364.9	1.1
2.91	314.6	1362	1.1
2.91	318.3	1359.3	1.2
2.91	322.05	1356.4	1.2
3.472	298.05	1432.6	1.1
3.472	300.05	1431.1	1.2
3.472	302.1	1429.5	1.2
3.472	304	1428.2	1.2
3.472	307.75	1425.1	1.2
3.472	309.55	1423.6	1.2
3.472	311.35	1422.1	1.2
3.472	315.1	1419.3	1.2
3.472	318.8	1416.3	1.2
3.472	322.5	1413.3	1.3
4.075	295.95	1492.7	1.2
4.075	297.95	1491.1	1.2
4.075	301.85	1488	1.2
4.075	303.75	1486.4	1.3
4.075	305.65	1484.9	1.3
4.075	307.55	1483.4	1.3
4.075	311.35	1480.4	1.3
4.075	314.95	1477.2	1.3
4.075	318.65	1474.2	1.3
4.075	320.6	1472.7	1.3
4.817	296.25	1558.4	1.3
4.817	298.15	1556.8	1.3
4.817	302.1	1553.4	1.3
4.817	303.85	1551.9	1.3
4.817	307.5	1548.6	1.4
4.817	309.35	1546.9	1.4
4.817	311.15	1545.4	1.4
4.817	314.7	1542.3	1.4
4.817	318.25	1539	1.4
4.817	321.75	1535.8	1.4
5.224	298.45	1589.9	1.4
5.224	300.35	1588.3	1.4
5.224	302.25	1586.5	1.4
5.224	304.15	1584.8	1.4
5.224	307.75	1581.5	1.4
5.224	309.55	1579.9	1.4
5.224	311.25	1578.2	1.4
5.224	313.05	1576.6	1.4
5.224	316.6	1573.5	1.4
5.224	320.05	1570.1	1.5
5.8	299.6	1633.1	1.4
5.8	301.35	1631.5	1.4
5.8	303.25	1629.7	1.5
5.8	305.1	1627.9	1.5
5.8	308.75	1624.4	1.5
5.8	310.45	1622.9	1.5
5.8	312.25	1621	1.5
5.8	314	1619.4	1.5
5.8	317.5	1616	1.5
5.8	320.85	1612.8	1.5
6.34	300.05	1671.6	1.5
6.34	301.85	1669.9	1.5
6.34	305.45	1666.3	1.5
6.34	309.1	1662.7	1.5
6.34	310.75	1661.1	1.5
6.34	312.55	1659.2	1.6
6.34	315.9	1655.7	1.6
6.34	319.3	1652.5	1.6
6.34	322.6	1649	1.6
6.89	296.1	1712.4	1.5
6.89	299.7	1708.8	1.6
6.89	301.35	1707.1	1.6
6.89	303.2	1705.2	1.6
6.89	304.85	1703.4	1.6
6.89	308.35	1699.9	1.6
6.89	311.7	1696.5	1.6
6.89	315.05	1692.9	1.6
6.89	318.45	1689.4	1.6
6.89	321.85	1685.8	1.6
7.349	299.05	1738.2	1.6
7.349	302.5	1734.5	1.6
7.349	304.2	1732.6	1.6
7.349	307.55	1729.2	1.6
7.349	310.95	1725.6	1.6
7.349	314.35	1722	1.7
7.349	315.95	1720.2	1.7
7.349	317.65	1718.4	1.7
7.349	321	1714.9	1.7
7.764	310.8	1749.7	1.7
7.764	314.15	1746	1.7
7.764	317.6	1742.3	1.7
7.764	319.3	1740.4	1.7
7.764	322.55	1736.9	1.7
7.764	324.25	1734.9	1.7
