Measured thermophysical data. Measurement of Activity Coefficients of Solutes at Infinite Dilution in (Dimethyl Sulfoxide + Acetamide, or Formamide, or Urea) Using Gas Liquid Chromatography at the Temperature 298.15 K
Source: J. Chem. Eng. Data, 2003, 10.1021/je030122h
Compound 1: dimethyl sulfoxide, C2H6OS, InChI=1S/C2H6OS/c1-4(2)3/h1-2H3
Compound 2: heptane, C7H16, InChI=1S/C7H16/c1-3-5-7-6-4-2/h3-7H2,1-2H3
Compound 3: cyclohexane, C6H12, InChI=1S/C6H12/c1-2-4-6-5-3-1/h1-6H2
Compound 4: benzene, C6H6, InChI=1S/C6H6/c1-2-4-6-5-3-1/h1-6H
Compound 5: diethyl ether, C4H10O, InChI=1S/C4H10O/c1-3-5-4-2/h3-4H2,1-2H3
Compound 6: tetrachloromethane, CCl4, InChI=1S/CCl4/c2-1(3,4)5
Compound 7: trichloromethane, CHCl3, InChI=1S/CHCl3/c2-1(3)4/h1H
Compound 8: dichloromethane, CH2Cl2, InChI=1S/CH2Cl2/c2-1-3/h1H2
Compound 9: acetone, C3H6O, InChI=1S/C3H6O/c1-3(2)4/h1-2H3
Compound 10: ethyl acetate, C4H8O2, InChI=1S/C4H8O2/c1-3-6-4(2)5/h3H2,1-2H3
Compound 11: formamide, CH3NO, InChI=1S/CH3NO/c2-1-3/h1H,(H2,2,3)
Compound 12: butanone, C4H8O, InChI=1S/C4H8O/c1-3-4(2)5/h3H2,1-2H3
Compound 13: tetrahydrofuran, C4H8O, InChI=1S/C4H8O/c1-2-4-5-3-1/h1-4H2
Compound 14: methyl methanoate, C2H4O2, InChI=1S/C2H4O2/c1-4-2-3/h2H,1H3
Compound 15: ethanamide, C2H5NO, InChI=1S/C2H5NO/c1-2(3)4/h1H3,(H2,3,4)
Compound 16: urea, CH4N2O, InChI=1S/CH4N2O/c2-1(3)4/h(H4,2,3,4)

System: dimethyl sulfoxide + heptane; phases: Liquid, Gas
Property: Activity coefficient of heptane (Liquid); method: CHROM:UFactor:2
Temperature, K	Mole fraction of heptane	Activity coefficient of heptane	uncertainty
298.15	0	146	14

System: dimethyl sulfoxide + cyclohexane; phases: Liquid, Gas
Property: Activity coefficient of cyclohexane (Liquid); method: CHROM:UFactor:2
Temperature, K	Mole fraction of cyclohexane	Activity coefficient of cyclohexane	uncertainty
298.15	0	43.1	4

System: dimethyl sulfoxide + benzene; phases: Liquid, Gas
Property: Activity coefficient of benzene (Liquid); method: CHROM:UFactor:2
Temperature, K	Mole fraction of benzene	Activity coefficient of benzene	uncertainty
298.15	0	3.05	0.28

System: diethyl ether + dimethyl sulfoxide; phases: Liquid, Gas
Property: Activity coefficient of diethyl ether (Liquid); method: CHROM:UFactor:2
Temperature, K	Mole fraction of diethyl ether	Activity coefficient of diethyl ether	uncertainty
298.15	0	11.9	1.1

System: tetrachloromethane + dimethyl sulfoxide; phases: Liquid, Gas
Property: Activity coefficient of tetrachloromethane (Liquid); method: CHROM:UFactor:2
Temperature, K	Mole fraction of tetrachloromethane	Activity coefficient of tetrachloromethane	uncertainty
298.15	0	4.73	0.43

System: trichloromethane + dimethyl sulfoxide; phases: Liquid, Gas
Property: Activity coefficient of trichloromethane (Liquid); method: CHROM:UFactor:2
Temperature, K	Mole fraction of trichloromethane	Activity coefficient of trichloromethane	uncertainty
298.15	0	0.46	0.066

System: dimethyl sulfoxide + dichloromethane; phases: Liquid, Gas
Property: Activity coefficient of dichloromethane (Liquid); method: CHROM:UFactor:2
Temperature, K	Mole fraction of dichloromethane	Activity coefficient of dichloromethane	uncertainty
298.15	0	0.559	0.063

System: acetone + dimethyl sulfoxide; phases: Liquid, Gas
Property: Activity coefficient of acetone (Liquid); method: CHROM:UFactor:2
Temperature, K	Mole fraction of acetone	Activity coefficient of acetone	uncertainty
298.15	0	2.04	0.18

System: dimethyl sulfoxide + ethyl acetate; phases: Liquid, Gas
Property: Activity coefficient of ethyl acetate (Liquid); method: CHROM:UFactor:2
Temperature, K	Mole fraction of ethyl acetate	Activity coefficient of ethyl acetate	uncertainty
298.15	0	4	0.36

System: formamide + cyclohexane; phases: Liquid, Gas
Property: Activity coefficient of cyclohexane (Liquid); method: CHROM:UFactor:2
Temperature, K	Mole fraction of cyclohexane	Activity coefficient of cyclohexane	uncertainty
298.15	0	473	45

System: benzene + formamide; phases: Liquid, Gas
Property: Activity coefficient of benzene (Liquid); method: CHROM:UFactor:2
Temperature, K	Mole fraction of benzene	Activity coefficient of benzene	uncertainty
298.15	0	52	4.9

System: diethyl ether + formamide; phases: Liquid, Gas
Property: Activity coefficient of diethyl ether (Liquid); method: CHROM:UFactor:2
Temperature, K	Mole fraction of diethyl ether	Activity coefficient of diethyl ether	uncertainty
298.15	0	39.7	3.7

System: tetrachloromethane + formamide; phases: Liquid, Gas
Property: Activity coefficient of tetrachloromethane (Liquid); method: CHROM:UFactor:2
Temperature, K	Mole fraction of tetrachloromethane	Activity coefficient of tetrachloromethane	uncertainty
298.15	0	110	10.3

System: trichloromethane + formamide; phases: Liquid, Gas
Property: Activity coefficient of trichloromethane (Liquid); method: CHROM:UFactor:2
Temperature, K	Mole fraction of trichloromethane	Activity coefficient of trichloromethane	uncertainty
298.15	0	17.8	1.6

System: dichloromethane + formamide; phases: Liquid, Gas
Property: Activity coefficient of dichloromethane (Liquid); method: CHROM:UFactor:2
Temperature, K	Mole fraction of dichloromethane	Activity coefficient of dichloromethane	uncertainty
298.15	0	12.1	1.1

System: formamide + butanone; phases: Liquid, Gas
Property: Activity coefficient of butanone (Liquid); method: CHROM:UFactor:2
Temperature, K	Mole fraction of butanone	Activity coefficient of butanone	uncertainty
298.15	0	5.87	0.54

System: formamide + tetrahydrofuran; phases: Liquid, Gas
Property: Activity coefficient of tetrahydrofuran (Liquid); method: CHROM:UFactor:2
Temperature, K	Mole fraction of tetrahydrofuran	Activity coefficient of tetrahydrofuran	uncertainty
298.15	0	5.41	0.49

System: dimethyl sulfoxide + butanone; phases: Liquid, Gas
Property: Activity coefficient of butanone (Liquid); method: CHROM:UFactor:2
Temperature, K	Mole fraction of butanone	Activity coefficient of butanone	uncertainty
298.15	0	2.58	0.23

System: dimethyl sulfoxide + tetrahydrofuran; phases: Liquid, Gas
Property: Activity coefficient of tetrahydrofuran (Liquid); method: CHROM:UFactor:2
Temperature, K	Mole fraction of tetrahydrofuran	Activity coefficient of tetrahydrofuran	uncertainty
298.15	0	3.32	0.3

System: dimethyl sulfoxide + methyl methanoate; phases: Liquid, Gas
Property: Activity coefficient of methyl methanoate (Liquid); method: CHROM:UFactor:2
Temperature, K	Mole fraction of methyl methanoate	Activity coefficient of methyl methanoate	uncertainty
298.15	0	1.76	0.15

System: formamide + heptane; phases: Liquid, Gas
Property: Activity coefficient of heptane (Liquid); method: CHROM:UFactor:2
Temperature, K	Mole fraction of heptane	Activity coefficient of heptane	uncertainty
298.15	0	1542	149

System: acetone + formamide; phases: Liquid, Gas
Property: Activity coefficient of acetone (Liquid); method: CHROM:UFactor:2
Temperature, K	Mole fraction of acetone	Activity coefficient of acetone	uncertainty
298.15	0	3.19	0.29

System: formamide + methyl methanoate; phases: Liquid, Gas
Property: Activity coefficient of methyl methanoate (Liquid); method: CHROM:UFactor:2
Temperature, K	Mole fraction of methyl methanoate	Activity coefficient of methyl methanoate	uncertainty
298.15	0	4.51	0.41

System: formamide + ethyl acetate; phases: Liquid, Gas
Property: Activity coefficient of ethyl acetate (Liquid); method: CHROM:UFactor:2
Temperature, K	Mole fraction of ethyl acetate	Activity coefficient of ethyl acetate	uncertainty
298.15	0	10.4	1

System: ethanamide + dimethyl sulfoxide + heptane; phases: Liquid
Fixed: Temperature, K = 298.15
Fixed: Pressure, kPa = 101.325
Fixed: Mole fraction of heptane = 0
Property: Activity coefficient of heptane (Liquid); method: CHROM:UFactor:2
Mole fraction of ethanamide	Activity coefficient of heptane	uncertainty
0	146	14
0.0397	154	15
0.0777	187	18
0.1161	196	19
0.1519	193	18
0.1894	207	20
0.2251	208	20
0.2748	213	20
0.3188	217	21
0.3604	216	20
0.3888	217	21
0.4246	227	21
0.464	265	25

System: ethanamide + dimethyl sulfoxide + cyclohexane; phases: Liquid
Fixed: Temperature, K = 298.15
Fixed: Pressure, kPa = 101.325
Fixed: Mole fraction of cyclohexane = 0
Property: Activity coefficient of cyclohexane (Liquid); method: CHROM:UFactor:2
Mole fraction of ethanamide	Activity coefficient of cyclohexane	uncertainty
0	43.1	4
0.0397	47.4	4.4
0.0777	54.7	5.1
0.1161	56.7	5.3
0.1519	56.6	5.3
0.1894	60	5.6
0.2251	60.8	5.7
0.2748	62.5	5.8
0.3188	63.1	5.9
0.3604	64.9	6.1
0.3888	66.2	6.2
0.4246	68.8	6.4
0.464	75.3	7

System: ethanamide + dimethyl sulfoxide + benzene; phases: Liquid
Fixed: Temperature, K = 298.15
Fixed: Pressure, kPa = 101.325
Fixed: Mole fraction of benzene = 0
Property: Activity coefficient of benzene (Liquid); method: CHROM:UFactor:2
Mole fraction of ethanamide	Activity coefficient of benzene	uncertainty
0	3.05	0.28
0.0397	3.45	0.31
0.0777	3.97	0.36
0.1161	4.25	0.39
0.1519	4.39	0.4
0.1894	4.69	0.43
0.2251	4.88	0.45
0.2748	5.27	0.48
0.3188	5.55	0.51
0.3604	5.79	0.53
0.3888	6.01	0.55
0.4246	6.34	0.58
0.464	6.94	0.64

System: diethyl ether + ethanamide + dimethyl sulfoxide; phases: Liquid
Fixed: Temperature, K = 298.15
Fixed: Pressure, kPa = 101.325
Fixed: Mole fraction of diethyl ether = 0
Property: Activity coefficient of diethyl ether (Liquid); method: CHROM:UFactor:2
Mole fraction of ethanamide	Activity coefficient of diethyl ether	uncertainty
0	11.9	1.1
0.0397	13	1.2
0.0777	14.1	1.3
0.1161	14.6	1.3
0.1519	14.9	1.4
0.1894	15.6	1.4
0.2251	15.7	1.4
0.2748	16.3	1.5
0.3188	16.4	1.5
0.3604	16.7	1.5
0.3888	16.8	1.6
0.4246	17.3	1.6
0.464	17.7	1.6

System: tetrachloromethane + ethanamide + dimethyl sulfoxide; phases: Liquid
Fixed: Temperature, K = 298.15
Fixed: Pressure, kPa = 101.325
Fixed: Mole fraction of tetrachloromethane = 0
Property: Activity coefficient of tetrachloromethane (Liquid); method: CHROM:UFactor:2
Mole fraction of ethanamide	Activity coefficient of tetrachloromethane	uncertainty
0	4.73	0.43
0.0397	5.35	0.49
0.0777	6.39	0.58
0.1161	6.88	0.63
0.1519	7.02	0.64
0.1894	7.62	0.7
0.2251	7.86	0.72
0.2748	8.41	0.77
0.3188	8.81	0.81
0.3604	9.05	0.83
0.3888	9.32	0.86
0.4246	9.88	0.91
0.464	11.4	1.1

System: ethanamide + trichloromethane + dimethyl sulfoxide; phases: Liquid
Fixed: Temperature, K = 298.15
Fixed: Pressure, kPa = 101.325
Fixed: Mole fraction of trichloromethane = 0
Property: Activity coefficient of trichloromethane (Liquid); method: CHROM:UFactor:2
Mole fraction of ethanamide	Activity coefficient of trichloromethane	uncertainty
0	0.46	0.066
0.0397	0.518	0.064
0.0777	0.632	0.061
0.1161	0.676	0.06
0.1519	0.708	0.059
0.1894	0.793	0.056
0.2251	0.814	0.056
0.2748	0.922	0.052
0.3188	0.97	0.051
0.3604	1.04	0.06
0.3888	1.08	0.06
0.4246	1.17	0.07
0.464	1.4	0.1

System: ethanamide + dimethyl sulfoxide + dichloromethane; phases: Liquid
Fixed: Temperature, K = 298.15
Fixed: Pressure, kPa = 101.325
Fixed: Mole fraction of dichloromethane = 0
Property: Activity coefficient of dichloromethane (Liquid); method: CHROM:UFactor:4
Mole fraction of ethanamide	Activity coefficient of dichloromethane	uncertainty
0	0.559	0.126
0.0397	0.665	0.12
0.0777	0.785	0.113
0.1161	0.855	0.109
0.1519	0.883	0.107
0.1894	0.972	0.102
0.2251	1.02	0.11
0.2748	1.14	0.14
0.3188	1.18	0.15
0.3604	1.25	0.17
0.3888	1.31	0.18
0.4246	1.41	0.21
0.464	1.63	0.26

System: ethanamide + acetone + dimethyl sulfoxide; phases: Liquid
Fixed: Temperature, K = 298.15
Fixed: Pressure, kPa = 101.325
Fixed: Mole fraction of acetone = 0
Property: Activity coefficient of acetone (Liquid); method: CHROM:UFactor:2
Mole fraction of ethanamide	Activity coefficient of acetone	uncertainty
0	2.04	0.18
0.0397	2.19	0.2
0.0777	2.29	0.21
0.1161	2.34	0.21
0.1519	2.44	0.22
0.1894	2.5	0.23
0.2251	2.51	0.23
0.2748	2.56	0.23
0.3188	2.63	0.24
0.3604	2.66	0.24
0.3888	2.69	0.24
0.4246	2.74	0.25
0.464	2.74	0.25

System: ethanamide + dimethyl sulfoxide + butanone; phases: Liquid
Fixed: Temperature, K = 298.15
Fixed: Pressure, kPa = 101.325
Fixed: Mole fraction of butanone = 0
Property: Activity coefficient of butanone (Liquid); method: CHROM:UFactor:2
Mole fraction of ethanamide	Activity coefficient of butanone	uncertainty
0	2.58	0.23
0.0397	2.82	0.26
0.0777	3	0.27
0.1161	3.08	0.28
0.1519	3.23	0.29
0.1894	3.34	0.3
0.2251	3.34	0.3
0.2748	3.5	0.32
0.3188	3.54	0.32
0.3604	3.61	0.33
0.3888	3.64	0.33
0.4246	3.71	0.34
0.464	3.84	0.35

System: ethanamide + dimethyl sulfoxide + tetrahydrofuran; phases: Liquid
Fixed: Temperature, K = 298.15
Fixed: Pressure, kPa = 101.325
Fixed: Mole fraction of tetrahydrofuran = 0
Property: Activity coefficient of tetrahydrofuran (Liquid); method: CHROM:UFactor:2
Mole fraction of ethanamide	Activity coefficient of tetrahydrofuran	uncertainty
0	3.32	0.3
0.0397	3.55	0.32
0.0777	3.7	0.34
0.1161	3.75	0.34
0.1519	3.88	0.35
0.1894	3.94	0.36
0.2251	3.95	0.36
0.2748	3.97	0.36
0.3188	3.98	0.36
0.3604	3.99	0.36
0.3888	3.99	0.36
0.4246	4.03	0.37
0.464	4.03	0.37

System: ethanamide + dimethyl sulfoxide + methyl methanoate; phases: Liquid
Fixed: Temperature, K = 298.15
Fixed: Pressure, kPa = 101.325
Fixed: Mole fraction of methyl methanoate = 0
Property: Activity coefficient of methyl methanoate (Liquid); method: CHROM:UFactor:2
Mole fraction of ethanamide	Activity coefficient of methyl methanoate	uncertainty
0	1.76	0.15
0.0397	1.92	0.17
0.0777	2.06	0.19
0.1161	2.12	0.19
0.1519	2.23	0.2
0.1894	2.32	0.21
0.2251	2.36	0.21
0.2748	2.49	0.23
0.3188	2.53	0.23
0.3604	2.63	0.24
0.3888	2.68	0.24
0.4246	2.77	0.25
0.464	2.9	0.26

System: ethanamide + dimethyl sulfoxide + ethyl acetate; phases: Liquid
Fixed: Temperature, K = 298.15
Fixed: Pressure, kPa = 101.325
Fixed: Mole fraction of ethyl acetate = 0
Property: Activity coefficient of ethyl acetate (Liquid); method: CHROM:UFactor:2
Mole fraction of ethanamide	Activity coefficient of ethyl acetate	uncertainty
0	4	0.36
0.0397	4.38	0.4
0.0777	4.8	0.44
0.1161	4.99	0.46
0.1519	5.14	0.47
0.1894	5.22	0.48
0.2251	5.35	0.49
0.2748	5.48	0.5
0.3188	5.56	0.51
0.3604	5.65	0.52
0.3888	5.72	0.52
0.4246	5.85	0.53
0.464	6.04	0.55

System: dimethyl sulfoxide + formamide + heptane; phases: Liquid
Fixed: Temperature, K = 298.15
Fixed: Pressure, kPa = 101.325
Fixed: Mole fraction of heptane = 0
Property: Activity coefficient of heptane (Liquid); method: CHROM:UFactor:2
Mole fraction of formamide	Activity coefficient of heptane	uncertainty
0.0416	159	15
0.0697	164	15
0.1052	178	17
0.1315	214	20
0.1616	229	22
0.2965	277	26
0.4209	329	31
0.5349	467	44
0.6333	565	54
0.7237	696	67
0.8061	966	93
0.8728	1185	114
0.9414	1405	135
0.9492	1437	138
0.9604	1460	141
0.9735	1529	147
0.9838	1541	148
1	1542	149

System: dimethyl sulfoxide + formamide + cyclohexane; phases: Liquid
Fixed: Temperature, K = 298.15
Fixed: Pressure, kPa = 101.325
Fixed: Mole fraction of cyclohexane = 0
Property: Activity coefficient of cyclohexane (Liquid); method: CHROM:UFactor:2
Mole fraction of formamide	Activity coefficient of cyclohexane	uncertainty
0.0416	46.7	4.4
0.0697	48.1	4.5
0.1052	52	4.9
0.1315	56.1	5.2
0.1616	59.2	5.5
0.2965	76.9	7.2
0.4209	90	8.4
0.5349	121	11
0.6333	143	13
0.7237	178	17
0.8061	240	23
0.8728	302	29
0.9414	382	36
0.9492	387	37
0.9604	404	38
0.9735	419	40
0.9838	448	43
1	473	45

System: dimethyl sulfoxide + benzene + formamide; phases: Liquid
Fixed: Temperature, K = 298.15
Fixed: Pressure, kPa = 101.325
Fixed: Mole fraction of benzene = 0
Property: Activity coefficient of benzene (Liquid); method: CHROM:UFactor:4
Mole fraction of formamide	Activity coefficient of benzene	uncertainty
0.0416	3.36	0.61
0.0697	3.55	0.65
0.1052	3.83	0.7
0.1315	4.39	0.8
0.1616	4.6	0.84
0.2965	5.8	1.06
0.4209	7.3	1.34
0.5349	10.6	1.9
0.6333	12.7	2.3
0.7237	16.6	3.1
0.8061	23	4.3
0.8728	29.9	5.6
0.9414	40.3	7.5
0.9492	41.1	7.7
0.9604	43.1	8
0.9735	45.5	8.5
0.9838	48.8	9.1
1	52	9.7

System: diethyl ether + dimethyl sulfoxide + formamide; phases: Liquid
Fixed: Temperature, K = 298.15
Fixed: Pressure, kPa = 101.325
Fixed: Mole fraction of diethyl ether = 0
Property: Activity coefficient of diethyl ether (Liquid); method: CHROM:UFactor:2
Mole fraction of formamide	Activity coefficient of diethyl ether	uncertainty
0.0416	12.6	1.2
0.0697	13.3	1.2
0.1052	14	1.3
0.1315	14.5	1.3
0.1616	15.1	1.4
0.2965	17.9	1.7
0.4209	19.9	1.8
0.5349	23.1	2.1
0.6333	25.2	2.3
0.7237	27.5	2.6
0.8061	30.9	2.9
0.8728	33.7	3.1
0.9414	36.7	3.4
0.9492	36.9	3.4
0.9604	37.9	3.5
0.9735	38.3	3.6
0.9838	38.6	3.6
1	39.7	3.7

System: tetrachloromethane + dimethyl sulfoxide + formamide; phases: Liquid
Fixed: Temperature, K = 298.15
Fixed: Pressure, kPa = 101.325
Fixed: Mole fraction of tetrachloromethane = 0
Property: Activity coefficient of tetrachloromethane (Liquid); method: CHROM:UFactor:4
Mole fraction of formamide	Activity coefficient of tetrachloromethane	uncertainty
0.0416	5.37	0.98
0.0697	5.66	1.03
0.1052	6.23	1.14
0.1315	7.34	1.35
0.1616	7.66	1.4
0.2965	10.3	1.9
0.4209	13.5	2.5
0.5349	20.9	3.9
0.6333	25	4.6
0.7237	33.3	6.2
0.8061	47.4	8.8
0.8728	62.7	11.7
0.9414	82.5	15.5
0.9492	85.7	16.1
0.9604	89.5	16.8
0.9735	95.1	17.8
0.9838	102	19
1	110	21

System: trichloromethane + dimethyl sulfoxide + formamide; phases: Liquid
Fixed: Temperature, K = 298.15
Fixed: Pressure, kPa = 101.325
Fixed: Mole fraction of trichloromethane = 0
Property: Activity coefficient of trichloromethane (Liquid); method: CHROM:UFactor:2
Mole fraction of formamide	Activity coefficient of trichloromethane	uncertainty
0.0416	0.537	0.064
0.0697	0.55	0.064
0.1052	0.615	0.062
0.1315	0.723	0.058
0.1616	0.803	0.056
0.2965	1.15	0.07
0.4209	1.63	0.13
0.5349	2.68	0.24
0.6333	3.39	0.31
0.7237	4.78	0.44
0.8061	7.07	0.65
0.8728	9.67	0.89
0.9414	13.4	1.2
0.9492	13.7	1.3
0.9604	14.5	1.3
0.9735	15.4	1.4
0.9838	16.5	1.5
1	17.8	1.6

System: dimethyl sulfoxide + dichloromethane + formamide; phases: Liquid
Fixed: Temperature, K = 298.15
Fixed: Pressure, kPa = 101.325
Fixed: Mole fraction of dichloromethane = 0
Property: Activity coefficient of dichloromethane (Liquid); method: CHROM:UFactor:2
Mole fraction of formamide	Activity coefficient of dichloromethane	uncertainty
0.0416	0.613	0.062
0.0697	0.702	0.059
0.1052	0.767	0.057
0.1315	0.814	0.056
0.1616	0.914	0.053
0.2965	1.25	0.08
0.4209	1.72	0.14
0.5349	2.53	0.23
0.6333	3.12	0.28
0.7237	4.15	0.38
0.8061	5.74	0.52
0.8728	7.39	0.68
0.9414	9.62	0.88
0.9492	9.82	0.9
0.9604	10.3	0.9
0.9735	10.8	1
0.9838	11.5	1.1
1	12.1	1.1

System: acetone + dimethyl sulfoxide + formamide; phases: Liquid
Fixed: Temperature, K = 298.15
Fixed: Pressure, kPa = 101.325
Fixed: Mole fraction of acetone = 0
Property: Activity coefficient of acetone (Liquid); method: CHROM:UFactor:2
Mole fraction of formamide	Activity coefficient of acetone	uncertainty
0.0416	2.12	0.19
0.0697	2.24	0.2
0.1052	2.33	0.21
0.1315	2.41	0.22
0.1616	2.45	0.22
0.2965	2.71	0.25
0.4209	2.92	0.27
0.5349	3.12	0.28
0.6333	3.2	0.29
0.7237	3.28	0.3
0.8061	3.29	0.3
0.8728	3.26	0.3
0.9414	3.24	0.29
0.9492	3.23	0.29
0.9604	3.22	0.29
0.9735	3.22	0.29
0.9838	3.19	0.29
1	3.19	0.29

System: dimethyl sulfoxide + formamide + butanone; phases: Liquid
Fixed: Temperature, K = 298.15
Fixed: Pressure, kPa = 101.325
Fixed: Mole fraction of butanone = 0
Property: Activity coefficient of butanone (Liquid); method: CHROM:UFactor:2
Mole fraction of formamide	Activity coefficient of butanone	uncertainty
0.0416	2.7	0.25
0.0697	2.86	0.26
0.1052	3.01	0.27
0.1315	3.12	0.28
0.1616	3.22	0.29
0.2965	3.7	0.34
0.4209	4.11	0.37
0.5349	4.58	0.42
0.6333	4.81	0.44
0.7237	5.14	0.47
0.8061	5.41	0.49
0.8728	5.56	0.51
0.9414	5.71	0.52
0.9492	5.75	0.53
0.9604	5.78	0.53
0.9735	5.81	0.53
0.9838	5.84	0.53
1	5.87	0.54

System: dimethyl sulfoxide + formamide + tetrahydrofuran; phases: Liquid
Fixed: Temperature, K = 298.15
Fixed: Pressure, kPa = 101.325
Fixed: Mole fraction of tetrahydrofuran = 0
Property: Activity coefficient of tetrahydrofuran (Liquid); method: CHROM:UFactor:2
Mole fraction of formamide	Activity coefficient of tetrahydrofuran	uncertainty
0.0416	3.42	0.31
0.0697	3.57	0.33
0.1052	3.71	0.34
0.1315	3.79	0.35
0.1616	3.86	0.35
0.2965	4.24	0.39
0.4209	4.5	0.41
0.5349	4.75	0.43
0.6333	4.9	0.45
0.7237	5.04	0.46
0.8061	5.17	0.47
0.8728	5.21	0.48
0.9414	5.29	0.48
0.9492	5.31	0.49
0.9604	5.34	0.49
0.9735	5.36	0.49
0.9838	5.37	0.49
1	5.41	0.49

System: dimethyl sulfoxide + formamide + methyl methanoate; phases: Liquid
Fixed: Temperature, K = 298.15
Fixed: Pressure, kPa = 101.325
Fixed: Mole fraction of methyl methanoate = 0
Property: Activity coefficient of methyl methanoate (Liquid); method: CHROM:UFactor:2
Mole fraction of formamide	Activity coefficient of methyl methanoate	uncertainty
0.0416	1.84	0.16
0.0697	1.96	0.17
0.1052	2.07	0.19
0.1315	2.13	0.19
0.1616	2.22	0.2
0.2965	2.6	0.24
0.4209	2.95	0.27
0.5349	3.32	0.3
0.6333	3.59	0.33
0.7237	3.87	0.35
0.8061	4.11	0.37
0.8728	4.25	0.39
0.9414	4.41	0.4
0.9492	4.42	0.4
0.9604	4.43	0.4
0.9735	4.45	0.41
0.9838	4.49	0.41
1	4.51	0.41

System: dimethyl sulfoxide + formamide + ethyl acetate; phases: Liquid
Fixed: Temperature, K = 298.15
Fixed: Pressure, kPa = 101.325
Fixed: Mole fraction of ethyl acetate = 0
Property: Activity coefficient of ethyl acetate (Liquid); method: CHROM:UFactor:2
Mole fraction of formamide	Activity coefficient of ethyl acetate	uncertainty
0.0416	4.25	0.39
0.0697	4.48	0.41
0.1052	4.71	0.43
0.1315	4.93	0.45
0.1616	5.12	0.47
0.2965	6.07	0.56
0.4209	6.77	0.62
0.5349	7.57	0.69
0.6333	7.86	0.72
0.7237	8.45	0.78
0.8061	9.13	0.84
0.8728	9.4	0.86
0.9414	10	0.9
0.9492	10.1	0.9
0.9604	10.2	0.9
0.9735	10.2	0.9
0.9838	10.3	0.9
1	10.4	1

System: urea + dimethyl sulfoxide + heptane; phases: Liquid
Fixed: Temperature, K = 298.15
Fixed: Pressure, kPa = 101.325
Fixed: Mole fraction of heptane = 0
Property: Activity coefficient of heptane (Liquid); method: CHROM:UFactor:2
Mole fraction of urea	Activity coefficient of heptane	uncertainty
0.0261	174	16
0.0512	196	19
0.076	210	20
0.0953	237	22
0.1119	252	24
0.1507	292	28
0.1678	305	29
0.1869	342	32
0.2039	374	36
0.2297	413	39
0.2462	441	42

System: urea + dimethyl sulfoxide + cyclohexane; phases: Liquid
Fixed: Temperature, K = 298.15
Fixed: Pressure, kPa = 101.325
Fixed: Mole fraction of cyclohexane = 0
Property: Activity coefficient of cyclohexane (Liquid); method: CHROM:UFactor:2
Mole fraction of urea	Activity coefficient of cyclohexane	uncertainty
0.0261	50.8	4.7
0.0512	56.2	5.2
0.076	60	5.6
0.0953	66.7	6.2
0.1119	70.7	6.6
0.1507	77.7	7.3
0.1678	82.9	7.8
0.1869	92.8	8.7
0.2039	106	10
0.2297	119	11
0.2462	127	12

System: urea + dimethyl sulfoxide + benzene; phases: Liquid
Fixed: Temperature, K = 298.15
Fixed: Pressure, kPa = 101.325
Fixed: Mole fraction of benzene = 0
Property: Activity coefficient of benzene (Liquid); method: CHROM:UFactor:2
Mole fraction of urea	Activity coefficient of benzene	uncertainty
0.0261	3.55	0.32
0.0512	3.84	0.35
0.076	4.13	0.38
0.0953	4.48	0.41
0.1119	4.65	0.42
0.1507	5.07	0.46
0.1678	5.26	0.48
0.1869	5.78	0.53
0.2039	6.45	0.59
0.2297	7.07	0.65
0.2462	7.59	0.7

System: urea + diethyl ether + dimethyl sulfoxide; phases: Liquid
Fixed: Temperature, K = 298.15
Fixed: Pressure, kPa = 101.325
Fixed: Mole fraction of diethyl ether = 0
Property: Activity coefficient of diethyl ether (Liquid); method: CHROM:UFactor:2
Mole fraction of urea	Activity coefficient of diethyl ether	uncertainty
0.0261	13.7	1.3
0.0512	14.7	1.4
0.076	16	1.5
0.0953	16.9	1.6
0.1119	17.8	1.6
0.1507	19.5	1.8
0.1678	20.5	1.9
0.1869	22.3	2.1
0.2039	24.3	2.3
0.2297	26.6	2.5
0.2462	28.4	2.6

System: tetrachloromethane + urea + dimethyl sulfoxide; phases: Liquid
Fixed: Temperature, K = 298.15
Fixed: Pressure, kPa = 101.325
Fixed: Mole fraction of tetrachloromethane = 0
Property: Activity coefficient of tetrachloromethane (Liquid); method: CHROM:UFactor:2
Mole fraction of urea	Activity coefficient of tetrachloromethane	uncertainty
0.0261	5.64	0.52
0.0512	6.19	0.57
0.076	6.71	0.61
0.0953	7.42	0.68
0.1119	7.78	0.71
0.1507	8.67	0.8
0.1678	9.05	0.83
0.1869	10.2	0.9
0.2039	11.7	1.1
0.2297	13.1	1.2
0.2462	14.2	1.3

System: urea + trichloromethane + dimethyl sulfoxide; phases: Liquid
Fixed: Temperature, K = 298.15
Fixed: Pressure, kPa = 101.325
Fixed: Mole fraction of trichloromethane = 0
Property: Activity coefficient of trichloromethane (Liquid); method: CHROM:UFactor:2
Mole fraction of urea	Activity coefficient of trichloromethane	uncertainty
0.0261	0.544	0.064
0.0512	0.597	0.062
0.076	0.655	0.06
0.0953	0.733	0.058
0.1119	0.771	0.057
0.1507	0.877	0.054
0.1678	0.932	0.052
0.1869	1.06	0.06
0.2039	1.23	0.08
0.2297	1.37	0.1
0.2462	1.52	0.12

System: urea + dimethyl sulfoxide + dichloromethane; phases: Liquid
Fixed: Temperature, K = 298.15
Fixed: Pressure, kPa = 101.325
Fixed: Mole fraction of dichloromethane = 0
Property: Activity coefficient of dichloromethane (Liquid); method: CHROM:UFactor:2
Mole fraction of urea	Activity coefficient of dichloromethane	uncertainty
0.0261	0.671	0.06
0.0512	0.734	0.058
0.076	0.819	0.055
0.0953	0.889	0.053
0.1119	0.93	0.052
0.1507	1.05	0.06
0.1678	1.09	0.06
0.1869	1.22	0.08
0.2039	1.39	0.1
0.2297	1.55	0.12
0.2462	1.67	0.14

System: urea + acetone + dimethyl sulfoxide; phases: Liquid
Fixed: Temperature, K = 298.15
Fixed: Pressure, kPa = 101.325
Fixed: Mole fraction of acetone = 0
Property: Activity coefficient of acetone (Liquid); method: CHROM:UFactor:2
Mole fraction of urea	Activity coefficient of acetone	uncertainty
0.0261	2.18	0.2
0.0512	2.33	0.21
0.076	2.54	0.23
0.0953	2.56	0.23
0.1119	2.66	0.24
0.1507	2.83	0.26
0.1678	2.93	0.27
0.1869	3.1	0.28
0.2039	3.26	0.3
0.2297	3.45	0.31
0.2462	3.6	0.33

System: urea + dimethyl sulfoxide + butanone; phases: Liquid
Fixed: Temperature, K = 298.15
Fixed: Pressure, kPa = 101.325
Fixed: Mole fraction of butanone = 0
Property: Activity coefficient of butanone (Liquid); method: CHROM:UFactor:2
Mole fraction of urea	Activity coefficient of butanone	uncertainty
0.0261	2.79	0.25
0.0512	3.05	0.28
0.076	3.36	0.31
0.0953	3.47	0.32
0.1119	3.6	0.33
0.1507	3.9	0.36
0.1678	4.07	0.37
0.1869	4.38	0.4
0.2039	4.7	0.43
0.2297	5.04	0.46
0.2462	5.32	0.49

System: urea + dimethyl sulfoxide + tetrahydrofuran; phases: Liquid
Fixed: Temperature, K = 298.15
Fixed: Pressure, kPa = 101.325
Fixed: Mole fraction of tetrahydrofuran = 0
Property: Activity coefficient of tetrahydrofuran (Liquid); method: CHROM:UFactor:2
Mole fraction of urea	Activity coefficient of tetrahydrofuran	uncertainty
0.0261	3.53	0.32
0.0512	3.91	0.36
0.076	4.16	0.38
0.0953	4.23	0.39
0.1119	4.37	0.4
0.1507	4.67	0.43
0.1678	4.81	0.44
0.1869	5.13	0.47
0.2039	5.39	0.49
0.2297	5.7	0.52
0.2462	5.95	0.54

System: urea + dimethyl sulfoxide + methyl methanoate; phases: Liquid
Fixed: Temperature, K = 298.15
Fixed: Pressure, kPa = 101.325
Fixed: Mole fraction of methyl methanoate = 0
Property: Activity coefficient of methyl methanoate (Liquid); method: CHROM:UFactor:2
Mole fraction of urea	Activity coefficient of methyl methanoate	uncertainty
0.0261	1.88	0.16
0.0512	2.1	0.19
0.076	2.22	0.2
0.0953	2.27	0.21
0.1119	2.41	0.22
0.1507	2.52	0.23
0.1678	2.61	0.24
0.1869	2.8	0.25
0.2039	2.98	0.27
0.2297	3.17	0.29
0.2462	3.34	0.3

System: urea + dimethyl sulfoxide + ethyl acetate; phases: Liquid
Fixed: Temperature, K = 298.15
Fixed: Pressure, kPa = 101.325
Fixed: Mole fraction of ethyl acetate = 0
Property: Activity coefficient of ethyl acetate (Liquid); method: CHROM:UFactor:2
Mole fraction of urea	Activity coefficient of ethyl acetate	uncertainty
0.0261	4.52	0.41
0.0512	4.84	0.44
0.076	5.22	0.48
0.0953	5.49	0.5
0.1119	5.72	0.52
0.1507	6.21	0.57
0.1678	6.38	0.58
0.1869	6.88	0.63
0.2039	7.54	0.69
0.2297	8.21	0.75
0.2462	8.66	0.79
