Measured thermophysical data. Vapor-Liquid Equilibrium Measurements for Tetraethyl Orthosilicate + Ethanol at 24.00 kPa and 53.32 kPa
Source: J. Chem. Eng. Data, 2004, 10.1021/je0302248
Compound 1: ethanol, C2H6O, InChI=1S/C2H6O/c1-2-3/h3H,2H2,1H3, purity 99.8%
Compound 2: tetraethoxysilane, C8H20O4Si, InChI=1S/C8H20O4Si/c1-5-9-13(10-6-2,11-7-3)12-8-4/h5-8H2,1-4H3, purity 99%

System: ethanol; phases: Liquid, Gas
Property: Vapor or sublimation pressure, kPa (Liquid); method: EBULLIO:UFactor:64
Temperature, K	Vapor or sublimation pressure, kPa	uncertainty
319.5	24	7.23
336.5	53.32	16.01

System: tetraethoxysilane; phases: Liquid, Gas
Property: Vapor or sublimation pressure, kPa (Liquid); method: EBULLIO:UFactor:64
Temperature, K	Vapor or sublimation pressure, kPa	uncertainty
393.4	24	7.23
419.2	53.32	16.01

System: ethanol + tetraethoxysilane; phases: Liquid, Gas
Property: Boiling temperature at pressure P, K (Liquid); method: EBULLIO:UFactor:64
Mole fraction of tetraethoxysilane	Pressure, kPa	Boiling temperature at pressure P, K	uncertainty
0	24	319.5	3.6
0	53.32	336.5	4.4
0.0271	53.32	336.7	4.4
0.043	24	319.8	3.6
0.0442	53.32	337.1	4.5
0.0661	24	320.2	3.6
0.108	24	321	3.4
0.1622	53.32	337.9	4.2
0.1623	24	321.8	3.4
0.2103	53.32	338.7	4.1
0.2224	24	323.1	3.4
0.2721	53.32	339.5	4.1
0.3402	24	323.9	3.5
0.399	53.32	341.7	4.4
0.4322	24	325.6	3.5
0.5064	24	327	3.6
0.5132	53.32	344.4	4.5
0.5931	24	329	3.6
0.6123	53.32	346.8	4.6
0.707	53.32	350.2	5
0.7131	24	333.1	3.5
0.7871	53.32	356.5	5.1
0.7875	24	338.5	4
0.8227	24	342	4.5
0.8252	53.32	360.8	5.7
0.8482	53.32	365.1	6.1
0.8721	53.32	369.7	7.6
0.8875	24	350.5	5.6
0.889	53.32	374	7.4
0.9061	53.32	378.2	8.7
0.9163	24	355.8	6.8
0.9204	53.32	380.8	8.6
0.9281	24	358.5	6.7
0.9413	53.32	389	10.5
0.9534	24	366	8.8
0.9545	53.32	393	10.3
0.9668	53.32	398.7	11.2
0.9681	24	371.7	9.7
0.9748	53.32	401.4	13.1
0.9749	24	375	12.3
0.9782	24	376.6	12
0.9832	53.32	406.7	10.8
0.987	53.32	408.5	9.5
0.9872	24	382	8.2
0.9892	53.32	410	8.9
0.9911	24	384.9	7.5
0.9931	53.32	413.1	8.2
0.9942	24	387.5	6.4
0.9975	53.32	416.5	7.3
0.9987	24	390.7	5.5
1	24	393.4	5.3
1	53.32	419.2	7.3

System: ethanol + tetraethoxysilane; phases: Gas, Liquid
Property: Mole fraction of tetraethoxysilane (Gas); method: CHROM:UFactor:4
Mole fraction of tetraethoxysilane	Pressure, kPa	Mole fraction of tetraethoxysilane	uncertainty
0	24	0	0.0001
0	53.32	0	0.0001
0.0271	53.32	0.0105	0.0105
0.043	24	0.0101	0.0101
0.0442	53.32	0.0115	0.0115
0.0661	24	0.0106	0.0106
0.108	24	0.0118	0.0118
0.1622	53.32	0.0144	0.0144
0.1623	24	0.0168	0.0168
0.2103	53.32	0.0175	0.0175
0.2224	24	0.0199	0.0199
0.2721	53.32	0.0205	0.02
0.3402	24	0.026	0.0201
0.399	53.32	0.0257	0.0201
0.4322	24	0.0323	0.0201
0.5064	24	0.0395	0.0202
0.5132	53.32	0.0352	0.0201
0.5931	24	0.0511	0.0204
0.6123	53.32	0.0477	0.0202
0.707	53.32	0.059	0.0206
0.7131	24	0.0753	0.0209
0.7871	53.32	0.088	0.0223
0.7875	24	0.108	0.0226
0.8227	24	0.1311	0.0274
0.8252	53.32	0.117	0.0256
0.8482	53.32	0.1352	0.0312
0.8721	53.32	0.1721	0.0362
0.8875	24	0.1973	0.0323
0.889	53.32	0.191	0.0374
0.9061	53.32	0.2211	0.0539
0.9163	24	0.2494	0.0577
0.9204	53.32	0.2474	0.0604
0.9281	24	0.2745	0.056
0.9413	53.32	0.343	0.1098
0.9534	24	0.3713	0.1068
0.9545	53.32	0.4018	0.1112
0.9668	53.32	0.4953	0.1573
0.9681	24	0.467	0.148
0.9748	53.32	0.5482	0.2451
0.9749	24	0.5202	0.2418
0.9782	24	0.5541	0.237
0.9832	53.32	0.665	0.1558
0.987	53.32	0.7011	0.1343
0.9872	24	0.683	0.1202
0.9892	53.32	0.737	0.1186
0.9911	24	0.7533	0.1129
0.9931	53.32	0.8152	0.0865
0.9942	24	0.8214	0.0815
0.9975	53.32	0.9222	0.0459
0.9987	24	0.9121	0.0304
1	24	1	0.0001
1	53.32	1	0.0001
