Measured thermophysical data. Measurement and Correlation of Excess Molar Enthalpies for Ethylene Glycol + Alkanol Systems at the Temperatures (298.15, 308.15, and 323.15) K
Source: J. Chem. Eng. Data, 2004, 10.1021/je030207i
Compound 1: 1,2-ethanediol, C2H6O2, InChI=1S/C2H6O2/c3-1-2-4/h3-4H,1-2H2
Compound 2: methanol, CH4O, InChI=1S/CH4O/c1-2/h2H,1H3
Compound 3: ethanol, C2H6O, InChI=1S/C2H6O/c1-2-3/h3H,2H2,1H3
Compound 4: propan-1-ol, C3H8O, InChI=1S/C3H8O/c1-2-3-4/h4H,2-3H2,1H3
Compound 5: propan-2-ol, C3H8O, InChI=1S/C3H8O/c1-3(2)4/h3-4H,1-2H3
Compound 6: butan-1-ol, C4H10O, InChI=1S/C4H10O/c1-2-3-4-5/h5H,2-4H2,1H3
Compound 7: butan-2-ol, C4H10O, InChI=1S/C4H10O/c1-3-4(2)5/h4-5H,3H2,1-2H3

System: 1,2-ethanediol; phases: Liquid, Gas
Property: Normal boiling temperature, K (Liquid); method: Ebulliometric method (Recirculating still)
Normal boiling temperature, K	uncertainty
470.38	0.05

System: 1,2-ethanediol; phases: Liquid
Property: Mass density, kg/m3 (Liquid); method: VIBTUB:mpoint:UFactor:4
Temperature, K	Pressure, kPa	Mass density, kg/m3	uncertainty
298.15	101.3	1110	1

System: methanol; phases: Liquid, Gas
Property: Normal boiling temperature, K (Liquid); method: Ebulliometric method (Recirculating still)
Normal boiling temperature, K	uncertainty
337.62	0.05

System: methanol; phases: Liquid
Property: Mass density, kg/m3 (Liquid); method: VIBTUB:mpoint:UFactor:4
Temperature, K	Pressure, kPa	Mass density, kg/m3	uncertainty
298.15	101.3	786.4	0.3

System: ethanol; phases: Liquid, Gas
Property: Normal boiling temperature, K (Liquid); method: Ebulliometric method (Recirculating still)
Normal boiling temperature, K	uncertainty
351.41	0.05

System: ethanol; phases: Liquid
Property: Mass density, kg/m3 (Liquid); method: VIBTUB:mpoint:UFactor:4
Temperature, K	Pressure, kPa	Mass density, kg/m3	uncertainty
298.15	101.3	785.2	0.3

System: propan-1-ol; phases: Liquid, Gas
Property: Normal boiling temperature, K (Liquid); method: Ebulliometric method (Recirculating still)
Normal boiling temperature, K	uncertainty
370.31	0.05

System: propan-1-ol; phases: Liquid
Property: Mass density, kg/m3 (Liquid); method: VIBTUB:mpoint:UFactor:4
Temperature, K	Pressure, kPa	Mass density, kg/m3	uncertainty
298.15	101.3	799.8	0.3

System: propan-2-ol; phases: Liquid, Gas
Property: Normal boiling temperature, K (Liquid); method: Ebulliometric method (Recirculating still)
Normal boiling temperature, K	uncertainty
355.35	0.05

System: propan-2-ol; phases: Liquid
Property: Mass density, kg/m3 (Liquid); method: VIBTUB:mpoint:UFactor:4
Temperature, K	Pressure, kPa	Mass density, kg/m3	uncertainty
298.15	101.3	781.1	0.3

System: butan-1-ol; phases: Liquid, Gas
Property: Normal boiling temperature, K (Liquid); method: Ebulliometric method (Recirculating still)
Normal boiling temperature, K	uncertainty
390.86	0.05

System: butan-1-ol; phases: Liquid
Property: Mass density, kg/m3 (Liquid); method: VIBTUB:mpoint:UFactor:4
Temperature, K	Pressure, kPa	Mass density, kg/m3	uncertainty
298.15	101.3	805.9	0.3

System: butan-2-ol; phases: Liquid, Gas
Property: Normal boiling temperature, K (Liquid); method: Ebulliometric method (Recirculating still)
Normal boiling temperature, K	uncertainty
372.68	0.05

System: butan-2-ol; phases: Liquid
Property: Mass density, kg/m3 (Liquid); method: VIBTUB:mpoint:UFactor:4
Temperature, K	Pressure, kPa	Mass density, kg/m3	uncertainty
298.15	101.3	802.4	0.3

System: methanol + 1,2-ethanediol; phases: Liquid
Fixed: Pressure, kPa = 101.3
Property: Excess molar enthalpy (molar enthalpy of mixing), kJ/mol (Liquid); method: Flow calorimetry
Temperature, K	Mole fraction of 1,2-ethanediol	Excess molar enthalpy (molar enthalpy of mixing), kJ/mol	uncertainty
298.15	0.037	0.02359	0.00124
298.15	0.0748	0.0442	0.00144
298.15	0.1137	0.06132	0.00161
298.15	0.1538	0.07707	0.00177
298.15	0.195	0.0903	0.0019
298.15	0.2374	0.10027	0.002
298.15	0.2811	0.11003	0.0021
298.15	0.3262	0.11473	0.00215
298.15	0.3726	0.12006	0.0022
298.15	0.4206	0.12087	0.00221
298.15	0.4701	0.12071	0.00221
298.15	0.5212	0.11785	0.00218
298.15	0.574	0.11305	0.00213
298.15	0.6286	0.10486	0.00205
298.15	0.6851	0.09439	0.00194
298.15	0.7436	0.08238	0.00182
298.15	0.8042	0.06553	0.00166
298.15	0.867	0.04772	0.00148
298.15	0.9321	0.02474	0.00125
308.15	0.0372	0.02487	0.00125
308.15	0.0752	0.0473	0.00147
308.15	0.1143	0.06619	0.00166
308.15	0.1545	0.08208	0.00182
308.15	0.1958	0.09806	0.00198
308.15	0.2384	0.10806	0.00208
308.15	0.2822	0.11782	0.00218
308.15	0.3274	0.12455	0.00225
308.15	0.3739	0.12854	0.00229
308.15	0.4219	0.13158	0.00232
308.15	0.4715	0.13	0.0023
308.15	0.5226	0.12626	0.00226
308.15	0.5754	0.11909	0.00219
308.15	0.6299	0.11268	0.00213
308.15	0.6863	0.10186	0.00202
308.15	0.7447	0.08774	0.00188
308.15	0.8051	0.07061	0.00171
308.15	0.8676	0.05043	0.0015
308.15	0.9325	0.02644	0.00126
323.15	0.0371	0.02872	0.00129
323.15	0.075	0.05317	0.00153
323.15	0.114	0.07476	0.00175
323.15	0.154	0.09162	0.00192
323.15	0.1953	0.10808	0.00208
323.15	0.2378	0.12157	0.00222
323.15	0.2815	0.13221	0.00232
323.15	0.3266	0.13894	0.00239
323.15	0.3732	0.14363	0.00244
323.15	0.4211	0.1464	0.00246
323.15	0.4706	0.14413	0.00244
323.15	0.5218	0.14215	0.00242
323.15	0.5746	0.13453	0.00235
323.15	0.6292	0.12452	0.00225
323.15	0.6856	0.11334	0.00213
323.15	0.744	0.09657	0.00197
323.15	0.8046	0.07755	0.00178
323.15	0.8673	0.05455	0.00155
323.15	0.9323	0.02795	0.00128

System: ethanol + 1,2-ethanediol; phases: Liquid
Fixed: Pressure, kPa = 101.3
Property: Excess molar enthalpy (molar enthalpy of mixing), kJ/mol (Liquid); method: Flow calorimetry
Temperature, K	Mole fraction of 1,2-ethanediol	Excess molar enthalpy (molar enthalpy of mixing), kJ/mol	uncertainty
298.15	0.0526	0.11148	0.00211
298.15	0.1045	0.19873	0.00299
298.15	0.1561	0.2663	0.00366
298.15	0.2075	0.31712	0.00417
298.15	0.2587	0.35141	0.00451
298.15	0.3096	0.37942	0.00479
298.15	0.3604	0.39546	0.00495
298.15	0.4109	0.40255	0.00503
298.15	0.4611	0.40266	0.00503
298.15	0.5112	0.39557	0.00496
298.15	0.561	0.38072	0.00481
298.15	0.6106	0.35898	0.00459
298.15	0.66	0.33199	0.00432
298.15	0.7092	0.29966	0.004
298.15	0.7581	0.26367	0.00364
298.15	0.8069	0.2209	0.00321
298.15	0.8554	0.17239	0.00272
298.15	0.9037	0.11601	0.00216
298.15	0.9518	0.06153	0.00162
308.15	0.0526	0.11854	0.00219
308.15	0.1045	0.2117	0.00312
308.15	0.1561	0.28366	0.00384
308.15	0.2075	0.33785	0.00438
308.15	0.2587	0.37822	0.00478
308.15	0.3096	0.40615	0.00506
308.15	0.3604	0.4228	0.00523
308.15	0.4109	0.43009	0.0053
308.15	0.4611	0.42957	0.0053
308.15	0.5112	0.42064	0.00521
308.15	0.561	0.40624	0.00506
308.15	0.6106	0.38275	0.00483
308.15	0.66	0.3555	0.00456
308.15	0.7092	0.32007	0.0042
308.15	0.7581	0.28022	0.0038
308.15	0.8069	0.23496	0.00335
308.15	0.8554	0.18095	0.00281
308.15	0.9037	0.12753	0.00228
308.15	0.9518	0.06508	0.00165
323.15	0.0526	0.12862	0.00229
323.15	0.1045	0.22889	0.00329
323.15	0.1561	0.30715	0.00407
323.15	0.2075	0.366	0.00466
323.15	0.2587	0.40855	0.00509
323.15	0.3096	0.43854	0.00539
323.15	0.3604	0.45719	0.00557
323.15	0.4109	0.4642	0.00564
323.15	0.4611	0.46386	0.00564
323.15	0.5112	0.45244	0.00552
323.15	0.561	0.43838	0.00538
323.15	0.6106	0.4126	0.00513
323.15	0.66	0.38132	0.00481
323.15	0.7092	0.34392	0.00444
323.15	0.7581	0.30272	0.00403
323.15	0.8069	0.25159	0.00352
323.15	0.8554	0.19748	0.00297
323.15	0.9037	0.13778	0.00238
323.15	0.9518	0.0709	0.00171

System: propan-1-ol + 1,2-ethanediol; phases: Liquid
Fixed: Pressure, kPa = 101.3
Property: Excess molar enthalpy (molar enthalpy of mixing), kJ/mol (Liquid); method: Flow calorimetry
Temperature, K	Mole fraction of 1,2-ethanediol	Excess molar enthalpy (molar enthalpy of mixing), kJ/mol	uncertainty
298.15	0.0664	0.20845	0.00308
298.15	0.13	0.35533	0.00455
298.15	0.1915	0.4559	0.00556
298.15	0.2511	0.52806	0.00628
298.15	0.3089	0.57282	0.00673
298.15	0.3648	0.60244	0.00702
298.15	0.4191	0.61398	0.00714
298.15	0.4718	0.61342	0.00713
298.15	0.5229	0.60422	0.00704
298.15	0.5725	0.57703	0.00677
298.15	0.6207	0.55353	0.00654
298.15	0.6676	0.51724	0.00617
298.15	0.7131	0.47712	0.00577
298.15	0.7574	0.42618	0.00526
298.15	0.8005	0.37527	0.00475
298.15	0.8425	0.31013	0.0041
298.15	0.8834	0.24326	0.00343
298.15	0.9232	0.16751	0.00268
298.15	0.9619	0.08745	0.00187
308.15	0.0664	0.22368	0.00324
308.15	0.13	0.38156	0.00482
308.15	0.1915	0.48929	0.00589
308.15	0.2511	0.56492	0.00665
308.15	0.3089	0.61315	0.00713
308.15	0.3648	0.63646	0.00736
308.15	0.4191	0.64853	0.00749
308.15	0.4718	0.65434	0.00754
308.15	0.5229	0.64145	0.00741
308.15	0.5725	0.61953	0.0072
308.15	0.6207	0.58871	0.00689
308.15	0.6676	0.55113	0.00651
308.15	0.7131	0.50668	0.00607
308.15	0.7574	0.45398	0.00554
308.15	0.8005	0.39424	0.00494
308.15	0.8425	0.32812	0.00428
308.15	0.8834	0.25566	0.00356
308.15	0.9232	0.17803	0.00278
308.15	0.9619	0.09121	0.00191
323.15	0.0644	0.23673	0.00337
323.15	0.13	0.40432	0.00504
323.15	0.1915	0.5247	0.00625
323.15	0.2511	0.60098	0.00701
323.15	0.3089	0.65295	0.00753
323.15	0.3648	0.68402	0.00784
323.15	0.4192	0.69901	0.00799
323.15	0.4718	0.6977	0.00798
323.15	0.5229	0.68232	0.00782
323.15	0.5725	0.66049	0.0076
323.15	0.6207	0.62931	0.00729
323.15	0.6676	0.58922	0.00689
323.15	0.7131	0.54087	0.00641
323.15	0.7574	0.4869	0.00587
323.15	0.8005	0.42115	0.00521
323.15	0.8425	0.35071	0.00451
323.15	0.8833	0.27239	0.00372
323.15	0.9231	0.18755	0.00288
323.15	0.9619	0.09602	0.00196

System: butan-1-ol + 1,2-ethanediol; phases: Liquid
Fixed: Pressure, kPa = 101.3
Property: Excess molar enthalpy (molar enthalpy of mixing), kJ/mol (Liquid); method: Flow calorimetry
Temperature, K	Mole fraction of 1,2-ethanediol	Excess molar enthalpy (molar enthalpy of mixing), kJ/mol	uncertainty
298.15	0.0803	0.29608	0.00396
298.15	0.1548	0.48224	0.00582
298.15	0.225	0.60308	0.00703
298.15	0.2912	0.67515	0.00775
298.15	0.3537	0.71845	0.00818
298.15	0.4129	0.73689	0.00837
298.15	0.4691	0.74003	0.0084
298.15	0.5224	0.73252	0.00833
298.15	0.573	0.71011	0.0081
298.15	0.6212	0.68106	0.00781
298.15	0.6671	0.64487	0.00745
298.15	0.7109	0.59933	0.00699
298.15	0.7527	0.55438	0.00654
298.15	0.7926	0.48889	0.00589
298.15	0.8308	0.42937	0.00529
298.15	0.8675	0.35857	0.00459
298.15	0.9026	0.28418	0.00384
298.15	0.9362	0.19489	0.00295
298.15	0.9686	0.10152	0.00202
308.15	0.0803	0.31181	0.00412
308.15	0.1548	0.51162	0.00612
308.15	0.225	0.63483	0.00735
308.15	0.2912	0.7142	0.00814
308.15	0.3537	0.75788	0.00858
308.15	0.4129	0.78013	0.0088
308.15	0.4691	0.78353	0.00884
308.15	0.5223	0.77306	0.00873
308.15	0.573	0.75234	0.00852
308.15	0.6211	0.72077	0.00821
308.15	0.6671	0.68286	0.00783
308.15	0.7109	0.63757	0.00738
308.15	0.7527	0.57964	0.0068
308.15	0.7926	0.51915	0.00619
308.15	0.8308	0.45202	0.00552
308.15	0.8675	0.38212	0.00482
308.15	0.9026	0.2993	0.00399
308.15	0.9362	0.20305	0.00303
308.15	0.9686	0.10884	0.00209
323.15	0.0798	0.32441	0.00424
323.15	0.1552	0.51989	0.0062
323.15	0.2253	0.66709	0.00767
323.15	0.2914	0.7494	0.00849
323.15	0.354	0.7973	0.00897
323.15	0.4131	0.82429	0.00924
323.15	0.4692	0.83123	0.00931
323.15	0.5224	0.81975	0.0092
323.15	0.573	0.79685	0.00897
323.15	0.6211	0.76946	0.00869
323.15	0.6671	0.71905	0.00819
323.15	0.7108	0.67143	0.00771
323.15	0.7527	0.61638	0.00716
323.15	0.7926	0.55307	0.00653
323.15	0.8309	0.48326	0.00583
323.15	0.8675	0.39492	0.00495
323.15	0.9026	0.31319	0.00413
323.15	0.9363	0.21809	0.00318
323.15	0.9687	0.11151	0.00212

System: propan-2-ol + 1,2-ethanediol; phases: Liquid
Fixed: Pressure, kPa = 101.3
Property: Excess molar enthalpy (molar enthalpy of mixing), kJ/mol (Liquid); method: Flow calorimetry
Temperature, K	Mole fraction of 1,2-ethanediol	Excess molar enthalpy (molar enthalpy of mixing), kJ/mol	uncertainty
298.15	0.0678	0.21783	0.00318
298.15	0.1326	0.3666	0.00467
298.15	0.1951	0.46905	0.00569
298.15	0.2555	0.53506	0.00635
298.15	0.3138	0.57822	0.00678
298.15	0.3702	0.60033	0.007
298.15	0.4248	0.60769	0.00708
298.15	0.4776	0.60107	0.00701
298.15	0.5287	0.5853	0.00685
298.15	0.5782	0.56191	0.00662
298.15	0.6262	0.53081	0.00631
298.15	0.6727	0.49308	0.00593
298.15	0.7178	0.44627	0.00546
298.15	0.7617	0.39786	0.00498
298.15	0.8042	0.34105	0.00441
298.15	0.8455	0.28345	0.00383
298.15	0.8857	0.21884	0.00319
298.15	0.9248	0.15076	0.00251
298.15	0.9628	0.07734	0.00177
308.15	0.0675	0.21169	0.00312
308.15	0.1325	0.3656	0.00466
308.15	0.1953	0.46694	0.00567
308.15	0.2558	0.53501	0.00635
308.15	0.3143	0.5766	0.00677
308.15	0.3708	0.60071	0.00701
308.15	0.4254	0.60727	0.00707
308.15	0.4783	0.60257	0.00703
308.15	0.5294	0.58801	0.00688
308.15	0.589	0.56382	0.00664
308.15	0.627	0.53316	0.00633
308.15	0.6735	0.49554	0.00596
308.15	0.7186	0.44936	0.00549
308.15	0.7624	0.40109	0.00501
308.15	0.8049	0.34659	0.00447
308.15	0.8462	0.28519	0.00385
308.15	0.8863	0.22066	0.00321
308.15	0.9252	0.15309	0.00253
308.15	0.9631	0.07851	0.00179
323.15	0.0678	0.1962	0.00296
323.15	0.1326	0.34085	0.00441
323.15	0.1951	0.43798	0.00538
323.15	0.2555	0.50806	0.00608
323.15	0.3138	0.54983	0.0065
323.15	0.3702	0.57889	0.00679
323.15	0.4247	0.58453	0.00685
323.15	0.4775	0.58376	0.00684
323.15	0.5286	0.57075	0.00671
323.15	0.5781	0.54929	0.00649
323.15	0.6261	0.5179	0.00618
323.15	0.6727	0.48463	0.00585
323.15	0.7178	0.44095	0.00541
323.15	0.7617	0.39271	0.00493
323.15	0.8042	0.34123	0.00441
323.15	0.8456	0.28166	0.00382
323.15	0.8858	0.21848	0.00318
323.15	0.9248	0.15048	0.0025
323.15	0.9628	0.07927	0.00179

System: butan-2-ol + 1,2-ethanediol; phases: Liquid
Fixed: Pressure, kPa = 101.3
Property: Excess molar enthalpy (molar enthalpy of mixing), kJ/mol (Liquid); method: Flow calorimetry
Temperature, K	Mole fraction of 1,2-ethanediol	Excess molar enthalpy (molar enthalpy of mixing), kJ/mol	uncertainty
298.15	0.081	0.2739	0.00374
298.15	0.1557	0.45766	0.00558
298.15	0.226	0.57084	0.00671
298.15	0.2923	0.64277	0.00743
298.15	0.3549	0.68566	0.00786
298.15	0.4142	0.70078	0.00801
298.15	0.4703	0.70082	0.00801
298.15	0.5235	0.69046	0.0079
298.15	0.5741	0.66862	0.00769
298.15	0.6222	0.6354	0.00735
298.15	0.6681	0.60155	0.00702
298.15	0.7117	0.55602	0.00656
298.15	0.7535	0.51072	0.00611
298.15	0.7933	0.44945	0.00549
298.15	0.8314	0.38928	0.00489
298.15	0.868	0.3249	0.00425
298.15	0.9029	0.25228	0.00352
298.15	0.9365	0.17627	0.00276
298.15	0.9687	0.09334	0.00193
308.15	0.081	0.24374	0.00344
308.15	0.1557	0.42123	0.00521
308.15	0.226	0.5373	0.00637
308.15	0.2923	0.60655	0.00707
308.15	0.3549	0.64931	0.00749
308.15	0.4142	0.67197	0.00772
308.15	0.4703	0.67383	0.00774
308.15	0.5235	0.66539	0.00765
308.15	0.5741	0.64607	0.00746
308.15	0.6222	0.62061	0.00721
308.15	0.6681	0.58418	0.00684
308.15	0.7117	0.54512	0.00645
308.15	0.7535	0.4983	0.00598
308.15	0.7933	0.44176	0.00542
308.15	0.8314	0.3828	0.00483
308.15	0.868	0.32187	0.00422
308.15	0.9029	0.25175	0.00352
308.15	0.9365	0.17257	0.00273
308.15	0.9687	0.09242	0.00192
323.15	0.081	0.17638	0.00276
323.15	0.1557	0.32506	0.00425
323.15	0.226	0.43264	0.00533
323.15	0.2923	0.502	0.00602
323.15	0.3549	0.54681	0.00647
323.15	0.4142	0.57239	0.00672
323.15	0.4703	0.5833	0.00683
323.15	0.5235	0.58046	0.0068
323.15	0.5741	0.5705	0.00671
323.15	0.6222	0.55296	0.00653
323.15	0.6681	0.52523	0.00625
323.15	0.7117	0.49071	0.00591
323.15	0.7535	0.45389	0.00554
323.15	0.7933	0.40962	0.0051
323.15	0.8314	0.35591	0.00456
323.15	0.868	0.29725	0.00397
323.15	0.9029	0.23002	0.0033
323.15	0.9365	0.15595	0.00256
323.15	0.9687	0.08049	0.0018
