Measured thermophysical data. Vapor-Liquid Equilibria for the Binary Systems of Dimethoxymethane with Some Fuel Oxygenates
Source: J. Chem. Eng. Data, 2004, 10.1021/je030238d
Compound 1: dimethoxymethane, C3H8O2, InChI=1S/C3H8O2/c1-4-3-5-2/h3H2,1-2H3
Compound 2: 2-methoxy-2-methylpropane, C5H12O, InChI=1S/C5H12O/c1-5(2,3)6-4/h1-4H3
Compound 3: diisopropyl ether, C6H14O, InChI=1S/C6H14O/c1-5(2)7-6(3)4/h5-6H,1-4H3
Compound 4: propan-2-ol, C3H8O, InChI=1S/C3H8O/c1-3(2)4/h3-4H,1-2H3

System: dimethoxymethane; phases: Liquid, Gas
Property: Normal boiling temperature, K (Liquid); method: Ebulliometric method (Recirculating still)
Normal boiling temperature, K	uncertainty
315.25	0.2

System: dimethoxymethane; phases: Liquid
Property: Mass density, kg/m3 (Liquid); method: PYCNOM:UFactor:2
Temperature, K	Pressure, kPa	Mass density, kg/m3	uncertainty
298.15	101.325	847.51	0.77

System: dimethoxymethane; phases: Liquid, Gas
Property: Vapor or sublimation pressure, kPa (Liquid); method: EBULLIO:UFactor:8
Temperature, K	Vapor or sublimation pressure, kPa	uncertainty
313.75	95.96	1

System: 2-methoxy-2-methylpropane; phases: Liquid, Gas
Property: Normal boiling temperature, K (Liquid); method: Ebulliometric method (Recirculating still)
Normal boiling temperature, K	uncertainty
328.25	0.2

System: 2-methoxy-2-methylpropane; phases: Liquid
Property: Mass density, kg/m3 (Liquid); method: PYCNOM:UFactor:2:UFactor:2
Temperature, K	Pressure, kPa	Mass density, kg/m3	uncertainty
298.15	101.325	735.42	0.75

System: 2-methoxy-2-methylpropane; phases: Liquid, Gas
Property: Vapor or sublimation pressure, kPa (Liquid); method: EBULLIO:UFactor:8
Temperature, K	Vapor or sublimation pressure, kPa	uncertainty
326.55	95.96	1

System: diisopropyl ether; phases: Liquid, Gas
Property: Normal boiling temperature, K (Liquid); method: Ebulliometric method (Recirculating still)
Normal boiling temperature, K	uncertainty
341.35	0.22

System: diisopropyl ether; phases: Liquid
Property: Mass density, kg/m3 (Liquid); method: PYCNOM:UFactor:2:UFactor:2:UFactor:2
Temperature, K	Pressure, kPa	Mass density, kg/m3	uncertainty
298.15	101.325	718.14	2.21

System: diisopropyl ether; phases: Liquid, Gas
Property: Vapor or sublimation pressure, kPa (Liquid); method: EBULLIO:UFactor:8
Temperature, K	Vapor or sublimation pressure, kPa	uncertainty
339.95	95.96	1

System: propan-2-ol; phases: Liquid, Gas
Property: Normal boiling temperature, K (Liquid); method: Ebulliometric method (Recirculating still)
Normal boiling temperature, K	uncertainty
355.15	0.22

System: propan-2-ol; phases: Liquid
Property: Mass density, kg/m3 (Liquid); method: PYCNOM:UFactor:2:UFactor:2:UFactor:2:UFactor:2
Temperature, K	Pressure, kPa	Mass density, kg/m3	uncertainty
298.15	101.325	781.38	2.21

System: propan-2-ol; phases: Liquid, Gas
Property: Vapor or sublimation pressure, kPa (Liquid); method: EBULLIO:UFactor:8
Temperature, K	Vapor or sublimation pressure, kPa	uncertainty
354.05	95.96	1.11

System: dimethoxymethane + 2-methoxy-2-methylpropane; phases: Liquid, Gas
Fixed: Pressure, kPa = 95.96
Property: Boiling temperature at pressure P, K (Liquid); method: EBULLIO:UFactor:8
Mole fraction of dimethoxymethane	Boiling temperature at pressure P, K	uncertainty
0	326.55	0.31
0.1034	323.65	0.31
0.1813	322.05	0.31
0.2571	320.95	0.31
0.3498	319.55	0.31
0.48	317.95	0.31
0.5764	316.85	0.31
0.675	316.15	0.31
0.7687	315.35	0.31
0.8493	314.65	0.31
0.9432	314.15	0.31
1	313.75	0.31

System: diisopropyl ether + dimethoxymethane; phases: Liquid, Gas
Fixed: Pressure, kPa = 95.96
Property: Boiling temperature at pressure P, K (Liquid); method: EBULLIO:UFactor:8
Mole fraction of dimethoxymethane	Boiling temperature at pressure P, K	uncertainty
0	339.95	0.31
0.0564	334.45	0.31
0.1207	330.65	0.31
0.2245	326.75	0.31
0.3545	323.55	0.31
0.4516	321.55	0.31
0.5534	319.85	0.31
0.687	317.85	0.31
0.7981	316.35	0.31
0.9081	314.85	0.31
1	313.75	0.31

System: propan-2-ol + dimethoxymethane; phases: Liquid, Gas
Fixed: Pressure, kPa = 95.96
Property: Boiling temperature at pressure P, K (Liquid); method: EBULLIO:UFactor:8
Mole fraction of dimethoxymethane	Boiling temperature at pressure P, K	uncertainty
0	354.05	0.37
0.0654	345.95	0.36
0.1294	339.55	0.36
0.271	329.35	0.35
0.3497	325.35	0.34
0.4264	322.25	0.33
0.5014	319.85	0.33
0.5723	317.95	0.33
0.6817	315.85	0.32
0.8426	314.05	0.31
0.9187	313.65	0.31
1	313.75	0.31
