Measured thermophysical data. Densities, Excess Molar Volumes, Viscosities, Speeds of Sound, Excess Isentropic Compressibilities, and Relative Permittivities for CmH2m+1(OCH2CH2)nOH (m ) 1 or 2 or 4 andn ) 1) + Benzene, + Toluene, + (o-, m-, and p-) Xylenes, + Ethylbenzene, and + Cyclohexane
Source: J. Chem. Eng. Data, 2003, 10.1021/je034005y
Compound 1: 2-methoxyethan-1-ol, C3H8O2, InChI=1S/C3H8O2/c1-5-3-2-4/h4H,2-3H2,1H3, purity 99.5%
Compound 2: 2-ethoxyethan-1-ol, C4H10O2, InChI=1S/C4H10O2/c1-2-6-4-3-5/h5H,2-4H2,1H3, purity 99.5%
Compound 3: 2-butoxyethan-1-ol, C6H14O2, InChI=1S/C6H14O2/c1-2-3-5-8-6-4-7/h7H,2-6H2,1H3, purity 99.5%
Compound 4: benzene, C6H6, InChI=1S/C6H6/c1-2-4-6-5-3-1/h1-6H
Compound 5: toluene, C7H8, InChI=1S/C7H8/c1-7-5-3-2-4-6-7/h2-6H,1H3
Compound 6: 1,2-dimethylbenzene, C8H10, InChI=1S/C8H10/c1-7-5-3-4-6-8(7)2/h3-6H,1-2H3
Compound 7: 1,3-dimethylbenzene, C8H10, InChI=1S/C8H10/c1-7-4-3-5-8(2)6-7/h3-6H,1-2H3
Compound 8: 1,4-dimethylbenzene, C8H10, InChI=1S/C8H10/c1-7-3-5-8(2)6-4-7/h3-6H,1-2H3
Compound 9: ethylbenzene, C8H10, InChI=1S/C8H10/c1-2-8-6-4-3-5-7-8/h3-7H,2H2,1H3, purity 99.5%
Compound 10: cyclohexane, C6H12, InChI=1S/C6H12/c1-2-4-6-5-3-1/h1-6H2

System: 2-methoxyethan-1-ol; phases: Liquid
Fixed: Pressure, kPa = 101.325
Property: Viscosity, Pa*s (Liquid); method: CAPTUB:UFactor:2
Temperature, K	Viscosity, Pa*s	uncertainty
298.15	0.001592	2.5e-05
308.15	0.001242	2.1e-05

System: 2-methoxyethan-1-ol; phases: Liquid
Fixed: Pressure, kPa = 101.325
Property: Speed of sound, m/s (Liquid); method: FPINT:UFactor:2
Temperature, K	Speed of sound, m/s	uncertainty
298.15	1339	2
308.15	1328	2

System: 2-methoxyethan-1-ol; phases: Liquid
Fixed: Pressure, kPa = 101.325
Property: Mass density, kg/m3 (Liquid); method: VIBTUB:UFactor:16
Temperature, K	Mass density, kg/m3	uncertainty
298.15	960.25	1
303.15	955.71	1.03
308.15	953.56	1.05
313.15	946.34	1.11

System: 2-ethoxyethan-1-ol; phases: Liquid
Fixed: Pressure, kPa = 101.325
Property: Viscosity, Pa*s (Liquid); method: CAPTUB:UFactor:2
Temperature, K	Viscosity, Pa*s	uncertainty
298.15	0.00185	2.9e-05
308.15	0.001407	2.4e-05

System: 2-ethoxyethan-1-ol; phases: Liquid
Fixed: Pressure, kPa = 101.325
Property: Speed of sound, m/s (Liquid); method: FPINT:UFactor:2
Temperature, K	Speed of sound, m/s	uncertainty
298.15	1298	2
308.15	1266	2

System: 2-ethoxyethan-1-ol; phases: Liquid
Fixed: Pressure, kPa = 101.325
Property: Mass density, kg/m3 (Liquid); method: VIBTUB:UFactor:16
Temperature, K	Mass density, kg/m3	uncertainty
298.15	925.2	1.28
303.15	921.17	1.31
308.15	917.96	1.34
313.15	911.59	1.39

System: 2-butoxyethan-1-ol; phases: Liquid
Fixed: Pressure, kPa = 101.325
Property: Viscosity, Pa*s (Liquid); method: CAPTUB:UFactor:2
Temperature, K	Viscosity, Pa*s	uncertainty
298.15	0.002782	4.3e-05
308.15	0.002206	3.5e-05

System: 2-butoxyethan-1-ol; phases: Liquid
Fixed: Pressure, kPa = 101.325
Property: Speed of sound, m/s (Liquid); method: FPINT:UFactor:2
Temperature, K	Speed of sound, m/s	uncertainty
298.15	1304	2
308.15	1285	2

System: 2-butoxyethan-1-ol; phases: Liquid
Fixed: Pressure, kPa = 101.325
Property: Mass density, kg/m3 (Liquid); method: VIBTUB:UFactor:16
Temperature, K	Mass density, kg/m3	uncertainty
298.15	896.24	1.51
303.15	892.02	1.55
308.15	888.91	1.57
313.15	883.4	1.62

System: benzene; phases: Liquid
Fixed: Pressure, kPa = 101.325
Property: Viscosity, Pa*s (Liquid); method: CAPTUB:UFactor:2
Temperature, K	Viscosity, Pa*s	uncertainty
298.15	0.000602	1.1e-05
308.15	0.000526	1e-05

System: benzene; phases: Liquid
Fixed: Pressure, kPa = 101.325
Property: Speed of sound, m/s (Liquid); method: FPINT:UFactor:2
Temperature, K	Speed of sound, m/s	uncertainty
298.15	1299	2
308.15	1260	2

System: benzene; phases: Liquid
Fixed: Pressure, kPa = 101.325
Property: Mass density, kg/m3 (Liquid); method: VIBTUB:UFactor:16
Temperature, K	Mass density, kg/m3	uncertainty
298.15	873.6	1.74
303.15	868.28	1.78
308.15	862.95	1.82
313.15	857.97	1.86

System: toluene; phases: Liquid
Fixed: Pressure, kPa = 101.325
Property: Viscosity, Pa*s (Liquid); method: CAPTUB:UFactor:2
Temperature, K	Viscosity, Pa*s	uncertainty
298.15	0.00055	1e-05
308.15	0.000498	9e-06

System: toluene; phases: Liquid
Fixed: Pressure, kPa = 101.325
Property: Speed of sound, m/s (Liquid); method: FPINT:UFactor:2
Temperature, K	Speed of sound, m/s	uncertainty
298.15	1304	2
308.15	1262	2

System: toluene; phases: Liquid
Fixed: Pressure, kPa = 101.325
Property: Mass density, kg/m3 (Liquid); method: VIBTUB:UFactor:16
Temperature, K	Mass density, kg/m3	uncertainty
298.15	862.19	1.83
303.15	857.54	1.87
308.15	852.85	1.9
313.15	848.15	1.94

System: 1,2-dimethylbenzene; phases: Liquid
Fixed: Pressure, kPa = 101.325
Property: Viscosity, Pa*s (Liquid); method: CAPTUB:UFactor:2
Temperature, K	Viscosity, Pa*s	uncertainty
298.15	0.000759	1.3e-05
308.15	0.000658	1.2e-05

System: 1,2-dimethylbenzene; phases: Liquid
Fixed: Pressure, kPa = 101.325
Property: Speed of sound, m/s (Liquid); method: FPINT:UFactor:2
Temperature, K	Speed of sound, m/s	uncertainty
298.15	1348	2
308.15	1322	2

System: 1,2-dimethylbenzene; phases: Liquid
Fixed: Pressure, kPa = 101.325
Property: Mass density, kg/m3 (Liquid); method: VIBTUB:UFactor:16
Temperature, K	Mass density, kg/m3	uncertainty
298.15	875.93	1.72
303.15	871.71	1.75
308.15	867.38	1.79
313.15	863.16	1.82

System: 1,3-dimethylbenzene; phases: Liquid
Fixed: Pressure, kPa = 101.325
Property: Viscosity, Pa*s (Liquid); method: CAPTUB:UFactor:2
Temperature, K	Viscosity, Pa*s	uncertainty
298.15	0.000582	1.1e-05
308.15	0.000499	9e-06

System: 1,3-dimethylbenzene; phases: Liquid
Fixed: Pressure, kPa = 101.325
Property: Speed of sound, m/s (Liquid); method: FPINT:UFactor:2
Temperature, K	Speed of sound, m/s	uncertainty
298.15	1320	2
308.15	1283	2

System: 1,3-dimethylbenzene; phases: Liquid
Fixed: Pressure, kPa = 101.325
Property: Mass density, kg/m3 (Liquid); method: VIBTUB:UFactor:16
Temperature, K	Mass density, kg/m3	uncertainty
298.15	859.99	1.85
303.15	855.79	1.88
308.15	851.57	1.91
313.15	846.69	1.95

System: 1,4-dimethylbenzene; phases: Liquid
Fixed: Pressure, kPa = 101.325
Property: Viscosity, Pa*s (Liquid); method: CAPTUB:UFactor:2
Temperature, K	Viscosity, Pa*s	uncertainty
298.15	0.000613	1.1e-05
308.15	0.00054	1e-05

System: 1,4-dimethylbenzene; phases: Liquid
Fixed: Pressure, kPa = 101.325
Property: Speed of sound, m/s (Liquid); method: FPINT:UFactor:2
Temperature, K	Speed of sound, m/s	uncertainty
298.15	1308	2
308.15	1276	2

System: 1,4-dimethylbenzene; phases: Liquid
Fixed: Pressure, kPa = 101.325
Property: Mass density, kg/m3 (Liquid); method: VIBTUB:UFactor:16
Temperature, K	Mass density, kg/m3	uncertainty
298.15	856.61	1.87
303.15	852.24	1.91
308.15	847.87	1.94
313.15	843.64	1.98

System: ethylbenzene; phases: Liquid
Fixed: Pressure, kPa = 101.325
Property: Viscosity, Pa*s (Liquid); method: CAPTUB:UFactor:2
Temperature, K	Viscosity, Pa*s	uncertainty
298.15	0.000638	1.1e-05
308.15	0.000534	1e-05

System: ethylbenzene; phases: Liquid
Fixed: Pressure, kPa = 101.325
Property: Speed of sound, m/s (Liquid); method: FPINT:UFactor:2
Temperature, K	Speed of sound, m/s	uncertainty
298.15	1318	2
308.15	1276	2

System: ethylbenzene; phases: Liquid
Fixed: Pressure, kPa = 101.325
Property: Mass density, kg/m3 (Liquid); method: VIBTUB:UFactor:16
Temperature, K	Mass density, kg/m3	uncertainty
298.15	862.52	1.79
303.15	858.31	1.82
308.15	854.15	1.86
313.15	849.44	1.89

System: cyclohexane; phases: Liquid
Fixed: Pressure, kPa = 101.325
Property: Viscosity, Pa*s (Liquid); method: CAPTUB:UFactor:2
Temperature, K	Viscosity, Pa*s	uncertainty
298.15	0.000898	1.5e-05
308.15	0.000749	1.3e-05

System: cyclohexane; phases: Liquid
Fixed: Pressure, kPa = 101.325
Property: Speed of sound, m/s (Liquid); method: FPINT:UFactor:2
Temperature, K	Speed of sound, m/s	uncertainty
298.15	1253	2
308.15	1212	2

System: cyclohexane; phases: Liquid
Fixed: Pressure, kPa = 101.325
Property: Mass density, kg/m3 (Liquid); method: VIBTUB:UFactor:16
Temperature, K	Mass density, kg/m3	uncertainty
298.15	773.85	2.53
303.15	768.44	2.58
308.15	764.46	2.61
313.15	759.4	2.65

System: benzene + 2-methoxyethan-1-ol; phases: Liquid
Fixed: Pressure, kPa = 101
Property: Viscosity, Pa*s (Liquid); method: CAPTUB:UFactor:2
Temperature, K	Mole fraction of 2-methoxyethan-1-ol	Viscosity, Pa*s	uncertainty
298.15	0.0543	0.000624	1.1e-05
298.15	0.1499	0.000669	1.2e-05
298.15	0.2235	0.000708	1.3e-05
298.15	0.3508	0.000788	1.4e-05
298.15	0.4496	0.000862	1.5e-05
298.15	0.4961	0.000902	1.5e-05
298.15	0.5462	0.000947	1.6e-05
298.15	0.6455	0.001049	1.8e-05
298.15	0.7524	0.00118	1.9e-05
298.15	0.8509	0.001323	2.2e-05
298.15	0.9558	0.001505	2.4e-05
308.15	0.0543	0.000541	1e-05
308.15	0.1499	0.000571	1.1e-05
308.15	0.2235	0.000598	1.1e-05
308.15	0.3508	0.000654	1.2e-05
308.15	0.4496	0.000707	1.3e-05
308.15	0.4961	0.000735	1.3e-05
308.15	0.5462	0.000768	1.3e-05
308.15	0.6455	0.000842	1.5e-05
308.15	0.7524	0.000938	1.6e-05
308.15	0.8509	0.001043	1.8e-05
308.15	0.9558	0.001177	2e-05

System: benzene + 2-methoxyethan-1-ol; phases: Liquid
Fixed: Pressure, kPa = 101
Property: Speed of sound, m/s (Liquid); method: FPINT:UFactor:2
Temperature, K	Mole fraction of 2-methoxyethan-1-ol	Speed of sound, m/s	uncertainty
298.15	0.0543	1294	2
298.15	0.1499	1290	2
298.15	0.2235	1289	2
298.15	0.3508	1291	2
298.15	0.4496	1295	2
298.15	0.4961	1297	2
298.15	0.5462	1300	2
298.15	0.6455	1306	2
298.15	0.7524	1314	2
298.15	0.8509	1323	2
298.15	0.9558	1334	2
308.15	0.0543	1258	2
308.15	0.1499	1256	2
308.15	0.2235	1256	2
308.15	0.3508	1258	2
308.15	0.4496	1263	2
308.15	0.4961	1265	2
308.15	0.5462	1269	2
308.15	0.6455	1277	2
308.15	0.7524	1289	2
308.15	0.8509	1302	2
308.15	0.9558	1319	2

System: benzene + 2-methoxyethan-1-ol; phases: Liquid
Fixed: Pressure, kPa = 101
Property: Mass density, kg/m3 (Liquid); method: VIBTUB:UFactor:16
Temperature, K	Mole fraction of 2-methoxyethan-1-ol	Mass density, kg/m3	uncertainty
298.15	0.0543	877.11	1.69
298.15	0.1499	883.76	1.63
298.15	0.2235	889.28	1.59
298.15	0.3508	899.62	1.5
298.15	0.4496	908.25	1.43
298.15	0.4961	912.47	1.39
298.15	0.5462	917.12	1.35
298.15	0.6455	926.55	1.27
298.15	0.7524	936.89	1.19
298.15	0.8509	946.4	1.11
298.15	0.9558	956.26	1.03
303.15	0.0543	871.63	1.73
303.15	0.1499	878.21	1.68
303.15	0.2235	883.78	1.63
303.15	0.3508	894.22	1.54
303.15	0.4496	902.86	1.47
303.15	0.4961	907.05	1.43
303.15	0.5462	911.64	1.4
303.15	0.6455	920.92	1.32
303.15	0.7524	931.12	1.23
303.15	0.8509	940.7	1.15
303.15	0.9558	951.11	1.07
308.15	0.0543	866.32	1.77
308.15	0.1499	873.02	1.72
308.15	0.2235	878.73	1.67
308.15	0.3508	889.54	1.58
308.15	0.4496	898.52	1.5
308.15	0.4961	902.89	1.47
308.15	0.5462	907.68	1.43
308.15	0.6455	917.36	1.35
308.15	0.7524	928.02	1.26
308.15	0.8509	938.03	1.17
308.15	0.9558	948.89	1.08
313.15	0.0543	861.18	1.81
313.15	0.1499	867.61	1.76
313.15	0.2235	873.12	1.71
313.15	0.3508	883.55	1.62
313.15	0.4496	892.23	1.55
313.15	0.4961	896.45	1.52
313.15	0.5462	901.09	1.48
313.15	0.6455	910.48	1.4
313.15	0.7524	920.89	1.31
313.15	0.8509	930.74	1.23
313.15	0.9558	941.61	1.14

System: toluene + 2-methoxyethan-1-ol; phases: Liquid
Fixed: Pressure, kPa = 101
Property: Viscosity, Pa*s (Liquid); method: CAPTUB:UFactor:2
Temperature, K	Mole fraction of 2-methoxyethan-1-ol	Viscosity, Pa*s	uncertainty
298.15	0.0586	0.000571	1e-05
298.15	0.1696	0.000617	1.1e-05
298.15	0.2421	0.000654	1.2e-05
298.15	0.3513	0.000719	1.3e-05
298.15	0.4555	0.000796	1.4e-05
298.15	0.4987	0.000833	1.4e-05
298.15	0.5515	0.000882	1.5e-05
298.15	0.6515	0.00099	1.7e-05
298.15	0.7487	0.001118	1.8e-05
298.15	0.8495	0.001279	2.1e-05
298.15	0.9558	0.00149	2.4e-05
308.15	0.0586	0.000512	1e-05
308.15	0.1696	0.000545	1e-05
308.15	0.2421	0.000571	1e-05
308.15	0.3513	0.000618	1.1e-05
308.15	0.4555	0.000674	1.2e-05
308.15	0.4987	0.0007	1.2e-05
308.15	0.5515	0.000736	1.3e-05
308.15	0.6515	0.000814	1.4e-05
308.15	0.7487	0.000905	1.5e-05
308.15	0.8495	0.001021	1.7e-05
308.15	0.9558	0.00117	2e-05

System: toluene + 2-methoxyethan-1-ol; phases: Liquid
Fixed: Pressure, kPa = 101
Property: Speed of sound, m/s (Liquid); method: FPINT:UFactor:2
Temperature, K	Mole fraction of 2-methoxyethan-1-ol	Speed of sound, m/s	uncertainty
298.15	0.0586	1300	2
298.15	0.1696	1296	2
298.15	0.2421	1296	2
298.15	0.3513	1298	2
298.15	0.4555	1302	2
298.15	0.4987	1304	2
298.15	0.5515	1306	2
298.15	0.6515	1312	2
298.15	0.7487	1317	2
298.15	0.8495	1325	2
298.15	0.9558	1334	2
308.15	0.0586	1261	2
308.15	0.1696	1260	2
308.15	0.2421	1260	2
308.15	0.3513	1261	2
308.15	0.4555	1265	2
308.15	0.4987	1266	2
308.15	0.5515	1269	2
308.15	0.6515	1277	2
308.15	0.7487	1287	2
308.15	0.8495	1300	2
308.15	0.9558	1317	2

System: toluene + 2-methoxyethan-1-ol; phases: Liquid
Fixed: Pressure, kPa = 101
Property: Mass density, kg/m3 (Liquid); method: VIBTUB:UFactor:16
Temperature, K	Mole fraction of 2-methoxyethan-1-ol	Mass density, kg/m3	uncertainty
298.15	0.0586	866.02	1.77
298.15	0.1696	873.92	1.71
298.15	0.2421	879.54	1.66
298.15	0.3513	888.69	1.58
298.15	0.4555	898.18	1.51
298.15	0.4987	902.34	1.47
298.15	0.5515	907.6	1.43
298.15	0.6515	918.1	1.34
298.15	0.7487	928.97	1.25
298.15	0.8495	940.97	1.15
298.15	0.9558	954.41	1.04
303.15	0.0586	861.22	1.81
303.15	0.1696	868.96	1.75
303.15	0.2421	874.53	1.7
303.15	0.3513	883.68	1.62
303.15	0.4555	893.2	1.54
303.15	0.4987	897.37	1.51
303.15	0.5515	902.64	1.47
303.15	0.6515	913.16	1.38
303.15	0.7487	924.06	1.29
303.15	0.8495	936.09	1.19
303.15	0.9558	949.65	1.08
308.15	0.0586	856.54	1.85
308.15	0.1696	864.38	1.78
308.15	0.2421	870.06	1.73
308.15	0.3513	879.42	1.66
308.15	0.4555	889.2	1.58
308.15	0.4987	893.5	1.54
308.15	0.5515	898.93	1.49
308.15	0.6515	909.77	1.4
308.15	0.7487	921.02	1.31
308.15	0.8495	933.44	1.21
308.15	0.9558	947.44	1.09
313.15	0.0586	851.74	1.89
313.15	0.1696	859.29	1.82
313.15	0.2421	864.75	1.78
313.15	0.3513	873.72	1.7
313.15	0.4555	883.12	1.62
313.15	0.4987	887.26	1.59
313.15	0.5515	892.5	1.55
313.15	0.6515	903.02	1.46
313.15	0.7487	914.01	1.37
313.15	0.8495	926.26	1.27
313.15	0.9558	940.2	1.15

System: 1,2-dimethylbenzene + 2-methoxyethan-1-ol; phases: Liquid
Fixed: Pressure, kPa = 101
Property: Viscosity, Pa*s (Liquid); method: CAPTUB:UFactor:2
Temperature, K	Mole fraction of 2-methoxyethan-1-ol	Viscosity, Pa*s	uncertainty
298.15	0.0517	0.000769	1.3e-05
298.15	0.1491	0.000795	1.4e-05
298.15	0.2491	0.00083	1.4e-05
298.15	0.3509	0.000877	1.5e-05
298.15	0.4485	0.000934	1.6e-05
298.15	0.4919	0.000963	1.6e-05
298.15	0.5537	0.001009	1.7e-05
298.15	0.6432	0.001088	1.8e-05
298.15	0.7525	0.001206	2e-05
298.15	0.8492	0.001334	2.2e-05
298.15	0.9547	0.001506	2.4e-05
308.15	0.0517	0.000666	1.2e-05
308.15	0.1491	0.000686	1.2e-05
308.15	0.2491	0.000714	1.3e-05
308.15	0.3509	0.000749	1.3e-05
308.15	0.4485	0.00079	1.4e-05
308.15	0.4919	0.000811	1.4e-05
308.15	0.5537	0.000845	1.4e-05
308.15	0.6432	0.000901	1.5e-05
308.15	0.7525	0.000983	1.7e-05
308.15	0.8492	0.00107	1.8e-05
308.15	0.9547	0.001185	2e-05

System: 1,2-dimethylbenzene + 2-methoxyethan-1-ol; phases: Liquid
Fixed: Pressure, kPa = 101
Property: Speed of sound, m/s (Liquid); method: FPINT:UFactor:2
Temperature, K	Mole fraction of 2-methoxyethan-1-ol	Speed of sound, m/s	uncertainty
298.15	0.0517	1342	2
298.15	0.1491	1337	2
298.15	0.2491	1333	2
298.15	0.3509	1330	2
298.15	0.4485	1328	2
298.15	0.4919	1328	2
298.15	0.5537	1328	2
298.15	0.6432	1329	2
298.15	0.7525	1331	2
298.15	0.8492	1333	2
298.15	0.9547	1337	2
308.15	0.0517	1314	2
308.15	0.1491	1303	2
308.15	0.2491	1298	2
308.15	0.3509	1295	2
308.15	0.4485	1295	2
308.15	0.4919	1295	2
308.15	0.5537	1295	2
308.15	0.6432	1297	2
308.15	0.7525	1301	2
308.15	0.8492	1308	2
308.15	0.9547	1320	2

System: 1,2-dimethylbenzene + 2-methoxyethan-1-ol; phases: Liquid
Fixed: Pressure, kPa = 101
Property: Mass density, kg/m3 (Liquid); method: VIBTUB:UFactor:16
Temperature, K	Mole fraction of 2-methoxyethan-1-ol	Mass density, kg/m3	uncertainty
298.15	0.0517	877.85	1.68
298.15	0.1491	882.3	1.64
298.15	0.2491	887.92	1.6
298.15	0.3509	894.66	1.54
298.15	0.4485	902.02	1.48
298.15	0.4919	905.58	1.45
298.15	0.5537	910.92	1.4
298.15	0.6432	919.25	1.33
298.15	0.7525	930.41	1.24
298.15	0.8492	941.25	1.15
298.15	0.9547	954.25	1.04
303.15	0.0517	873.31	1.72
303.15	0.1491	877.45	1.68
303.15	0.2491	882.99	1.63
303.15	0.3509	889.79	1.58
303.15	0.4485	897.23	1.51
303.15	0.4919	900.8	1.48
303.15	0.5537	906.15	1.44
303.15	0.6432	914.44	1.37
303.15	0.7525	925.48	1.28
303.15	0.8492	936.23	1.19
303.15	0.9547	949.36	1.08
308.15	0.0517	869.04	1.75
308.15	0.1491	873.23	1.71
308.15	0.2491	878.8	1.67
308.15	0.3509	885.63	1.61
308.15	0.4485	893.14	1.54
308.15	0.4919	896.77	1.51
308.15	0.5537	902.22	1.47
308.15	0.6432	910.72	1.4
308.15	0.7525	922.15	1.3
308.15	0.8492	933.36	1.21
308.15	0.9547	947.07	1.1
313.15	0.0517	864.67	1.79
313.15	0.1491	868.58	1.75
313.15	0.2491	873.86	1.7
313.15	0.3509	880.35	1.65
313.15	0.4485	887.49	1.59
313.15	0.4919	890.93	1.56
313.15	0.5537	896.11	1.52
313.15	0.6432	904.2	1.45
313.15	0.7525	915.16	1.36
313.15	0.8492	926.06	1.27
313.15	0.9547	939.73	1.16

System: 1,3-dimethylbenzene + 2-methoxyethan-1-ol; phases: Liquid
Fixed: Pressure, kPa = 101
Property: Viscosity, Pa*s (Liquid); method: CAPTUB:UFactor:2
Temperature, K	Mole fraction of 2-methoxyethan-1-ol	Viscosity, Pa*s	uncertainty
298.15	0.0519	0.000598	1.1e-05
298.15	0.1498	0.000635	1.1e-05
298.15	0.2504	0.000681	1.2e-05
298.15	0.3476	0.000737	1.3e-05
298.15	0.452	0.00081	1.4e-05
298.15	0.4991	0.000848	1.4e-05
298.15	0.5538	0.000897	1.5e-05
298.15	0.6476	0.000996	1.7e-05
298.15	0.7504	0.001127	1.9e-05
298.15	0.8491	0.001282	2.1e-05
298.15	0.9558	0.001491	2.4e-05
308.15	0.0519	0.000513	1e-05
308.15	0.1498	0.000543	1e-05
308.15	0.2504	0.00058	1.1e-05
308.15	0.3476	0.000624	1.1e-05
308.15	0.452	0.00068	1.2e-05
308.15	0.4991	0.000709	1.3e-05
308.15	0.5538	0.000746	1.3e-05
308.15	0.6476	0.000819	1.4e-05
308.15	0.7504	0.000915	1.6e-05
308.15	0.8491	0.001026	1.7e-05
308.15	0.9558	0.001172	2e-05

System: 1,3-dimethylbenzene + 2-methoxyethan-1-ol; phases: Liquid
Fixed: Pressure, kPa = 101
Property: Speed of sound, m/s (Liquid); method: FPINT:UFactor:2
Temperature, K	Mole fraction of 2-methoxyethan-1-ol	Speed of sound, m/s	uncertainty
298.15	0.0519	1317	2
298.15	0.1498	1312	2
298.15	0.2504	1309	2
298.15	0.3476	1309	2
298.15	0.452	1310	2
298.15	0.4991	1311	2
298.15	0.5538	1312	2
298.15	0.6476	1316	2
298.15	0.7504	1321	2
298.15	0.8491	1327	2
298.15	0.9558	1335	2
308.15	0.0519	1279	2
308.15	0.1498	1275	2
308.15	0.2504	1273	2
308.15	0.3476	1273	2
308.15	0.452	1275	2
308.15	0.4991	1277	2
308.15	0.5538	1279	2
308.15	0.6476	1285	2
308.15	0.7504	1293	2
308.15	0.8491	1304	2
308.15	0.9558	1320	2

System: 1,3-dimethylbenzene + 2-methoxyethan-1-ol; phases: Liquid
Fixed: Pressure, kPa = 101
Property: Mass density, kg/m3 (Liquid); method: VIBTUB:UFactor:16
Temperature, K	Mole fraction of 2-methoxyethan-1-ol	Mass density, kg/m3	uncertainty
298.15	0.0519	862.4	1.8
298.15	0.1498	867.96	1.76
298.15	0.2504	874.92	1.7
298.15	0.3476	882.7	1.63
298.15	0.452	892.1	1.55
298.15	0.4991	896.68	1.51
298.15	0.5538	902.24	1.47
298.15	0.6476	912.44	1.38
298.15	0.7504	924.64	1.28
298.15	0.8491	937.54	1.18
298.15	0.9558	953.14	1.05
303.15	0.0519	857.98	1.84
303.15	0.1498	863.28	1.79
303.15	0.2504	870.13	1.73
303.15	0.3476	877.91	1.67
303.15	0.452	887.36	1.59
303.15	0.4991	891.97	1.55
303.15	0.5538	897.57	1.5
303.15	0.6476	907.82	1.42
303.15	0.7504	920.03	1.32
303.15	0.8491	932.9	1.21
303.15	0.9558	948.47	1.09
308.15	0.0519	853.64	1.87
308.15	0.1498	858.88	1.83
308.15	0.2504	865.82	1.77
308.15	0.3476	873.78	1.7
308.15	0.452	883.47	1.62
308.15	0.4991	888.19	1.58
308.15	0.5538	893.92	1.53
308.15	0.6476	904.38	1.45
308.15	0.7504	916.84	1.34
308.15	0.8491	930.02	1.24
308.15	0.9558	946.12	1.1
313.15	0.0519	848.65	1.91
313.15	0.1498	853.65	1.87
313.15	0.2504	860.3	1.81
313.15	0.3476	867.96	1.75
313.15	0.452	877.33	1.67
313.15	0.4991	881.91	1.63
313.15	0.5538	887.49	1.58
313.15	0.6476	897.71	1.5
313.15	0.7504	909.96	1.4
313.15	0.8491	922.98	1.29
313.15	0.9558	938.95	1.16

System: 1,4-dimethylbenzene + 2-methoxyethan-1-ol; phases: Liquid
Fixed: Pressure, kPa = 101
Property: Viscosity, Pa*s (Liquid); method: CAPTUB:UFactor:2
Temperature, K	Mole fraction of 2-methoxyethan-1-ol	Viscosity, Pa*s	uncertainty
298.15	0.0528	0.000626	1.1e-05
298.15	0.1469	0.000654	1.2e-05
298.15	0.2507	0.000696	1.2e-05
298.15	0.3484	0.000746	1.3e-05
298.15	0.4499	0.000812	1.4e-05
298.15	0.4999	0.00085	1.4e-05
298.15	0.5542	0.000897	1.5e-05
298.15	0.6493	0.000994	1.7e-05
298.15	0.7508	0.001122	1.8e-05
298.15	0.8478	0.001274	2.1e-05
298.15	0.9556	0.001488	2.4e-05
308.15	0.0528	0.000549	1e-05
308.15	0.1469	0.00057	1e-05
308.15	0.2507	0.000601	1.1e-05
308.15	0.3484	0.000639	1.1e-05
308.15	0.4499	0.000688	1.2e-05
308.15	0.4999	0.000716	1.3e-05
308.15	0.5542	0.00075	1.3e-05
308.15	0.6493	0.00082	1.4e-05
308.15	0.7508	0.000913	1.6e-05
308.15	0.8478	0.001021	1.7e-05
308.15	0.9556	0.00117	2e-05

System: 1,4-dimethylbenzene + 2-methoxyethan-1-ol; phases: Liquid
Fixed: Pressure, kPa = 101
Property: Speed of sound, m/s (Liquid); method: FPINT:UFactor:2
Temperature, K	Mole fraction of 2-methoxyethan-1-ol	Speed of sound, m/s	uncertainty
298.15	0.0528	1306	2
298.15	0.1469	1303	2
298.15	0.2507	1302	2
298.15	0.3484	1302	2
298.15	0.4499	1304	2
298.15	0.4999	1305	2
298.15	0.5542	1306	2
298.15	0.6493	1310	2
298.15	0.7508	1315	2
298.15	0.8478	1323	2
298.15	0.9556	1333	2
308.15	0.0528	1273	2
308.15	0.1469	1270	2
308.15	0.2507	1268	2
308.15	0.3484	1269	2
308.15	0.4499	1270	2
308.15	0.4999	1272	2
308.15	0.5542	1273	2
308.15	0.6493	1278	2
308.15	0.7508	1285	2
308.15	0.8478	1297	2
308.15	0.9556	1317	2

System: 1,4-dimethylbenzene + 2-methoxyethan-1-ol; phases: Liquid
Fixed: Pressure, kPa = 101
Property: Mass density, kg/m3 (Liquid); method: VIBTUB:UFactor:32
Temperature, K	Mole fraction of 2-methoxyethan-1-ol	Mass density, kg/m3	uncertainty
298.15	0.0528	859.41	3.58
298.15	0.1469	865.14	3.48
298.15	0.2507	872.58	3.36
298.15	0.3484	880.62	3.23
298.15	0.4499	890.02	3.08
298.15	0.4999	895.04	3
298.15	0.5542	900.79	2.9
298.15	0.6493	911.61	2.73
298.15	0.7508	924.23	2.52
298.15	0.8478	937.37	2.31
298.15	0.9556	953.27	2.05
303.15	0.0528	854.99	3.65
303.15	0.1469	860.67	3.55
303.15	0.2507	868.04	3.43
303.15	0.3484	876.02	3.3
303.15	0.4499	885.38	3.15
303.15	0.4999	890.38	3.07
303.15	0.5542	896.12	2.98
303.15	0.6493	906.92	2.8
303.15	0.7508	919.53	2.6
303.15	0.8478	932.67	2.38
303.15	0.9556	948.59	2.13
308.15	0.0528	850.64	3.72
308.15	0.1469	856.36	3.62
308.15	0.2507	863.8	3.5
308.15	0.3484	871.86	3.37
308.15	0.4499	881.33	3.22
308.15	0.4999	886.41	3.13
308.15	0.5542	892.23	3.04
308.15	0.6493	903.22	2.86
308.15	0.7508	916.11	2.65
308.15	0.8478	929.64	2.43
308.15	0.9556	946.21	2.16
313.15	0.0528	846.26	3.79
313.15	0.1469	851.72	3.7
313.15	0.2507	858.87	3.58
313.15	0.3484	866.67	3.45
313.15	0.4499	875.86	3.3
313.15	0.4999	880.79	3.22
313.15	0.5542	886.45	3.13
313.15	0.6493	897.16	2.96
313.15	0.7508	909.74	2.75
313.15	0.8478	922.96	2.54
313.15	0.9556	939.16	2.28

System: ethylbenzene + 2-methoxyethan-1-ol; phases: Liquid
Fixed: Pressure, kPa = 101
Property: Viscosity, Pa*s (Liquid); method: CAPTUB:UFactor:2
Temperature, K	Mole fraction of 2-methoxyethan-1-ol	Viscosity, Pa*s	uncertainty
298.15	0.0558	0.00065	1.1e-05
298.15	0.1525	0.000679	1.2e-05
298.15	0.2511	0.000717	1.2e-05
298.15	0.3504	0.000766	1.3e-05
298.15	0.4525	0.000831	1.4e-05
298.15	0.5021	0.000869	1.5e-05
298.15	0.5522	0.000911	1.5e-05
298.15	0.6499	0.001008	1.7e-05
298.15	0.75	0.001131	1.8e-05
298.15	0.853	0.001291	2.1e-05
298.15	0.9546	0.001488	2.4e-05
308.15	0.0558	0.000548	1e-05
308.15	0.1525	0.000577	1e-05
308.15	0.2511	0.000612	1.1e-05
308.15	0.3504	0.000655	1.1e-05
308.15	0.4525	0.000708	1.2e-05
308.15	0.5021	0.000738	1.3e-05
308.15	0.5522	0.000771	1.3e-05
308.15	0.6499	0.000844	1.4e-05
308.15	0.75	0.000933	1.6e-05
308.15	0.853	0.001043	1.7e-05
308.15	0.9546	0.001175	2e-05

System: ethylbenzene + 2-methoxyethan-1-ol; phases: Liquid
Fixed: Pressure, kPa = 101
Property: Speed of sound, m/s (Liquid); method: FPINT:UFactor:2
Temperature, K	Mole fraction of 2-methoxyethan-1-ol	Speed of sound, m/s	uncertainty
298.15	0.0558	1317	2
298.15	0.1525	1317	2
298.15	0.2511	1318	2
298.15	0.3504	1321	2
298.15	0.4525	1324	2
298.15	0.5021	1326	2
298.15	0.5522	1328	2
298.15	0.6499	1331	2
298.15	0.75	1335	2
298.15	0.853	1338	2
298.15	0.9546	1339	2
308.15	0.0558	1273	2
308.15	0.1525	1269	2
308.15	0.2511	1269	2
308.15	0.3504	1269	2
308.15	0.4525	1271	2
308.15	0.5021	1273	2
308.15	0.5522	1274	2
308.15	0.6499	1279	2
308.15	0.75	1286	2
308.15	0.853	1298	2
308.15	0.9546	1317	2

System: ethylbenzene + 2-methoxyethan-1-ol; phases: Liquid
Fixed: Pressure, kPa = 101
Property: Mass density, kg/m3 (Liquid); method: VIBTUB:UFactor:16
Temperature, K	Mole fraction of 2-methoxyethan-1-ol	Mass density, kg/m3	uncertainty
298.15	0.0558	865.14	1.74
298.15	0.1525	870.63	1.7
298.15	0.2511	877.35	1.65
298.15	0.3504	885.12	1.58
298.15	0.4525	894.08	1.51
298.15	0.5021	898.77	1.48
298.15	0.5522	903.72	1.44
298.15	0.6499	914.04	1.36
298.15	0.75	925.58	1.26
298.15	0.853	938.68	1.16
298.15	0.9546	953.16	1.05
303.15	0.0558	860.77	1.78
303.15	0.1525	866.09	1.74
303.15	0.2511	872.71	1.68
303.15	0.3504	880.46	1.62
303.15	0.4525	889.43	1.55
303.15	0.5021	894.13	1.51
303.15	0.5522	899.1	1.47
303.15	0.6499	909.44	1.39
303.15	0.75	920.99	1.3
303.15	0.853	934.07	1.2
303.15	0.9546	948.49	1.08
308.15	0.0558	856.53	1.81
308.15	0.1525	861.8	1.77
308.15	0.2511	868.48	1.72
308.15	0.3504	876.36	1.65
308.15	0.4525	885.52	1.58
308.15	0.5021	890.33	1.54
308.15	0.5522	895.42	1.5
308.15	0.6499	906.01	1.42
308.15	0.75	917.85	1.33
308.15	0.853	931.3	1.22
308.15	0.9546	946.21	1.1
313.15	0.0558	851.73	1.85
313.15	0.1525	856.78	1.81
313.15	0.2511	863.19	1.76
313.15	0.3504	870.77	1.7
313.15	0.4525	879.62	1.63
313.15	0.5021	884.28	1.59
313.15	0.5522	889.23	1.55
313.15	0.6499	899.57	1.47
313.15	0.75	911.18	1.38
313.15	0.853	924.42	1.27
313.15	0.9546	939.11	1.16

System: 2-methoxyethan-1-ol + cyclohexane; phases: Liquid
Fixed: Pressure, kPa = 101
Property: Viscosity, Pa*s (Liquid); method: CAPTUB:UFactor:2
Temperature, K	Mole fraction of 2-methoxyethan-1-ol	Viscosity, Pa*s	uncertainty
298.15	0.054	0.000905	1.6e-05
298.15	0.1506	0.000923	1.6e-05
298.15	0.2513	0.00095	1.6e-05
298.15	0.3532	0.000989	1.7e-05
298.15	0.4508	0.001037	1.7e-05
298.15	0.4955	0.001062	1.8e-05
298.15	0.5513	0.001098	1.8e-05
298.15	0.649	0.001172	1.9e-05
298.15	0.7493	0.001264	2.1e-05
298.15	0.8496	0.001377	2.2e-05
298.15	0.9529	0.001518	2.4e-05
308.15	0.054	0.00075	1.3e-05
308.15	0.1506	0.000757	1.3e-05
308.15	0.2513	0.000773	1.4e-05
308.15	0.3532	0.000797	1.4e-05
308.15	0.4508	0.000829	1.5e-05
308.15	0.4955	0.000847	1.5e-05
308.15	0.5513	0.000873	1.5e-05
308.15	0.649	0.000926	1.6e-05
308.15	0.7493	0.000994	1.7e-05
308.15	0.8496	0.001079	1.8e-05
308.15	0.9529	0.001185	2e-05

System: 2-methoxyethan-1-ol + cyclohexane; phases: Liquid
Fixed: Pressure, kPa = 101
Property: Speed of sound, m/s (Liquid); method: FPINT:UFactor:2
Temperature, K	Mole fraction of 2-methoxyethan-1-ol	Speed of sound, m/s	uncertainty
298.15	0.054	1249	2
298.15	0.1506	1240	2
298.15	0.2513	1237	2
298.15	0.3532	1234	2
298.15	0.4508	1236	2
298.15	0.4955	1239	2
298.15	0.5513	1244	2
298.15	0.649	1256	2
298.15	0.7493	1274	2
298.15	0.8496	1295	2
298.15	0.9529	1325	2
308.15	0.054	1205	2
308.15	0.1506	1194	2
308.15	0.2513	1195	2
308.15	0.3532	1196	2
308.15	0.4508	1200	2
308.15	0.4955	1203	2
308.15	0.5513	1207	2
308.15	0.649	1218	2
308.15	0.7493	1236	2
308.15	0.8496	1250	2
308.15	0.9529	1303	2

System: 2-methoxyethan-1-ol + cyclohexane; phases: Liquid
Fixed: Pressure, kPa = 101
Property: Mass density, kg/m3 (Liquid); method: VIBTUB:UFactor:16
Temperature, K	Mole fraction of 2-methoxyethan-1-ol	Mass density, kg/m3	uncertainty
298.15	0.054	779.6	2.45
298.15	0.1506	791.26	2.36
298.15	0.2513	804.98	2.25
298.15	0.3532	820.23	2.12
298.15	0.4508	836.01	1.99
298.15	0.4955	843.61	1.93
298.15	0.5513	853.47	1.85
298.15	0.649	871.88	1.7
298.15	0.7493	892.72	1.53
298.15	0.8496	916.39	1.34
298.15	0.9529	945.13	1.11
303.15	0.054	774.21	2.49
303.15	0.1506	785.84	2.4
303.15	0.2513	799.48	2.29
303.15	0.3532	814.65	2.17
303.15	0.4508	830.4	2.04
303.15	0.4955	838.01	1.98
303.15	0.5513	847.91	1.9
303.15	0.649	866.44	1.75
303.15	0.7493	887.49	1.58
303.15	0.8496	911.41	1.38
303.15	0.9529	940.38	1.15
308.15	0.054	770.01	2.53
308.15	0.1506	781.46	2.43
308.15	0.2513	795.15	2.32
308.15	0.3532	810.51	2.2
308.15	0.4508	826.48	2.07
308.15	0.4955	834.21	2.01
308.15	0.5513	844.24	1.93
308.15	0.649	862.98	1.77
308.15	0.7493	884.25	1.6
308.15	0.8496	908.47	1.41
308.15	0.9529	937.97	1.17
313.15	0.054	764.53	2.57
313.15	0.1506	775.56	2.48
313.15	0.2513	789.09	2.37
313.15	0.3532	804.43	2.25
313.15	0.4508	820.39	2.12
313.15	0.4955	828.08	2.06
313.15	0.5513	838.04	1.98
313.15	0.649	856.55	1.82
313.15	0.7493	877.48	1.66
313.15	0.8496	901.33	1.46
313.15	0.9529	930.66	1.23

System: benzene + 2-ethoxyethan-1-ol; phases: Liquid
Fixed: Pressure, kPa = 101
Property: Viscosity, Pa*s (Liquid); method: CAPTUB:UFactor:2
Temperature, K	Mole fraction of 2-ethoxyethan-1-ol	Viscosity, Pa*s	uncertainty
298.15	0.0585	0.000632	1.1e-05
298.15	0.1533	0.000686	1.2e-05
298.15	0.2518	0.000752	1.3e-05
298.15	0.3637	0.000841	1.4e-05
298.15	0.4521	0.000923	1.6e-05
298.15	0.5048	0.000979	1.6e-05
298.15	0.5525	0.001034	1.7e-05
298.15	0.6521	0.001164	1.9e-05
298.15	0.7508	0.001317	2.2e-05
298.15	0.8521	0.001505	2.4e-05
298.15	0.9547	0.001734	2.8e-05
308.15	0.0585	0.000548	1e-05
308.15	0.1533	0.000587	1.1e-05
308.15	0.2518	0.000635	1.1e-05
308.15	0.3637	0.0007	1.2e-05
308.15	0.4521	0.00076	1.3e-05
308.15	0.5048	0.0008	1.4e-05
308.15	0.5525	0.000839	1.5e-05
308.15	0.6521	0.000931	1.6e-05
308.15	0.7508	0.001039	1.8e-05
308.15	0.8521	0.00117	2e-05
308.15	0.9547	0.001328	2.2e-05

System: benzene + 2-ethoxyethan-1-ol; phases: Liquid
Fixed: Pressure, kPa = 101
Property: Speed of sound, m/s (Liquid); method: FPINT:UFactor:2
Temperature, K	Mole fraction of 2-ethoxyethan-1-ol	Speed of sound, m/s	uncertainty
298.15	0.0585	1292	2
298.15	0.1533	1285	2
298.15	0.2518	1281	2
298.15	0.3637	1282	2
298.15	0.4521	1285	2
298.15	0.5048	1287	2
298.15	0.5525	1289	2
298.15	0.6521	1294	2
298.15	0.7508	1299	2
298.15	0.8521	1301	2
298.15	0.9547	1300	2
308.15	0.0585	1258	2
308.15	0.1533	1255	2
308.15	0.2518	1252	2
308.15	0.3637	1250	2
308.15	0.4521	1250	2
308.15	0.5048	1250	2
308.15	0.5525	1251	2
308.15	0.6521	1254	2
308.15	0.7508	1257	2
308.15	0.8521	1261	2
308.15	0.9547	1265	2

System: benzene + 2-ethoxyethan-1-ol; phases: Liquid
Fixed: Pressure, kPa = 101
Property: Mass density, kg/m3 (Liquid); method: VIBTUB:UFactor:16
Temperature, K	Mole fraction of 2-ethoxyethan-1-ol	Mass density, kg/m3	uncertainty
298.15	0.0585	875.67	1.7
298.15	0.1533	879.82	1.66
298.15	0.2518	884.9	1.62
298.15	0.3637	891.24	1.56
298.15	0.4521	896.46	1.52
298.15	0.5048	899.57	1.49
298.15	0.5525	902.38	1.47
298.15	0.6521	908.09	1.42
298.15	0.7508	913.45	1.37
298.15	0.8521	918.56	1.33
298.15	0.9547	923.27	1.28
303.15	0.0585	870.69	1.74
303.15	0.1533	875.37	1.7
303.15	0.2518	880.92	1.65
303.15	0.3637	887.65	1.59
303.15	0.4521	893.03	1.54
303.15	0.5048	896.19	1.52
303.15	0.5525	899	1.49
303.15	0.6521	904.62	1.44
303.15	0.7508	909.81	1.4
303.15	0.8521	914.71	1.36
303.15	0.9547	919.26	1.32
308.15	0.0585	865.67	1.78
308.15	0.1533	870.76	1.73
308.15	0.2518	876.66	1.68
308.15	0.3637	883.7	1.62
308.15	0.4521	889.27	1.57
308.15	0.5048	892.53	1.55
308.15	0.5525	895.41	1.52
308.15	0.6521	901.17	1.47
308.15	0.7508	906.45	1.43
308.15	0.8521	911.43	1.38
308.15	0.9547	916.04	1.34
313.15	0.0585	860.78	1.82
313.15	0.1533	865.96	1.77
313.15	0.2518	871.86	1.72
313.15	0.3637	878.82	1.66
313.15	0.4521	884.27	1.61
313.15	0.5048	887.44	1.59
313.15	0.5525	890.23	1.56
313.15	0.6521	895.76	1.51
313.15	0.7508	900.8	1.47
313.15	0.8521	905.49	1.43
313.15	0.9547	909.8	1.39

System: toluene + 2-ethoxyethan-1-ol; phases: Liquid
Fixed: Pressure, kPa = 101
Property: Viscosity, Pa*s (Liquid); method: CAPTUB:UFactor:2
Temperature, K	Mole fraction of 2-ethoxyethan-1-ol	Viscosity, Pa*s	uncertainty
298.15	0.056	0.000576	1.1e-05
298.15	0.1494	0.000627	1.1e-05
298.15	0.2493	0.00069	1.2e-05
298.15	0.3539	0.000771	1.3e-05
298.15	0.449	0.000859	1.5e-05
298.15	0.5019	0.000915	1.5e-05
298.15	0.5488	0.000969	1.6e-05
298.15	0.6514	0.001107	1.8e-05
298.15	0.7465	0.001261	2.1e-05
298.15	0.8514	0.001468	2.4e-05
298.15	0.9527	0.001716	2.7e-05
308.15	0.056	0.000517	1e-05
308.15	0.1494	0.000554	1e-05
308.15	0.2493	0.000601	1.1e-05
308.15	0.3539	0.00066	1.2e-05
308.15	0.449	0.000723	1.3e-05
308.15	0.5019	0.000763	1.3e-05
308.15	0.5488	0.000802	1.4e-05
308.15	0.6514	0.000899	1.5e-05
308.15	0.7465	0.001007	1.7e-05
308.15	0.8514	0.001149	1.9e-05
308.15	0.9527	0.001317	2.2e-05

System: toluene + 2-ethoxyethan-1-ol; phases: Liquid
Fixed: Pressure, kPa = 101
Property: Speed of sound, m/s (Liquid); method: FPINT:UFactor:2
Temperature, K	Mole fraction of 2-ethoxyethan-1-ol	Speed of sound, m/s	uncertainty
298.15	0.056	1299	2
298.15	0.1494	1294	2
298.15	0.2493	1292	2
298.15	0.3539	1292	2
298.15	0.449	1294	2
298.15	0.5019	1295	2
298.15	0.5488	1296	2
298.15	0.6514	1299	2
298.15	0.7465	1301	2
298.15	0.8514	1301	2
298.15	0.9527	1300	2
308.15	0.056	1258	2
308.15	0.1494	1255	2
308.15	0.2493	1253	2
308.15	0.3539	1254	2
308.15	0.449	1256	2
308.15	0.5019	1257	2
308.15	0.5488	1258	2
308.15	0.6514	1260	2
308.15	0.7465	1262	2
308.15	0.8514	1263	2
308.15	0.9527	1265	2

System: toluene + 2-ethoxyethan-1-ol; phases: Liquid
Fixed: Pressure, kPa = 101
Property: Mass density, kg/m3 (Liquid); method: VIBTUB:UFactor:32
Temperature, K	Mole fraction of 2-ethoxyethan-1-ol	Mass density, kg/m3	uncertainty
298.15	0.056	864.63	3.49
298.15	0.1494	869.4	3.42
298.15	0.2493	875.23	3.32
298.15	0.3539	881.87	3.21
298.15	0.449	888.18	3.11
298.15	0.5019	891.74	3.05
298.15	0.5488	894.9	3
298.15	0.6514	901.83	2.88
298.15	0.7465	908.19	2.78
298.15	0.8514	915.18	2.66
298.15	0.9527	921.97	2.55
303.15	0.056	859.92	3.57
303.15	0.1494	864.59	3.49
303.15	0.2493	870.35	3.4
303.15	0.3539	877	3.29
303.15	0.449	883.4	3.18
303.15	0.5019	887.05	3.12
303.15	0.5488	890.32	3.07
303.15	0.6514	897.51	2.95
303.15	0.7465	904.14	2.84
303.15	0.8514	911.32	2.73
303.15	0.9527	918.08	2.62
308.15	0.056	855.21	3.64
308.15	0.1494	859.89	3.57
308.15	0.2493	865.73	3.47
308.15	0.3539	872.51	3.36
308.15	0.449	879.08	3.25
308.15	0.5019	882.83	3.19
308.15	0.5488	886.2	3.14
308.15	0.6514	893.61	3.02
308.15	0.7465	900.44	2.9
308.15	0.8514	907.84	2.78
308.15	0.9527	914.79	2.67
313.15	0.056	850.33	3.72
313.15	0.1494	854.77	3.65
313.15	0.2493	860.42	3.56
313.15	0.3539	867.07	3.45
313.15	0.449	873.53	3.34
313.15	0.5019	877.24	3.28
313.15	0.5488	880.56	3.23
313.15	0.6514	887.86	3.11
313.15	0.7465	894.57	3
313.15	0.8514	901.79	2.88
313.15	0.9527	908.53	2.77

System: 1,2-dimethylbenzene + 2-ethoxyethan-1-ol; phases: Liquid
Fixed: Pressure, kPa = 101
Property: Viscosity, Pa*s (Liquid); method: CAPTUB:UFactor:2
Temperature, K	Mole fraction of 2-ethoxyethan-1-ol	Viscosity, Pa*s	uncertainty
298.15	0.0533	0.000777	1.4e-05
298.15	0.1508	0.000817	1.4e-05
298.15	0.2502	0.000867	1.5e-05
298.15	0.3516	0.000931	1.6e-05
298.15	0.4528	0.001009	1.7e-05
298.15	0.5042	0.001056	1.7e-05
298.15	0.553	0.001104	1.8e-05
298.15	0.6472	0.001211	2e-05
298.15	0.7494	0.001353	2.2e-05
298.15	0.8486	0.00152	2.4e-05
298.15	0.954	0.001739	2.8e-05
308.15	0.0533	0.000674	1.2e-05
308.15	0.1508	0.000708	1.3e-05
308.15	0.2502	0.00075	1.3e-05
308.15	0.3516	0.0008	1.4e-05
308.15	0.4528	0.000858	1.5e-05
308.15	0.5042	0.000892	1.5e-05
308.15	0.553	0.000926	1.6e-05
308.15	0.6472	0.001001	1.7e-05
308.15	0.7494	0.001096	1.8e-05
308.15	0.8486	0.001204	2e-05
308.15	0.954	0.00134	2.2e-05

System: 1,2-dimethylbenzene + 2-ethoxyethan-1-ol; phases: Liquid
Fixed: Pressure, kPa = 101
Property: Speed of sound, m/s (Liquid); method: FPINT:UFactor:2
Temperature, K	Mole fraction of 2-ethoxyethan-1-ol	Speed of sound, m/s	uncertainty
298.15	0.0533	1343	2
298.15	0.1508	1336	2
298.15	0.2502	1330	2
298.15	0.3516	1324	2
298.15	0.4528	1320	2
298.15	0.5042	1317	2
298.15	0.553	1316	2
298.15	0.6472	1312	2
298.15	0.7494	1308	2
298.15	0.8486	1304	2
298.15	0.954	1300	2
308.15	0.0533	1315	2
308.15	0.1508	1304	2
308.15	0.2502	1294	2
308.15	0.3516	1286	2
308.15	0.4528	1281	2
308.15	0.5042	1278	2
308.15	0.553	1277	2
308.15	0.6472	1274	2
308.15	0.7494	1272	2
308.15	0.8486	1270	2
308.15	0.954	1268	2

System: 1,2-dimethylbenzene + 2-ethoxyethan-1-ol; phases: Liquid
Fixed: Pressure, kPa = 101
Property: Mass density, kg/m3 (Liquid); method: VIBTUB:UFactor:16
Temperature, K	Mole fraction of 2-ethoxyethan-1-ol	Mass density, kg/m3	uncertainty
298.15	0.0533	876.92	1.69
298.15	0.1508	879.61	1.66
298.15	0.2502	883.34	1.63
298.15	0.3516	887.97	1.59
298.15	0.4528	893.23	1.54
298.15	0.5042	896.08	1.52
298.15	0.553	898.87	1.49
298.15	0.6472	904.42	1.45
298.15	0.7494	910.56	1.39
298.15	0.8486	916.49	1.34
298.15	0.954	922.61	1.29
303.15	0.0533	872.5	1.72
303.15	0.1508	875.01	1.7
303.15	0.2502	878.69	1.67
303.15	0.3516	883.32	1.63
303.15	0.4528	888.55	1.58
303.15	0.5042	891.37	1.56
303.15	0.553	894.12	1.53
303.15	0.6472	899.58	1.48
303.15	0.7494	905.64	1.43
303.15	0.8486	911.65	1.38
303.15	0.954	918.21	1.32
308.15	0.0533	868.19	1.76
308.15	0.1508	870.75	1.73
308.15	0.2502	874.47	1.7
308.15	0.3516	879.14	1.66
308.15	0.4528	884.41	1.61
308.15	0.5042	887.25	1.59
308.15	0.553	890.02	1.56
308.15	0.6472	895.54	1.52
308.15	0.7494	901.72	1.46
308.15	0.8486	907.91	1.41
308.15	0.954	914.8	1.35
313.15	0.0533	863.82	1.79
313.15	0.1508	866.13	1.77
313.15	0.2502	869.65	1.74
313.15	0.3516	874.12	1.7
313.15	0.4528	879.2	1.65
313.15	0.5042	881.95	1.63
313.15	0.553	884.64	1.61
313.15	0.6472	889.98	1.56
313.15	0.7494	895.94	1.51
313.15	0.8486	901.91	1.46
313.15	0.954	908.54	1.4

System: 1,3-dimethylbenzene + 2-ethoxyethan-1-ol; phases: Liquid
Fixed: Pressure, kPa = 101
Property: Viscosity, Pa*s (Liquid); method: CAPTUB:UFactor:2
Temperature, K	Mole fraction of 2-ethoxyethan-1-ol	Viscosity, Pa*s	uncertainty
298.15	0.0531	0.000608	1.1e-05
298.15	0.1513	0.000663	1.2e-05
298.15	0.2482	0.000727	1.3e-05
298.15	0.3528	0.000809	1.4e-05
298.15	0.4512	0.0009	1.5e-05
298.15	0.5053	0.000957	1.6e-05
298.15	0.5473	0.001006	1.7e-05
298.15	0.6494	0.00114	1.9e-05
298.15	0.751	0.0013	2.1e-05
298.15	0.8492	0.001487	2.4e-05
298.15	0.9554	0.001731	2.8e-05
308.15	0.0531	0.000521	1e-05
308.15	0.1513	0.000566	1e-05
308.15	0.2482	0.000618	1.1e-05
308.15	0.3528	0.000682	1.2e-05
308.15	0.4512	0.000752	1.3e-05
308.15	0.5053	0.000795	1.4e-05
308.15	0.5473	0.000831	1.4e-05
308.15	0.6494	0.000928	1.6e-05
308.15	0.751	0.00104	1.8e-05
308.15	0.8492	0.001168	2e-05
308.15	0.9554	0.00133	2.2e-05

System: 1,3-dimethylbenzene + 2-ethoxyethan-1-ol; phases: Liquid
Fixed: Pressure, kPa = 101
Property: Speed of sound, m/s (Liquid); method: FPINT:UFactor:2
Temperature, K	Mole fraction of 2-ethoxyethan-1-ol	Speed of sound, m/s	uncertainty
298.15	0.0531	1318	2
298.15	0.1513	1312	2
298.15	0.2482	1306	2
298.15	0.3528	1301	2
298.15	0.4512	1299	2
298.15	0.5053	1299	2
298.15	0.5473	1300	2
298.15	0.6494	1302	2
298.15	0.751	1305	2
298.15	0.8492	1306	2
298.15	0.9554	1302	2
308.15	0.0531	1279	2
308.15	0.1513	1273	2
308.15	0.2482	1268	2
308.15	0.3528	1265	2
308.15	0.4512	1265	2
308.15	0.5053	1265	2
308.15	0.5473	1266	2
308.15	0.6494	1268	2
308.15	0.751	1270	2
308.15	0.8492	1270	2
308.15	0.9554	1268	2

System: 1,3-dimethylbenzene + 2-ethoxyethan-1-ol; phases: Liquid
Fixed: Pressure, kPa = 101
Property: Mass density, kg/m3 (Liquid); method: VIBTUB:UFactor:16
Temperature, K	Mole fraction of 2-ethoxyethan-1-ol	Mass density, kg/m3	uncertainty
298.15	0.0531	861.88	1.81
298.15	0.1513	866.18	1.77
298.15	0.2482	871.3	1.72
298.15	0.3528	877.62	1.67
298.15	0.4512	884.15	1.61
298.15	0.5053	887.93	1.58
298.15	0.5473	890.93	1.56
298.15	0.6494	898.45	1.49
298.15	0.751	906.12	1.43
298.15	0.8492	913.62	1.36
298.15	0.9554	921.77	1.3
303.15	0.0531	857.42	1.84
303.15	0.1513	861.41	1.81
303.15	0.2482	866.38	1.76
303.15	0.3528	872.67	1.71
303.15	0.4512	879.25	1.65
303.15	0.5053	883.07	1.62
303.15	0.5473	886.13	1.59
303.15	0.6494	893.77	1.53
303.15	0.751	901.59	1.46
303.15	0.8492	909.26	1.4
303.15	0.9554	917.63	1.33
308.15	0.0531	853.03	1.88
308.15	0.1513	856.91	1.84
308.15	0.2482	861.95	1.8
308.15	0.3528	868.37	1.74
308.15	0.4512	875.04	1.69
308.15	0.5053	878.89	1.65
308.15	0.5473	881.95	1.63
308.15	0.6494	889.57	1.56
308.15	0.751	897.36	1.5
308.15	0.8492	905.14	1.43
308.15	0.9554	914.01	1.36
313.15	0.0531	848.04	1.91
313.15	0.1513	851.71	1.88
313.15	0.2482	856.53	1.84
313.15	0.3528	862.71	1.79
313.15	0.4512	869.18	1.73
313.15	0.5053	872.93	1.7
313.15	0.5473	875.91	1.67
313.15	0.6494	883.38	1.61
313.15	0.751	891.06	1.55
313.15	0.8492	898.78	1.48
313.15	0.9554	907.64	1.41

System: 1,4-dimethylbenzene + 2-ethoxyethan-1-ol; phases: Liquid
Fixed: Pressure, kPa = 101
Property: Viscosity, Pa*s (Liquid); method: CAPTUB:UFactor:2
Temperature, K	Mole fraction of 2-ethoxyethan-1-ol	Viscosity, Pa*s	uncertainty
298.15	0.0551	0.000632	1.1e-05
298.15	0.1489	0.000672	1.2e-05
298.15	0.2499	0.000725	1.3e-05
298.15	0.3507	0.000792	1.4e-05
298.15	0.4514	0.000875	1.5e-05
298.15	0.5001	0.000922	1.6e-05
298.15	0.5497	0.000975	1.6e-05
298.15	0.6526	0.001106	1.8e-05
298.15	0.7513	0.001262	2.1e-05
298.15	0.8499	0.001456	2.4e-05
298.15	0.9549	0.001717	2.7e-05
308.15	0.0551	0.000555	1e-05
308.15	0.1489	0.000584	1.1e-05
308.15	0.2499	0.000625	1.1e-05
308.15	0.3507	0.000674	1.2e-05
308.15	0.4514	0.000735	1.3e-05
308.15	0.5001	0.000769	1.3e-05
308.15	0.5497	0.000808	1.4e-05
308.15	0.6526	0.0009	1.5e-05
308.15	0.7513	0.00101	1.7e-05
308.15	0.8499	0.001143	1.9e-05
308.15	0.9549	0.001319	2.2e-05

System: 1,4-dimethylbenzene + 2-ethoxyethan-1-ol; phases: Liquid
Fixed: Pressure, kPa = 101
Property: Speed of sound, m/s (Liquid); method: FPINT:UFactor:2
Temperature, K	Mole fraction of 2-ethoxyethan-1-ol	Speed of sound, m/s	uncertainty
298.15	0.0551	1306	2
298.15	0.1489	1302	2
298.15	0.2499	1297	2
298.15	0.3507	1294	2
298.15	0.4514	1293	2
298.15	0.5001	1294	2
298.15	0.5497	1295	2
298.15	0.6526	1298	2
298.15	0.7513	1302	2
298.15	0.8499	1304	2
298.15	0.9549	1301	2
308.15	0.0551	1270	2
308.15	0.1489	1268	2
308.15	0.2499	1258	2
308.15	0.3507	1256	2
308.15	0.4514	1257	2
308.15	0.5001	1258	2
308.15	0.5497	1259	2
308.15	0.6526	1261	2
308.15	0.7513	1263	2
308.15	0.8499	1265	2
308.15	0.9549	1266	2

System: 1,4-dimethylbenzene + 2-ethoxyethan-1-ol; phases: Liquid
Fixed: Pressure, kPa = 101
Property: Mass density, kg/m3 (Liquid); method: VIBTUB:UFactor:16
Temperature, K	Mole fraction of 2-ethoxyethan-1-ol	Mass density, kg/m3	uncertainty
298.15	0.0551	858.94	1.83
298.15	0.1489	863.43	1.79
298.15	0.2499	868.99	1.74
298.15	0.3507	875.27	1.69
298.15	0.4514	882.19	1.63
298.15	0.5001	885.75	1.6
298.15	0.5497	889.49	1.57
298.15	0.6526	897.58	1.5
298.15	0.7513	905.58	1.43
298.15	0.8499	913.6	1.36
298.15	0.9549	921.84	1.29
303.15	0.0551	854.55	1.86
303.15	0.1489	859.02	1.82
303.15	0.2499	864.55	1.78
303.15	0.3507	870.79	1.72
303.15	0.4514	877.68	1.66
303.15	0.5001	881.22	1.63
303.15	0.5497	884.96	1.6
303.15	0.6526	893.04	1.54
303.15	0.7513	901.08	1.47
303.15	0.8499	909.2	1.4
303.15	0.9549	917.67	1.33
308.15	0.0551	850.1	1.9
308.15	0.1489	854.55	1.86
308.15	0.2499	860.2	1.81
308.15	0.3507	866.61	1.76
308.15	0.4514	873.67	1.7
308.15	0.5001	877.29	1.67
308.15	0.5497	881.08	1.63
308.15	0.6526	889.24	1.57
308.15	0.7513	897.34	1.5
308.15	0.8499	905.56	1.43
308.15	0.9549	914.27	1.35
313.15	0.0551	845.67	1.93
313.15	0.1489	849.89	1.9
313.15	0.2499	855.35	1.85
313.15	0.3507	861.6	1.8
313.15	0.4514	868.49	1.74
313.15	0.5001	872.01	1.71
313.15	0.5497	875.7	1.68
313.15	0.6526	883.63	1.61
313.15	0.7513	891.47	1.54
313.15	0.8499	899.43	1.48
313.15	0.9549	907.94	1.41

System: ethylbenzene + 2-ethoxyethan-1-ol; phases: Liquid
Fixed: Pressure, kPa = 101
Property: Viscosity, Pa*s (Liquid); method: CAPTUB:UFactor:2
Temperature, K	Mole fraction of 2-ethoxyethan-1-ol	Viscosity, Pa*s	uncertainty
298.15	0.0573	0.000658	1.1e-05
298.15	0.1487	0.000696	1.2e-05
298.15	0.2498	0.000749	1.3e-05
298.15	0.3527	0.000817	1.4e-05
298.15	0.4489	0.000895	1.5e-05
298.15	0.4998	0.000944	1.6e-05
298.15	0.5485	0.000995	1.6e-05
298.15	0.6501	0.001121	1.8e-05
298.15	0.7484	0.001273	2.1e-05
298.15	0.8508	0.001469	2.4e-05
298.15	0.9547	0.001721	2.7e-05
308.15	0.0573	0.000557	1e-05
308.15	0.1487	0.000597	1.1e-05
308.15	0.2498	0.000648	1.1e-05
308.15	0.3527	0.000708	1.2e-05
308.15	0.4489	0.000773	1.3e-05
308.15	0.4998	0.000812	1.4e-05
308.15	0.5485	0.000852	1.4e-05
308.15	0.6501	0.000945	1.6e-05
308.15	0.7484	0.00105	1.7e-05
308.15	0.8508	0.001178	1.9e-05
308.15	0.9547	0.001331	2.2e-05

System: ethylbenzene + 2-ethoxyethan-1-ol; phases: Liquid
Fixed: Pressure, kPa = 101
Property: Speed of sound, m/s (Liquid); method: FPINT:UFactor:2
Temperature, K	Mole fraction of 2-ethoxyethan-1-ol	Speed of sound, m/s	uncertainty
298.15	0.0573	1315	2
298.15	0.1487	1311	2
298.15	0.2498	1306	2
298.15	0.3527	1302	2
298.15	0.4489	1300	2
298.15	0.4998	1300	2
298.15	0.5485	1301	2
298.15	0.6501	1302	2
298.15	0.7484	1304	2
298.15	0.8508	1305	2
298.15	0.9547	1301	2
308.15	0.0573	1272	2
308.15	0.1487	1267	2
308.15	0.2498	1265	2
308.15	0.3527	1264	2
308.15	0.4489	1264	2
308.15	0.4998	1264	2
308.15	0.5485	1264	2
308.15	0.6501	1264	2
308.15	0.7484	1264	2
308.15	0.8508	1264	2
308.15	0.9547	1265	2

System: ethylbenzene + 2-ethoxyethan-1-ol; phases: Liquid
Fixed: Pressure, kPa = 101
Property: Mass density, kg/m3 (Liquid); method: VIBTUB:UFactor:16
Temperature, K	Mole fraction of 2-ethoxyethan-1-ol	Mass density, kg/m3	uncertainty
298.15	0.0573	864.51	1.75
298.15	0.1487	868.36	1.72
298.15	0.2498	873.45	1.68
298.15	0.3527	879.37	1.63
298.15	0.4489	885.44	1.58
298.15	0.4998	888.82	1.56
298.15	0.5485	892.14	1.53
298.15	0.6501	899.29	1.47
298.15	0.7484	906.42	1.42
298.15	0.8508	913.99	1.36
298.15	0.9547	921.78	1.29
303.15	0.0573	860.19	1.78
303.15	0.1487	863.91	1.75
303.15	0.2498	868.92	1.71
303.15	0.3527	874.82	1.67
303.15	0.4489	880.92	1.62
303.15	0.4998	884.34	1.59
303.15	0.5485	887.7	1.56
303.15	0.6501	894.96	1.51
303.15	0.7484	902.21	1.45
303.15	0.8508	909.9	1.39
303.15	0.9547	917.75	1.33
308.15	0.0573	855.98	1.82
308.15	0.1487	859.68	1.79
308.15	0.2498	864.73	1.75
308.15	0.3527	870.72	1.7
308.15	0.4489	876.94	1.65
308.15	0.4998	880.43	1.62
308.15	0.5485	883.87	1.59
308.15	0.6501	891.29	1.54
308.15	0.7484	898.7	1.48
308.15	0.8508	906.53	1.41
308.15	0.9547	914.5	1.35
313.15	0.0573	851.18	1.86
313.15	0.1487	854.7	1.83
313.15	0.2498	859.54	1.79
313.15	0.3527	865.32	1.74
313.15	0.4489	871.34	1.69
313.15	0.4998	874.73	1.67
313.15	0.5485	878.09	1.64
313.15	0.6501	885.35	1.58
313.15	0.7484	892.62	1.53
313.15	0.8508	900.34	1.46
313.15	0.9547	908.19	1.4

System: 2-ethoxyethan-1-ol + cyclohexane; phases: Liquid
Fixed: Pressure, kPa = 101
Property: Viscosity, Pa*s (Liquid); method: CAPTUB:UFactor:2
Temperature, K	Mole fraction of 2-ethoxyethan-1-ol	Viscosity, Pa*s	uncertainty
298.15	0.0542	0.000903	1.6e-05
298.15	0.1507	0.00092	1.6e-05
298.15	0.2541	0.000952	1.6e-05
298.15	0.3508	0.000996	1.7e-05
298.15	0.452	0.001057	1.8e-05
298.15	0.5	0.001093	1.8e-05
298.15	0.5497	0.001135	1.9e-05
298.15	0.6534	0.00124	2e-05
298.15	0.7527	0.001368	2.2e-05
298.15	0.8492	0.001524	2.4e-05
298.15	0.9552	0.001741	2.8e-05
308.15	0.0542	0.000755	1.3e-05
308.15	0.1507	0.000775	1.4e-05
308.15	0.2541	0.000805	1.4e-05
308.15	0.3508	0.000841	1.4e-05
308.15	0.452	0.000888	1.5e-05
308.15	0.5	0.000915	1.6e-05
308.15	0.5497	0.000945	1.6e-05
308.15	0.6534	0.001019	1.7e-05
308.15	0.7527	0.001105	1.8e-05
308.15	0.8492	0.001206	2e-05
308.15	0.9552	0.001341	2.2e-05

System: 2-ethoxyethan-1-ol + cyclohexane; phases: Liquid
Fixed: Pressure, kPa = 101
Property: Speed of sound, m/s (Liquid); method: FPINT:UFactor:2
Temperature, K	Mole fraction of 2-ethoxyethan-1-ol	Speed of sound, m/s	uncertainty
298.15	0.0542	1249	2
298.15	0.1507	1242	2
298.15	0.2541	1237	2
298.15	0.3508	1235	2
298.15	0.452	1236	2
298.15	0.5	1238	2
298.15	0.5497	1241	2
298.15	0.6534	1249	2
298.15	0.7527	1260	2
298.15	0.8492	1274	2
298.15	0.9552	1294	2
308.15	0.0542	1204	2
308.15	0.1507	1195	2
308.15	0.2541	1191	2
308.15	0.3508	1193	2
308.15	0.452	1198	2
308.15	0.5	1202	2
308.15	0.5497	1206	2
308.15	0.6534	1217	2
308.15	0.7527	1229	2
308.15	0.8492	1242	2
308.15	0.9552	1259	2

System: 2-ethoxyethan-1-ol + cyclohexane; phases: Liquid
Fixed: Pressure, kPa = 101
Property: Mass density, kg/m3 (Liquid); method: VIBTUB:UFactor:16
Temperature, K	Mole fraction of 2-ethoxyethan-1-ol	Mass density, kg/m3	uncertainty
298.15	0.0542	779.45	2.45
298.15	0.1507	790.32	2.36
298.15	0.2541	803.24	2.26
298.15	0.3508	816.47	2.15
298.15	0.452	831.44	2.03
298.15	0.5	838.91	1.97
298.15	0.5497	846.88	1.9
298.15	0.6534	864.16	1.76
298.15	0.7527	881.37	1.62
298.15	0.8492	898.48	1.48
298.15	0.9552	917.32	1.33
303.15	0.0542	773.87	2.5
303.15	0.1507	784.68	2.41
303.15	0.2541	797.74	2.3
303.15	0.3508	811.19	2.19
303.15	0.452	826.39	2.07
303.15	0.5	833.95	2.01
303.15	0.5497	842	1.94
303.15	0.6534	859.41	1.8
303.15	0.7527	876.7	1.66
303.15	0.8492	893.92	1.52
303.15	0.9552	913.07	1.36
308.15	0.0542	769.63	2.53
308.15	0.1507	780.34	2.44
308.15	0.2541	793.57	2.34
308.15	0.3508	807.22	2.22
308.15	0.452	822.52	2.1
308.15	0.5	830.07	2.04
308.15	0.5497	838.06	1.97
308.15	0.6534	855.21	1.83
308.15	0.7527	872.24	1.7
308.15	0.8492	889.41	1.56
308.15	0.9552	909.21	1.4
313.15	0.0542	764.48	2.57
313.15	0.1507	775.04	2.48
313.15	0.2541	788.1	2.38
313.15	0.3508	801.61	2.27
313.15	0.452	816.77	2.15
313.15	0.5	824.25	2.09
313.15	0.5497	832.17	2.02
313.15	0.6534	849.2	1.88
313.15	0.7527	866.11	1.74
313.15	0.8492	883.18	1.61
313.15	0.9552	902.87	1.45

System: benzene + 2-butoxyethan-1-ol; phases: Liquid
Fixed: Pressure, kPa = 101
Property: Viscosity, Pa*s (Liquid); method: CAPTUB:UFactor:2
Temperature, K	Mole fraction of 2-butoxyethan-1-ol	Viscosity, Pa*s	uncertainty
298.15	0.0553	0.000648	1.2e-05
298.15	0.1496	0.000736	1.3e-05
298.15	0.2488	0.000845	1.5e-05
298.15	0.3504	0.000978	1.6e-05
298.15	0.4555	0.001144	1.9e-05
298.15	0.4995	0.001223	2e-05
298.15	0.5504	0.001323	2.2e-05
298.15	0.6482	0.001543	2.5e-05
298.15	0.7535	0.00183	2.9e-05
298.15	0.8483	0.002143	3.3e-05
298.15	0.9556	0.002575	4e-05
308.15	0.0553	0.000562	1e-05
308.15	0.1496	0.000631	1.1e-05
308.15	0.2488	0.000717	1.3e-05
308.15	0.3504	0.000821	1.4e-05
308.15	0.4555	0.000949	1.6e-05
308.15	0.4995	0.001011	1.7e-05
308.15	0.5504	0.001088	1.8e-05
308.15	0.6482	0.001258	2.1e-05
308.15	0.7535	0.001479	2.4e-05
308.15	0.8483	0.001718	2.8e-05
308.15	0.9556	0.002048	3.3e-05

System: benzene + 2-butoxyethan-1-ol; phases: Liquid
Fixed: Pressure, kPa = 101
Property: Speed of sound, m/s (Liquid); method: FPINT:UFactor:2
Temperature, K	Mole fraction of 2-butoxyethan-1-ol	Speed of sound, m/s	uncertainty
298.15	0.0553	1291	2
298.15	0.1496	1283	2
298.15	0.2488	1281	2
298.15	0.3504	1282	2
298.15	0.4555	1286	2
298.15	0.4995	1288	2
298.15	0.5504	1291	2
298.15	0.6482	1295	2
298.15	0.7535	1299	2
298.15	0.8483	1302	2
298.15	0.9556	1304	2
308.15	0.0553	1255	2
308.15	0.1496	1250	2
308.15	0.2488	1249	2
308.15	0.3504	1250	2
308.15	0.4555	1254	2
308.15	0.4995	1256	2
308.15	0.5504	1258	2
308.15	0.6482	1262	2
308.15	0.7535	1268	2
308.15	0.8483	1273	2
308.15	0.9556	1281	2

System: benzene + 2-butoxyethan-1-ol; phases: Liquid
Fixed: Pressure, kPa = 101
Property: Mass density, kg/m3 (Liquid); method: VIBTUB:UFactor:16
Temperature, K	Mole fraction of 2-butoxyethan-1-ol	Mass density, kg/m3	uncertainty
298.15	0.0553	874.3	1.71
298.15	0.1496	876.28	1.69
298.15	0.2488	879	1.66
298.15	0.3504	882.07	1.64
298.15	0.4555	885.22	1.61
298.15	0.4995	886.47	1.59
298.15	0.5504	887.85	1.58
298.15	0.6482	890.26	1.56
298.15	0.7535	892.46	1.54
298.15	0.8483	894.11	1.52
298.15	0.9556	895.67	1.5
303.15	0.0553	869.03	1.75
303.15	0.1496	871.1	1.73
303.15	0.2488	873.93	1.7
303.15	0.3504	877.1	1.67
303.15	0.4555	880.36	1.64
303.15	0.4995	881.67	1.63
303.15	0.5504	883.11	1.62
303.15	0.6482	885.63	1.59
303.15	0.7535	887.96	1.57
303.15	0.8483	889.72	1.55
303.15	0.9556	891.4	1.54
308.15	0.0553	863.89	1.79
308.15	0.1496	866.19	1.77
308.15	0.2488	869.18	1.74
308.15	0.3504	872.51	1.71
308.15	0.4555	875.95	1.68
308.15	0.4995	877.34	1.67
308.15	0.5504	878.89	1.65
308.15	0.6482	881.65	1.62
308.15	0.7535	884.26	1.6
308.15	0.8483	886.27	1.58
308.15	0.9556	888.2	1.56
313.15	0.0553	858.82	1.83
313.15	0.1496	860.98	1.81
313.15	0.2488	863.87	1.78
313.15	0.3504	867.12	1.75
313.15	0.4555	870.52	1.72
313.15	0.4995	871.9	1.71
313.15	0.5504	873.44	1.69
313.15	0.6482	876.19	1.67
313.15	0.7535	878.79	1.64
313.15	0.8483	880.8	1.62
313.15	0.9556	882.71	1.61

System: toluene + 2-butoxyethan-1-ol; phases: Liquid
Fixed: Pressure, kPa = 101
Property: Viscosity, Pa*s (Liquid); method: CAPTUB:UFactor:2
Temperature, K	Mole fraction of 2-butoxyethan-1-ol	Viscosity, Pa*s	uncertainty
298.15	0.055	0.000593	1.1e-05
298.15	0.1509	0.000678	1.2e-05
298.15	0.2513	0.000784	1.4e-05
298.15	0.3489	0.000909	1.5e-05
298.15	0.4511	0.001066	1.8e-05
298.15	0.5015	0.001156	1.9e-05
298.15	0.5525	0.001257	2.1e-05
298.15	0.6512	0.001483	2.4e-05
298.15	0.7494	0.001759	2.8e-05
298.15	0.8498	0.002105	3.3e-05
298.15	0.9541	0.002551	3.9e-05
308.15	0.055	0.000531	1e-05
308.15	0.1509	0.000597	1.1e-05
308.15	0.2513	0.000679	1.2e-05
308.15	0.3489	0.000775	1.3e-05
308.15	0.4511	0.000896	1.5e-05
308.15	0.5015	0.000965	1.6e-05
308.15	0.5525	0.001042	1.7e-05
308.15	0.6512	0.001215	2e-05
308.15	0.7494	0.001425	2.3e-05
308.15	0.8498	0.001689	2.7e-05
308.15	0.9541	0.00203	3.2e-05

System: toluene + 2-butoxyethan-1-ol; phases: Liquid
Fixed: Pressure, kPa = 101
Property: Speed of sound, m/s (Liquid); method: FPINT:UFactor:2
Temperature, K	Mole fraction of 2-butoxyethan-1-ol	Speed of sound, m/s	uncertainty
298.15	0.055	1303	2
298.15	0.1509	1301	2
298.15	0.2513	1302	2
298.15	0.3489	1303	2
298.15	0.4511	1304	2
298.15	0.5015	1305	2
298.15	0.5525	1306	2
298.15	0.6512	1306	2
298.15	0.7494	1306	2
298.15	0.8498	1306	2
298.15	0.9541	1305	2
308.15	0.055	1261	2
308.15	0.1509	1260	2
308.15	0.2513	1261	2
308.15	0.3489	1262	2
308.15	0.4511	1264	2
308.15	0.5015	1265	2
308.15	0.5525	1267	2
308.15	0.6512	1270	2
308.15	0.7494	1273	2
308.15	0.8498	1277	2
308.15	0.9541	1282	2

System: toluene + 2-butoxyethan-1-ol; phases: Liquid
Fixed: Pressure, kPa = 101
Property: Mass density, kg/m3 (Liquid); method: VIBTUB:UFactor:16
Temperature, K	Mole fraction of 2-butoxyethan-1-ol	Mass density, kg/m3	uncertainty
298.15	0.055	863.84	1.79
298.15	0.1509	867.24	1.76
298.15	0.2513	871.21	1.72
298.15	0.3489	875.19	1.69
298.15	0.4511	879.27	1.65
298.15	0.5015	881.19	1.63
298.15	0.5525	883.06	1.62
298.15	0.6512	886.44	1.59
298.15	0.7494	889.48	1.56
298.15	0.8498	892.31	1.53
298.15	0.9541	895.06	1.51
303.15	0.055	859.17	1.83
303.15	0.1509	862.55	1.8
303.15	0.2513	866.52	1.76
303.15	0.3489	870.52	1.73
303.15	0.4511	874.63	1.69
303.15	0.5015	876.58	1.67
303.15	0.5525	878.48	1.65
303.15	0.6512	881.93	1.62
303.15	0.7494	885.06	1.59
303.15	0.8498	887.97	1.57
303.15	0.9541	890.8	1.54
308.15	0.055	854.65	1.86
308.15	0.1509	858.08	1.83
308.15	0.2513	861.96	1.8
308.15	0.3489	865.88	1.76
308.15	0.4511	870.03	1.72
308.15	0.5015	872.06	1.71
308.15	0.5525	874.08	1.69
308.15	0.6512	877.86	1.65
308.15	0.7494	881.39	1.62
308.15	0.8498	884.68	1.59
308.15	0.9541	887.71	1.57
313.15	0.055	849.76	1.9
313.15	0.1509	852.99	1.87
313.15	0.2513	856.75	1.84
313.15	0.3489	860.6	1.8
313.15	0.4511	864.68	1.77
313.15	0.5015	866.66	1.75
313.15	0.5525	868.64	1.73
313.15	0.6512	872.33	1.7
313.15	0.7494	875.78	1.67
313.15	0.8498	879.04	1.64
313.15	0.9541	882.13	1.61

System: 1,2-dimethylbenzene + 2-butoxyethan-1-ol; phases: Liquid
Fixed: Pressure, kPa = 101
Property: Viscosity, Pa*s (Liquid); method: CAPTUB:UFactor:2
Temperature, K	Mole fraction of 2-butoxyethan-1-ol	Viscosity, Pa*s	uncertainty
298.15	0.0549	0.000797	1.4e-05
298.15	0.1475	0.000891	1.5e-05
298.15	0.2508	0.001004	1.7e-05
298.15	0.3485	0.001129	1.9e-05
298.15	0.4527	0.001286	2.1e-05
298.15	0.5	0.001366	2.2e-05
298.15	0.5489	0.001457	2.4e-05
298.15	0.6483	0.001666	2.7e-05
298.15	0.7518	0.001925	3e-05
298.15	0.8493	0.002216	3.5e-05
298.15	0.9524	0.002586	4e-05
308.15	0.0549	0.000686	1.2e-05
308.15	0.1475	0.000756	1.3e-05
308.15	0.2508	0.00084	1.5e-05
308.15	0.3485	0.000933	1.6e-05
308.15	0.4527	0.001052	1.8e-05
308.15	0.5	0.001113	1.9e-05
308.15	0.5489	0.001182	2e-05
308.15	0.6483	0.001341	2.2e-05
308.15	0.7518	0.00154	2.5e-05
308.15	0.8493	0.001765	2.8e-05
308.15	0.9524	0.002053	3.3e-05

System: 1,2-dimethylbenzene + 2-butoxyethan-1-ol; phases: Liquid
Fixed: Pressure, kPa = 101
Property: Speed of sound, m/s (Liquid); method: FPINT:UFactor:4
Temperature, K	Mole fraction of 2-butoxyethan-1-ol	Speed of sound, m/s	uncertainty
298.15	0.0549	1345	4
298.15	0.1475	1339	4
298.15	0.2508	1334	4
298.15	0.3485	1330	4
298.15	0.4527	1325	4
298.15	0.5	1323	4
298.15	0.5489	1320	4
298.15	0.6483	1316	4
298.15	0.7518	1312	4
298.15	0.8493	1308	4
298.15	0.9524	1305	4
308.15	0.0549	1314	4
308.15	0.1475	1303	4
308.15	0.2508	1295	4
308.15	0.3485	1291	4
308.15	0.4527	1288	4
308.15	0.5	1287	4
308.15	0.5489	1286	4
308.15	0.6483	1278	3
308.15	0.7518	1282	3
308.15	0.8493	1281	3
308.15	0.9524	1283	3

System: 1,2-dimethylbenzene + 2-butoxyethan-1-ol; phases: Liquid
Fixed: Pressure, kPa = 101
Property: Mass density, kg/m3 (Liquid); method: VIBTUB:UFactor:16
Temperature, K	Mole fraction of 2-butoxyethan-1-ol	Mass density, kg/m3	uncertainty
298.15	0.0549	875.83	1.7
298.15	0.1475	876.8	1.69
298.15	0.2508	878.94	1.66
298.15	0.3485	881.54	1.64
298.15	0.4527	884.51	1.61
298.15	0.5	885.84	1.6
298.15	0.5489	887.16	1.59
298.15	0.6483	889.66	1.56
298.15	0.7518	891.9	1.54
298.15	0.8493	893.72	1.52
298.15	0.9524	895.45	1.5
303.15	0.0549	871.65	1.73
303.15	0.1475	872.55	1.72
303.15	0.2508	874.52	1.7
303.15	0.3485	876.95	1.68
303.15	0.4527	879.8	1.65
303.15	0.5	881.12	1.64
303.15	0.5489	882.45	1.62
303.15	0.6483	885.03	1.6
303.15	0.7518	887.44	1.57
303.15	0.8493	889.42	1.56
303.15	0.9524	891.25	1.54
308.15	0.0549	867.29	1.77
308.15	0.1475	868.23	1.75
308.15	0.2508	870.3	1.73
308.15	0.3485	872.86	1.71
308.15	0.4527	875.86	1.68
308.15	0.5	877.23	1.67
308.15	0.5489	878.63	1.65
308.15	0.6483	881.32	1.63
308.15	0.7518	883.85	1.6
308.15	0.8493	885.97	1.58
308.15	0.9524	888	1.56
313.15	0.0549	862.92	1.8
313.15	0.1475	863.54	1.79
313.15	0.2508	865.35	1.77
313.15	0.3485	867.7	1.75
313.15	0.4527	870.54	1.72
313.15	0.5	871.85	1.71
313.15	0.5489	873.2	1.7
313.15	0.6483	875.83	1.67
313.15	0.7518	878.33	1.65
313.15	0.8493	880.44	1.63
313.15	0.9524	882.48	1.61

System: 1,3-dimethylbenzene + 2-butoxyethan-1-ol; phases: Liquid
Fixed: Pressure, kPa = 101
Property: Viscosity, Pa*s (Liquid); method: CAPTUB:UFactor:2
Temperature, K	Mole fraction of 2-butoxyethan-1-ol	Viscosity, Pa*s	uncertainty
298.15	0.056	0.000625	1.1e-05
298.15	0.152	0.000711	1.3e-05
298.15	0.2496	0.000813	1.4e-05
298.15	0.3506	0.000941	1.6e-05
298.15	0.4512	0.001095	1.8e-05
298.15	0.5022	0.001185	1.9e-05
298.15	0.5529	0.001284	2.1e-05
298.15	0.6487	0.001501	2.4e-05
298.15	0.7505	0.001781	2.8e-05
298.15	0.8511	0.002122	3.3e-05
298.15	0.9549	0.00256	3.9e-05
308.15	0.056	0.000534	1e-05
308.15	0.152	0.000602	1.1e-05
308.15	0.2496	0.000686	1.2e-05
308.15	0.3506	0.000786	1.4e-05
308.15	0.4512	0.000908	1.6e-05
308.15	0.5022	0.000979	1.7e-05
308.15	0.5529	0.001056	1.8e-05
308.15	0.6487	0.001225	2e-05
308.15	0.7505	0.001442	2.3e-05
308.15	0.8511	0.001704	2.7e-05
308.15	0.9549	0.002037	3.2e-05

System: 1,3-dimethylbenzene + 2-butoxyethan-1-ol; phases: Liquid
Fixed: Pressure, kPa = 101
Property: Speed of sound, m/s (Liquid); method: FPINT:UFactor:2
Temperature, K	Mole fraction of 2-butoxyethan-1-ol	Speed of sound, m/s	uncertainty
298.15	0.056	1317	2
298.15	0.152	1312	2
298.15	0.2496	1308	2
298.15	0.3506	1306	2
298.15	0.4512	1305	2
298.15	0.5022	1305	2
298.15	0.5529	1305	2
298.15	0.6487	1307	2
298.15	0.7505	1309	2
298.15	0.8511	1309	2
298.15	0.9549	1307	2
308.15	0.056	1279	2
308.15	0.152	1275	2
308.15	0.2496	1272	2
308.15	0.3506	1270	2
308.15	0.4512	1270	2
308.15	0.5022	1270	2
308.15	0.5529	1270	2
308.15	0.6487	1271	2
308.15	0.7505	1273	2
308.15	0.8511	1277	2
308.15	0.9549	1282	2

System: 1,3-dimethylbenzene + 2-butoxyethan-1-ol; phases: Liquid
Fixed: Pressure, kPa = 101
Property: Mass density, kg/m3 (Liquid); method: VIBTUB:UFactor:16
Temperature, K	Mole fraction of 2-butoxyethan-1-ol	Mass density, kg/m3	uncertainty
298.15	0.056	861.44	1.81
298.15	0.152	864.52	1.78
298.15	0.2496	868.18	1.75
298.15	0.3506	872.3	1.71
298.15	0.4512	876.51	1.67
298.15	0.5022	878.63	1.65
298.15	0.5529	880.7	1.64
298.15	0.6487	884.49	1.6
298.15	0.7505	888.25	1.57
298.15	0.8511	891.68	1.54
298.15	0.9549	894.92	1.51
303.15	0.056	857.06	1.84
303.15	0.152	859.92	1.82
303.15	0.2496	863.47	1.78
303.15	0.3506	867.54	1.75
303.15	0.4512	871.78	1.71
303.15	0.5022	873.93	1.69
303.15	0.5529	876.05	1.67
303.15	0.6487	879.93	1.64
303.15	0.7505	883.81	1.6
303.15	0.8511	887.34	1.57
303.15	0.9549	890.67	1.54
308.15	0.056	852.68	1.88
308.15	0.152	855.46	1.85
308.15	0.2496	859.11	1.82
308.15	0.3506	863.37	1.78
308.15	0.4512	867.82	1.74
308.15	0.5022	870.08	1.72
308.15	0.5529	872.29	1.7
308.15	0.6487	876.32	1.67
308.15	0.7505	880.32	1.63
308.15	0.8511	883.96	1.6
308.15	0.9549	887.45	1.57
313.15	0.056	847.76	1.92
313.15	0.152	850.37	1.89
313.15	0.2496	853.77	1.86
313.15	0.3506	857.79	1.83
313.15	0.4512	862.08	1.79
313.15	0.5022	864.29	1.77
313.15	0.5529	866.49	1.75
313.15	0.6487	870.56	1.71
313.15	0.7505	874.68	1.68
313.15	0.8511	878.45	1.64
313.15	0.9549	881.98	1.61

System: 1,4-dimethylbenzene + 2-butoxyethan-1-ol; phases: Liquid
Fixed: Pressure, kPa = 101
Property: Viscosity, Pa*s (Liquid); method: CAPTUB:UFactor:2
Temperature, K	Mole fraction of 2-butoxyethan-1-ol	Viscosity, Pa*s	uncertainty
298.15	0.0541	0.000566	1e-05
298.15	0.1518	0.000625	1.1e-05
298.15	0.2496	0.000695	1.2e-05
298.15	0.3502	0.000784	1.4e-05
298.15	0.451	0.000894	1.5e-05
298.15	0.5028	0.000961	1.6e-05
298.15	0.5533	0.001033	1.7e-05
298.15	0.6489	0.001194	2e-05
298.15	0.7493	0.001404	2.3e-05
298.15	0.8519	0.001676	2.7e-05
298.15	0.9561	0.002029	3.2e-05
308.15	0.0541	0.000647	1.2e-05
308.15	0.1518	0.000725	1.3e-05
308.15	0.2496	0.000817	1.4e-05
308.15	0.3502	0.000933	1.6e-05
308.15	0.451	0.001076	1.8e-05
308.15	0.5028	0.001162	1.9e-05
308.15	0.5533	0.001256	2.1e-05
308.15	0.6489	0.001465	2.4e-05
308.15	0.7493	0.001739	2.8e-05
308.15	0.8519	0.002092	3.3e-05
308.15	0.9561	0.002551	3.9e-05

System: 1,4-dimethylbenzene + 2-butoxyethan-1-ol; phases: Liquid
Fixed: Pressure, kPa = 101
Property: Speed of sound, m/s (Liquid); method: FPINT:UFactor:2
Temperature, K	Mole fraction of 2-butoxyethan-1-ol	Speed of sound, m/s	uncertainty
298.15	0.0541	1273	2
298.15	0.1518	1268	2
298.15	0.2496	1266	2
298.15	0.3502	1265	2
298.15	0.451	1265	2
298.15	0.5028	1266	2
298.15	0.5533	1266	2
298.15	0.6489	1268	2
298.15	0.7493	1272	2
298.15	0.8519	1276	2
298.15	0.9561	1282	2
308.15	0.0541	1306	2
308.15	0.1518	1303	2
308.15	0.2496	1301	2
308.15	0.3502	1301	2
308.15	0.451	1301	2
308.15	0.5028	1301	2
308.15	0.5533	1302	2
308.15	0.6489	1302	2
308.15	0.7493	1303	2
308.15	0.8519	1304	2
308.15	0.9561	1304	2

System: 1,4-dimethylbenzene + 2-butoxyethan-1-ol; phases: Liquid
Fixed: Pressure, kPa = 101
Property: Mass density, kg/m3 (Liquid); method: VIBTUB:UFactor:16
Temperature, K	Mole fraction of 2-butoxyethan-1-ol	Mass density, kg/m3	uncertainty
298.15	0.0541	858.2	1.84
298.15	0.1518	861.9	1.8
298.15	0.2496	865.97	1.77
298.15	0.3502	870.43	1.73
298.15	0.451	874.96	1.69
298.15	0.5028	877.26	1.67
298.15	0.5533	879.47	1.65
298.15	0.6489	883.5	1.61
298.15	0.7493	887.49	1.57
298.15	0.8519	891.26	1.54
298.15	0.9561	894.82	1.51
303.15	0.0541	853.81	1.87
303.15	0.1518	857.46	1.84
303.15	0.2496	861.49	1.8
303.15	0.3502	865.91	1.76
303.15	0.451	870.44	1.72
303.15	0.5028	872.76	1.7
303.15	0.5533	874.98	1.68
303.15	0.6489	879.07	1.65
303.15	0.7493	883.12	1.61
303.15	0.8519	886.97	1.57
303.15	0.9561	890.58	1.54
308.15	0.0541	849.44	1.9
308.15	0.1518	853.12	1.87
308.15	0.2496	857.21	1.83
308.15	0.3502	861.73	1.79
308.15	0.451	866.37	1.75
308.15	0.5028	868.75	1.73
308.15	0.5533	871.05	1.71
308.15	0.6489	875.28	1.68
308.15	0.7493	879.5	1.64
308.15	0.8519	883.55	1.6
308.15	0.9561	887.37	1.57
313.15	0.0541	845.15	1.94
313.15	0.1518	848.55	1.91
313.15	0.2496	852.27	1.87
313.15	0.3502	856.4	1.84
313.15	0.451	860.74	1.8
313.15	0.5028	863.01	1.78
313.15	0.5533	865.23	1.76
313.15	0.6489	869.42	1.72
313.15	0.7493	873.71	1.68
313.15	0.8519	877.89	1.65
313.15	0.9561	881.84	1.61

System: ethylbenzene + 2-butoxyethan-1-ol; phases: Liquid
Fixed: Pressure, kPa = 101
Property: Viscosity, Pa*s (Liquid); method: CAPTUB:UFactor:2
Temperature, K	Mole fraction of 2-butoxyethan-1-ol	Viscosity, Pa*s	uncertainty
298.15	0.0546	0.000678	1.2e-05
298.15	0.1505	0.000769	1.3e-05
298.15	0.2513	0.000877	1.5e-05
298.15	0.3501	0.001003	1.7e-05
298.15	0.4528	0.001161	1.9e-05
298.15	0.4982	0.00124	2e-05
298.15	0.55	0.001339	2.1e-05
298.15	0.6497	0.00156	2.5e-05
298.15	0.7511	0.001831	2.9e-05
298.15	0.8507	0.002156	3.3e-05
298.15	0.9614	0.002601	4e-05
308.15	0.0546	0.000568	1e-05
308.15	0.1505	0.000643	1.1e-05
308.15	0.2513	0.000732	1.3e-05
308.15	0.3501	0.000835	1.4e-05
308.15	0.4528	0.000961	1.6e-05
308.15	0.4982	0.001025	1.7e-05
308.15	0.55	0.001103	1.8e-05
308.15	0.6497	0.001277	2.1e-05
308.15	0.7511	0.001487	2.4e-05
308.15	0.8507	0.001736	2.8e-05
308.15	0.9614	0.002071	3.3e-05

System: ethylbenzene + 2-butoxyethan-1-ol; phases: Liquid
Fixed: Pressure, kPa = 101
Property: Speed of sound, m/s (Liquid); method: FPINT:UFactor:2
Temperature, K	Mole fraction of 2-butoxyethan-1-ol	Speed of sound, m/s	uncertainty
298.15	0.0546	1315	2
298.15	0.1505	1311	2
298.15	0.2513	1309	2
298.15	0.3501	1307	2
298.15	0.4528	1306	2
298.15	0.4982	1306	2
298.15	0.55	1307	2
298.15	0.6497	1307	2
298.15	0.7511	1307	2
298.15	0.8507	1307	2
298.15	0.9614	1305	2
308.15	0.0546	1274	2
308.15	0.1505	1272	2
308.15	0.2513	1270	2
308.15	0.3501	1270	2
308.15	0.4528	1271	2
308.15	0.4982	1271	2
308.15	0.55	1272	2
308.15	0.6497	1274	2
308.15	0.7511	1276	2
308.15	0.8507	1279	2
308.15	0.9614	1283	2

System: ethylbenzene + 2-butoxyethan-1-ol; phases: Liquid
Fixed: Pressure, kPa = 101
Property: Mass density, kg/m3 (Liquid); method: VIBTUB:UFactor:16
Temperature, K	Mole fraction of 2-butoxyethan-1-ol	Mass density, kg/m3	uncertainty
298.15	0.0546	863.76	1.75
298.15	0.1505	866.73	1.73
298.15	0.2513	870.23	1.7
298.15	0.3501	873.92	1.67
298.15	0.4528	877.85	1.64
298.15	0.4982	879.58	1.63
298.15	0.55	881.52	1.61
298.15	0.6497	885.14	1.58
298.15	0.7511	888.62	1.56
298.15	0.8507	891.81	1.53
298.15	0.9614	895.13	1.5
303.15	0.0546	859.41	1.79
303.15	0.1505	862.26	1.77
303.15	0.2513	865.73	1.74
303.15	0.3501	869.44	1.71
303.15	0.4528	873.4	1.68
303.15	0.4982	875.14	1.66
303.15	0.55	877.09	1.65
303.15	0.6497	880.72	1.62
303.15	0.7511	884.19	1.59
303.15	0.8507	887.4	1.57
303.15	0.9614	890.83	1.54
308.15	0.0546	855.27	1.82
308.15	0.1505	858.07	1.8
308.15	0.2513	861.49	1.77
308.15	0.3501	865.19	1.74
308.15	0.4528	869.23	1.71
308.15	0.4982	871.03	1.7
308.15	0.55	873.07	1.68
308.15	0.6497	876.93	1.65
308.15	0.7511	880.68	1.62
308.15	0.8507	884.15	1.59
308.15	0.9614	887.73	1.56
313.15	0.0546	850.44	1.86
313.15	0.1505	853.05	1.84
313.15	0.2513	856.31	1.81
313.15	0.3501	859.92	1.79
313.15	0.4528	863.9	1.75
313.15	0.4982	865.69	1.74
313.15	0.55	867.72	1.72
313.15	0.6497	871.58	1.69
313.15	0.7511	875.33	1.66
313.15	0.8507	878.77	1.64
313.15	0.9614	882.26	1.61

System: cyclohexane + 2-butoxyethan-1-ol; phases: Liquid
Fixed: Pressure, kPa = 101
Property: Viscosity, Pa*s (Liquid); method: CAPTUB:UFactor:2
Temperature, K	Mole fraction of 2-butoxyethan-1-ol	Viscosity, Pa*s	uncertainty
298.15	0.0557	0.00095	1.6e-05
298.15	0.1501	0.001046	1.8e-05
298.15	0.2504	0.001162	1.9e-05
298.15	0.3543	0.0013	2.1e-05
298.15	0.4488	0.001443	2.3e-05
298.15	0.5025	0.001532	2.5e-05
298.15	0.5493	0.001616	2.6e-05
298.15	0.6485	0.001813	2.9e-05
298.15	0.7494	0.002043	3.2e-05
298.15	0.8511	0.002311	3.6e-05
298.15	0.9556	0.002631	4e-05
308.15	0.0557	0.00079	1.4e-05
308.15	0.1501	0.000866	1.5e-05
308.15	0.2504	0.000958	1.6e-05
308.15	0.3543	0.001066	1.8e-05
308.15	0.4488	0.001178	2e-05
308.15	0.5025	0.001248	2.1e-05
308.15	0.5493	0.001313	2.2e-05
308.15	0.6485	0.001465	2.4e-05
308.15	0.7494	0.001642	2.6e-05
308.15	0.8511	0.001848	3e-05
308.15	0.9556	0.002091	3.3e-05

System: cyclohexane + 2-butoxyethan-1-ol; phases: Liquid
Fixed: Pressure, kPa = 101
Property: Speed of sound, m/s (Liquid); method: FPINT:UFactor:2
Temperature, K	Mole fraction of 2-butoxyethan-1-ol	Speed of sound, m/s	uncertainty
298.15	0.0557	1244	2
298.15	0.1501	1236	2
298.15	0.2504	1237	2
298.15	0.3543	1242	2
298.15	0.4488	1250	2
298.15	0.5025	1255	2
298.15	0.5493	1260	2
298.15	0.6485	1269	2
298.15	0.7494	1278	2
298.15	0.8511	1287	2
298.15	0.9556	1298	2
308.15	0.0557	1206	2
308.15	0.1501	1202	2
308.15	0.2504	1202	2
308.15	0.3543	1206	2
308.15	0.4488	1212	2
308.15	0.5025	1216	2
308.15	0.5493	1220	2
308.15	0.6485	1229	2
308.15	0.7494	1241	2
308.15	0.8511	1255	2
308.15	0.9556	1275	2

System: cyclohexane + 2-butoxyethan-1-ol; phases: Liquid
Fixed: Pressure, kPa = 101
Property: Mass density, kg/m3 (Liquid); method: VIBTUB:UFactor:16
Temperature, K	Mole fraction of 2-butoxyethan-1-ol	Mass density, kg/m3	uncertainty
298.15	0.0557	780.53	2.44
298.15	0.1501	792.14	2.35
298.15	0.2504	804.78	2.25
298.15	0.3543	818.03	2.14
298.15	0.4488	830.1	2.04
298.15	0.5025	836.93	1.98
298.15	0.5493	842.84	1.94
298.15	0.6485	855.22	1.83
298.15	0.7494	867.52	1.73
298.15	0.8511	879.52	1.63
298.15	0.9556	891.37	1.54
303.15	0.0557	774.84	2.49
303.15	0.1501	786.38	2.39
303.15	0.2504	799.25	2.29
303.15	0.3543	812.87	2.18
303.15	0.4488	825.26	2.08
303.15	0.5025	832.23	2.02
303.15	0.5493	838.24	1.97
303.15	0.6485	850.72	1.87
303.15	0.7494	863.02	1.77
303.15	0.8511	875.01	1.67
303.15	0.9556	887	1.57
308.15	0.0557	771.17	2.52
308.15	0.1501	782.85	2.42
308.15	0.2504	795.54	2.32
308.15	0.3543	808.84	2.21
308.15	0.4488	820.97	2.11
308.15	0.5025	827.84	2.06
308.15	0.5493	833.8	2.01
308.15	0.6485	846.33	1.9
308.15	0.7494	858.87	1.8
308.15	0.8511	871.26	1.7
308.15	0.9556	883.7	1.6
313.15	0.0557	765.44	2.56
313.15	0.1501	776.71	2.47
313.15	0.2504	789.54	2.37
313.15	0.3543	803.16	2.26
313.15	0.4488	815.49	2.16
313.15	0.5025	822.38	2.1
313.15	0.5493	828.29	2.05
313.15	0.6485	840.55	1.95
313.15	0.7494	852.71	1.85
313.15	0.8511	864.88	1.75
313.15	0.9556	877.7	1.65
