Measured thermophysical data. Bubble Temperature Measurements on the Binary Mixtures of n-Heptane or Nitrobenzene or Chlorobenzene with Some Chloroethanes and Chloroethylenes at (94.6 to 95.8) kPa
Source: J. Chem. Eng. Data, 2004, 10.1021/je0301085
Compound 1: heptane, C7H16, InChI=1S/C7H16/c1-3-5-7-6-4-2/h3-7H2,1-2H3
Compound 2: nitrobenzene, C6H5NO2, InChI=1S/C6H5NO2/c8-7(9)6-4-2-1-3-5-6/h1-5H
Compound 3: chlorobenzene, C6H5Cl, InChI=1S/C6H5Cl/c7-6-4-2-1-3-5-6/h1-5H
Compound 4: 1,2-dichloroethane, C2H4Cl2, InChI=1S/C2H4Cl2/c3-1-2-4/h1-2H2
Compound 5: 1,1,1-trichloroethane, C2H3Cl3, InChI=1S/C2H3Cl3/c1-2(3,4)5/h1H3
Compound 6: 1,1,2,2-tetrachloroethane, C2H2Cl4, InChI=1S/C2H2Cl4/c3-1(4)2(5)6/h1-2H
Compound 7: trichloroethene, C2HCl3, InChI=1S/C2HCl3/c3-1-2(4)5/h1H
Compound 8: tetrachloroethene, C2Cl4, InChI=1S/C2Cl4/c3-1(4)2(5)6

System: heptane; phases: Liquid
Property: Refractive index (Na D-line) (Liquid); method: Standard Abbe refractometry
Temperature, K	Pressure, kPa	Refractive index (Na D-line)	uncertainty
298.15	101.325	1.3851	0.0007

System: heptane; phases: Liquid
Property: Mass density, kg/m3 (Liquid); method: UNKNOWN
Temperature, K	Pressure, kPa	Mass density, kg/m3	uncertainty
298.15	101.325	679.5	5

System: heptane; phases: Liquid, Gas
Property: Vapor or sublimation pressure, kPa (Liquid); method: EBULLIO:UFactor:8
Temperature, K	Vapor or sublimation pressure, kPa	uncertainty
369.75	95.8	0.3
369.78	95.8	0.3

System: nitrobenzene; phases: Liquid
Property: Refractive index (Na D-line) (Liquid); method: Standard Abbe refractometry
Temperature, K	Pressure, kPa	Refractive index (Na D-line)	uncertainty
298.15	101.325	1.55	0.001

System: nitrobenzene; phases: Liquid
Property: Mass density, kg/m3 (Liquid); method: UNKNOWN
Temperature, K	Pressure, kPa	Mass density, kg/m3	uncertainty
298.15	101.325	1198	5

System: nitrobenzene; phases: Liquid, Gas
Property: Vapor or sublimation pressure, kPa (Liquid); method: EBULLIO:UFactor:8
Temperature, K	Vapor or sublimation pressure, kPa	uncertainty
481.15	94.6	0.3

System: chlorobenzene; phases: Liquid
Property: Refractive index (Na D-line) (Liquid); method: Standard Abbe refractometry
Temperature, K	Pressure, kPa	Refractive index (Na D-line)	uncertainty
293.15	101.325	1.5248	0.0007

System: chlorobenzene; phases: Liquid
Property: Mass density, kg/m3 (Liquid); method: UNKNOWN
Temperature, K	Pressure, kPa	Mass density, kg/m3	uncertainty
293.15	101.325	1106	5

System: chlorobenzene; phases: Liquid, Gas
Property: Vapor or sublimation pressure, kPa (Liquid); method: EBULLIO:UFactor:8
Temperature, K	Vapor or sublimation pressure, kPa	uncertainty
402.55	94.6	0.3

System: 1,2-dichloroethane; phases: Liquid
Property: Refractive index (Na D-line) (Liquid); method: Standard Abbe refractometry
Temperature, K	Pressure, kPa	Refractive index (Na D-line)	uncertainty
298.15	101.325	1.4421	0.0007

System: 1,2-dichloroethane; phases: Liquid
Property: Mass density, kg/m3 (Liquid); method: UNKNOWN
Temperature, K	Pressure, kPa	Mass density, kg/m3	uncertainty
298.15	101.325	1247	5

System: 1,2-dichloroethane; phases: Liquid, Gas
Property: Vapor or sublimation pressure, kPa (Liquid); method: EBULLIO:UFactor:8
Temperature, K	Vapor or sublimation pressure, kPa	uncertainty
354.95	94.6	0.3
355.05	94.6	0.3
355.25	95.8	0.3

System: 1,1,1-trichloroethane; phases: Liquid
Property: Refractive index (Na D-line) (Liquid); method: Standard Abbe refractometry
Temperature, K	Pressure, kPa	Refractive index (Na D-line)	uncertainty
298.15	101.325	1.436	0.0007

System: 1,1,1-trichloroethane; phases: Liquid
Property: Mass density, kg/m3 (Liquid); method: UNKNOWN
Temperature, K	Pressure, kPa	Mass density, kg/m3	uncertainty
298.15	101.325	1330	5

System: 1,1,1-trichloroethane; phases: Liquid, Gas
Property: Vapor or sublimation pressure, kPa (Liquid); method: EBULLIO:UFactor:8
Temperature, K	Vapor or sublimation pressure, kPa	uncertainty
345.25	94.6	0.3
345.35	94.6	0.2
345.65	95.8	0.3

System: 1,1,2,2-tetrachloroethane; phases: Liquid
Property: Refractive index (Na D-line) (Liquid); method: Standard Abbe refractometry
Temperature, K	Pressure, kPa	Refractive index (Na D-line)	uncertainty
298.15	101.325	1.494	0.0007

System: 1,1,2,2-tetrachloroethane; phases: Liquid
Property: Mass density, kg/m3 (Liquid); method: UNKNOWN
Temperature, K	Pressure, kPa	Mass density, kg/m3	uncertainty
298.15	101.325	1587	5

System: 1,1,2,2-tetrachloroethane; phases: Liquid, Gas
Property: Vapor or sublimation pressure, kPa (Liquid); method: EBULLIO:UFactor:8
Temperature, K	Vapor or sublimation pressure, kPa	uncertainty
416.95	94.6	0.2
417.35	95.8	0.2

System: trichloroethene; phases: Liquid
Property: Refractive index (Na D-line) (Liquid); method: Standard Abbe refractometry
Temperature, K	Pressure, kPa	Refractive index (Na D-line)	uncertainty
298.15	101.325	1.4782	0.0007

System: trichloroethene; phases: Liquid
Property: Mass density, kg/m3 (Liquid); method: UNKNOWN
Temperature, K	Pressure, kPa	Mass density, kg/m3	uncertainty
298.15	101.325	1464	5

System: trichloroethene; phases: Liquid, Gas
Property: Vapor or sublimation pressure, kPa (Liquid); method: EBULLIO:UFactor:8
Temperature, K	Vapor or sublimation pressure, kPa	uncertainty
358.25	94.6	0.3
358.55	95.8	0.3

System: tetrachloroethene; phases: Liquid
Property: Refractive index (Na D-line) (Liquid); method: Standard Abbe refractometry
Temperature, K	Pressure, kPa	Refractive index (Na D-line)	uncertainty
298.15	101.325	1.505	0.0007

System: tetrachloroethene; phases: Liquid
Property: Mass density, kg/m3 (Liquid); method: UNKNOWN
Temperature, K	Pressure, kPa	Mass density, kg/m3	uncertainty
298.15	101.325	1615	5

System: tetrachloroethene; phases: Liquid, Gas
Property: Vapor or sublimation pressure, kPa (Liquid); method: EBULLIO:UFactor:8
Temperature, K	Vapor or sublimation pressure, kPa	uncertainty
391.25	94.6	0.2
391.65	95.8	0.2

System: 1,2-dichloroethane + heptane; phases: Liquid, Gas
Fixed: Pressure, kPa = 95.8
Property: Boiling temperature at pressure P, K (Liquid); method: EBULLIO:UFactor:8
Mole fraction of 1,2-dichloroethane	Boiling temperature at pressure P, K	uncertainty
0	369.75	0.25
0.165	362.95	0.25
0.284	359.35	0.25
0.3689	357.35	0.25
0.438	355.95	0.25
0.5173	354.75	0.25
0.6835	352.85	0.25
0.7641	352.65	0.25
0.8663	352.45	0.25
0.9284	352.95	0.25
1	355.25	0.25

System: 1,1,1-trichloroethane + heptane; phases: Liquid, Gas
Fixed: Pressure, kPa = 95.8
Property: Boiling temperature at pressure P, K (Liquid); method: EBULLIO:UFactor:8
Mole fraction of 1,1,1-trichloroethane	Boiling temperature at pressure P, K	uncertainty
0	369.75	0.25
0.1028	366.65	0.25
0.2913	361.05	0.25
0.4513	356.45	0.25
0.5069	354.85	0.25
0.6267	351.65	0.25
0.7705	348.15	0.25
0.8344	346.95	0.25
0.9097	345.95	0.25
1	345.65	0.25

System: 1,1,2,2-tetrachloroethane + heptane; phases: Liquid, Gas
Fixed: Pressure, kPa = 95.8
Property: Boiling temperature at pressure P, K (Liquid); method: EBULLIO:UFactor:8
Mole fraction of heptane	Boiling temperature at pressure P, K	uncertainty
0	417.35	0.25
0.0937	409.45	0.25
0.1703	403.75	0.25
0.2911	396.05	0.25
0.4181	389.15	0.25
0.5571	382.75	0.25
0.6264	379.95	0.25
0.7155	376.75	0.25
0.8342	373.35	0.25
0.9197	371.35	0.25
1	369.75	0.25

System: trichloroethene + heptane; phases: Liquid, Gas
Fixed: Pressure, kPa = 95.8
Property: Boiling temperature at pressure P, K (Liquid); method: EBULLIO:UFactor:8
Mole fraction of trichloroethene	Boiling temperature at pressure P, K	uncertainty
0	369.78	0.25
0.189	365.45	0.25
0.259	364.25	0.25
0.3681	362.65	0.25
0.4492	361.85	0.25
0.6749	360.85	1
0.7654	359.75	0.25
0.8509	359.15	0.25
0.9195	358.85	0.25
1	358.55	0.25

System: tetrachloroethene + heptane; phases: Liquid, Gas
Fixed: Pressure, kPa = 95.8
Property: Boiling temperature at pressure P, K (Liquid); method: EBULLIO:UFactor:8
Mole fraction of heptane	Boiling temperature at pressure P, K	uncertainty
0	391.65	0.25
0.1664	386.15	0.25
0.2853	382.75	0.25
0.3745	380.65	0.25
0.4146	379.75	0.25
0.55	376.95	0.25
0.6197	375.55	0.25
0.7562	373.15	0.25
0.8302	372.15	0.25
1	369.75	0.25

System: nitrobenzene + 1,2-dichloroethane; phases: Liquid, Gas
Fixed: Pressure, kPa = 94.6
Property: Boiling temperature at pressure P, K (Liquid); method: EBULLIO:UFactor:8
Mole fraction of 1,2-dichloroethane	Boiling temperature at pressure P, K	uncertainty
0	481.15	0.26
0.1775	417.25	0.26
0.3014	397.55	0.26
0.4632	381.65	0.26
0.5642	374.45	0.26
0.6609	368.85	0.26
0.7952	362.45	0.26
0.8859	358.85	0.26
1	354.95	0.26

System: 1,1,1-trichloroethane + nitrobenzene; phases: Liquid, Gas
Fixed: Pressure, kPa = 94.6
Property: Boiling temperature at pressure P, K (Liquid); method: EBULLIO:UFactor:8
Mole fraction of 1,1,1-trichloroethane	Boiling temperature at pressure P, K	uncertainty
0	481.15	0.26
0.143	409.95	0.26
0.3342	379.35	0.26
0.456	369.05	0.26
0.6009	360.55	0.26
0.7507	354.05	0.26
0.8576	349.95	0.26
1	345.35	0.26

System: 1,1,2,2-tetrachloroethane + nitrobenzene; phases: Liquid, Gas
Fixed: Pressure, kPa = 94.6
Property: Boiling temperature at pressure P, K (Liquid); method: EBULLIO:UFactor:8
Mole fraction of 1,1,2,2-tetrachloroethane	Boiling temperature at pressure P, K	uncertainty
0	481.15	0.26
0.1395	465.85	0.26
0.3272	450.05	0.26
0.4477	441.85	0.26
0.539	436.45	0.26
0.745	426.55	0.26
0.8537	422.05	0.26
1	416.95	0.26

System: trichloroethene + nitrobenzene; phases: Liquid, Gas
Fixed: Pressure, kPa = 94.6
Property: Boiling temperature at pressure P, K (Liquid); method: EBULLIO:UFactor:8
Mole fraction of trichloroethene	Boiling temperature at pressure P, K	uncertainty
0	481.15	0.26
0.1595	415.55	0.26
0.3627	388.05	0.26
0.4868	379.15	0.26
0.6306	371.65	0.26
0.6942	368.95	0.26
0.7735	365.85	0.26
0.8723	362.45	0.26
1	358.25	0.26

System: nitrobenzene + tetrachloroethene; phases: Liquid, Gas
Fixed: Pressure, kPa = 94.6
Property: Boiling temperature at pressure P, K (Liquid); method: EBULLIO:UFactor:8
Mole fraction of tetrachloroethene	Boiling temperature at pressure P, K	uncertainty
0	481.15	0.26
0.1428	439.05	0.26
0.333	417.95	0.26
0.4545	410.65	0.26
0.6012	404.25	0.26
0.7513	399.05	0.26
0.9232	393.65	0.26
1	391.25	0.26

System: 1,2-dichloroethane + chlorobenzene; phases: Liquid, Gas
Fixed: Pressure, kPa = 94.6
Property: Boiling temperature at pressure P, K (Liquid); method: EBULLIO:UFactor:8
Mole fraction of 1,2-dichloroethane	Boiling temperature at pressure P, K	uncertainty
0	402.55	0.26
0.155	389.25	0.26
0.2686	382.25	0.26
0.4238	374.55	0.26
0.562	368.75	0.26
0.692	364.05	0.26
0.818	359.95	0.26
0.899	357.65	0.26
1	355.05	0.26

System: 1,1,1-trichloroethane + chlorobenzene; phases: Liquid, Gas
Fixed: Pressure, kPa = 94.6
Property: Boiling temperature at pressure P, K (Liquid); method: EBULLIO:UFactor:8
Mole fraction of 1,1,1-trichloroethane	Boiling temperature at pressure P, K	uncertainty
0	402.55	0.26
0.1249	391.65	0.26
0.2221	383.95	0.26
0.3634	374.15	0.26
0.5382	363.85	0.26
0.6362	358.95	0.26
0.7776	352.85	0.26
0.8749	349.25	0.26
1	345.25	0.26

System: 1,1,2,2-tetrachloroethane + chlorobenzene; phases: Liquid, Gas
Fixed: Pressure, kPa = 94.6
Property: Boiling temperature at pressure P, K (Liquid); method: EBULLIO:UFactor:8
Mole fraction of chlorobenzene	Boiling temperature at pressure P, K	uncertainty
0	416.95	0.26
0.1288	416.15	0.26
0.2282	415.15	0.26
0.3073	414.25	0.26
0.4251	412.85	0.26
0.547	411.15	0.26
0.645	409.55	0.26
0.7837	406.95	0.26
0.8787	405.05	0.26
1	402.55	0.26

System: trichloroethene + chlorobenzene; phases: Liquid, Gas
Fixed: Pressure, kPa = 94.6
Property: Boiling temperature at pressure P, K (Liquid); method: EBULLIO:UFactor:8
Mole fraction of trichloroethene	Boiling temperature at pressure P, K	uncertainty
0	402.55	0.26
0.1392	394.35	0.26
0.2443	388.65	0.26
0.3929	381.15	0.26
0.4929	376.65	0.26
0.5692	373.25	0.26
0.664	369.45	0.26
0.7985	364.45	0.26
0.8479	361.45	2
1	358.25	0.26

System: chlorobenzene + tetrachloroethene; phases: Liquid, Gas
Fixed: Pressure, kPa = 94.6
Property: Boiling temperature at pressure P, K (Liquid); method: EBULLIO:UFactor:8
Mole fraction of tetrachloroethene	Boiling temperature at pressure P, K	uncertainty
0	402.55	0.26
0.1243	400.85	0.26
0.2212	399.65	0.26
0.3622	397.85	0.26
0.537	395.95	0.26
0.635	394.85	0.26
0.7767	393.35	0.26
0.8743	392.45	0.26
1	391.25	0.26
