Measured thermophysical data. Solubilities of 7,8-Dihydroxyflavone and 3,3',4',5,7-Pentahydroxyflavone in Supercritical Carbon Dioxide
Source: J. Chem. Eng. Data, 2003, 10.1021/je030129z
Compound 1: 7,8-dihydroxyflavone, C15H10O4, InChI=1S/C15H10O4/c16-11-7-6-10-12(17)8-13(19-15(10)14(11)18)9-4-2-1-3-5-9/h1-8,16,18H
Compound 2: quercetin, C15H10O7, InChI=1S/C15H10O7/c16-7-4-10(19)12-11(5-7)22-15(14(21)13(12)20)6-1-2-8(17)9(18)3-6/h1-5,16-19,21H
Compound 3: carbon dioxide, CO2, InChI=1S/CO2/c2-1-3

System: carbon dioxide + 7,8-dihydroxyflavone; phases: Fluid (supercritical or subcritical phases), Crystal
Property: Mole fraction of 7,8-dihydroxyflavone (Fluid (supercritical or subcritical phases)); method: OTHER
Temperature, K	Pressure, kPa	Mole fraction of 7,8-dihydroxyflavone	uncertainty
308.2	9100	8.62e-06	1.3e-06
308.2	10100	1.21e-05	1.8e-06
308.2	15200	1.51e-05	2.3e-06
308.2	20300	1.8e-05	2.7e-06
308.2	25300	1.87e-05	2.8e-06
318.2	10100	1.6e-05	2.4e-06
318.2	15200	3.21e-05	4.8e-06
318.2	20300	3.6e-05	5.4e-06
318.2	25300	3.88e-05	5.8e-06

System: quercetin + carbon dioxide; phases: Fluid (supercritical or subcritical phases), Crystal
Property: Mole fraction of quercetin (Fluid (supercritical or subcritical phases)); method: OTHER
Temperature, K	Pressure, kPa	Mole fraction of quercetin	uncertainty
308.2	10100	6.1e-06	9.2e-07
308.2	15200	9.65e-06	1.45e-06
308.2	20300	1.05e-05	1.6e-06
308.2	25300	1.2e-05	1.8e-06
318.2	10100	5.42e-06	8.2e-07
318.2	15200	1.88e-05	2.8e-06
318.2	20300	2.14e-05	3.2e-06
318.2	25300	2.2e-05	3.3e-06
