Measured thermophysical data. Heat Capacities and Derived Thermodynamic Functions of 1-Hexanol, 1-Heptanol, 1-Octanol, and 1-Decanol between 5 K and 390 K
Source: J. Chem. Eng. Data, 2003, 10.1021/je0340856
Compound 1: hexan-1-ol, C6H14O, InChI=1S/C6H14O/c1-2-3-4-5-6-7/h7H,2-6H2,1H3, purity 98%
Compound 2: heptan-1-ol, C7H16O, InChI=1S/C7H16O/c1-2-3-4-5-6-7-8/h8H,2-7H2,1H3, purity 98%
Compound 3: octan-1-ol, C8H18O, InChI=1S/C8H18O/c1-2-3-4-5-6-7-8-9/h9H,2-8H2,1H3, purity 99%
Compound 4: decan-1-ol, C10H22O, InChI=1S/C10H22O/c1-2-3-4-5-6-7-8-9-10-11/h11H,2-10H2,1H3, purity 99%

System: hexan-1-ol; phases: Crystal, Liquid, Gas
Property: Molar enthalpy of transition or fusion, kJ/mol (Crystal); method: ADIACA:UFactor:2
Molar enthalpy of transition or fusion, kJ/mol	uncertainty
16.729	0.106

System: hexan-1-ol; phases: Crystal, Liquid, Gas
Property: Triple point temperature, K (Crystal); method: ADIACA:UFactor:2
Triple point temperature, K	uncertainty
226.7	0.08

System: hexan-1-ol; phases: Crystal, Gas
Property: Molar heat capacity at saturation pressure, J/K/mol (Crystal); method: VADIAC:UFactor:2
Temperature, K	Molar heat capacity at saturation pressure, J/K/mol	uncertainty
4.73	0.23	0.02
4.73	0.26	0.03
5.03	0.22	0.02
5.25	0.28	0.03
6.01	0.41	0.03
6.23	0.38	0.03
6.63	0.58	0.03
7.29	0.55	0.03
7.59	0.66	0.03
8.33	0.81	0.03
8.65	0.92	0.04
9.1	1.13	0.04
9.46	1.19	0.04
10.09	1.44	0.04
10.57	1.65	0.05
11.01	1.89	0.05
11.61	2.15	0.05
12.24	2.53	0.06
12.62	2.7	0.06
13.32	3.12	0.07
14.01	3.62	0.07
14.38	3.82	0.07
15.17	4.52	0.08
15.92	4.85	0.08
16.31	5.23	0.09
17.15	5.89	0.1
17.97	6.66	0.1
18.36	6.91	0.1
19.26	7.71	0.11
20.11	8.58	0.12
20.52	8.9	0.12
21.47	9.86	0.13
22.38	10.9	0.13
22.79	11.23	0.13
23.78	12.33	0.14
24.74	13.49	0.14
25.15	13.9	0.15
26.19	15.07	0.15
27.2	16.11	0.15
27.62	16.44	0.15
28.71	17.58	0.15
29.78	18.83	0.15
30.17	19.25	0.16
31.78	21.2	0.17
35.16	25.36	0.18
38	28.31	0.19
40.5	31.13	0.21
42.88	33.91	0.22
45.33	36.72	0.23
47.82	39.53	0.24
50.34	42.36	0.25
52.89	45.17	0.26
55.47	47.75	0.27
58.09	50.26	0.28
60.73	52.78	0.29
63.39	55.26	0.3
66.08	57.66	0.31
68.79	60.06	0.32
71.52	62.4	0.33
74.27	64.69	0.34
77.04	66.89	0.35
79.82	69.05	0.36
82.62	71.14	0.36
85.42	73.21	0.37
88.25	75.23	0.38
91.08	77.2	0.55
93.91	79.1	0.56
96.73	80.88	0.56
99.51	82.67	0.57
102.14	84.69	0.57
104.23	85.75	0.57
106.71	87.38	0.57
109.6	89.08	0.58
112.49	90.67	0.58
115.37	92.25	0.58
118.27	93.81	0.59
121.17	95.17	0.59
124.07	96.95	0.59
126.98	98.46	0.6
129.89	100.3	0.6
135.8	103.15	0.61
138.7	104.42	0.61
141.6	105.91	0.61
144.52	107.35	0.61
147.44	108.76	0.62
150.37	110.18	0.62
153.3	111.54	0.62
156.23	113.01	0.63
159.17	114.37	0.63
162.1	115.77	0.63
165.04	117.15	0.63
167.98	118.55	0.64
170.92	119.95	0.64
173.86	121.36	0.64
176.8	122.79	0.65
179.74	124.24	0.65
182.69	125.71	0.65
185.63	127.24	0.65
188.57	128.81	0.66
191.51	130.44	0.66
194.46	132.06	0.66
197.4	133.63	0.67
200.34	135.37	0.67
203.28	137.57	0.68
206.22	139.93	0.68
209.15	142.67	0.69
212.07	145.66	0.69
214.98	150	0.7
217.85	158.73	0.73
220.62	179.49	0.77

System: hexan-1-ol; phases: Liquid, Gas
Property: Molar heat capacity at saturation pressure, J/K/mol (Liquid); method: VADIAC:UFactor:2
Temperature, K	Molar heat capacity at saturation pressure, J/K/mol	uncertainty
228.77	199.21	0.8
231.33	200.08	0.8
233.87	200.96	0.8
236.4	201.97	0.8
238.93	202.98	0.81
241.44	204.05	0.81
243.95	205.1	0.81
246.44	206.25	0.81
248.93	207.41	0.81
251.4	208.63	0.82
253.87	209.48	0.82
256.32	210.68	0.82
258.77	212.05	0.82
261.21	213.48	0.83
263.63	214.83	0.83
266.05	216.37	0.83
268.45	217.89	0.84
270.84	219.48	0.84
273.22	221.05	0.84
275.58	222.79	0.85
277.94	224.39	0.85
280.28	226.11	0.85
282.61	227.76	0.86
284.93	229.63	0.86
287.23	231.51	0.86
289.53	233.35	0.87
291.81	235.25	0.87
294.08	237.16	0.87
296.34	239.12	0.88
298.59	241.17	0.88
300.82	243.13	0.89
304.88	246.88	0.89
305.73	247.71	0.9
307.09	249.04	0.9
308.95	250.94	0.9
310.79	252.61	0.91
312.63	254.44	0.91
314.46	256.3	0.91
316.29	258.11	0.92
318.1	260.01	0.92
319.9	261.75	0.92
321.7	263.65	0.93
323.49	265.44	0.93
325.27	267.34	0.93
327.05	269.15	0.94
328.82	270.96	0.94
330.57	272.91	0.95
332.33	274.59	0.95
334.07	276.54	0.95
335.8	278.19	0.96
337.53	279.95	0.96
339.25	281.7	0.96
340.96	283.5	0.97
342.67	285.12	0.97
344.38	286.83	0.97
346.07	288.48	0.98
347.76	290	0.98
349.45	291.14	0.98
351.13	293.81	0.99
352.8	295.37	0.99
354.46	297.12	0.99
356.11	298.7	1
357.76	300.28	1
359.4	301.88	1
361.04	303.33	1.01
362.67	304.61	1.01
364.3	306.24	1.01
365.92	307.65	1.02
367.53	309.09	1.02
369.14	310.41	1.02
370.75	311.57	1.02
372.35	312.82	1.03
373.95	314.3	1.03
375.55	315.42	1.03
377.14	316.68	1.03
378.73	317.95	1.04
380.31	319.24	1.04
381.89	320.17	1.04
383.47	321.16	1.04
385.05	322.12	1.04
386.63	322.81	1.05
388.21	323.86	1.05
389.79	324.17	1.05
391.37	324.97	1.05
392.95	325.81	1.05
394.53	326.66	1.05
396.11	327.44	1.05
397.7	327.86	1.06
399.28	329.13	1.06

System: hexan-1-ol; phases: Crystal, Gas
Property: Molar heat capacity at saturation pressure, J/K/mol (Crystal); method: VADIAC:UFactor:2
Temperature, K	Molar heat capacity at saturation pressure, J/K/mol	uncertainty
10	1.41	0.04
20	8.47	0.12
30	19.07	0.16
40	30.56	0.2
50	41.99	0.25
60	52.09	0.29
70	61.11	0.32
80	69.18	0.36
90	76.46	0.55
100	83.02	0.57
110	89.3	0.58
120	94.61	0.59
130	100.4	0.6
140	105.1	0.6
150	110	0.6
160	114.8	0.6
170	119.5	0.6
180	124.4	0.7
190	129.6	0.7
200	134.3	0.7
210	139.2	0.7
220	144.1	0.7
226.7	147.4	0.7

System: hexan-1-ol; phases: Liquid, Gas
Property: Molar heat capacity at saturation pressure, J/K/mol (Liquid); method: VADIAC:UFactor:2
Temperature, K	Molar heat capacity at saturation pressure, J/K/mol	uncertainty
226.7	198.1	0.8
230	199.6	0.8
240	203.4	0.8
250	207.9	0.8
260	212.8	0.8
270	218.9	0.8
280	225.9	0.9
290	233.7	0.9
298.15	240.8	0.9
300	242.4	0.9
310	251.9	0.9
320	261.9	0.9
330	272.3	0.9
340	282.5	1
350	291.9	1
360	302.4	1
370	311	1
380	319	1

System: hexan-1-ol; phases: Crystal
Fixed: Pressure, kPa = 101.325
Property: Molar enthalpy, kJ/mol (Crystal); method: VADIAC:UFactor:2
Temperature, K	Molar enthalpy, kJ/mol	uncertainty
10	0.0037	0.0003
20	0.0486	0.001
30	0.185	0.003
40	0.435	0.005
50	0.798	0.007
60	1.27	0.01
70	1.837	0.013
80	2.489	0.016
90	3.218	0.042
100	4.015	0.048
110	4.878	0.054
120	5.798	0.06
130	6.773	0.066
140	7.8	0.072
150	8.876	0.078
160	10	0.084
170	11.171	0.09
180	12.39	0.097
190	13.659	0.103
200	14.978	0.11
210	16.345	0.117
220	17.762	0.124
226.7	18.738	0.128

System: hexan-1-ol; phases: Liquid
Fixed: Pressure, kPa = 101.325
Property: Molar enthalpy, kJ/mol (Liquid); method: VADIAC:UFactor:2
Temperature, K	Molar enthalpy, kJ/mol	uncertainty
226.7	35.473	0.162
230	36.133	0.164
240	38.147	0.172
250	40.204	0.18
260	42.305	0.189
270	44.463	0.197
280	46.687	0.205
290	48.984	0.214
298.15	50.917	0.221
300	51.364	0.223
310	53.835	0.232
320	56.403	0.241
330	59.073	0.25
340	61.847	0.26
350	64.721	0.27
360	67.696	0.279
370	70.764	0.29
380	73.914	0.3

System: hexan-1-ol; phases: Crystal
Fixed: Pressure, kPa = 101.325
Property: Molar entropy, J/K/mol (Crystal); method: VADIAC:UFactor:2
Temperature, K	Molar entropy, J/K/mol	uncertainty
10	0.49	0.04
20	3.33	0.09
30	8.73	0.17
40	15.83	0.22
50	23.89	0.26
60	32.47	0.32
70	41.18	0.37
80	49.88	0.42
90	58.46	0.78
100	66.85	0.8
110	75.07	0.83
120	83.08	0.85
130	90.87	0.87
140	98.48	0.9
150	105.9	0.9
160	113.2	0.9
170	120.3	1
180	127.2	1
190	134.1	1
200	140.8	1
210	147.5	1
220	154.1	1.1
226.7	158.5	1.1

System: hexan-1-ol; phases: Liquid
Fixed: Pressure, kPa = 101.325
Property: Molar entropy, J/K/mol (Liquid); method: VADIAC:UFactor:2
Temperature, K	Molar entropy, J/K/mol	uncertainty
226.7	232.3	1.3
230	235.2	1.3
240	243.8	1.3
250	252.2	1.4
260	260.4	1.4
270	268.6	1.4
280	276.7	1.4
290	284.7	1.5
298.15	291.3	1.5
300	292.8	1.5
310	300.9	1.5
320	309	1.5
330	317.3	1.6
340	325.5	1.6
350	333.9	1.6
360	342.3	1.6
370	350.7	1.7
380	359.1	1.7

System: heptan-1-ol; phases: Crystal, Liquid, Gas
Property: Molar enthalpy of transition or fusion, kJ/mol (Crystal); method: ADIACA:UFactor:2
Molar enthalpy of transition or fusion, kJ/mol	uncertainty
18.348	0.12

System: heptan-1-ol; phases: Crystal, Liquid, Gas
Property: Triple point temperature, K (Crystal); method: ADIACA:UFactor:2
Triple point temperature, K	uncertainty
239.9	0.08

System: heptan-1-ol; phases: Crystal, Gas
Property: Molar heat capacity at saturation pressure, J/K/mol (Crystal); method: VADIAC:UFactor:2
Temperature, K	Molar heat capacity at saturation pressure, J/K/mol	uncertainty
5.31	0.44	0.03
5.42	0.56	0.03
5.65	0.65	0.03
6.15	0.67	0.03
6.48	0.86	0.04
7.31	1.19	0.04
7.87	1.44	0.05
8.68	1.85	0.05
9.23	1.97	0.05
10.13	2.56	0.06
10.82	2.88	0.06
11.98	3.13	0.07
12.59	3.84	0.08
13.88	5.66	0.1
14.41	6.01	0.1
15.57	7.38	0.12
16.22	8.12	0.13
17.55	9.78	0.14
18.23	10.55	0.15
19.79	12.66	0.17
20.46	13.54	0.17
22.1	15.64	0.18
22.8	16.74	0.19
24.52	18.91	0.2
25.26	20.2	0.2
27.06	22.51	0.2
27.82	23.98	0.21
29.69	26.33	0.2
30.49	27.89	0.19
32.23	29.87	0.2
34.64	33.16	0.21
36.93	36.15	0.23
39.27	39.19	0.24
41.68	42.23	0.25
44.12	45.22	0.26
46.61	48.18	0.27
49.13	51.12	0.29
51.68	53.98	0.3
54.27	56.79	0.31
56.89	59.48	0.32
59.54	62.05	0.33
62.21	64.76	0.34
64.91	67.35	0.35
67.61	69.71	0.36
70.34	72.23	0.37
73.09	74.58	0.38
75.86	76.67	0.39
78.64	78.77	0.4
81.44	81.34	0.41
84.25	83.31	0.41
87.07	85.42	0.42
89.91	87.09	0.43
92.76	89.07	0.58
95.61	91.19	0.58
98.48	92.84	0.59
101.35	94.53	0.59
103.14	95.61	0.59
103.8	96.11	0.59
105.6	97.26	0.59
108.54	98.98	0.6
111.44	100.7	0.6
114.34	102.18	0.6
117.25	103.89	0.61
120.16	105.61	0.61
123.07	107.23	0.61
125.99	108.6	0.62
128.91	110.24	0.62
131.84	111.79	0.62
134.77	113.19	0.63
137.71	114.67	0.63
140.65	116.31	0.63
143.59	117.83	0.64
146.51	119.01	0.64
149.41	120.42	0.64
152.27	121.98	0.64
155.11	123.57	0.65
157.93	125	0.65
160.72	126.4	0.65
163.48	127.87	0.66
166.23	129.28	0.66
168.95	130.67	0.66
171.65	132.1	0.66
174.34	133.48	0.67
177	135.02	0.67
179.64	136.57	0.67
182.25	138.29	0.68
184.85	139.84	0.68
187.43	141.46	0.68
189.99	143.11	0.69
192.54	144.77	0.69
195.06	146.54	0.69
197.57	148.4	0.7
200.05	150.08	0.7
202.53	151.8	0.7
204.98	153.71	0.71
207.41	154.84	0.71
209.83	157.69	0.72
212.23	159.75	0.72
214.61	161.9	0.72
216.96	164.2	0.73
219.3	166.6	0.73
221.62	169.38	0.74
223.92	172.57	0.75
226.2	176.32	0.75
228.44	181.33	0.76
230.64	189.25	0.78
232.78	201.1	0.82
234.83	224.26	0.88

System: heptan-1-ol; phases: Liquid, Gas
Property: Molar heat capacity at saturation pressure, J/K/mol (Liquid); method: VADIAC:UFactor:2
Temperature, K	Molar heat capacity at saturation pressure, J/K/mol	uncertainty
241.56	234.91	0.87
243.49	235.74	0.87
245.41	236.4	0.87
247.33	237.15	0.87
249.24	238.27	0.88
251.15	239.26	0.88
253.05	240.26	0.88
254.94	241.3	0.88
256.83	242.37	0.88
258.71	243.5	0.89
260.59	244.66	0.89
262.46	245.74	0.89
264.33	246.95	0.89
266.19	248.18	0.9
268.04	249.42	0.9
269.89	250.62	0.9
271.74	251.77	0.9
273.58	253.3	0.91
275.41	254.82	0.91
277.24	256.14	0.91
279.06	257.48	0.92
280.87	259.09	0.92
282.68	260.54	0.92
284.48	261.95	0.92
286.27	263.46	0.93
288.06	265.02	0.93
289.84	266.66	0.93
291.61	268.18	0.94
293.38	270.14	0.94
295.13	271.58	0.94
296.89	273.08	0.95
298.63	274.82	0.95
300.38	276.64	0.95
302.11	278.13	0.96
303.83	279.76	0.96
305.55	281.48	0.96
307.27	283.15	0.97
308.97	284.94	0.97
310.67	286.86	0.97
312.17	287.58	0.98
312.48	287.74	0.98
313.47	289.53	0.98
315.15	291.13	0.98
316.82	292.75	0.99
318.49	294.51	0.99
320.15	296.14	0.99
321.81	297.32	0.99
323.47	298.29	1
325.13	300.22	1
326.77	304.1	1.01
328.4	306.16	1.01
330.02	307.87	1.02
331.64	309.45	1.02
333.25	311.37	1.02
334.86	313.07	1.03
336.46	315.09	1.03
338.06	316.8	1.03
339.65	318.31	1.04
341.23	320.04	1.04
342.81	321.74	1.04
344.38	323.31	1.05
345.95	325.06	1.05
347.51	326.69	1.05
349.06	328.33	1.06
350.62	329.86	1.06
352.17	331.49	1.06
353.71	333.02	1.07
355.25	334.62	1.07
356.78	336.3	1.07
358.3	337.67	1.08
363.71	342.83	1.09
365.22	344.07	1.09
366.73	345.59	1.09
368.24	346.84	1.09
369.74	347.99	1.1

System: heptan-1-ol; phases: Crystal, Gas
Property: Molar heat capacity at saturation pressure, J/K/mol (Crystal); method: VADIAC:UFactor:2
Temperature, K	Molar heat capacity at saturation pressure, J/K/mol	uncertainty
10	2.48	0.06
20	12.93	0.17
30	26.94	0.19
40	40.12	0.24
50	52.11	0.29
60	62.51	0.33
70	71.92	0.37
80	80.02	0.4
90	87.15	0.57
100	93.74	0.59
110	99.85	0.6
120	105.5	0.6
130	110.8	0.6
140	116	0.6
150	120.7	0.6
160	126	0.7
170	131.2	0.7
180	136.1	0.7
190	141.4	0.7
200	146.6	0.7
210	151.8	0.7
220	157	0.7
230	162.2	0.7
239.9	167.4	0.7

System: heptan-1-ol; phases: Liquid, Gas
Property: Molar heat capacity at saturation pressure, J/K/mol (Liquid); method: VADIAC:UFactor:2
Temperature, K	Molar heat capacity at saturation pressure, J/K/mol	uncertainty
239.9	234.2	0.9
240	234.3	0.9
250	238.7	0.9
260	244.3	0.9
270	250.7	0.9
280	258.9	0.9
290	266.7	0.9
298.15	274	0.9
300	275.7	1
310	285.7	1
320	296.3	1
330	307.2	1
340	318.2	1
350	329	1.1
360	339.2	1.1

System: heptan-1-ol; phases: Crystal
Fixed: Pressure, kPa = 101.325
Property: Molar enthalpy, kJ/mol (Crystal); method: VADIAC:UFactor:2
Temperature, K	Molar enthalpy, kJ/mol	uncertainty
10	0.007	0.0003
20	0.0768	0.0013
30	0.275	0.004
40	0.612	0.006
50	1.074	0.008
60	1.649	0.011
70	2.322	0.015
80	3.082	0.019
90	3.92	0.044
100	4.826	0.05
110	5.796	0.056
120	6.822	0.062
130	7.904	0.068
140	9.037	0.074
150	10.221	0.08
160	11.456	0.087
170	12.742	0.094
180	14.079	0.1
190	15.466	0.107
200	16.906	0.114
210	18.398	0.121
220	19.942	0.128
230	21.539	0.135
239.9	23.17	0.142

System: heptan-1-ol; phases: Liquid
Fixed: Pressure, kPa = 101.325
Property: Molar enthalpy, kJ/mol (Liquid); method: VADIAC:UFactor:2
Temperature, K	Molar enthalpy, kJ/mol	uncertainty
239.9	41.518	0.179
240	41.294	0.179
250	43.89	0.188
260	46.304	0.197
270	48.778	0.206
280	51.326	0.215
290	53.954	0.224
298.15	56.157	0.232
300	56.666	0.233
310	59.473	0.243
320	62.383	0.253
330	65.4	0.263
340	68.528	0.273
350	71.763	0.284
360	75.104	0.294

System: heptan-1-ol; phases: Crystal
Fixed: Pressure, kPa = 101.325
Property: Molar entropy, J/K/mol (Crystal); method: VADIAC:UFactor:2
Temperature, K	Molar entropy, J/K/mol	uncertainty
10	0.95	0.05
20	5.34	0.12
30	13.18	0.2
40	22.8	0.26
50	33.07	0.32
60	43.51	0.38
70	53.88	0.44
80	64.01	0.5
90	73.88	0.82
100	83.41	0.85
110	92.65	0.88
120	101.6	0.9
130	110.2	0.9
140	118.6	1
150	126.8	1
160	134.8	1
170	142.6	1
180	150.2	1.1
190	157.7	1.1
200	165.1	1.1
210	172.4	1.1
220	179.5	1.1
230	186.6	1.2
239.9	193.6	1.2

System: heptan-1-ol; phases: Liquid
Fixed: Pressure, kPa = 101.325
Property: Molar entropy, J/K/mol (Liquid); method: VADIAC:UFactor:2
Temperature, K	Molar entropy, J/K/mol	uncertainty
239.9	270.1	1.4
240	271.1	1.4
250	280.1	1.4
260	289.5	1.5
270	298.9	1.5
280	308.1	1.5
290	317.4	1.6
298.15	324.9	1.6
300	326.6	1.6
310	335.8	1.6
320	345	1.6
330	354.3	1.7
340	363.6	1.7
350	373	1.7
360	382.4	1.7

System: octan-1-ol; phases: Crystal, Liquid, Gas
Property: Molar enthalpy of transition or fusion, kJ/mol (Crystal); method: ADIACA:UFactor:2
Molar enthalpy of transition or fusion, kJ/mol	uncertainty
25.135	0.123

System: octan-1-ol; phases: Crystal, Liquid, Gas
Property: Triple point temperature, K (Crystal); method: ADIACA:UFactor:2
Triple point temperature, K	uncertainty
258.43	0.08

System: octan-1-ol; phases: Crystal, Gas
Property: Molar heat capacity at saturation pressure, J/K/mol (Crystal); method: VADIAC:UFactor:2
Temperature, K	Molar heat capacity at saturation pressure, J/K/mol	uncertainty
5.51	0.55	0.03
7.65	1.13	0.04
8.67	1.38	0.04
9.45	1.79	0.05
9.6	1.87	0.05
10.46	2.27	0.06
10.49	2.2	0.05
10.59	1.99	0.05
11.31	2.15	0.05
12.02	2.64	0.06
12.51	2.7	0.06
13.25	3.26	0.07
14.41	4.33	0.08
14.41	4.32	0.08
15.01	4.91	0.09
16.12	5.91	0.1
16.18	5.98	0.1
16.8	6.56	0.1
18.08	7.79	0.12
18.11	7.82	0.12
18.86	8.63	0.12
20.26	10.18	0.13
20.3	10.22	0.14
21.07	11.09	0.14
22.52	12.79	0.15
22.57	12.84	0.15
23.36	13.82	0.16
24.83	15.65	0.16
24.89	15.73	0.16
25.62	16.68	0.17
26.95	18.46	0.17
27.01	18.51	0.17
27.6	19.36	0.17
28.73	20.88	0.18
28.79	20.93	0.18
29.3	21.67	0.18
30.29	23.2	0.18
30.34	23.31	0.18
32.64	26.31	0.19
35.67	30.5	0.2
38.25	34.45	0.22
40.52	37.31	0.23
42.56	40.16	0.24
44.44	42.82	0.25
46.21	45.2	0.26
47.94	47.59	0.27
49.7	49.95	0.28
51.47	52.3	0.29
53.25	54.69	0.3
55.05	57.19	0.31
56.86	59.3	0.32
58.68	61.44	0.33
60.51	63.66	0.34
62.35	65.86	0.34
64.2	68.03	0.35
66.06	70.11	0.36
71.67	76.25	0.39
73.56	78.27	0.39
75.46	80.21	0.4
77.36	82.12	0.41
79.26	83.98	0.42
81.17	86.12	0.43
81.87	87.31	0.43
83.09	87.87	0.43
84	88.68	0.44
85.01	89.74	0.44
86.87	91.24	0.45
86.93	91.2	0.45
88.86	92.89	0.45
89.71	93.73	0.46
90.79	94.84	0.59
92.55	96.12	0.59
92.72	96.3	0.59
94.66	97.76	0.6
95.39	98.32	0.6
96.6	99.48	0.6
98.25	100.63	0.6
98.55	100.87	0.6
100.49	102.53	0.61
101.11	103.05	0.61
103.98	105.11	0.61
106.86	107.33	0.61
109.74	109.46	0.62
112.63	111.55	0.62
115.53	113.5	0.63
118.43	115.45	0.63
121.34	117.43	0.64
124.25	119.33	0.64
127.17	121.24	0.64
130.09	123.1	0.65
133.02	124.93	0.65
135.94	126.61	0.65
138.87	128.39	0.66
141.81	130.27	0.66
144.74	131.98	0.66
147.68	133.74	0.67
150.6	135.43	0.67
153.5	137.26	0.67
156.36	138.96	0.68
159.19	140.67	0.68
162	142.31	0.68
164.78	143.89	0.69
167.54	145.46	0.69
170.28	147.16	0.69
172.99	148.67	0.7
175.69	150.31	0.7
178.37	151.92	0.7
181.04	153.46	0.71
183.69	155.2	0.71
186.32	156.65	0.71
188.93	158.14	0.72
191.53	159.84	0.72
199.21	164.61	0.73
201.74	166.06	0.73
204.25	167.79	0.74
206.75	169.44	0.74
209.24	171.15	0.74
211.71	172.75	0.75
214.16	174.25	0.75
216.6	175.77	0.75
219.03	177.39	0.75
221.44	179.06	0.76
223.84	180.79	0.76
227.87	183.03	0.77
228.8	183.89	0.77
230.74	185.62	0.77
233.7	188.03	0.78
236.61	190.47	0.78
239.31	191.9	0.78
241.65	193.09	0.79
244.2	195.39	0.79
247.12	198.75	0.8
249.34	201.65	0.8
250.05	204.14	0.82
251.91	218.67	0.85

System: octan-1-ol; phases: Liquid, Gas
Property: Molar heat capacity at saturation pressure, J/K/mol (Liquid); method: VADIAC:UFactor:2
Temperature, K	Molar heat capacity at saturation pressure, J/K/mol	uncertainty
260.72	276.51	0.95
263.26	278.28	0.96
265.79	279.96	0.96
268.3	281.74	0.96
270.8	283.47	0.97
273.3	285.37	0.97
275.79	287.38	0.97
278.27	289.49	0.98
280.73	291.59	0.98
283.19	293.87	0.99
285.63	296	0.99
292.88	303.04	1.01
295.28	305.54	1.01
297.66	307.64	1.02
300.98	311.08	1.02
302.16	312.05	1.02
304.21	314.16	1.03
306.25	316.36	1.03
308.28	318.62	1.04
310.3	320.94	1.04
312.31	323.19	1.05
314.32	325.48	1.05
316.31	327.65	1.06
318.29	329.87	1.06
320.27	332.17	1.06
322.24	334.52	1.07
324.2	336.75	1.07
326.16	339.1	1.08
328.1	341.4	1.08
330.05	343.52	1.09
331.98	345.75	1.09
333.9	348.22	1.1
335.82	350.3	1.1
337.73	352.81	1.11
339.63	354.92	1.11
341.53	356.95	1.11
343.41	359.19	1.12
345.29	361.35	1.12
347.17	363.47	1.13
349.03	365.55	1.13
350.89	367.72	1.14
352.74	369.8	1.14
354.59	371.63	1.14
356.43	373.69	1.15
358.26	375.61	1.15
360.09	377.59	1.16
361.91	379.46	1.16
363.73	381.3	1.16
365.54	383.13	1.17
367.34	384.79	1.17
369.14	386.39	1.17
370.94	387.9	1.18
372.73	389.69	1.18
374.51	391.32	1.18
376.3	393.1	1.19
378.07	394.44	1.19
379.85	395.86	1.19
381.62	397.23	1.19
383.38	398.77	1.2
385.15	400.21	1.2
386.92	401.56	1.2
388.68	402.87	1.21
390.44	404.11	1.21
392.19	405.29	1.21
393.95	406.53	1.21
395.7	407.67	1.22
397.45	408.64	1.22

System: octan-1-ol; phases: Crystal, Gas
Property: Molar heat capacity at saturation pressure, J/K/mol (Crystal); method: VADIAC:UFactor:2
Temperature, K	Molar heat capacity at saturation pressure, J/K/mol	uncertainty
10	2.14	0.06
20	9.9	0.13
30	22.74	0.17
40	36.64	0.23
50	50.35	0.28
60	63.04	0.33
70	74.5	0.38
80	84.76	0.42
90	94.02	0.59
100	102.1	0.6
110	109.7	0.6
120	116.5	0.6
130	123	0.6
140	129.1	0.7
150	135.1	0.7
160	141.2	0.7
170	147	0.7
180	152.9	0.7
190	158.8	0.7
200	165.1	0.7
210	171.7	0.7
220	178.1	0.8
230	184.6	0.8
240	191.1	0.8
250	197.6	0.8
258.43	203.1	0.8

System: octan-1-ol; phases: Liquid, Gas
Property: Molar heat capacity at saturation pressure, J/K/mol (Liquid); method: VADIAC:UFactor:2
Temperature, K	Molar heat capacity at saturation pressure, J/K/mol	uncertainty
258.43	274.9	1
260	276	1
270	283	1
280	290.6	1
290	300	1
298.15	308.1	1
300	310.1	1
310	320.6	1
320	331.9	1.1
330	343.5	1.1
340	355.3	1.1
350	366.7	1.1
360	377.5	1.2
370	387.1	1.2
380	396	1.2
390	403.8	1.2

System: octan-1-ol; phases: Crystal
Fixed: Pressure, kPa = 101.325
Property: Molar enthalpy, kJ/mol (Crystal); method: VADIAC:UFactor:2
Temperature, K	Molar enthalpy, kJ/mol	uncertainty
10	0.0035	0.0003
20	0.0549	0.001
30	0.214	0.003
40	0.509	0.005
50	0.944	0.008
60	1.512	0.011
70	2.201	0.014
80	2.998	0.018
90	3.895	0.044
100	4.874	0.05
110	5.935	0.056
120	7.067	0.062
130	8.265	0.069
140	9.525	0.075
150	10.847	0.082
160	12.228	0.089
170	13.668	0.095
180	15.167	0.102
190	16.726	0.109
200	18.346	0.117
210	20.029	0.124
220	21.777	0.132
230	23.59	0.139
240	25.469	0.147
250	27.413	0.155
258.43	29.102	0.162

System: octan-1-ol; phases: Liquid
Fixed: Pressure, kPa = 101.325
Property: Molar enthalpy, kJ/mol (Liquid); method: VADIAC:UFactor:2
Temperature, K	Molar enthalpy, kJ/mol	uncertainty
258.43	54.234	0.212
260	54.666	0.213
270	57.461	0.223
280	60.338	0.233
290	63.292	0.243
298.15	65.772	0.251
300	66.343	0.253
310	69.495	0.263
320	72.757	0.274
330	76.135	0.284
340	79.629	0.295
350	83.239	0.307
360	86.96	0.318
370	90.785	0.33
380	94.702	0.341
390	98.702	0.353

System: octan-1-ol; phases: Crystal
Fixed: Pressure, kPa = 101.325
Property: Molar entropy, J/K/mol (Crystal); method: VADIAC:UFactor:2
Temperature, K	Molar entropy, J/K/mol	uncertainty
10	0.46	0.04
20	3.71	0.09
30	10	0.18
40	18.4	0.23
50	28.03	0.29
60	38.37	0.35
70	48.96	0.41
80	59.59	0.48
90	70.15	0.81
100	80.45	0.84
110	90.56	0.87
120	100.4	0.9
130	110	0.9
140	119.3	1
150	128.4	1
160	137.4	1
170	146.1	1
180	154.7	1.1
190	163.1	1.1
200	171.4	1.1
210	179.6	1.1
220	187.7	1.2
230	195.8	1.2
240	203.8	1.2
250	211.7	1.2
258.43	218.4	1.3

System: octan-1-ol; phases: Liquid
Fixed: Pressure, kPa = 101.325
Property: Molar entropy, J/K/mol (Liquid); method: VADIAC:UFactor:2
Temperature, K	Molar entropy, J/K/mol	uncertainty
258.43	315.6	1.5
260	317.3	1.6
270	327.8	1.6
280	338.3	1.6
290	348.7	1.6
298.15	357.1	1.7
300	359	1.7
310	369.4	1.7
320	379.7	1.7
330	390.1	1.8
340	400.5	1.8
350	411	1.8
360	421.5	1.9
370	432	1.9
380	442.4	1.9
390	452.8	2

System: decan-1-ol; phases: Crystal, Liquid, Gas
Property: Molar enthalpy of transition or fusion, kJ/mol (Crystal); method: ADIACA:UFactor:2
Molar enthalpy of transition or fusion, kJ/mol	uncertainty
33.67	0.441

System: decan-1-ol; phases: Crystal, Liquid, Gas
Property: Triple point temperature, K (Crystal); method: ADIACA:UFactor:2
Triple point temperature, K	uncertainty
280	0.08

System: decan-1-ol; phases: Crystal, Gas
Property: Molar heat capacity at saturation pressure, J/K/mol (Crystal); method: VADIAC:UFactor:2
Temperature, K	Molar heat capacity at saturation pressure, J/K/mol	uncertainty
5.55	0.74	0.03
5.64	1.03	0.04
5.67	1.07	0.04
6.16	0.68	0.03
6.5	0.83	0.03
6.7	0.84	0.03
7.37	1.13	0.04
8.64	1.81	0.05
8.65	1.58	0.05
8.66	1.55	0.05
9.87	2.12	0.05
10.31	2.28	0.06
10.43	2.39	0.06
11.82	2.42	0.06
12	2.5	0.06
12.05	2.55	0.06
13.67	4.4	0.08
13.94	4.68	0.09
14.01	4.72	0.09
15.31	5.87	0.1
15.69	6.24	0.1
15.79	6.38	0.11
17.19	7.9	0.12
17.63	8.42	0.13
17.72	8.5	0.13
19.32	10.35	0.14
19.82	11.05	0.15
19.92	11.18	0.15
21.51	13.16	0.16
22.06	13.96	0.17
22.16	14.08	0.17
23.8	16.35	0.18
24.42	17.26	0.18
24.51	17.38	0.18
26.2	20.08	0.19
26.87	20.79	0.19
26.96	20.96	0.19
28.69	23.9	0.2
29.4	24.78	0.2
29.49	24.89	0.2
30.92	27.38	0.19
31.28	28.13	0.2
31.93	28.92	0.2
33.77	32.15	0.21
36.14	36.01	0.23
38.42	40.02	0.24
40.75	43.5	0.26
43.12	47.25	0.27
45.52	51.05	0.29
47.96	55	0.3
50.44	59.06	0.32
52.95	63.07	0.33
55.5	67.11	0.35
58.09	71.13	0.37
60.7	75.26	0.38
63.34	79.18	0.4
66.01	82.81	0.41
68.71	86.35	0.43
71.43	89.88	0.44
74.18	93.36	0.45
76.92	96.71	0.47
79.58	99.9	0.48
82.14	102.85	0.49
84.63	105.79	0.5
87.05	108.08	0.51
89.41	111.02	0.52
91.72	113.03	0.63
93.98	115.26	0.63
96.19	117.42	0.64
98.36	119.35	0.64
100.49	121.62	0.64
101.87	121.58	0.64
102.58	122.7	0.65
104.62	124.55	0.65
107.54	127.13	0.65
110.43	129.59	0.66
113.33	132.08	0.66
116.23	134.43	0.67
119.13	136.64	0.67
122.04	139.24	0.68
124.95	141.17	0.68
127.87	143.57	0.69
130.8	145.3	0.69
132.92	147.4	0.7
133.72	148.63	0.7
134.15	148.38	0.7
136.23	150.01	0.7
136.65	150.07	0.7
139.18	152.21	0.71
139.59	152.88	0.71
142.11	154.39	0.71
142.53	154.2	0.71
145.04	156.43	0.71
145.48	155.88	0.71
147.97	158.42	0.72
148.43	158.53	0.72
150.91	160.36	0.72
151.37	159.91	0.72
153.85	162.66	0.73
156.78	164.7	0.73
159.72	166.73	0.73
162.67	168.67	0.74
165.61	170.56	0.74
168.56	172.56	0.75
171.5	174.48	0.75
174.45	176.31	0.75
177.4	178.37	0.76
180.35	180.39	0.76
183.3	182.52	0.77
186.25	184.33	0.77
189.19	186.23	0.77
192.14	188.22	0.78
195.09	190.24	0.78
198.03	192.29	0.78
200.98	194.46	0.79
203.92	196.69	0.79
206.87	199.08	0.8
209.82	201.58	0.8
212.77	204.11	0.81
215.71	206.65	0.81
218.67	209.39	0.82
221.62	212.04	0.82
224.58	214.79	0.83
227.54	217.31	0.83
230.49	219.67	0.84
233.44	222.38	0.84
236.4	225.04	0.85
239.36	227.79	0.86
242.32	230.74	0.86
245.27	233.1	0.87
248.22	235.9	0.87
251.18	239.43	0.88
254.13	243	0.89
257.07	246.84	0.89
260.01	250.8	0.9
262.94	255.03	0.91
265.85	260.57	0.92
268.73	268.46	0.94
271.55	282.12	0.97

System: decan-1-ol; phases: Liquid, Gas
Property: Molar heat capacity at saturation pressure, J/K/mol (Liquid); method: VADIAC:UFactor:2
Temperature, K	Molar heat capacity at saturation pressure, J/K/mol	uncertainty
282.91	358.86	1.12
285.35	361.01	1.12
287.77	363.22	1.13
290.19	365.86	1.13
292.59	368.37	1.14
294.99	371.16	1.14
297.37	373.68	1.15
299.75	376.7	1.15
302.11	378.7	1.16
304.46	381.48	1.16
306.8	384.26	1.17
309.13	386.97	1.17
310.82	388.98	1.18
311.49	389.98	1.18
312.97	391.42	1.18
315.26	394.31	1.19
317.54	397.13	1.19
319.81	400.16	1.2
322.06	403.05	1.21
324.31	405.72	1.21
326.55	408.55	1.22
328.78	411.36	1.22
331.01	414.11	1.23
333.22	416.89	1.23
335.43	419.7	1.24
337.63	422.74	1.25
339.82	424.33	1.25
342	428.23	1.26
344.17	430.82	1.26
346.33	433.27	1.27
348.48	435.92	1.27
350.63	438.6	1.28
352.77	441.15	1.28
354.89	443.71	1.29
357.01	446.07	1.29
359.13	448.66	1.3
361.23	451.07	1.3
363.33	453.17	1.31
365.43	455.63	1.31
367.51	458.2	1.32
369.59	459.67	1.32
371.67	461.76	1.32
373.74	463.9	1.33
375.81	465.88	1.33
377.87	467.86	1.34
379.92	469.67	1.34
381.97	471.19	1.34
384.02	473.13	1.35
386.07	474.36	1.35
388.12	476.04	1.35

System: decan-1-ol; phases: Crystal, Gas
Property: Molar heat capacity at saturation pressure, J/K/mol (Crystal); method: VADIAC:UFactor:2
Temperature, K	Molar heat capacity at saturation pressure, J/K/mol	uncertainty
10	2.17	0.06
20	11.29	0.15
30	25.66	0.19
40	42.38	0.25
50	58.34	0.32
60	74.16	0.38
70	88.03	0.43
80	100.4	0.5
90	111.6	0.6
100	121.1	0.6
110	129.2	0.7
120	137.4	0.7
130	144.8	0.7
140	153.3	0.7
150	159.7	0.7
160	166.9	0.7
170	173.5	0.7
180	180.2	0.8
190	186.8	0.8
200	193.7	0.8
210	201.7	0.8
220	210.6	0.8
230	219.3	0.8
240	228.4	0.9
250	237.3	0.9
260	246.3	0.9
270	255.2	0.9
280	264.1	0.9

System: decan-1-ol; phases: Liquid, Gas
Property: Molar heat capacity at saturation pressure, J/K/mol (Liquid); method: VADIAC:UFactor:2
Temperature, K	Molar heat capacity at saturation pressure, J/K/mol	uncertainty
280	354.9	1.1
290	365.8	1.1
298.15	374.6	1.2
300	377	1.2
310	388	1.2
320	400.4	1.2
330	412.9	1.2
340	424.6	1.3
350	437.8	1.3
360	449.7	1.3
370	460.1	1.3
380	469.7	1.3

System: decan-1-ol; phases: Crystal
Fixed: Pressure, kPa = 101.325
Property: Molar enthalpy, kJ/mol (Crystal); method: VADIAC:UFactor:2
Temperature, K	Molar enthalpy, kJ/mol	uncertainty
10	0.00648	0.00032
20	0.06537	0.00116
30	0.248	0.0034
40	0.592	0.0056
50	1.095	0.0085
60	1.758	0.0119
70	2.571	0.016
80	3.514	0.0206
90	4.573	0.0452
100	5.736	0.0515
110	6.987	0.058
120	8.321	0.0647
130	9.734	0.0715
140	11.224	0.0785
150	12.787	0.0856
160	14.422	0.0929
170	16.123	0.1003
180	17.891	0.1078
190	19.726	0.1155
200	21.628	0.1233
210	23.604	0.1313
220	25.665	0.1394
230	27.816	0.1477
240	30.054	0.1562
250	32.383	0.1648
260	34.801	0.1737
270	37.308	0.1827
280	39.904	0.1919

System: decan-1-ol; phases: Liquid
Fixed: Pressure, kPa = 101.325
Property: Molar enthalpy, kJ/mol (Liquid); method: VADIAC:UFactor:2
Temperature, K	Molar enthalpy, kJ/mol	uncertainty
280	73.721	0.2595
290	77.325	0.2707
298.15	80.342	0.28
300	81.037	0.2822
310	84.862	0.2938
320	88.804	0.3057
330	92.87	0.3178
340	97.058	0.3302
350	101.37	0.3429
360	105.807	0.3557
370	110.356	0.3688
380	115.005	0.3821

System: decan-1-ol; phases: Crystal
Fixed: Pressure, kPa = 101.325
Property: Molar entropy, J/K/mol (Crystal); method: VADIAC:UFactor:2
Temperature, K	Molar entropy, J/K/mol	uncertainty
10	0.88	0.05
20	4.59	0.11
30	11.81	0.19
40	21.58	0.25
50	32.73	0.32
60	44.78	0.39
70	57.29	0.46
80	69.86	0.54
90	82.33	0.85
100	94.56	0.88
110	106.5	0.9
120	118.1	1
130	129.4	1
140	140.4	1
150	151.2	1.1
160	161.8	1.1
170	172.1	1.1
180	182.2	1.1
190	192.1	1.2
200	201.9	1.2
210	211.5	1.2
220	221.1	1.3
230	230.6	1.3
240	240.2	1.3
250	249.7	1.4
260	259.1	1.4
270	268.6	1.4
280	278.1	1.4

System: decan-1-ol; phases: Liquid
Fixed: Pressure, kPa = 101.325
Property: Molar entropy, J/K/mol (Liquid); method: VADIAC:UFactor:2
Temperature, K	Molar entropy, J/K/mol	uncertainty
280	398.9	1.8
290	411.5	1.8
298.15	421.8	1.9
300	424.1	1.9
310	436.6	1.9
320	449.2	1.9
330	461.7	2
340	474.2	2
350	486.7	2.1
360	499.2	2.1
370	511.6	2.1
380	524	2.2
