Measured thermophysical data. Relative Permittivity, Viscosity, and Speed of Sound for 2-Methoxyethanol + Butylamine Mixtures
Source: J. Chem. Eng. Data, 2003, 10.1021/je030127e
Compound 1: 2-methoxyethan-1-ol, C3H8O2, InChI=1S/C3H8O2/c1-5-3-2-4/h4H,2-3H2,1H3
Compound 2: 1-butanamine, C4H11N, InChI=1S/C4H11N/c1-2-3-4-5/h2-5H2,1H3

System: 2-methoxyethan-1-ol; phases: Liquid
Fixed: Pressure, kPa = 101.3
Property: Viscosity, Pa*s (Liquid); method: Capillary tube (Ostwald; Ubbelohde) method
Temperature, K	Viscosity, Pa*s	uncertainty
293.15	0.001708	1.3e-05
298.15	0.001544	1.2e-05
303.15	0.001404	1.1e-05

System: 2-methoxyethan-1-ol; phases: Liquid
Property: Speed of sound, m/s (Liquid); method: OTHER
Pressure, kPa	Temperature, K	Speed of sound, m/s	uncertainty
101.3	298.15	1344.5	1.1

System: 1-butanamine; phases: Liquid
Fixed: Pressure, kPa = 101.3
Property: Viscosity, Pa*s (Liquid); method: Capillary tube (Ostwald; Ubbelohde) method
Temperature, K	Viscosity, Pa*s	uncertainty
293.15	0.000525	5e-06
298.15	0.000496	5e-06
303.15	0.000467	5e-06

System: 1-butanamine; phases: Liquid
Property: Speed of sound, m/s (Liquid); method: OTHER
Pressure, kPa	Temperature, K	Speed of sound, m/s	uncertainty
101.3	298.15	1251.6	1.1

System: 1-butanamine + 2-methoxyethan-1-ol; phases: Liquid
Fixed: Pressure, kPa = 101.3
Fixed: Temperature, K = 298.15
Property: Speed of sound, m/s (Liquid); method: OTHER
Mole fraction of 2-methoxyethan-1-ol	Speed of sound, m/s	uncertainty
0	1251.6	1.1
0.0501	1257	1.1
0.0999	1262.3	1.1
0.1508	1267.7	1.1
0.2001	1273.1	1.1
0.2509	1278.4	1.1
0.3	1283.6	1.1
0.3498	1288.8	1.1
0.4001	1294	1.1
0.4511	1299.1	1.1
0.5001	1304	1.1
0.5496	1308.8	1.1
0.5997	1313.5	1.1
0.6503	1318.1	1.1
0.7	1322.4	1.1
0.7492	1326.6	1.1
0.7999	1330.7	1.1
0.8491	1334.5	1.1
0.8993	1338	1.1
0.95	1341.4	1.1
1	1344.5	1.1

System: 1-butanamine + 2-methoxyethan-1-ol; phases: Liquid
Fixed: Pressure, kPa = 101.3
Property: Viscosity, Pa*s (Liquid); method: Capillary tube (Ostwald; Ubbelohde) method
Temperature, K	Mole fraction of 2-methoxyethan-1-ol	Viscosity, Pa*s	uncertainty
293.15	0	0.000525	5e-06
293.15	0.0501	0.000566	5e-06
293.15	0.0999	0.000613	6e-06
293.15	0.1508	0.000669	6e-06
293.15	0.2001	0.000731	6e-06
293.15	0.2509	0.000801	7e-06
293.15	0.3	0.000879	7e-06
293.15	0.3498	0.000964	8e-06
293.15	0.4001	0.001053	8e-06
293.15	0.4511	0.001146	9e-06
293.15	0.5001	0.001238	1e-05
293.15	0.5496	0.001327	1e-05
293.15	0.5997	0.001412	1.1e-05
293.15	0.6503	0.001488	1.2e-05
293.15	0.7	0.001552	1.2e-05
293.15	0.7492	0.001604	1.2e-05
293.15	0.7999	0.001643	1.3e-05
293.15	0.8491	0.001671	1.3e-05
293.15	0.8993	0.001686	1.3e-05
293.15	0.95	0.001696	1.3e-05
293.15	1	0.001708	1.3e-05
298.15	0	0.000496	5e-06
298.15	0.0501	0.000536	5e-06
298.15	0.0999	0.000578	6e-06
298.15	0.1508	0.000625	6e-06
298.15	0.2001	0.00068	6e-06
298.15	0.2509	0.000743	6e-06
298.15	0.3	0.00081	7e-06
298.15	0.3498	0.000886	7e-06
298.15	0.4001	0.000966	8e-06
298.15	0.4511	0.001049	8e-06
298.15	0.5001	0.001133	9e-06
298.15	0.5496	0.001214	1e-05
298.15	0.5997	0.00129	1e-05
298.15	0.6503	0.001358	1.1e-05
298.15	0.7	0.001415	1.1e-05
298.15	0.7492	0.001461	1.1e-05
298.15	0.7999	0.001493	1.2e-05
298.15	0.8491	0.001516	1.2e-05
298.15	0.8993	0.001525	1.2e-05
298.15	0.95	0.001533	1.2e-05
298.15	1	0.001544	1.2e-05
303.15	0	0.000467	5e-06
303.15	0.0501	0.000504	5e-06
303.15	0.0999	0.000544	5e-06
303.15	0.1508	0.000588	6e-06
303.15	0.2001	0.000636	6e-06
303.15	0.2509	0.000691	6e-06
303.15	0.3	0.00075	7e-06
303.15	0.3498	0.000815	7e-06
303.15	0.4001	0.000885	7e-06
303.15	0.4511	0.000957	8e-06
303.15	0.5001	0.001031	8e-06
303.15	0.5496	0.001103	9e-06
303.15	0.5997	0.00117	9e-06
303.15	0.6503	0.001232	1e-05
303.15	0.7	0.001286	1e-05
303.15	0.7492	0.001327	1e-05
303.15	0.7999	0.001359	1.1e-05
303.15	0.8491	0.001379	1.1e-05
303.15	0.8993	0.001389	1.1e-05
303.15	0.95	0.001395	1.1e-05
303.15	1	0.001404	1.1e-05
