Measured thermophysical data. Thermodynamic Investigation of the Azeotropic Binary Mixture Water + n-Propanol
Source: J. Chem. Eng. Data, 2005, 10.1021/je0342668
Compound 1: water, H2O, InChI=1S/H2O/h1H2
Compound 2: propan-1-ol, C3H8O, InChI=1S/C3H8O/c1-2-3-4/h4H,2-3H2,1H3, purity 99.8%

System: propan-1-ol + water; phases: Liquid, Gas
Fixed: Mole fraction of water = 0.568
Property: Molar heat capacity at constant pressure, J/K/mol (Liquid); method: VADIAC:UFactor:2
Temperature, K	Molar heat capacity at constant pressure, J/K/mol	uncertainty
262.424	106.611	0.613
264.631	107.35	0.615
266.824	108.315	0.617
269.021	109.169	0.618
271.19	109.878	0.62
273.354	110.578	0.621
275.499	111.101	0.622
277.637	111.891	0.624
279.757	112.628	0.625
281.866	113.367	0.627
283.945	114.173	0.628
286.004	114.781	0.63
288.064	115.381	0.631
290.078	116.09	0.632
292.068	116.596	0.633
294.062	117.181	0.634
296.025	117.949	0.636
298.019	118.533	0.637
300.046	119.167	0.638
302.068	119.939	0.64
304.118	120.614	0.641
306.151	121.223	0.642
308.184	121.921	0.644
310.211	122.561	0.645
312.236	123.003	0.646
314.262	123.589	0.647
316.273	124.29	0.649
318.277	124.811	0.65
