Measured thermophysical data. Measurement of the Critical Parameters and the Saturation Densities of Dimethyl Ether
Source: J. Chem. Eng. Data, 2004, 10.1021/je034251+
Compound 1: dimethyl ether, C2H6O, InChI=1S/C2H6O/c1-3-2/h1-2H3, purity 99.95%

System: dimethyl ether; phases: Liquid, Gas
Property: Critical pressure, kPa (Liquid); method: Extrapolated vapor pressure
Critical pressure, kPa	uncertainty
5356	44

System: dimethyl ether; phases: Liquid, Gas
Property: Critical temperature, K (Liquid); method: Visual observation in an unstirred cell
Critical temperature, K	uncertainty
400.378	0.062

System: dimethyl ether; phases: Liquid, Gas
Property: Critical density, kg/m3 (Liquid); method: OTHER
Critical density, kg/m3	uncertainty
272	2

System: dimethyl ether; phases: Liquid, Gas
Property: Mass density, kg/m3 (Liquid); method: ISOCHOR
Temperature, K	Mass density, kg/m3	uncertainty
301.816	654.54	0.33
320.083	623.9	0.33
330.634	604.34	0.33
339.469	585.82	0.33
347.338	567.13	0.32
358.996	540.45	0.32
365.688	522.25	0.32
372.151	503.13	0.32
378.807	479.19	0.32
384.495	454.66	0.32
393.654	405.87	0.32
398.21	361.58	0.34
400.323	299.12	0.43
400.349	285.01	0.47
400.362	278.92	0.49
400.377	276.19	0.5

System: dimethyl ether; phases: Gas, Liquid
Property: Mass density, kg/m3 (Gas); method: ISOCHOR
Temperature, K	Mass density, kg/m3	uncertainty
366.695	66.75	0.2
380.954	96.42	0.2
390.864	130.05	0.21
396.059	161.3	0.22
399.344	203.55	0.28
400.349	253.84	0.54
400.361	264.02	0.63
