Measured thermophysical data. Vapor-Liquid Equilibrium for Propylene Glycol + 2-(2-Hexyloxyethoxy)ethanol and 1-Methyl-2-pyrrolidone + 1-Methoxypropan-2-ol
Source: J. Chem. Eng. Data, 2004, 10.1021/je034096z
Compound 1: 1,2-propanediol, C3H8O2, InChI=1S/C3H8O2/c1-3(5)2-4/h3-5H,2H2,1H3, purity 99.5%
Compound 2: 2-(2-hexyloxyethoxy)ethanol, C10H22O3, InChI=1S/C10H22O3/c1-2-3-4-5-7-12-9-10-13-8-6-11/h11H,2-10H2,1H3, purity 98%
Compound 3: N-methylpyrrolidone, C5H9NO, InChI=1S/C5H9NO/c1-6-4-2-3-5(6)7/h2-4H2,1H3, purity 99.9%
Compound 4: 1-methoxy-2-propanol, C4H10O2, InChI=1S/C4H10O2/c1-4(5)3-6-2/h4-5H,3H2,1-2H3, purity 99%

System: 1,2-propanediol; phases: Liquid, Gas
Property: Vapor or sublimation pressure, kPa (Liquid); method: EBULLIO:UFactor:8
Temperature, K	Vapor or sublimation pressure, kPa	uncertainty
393.22	8.198	0.067
393.25	8.207	0.067
398.09	10.226	0.068
403.14	12.766	0.07
403.15	12.7709	0.6989
408.3	15.893	0.072
413.1	19.364	0.074
413.15	19.3944	0.7399
418.16	23.675	0.077
423.15	28.691	0.7976
423.26	28.814	0.081

System: 2-(2-hexyloxyethoxy)ethanol; phases: Liquid, Gas
Property: Vapor or sublimation pressure, kPa (Liquid); method: EBULLIO:UFactor:4
Temperature, K	Vapor or sublimation pressure, kPa	uncertainty
402.96	1.1106	0.0405
403.01	1.1172	0.0405
403.15	1.1239	0.6266
408.02	1.4346	0.0406
413.15	1.8305	0.631
413.2	1.8345	0.0407
418.17	2.2931	0.0409
422.87	2.8251	0.0412
423.15	2.8584	0.0412

System: N-methylpyrrolidone; phases: Liquid, Gas
Property: Vapor or sublimation pressure, kPa (Liquid); method: EBULLIO:UFactor:4
Temperature, K	Vapor or sublimation pressure, kPa	uncertainty
352.27	1.2852	0.0314
352.48	1.2972	0.0314
353.15	1.344	0.314
359.26	1.8225	0.0316
363.15	2.193	0.317
363.36	2.2172	0.0317
368.27	2.7771	0.0319
373.09	3.4437	0.0321
373.15	3.456	0.321
377.86	4.229	0.0323

System: 1-methoxy-2-propanol; phases: Liquid, Gas
Property: Vapor or sublimation pressure, kPa (Liquid); method: EBULLIO:UFactor:4
Temperature, K	Vapor or sublimation pressure, kPa	uncertainty
347.62	19.2451	0.0382
352.64	23.7434	0.0399
353.15	24.248	0.385
357.89	29.3549	0.0421
362.93	35.7237	0.0448
363.15	36.028	0.422
368.03	43.2911	0.048
373.15	52.161	0.472
373.22	52.3037	0.0518
378.01	61.8896	0.0554

System: 1,2-propanediol + 2-(2-hexyloxyethoxy)ethanol; phases: Liquid, Gas
Property: Vapor or sublimation pressure, kPa (Liquid); method: EBULLIO:UFactor:8
Mole fraction of 1,2-propanediol	Temperature, K	Vapor or sublimation pressure, kPa	uncertainty
0	403.15	1.1239	0.445
0	413.15	1.8305	0.4732
0	423.15	2.8584	0.5143
0.0233	413.15	2.0625	0.4825
0.0233	423.15	3.2211	0.5289
0.0234	403.15	1.2746	0.451
0.0559	423.15	4.0837	0.5634
0.056	413.15	2.5958	0.5038
0.0623	403.15	1.5905	0.4636
0.0923	413.15	3.869	0.5548
0.0926	403.15	2.4985	0.4999
0.093	423.15	5.8702	0.6348
0.1432	423.15	8.9579	0.7583
0.1453	413.15	6.0742	0.643
0.1613	403.15	4.0223	0.5609
0.257	403.15	5.5995	0.624
0.2577	413.15	8.6606	0.7465
0.2586	423.15	12.9949	0.9199
0.365	423.15	16.772	1.071
0.3662	413.15	11.1737	0.847
0.3813	403.15	7.2674	0.6908
0.4755	423.15	19.4424	1.1778
0.4766	413.15	13.2002	0.9281
0.4847	403.15	8.7219	0.7489
0.5578	423.15	22.0195	1.2809
0.602	413.15	14.8588	0.9945
0.6057	403.15	9.6819	0.7874
0.7209	423.15	24.0767	1.3632
0.724	413.15	16.3133	1.0526
0.7348	403.15	10.7391	0.8297
0.8352	423.15	26.1259	1.4452
0.8365	413.15	17.6505	1.1061
0.8378	403.15	11.5111	0.8605
0.9195	423.15	27.0218	1.481
0.924	403.15	12.0097	0.8805
0.9261	413.15	18.2532	1.1303
0.9653	423.15	27.6511	1.5062
0.9704	413.15	18.6985	1.1481
0.9723	403.15	12.259	0.8905
0.9866	413.15	19.0971	1.164
0.9868	423.15	28.2497	1.5301
0.9881	403.15	12.563	0.9026
1	403.15	12.7709	0.9109
1	413.15	19.3944	1.1759
1	423.15	28.691	1.5478

System: 1,2-propanediol + 2-(2-hexyloxyethoxy)ethanol; phases: Liquid, Gas
Property: Mole fraction of 1,2-propanediol (Liquid); method: Chromatography
Mole fraction of 1,2-propanediol	Temperature, K	Mole fraction of 1,2-propanediol	uncertainty
0	403.15	0	0.1
0	413.15	0	0.1
0	423.15	0	0.1
0.0233	413.15	0.0041	0.0001
0.0233	423.15	0.0039	0.0001
0.0234	403.15	0.0037	0.0001
0.0559	423.15	0.0086	0.0001
0.056	413.15	0.0084	0.0001
0.0623	403.15	0.0093	0.0001
0.0923	413.15	0.0123	0.0001
0.0926	403.15	0.0122	0.0001
0.093	423.15	0.0131	0.0001
0.1432	423.15	0.0184	0.0002
0.1453	413.15	0.0184	0.0002
0.1613	403.15	0.0189	0.0002
0.257	403.15	0.0265	0.0003
0.2577	413.15	0.03	0.0003
0.2586	423.15	0.0294	0.0003
0.365	423.15	0.0394	0.0004
0.3662	413.15	0.0408	0.0004
0.3813	403.15	0.0418	0.0004
0.4755	423.15	0.0551	0.0006
0.4766	413.15	0.0513	0.0005
0.4847	403.15	0.048	0.0005
0.5578	423.15	0.07	0.0007
0.602	413.15	0.0708	0.0007
0.6057	403.15	0.067	0.0007
0.7209	423.15	0.1008	0.001
0.724	413.15	0.0953	0.001
0.7348	403.15	0.0861	0.0009
0.8352	423.15	0.1498	0.0015
0.8365	413.15	0.1341	0.0013
0.8378	403.15	0.1149	0.0012
0.9195	423.15	0.242	0.0024
0.924	403.15	0.2028	0.002
0.9261	413.15	0.2245	0.0022
0.9653	423.15	0.3811	0.0038
0.9704	413.15	0.3944	0.004
0.9723	403.15	0.4552	0.0046
0.9866	413.15	0.7206	0.0028
0.9868	423.15	0.7012	0.003
0.9881	403.15	0.7257	0.0028
1	403.15	1	0.0001
1	413.15	1	0.0001
1	423.15	1	0.0001

System: 1-methoxy-2-propanol + N-methylpyrrolidone; phases: Liquid, Gas
Property: Vapor or sublimation pressure, kPa (Liquid); method: EBULLIO:UFactor:4
Mole fraction of N-methylpyrrolidone	Temperature, K	Vapor or sublimation pressure, kPa	uncertainty
0	353.15	24.248	0.385
0	363.15	36.028	0.422
0	373.15	52.161	0.472
0.0215	363.15	35.235	0.471
0.0231	353.15	23.727	0.405
0.0239	373.15	50.989	0.547
0.056	373.15	49.017	0.534
0.0562	363.15	33.854	0.46
0.0568	353.15	22.775	0.401
0.1077	353.15	21.576	0.397
0.1079	363.15	32.093	0.447
0.109	373.15	46.412	0.525
0.1614	373.15	43.479	0.529
0.1623	353.15	20.173	0.393
0.1651	363.15	30.029	0.452
0.2281	373.15	39.604	0.521
0.2296	363.15	27.333	0.448
0.2349	353.15	18.376	0.391
0.3195	373.15	34.321	0.507
0.3221	363.15	23.569	0.432
0.3302	353.15	15.658	0.384
0.4067	373.15	29.278	0.487
0.4119	363.15	19.957	0.421
0.428	353.15	13.035	0.375
0.5127	373.15	23.619	0.468
0.5226	363.15	15.635	0.403
0.528	353.15	10.342	0.367
0.5754	373.15	20.179	0.455
0.5792	353.15	8.994	0.36
0.5804	363.15	13.537	0.394
0.6438	373.15	16.75	0.43
0.6474	363.15	11.286	0.381
0.6477	353.15	7.374	0.351
0.7344	353.15	5.553	0.342
0.7371	373.15	12.623	0.409
0.7382	363.15	8.48	0.367
0.8185	373.15	9.337	0.388
0.8211	363.15	6.138	0.354
0.8245	353.15	3.894	0.333
0.9093	363.15	3.989	0.341
0.9102	373.15	6.096	0.371
0.9103	353.15	2.544	0.327
0.9492	373.15	4.897	0.359
0.9543	363.15	3.08	0.334
0.9562	353.15	1.879	0.324
0.9719	363.15	2.692	0.333
0.9722	373.15	4.194	0.352
0.9727	353.15	1.665	0.321
1	353.15	1.344	0.314
1	363.15	2.193	0.317
1	373.15	3.456	0.321

System: 1-methoxy-2-propanol + N-methylpyrrolidone; phases: Gas, Liquid
Property: Mole fraction of N-methylpyrrolidone (Gas); method: Chromatography
Mole fraction of N-methylpyrrolidone	Temperature, K	Mole fraction of N-methylpyrrolidone	uncertainty
0	353.15	0	0.0001
0	363.15	0	0.0001
0	373.15	0	0.0001
0.0215	363.15	0.0002	0.0002
0.0231	353.15	0.0002	0.0002
0.0239	373.15	0.0002	0.0002
0.056	373.15	0.0005	0.0005
0.0562	363.15	0.0005	0.0005
0.0568	353.15	0.0005	0.0005
0.1077	353.15	0.0008	0.0008
0.1079	363.15	0.0007	0.0007
0.109	373.15	0.001	0.001
0.1614	373.15	0.0023	0.0023
0.1623	353.15	0.0022	0.0022
0.1651	363.15	0.0022	0.0022
0.2281	373.15	0.0048	0.0048
0.2296	363.15	0.0046	0.0046
0.2349	353.15	0.0044	0.0044
0.3195	373.15	0.0104	0.01
0.3221	363.15	0.009	0.009
0.3302	353.15	0.0094	0.0094
0.4067	373.15	0.0177	0.01
0.4119	363.15	0.0155	0.01
0.428	353.15	0.0151	0.01
0.5127	373.15	0.024	0.01
0.5226	363.15	0.0259	0.01
0.528	353.15	0.0257	0.01
0.5754	373.15	0.0324	0.01
0.5792	353.15	0.0324	0.01
0.5804	363.15	0.0312	0.01
0.6438	373.15	0.0517	0.01
0.6474	363.15	0.0491	0.01
0.6477	353.15	0.0493	0.01
0.7344	353.15	0.094	0.0101
0.7371	373.15	0.0926	0.0101
0.7382	363.15	0.0961	0.0101
0.8185	373.15	0.1626	0.0106
0.8211	363.15	0.1627	0.0107
0.8245	353.15	0.1797	0.0106
0.9093	363.15	0.3879	0.0121
0.9102	373.15	0.3736	0.0119
0.9103	353.15	0.3776	0.0123
0.9492	373.15	0.5477	0.0154
0.9543	363.15	0.5761	0.0146
0.9562	353.15	0.6173	0.0152
0.9719	363.15	0.7174	0.0214
0.9722	373.15	0.7217	0.0206
0.9727	353.15	0.7246	0.0205
1	353.15	1	0.0001
1	363.15	1	0.0001
1	373.15	1	0.0001
