Measured thermophysical data. Experimental Densities and Excess Volumes for Binary Mixtures Containing Propionic Acid, Acetone and Water from 283.15 K to 323.15 K at Atmospheric Pressure
Source: J. Chem. Eng. Data, 2003, 10.1021/je030102f
Compound 1: propanoic acid, C3H6O2, InChI=1S/C3H6O2/c1-2-3(4)5/h2H2,1H3,(H,4,5), purity 99%
Compound 2: acetone, C3H6O, InChI=1S/C3H6O/c1-3(2)4/h1-2H3, purity 99.7%
Compound 3: water, H2O, InChI=1S/H2O/h1H2, purity 99.9%

System: propanoic acid; phases: Liquid
Fixed: Pressure, kPa = 101.325
Property: Mass density, kg/m3 (Liquid); method: VIBTUB:mpoint
Temperature, K	Mass density, kg/m3	uncertainty
283.151	1004.112	0.513
288.149	998.688	0.511
293.146	993.261	0.508
298.146	987.847	0.505
303.145	982.44	0.503
308.147	977.037	0.5
313.145	971.635	0.498
318.145	966.24	0.495
323.15	960.843	0.492

System: acetone; phases: Liquid
Fixed: Pressure, kPa = 101.325
Property: Mass density, kg/m3 (Liquid); method: VIBTUB:mpoint
Temperature, K	Mass density, kg/m3	uncertainty
283.154	801.669	0.145
288.149	796.037	0.145
293.146	790.355	0.144
298.146	784.638	0.144
303.145	778.876	0.144
308.146	773.065	0.144
313.145	767.205	0.143
318.145	761.288	0.143
323.144	755.314	0.143

System: water; phases: Liquid
Fixed: Pressure, kPa = 101.325
Property: Mass density, kg/m3 (Liquid); method: VIBTUB:mpoint
Temperature, K	Mass density, kg/m3	uncertainty
283.15	999.691	0.082
288.148	999.083	0.082
293.145	998.181	0.083
298.146	997.019	0.083
303.145	995.617	0.083
308.147	994.001	0.084
313.146	992.181	0.084
318.145	990.13	0.084
323.145	988.003	0.084

System: propanoic acid + water; phases: Liquid
Fixed: Pressure, kPa = 101.325
Property: Mass density, kg/m3 (Liquid); method: VIBTUB:mpoint
Mole fraction of propanoic acid	Temperature, K	Mass density, kg/m3	uncertainty
0	283.15	999.691	0.082
0	288.148	999.083	0.082
0	293.145	998.181	0.083
0	298.146	997.019	0.083
0	303.145	995.617	0.083
0	308.147	994.001	0.084
0	313.146	992.181	0.084
0	318.145	990.13	0.084
0	323.145	988.003	0.084
0.1298	283.151	1026.892	0.131
0.1298	288.148	1023.974	0.133
0.1298	293.146	1020.975	0.133
0.1298	298.147	1017.845	0.133
0.1298	303.145	1014.61	0.132
0.1298	308.149	1011.276	0.132
0.1298	313.145	1007.848	0.132
0.1298	318.145	1004.324	0.132
0.1298	323.144	1000.708	0.141
0.2029	283.153	1033.97	0.161
0.2029	288.148	1030.054	0.164
0.2029	293.145	1026.077	0.163
0.2029	298.145	1022.053	0.163
0.2029	303.148	1017.971	0.163
0.2029	308.146	1013.836	0.162
0.2029	313.145	1009.645	0.162
0.2029	318.145	1005.395	0.162
0.2029	323.145	1001.085	0.164
0.3012	283.152	1034.467	0.206
0.3012	288.148	1029.92	0.206
0.3012	293.145	1025.583	0.205
0.3012	298.144	1021.142	0.205
0.3012	303.145	1016.76	0.204
0.3012	308.149	1012.254	0.204
0.3012	313.145	1007.692	0.203
0.3012	318.145	1003.085	0.203
0.3012	323.145	998.434	0.203
0.4007	283.152	1032.634	0.25
0.4007	288.144	1027.989	0.25
0.4007	293.146	1023.308	0.249
0.4007	298.146	1018.606	0.248
0.4007	303.145	1013.877	0.248
0.4007	308.149	1009.12	0.247
0.4007	313.146	1004.329	0.246
0.4007	318.145	999.507	0.245
0.4007	323.145	994.651	0.245
0.5008	283.15	1029.263	0.295
0.5008	288.148	1024.441	0.295
0.5008	293.146	1019.592	0.294
0.5008	298.145	1014.722	0.292
0.5008	303.145	1009.797	0.292
0.5008	308.147	1004.168	0.29
0.5008	313.145	999.956	0.289
0.5008	318.145	994.902	0.288
0.5008	323.147	990.008	0.287
0.5989	283.153	1025.171	0.339
0.5989	288.148	1020.223	0.338
0.5989	293.147	1015.256	0.336
0.5989	298.147	1010.279	0.335
0.5989	303.145	1005.287	0.333
0.5989	308.146	1000.274	0.332
0.5989	313.145	995.242	0.331
0.5989	318.145	990.186	0.329
0.5989	323.144	985.106	0.328
0.6974	283.151	1020.512	0.382
0.6974	288.149	1015.46	0.381
0.6974	293.145	1010.391	0.379
0.6974	298.145	1005.312	0.377
0.6974	303.149	1000.223	0.375
0.6974	308.146	995.12	0.374
0.6974	313.145	990.001	0.372
0.6974	318.145	984.864	0.37
0.6974	323.149	979.705	0.369
0.7965	283.153	1015.434	0.426
0.7965	288.148	1010.263	0.424
0.7965	293.147	1005.103	0.422
0.7965	298.144	999.927	0.42
0.7965	303.145	994.744	0.418
0.7965	308.145	989.551	0.416
0.7965	313.146	984.345	0.414
0.7965	318.145	979.126	0.412
0.7965	323.144	973.895	0.41
0.8915	283.155	1010.323	0.467
0.8915	288.144	1005.044	0.464
0.8915	293.146	999.76	0.462
0.8915	298.146	994.478	0.46
0.8915	303.147	989.192	0.458
0.8915	308.146	983.905	0.455
0.8915	313.145	978.613	0.453
0.8915	318.145	973.307	0.451
0.8915	323.144	967.999	0.449
1	283.151	1004.112	0.513
1	288.149	998.688	0.511
1	293.146	993.261	0.508
1	298.146	987.847	0.505
1	303.145	982.44	0.503
1	308.147	977.037	0.5
1	313.145	971.635	0.498
1	318.145	966.24	0.495
1	323.15	960.843	0.492

System: acetone + water; phases: Liquid
Fixed: Pressure, kPa = 101.325
Property: Mass density, kg/m3 (Liquid); method: VIBTUB:mpoint
Mole fraction of acetone	Temperature, K	Mass density, kg/m3	uncertainty
0	283.15	999.691	0.082
0	288.148	999.083	0.082
0	293.145	998.181	0.083
0	298.146	997.019	0.083
0	303.145	995.617	0.083
0	308.147	994.001	0.084
0	313.146	992.181	0.084
0	318.145	990.13	0.084
0	323.145	988.003	0.084
0.0988	283.152	966.507	0.101
0.0988	288.149	963.567	0.096
0.0988	293.146	960.497	0.097
0.0988	298.144	957.313	0.098
0.0988	303.146	954.01	0.099
0.0988	308.146	950.61	0.099
0.0988	313.145	947.117	0.1
0.0988	318.146	943.497	0.101
0.0988	323.146	939.767	0.096
0.2193	283.152	932.823	0.119
0.2193	288.148	928.61	0.117
0.2193	293.145	924.322	0.119
0.2193	298.145	919.968	0.12
0.2193	303.145	915.544	0.121
0.2193	308.147	911.052	0.122
0.2193	313.145	906.488	0.123
0.2193	318.145	901.855	0.124
0.2193	323.148	897.151	0.119
0.2973	283.152	913.382	0.129
0.2973	288.148	908.777	0.128
0.2973	293.145	904.105	0.129
0.2973	298.145	899.375	0.13
0.2973	303.144	894.587	0.131
0.2973	308.149	889.735	0.132
0.2973	313.145	884.822	0.132
0.2973	318.145	879.849	0.133
0.2973	323.144	874.812	0.132
0.3998	283.151	889.08	0.145
0.3998	288.148	884.145	0.143
0.3998	293.145	879.148	0.144
0.3998	298.145	874.098	0.144
0.3998	303.144	868.996	0.145
0.3998	308.149	863.836	0.146
0.3998	313.145	858.617	0.147
0.3998	318.145	853.341	0.147
0.3998	323.144	848.021	0.144
0.4986	283.151	868.988	0.153
0.4986	288.149	863.861	0.151
0.4986	293.146	858.674	0.151
0.4986	298.146	853.436	0.152
0.4986	303.145	848.142	0.153
0.4986	308.149	842.791	0.153
0.4986	313.146	837.381	0.154
0.4986	318.145	831.924	0.155
0.4986	323.145	826.399	0.152
0.5903	283.152	853.092	0.141
0.5903	288.149	847.829	0.139
0.5903	293.146	842.508	0.139
0.5903	298.144	837.135	0.14
0.5903	303.145	831.707	0.14
0.5903	308.145	826.22	0.14
0.5903	313.145	820.677	0.141
0.5903	318.148	815.068	0.141
0.5903	323.146	809.395	0.139
0.6984	283.151	836.647	0.137
0.6984	288.15	831.252	0.135
0.6984	293.146	825.797	0.135
0.6984	298.145	820.292	0.135
0.6984	303.145	814.735	0.135
0.6984	308.146	809.12	0.136
0.6984	313.145	803.446	0.136
0.6984	318.149	797.707	0.136
0.6984	323.145	791.9	0.133
0.7934	283.151	824.028	0.138
0.7934	288.148	818.534	0.136
0.7934	293.146	812.982	0.136
0.7934	298.145	807.383	0.136
0.7934	303.145	801.735	0.135
0.7934	308.149	796.028	0.135
0.7934	313.145	790.262	0.135
0.7934	318.145	784.437	0.135
0.7934	323.143	778.546	0.133
0.8916	283.154	812.997	0.14
0.8916	288.149	807.424	0.139
0.8916	293.146	801.797	0.139
0.8916	298.145	796.13	0.139
0.8916	303.145	790.413	0.139
0.8916	308.146	784.645	0.139
0.8916	313.145	778.818	0.138
0.8916	318.145	772.936	0.138
0.8916	323.144	766.99	0.137
1	283.154	801.669	0.145
1	288.149	796.037	0.145
1	293.146	790.355	0.144
1	298.146	784.638	0.144
1	303.145	778.876	0.144
1	308.146	773.065	0.144
1	313.145	767.205	0.143
1	318.145	761.288	0.143
1	323.144	755.314	0.143

System: acetone + propanoic acid; phases: Liquid
Fixed: Pressure, kPa = 101.325
Property: Mass density, kg/m3 (Liquid); method: VIBTUB:mpoint
Mole fraction of acetone	Temperature, K	Mass density, kg/m3	uncertainty
0	283.151	1004.11	0.513
0	288.149	998.688	0.511
0	293.146	993.261	0.508
0	298.146	987.847	0.505
0	303.145	982.44	0.5
0	308.147	977.037	0.5
0	313.145	971.635	0.498
0	318.145	966.24	0.49
0	323.144	960.843	0.492
0.1014	283.151	987.375	0.47
0.1014	288.149	982.013	0.468
0.1014	293.146	976.644	0.465
0.1014	298.146	971.282	0.463
0.1014	303.145	965.92	0.46
0.1014	308.146	960.555	0.458
0.1014	313.145	955.192	0.456
0.1014	318.145	949.825	0.453
0.1014	323.148	944.448	0.451
0.1991	283.151	970.353	0.43
0.1991	288.149	965.023	0.428
0.1991	293.146	959.68	0.43
0.1991	298.145	954.344	0.423
0.1991	303.145	948.999	0.421
0.1991	308.148	943.653	0.419
0.1991	313.146	938.294	0.417
0.1991	318.145	932.928	0.415
0.1991	323.144	927.551	0.413
0.3046	283.151	951.246	0.389
0.3046	288.148	945.944	0.388
0.3046	293.146	940.613	0.386
0.3046	298.146	935.277	0.384
0.3046	303.145	929.933	0.382
0.3046	308.15	924.579	0.38
0.3046	313.146	919.21	0.38
0.3046	318.145	913.828	0.376
0.3046	323.144	908.43	0.37
0.4011	283.15	933.088	0.355
0.4011	288.148	927.765	0.354
0.4011	293.146	922.423	0.352
0.4011	298.145	917.072	0.35
0.4011	303.145	911.708	0.349
0.4011	308.148	906.33	0.35
0.4011	313.146	900.935	0.345
0.4011	318.145	895.523	0.344
0.4011	323.144	890.087	0.343
0.5001	283.152	913.785	0.325
0.5001	288.148	908.446	0.323
0.5001	293.146	903.081	0.322
0.5001	298.145	897.705	0.321
0.5001	303.143	892.312	0.319
0.5001	308.148	886.9	0.318
0.5001	313.146	881.462	0.316
0.5001	318.145	876.007	0.315
0.603	283.153	892.899	0.283
0.603	288.148	887.52	0.282
0.603	293.147	882.117	0.281
0.603	298.146	876.699	0.28
0.603	303.145	871.26	0.279
0.603	308.146	865.798	0.277
0.603	313.145	860.309	0.276
0.603	318.145	854.791	0.275
0.603	323.146	849.244	0.274
0.6887	283.151	874.585	0.25
0.6887	288.149	869.18	0.249
0.6887	293.147	863.74	0.248
0.6887	298.145	858.28	0.247
0.6887	303.145	852.794	0.246
0.6887	308.149	847.276	0.245
0.6887	313.146	841.731	0.244
0.6887	318.145	836.154	0.243
0.6887	323.148	830.541	0.242
0.7703	283.15	856.85	0.219
0.7703	288.149	851.407	0.219
0.7703	293.147	845.923	0.218
0.7703	298.145	840.415	0.218
0.7703	303.145	834.877	0.217
0.7703	308.148	829.305	0.216
0.7703	313.145	823.695	0.215
0.7703	318.145	818.051	0.214
0.7703	323.144	812.366	0.215
0.8987	283.151	826.598	0.174
0.8987	288.149	821.062	0.175
0.8987	293.146	815.482	0.174
0.8987	298.145	809.87	0.173
0.8987	303.145	804.221	0.173
0.8987	308.148	798.532	0.172
0.8987	313.146	792.797	0.172
0.8987	318.145	787.018	0.171
0.8987	323.145	781.194	0.172
1	283.154	801.669	0.145
1	288.149	796.037	0.145
1	293.146	790.355	0.144
1	298.146	784.638	0.144
1	303.145	778.876	0.144
1	308.146	773.065	0.144
1	313.145	767.205	0.143
1	318.145	761.288	0.143
1	323.144	755.314	0.143
