Measured thermophysical data. Densities, Dynamic Viscosities, Speeds of Sound, and Relative Permittivities for Water + Alkanediols (Propane-1,2- and -1,3-diol and Butane-1,2-, -1,3-, -1,4-, and -2,3-Diol) at Different Temperatures
Source: J. Chem. Eng. Data, 2003, 10.1021/je0340755
Compound 1: water, H2O, InChI=1S/H2O/h1H2
Compound 2: 1,2-propanediol, C3H8O2, InChI=1S/C3H8O2/c1-3(5)2-4/h3-5H,2H2,1H3
Compound 3: propan-1,3-diol, C3H8O2, InChI=1S/C3H8O2/c4-2-1-3-5/h4-5H,1-3H2
Compound 4: 1,2-butanediol, C4H10O2, InChI=1S/C4H10O2/c1-2-4(6)3-5/h4-6H,2-3H2,1H3
Compound 5: 1,3-butanediol, C4H10O2, InChI=1S/C4H10O2/c1-4(6)2-3-5/h4-6H,2-3H2,1H3
Compound 6: 1,4-butanediol, C4H10O2, InChI=1S/C4H10O2/c5-3-1-2-4-6/h5-6H,1-4H2
Compound 7: 2,3-butanediol, C4H10O2, InChI=1S/C4H10O2/c1-3(5)4(2)6/h3-6H,1-2H3

System: water; phases: Liquid
Property: Refractive index (Na D-line) (Liquid); method: Standard Abbe refractometry
Temperature, K	Pressure, kPa	Refractive index (Na D-line)	uncertainty
298.15	101.325	1.3323	0.0004

System: water; phases: Liquid
Fixed: Pressure, kPa = 101.325
Property: Viscosity, Pa*s (Liquid); method: Capillary tube (Ostwald; Ubbelohde) method
Temperature, K	Viscosity, Pa*s	uncertainty
298.15	0.00089	6.3e-05
308.15	0.000719	6.3e-05
318.15	0.000596	6.3e-05
328.15	0.000503	6.3e-05
338.15	0.000438	6.3e-05

System: water; phases: Liquid
Fixed: Pressure, kPa = 101.325
Property: Speed of sound, m/s (Liquid); method: Linear variable-path acoustic interferometer
Temperature, K	Speed of sound, m/s	uncertainty
298.15	1498	2.1
308.15	1519	2.2
318.15	1535.1	2.2
328.15	1545	2.2
338.15	1551	2.2

System: 1,2-propanediol; phases: Liquid
Property: Refractive index (Na D-line) (Liquid); method: Standard Abbe refractometry
Temperature, K	Pressure, kPa	Refractive index (Na D-line)	uncertainty
298.15	101.325	1.4314	0.0004

System: 1,2-propanediol; phases: Liquid
Fixed: Pressure, kPa = 101.325
Property: Viscosity, Pa*s (Liquid); method: Capillary tube (Ostwald; Ubbelohde) method
Temperature, K	Viscosity, Pa*s	uncertainty
298.15	0.043428	0.000208
308.15	0.024247	0.000128
318.15	0.01278	8.8e-05
328.15	0.009691	7.9e-05
338.15	0.007044	7.3e-05

System: 1,2-propanediol; phases: Liquid
Fixed: Pressure, kPa = 101.325
Property: Speed of sound, m/s (Liquid); method: Linear variable-path acoustic interferometer
Temperature, K	Speed of sound, m/s	uncertainty
298.15	1500.1	2.2
308.15	1488.9	2.2
318.15	1438.1	2.2
328.15	1401	2.2
338.15	1382.8	2.1

System: 1,2-propanediol; phases: Liquid
Fixed: Pressure, kPa = 101.325
Property: Mass density, kg/m3 (Liquid); method: VIBTUB:UFactor:8
Temperature, K	Mass density, kg/m3	uncertainty
298.15	1032.77	0.44
308.15	1025.4	0.42
318.15	1017.32	0.4
328.15	1009.56	0.38
338.15	1001.81	0.36

System: propan-1,3-diol; phases: Liquid
Property: Refractive index (Na D-line) (Liquid); method: Standard Abbe refractometry
Temperature, K	Pressure, kPa	Refractive index (Na D-line)	uncertainty
298.15	101.325	1.4386	0.0004

System: propan-1,3-diol; phases: Liquid
Fixed: Pressure, kPa = 101.325
Property: Viscosity, Pa*s (Liquid); method: Capillary tube (Ostwald; Ubbelohde) method
Temperature, K	Viscosity, Pa*s	uncertainty
298.15	0.040067	0.000192
308.15	0.027248	0.000139
318.15	0.017011	0.000102
328.15	0.01128	8.4e-05
338.15	0.007939	7.5e-05

System: propan-1,3-diol; phases: Liquid
Fixed: Pressure, kPa = 101.325
Property: Speed of sound, m/s (Liquid); method: Linear variable-path acoustic interferometer
Temperature, K	Speed of sound, m/s	uncertainty
298.15	1636.1	2.3
308.15	1616	2.3
318.15	1599.2	2.2
328.15	1575.9	2.2
338.15	1557	2.2

System: propan-1,3-diol; phases: Liquid
Fixed: Pressure, kPa = 101.325
Property: Mass density, kg/m3 (Liquid); method: VIBTUB:UFactor:8
Temperature, K	Mass density, kg/m3	uncertainty
298.15	1049.99	0.49
308.15	1043.71	0.47
318.15	1037.37	0.45
328.15	1030.96	0.43
338.15	1024.47	0.42

System: 1,2-butanediol; phases: Liquid
Property: Refractive index (Na D-line) (Liquid); method: Standard Abbe refractometry
Temperature, K	Pressure, kPa	Refractive index (Na D-line)	uncertainty
298.15	101.325	1.4374	0.0004

System: 1,2-butanediol; phases: Liquid
Fixed: Pressure, kPa = 101.325
Property: Viscosity, Pa*s (Liquid); method: Capillary tube (Ostwald; Ubbelohde) method
Temperature, K	Viscosity, Pa*s	uncertainty
298.15	0.057457	0.000204
308.15	0.030177	0.000152
318.15	0.017412	0.000103
328.15	0.010902	8.3e-05
338.15	0.007257	7.3e-05

System: 1,2-butanediol; phases: Liquid
Fixed: Pressure, kPa = 101.325
Property: Speed of sound, m/s (Liquid); method: Linear variable-path acoustic interferometer
Temperature, K	Speed of sound, m/s	uncertainty
298.15	1452	2.2
308.15	1423.8	2.2
318.15	1396.2	2.2
328.15	1387	2.1
338.15	1366	2.1

System: 1,2-butanediol; phases: Liquid
Fixed: Pressure, kPa = 101.325
Property: Mass density, kg/m3 (Liquid); method: VIBTUB:UFactor:8
Temperature, K	Mass density, kg/m3	uncertainty
298.15	998.86	0.36
308.15	991.42	0.37
318.15	983.93	0.39
328.15	976.09	0.41
338.15	968.11	0.43

System: 1,3-butanediol; phases: Liquid
Property: Refractive index (Na D-line) (Liquid); method: Standard Abbe refractometry
Temperature, K	Pressure, kPa	Refractive index (Na D-line)	uncertainty
298.15	101.325	1.439	0.0004

System: 1,3-butanediol; phases: Liquid
Fixed: Pressure, kPa = 101.325
Property: Viscosity, Pa*s (Liquid); method: Capillary tube (Ostwald; Ubbelohde) method
Temperature, K	Viscosity, Pa*s	uncertainty
298.15	0.09725	0.001138
308.15	0.0525	0.000155
318.15	0.030487	0.000152
328.15	0.018912	0.000108
338.15	0.012276	8.7e-05

System: 1,3-butanediol; phases: Liquid
Fixed: Pressure, kPa = 101.325
Property: Speed of sound, m/s (Liquid); method: LVPAI:UFactor:4
Temperature, K	Speed of sound, m/s	uncertainty
298.15	1522.1	6.3
308.15	1492.1	6.2
318.15	1472	6.1
328.15	1453.9	6.1
338.15	1436.1	6

System: 1,3-butanediol; phases: Liquid
Fixed: Pressure, kPa = 101.325
Property: Mass density, kg/m3 (Liquid); method: VIBTUB:UFactor:8
Temperature, K	Mass density, kg/m3	uncertainty
298.15	1000.03	0.35
308.15	994.22	0.37
318.15	988.7	0.38
328.15	979.18	0.4
338.15	971.91	0.42

System: 1,4-butanediol; phases: Liquid
Property: Refractive index (Na D-line) (Liquid); method: Standard Abbe refractometry
Temperature, K	Pressure, kPa	Refractive index (Na D-line)	uncertainty
298.15	101.325	1.4442	0.0004

System: 1,4-butanediol; phases: Liquid
Fixed: Pressure, kPa = 101.325
Property: Viscosity, Pa*s (Liquid); method: Capillary tube (Ostwald; Ubbelohde) method
Temperature, K	Viscosity, Pa*s	uncertainty
298.15	0.072618	0.000503
308.15	0.044871	0.000215
318.15	0.029071	0.000147
328.15	0.01948	0.00011
338.15	0.013487	9e-05

System: 1,4-butanediol; phases: Liquid
Fixed: Pressure, kPa = 101.325
Property: Speed of sound, m/s (Liquid); method: LVPAI:UFactor:4
Temperature, K	Speed of sound, m/s	uncertainty
298.15	1605.1	6.5
308.15	1588	6.5
318.15	1570.8	6.4
328.15	1552.1	6.4
338.15	1529	6.3

System: 1,4-butanediol; phases: Liquid
Fixed: Pressure, kPa = 101.325
Property: Mass density, kg/m3 (Liquid); method: VIBTUB:UFactor:8
Temperature, K	Mass density, kg/m3	uncertainty
298.15	1012.57	0.45
308.15	1006.4	0.43
318.15	1000.76	0.41
328.15	984.14	7
338.15	987.93	0.45

System: 2,3-butanediol; phases: Liquid
Property: Refractive index (Na D-line) (Liquid); method: Standard Abbe refractometry
Temperature, K	Pressure, kPa	Refractive index (Na D-line)	uncertainty
298.15	101.325	1.4366	0.0004

System: 2,3-butanediol; phases: Liquid
Fixed: Pressure, kPa = 101.325
Property: Viscosity, Pa*s (Liquid); method: Capillary tube (Ostwald; Ubbelohde) method
Temperature, K	Viscosity, Pa*s	uncertainty
298.15	0.044684	0.000214
308.15	0.022947	0.000124
318.15	0.012802	8.8e-05
328.15	0.007722	7.4e-05
338.15	0.005195	6.9e-05

System: 2,3-butanediol; phases: Liquid
Fixed: Pressure, kPa = 101.325
Property: Speed of sound, m/s (Liquid); method: LVPAI:UFactor:4
Temperature, K	Speed of sound, m/s	uncertainty
298.15	1470.2	7.9
308.15	1440	7.8
318.15	1412.2	7.7
328.15	1392	7.6
338.15	1373.9	7.5

System: 2,3-butanediol; phases: Liquid
Fixed: Pressure, kPa = 101.325
Property: Mass density, kg/m3 (Liquid); method: VIBTUB:UFactor:8
Temperature, K	Mass density, kg/m3	uncertainty
298.15	998.57	2.03
308.15	992.11	2.03
318.15	984.13	2.03
328.15	970.58	2.04
338.15	961.97	2.04

System: 1,2-propanediol + water; phases: Liquid
Fixed: Pressure, kPa = 101.3
Property: Viscosity, Pa*s (Liquid); method: Capillary tube (Ostwald; Ubbelohde) method
Temperature, K	Mole fraction of water	Viscosity, Pa*s	uncertainty
298.15	0.044	0.041249	0.000196
298.15	0.0987	0.03841	0.000181
298.15	0.1484	0.035744	0.000168
298.15	0.2498	0.030202	0.000144
298.15	0.3494	0.024829	0.000123
298.15	0.4494	0.019708	0.000105
298.15	0.5029	0.017139	9.6e-05
298.15	0.5499	0.014997	9e-05
298.15	0.5597	0.014565	8.9e-05
298.15	0.6501	0.010839	7.9e-05
298.15	0.7499	0.007287	7.2e-05
298.15	0.85	0.004325	6.7e-05
298.15	0.9003	0.003049	6.5e-05
298.15	0.9115	0.002782	6.5e-05
298.15	0.9154	0.002692	6.5e-05
298.15	0.927	0.002425	6.4e-05
298.15	0.9367	0.002208	6.4e-05
298.15	0.9504	0.001907	6.4e-05
298.15	0.9551	0.001806	6.4e-05
298.15	0.96	0.001701	6.4e-05
298.15	0.9696	0.001501	6.4e-05
298.15	0.9797	0.001294	6.3e-05
298.15	0.9902	0.001083	6.3e-05
298.15	0.9923	0.001041	6.3e-05
298.15	0.9948	0.000992	6.3e-05
308.15	0.044	0.023027	0.000123
308.15	0.0987	0.021431	0.000116
308.15	0.1484	0.01993	0.00011
308.15	0.2498	0.016803	9.8e-05
308.15	0.3494	0.013774	8.8e-05
308.15	0.4494	0.0109	8e-05
308.15	0.5029	0.009465	7.7e-05
308.15	0.5499	0.008274	7.5e-05
308.15	0.5597	0.008034	7.4e-05
308.15	0.6501	0.005979	7e-05
308.15	0.7499	0.004049	6.6e-05
308.15	0.85	0.002473	6.4e-05
308.15	0.9003	0.00181	6.4e-05
308.15	0.9115	0.001673	6.4e-05
308.15	0.9154	0.001626	6.4e-05
308.15	0.927	0.001491	6.4e-05
308.15	0.9367	0.001379	6.3e-05
308.15	0.9504	0.001227	6.3e-05
308.15	0.9551	0.001177	6.3e-05
308.15	0.96	0.001124	6.3e-05
308.15	0.9696	0.001023	6.3e-05
308.15	0.9797	0.000919	6.3e-05
308.15	0.9902	0.000815	6.3e-05
308.15	0.9923	0.000794	6.3e-05
308.15	0.9948	0.000769	6.3e-05
318.15	0.044	0.01215	8.6e-05
318.15	0.0987	0.011313	8.3e-05
318.15	0.1484	0.010517	8.1e-05
318.15	0.2498	0.008875	7.6e-05
318.15	0.3494	0.007318	7.2e-05
318.15	0.4494	0.005893	7e-05
318.15	0.5029	0.005202	6.8e-05
318.15	0.5499	0.004639	6.8e-05
318.15	0.5597	0.004528	6.8e-05
318.15	0.6501	0.003576	6.6e-05
318.15	0.7499	0.002675	6.5e-05
318.15	0.85	0.001864	6.4e-05
318.15	0.9003	0.001462	6.4e-05
318.15	0.9115	0.00137	6.3e-05
318.15	0.9154	0.001338	6.3e-05
318.15	0.927	0.001242	6.3e-05
318.15	0.9367	0.00116	6.3e-05
318.15	0.9504	0.001043	6.3e-05
318.15	0.9551	0.001003	6.3e-05
318.15	0.96	0.00096	6.3e-05
318.15	0.9696	0.000876	6.3e-05
318.15	0.9797	0.000784	6.3e-05
318.15	0.9902	0.000688	6.3e-05
318.15	0.9923	0.000668	6.3e-05
318.15	0.9948	0.000645	6.3e-05
328.15	0.044	0.009223	7.8e-05
328.15	0.0987	0.008612	7.6e-05
328.15	0.1484	0.008046	7.5e-05
328.15	0.2498	0.006905	7.2e-05
328.15	0.3494	0.005842	7e-05
328.15	0.4494	0.004844	6.8e-05
328.15	0.5029	0.004335	6.7e-05
328.15	0.5499	0.003901	6.6e-05
328.15	0.5597	0.003811	6.6e-05
328.15	0.6501	0.003002	6.5e-05
328.15	0.7499	0.002147	6.4e-05
328.15	0.85	0.00136	6.3e-05
328.15	0.9003	0.001012	6.3e-05
328.15	0.9115	0.000942	6.3e-05
328.15	0.9154	0.000917	6.3e-05
328.15	0.927	0.000848	6.3e-05
328.15	0.9367	0.000793	6.3e-05
328.15	0.9504	0.00072	6.3e-05
328.15	0.9551	0.000695	6.3e-05
328.15	0.96	0.000672	6.3e-05
328.15	0.9696	0.000627	6.3e-05
328.15	0.9797	0.000582	6.3e-05
328.15	0.9902	0.000539	6.3e-05
328.15	0.9923	0.000531	6.3e-05
328.15	0.9948	0.000521	6.3e-05
338.15	0.044	0.00672	7.2e-05
338.15	0.0987	0.006302	7.1e-05
338.15	0.1484	0.005915	7e-05
338.15	0.2498	0.005133	6.9e-05
338.15	0.3494	0.004398	6.7e-05
338.15	0.4494	0.003698	6.6e-05
338.15	0.5029	0.003337	6.5e-05
338.15	0.5499	0.003027	6.5e-05
338.15	0.5597	0.002961	6.5e-05
338.15	0.6501	0.002378	6.4e-05
338.15	0.7499	0.00175	6.4e-05
338.15	0.85	0.001156	6.3e-05
338.15	0.9003	0.000882	6.3e-05
338.15	0.9115	0.000825	6.3e-05
338.15	0.9154	0.000806	6.3e-05
338.15	0.927	0.000749	6.3e-05
338.15	0.9367	0.000702	6.3e-05
338.15	0.9504	0.000639	6.3e-05
338.15	0.9551	0.000618	6.3e-05
338.15	0.96	0.000597	6.3e-05
338.15	0.9696	0.000556	6.3e-05
338.15	0.9797	0.000515	6.3e-05
338.15	0.9902	0.000474	6.3e-05
338.15	0.9923	0.000466	6.3e-05
338.15	0.9948	0.000457	6.3e-05

System: 1,2-propanediol + water; phases: Liquid
Fixed: Pressure, kPa = 101.3
Property: Speed of sound, m/s (Liquid); method: LVPAI:UFactor:4
Temperature, K	Mole fraction of water	Speed of sound, m/s	uncertainty
298.15	0.044	1511.4	6.3
298.15	0.0987	1518.3	6.3
298.15	0.1484	1523	6.3
298.15	0.2498	1531.6	6.3
298.15	0.3494	1551.3	6.4
298.15	0.4494	1581.6	6.5
298.15	0.5029	1602.9	6.5
298.15	0.5499	1622.2	6.6
298.15	0.5597	1626.9	6.6
298.15	0.6501	1660.5	6.7
298.15	0.7499	1687.6	6.8
298.15	0.85	1676.8	6.7
298.15	0.9003	1642.7	6.6
298.15	0.9115	1632.5	6.6
298.15	0.9154	1627.5	6.6
298.15	0.927	1614.3	6.6
298.15	0.9367	1602.1	6.5
298.15	0.9504	1582.9	6.5
298.15	0.9551	1577.5	6.4
298.15	0.96	1570.2	6.4
298.15	0.9696	1554.1	6.4
298.15	0.9797	1535.9	6.3
298.15	0.9902	1518	6.3
298.15	0.9923	1513.6	6.2
298.15	0.9948	1508.4	6.2
308.15	0.044	1502.9	6.2
308.15	0.0987	1509.5	6.3
308.15	0.1484	1513.1	6.3
308.15	0.2498	1524.5	6.3
308.15	0.3494	1541.8	6.3
308.15	0.4494	1565.2	6.4
308.15	0.5029	1581.4	6.5
308.15	0.5499	1598.4	6.5
308.15	0.5597	1602.2	6.5
308.15	0.6501	1640	6.6
308.15	0.7499	1672.3	6.7
308.15	0.85	1660.9	6.7
308.15	0.9003	1628.3	6.6
308.15	0.9115	1618.4	6.6
308.15	0.9154	1614.8	6.6
308.15	0.927	1603.4	6.5
308.15	0.9367	1593.2	6.5
308.15	0.9504	1578	6.4
308.15	0.9551	1572.6	6.4
308.15	0.96	1566.9	6.4
308.15	0.9696	1555.5	6.4
308.15	0.9797	1543.3	6.3
308.15	0.9902	1530.7	6.3
308.15	0.9923	1528.2	6.3
308.15	0.9948	1525.2	6.3
318.15	0.044	1451.7	6.1
318.15	0.0987	1458.8	6.1
318.15	0.1484	1463.2	6.1
318.15	0.2498	1476.1	6.2
318.15	0.3494	1495.1	6.2
318.15	0.4494	1520.3	6.3
318.15	0.5029	1537.6	6.3
318.15	0.5499	1555.5	6.4
318.15	0.5597	1559.6	6.4
318.15	0.6501	1599.9	6.5
318.15	0.7499	1637.6	6.6
318.15	0.85	1637.9	6.6
318.15	0.9003	1615	6.6
318.15	0.9115	1607.7	6.5
318.15	0.9154	1605	6.5
318.15	0.927	1596.5	6.5
318.15	0.9367	1589	6.5
318.15	0.9504	1577.7	6.4
318.15	0.9551	1573.6	6.4
318.15	0.96	1569.4	6.4
318.15	0.9696	1561	6.4
318.15	0.9797	1552.2	6.4
318.15	0.9902	1543.1	6.3
318.15	0.9923	1541.4	6.3
318.15	0.9948	1539.3	6.3
328.15	0.044	1414.3	6
328.15	0.0987	1421.8	6
328.15	0.1484	1426.6	6
328.15	0.2498	1440.5	6
328.15	0.3494	1460.2	6.1
328.15	0.4494	1486.4	6.2
328.15	0.5029	1504.2	6.2
328.15	0.5499	1522.6	6.3
328.15	0.5597	1526.7	6.3
328.15	0.6501	1568.3	6.4
328.15	0.7499	1609.2	6.5
328.15	0.85	1617.9	6.6
328.15	0.9003	1602.5	6.5
328.15	0.9115	1597.2	6.5
328.15	0.9154	1595.2	6.5
328.15	0.927	1589	6.5
328.15	0.9367	1583.4	6.5
328.15	0.9504	1575.1	6.4
328.15	0.9551	1572.2	6.4
328.15	0.96	1569.1	6.4
328.15	0.9696	1563.1	6.4
328.15	0.9797	1556.8	6.4
328.15	0.9902	1550.5	6.4
328.15	0.9923	1549.3	6.4
328.15	0.9948	1547.8	6.3
338.15	0.044	1395.8	5.9
338.15	0.0987	1403.2	5.9
338.15	0.1484	1408.2	5.9
338.15	0.2498	1422.2	6
338.15	0.3494	1441.9	6
338.15	0.4494	1468	6.1
338.15	0.5029	1485.6	6.2
338.15	0.5499	1503.8	6.2
338.15	0.5597	1507.9	6.2
338.15	0.6501	1549	6.4
338.15	0.7499	1590.8	6.5
338.15	0.85	1604.3	6.5
338.15	0.9003	1593.6	6.5
338.15	0.9115	1589.7	6.5
338.15	0.9154	1588.2	6.5
338.15	0.927	1583.5	6.5
338.15	0.9367	1579.2	6.4
338.15	0.9504	1572.9	6.4
338.15	0.9551	1570.7	6.4
338.15	0.96	1568.4	6.4
338.15	0.9696	1563.8	6.4
338.15	0.9797	1559.2	6.4
338.15	0.9902	1554.7	6.4
338.15	0.9923	1553.9	6.4
338.15	0.9948	1552.9	6.4

System: 1,2-propanediol + water; phases: Liquid
Fixed: Pressure, kPa = 101.3
Property: Mass density, kg/m3 (Liquid); method: VIBTUB:UFactor:8
Temperature, K	Mole fraction of water	Mass density, kg/m3	uncertainty
298.15	0.044	1033.39	0.43
298.15	0.0987	1034.15	0.43
298.15	0.1484	1034.84	0.42
298.15	0.2498	1036.3	0.42
298.15	0.3494	1037.8	0.41
298.15	0.4494	1039.24	0.41
298.15	0.5029	1039.87	0.4
298.15	0.5499	1040.27	0.4
298.15	0.5597	1040.33	0.4
298.15	0.6501	1040.2	0.39
298.15	0.7499	1037.73	0.38
298.15	0.85	1030.31	0.35
298.15	0.9003	1023.26	0.33
298.15	0.9115	1021.26	0.32
298.15	0.9154	1020.51	0.32
298.15	0.927	1018.16	0.31
298.15	0.9367	1016.02	0.31
298.15	0.9504	1012.69	0.3
298.15	0.9551	1011.46	0.29
298.15	0.96	1010.13	0.29
298.15	0.9696	1007.36	0.28
298.15	0.9797	1004.21	0.27
298.15	0.9902	1000.65	0.26
298.15	0.9923	999.9	0.26
298.15	0.9948	998.99	0.26
308.15	0.044	1026.01	0.41
308.15	0.0987	1026.76	0.41
308.15	0.1484	1027.45	0.4
308.15	0.2498	1028.92	0.4
308.15	0.3494	1030.43	0.39
308.15	0.4494	1031.91	0.39
308.15	0.5029	1032.59	0.38
308.15	0.5499	1033.05	0.38
308.15	0.5597	1033.12	0.38
308.15	0.6501	1033.19	0.37
308.15	0.7499	1031.14	0.36
308.15	0.85	1024.53	0.34
308.15	0.9003	1018.14	0.31
308.15	0.9115	1016.3	0.31
308.15	0.9154	1015.63	0.31
308.15	0.927	1013.47	0.3
308.15	0.9367	1011.51	0.29
308.15	0.9504	1008.45	0.28
308.15	0.9551	1007.32	0.28
308.15	0.96	1006.1	0.27
308.15	0.9696	1003.55	0.27
308.15	0.9797	1000.65	0.26
308.15	0.9902	997.36	0.26
308.15	0.9923	996.67	0.27
308.15	0.9948	995.83	0.27
318.15	0.044	1017.94	0.39
318.15	0.0987	1018.71	0.39
318.15	0.1484	1019.41	0.38
318.15	0.2498	1020.89	0.37
318.15	0.3494	1022.37	0.37
318.15	0.4494	1023.79	0.36
318.15	0.5029	1024.44	0.36
318.15	0.5499	1024.88	0.36
318.15	0.5597	1024.96	0.36
318.15	0.6501	1025.1	0.35
318.15	0.7499	1023.4	0.34
318.15	0.85	1017.63	0.31
318.15	0.9003	1011.96	0.29
318.15	0.9115	1010.33	0.29
318.15	0.9154	1009.72	0.29
318.15	0.927	1007.79	0.28
318.15	0.9367	1006.03	0.27
318.15	0.9504	1003.28	0.27
318.15	0.9551	1002.26	0.26
318.15	0.96	1001.16	0.26
318.15	0.9696	998.86	0.26
318.15	0.9797	996.22	0.27
318.15	0.9902	993.24	0.27
318.15	0.9923	992.61	0.28
318.15	0.9948	991.85	0.28
328.15	0.044	1010.15	0.37
328.15	0.0987	1010.89	0.37
328.15	0.1484	1011.57	0.36
328.15	0.2498	1012.99	0.35
328.15	0.3494	1014.43	0.35
328.15	0.4494	1015.82	0.34
328.15	0.5029	1016.47	0.34
328.15	0.5499	1016.94	0.33
328.15	0.5597	1017.01	0.33
328.15	0.6501	1017.26	0.33
328.15	0.7499	1015.84	0.31
328.15	0.85	1010.71	0.29
328.15	0.9003	1005.57	0.28
328.15	0.9115	1004.09	0.27
328.15	0.9154	1003.54	0.27
328.15	0.927	1001.78	0.26
328.15	0.9367	1000.17	0.26
328.15	0.9504	997.67	0.26
328.15	0.9551	996.73	0.27
328.15	0.96	995.72	0.27
328.15	0.9696	993.62	0.27
328.15	0.9797	991.21	0.28
328.15	0.9902	988.47	0.29
328.15	0.9923	987.9	0.29
328.15	0.9948	987.19	0.29
338.15	0.044	1002.38	0.35
338.15	0.0987	1003.08	0.35
338.15	0.1484	1003.72	0.34
338.15	0.2498	1005.08	0.33
338.15	0.3494	1006.46	0.32
338.15	0.4494	1007.81	0.32
338.15	0.5029	1008.45	0.31
338.15	0.5499	1008.91	0.31
338.15	0.5597	1008.99	0.31
338.15	0.6501	1009.3	0.3
338.15	0.7499	1008.09	0.29
338.15	0.85	1003.47	0.27
338.15	0.9003	998.8	0.26
338.15	0.9115	997.45	0.27
338.15	0.9154	996.94	0.27
338.15	0.927	995.33	0.27
338.15	0.9367	993.86	0.28
338.15	0.9504	991.56	0.28
338.15	0.9551	990.71	0.28
338.15	0.96	989.78	0.29
338.15	0.9696	987.84	0.29
338.15	0.9797	985.63	0.3
338.15	0.9902	983.11	0.31
338.15	0.9923	982.58	0.31
338.15	0.9948	981.93	0.31

System: propan-1,3-diol + water; phases: Liquid
Fixed: Pressure, kPa = 101.3
Property: Viscosity, Pa*s (Liquid); method: Capillary tube (Ostwald; Ubbelohde) method
Temperature, K	Mole fraction of water	Viscosity, Pa*s	uncertainty
298.15	0.0622	0.037147	0.000176
298.15	0.1496	0.032924	0.000157
298.15	0.2563	0.027677	0.000135
298.15	0.35	0.023093	0.000117
298.15	0.4555	0.018092	9.9e-05
298.15	0.5	0.016068	9.3e-05
298.15	0.5548	0.01367	8.6e-05
298.15	0.6522	0.009731	7.6e-05
298.15	0.7553	0.006136	7e-05
298.15	0.8522	0.003434	6.5e-05
298.15	0.9085	0.00222	6.4e-05
298.15	0.9147	0.002104	6.4e-05
298.15	0.9255	0.00191	6.4e-05
298.15	0.935	0.001749	6.4e-05
298.15	0.9548	0.001442	6.4e-05
298.15	0.9556	0.00143	6.3e-05
298.15	0.9602	0.001365	6.3e-05
298.15	0.97	0.001233	6.3e-05
298.15	0.9801	0.001107	6.3e-05
298.15	0.9897	0.000997	6.3e-05
298.15	0.9921	0.000971	6.3e-05
298.15	0.9951	0.000939	6.3e-05
308.15	0.0622	0.025309	0.000131
308.15	0.1496	0.022462	0.000118
308.15	0.2563	0.018902	0.000104
308.15	0.35	0.015799	9.4e-05
308.15	0.4555	0.012436	8.4e-05
308.15	0.5	0.011085	8e-05
308.15	0.5548	0.00949	7.6e-05
308.15	0.6522	0.006881	7.1e-05
308.15	0.7553	0.004495	6.7e-05
308.15	0.8522	0.00266	6.5e-05
308.15	0.9085	0.001794	6.4e-05
308.15	0.9147	0.001708	6.4e-05
308.15	0.9255	0.001562	6.4e-05
308.15	0.935	0.001439	6.3e-05
308.15	0.9548	0.001197	6.3e-05
308.15	0.9556	0.001188	6.3e-05
308.15	0.9602	0.001135	6.3e-05
308.15	0.97	0.001025	6.3e-05
308.15	0.9801	0.000917	6.3e-05
308.15	0.9897	0.000819	6.3e-05
308.15	0.9921	0.000795	6.3e-05
308.15	0.9951	0.000766	6.3e-05
318.15	0.0622	0.015805	9.7e-05
318.15	0.1496	0.014162	9.1e-05
318.15	0.2563	0.012195	8.4e-05
318.15	0.35	0.010479	7.9e-05
318.15	0.4555	0.008554	7.5e-05
318.15	0.5	0.007749	7.3e-05
318.15	0.5548	0.006767	7.1e-05
318.15	0.6522	0.005075	6.8e-05
318.15	0.7553	0.003415	6.5e-05
318.15	0.8522	0.002057	6.4e-05
318.15	0.9085	0.001397	6.3e-05
318.15	0.9147	0.001331	6.3e-05
318.15	0.9255	0.001221	6.3e-05
318.15	0.935	0.001127	6.3e-05
318.15	0.9548	0.000945	6.3e-05
318.15	0.9556	0.000938	6.3e-05
318.15	0.9602	0.000898	6.3e-05
318.15	0.97	0.000817	6.3e-05
318.15	0.9801	0.000737	6.3e-05
318.15	0.9897	0.000667	6.3e-05
318.15	0.9921	0.00065	6.3e-05
318.15	0.9951	0.000629	6.3e-05
328.15	0.0622	0.010487	8.1e-05
328.15	0.1496	0.009407	7.8e-05
328.15	0.2563	0.008114	7.4e-05
328.15	0.35	0.006986	7.2e-05
328.15	0.4555	0.005721	6.9e-05
328.15	0.5	0.005192	6.8e-05
328.15	0.5548	0.004547	6.7e-05
328.15	0.6522	0.003436	6.6e-05
328.15	0.7553	0.002346	6.4e-05
328.15	0.8522	0.001456	6.4e-05
328.15	0.9085	0.001024	6.3e-05
328.15	0.9147	0.000981	6.3e-05
328.15	0.9255	0.000909	6.3e-05
328.15	0.935	0.000848	6.3e-05
328.15	0.9548	0.000729	6.3e-05
328.15	0.9556	0.000725	6.3e-05
328.15	0.9602	0.000699	6.3e-05
328.15	0.97	0.000646	6.3e-05
328.15	0.9801	0.000594	6.3e-05
328.15	0.9897	0.000549	6.3e-05
328.15	0.9921	0.000538	6.3e-05
328.15	0.9951	0.000524	6.3e-05
338.15	0.0622	0.007386	7.3e-05
338.15	0.1496	0.006633	7.2e-05
338.15	0.2563	0.005732	7e-05
338.15	0.35	0.004946	6.8e-05
338.15	0.4555	0.004065	6.7e-05
338.15	0.5	0.003696	6.6e-05
338.15	0.5548	0.003247	6.5e-05
338.15	0.6522	0.002473	6.4e-05
338.15	0.7553	0.001715	6.4e-05
338.15	0.8522	0.001096	6.3e-05
338.15	0.9085	0.000797	6.3e-05
338.15	0.9147	0.000767	6.3e-05
338.15	0.9255	0.000717	6.3e-05
338.15	0.935	0.000675	6.3e-05
338.15	0.9548	0.000593	6.3e-05
338.15	0.9556	0.00059	6.3e-05
338.15	0.9602	0.000572	6.3e-05
338.15	0.97	0.000536	6.3e-05
338.15	0.9801	0.000501	6.3e-05
338.15	0.9897	0.000469	6.3e-05
338.15	0.9921	0.000462	6.3e-05
338.15	0.9951	0.000453	6.3e-05

System: propan-1,3-diol + water; phases: Liquid
Fixed: Pressure, kPa = 101.3
Property: Speed of sound, m/s (Liquid); method: LVPAI:UFactor:4
Temperature, K	Mole fraction of water	Speed of sound, m/s	uncertainty
298.15	0.0622	1650.1	6.7
298.15	0.1496	1654.3	6.7
298.15	0.2563	1670.2	6.7
298.15	0.35	1693.5	6.8
298.15	0.4555	1717.8	6.9
298.15	0.5	1723.1	6.9
298.15	0.5548	1726.1	6.9
298.15	0.6522	1723.3	6.9
298.15	0.7553	1712.1	6.9
298.15	0.8522	1689.1	6.8
298.15	0.9085	1653.2	6.7
298.15	0.9147	1646.8	6.7
298.15	0.9255	1636.1	6.6
298.15	0.935	1623.9	6.6
298.15	0.9548	1596	6.5
298.15	0.9556	1594	6.5
298.15	0.9602	1586	6.5
298.15	0.97	1568.2	6.4
298.15	0.9801	1547.1	6.3
298.15	0.9897	1525.3	6.3
298.15	0.9921	1519.1	6.3
298.15	0.9951	1511	6.2
308.15	0.0622	1627.1	6.6
308.15	0.1496	1634.1	6.6
308.15	0.2563	1645.9	6.7
308.15	0.35	1662.2	6.7
308.15	0.4555	1681	6.8
308.15	0.5	1688	6.8
308.15	0.5548	1695.1	6.8
308.15	0.6522	1702.2	6.8
308.15	0.7553	1698.8	6.8
308.15	0.8522	1676.1	6.7
308.15	0.9085	1642.1	6.6
308.15	0.9147	1637.1	6.6
308.15	0.9255	1627.1	6.6
308.15	0.935	1617.2	6.6
308.15	0.9548	1594.1	6.5
308.15	0.9556	1593.1	6.5
308.15	0.9602	1586.2	6.5
308.15	0.97	1572.1	6.4
308.15	0.9801	1556.1	6.4
308.15	0.9897	1539.3	6.3
308.15	0.9921	1534.1	6.3
308.15	0.9951	1528.8	6.3
318.15	0.0622	1609.1	6.6
318.15	0.1496	1616	6.6
318.15	0.2563	1627.8	6.6
318.15	0.35	1643	6.7
318.15	0.4555	1661	6.7
318.15	0.5	1667	6.7
318.15	0.5548	1674.1	6.7
318.15	0.6522	1682	6.8
318.15	0.7553	1683	6.8
318.15	0.8522	1666.1	6.7
318.15	0.9085	1639.2	6.6
318.15	0.9147	1635.3	6.6
318.15	0.9255	1625.9	6.6
318.15	0.935	1617.9	6.6
318.15	0.9548	1598.1	6.5
318.15	0.9556	1592.2	6.5
318.15	0.9602	1580.1	6.4
318.15	0.97	1566.1	6.4
318.15	0.9801	1552.1	6.4
318.15	0.9897	1549.9	6.4
318.15	0.9921	1548.1	6.3
318.15	0.9951	1543.2	6.3
328.15	0.0622	1585.1	6.5
328.15	0.1496	1591.1	6.5
328.15	0.2563	1603.2	6.5
328.15	0.35	1618.2	6.6
328.15	0.4555	1635.8	6.6
328.15	0.5	1642.1	6.6
328.15	0.5548	1649.1	6.7
328.15	0.6522	1657.8	6.7
328.15	0.7553	1661.1	6.7
328.15	0.8522	1651.2	6.7
328.15	0.9085	1630	6.6
328.15	0.9147	1626.2	6.6
328.15	0.9255	1620.2	6.6
328.15	0.935	1613.2	6.5
328.15	0.9548	1597.2	6.5
328.15	0.9556	1596.1	6.5
328.15	0.9602	1591.8	6.5
328.15	0.97	1582.1	6.5
328.15	0.9801	1571.1	6.4
328.15	0.9897	1559.2	6.4
328.15	0.9921	1556.2	6.4
328.15	0.9951	1552.2	6.4
338.15	0.0622	1565.1	6.4
338.15	0.1496	1571.2	6.4
338.15	0.2563	1582.3	6.5
338.15	0.35	1594.8	6.5
338.15	0.4555	1611.1	6.6
338.15	0.5	1616.8	6.6
338.15	0.5548	1623.9	6.6
338.15	0.6522	1634.1	6.6
338.15	0.7553	1639	6.6
338.15	0.8522	1632	6.6
338.15	0.9085	1616	6.6
338.15	0.9147	1613.2	6.6
338.15	0.9255	1608.2	6.5
338.15	0.935	1603.1	6.5
338.15	0.9548	1591.1	6.5
338.15	0.9556	1591.3	6.5
338.15	0.9602	1587.1	6.5
338.15	0.97	1579.9	6.4
338.15	0.9801	1571	6.4
338.15	0.9897	1562	6.4
338.15	0.9921	1559.1	6.4
338.15	0.9951	1556	6.4

System: propan-1,3-diol + water; phases: Liquid
Fixed: Pressure, kPa = 101.3
Property: Mass density, kg/m3 (Liquid); method: VIBTUB:UFactor:8
Temperature, K	Mole fraction of water	Mass density, kg/m3	uncertainty
298.15	0.0622	1050.19	0.48
298.15	0.1496	1050.32	0.47
298.15	0.2563	1050.38	0.46
298.15	0.35	1050.3	0.45
298.15	0.4555	1049.74	0.44
298.15	0.5	1049.21	0.43
298.15	0.5548	1048.18	0.42
298.15	0.6522	1044.85	0.41
298.15	0.7553	1038.16	0.38
298.15	0.8522	1027.32	0.34
298.15	0.9085	1018.19	0.31
298.15	0.9147	1017.03	0.31
298.15	0.9255	1014.92	0.3
298.15	0.935	1012.97	0.3
298.15	0.9548	1008.63	0.28
298.15	0.9556	1008.44	0.28
298.15	0.9602	1007.37	0.28
298.15	0.97	1005	0.27
298.15	0.9801	1002.45	0.26
298.15	0.9897	999.9	0.26
298.15	0.9921	999.25	0.26
298.15	0.9951	998.42	0.26
308.15	0.0622	1043.88	0.46
308.15	0.1496	1044.01	0.45
308.15	0.2563	1044.07	0.44
308.15	0.35	1043.97	0.43
308.15	0.4555	1043.39	0.42
308.15	0.5	1042.86	0.41
308.15	0.5548	1041.87	0.41
308.15	0.6522	1038.75	0.39
308.15	0.7553	1032.55	0.36
308.15	0.8522	1022.53	0.33
308.15	0.9085	1014.02	0.3
308.15	0.9147	1012.94	0.3
308.15	0.9255	1010.96	0.29
308.15	0.935	1009.13	0.28
308.15	0.9548	1005.04	0.27
308.15	0.9556	1004.87	0.27
308.15	0.9602	1003.85	0.27
308.15	0.97	1001.61	0.26
308.15	0.9801	999.19	0.26
308.15	0.9897	996.76	0.26
308.15	0.9921	996.14	0.27
308.15	0.9951	995.35	0.27
318.15	0.0622	1037.53	0.44
318.15	0.1496	1037.64	0.43
318.15	0.2563	1037.68	0.42
318.15	0.35	1037.55	0.41
318.15	0.4555	1036.94	0.4
318.15	0.5	1036.42	0.39
318.15	0.5548	1035.46	0.39
318.15	0.6522	1032.48	0.37
318.15	0.7553	1026.64	0.35
318.15	0.8522	1017.23	0.31
318.15	0.9085	1009.22	0.29
318.15	0.9147	1008.19	0.28
318.15	0.9255	1006.32	0.28
318.15	0.935	1004.59	0.27
318.15	0.9548	1000.71	0.26
318.15	0.9556	1000.54	0.26
318.15	0.9602	999.58	0.26
318.15	0.97	997.45	0.26
318.15	0.9801	995.14	0.27
318.15	0.9897	992.82	0.28
318.15	0.9921	992.23	0.28
318.15	0.9951	991.47	0.28
328.15	0.0622	1031.1	0.42
328.15	0.1496	1031.18	0.41
328.15	0.2563	1031.17	0.4
328.15	0.35	1030.98	0.39
328.15	0.4555	1030.32	0.38
328.15	0.5	1029.79	0.37
328.15	0.5548	1028.83	0.37
328.15	0.6522	1025.94	0.35
328.15	0.7553	1020.39	0.33
328.15	0.8522	1011.49	0.3
328.15	0.9085	1003.89	0.27
328.15	0.9147	1002.92	0.27
328.15	0.9255	1001.14	0.26
328.15	0.935	999.49	0.26
328.15	0.9548	995.78	0.27
328.15	0.9556	995.62	0.27
328.15	0.9602	994.7	0.27
328.15	0.97	992.65	0.28
328.15	0.9801	990.44	0.28
328.15	0.9897	988.21	0.29
328.15	0.9921	987.63	0.29
328.15	0.9951	986.91	0.3
338.15	0.0622	1024.56	0.41
338.15	0.1496	1024.59	0.4
338.15	0.2563	1024.49	0.38
338.15	0.35	1024.2	0.37
338.15	0.4555	1023.41	0.36
338.15	0.5	1022.84	0.35
338.15	0.5548	1021.85	0.35
338.15	0.6522	1019	0.33
338.15	0.7553	1013.69	0.31
338.15	0.8522	1005.25	0.28
338.15	0.9085	998.04	0.26
338.15	0.9147	997.1	0.27
338.15	0.9255	995.41	0.27
338.15	0.935	993.83	0.28
338.15	0.9548	990.28	0.29
338.15	0.9556	990.13	0.29
338.15	0.9602	989.24	0.29
338.15	0.97	987.28	0.29
338.15	0.9801	985.14	0.3
338.15	0.9897	982.99	0.31
338.15	0.9921	982.43	0.31
338.15	0.9951	981.73	0.31

System: 1,2-butanediol + water; phases: Liquid
Fixed: Pressure, kPa = 101.3
Property: Viscosity, Pa*s (Liquid); method: Capillary tube (Ostwald; Ubbelohde) method
Temperature, K	Mole fraction of water	Viscosity, Pa*s	uncertainty
298.15	0.0471	0.054397	0.000165
298.15	0.1478	0.04722	0.000218
298.15	0.2481	0.039778	0.000181
298.15	0.3491	0.03256	0.00015
298.15	0.443	0.026415	0.000127
298.15	0.4971	0.023171	0.000115
298.15	0.5552	0.019925	0.000104
298.15	0.6494	0.015113	9e-05
298.15	0.7491	0.010479	7.8e-05
298.15	0.8547	0.005959	6.9e-05
298.15	0.9081	0.003869	6.6e-05
298.15	0.9144	0.003635	6.6e-05
298.15	0.9255	0.003232	6.5e-05
298.15	0.9353	0.002885	6.5e-05
298.15	0.9543	0.002241	6.4e-05
298.15	0.9562	0.002179	6.4e-05
298.15	0.9598	0.002063	6.4e-05
298.15	0.97	0.001743	6.4e-05
298.15	0.9806	0.001425	6.4e-05
298.15	0.9902	0.001152	6.3e-05
298.15	0.9923	0.001095	6.3e-05
298.15	0.9956	0.001006	6.3e-05
308.15	0.0471	0.02867	0.000145
308.15	0.1478	0.025183	0.000129
308.15	0.2481	0.021608	0.000114
308.15	0.3491	0.018104	0.000101
308.15	0.443	0.015044	9.1e-05
308.15	0.4971	0.013386	8.6e-05
308.15	0.5552	0.011687	8.1e-05
308.15	0.6494	0.009091	7.5e-05
308.15	0.7491	0.006504	7e-05
308.15	0.8547	0.0039	6.6e-05
308.15	0.9081	0.002651	6.5e-05
308.15	0.9144	0.002509	6.4e-05
308.15	0.9255	0.00226	6.4e-05
308.15	0.9353	0.002044	6.4e-05
308.15	0.9543	0.001635	6.4e-05
308.15	0.9562	0.001594	6.4e-05
308.15	0.9598	0.001519	6.4e-05
308.15	0.97	0.001308	6.3e-05
308.15	0.9806	0.001094	6.3e-05
308.15	0.9902	0.000906	6.3e-05
308.15	0.9923	0.000865	6.3e-05
308.15	0.9956	0.000802	6.3e-05
318.15	0.0471	0.016537	0.0001
318.15	0.1478	0.014532	9.2e-05
318.15	0.2481	0.012474	8.5e-05
318.15	0.3491	0.01046	7.9e-05
318.15	0.443	0.008706	7.5e-05
318.15	0.4971	0.007758	7.3e-05
318.15	0.5552	0.006789	7.1e-05
318.15	0.6494	0.005314	6.8e-05
318.15	0.7491	0.003848	6.6e-05
318.15	0.8547	0.002378	6.4e-05
318.15	0.9081	0.001675	6.4e-05
318.15	0.9144	0.001595	6.4e-05
318.15	0.9255	0.001455	6.4e-05
318.15	0.9353	0.001334	6.3e-05
318.15	0.9543	0.001105	6.4e-05
318.15	0.9562	0.001083	6.3e-05
318.15	0.9598	0.001041	6.3e-05
318.15	0.97	0.000923	6.3e-05
318.15	0.9806	0.000804	6.3e-05
318.15	0.9902	0.000699	6.3e-05
318.15	0.9923	0.000677	6.3e-05
318.15	0.9956	0.000642	6.3e-05
328.15	0.0471	0.010361	8.1e-05
328.15	0.1478	0.009126	7.7e-05
328.15	0.2481	0.007863	7.4e-05
328.15	0.3491	0.006626	7.1e-05
328.15	0.443	0.005547	6.9e-05
328.15	0.4971	0.004962	6.8e-05
328.15	0.5552	0.004363	6.7e-05
328.15	0.6494	0.003447	6.6e-05
328.15	0.7491	0.002533	6.4e-05
328.15	0.8547	0.001615	6.4e-05
328.15	0.9081	0.001177	6.3e-05
328.15	0.9144	0.001127	6.3e-05
328.15	0.9255	0.00104	6.3e-05
328.15	0.9353	0.000964	6.3e-05
328.15	0.9543	0.000821	6.3e-05
328.15	0.9562	0.000807	6.3e-05
328.15	0.9598	0.000781	6.3e-05
328.15	0.97	0.000707	6.3e-05
328.15	0.9806	0.000633	6.3e-05
328.15	0.9902	0.000568	6.3e-05
328.15	0.9923	0.000554	6.3e-05
328.15	0.9956	0.000532	6.3e-05
338.15	0.0471	0.006896	7.2e-05
338.15	0.1478	0.006061	7e-05
338.15	0.2481	0.005201	6.9e-05
338.15	0.3491	0.004361	6.7e-05
338.15	0.443	0.003638	6.6e-05
338.15	0.4971	0.003251	6.5e-05
338.15	0.5552	0.002859	6.5e-05
338.15	0.6494	0.002268	6.4e-05
338.15	0.7491	0.001689	6.4e-05
338.15	0.8547	0.001114	6.3e-05
338.15	0.9081	0.000843	6.3e-05
338.15	0.9144	0.000812	6.3e-05
338.15	0.9255	0.000759	6.3e-05
338.15	0.9353	0.000713	6.3e-05
338.15	0.9543	0.000626	6.3e-05
338.15	0.9562	0.000618	6.3e-05
338.15	0.9598	0.000602	6.3e-05
338.15	0.97	0.000558	6.3e-05
338.15	0.9806	0.000514	6.3e-05
338.15	0.9902	0.000476	6.3e-05
338.15	0.9923	0.000467	6.3e-05
338.15	0.9956	0.000455	6.3e-05

System: 1,2-butanediol + water; phases: Liquid
Fixed: Pressure, kPa = 101.3
Property: Speed of sound, m/s (Liquid); method: LVPAI:UFactor:8
Temperature, K	Mole fraction of water	Speed of sound, m/s	uncertainty
298.15	0.0471	1455.6	12.1
298.15	0.1478	1480.8	12.3
298.15	0.2481	1497.6	12.4
298.15	0.3491	1517.2	12.5
298.15	0.443	1545.9	12.7
298.15	0.4971	1564.2	12.8
298.15	0.5552	1581.1	12.9
298.15	0.6494	1600.3	13
298.15	0.7491	1622.2	13.2
298.15	0.8547	1666.2	13.4
298.15	0.9081	1670.6	13.5
298.15	0.9144	1667.8	13.4
298.15	0.9255	1660.6	13.4
298.15	0.9353	1651	13.3
298.15	0.9543	1623.1	13.2
298.15	0.9562	1619.5	13.1
298.15	0.9598	1612.5	13.1
298.15	0.97	1589.6	12.9
298.15	0.9806	1561	12.8
298.15	0.9902	1531.6	12.6
298.15	0.9923	1524.8	12.5
298.15	0.9956	1513.5	12.5
308.15	0.0471	1426	11.9
308.15	0.1478	1443.9	12.1
308.15	0.2481	1452.8	12.1
308.15	0.3491	1474	12.2
308.15	0.443	1496.6	12.4
308.15	0.4971	1508.1	12.5
308.15	0.5552	1519.5	12.5
308.15	0.6494	1542.9	12.7
308.15	0.7491	1585.6	12.9
308.15	0.8547	1640.7	13.3
308.15	0.9081	1647.5	13.3
308.15	0.9144	1645.9	13.3
308.15	0.9255	1641.4	13.3
308.15	0.9353	1635.3	13.2
308.15	0.9543	1617.1	13.1
308.15	0.9562	1614.7	13.1
308.15	0.9598	1610	13.1
308.15	0.97	1594.4	13
308.15	0.9806	1574.5	12.9
308.15	0.9902	1552.8	12.7
308.15	0.9923	1547.5	12.7
308.15	0.9956	1538.9	12.6
318.15	0.0471	1396.5	11.8
318.15	0.1478	1415	11.9
318.15	0.2481	1422.4	11.9
318.15	0.3491	1441.3	12
318.15	0.443	1462.7	12.2
318.15	0.4971	1474.1	12.2
318.15	0.5552	1485.9	12.3
318.15	0.6494	1510	12.5
318.15	0.7491	1553.8	12.7
318.15	0.8547	1614.7	13.1
318.15	0.9081	1630.6	13.2
318.15	0.9144	1630.5	13.2
318.15	0.9255	1629	13.2
318.15	0.9353	1626	13.2
318.15	0.9543	1614.7	13.1
318.15	0.9562	1613.2	13.1
318.15	0.9598	1610	13.1
318.15	0.97	1599	13
318.15	0.9806	1584.6	12.9
318.15	0.9902	1568.4	12.8
318.15	0.9923	1564.4	12.8
318.15	0.9956	1557.9	12.8
328.15	0.0471	1381.6	11.7
328.15	0.1478	1392.6	11.7
328.15	0.2481	1404	11.8
328.15	0.3491	1421.6	11.9
328.15	0.443	1440	12
328.15	0.4971	1450.7	12.1
328.15	0.5552	1464.3	12.2
328.15	0.6494	1490.7	12.3
328.15	0.7491	1532.6	12.6
328.15	0.8547	1592.7	13
328.15	0.9081	1611.9	13.1
328.15	0.9144	1612.7	13.1
328.15	0.9255	1612.9	13.1
328.15	0.9353	1611.8	13.1
328.15	0.9543	1604.2	13
328.15	0.9562	1603.4	13
328.15	0.9598	1601.5	13
328.15	0.97	1594	13
328.15	0.9806	1583.2	12.9
328.15	0.9902	1571.2	12.8
328.15	0.9923	1568.9	12.8
328.15	0.9956	1563.4	12.8
338.15	0.0471	1365.8	11.6
338.15	0.1478	1376.1	11.6
338.15	0.2481	1387.3	11.7
338.15	0.3491	1402.7	11.8
338.15	0.443	1420.1	11.9
338.15	0.4971	1430.2	12
338.15	0.5552	1443.6	12
338.15	0.6494	1468.5	12.2
338.15	0.7491	1507.6	12.4
338.15	0.8547	1565.4	12.8
338.15	0.9081	1587.3	12.9
338.15	0.9144	1588.5	12.9
338.15	0.9255	1590.4	13
338.15	0.9353	1591	13
338.15	0.9543	1588.9	12.9
338.15	0.9562	1588.1	12.9
338.15	0.9598	1587.6	12.9
338.15	0.97	1583.6	12.9
338.15	0.9806	1577.1	12.9
338.15	0.9902	1570.2	12.8
338.15	0.9923	1568	12.8
338.15	0.9956	1564.9	12.8

System: 1,2-butanediol + water; phases: Liquid
Fixed: Pressure, kPa = 101.3
Property: Mass density, kg/m3 (Liquid); method: VIBTUB:UFactor:8
Temperature, K	Mole fraction of water	Mass density, kg/m3	uncertainty
298.15	0.0471	999.56	0.35
298.15	0.1478	1001.36	0.34
298.15	0.2481	1003.09	0.33
298.15	0.3491	1005.12	0.32
298.15	0.443	1007.55	0.32
298.15	0.4971	1009.14	0.32
298.15	0.5552	1010.88	0.32
298.15	0.6494	1013.49	0.31
298.15	0.7491	1015.73	0.31
298.15	0.8547	1016.98	0.31
298.15	0.9081	1015.65	0.31
298.15	0.9144	1015.26	0.3
298.15	0.9255	1014.39	0.3
298.15	0.9353	1013.39	0.3
298.15	0.9543	1010.65	0.29
298.15	0.9562	1010.3	0.29
298.15	0.9598	1009.61	0.29
298.15	0.97	1007.33	0.28
298.15	0.9806	1004.38	0.27
298.15	0.9902	1001.1	0.26
298.15	0.9923	1000.29	0.26
298.15	0.9956	998.96	0.26
308.15	0.0471	992.15	0.36
308.15	0.1478	993.92	0.35
308.15	0.2481	995.73	0.33
308.15	0.3491	997.81	0.31
308.15	0.443	1000.17	0.3
308.15	0.4971	1001.68	0.3
308.15	0.5552	1003.37	0.29
308.15	0.6494	1006.11	0.29
308.15	0.7491	1008.77	0.29
308.15	0.8547	1010.49	0.29
308.15	0.9081	1009.43	0.29
308.15	0.9144	1009.1	0.28
308.15	0.9255	1008.36	0.28
308.15	0.9353	1007.51	0.28
308.15	0.9543	1005.2	0.27
308.15	0.9562	1004.91	0.27
308.15	0.9598	1004.33	0.27
308.15	0.97	1002.44	0.26
308.15	0.9806	1000	0.26
308.15	0.9902	997.32	0.26
308.15	0.9923	996.67	0.27
308.15	0.9956	995.58	0.27
318.15	0.0471	984.63	0.38
318.15	0.1478	986.4	0.36
318.15	0.2481	988.13	0.35
318.15	0.3491	990.15	0.33
318.15	0.443	992.53	0.32
318.15	0.4971	994.08	0.31
318.15	0.5552	995.8	0.3
318.15	0.6494	998.48	0.28
318.15	0.7491	1001.03	0.27
318.15	0.8547	1003.2	0.27
318.15	0.9081	1003	0.27
318.15	0.9144	1002.81	0.27
318.15	0.9255	1002.34	0.26
318.15	0.9353	1001.75	0.26
318.15	0.9543	999.98	0.26
318.15	0.9562	999.74	0.26
318.15	0.9598	999.27	0.26
318.15	0.97	997.69	0.26
318.15	0.9806	995.59	0.27
318.15	0.9902	993.21	0.27
318.15	0.9923	992.62	0.28
318.15	0.9956	991.63	0.28
328.15	0.0471	976.76	0.4
328.15	0.1478	978.45	0.38
328.15	0.2481	980.12	0.37
328.15	0.3491	982.09	0.35
328.15	0.443	984.39	0.34
328.15	0.4971	985.9	0.33
328.15	0.5552	987.59	0.32
328.15	0.6494	990.29	0.3
328.15	0.7491	993	0.29
328.15	0.8547	995.64	0.27
328.15	0.9081	995.96	0.27
328.15	0.9144	995.86	0.27
328.15	0.9255	995.56	0.27
328.15	0.9353	995.14	0.27
328.15	0.9543	993.79	0.27
328.15	0.9562	993.61	0.27
328.15	0.9598	993.23	0.28
328.15	0.97	991.96	0.28
328.15	0.9806	990.23	0.28
328.15	0.9902	988.23	0.29
328.15	0.9923	987.73	0.29
328.15	0.9956	986.9	0.3
338.15	0.0471	968.75	0.42
338.15	0.1478	970.35	0.4
338.15	0.2481	971.96	0.39
338.15	0.3491	973.85	0.37
338.15	0.443	976.07	0.36
338.15	0.4971	977.53	0.35
338.15	0.5552	979.18	0.34
338.15	0.6494	981.87	0.33
338.15	0.7491	984.71	0.31
338.15	0.8547	987.72	0.3
338.15	0.9081	988.49	0.29
338.15	0.9144	988.47	0.29
338.15	0.9255	988.32	0.29
338.15	0.9353	988.06	0.29
338.15	0.9543	987.1	0.29
338.15	0.9562	986.96	0.3
338.15	0.9598	986.68	0.3
338.15	0.97	985.68	0.3
338.15	0.9806	984.29	0.3
338.15	0.9902	982.66	0.31
338.15	0.9923	982.25	0.31
338.15	0.9956	981.55	0.31

System: 1,3-butanediol + water; phases: Liquid
Fixed: Pressure, kPa = 101.3
Property: Viscosity, Pa*s (Liquid); method: Capillary tube (Ostwald; Ubbelohde) method
Temperature, K	Mole fraction of water	Viscosity, Pa*s	uncertainty
298.15	0.045	0.092649	0.001008
298.15	0.1445	0.081122	0.000701
298.15	0.2499	0.067639	0.00038
298.15	0.3526	0.054193	0.000138
298.15	0.4519	0.041719	0.000183
298.15	0.5035	0.035661	0.000158
298.15	0.5563	0.02986	0.000137
298.15	0.6507	0.020659	0.000106
298.15	0.7518	0.012639	8.3e-05
298.15	0.8477	0.00682	7.1e-05
298.15	0.9081	0.004008	6.6e-05
298.15	0.9152	0.003719	6.6e-05
298.15	0.9253	0.003322	6.5e-05
298.15	0.9355	0.002937	6.5e-05
298.15	0.9521	0.002348	6.4e-05
298.15	0.9543	0.002273	6.4e-05
298.15	0.9597	0.002093	6.4e-05
298.15	0.9699	0.001765	6.4e-05
298.15	0.9804	0.001444	6.4e-05
298.15	0.9901	0.001163	6.3e-05
298.15	0.9924	0.001098	6.3e-05
298.15	0.9955	0.001012	6.3e-05
308.15	0.045	0.049937	0.000237
308.15	0.1445	0.043427	0.000202
308.15	0.2499	0.036086	0.000167
308.15	0.3526	0.029072	0.000138
308.15	0.4519	0.022691	0.000115
308.15	0.5035	0.01958	0.000104
308.15	0.5563	0.016565	9.5e-05
308.15	0.6507	0.011656	8.1e-05
308.15	0.7518	0.007207	7.2e-05
308.15	0.8477	0.003905	6.6e-05
308.15	0.9081	0.002337	6.4e-05
308.15	0.9152	0.002179	6.4e-05
308.15	0.9253	0.001965	6.4e-05
308.15	0.9355	0.001759	6.4e-05
308.15	0.9521	0.00145	6.4e-05
308.15	0.9543	0.001411	6.4e-05
308.15	0.9597	0.001318	6.3e-05
308.15	0.9699	0.00115	6.3e-05
308.15	0.9804	0.00099	6.3e-05
308.15	0.9901	0.000851	6.3e-05
308.15	0.9924	0.000819	6.3e-05
308.15	0.9955	0.000778	6.3e-05
318.15	0.045	0.028946	0.000145
318.15	0.1445	0.02516	0.000128
318.15	0.2499	0.020847	0.000111
318.15	0.3526	0.016639	9.6e-05
318.15	0.4519	0.012794	8.5e-05
318.15	0.5035	0.010938	8e-05
318.15	0.5563	0.009164	7.6e-05
318.15	0.6507	0.006346	7e-05
318.15	0.7518	0.003879	6.6e-05
318.15	0.8477	0.00211	6.4e-05
318.15	0.9081	0.001304	6.3e-05
318.15	0.9152	0.001226	6.3e-05
318.15	0.9253	0.001122	6.3e-05
318.15	0.9355	0.001024	6.3e-05
318.15	0.9521	0.000881	6.3e-05
318.15	0.9543	0.000864	6.3e-05
318.15	0.9597	0.000824	6.3e-05
318.15	0.9699	0.000753	6.3e-05
318.15	0.9804	0.00069	6.3e-05
318.15	0.9901	0.000639	6.3e-05
318.15	0.9924	0.000628	6.3e-05
318.15	0.9955	0.000615	6.3e-05
328.15	0.045	0.017937	0.000104
328.15	0.1445	0.015496	9.5e-05
328.15	0.2499	0.012683	8.6e-05
328.15	0.3526	0.009939	7.8e-05
328.15	0.4519	0.007454	7.2e-05
328.15	0.5035	0.006269	7e-05
328.15	0.5563	0.00515	6.8e-05
328.15	0.6507	0.003415	6.6e-05
328.15	0.7518	0.00197	6.4e-05
328.15	0.8477	0.001028	6.3e-05
328.15	0.9081	0.000666	6.3e-05
328.15	0.9152	0.000636	6.3e-05
328.15	0.9253	0.000598	6.3e-05
328.15	0.9355	0.000565	6.3e-05
328.15	0.9521	0.000525	6.3e-05
328.15	0.9543	0.000521	6.3e-05
328.15	0.9597	0.000512	6.3e-05
328.15	0.9699	0.0005	6.3e-05
328.15	0.9804	0.000495	6.3e-05
328.15	0.9901	0.000496	6.3e-05
328.15	0.9924	0.000497	6.3e-05
328.15	0.9955	0.000499	6.3e-05
338.15	0.045	0.011626	8.4e-05
338.15	0.1445	0.009961	7.9e-05
338.15	0.2499	0.008015	7.4e-05
338.15	0.3526	0.006116	7e-05
338.15	0.4519	0.004415	6.7e-05
338.15	0.5035	0.003616	6.6e-05
338.15	0.5563	0.002874	6.5e-05
338.15	0.6507	0.001759	6.4e-05
338.15	0.7518	0.000895	6.3e-05
338.15	0.8477	0.000418	6.3e-05
338.15	0.9081	0.000302	6.3e-05
338.15	0.9152	0.000299	6.3e-05
338.15	0.9253	0.000298	6.3e-05
338.15	0.9355	0.000301	6.3e-05
338.15	0.9521	0.000317	6.3e-05
338.15	0.9543	0.00032	6.3e-05
338.15	0.9597	0.000329	6.3e-05
338.15	0.9699	0.000348	6.3e-05
338.15	0.9804	0.000374	6.3e-05
338.15	0.9901	0.000403	6.3e-05
338.15	0.9924	0.000411	6.3e-05
338.15	0.9955	0.000422	6.3e-05

System: 1,3-butanediol + water; phases: Liquid
Fixed: Pressure, kPa = 101.3
Property: Speed of sound, m/s (Liquid); method: LVPAI:UFactor:4
Temperature, K	Mole fraction of water	Speed of sound, m/s	uncertainty
298.15	0.045	1544.1	6.4
298.15	0.1445	1569.1	6.4
298.15	0.2499	1594.2	6.5
298.15	0.3526	1613.2	6.6
298.15	0.4519	1631.1	6.6
298.15	0.5035	1643.5	6.7
298.15	0.5563	1652.1	6.7
298.15	0.6507	1682	6.8
298.15	0.7518	1702	6.8
298.15	0.8477	1681.6	6.8
298.15	0.9081	1673.4	6.7
298.15	0.9152	1660.2	6.7
298.15	0.9253	1645	6.7
298.15	0.9355	1615.2	6.6
298.15	0.9521	1610.8	6.5
298.15	0.9543	1599.6	6.5
298.15	0.9597	1576.9	6.4
298.15	0.9699	1551.3	6.4
298.15	0.9804	1525.7	6.3
298.15	0.9901	1519.4	6.3
298.15	0.9924	1510.8	6.2
298.15	0.9955	1527.6	6.3
308.15	0.045	1500.6	6.2
308.15	0.1445	1520.3	6.3
308.15	0.2499	1538.6	6.3
308.15	0.3526	1561.8	6.4
308.15	0.4519	1585.2	6.5
308.15	0.5035	1597	6.5
308.15	0.5563	1609.3	6.6
308.15	0.6507	1634.5	6.6
308.15	0.7518	1666.3	6.7
308.15	0.8477	1684	6.8
308.15	0.9081	1665.1	6.7
308.15	0.9152	1659.9	6.7
308.15	0.9253	1657.3	6.7
308.15	0.9355	1640.7	6.6
308.15	0.9521	1619.1	6.6
308.15	0.9543	1615.8	6.6
308.15	0.9597	1607.2	6.5
308.15	0.9699	1589	6.5
308.15	0.9804	1567.4	6.4
308.15	0.9901	1544.6	6.3
308.15	0.9924	1536.8	6.3
308.15	0.9955	1530.7	6.3
318.15	0.045	1474.8	6.1
318.15	0.1445	1492.5	6.2
318.15	0.2499	1509.5	6.2
318.15	0.3526	1531.8	6.3
318.15	0.4519	1554.7	6.4
318.15	0.5035	1566.6	6.4
318.15	0.5563	1579.1	6.5
318.15	0.6507	1604.8	6.5
318.15	0.7518	1638.6	6.6
318.15	0.8477	1662.4	6.7
318.15	0.9081	1652.9	6.7
318.15	0.9152	1649.3	6.7
318.15	0.9253	1643	6.6
318.15	0.9355	1635.1	6.6
318.15	0.9521	1618.5	6.6
318.15	0.9543	1616	6.6
318.15	0.9597	1609.2	6.5
318.15	0.9699	1594.8	6.5
318.15	0.9804	1577.4	6.4
318.15	0.9901	1558.9	6.4
318.15	0.9924	1554.1	6.4
318.15	0.9955	1547.5	6.3
328.15	0.045	1456.8	6.1
328.15	0.1445	1473	6.1
328.15	0.2499	1489.7	6.2
328.15	0.3526	1509.9	6.2
328.15	0.4519	1530.8	6.3
328.15	0.5035	1542.3	6.3
328.15	0.5563	1554.1	6.4
328.15	0.6507	1579.6	6.5
328.15	0.7518	1612.2	6.6
328.15	0.8477	1638.8	6.6
328.15	0.9081	1635.3	6.6
328.15	0.9152	1633	6.6
328.15	0.9253	1628.7	6.6
328.15	0.9355	1622.5	6.6
328.15	0.9521	1610.6	6.5
328.15	0.9543	1608.3	6.5
328.15	0.9597	1603.1	6.5
328.15	0.9699	1591.7	6.5
328.15	0.9804	1578.7	6.4
328.15	0.9901	1563.6	6.4
328.15	0.9924	1559.6	6.4
328.15	0.9955	1555	6.4
338.15	0.045	1438.1	6
338.15	0.1445	1452.7	6.1
338.15	0.2499	1468.1	6.1
338.15	0.3526	1486.2	6.2
338.15	0.4519	1506.1	6.2
338.15	0.5035	1516.1	6.3
338.15	0.5563	1527.9	6.3
338.15	0.6507	1552	6.4
338.15	0.7518	1584.1	6.5
338.15	0.8477	1611.3	6.6
338.15	0.9081	1614.1	6.6
338.15	0.9152	1612.4	6.5
338.15	0.9253	1609.7	6.5
338.15	0.9355	1606.3	6.5
338.15	0.9521	1597.7	6.5
338.15	0.9543	1596.6	6.5
338.15	0.9597	1592.9	6.5
338.15	0.9699	1585.4	6.5
338.15	0.9804	1575.5	6.4
338.15	0.9901	1565.5	6.4
338.15	0.9924	1561.7	6.4
338.15	0.9955	1558.4	6.4

System: 1,3-butanediol + water; phases: Liquid
Fixed: Pressure, kPa = 101.3
Property: Mass density, kg/m3 (Liquid); method: VIBTUB:UFactor:8
Temperature, K	Mole fraction of water	Mass density, kg/m3	uncertainty
298.15	0.045	1001	0.35
298.15	0.1445	1003.36	0.34
298.15	0.2499	1006.05	0.33
298.15	0.3526	1008.62	0.33
298.15	0.4519	1011.07	0.33
298.15	0.5035	1012.39	0.32
298.15	0.5563	1013.79	0.32
298.15	0.6507	1016.24	0.32
298.15	0.7518	1017.77	0.32
298.15	0.8477	1015.59	0.31
298.15	0.9081	1010.74	0.29
298.15	0.9152	1009.95	0.29
298.15	0.9253	1008.73	0.28
298.15	0.9355	1007.4	0.28
298.15	0.9521	1005.03	0.27
298.15	0.9543	1004.7	0.27
298.15	0.9597	1003.86	0.27
298.15	0.9699	1002.22	0.26
298.15	0.9804	1000.46	0.26
298.15	0.9901	998.79	0.26
298.15	0.9924	998.38	0.26
298.15	0.9955	997.84	0.26
308.15	0.045	995.14	0.36
308.15	0.1445	997.4	0.34
308.15	0.2499	999.97	0.32
308.15	0.3526	1002.45	0.31
308.15	0.4519	1004.84	0.31
308.15	0.5035	1006.14	0.31
308.15	0.5563	1007.52	0.31
308.15	0.6507	1009.99	0.3
308.15	0.7518	1011.69	0.3
308.15	0.8477	1010.07	0.29
308.15	0.9081	1005.92	0.28
308.15	0.9152	1005.23	0.27
308.15	0.9253	1004.18	0.27
308.15	0.9355	1003.02	0.27
308.15	0.9521	1000.96	0.26
308.15	0.9543	1000.67	0.26
308.15	0.9597	999.94	0.26
308.15	0.9699	998.52	0.26
308.15	0.9804	996.99	0.26
308.15	0.9901	995.53	0.27
308.15	0.9924	995.19	0.27
308.15	0.9955	994.71	0.27
318.15	0.045	989.57	0.37
318.15	0.1445	991.66	0.35
318.15	0.2499	994.06	0.33
318.15	0.3526	996.38	0.32
318.15	0.4519	998.64	0.3
318.15	0.5035	999.86	0.29
318.15	0.5563	1001.18	0.29
318.15	0.6507	1003.55	0.29
318.15	0.7518	1005.28	0.28
318.15	0.8477	1004.06	0.27
318.15	0.9081	1000.51	0.26
318.15	0.9152	999.92	0.26
318.15	0.9253	999	0.26
318.15	0.9355	998	0.26
318.15	0.9521	996.21	0.27
318.15	0.9543	995.96	0.27
318.15	0.9597	995.33	0.27
318.15	0.9699	994.09	0.27
318.15	0.9804	992.76	0.28
318.15	0.9901	991.5	0.28
318.15	0.9924	991.2	0.28
318.15	0.9955	990.8	0.28
328.15	0.045	980.01	0.39
328.15	0.1445	982.02	0.37
328.15	0.2499	984.33	0.36
328.15	0.3526	986.62	0.34
328.15	0.4519	988.88	0.32
328.15	0.5035	990.12	0.32
328.15	0.5563	991.47	0.31
328.15	0.6507	993.99	0.29
328.15	0.7518	996.11	0.28
328.15	0.8477	995.8	0.27
328.15	0.9081	993.31	0.28
328.15	0.9152	992.87	0.28
328.15	0.9253	992.19	0.28
328.15	0.9355	991.44	0.28
328.15	0.9521	990.11	0.29
328.15	0.9543	989.92	0.29
328.15	0.9597	989.45	0.29
328.15	0.9699	988.53	0.29
328.15	0.9804	987.55	0.29
328.15	0.9901	986.62	0.29
328.15	0.9924	986.41	0.3
328.15	0.9955	986.11	0.3
338.15	0.045	972.67	0.41
338.15	0.1445	974.54	0.39
338.15	0.2499	976.7	0.38
338.15	0.3526	978.84	0.36
338.15	0.4519	980.99	0.35
338.15	0.5035	982.18	0.34
338.15	0.5563	983.48	0.33
338.15	0.6507	985.94	0.32
338.15	0.7518	988.14	0.3
338.15	0.8477	988.28	0.3
338.15	0.9081	986.44	0.3
338.15	0.9152	986.1	0.3
338.15	0.9253	985.58	0.3
338.15	0.9355	985	0.3
338.15	0.9521	983.95	0.3
338.15	0.9543	983.8	0.3
338.15	0.9597	983.44	0.31
338.15	0.9699	982.72	0.31
338.15	0.9804	981.96	0.31
338.15	0.9901	981.25	0.31
338.15	0.9924	981.09	0.31
338.15	0.9955	980.87	0.31

System: 1,4-butanediol + water; phases: Liquid
Fixed: Pressure, kPa = 101.3
Property: Viscosity, Pa*s (Liquid); method: Capillary tube (Ostwald; Ubbelohde) method
Temperature, K	Mole fraction of water	Viscosity, Pa*s	uncertainty
298.15	0.055	0.068263	0.000403
298.15	0.1534	0.059729	0.000228
298.15	0.2472	0.051483	0.000125
298.15	0.3542	0.042264	0.000188
298.15	0.4531	0.033946	0.000152
298.15	0.498	0.030264	0.000139
298.15	0.5578	0.025512	0.000122
298.15	0.6513	0.018652	9.9e-05
298.15	0.7496	0.012569	8.3e-05
298.15	0.8475	0.00783	7.2e-05
298.15	0.9081	0.00531	6.8e-05
298.15	0.9152	0.005014	6.8e-05
298.15	0.9253	0.004588	6.7e-05
298.15	0.9355	0.004148	6.7e-05
298.15	0.9543	0.0033	6.5e-05
298.15	0.955	0.003267	6.5e-05
298.15	0.9597	0.003045	6.5e-05
298.15	0.9699	0.002544	6.5e-05
298.15	0.9804	0.002001	6.4e-05
298.15	0.9901	0.001468	6.4e-05
298.15	0.9924	0.001337	6.4e-05
298.15	0.9955	0.001158	6.4e-05
308.15	0.055	0.042307	0.0002
308.15	0.1534	0.037476	0.000175
308.15	0.2472	0.032834	0.000154
308.15	0.3542	0.0276	0.000132
308.15	0.4531	0.022829	0.000114
308.15	0.498	0.020694	0.000107
308.15	0.5578	0.017901	9.8e-05
308.15	0.6513	0.013723	8.6e-05
308.15	0.7496	0.009702	7.6e-05
308.15	0.8475	0.006132	7e-05
308.15	0.9081	0.004059	6.6e-05
308.15	0.9152	0.003816	6.6e-05
308.15	0.9253	0.003469	6.6e-05
308.15	0.9355	0.003115	6.5e-05
308.15	0.9543	0.00245	6.4e-05
308.15	0.955	0.002425	6.4e-05
308.15	0.9597	0.002255	6.4e-05
308.15	0.9699	0.001881	6.4e-05
308.15	0.9804	0.001487	6.4e-05
308.15	0.9901	0.001112	6.4e-05
308.15	0.9924	0.001022	6.3e-05
308.15	0.9955	0.000899	6.3e-05
318.15	0.055	0.027427	0.000139
318.15	0.1534	0.024344	0.000125
318.15	0.2472	0.021385	0.000113
318.15	0.3542	0.018045	0.000101
318.15	0.4531	0.014996	9.1e-05
318.15	0.498	0.01363	8.7e-05
318.15	0.5578	0.011839	8.2e-05
318.15	0.6513	0.009148	7.5e-05
318.15	0.7496	0.006533	7e-05
318.15	0.8475	0.004179	6.7e-05
318.15	0.9081	0.0028	6.5e-05
318.15	0.9152	0.002639	6.5e-05
318.15	0.9253	0.002408	6.4e-05
318.15	0.9355	0.002173	6.4e-05
318.15	0.9543	0.001732	6.4e-05
318.15	0.955	0.001716	6.4e-05
318.15	0.9597	0.001604	6.4e-05
318.15	0.9699	0.001357	6.3e-05
318.15	0.9804	0.001098	6.3e-05
318.15	0.9901	0.000853	6.3e-05
318.15	0.9924	0.000794	6.3e-05
318.15	0.9955	0.000714	6.3e-05
328.15	0.055	0.018383	0.000106
328.15	0.1534	0.016324	9.7e-05
328.15	0.2472	0.014347	9e-05
328.15	0.3542	0.012115	8.3e-05
328.15	0.4531	0.010079	7.8e-05
328.15	0.498	0.009167	7.6e-05
328.15	0.5578	0.007972	7.3e-05
328.15	0.6513	0.006178	7e-05
328.15	0.7496	0.004438	6.7e-05
328.15	0.8475	0.002877	6.5e-05
328.15	0.9081	0.001965	6.4e-05
328.15	0.9152	0.001858	6.4e-05
328.15	0.9253	0.001705	6.4e-05
328.15	0.9355	0.001549	6.4e-05
328.15	0.9543	0.001257	6.3e-05
328.15	0.955	0.001246	6.3e-05
328.15	0.9597	0.001172	6.3e-05
328.15	0.9699	0.001009	6.3e-05
328.15	0.9804	0.000837	6.3e-05
328.15	0.9901	0.000674	6.3e-05
328.15	0.9924	0.000635	6.3e-05
328.15	0.9955	0.000581	6.3e-05
338.15	0.055	0.012725	8.7e-05
338.15	0.1534	0.011284	8.3e-05
338.15	0.2472	0.009897	7.8e-05
338.15	0.3542	0.008335	7.4e-05
338.15	0.4531	0.006914	7.1e-05
338.15	0.498	0.006279	7e-05
338.15	0.5578	0.005449	6.9e-05
338.15	0.6513	0.004213	6.7e-05
338.15	0.7496	0.003033	6.5e-05
338.15	0.8475	0.002	6.4e-05
338.15	0.9081	0.001404	6.3e-05
338.15	0.9152	0.001335	6.3e-05
338.15	0.9253	0.001235	6.3e-05
338.15	0.9355	0.001133	6.3e-05
338.15	0.9543	0.000941	6.3e-05
338.15	0.955	0.000934	6.3e-05
338.15	0.9597	0.000885	6.3e-05
338.15	0.9699	0.000776	6.3e-05
338.15	0.9804	0.000662	6.3e-05
338.15	0.9901	0.000553	6.3e-05
338.15	0.9924	0.000527	6.3e-05
338.15	0.9955	0.000491	6.3e-05

System: 1,4-butanediol + water; phases: Liquid
Fixed: Pressure, kPa = 101.3
Property: Speed of sound, m/s (Liquid); method: LVPAI:UFactor:4
Temperature, K	Mole fraction of water	Speed of sound, m/s	uncertainty
298.15	0.055	1609	6.6
298.15	0.1534	1623.6	6.6
298.15	0.2472	1637.5	6.6
298.15	0.3542	1658.6	6.7
298.15	0.4531	1678.2	6.8
298.15	0.498	1686	6.8
298.15	0.5578	1695.3	6.8
298.15	0.6513	1707.7	6.8
298.15	0.7496	1715.9	6.9
298.15	0.8475	1702.6	6.8
298.15	0.9081	1663.1	6.7
298.15	0.9152	1655.8	6.7
298.15	0.9253	1644.1	6.6
298.15	0.9355	1630.7	6.6
298.15	0.9543	1601.1	6.5
298.15	0.955	1599.8	6.5
298.15	0.9597	1591.3	6.5
298.15	0.9699	1571.1	6.4
298.15	0.9804	1547.9	6.3
298.15	0.9901	1523.9	6.3
298.15	0.9924	1517.8	6.3
298.15	0.9955	1509.5	6.2
308.15	0.055	1591	6.5
308.15	0.1534	1604.6	6.5
308.15	0.2472	1617.7	6.6
308.15	0.3542	1637.1	6.6
308.15	0.4531	1655.1	6.7
308.15	0.498	1662.5	6.7
308.15	0.5578	1671	6.7
308.15	0.6513	1684.1	6.8
308.15	0.7496	1693	6.8
308.15	0.8475	1685.5	6.8
308.15	0.9081	1655	6.7
308.15	0.9152	1648.7	6.7
308.15	0.9253	1639.7	6.6
308.15	0.9355	1628.5	6.6
308.15	0.9543	1604.2	6.5
308.15	0.955	1603	6.5
308.15	0.9597	1595.9	6.5
308.15	0.9699	1579.2	6.4
308.15	0.9804	1560.2	6.4
308.15	0.9901	1540.2	6.3
308.15	0.9924	1535.5	6.3
308.15	0.9955	1528.5	6.3
318.15	0.055	1574.6	6.4
318.15	0.1534	1586.7	6.5
318.15	0.2472	1598.8	6.5
318.15	0.3542	1615.4	6.6
318.15	0.4531	1632.8	6.6
318.15	0.498	1640	6.6
318.15	0.5578	1648.7	6.7
318.15	0.6513	1661.1	6.7
318.15	0.7496	1671.4	6.7
318.15	0.8475	1669	6.7
318.15	0.9081	1645	6.6
318.15	0.9152	1640.3	6.6
318.15	0.9253	1633.3	6.6
318.15	0.9355	1624.2	6.6
318.15	0.9543	1604.9	6.5
318.15	0.955	1603.8	6.5
318.15	0.9597	1598.2	6.5
318.15	0.9699	1584.8	6.5
318.15	0.9804	1568.2	6.4
318.15	0.9901	1552.7	6.4
318.15	0.9924	1548.3	6.3
318.15	0.9955	1542.8	6.3
328.15	0.055	1554.9	6.4
328.15	0.1534	1564.8	6.4
328.15	0.2472	1575.6	6.4
328.15	0.3542	1590.3	6.5
328.15	0.4531	1605	6.5
328.15	0.498	1610.8	6.6
328.15	0.5578	1618.6	6.6
328.15	0.6513	1631.1	6.6
328.15	0.7496	1641.4	6.6
328.15	0.8475	1642.3	6.6
328.15	0.9081	1626.3	6.6
328.15	0.9152	1623.2	6.6
328.15	0.9253	1618	6.6
328.15	0.9355	1611.8	6.5
328.15	0.9543	1597.3	6.5
328.15	0.955	1596.3	6.5
328.15	0.9597	1592.2	6.5
328.15	0.9699	1581.9	6.5
328.15	0.9804	1569.6	6.4
328.15	0.9901	1558.3	6.4
328.15	0.9924	1555.3	6.4
328.15	0.9955	1550.2	6.4
338.15	0.055	1531.3	6.3
338.15	0.1534	1540.8	6.3
338.15	0.2472	1549.4	6.4
338.15	0.3542	1562.2	6.4
338.15	0.4531	1575.1	6.4
338.15	0.498	1580.7	6.5
338.15	0.5578	1588.5	6.5
338.15	0.6513	1599	6.5
338.15	0.7496	1611.3	6.6
338.15	0.8475	1615.6	6.6
338.15	0.9081	1606.6	6.5
338.15	0.9152	1605.1	6.5
338.15	0.9253	1601.7	6.5
338.15	0.9355	1597.4	6.5
338.15	0.9543	1587.8	6.5
338.15	0.955	1586.8	6.5
338.15	0.9597	1584.2	6.5
338.15	0.9699	1577.1	6.4
338.15	0.9804	1569	6.4
338.15	0.9901	1560	6.4
338.15	0.9924	1558.2	6.4
338.15	0.9955	1554.5	6.4

System: 1,4-butanediol + water; phases: Liquid
Fixed: Pressure, kPa = 101.3
Property: Mass density, kg/m3 (Liquid); method: VIBTUB:UFactor:8
Temperature, K	Mole fraction of water	Mass density, kg/m3	uncertainty
298.15	0.055	1013.64	0.38
298.15	0.1534	1015.1	0.37
298.15	0.2472	1016.59	0.36
298.15	0.3542	1018.46	0.36
298.15	0.4531	1020.08	0.35
298.15	0.498	1020.71	0.35
298.15	0.5578	1021.37	0.35
298.15	0.6513	1021.78	0.34
298.15	0.7496	1020.65	0.33
298.15	0.8475	1016.21	0.31
298.15	0.9081	1010.66	0.29
298.15	0.9152	1009.83	0.29
298.15	0.9253	1008.58	0.28
298.15	0.9355	1007.24	0.28
298.15	0.9543	1004.56	0.27
298.15	0.955	1004.46	0.27
298.15	0.9597	1003.74	0.27
298.15	0.9699	1002.14	0.26
298.15	0.9804	1000.42	0.26
298.15	0.9901	998.77	0.26
298.15	0.9924	998.37	0.26
298.15	0.9955	997.83	0.26
308.15	0.055	1007.37	0.36
308.15	0.1534	1008.7	0.35
308.15	0.2472	1010.06	0.35
308.15	0.3542	1011.78	0.34
308.15	0.4531	1013.29	0.33
308.15	0.498	1013.88	0.33
308.15	0.5578	1014.52	0.33
308.15	0.6513	1014.99	0.32
308.15	0.7496	1014.15	0.31
308.15	0.8475	1010.43	0.29
308.15	0.9081	1005.69	0.27
308.15	0.9152	1004.98	0.27
308.15	0.9253	1003.91	0.27
308.15	0.9355	1002.76	0.26
308.15	0.9543	1000.47	0.26
308.15	0.955	1000.37	0.26
308.15	0.9597	999.76	0.26
308.15	0.9699	998.39	0.26
308.15	0.9804	996.91	0.26
308.15	0.9901	995.5	0.27
308.15	0.9924	995.16	0.27
308.15	0.9955	994.7	0.27
318.15	0.055	1001.62	0.35
318.15	0.1534	1002.81	0.34
318.15	0.2472	1004.04	0.33
318.15	0.3542	1005.59	0.32
318.15	0.4531	1006.95	0.31
318.15	0.498	1007.49	0.31
318.15	0.5578	1008.07	0.31
318.15	0.6513	1008.53	0.3
318.15	0.7496	1007.83	0.29
318.15	0.8475	1004.59	0.27
318.15	0.9081	1000.44	0.26
318.15	0.9152	999.82	0.26
318.15	0.9253	998.88	0.26
318.15	0.9355	997.88	0.26
318.15	0.9543	995.86	0.27
318.15	0.955	995.78	0.27
318.15	0.9597	995.24	0.27
318.15	0.9699	994.03	0.27
318.15	0.9804	992.74	0.28
318.15	0.9901	991.5	0.28
318.15	0.9924	991.2	0.28
318.15	0.9955	990.8	0.28
328.15	0.055	994.94	0.36
328.15	0.1534	996.05	0.34
328.15	0.2472	997.2	0.33
328.15	0.3542	998.64	0.31
328.15	0.4531	999.93	0.3
328.15	0.498	1000.44	0.29
328.15	0.5578	1001.01	0.29
328.15	0.6513	1001.51	0.28
328.15	0.7496	1000.99	0.27
328.15	0.8475	998.24	0.27
328.15	0.9081	994.62	0.27
328.15	0.9152	994.08	0.27
328.15	0.9253	993.26	0.28
328.15	0.9355	992.38	0.28
328.15	0.9543	990.62	0.28
328.15	0.955	990.55	0.28
328.15	0.9597	990.08	0.29
328.15	0.9699	989.02	0.29
328.15	0.9804	987.89	0.29
328.15	0.9901	986.81	0.29
328.15	0.9924	986.55	0.29
328.15	0.9955	986.2	0.3
338.15	0.055	988.66	0.37
338.15	0.1534	989.67	0.36
338.15	0.2472	990.72	0.34
338.15	0.3542	992.05	0.33
338.15	0.4531	993.23	0.31
338.15	0.498	993.7	0.31
338.15	0.5578	994.23	0.3
338.15	0.6513	994.7	0.29
338.15	0.7496	994.27	0.28
338.15	0.8475	991.81	0.29
338.15	0.9081	988.57	0.29
338.15	0.9152	988.08	0.29
338.15	0.9253	987.35	0.3
338.15	0.9355	986.56	0.3
338.15	0.9543	984.97	0.3
338.15	0.955	984.91	0.3
338.15	0.9597	984.49	0.3
338.15	0.9699	983.54	0.31
338.15	0.9804	982.52	0.31
338.15	0.9901	981.56	0.31
338.15	0.9924	981.32	0.31
338.15	0.9955	981.01	0.31

System: 2,3-butanediol + water; phases: Liquid
Fixed: Pressure, kPa = 101.3
Property: Viscosity, Pa*s (Liquid); method: Capillary tube (Ostwald; Ubbelohde) method
Temperature, K	Mole fraction of water	Viscosity, Pa*s	uncertainty
298.15	0.0546	0.041887	0.000198
298.15	0.1435	0.03673	0.000172
298.15	0.2458	0.0305	0.000146
298.15	0.3539	0.024044	0.00012
298.15	0.4502	0.018635	0.000101
298.15	0.4989	0.016077	9.3e-05
298.15	0.5503	0.013544	8.6e-05
298.15	0.6581	0.008918	7.5e-05
298.15	0.7518	0.005811	6.9e-05
298.15	0.8626	0.003267	6.5e-05
298.15	0.9092	0.002463	6.4e-05
298.15	0.9148	0.002372	6.4e-05
298.15	0.9248	0.00221	6.4e-05
298.15	0.9305	0.002118	6.4e-05
298.15	0.935	0.002044	6.4e-05
298.15	0.9452	0.001878	6.4e-05
298.15	0.9542	0.001729	6.4e-05
298.15	0.9703	0.001453	6.4e-05
298.15	0.98	0.001278	6.3e-05
298.15	0.9903	0.001083	6.3e-05
298.15	0.9925	0.00104	6.3e-05
298.15	0.9951	0.00099	6.3e-05
308.15	0.0546	0.021565	0.000118
308.15	0.1435	0.019066	0.000107
308.15	0.2458	0.016068	9.6e-05
308.15	0.3539	0.012951	8.6e-05
308.15	0.4502	0.010318	7.9e-05
308.15	0.4989	0.00906	7.6e-05
308.15	0.5503	0.0078	7.3e-05
308.15	0.6581	0.005443	6.9e-05
308.15	0.7518	0.003773	6.6e-05
308.15	0.8626	0.002265	6.4e-05
308.15	0.9092	0.001743	6.4e-05
308.15	0.9148	0.001682	6.4e-05
308.15	0.9248	0.001574	6.4e-05
308.15	0.9305	0.001512	6.4e-05
308.15	0.935	0.001463	6.4e-05
308.15	0.9452	0.001352	6.3e-05
308.15	0.9542	0.001254	6.3e-05
308.15	0.9703	0.001074	6.3e-05
308.15	0.98	0.000962	6.3e-05
308.15	0.9903	0.000839	6.3e-05
308.15	0.9925	0.000812	6.3e-05
308.15	0.9951	0.000779	6.3e-05
318.15	0.0546	0.012035	8.6e-05
318.15	0.1435	0.010637	8.1e-05
318.15	0.2458	0.008953	7.6e-05
318.15	0.3539	0.007207	7.2e-05
318.15	0.4502	0.005737	6.9e-05
318.15	0.4989	0.005036	6.8e-05
318.15	0.5503	0.004339	6.7e-05
318.15	0.6581	0.003047	6.5e-05
318.15	0.7518	0.00215	6.4e-05
318.15	0.8626	0.00137	6.3e-05
318.15	0.9092	0.001108	6.3e-05
318.15	0.9148	0.001078	6.3e-05
318.15	0.9248	0.001025	6.3e-05
318.15	0.9305	0.000995	6.3e-05
318.15	0.935	0.000969	6.3e-05
318.15	0.9452	0.000915	6.3e-05
318.15	0.9542	0.000866	6.3e-05
318.15	0.9703	0.000775	6.3e-05
318.15	0.98	0.000719	6.3e-05
318.15	0.9903	0.000657	6.3e-05
318.15	0.9925	0.000644	6.3e-05
318.15	0.9951	0.000627	6.3e-05
328.15	0.0546	0.007267	7.3e-05
328.15	0.1435	0.006438	7.1e-05
328.15	0.2458	0.00544	6.9e-05
328.15	0.3539	0.004404	6.7e-05
328.15	0.4502	0.003532	6.6e-05
328.15	0.4989	0.003117	6.5e-05
328.15	0.5503	0.002705	6.5e-05
328.15	0.6581	0.00194	6.4e-05
328.15	0.7518	0.001412	6.3e-05
328.15	0.8626	0.000954	6.3e-05
328.15	0.9092	0.000802	6.3e-05
328.15	0.9148	0.000784	6.3e-05
328.15	0.9248	0.000753	6.3e-05
328.15	0.9305	0.000735	6.3e-05
328.15	0.935	0.000721	6.3e-05
328.15	0.9452	0.000689	6.3e-05
328.15	0.9542	0.000661	6.3e-05
328.15	0.9703	0.000607	6.3e-05
328.15	0.98	0.000574	6.3e-05
328.15	0.9903	0.000539	6.3e-05
328.15	0.9925	0.000531	6.3e-05
328.15	0.9951	0.000521	6.3e-05
338.15	0.0546	0.004899	6.9e-05
338.15	0.1435	0.004365	6.7e-05
338.15	0.2458	0.003722	6.6e-05
338.15	0.3539	0.003054	6.5e-05
338.15	0.4502	0.00249	6.4e-05
338.15	0.4989	0.002221	6.4e-05
338.15	0.5503	0.001951	6.4e-05
338.15	0.6581	0.001447	6.4e-05
338.15	0.7518	0.001089	6.3e-05
338.15	0.8626	0.000768	6.3e-05
338.15	0.9092	0.000656	6.3e-05
338.15	0.9148	0.000644	6.3e-05
338.15	0.9248	0.000621	6.3e-05
338.15	0.9305	0.000608	6.3e-05
338.15	0.935	0.000598	6.3e-05
338.15	0.9452	0.000573	6.3e-05
338.15	0.9542	0.000552	6.3e-05
338.15	0.9703	0.000513	6.3e-05
338.15	0.98	0.00049	6.3e-05
338.15	0.9903	0.000463	6.3e-05
338.15	0.9925	0.000458	6.3e-05
338.15	0.9951	0.000451	6.3e-05

System: 2,3-butanediol + water; phases: Liquid
Fixed: Pressure, kPa = 101.3
Property: Speed of sound, m/s (Liquid); method: LVPAI:UFactor:4
Temperature, K	Mole fraction of water	Speed of sound, m/s	uncertainty
298.15	0.0546	1483	6.2
298.15	0.1435	1501.3	6.2
298.15	0.2458	1520.7	6.3
298.15	0.3539	1548.5	6.4
298.15	0.4502	1576.9	6.5
298.15	0.4989	1589.5	6.5
298.15	0.5503	1604.9	6.5
298.15	0.6581	1637.2	6.6
298.15	0.7518	1667.8	6.7
298.15	0.8626	1673.2	6.7
298.15	0.9092	1657.9	6.7
298.15	0.9148	1651.5	6.7
298.15	0.9248	1645.4	6.7
298.15	0.9305	1640.3	6.6
298.15	0.935	1637.1	6.6
298.15	0.9452	1628	6.6
298.15	0.9542	1616.9	6.6
298.15	0.9703	1610.2	6.5
298.15	0.98	1596.8	6.5
298.15	0.9903	1586.3	6.5
298.15	0.9925	1582.5	6.5
298.15	0.9951	1577.9	6.5
308.15	0.0546	1446.8	6.1
308.15	0.1435	1464.7	6.1
308.15	0.2458	1483.6	6.2
308.15	0.3539	1510.7	6.3
308.15	0.4502	1538.4	6.3
308.15	0.4989	1550.7	6.4
308.15	0.5503	1565.8	6.4
308.15	0.6581	1597.3	6.5
308.15	0.7518	1627.1	6.6
308.15	0.8626	1632.4	6.6
308.15	0.9092	1617.5	6.6
308.15	0.9148	1611.2	6.5
308.15	0.9248	1605.3	6.5
308.15	0.9305	1600.3	6.5
308.15	0.935	1597.2	6.5
308.15	0.9452	1588.3	6.5
308.15	0.9542	1577.5	6.4
308.15	0.9703	1570.9	6.4
308.15	0.98	1557.9	6.4
308.15	0.9903	1547.6	6.3
308.15	0.9925	1543.9	6.3
308.15	0.9951	1539.4	6.3
318.15	0.0546	1418.4	6
318.15	0.1435	1436	6
318.15	0.2458	1454.5	6.1
318.15	0.3539	1481.1	6.2
318.15	0.4502	1508.2	6.2
318.15	0.4989	1520.3	6.3
318.15	0.5503	1535.1	6.3
318.15	0.6581	1566	6.4
318.15	0.7518	1595.2	6.5
318.15	0.8626	1605.3	6.5
318.15	0.9092	1598.9	6.5
318.15	0.9148	1596.7	6.5
318.15	0.9248	1596.3	6.5
318.15	0.9305	1590.4	6.5
318.15	0.935	1583.1	6.5
318.15	0.9452	1580.2	6.4
318.15	0.9542	1578.1	6.4
318.15	0.9703	1571.6	6.4
318.15	0.98	1558.5	6.4
318.15	0.9903	1548.2	6.3
318.15	0.9925	1544.5	6.3
318.15	0.9951	1540	6.3
328.15	0.0546	1397.7	5.9
328.15	0.1435	1413.9	6
328.15	0.2458	1431.2	6
328.15	0.3539	1456.9	6.1
328.15	0.4502	1482.2	6.2
328.15	0.4989	1494.1	6.2
328.15	0.5503	1508.7	6.2
328.15	0.6581	1537.6	6.3
328.15	0.7518	1567.1	6.4
328.15	0.8626	1596.6	6.5
328.15	0.9092	1594.5	6.5
328.15	0.9148	1592.9	6.5
328.15	0.9248	1590.3	6.5
328.15	0.9305	1585.9	6.5
328.15	0.935	1570.1	6.4
328.15	0.9452	1574.2	6.4
328.15	0.9542	1573	6.4
328.15	0.9703	1570.4	6.4
328.15	0.98	1561.6	6.4
328.15	0.9903	1553.7	6.4
328.15	0.9925	1551.3	6.4
328.15	0.9951	1548.3	6.3
338.15	0.0546	1379	5.8
338.15	0.1435	1394.6	5.9
338.15	0.2458	1410.6	5.9
338.15	0.3539	1433.2	6
338.15	0.4502	1457.5	6.1
338.15	0.4989	1468.9	6.1
338.15	0.5503	1482.2	6.2
338.15	0.6581	1510.5	6.2
338.15	0.7518	1540	6.3
338.15	0.8626	1573.7	6.4
338.15	0.9092	1577.3	6.4
338.15	0.9148	1576	6.4
338.15	0.9248	1576.1	6.4
338.15	0.9305	1572.2	6.4
338.15	0.935	1559.7	6.4
338.15	0.9452	1564.6	6.4
338.15	0.9542	1566.2	6.4
338.15	0.9703	1566.1	6.4
338.15	0.98	1561.3	6.4
338.15	0.9903	1556.6	6.4
338.15	0.9925	1555.4	6.4
338.15	0.9951	1552.7	6.4

System: 2,3-butanediol + water; phases: Liquid
Fixed: Pressure, kPa = 101.3
Property: Mass density, kg/m3 (Liquid); method: VIBTUB:UFactor:8
Temperature, K	Mole fraction of water	Mass density, kg/m3	uncertainty
298.15	0.0546	999.76	0.35
298.15	0.1435	1001.87	0.34
298.15	0.2458	1004.58	0.33
298.15	0.3539	1007.87	0.33
298.15	0.4502	1011.19	0.33
298.15	0.4989	1013.01	0.33
298.15	0.5503	1014.99	0.33
298.15	0.6581	1019.13	0.33
298.15	0.7518	1021.95	0.33
298.15	0.8626	1021.36	0.32
298.15	0.9092	1017.89	0.31
298.15	0.9148	1017.25	0.31
298.15	0.9248	1015.95	0.31
298.15	0.9305	1015.11	0.3
298.15	0.935	1014.4	0.3
298.15	0.9452	1012.61	0.29
298.15	0.9542	1010.78	0.29
298.15	0.9703	1006.89	0.28
298.15	0.98	1004.1	0.27
298.15	0.9903	1000.7	0.26
298.15	0.9925	999.91	0.26
298.15	0.9951	998.95	0.26
308.15	0.0546	993.26	0.36
308.15	0.1435	995.29	0.34
308.15	0.2458	997.92	0.32
308.15	0.3539	1001.1	0.31
308.15	0.4502	1004.34	0.31
308.15	0.4989	1006.11	0.31
308.15	0.5503	1008.06	0.31
308.15	0.6581	1012.2	0.31
308.15	0.7518	1015.17	0.31
308.15	0.8626	1015.24	0.31
308.15	0.9092	1012.39	0.29
308.15	0.9148	1011.85	0.29
308.15	0.9248	1010.74	0.29
308.15	0.9305	1010.02	0.29
308.15	0.935	1009.4	0.28
308.15	0.9452	1007.83	0.28
308.15	0.9542	1006.24	0.27
308.15	0.9703	1002.81	0.26
308.15	0.98	1000.33	0.26
308.15	0.9903	997.3	0.26
308.15	0.9925	996.59	0.27
308.15	0.9951	995.73	0.27
318.15	0.0546	985.33	0.38
318.15	0.1435	987.34	0.36
318.15	0.2458	989.9	0.34
318.15	0.3539	993.04	0.32
318.15	0.4502	996.28	0.31
318.15	0.4989	998.08	0.3
318.15	0.5503	1000.07	0.29
318.15	0.6581	1004.28	0.29
318.15	0.7518	1007.26	0.29
318.15	0.8626	1007.49	0.28
318.15	0.9092	1005.07	0.27
318.15	0.9148	1004.61	0.27
318.15	0.9248	1003.67	0.27
318.15	0.9305	1003.07	0.27
318.15	0.935	1002.56	0.26
318.15	0.9452	1001.27	0.26
318.15	0.9542	999.96	0.26
318.15	0.9703	997.18	0.26
318.15	0.98	995.19	0.27
318.15	0.9903	992.79	0.28
318.15	0.9925	992.23	0.28
318.15	0.9951	991.55	0.28
328.15	0.0546	971.78	0.41
328.15	0.1435	973.84	0.39
328.15	0.2458	976.48	0.38
328.15	0.3539	979.73	0.36
328.15	0.4502	983.14	0.34
328.15	0.4989	985.04	0.33
328.15	0.5503	987.17	0.32
328.15	0.6581	991.86	0.3
328.15	0.7518	995.6	0.28
328.15	0.8626	997.57	0.27
328.15	0.9092	996.39	0.27
328.15	0.9148	996.11	0.27
328.15	0.9248	995.52	0.27
328.15	0.9305	995.13	0.27
328.15	0.935	994.78	0.27
328.15	0.9452	993.9	0.27
328.15	0.9542	992.98	0.28
328.15	0.9703	990.96	0.28
328.15	0.98	989.48	0.29
328.15	0.9903	987.67	0.29
328.15	0.9925	987.24	0.29
328.15	0.9951	986.72	0.3
338.15	0.0546	963.14	0.43
338.15	0.1435	965.14	0.42
338.15	0.2458	967.72	0.4
338.15	0.3539	970.91	0.38
338.15	0.4502	974.25	0.36
338.15	0.4989	976.14	0.36
338.15	0.5503	978.26	0.34
338.15	0.6581	982.97	0.32
338.15	0.7518	986.9	0.31
338.15	0.8626	989.57	0.29
338.15	0.9092	988.99	0.29
338.15	0.9148	988.8	0.29
338.15	0.9248	988.39	0.29
338.15	0.9305	988.1	0.29
338.15	0.935	987.85	0.29
338.15	0.9452	987.18	0.29
338.15	0.9542	986.46	0.3
338.15	0.9703	984.86	0.3
338.15	0.98	983.67	0.3
338.15	0.9903	982.18	0.31
338.15	0.9925	981.83	0.31
338.15	0.9951	981.4	0.31
