Measured thermophysical data. Double Azeotropy in Binary Mixtures 1,1,1,2,3,4,4,5,5,5-Decafluoropentane High-Boiling Diastereomer + Tetrahydrofuran
Source: J. Chem. Eng. Data, 2004, 10.1021/je034157t
Compound 1: (R*,R*)-1,1,1,2,2,3,4,5,5,5-decafluoropentane, C5H2F10, InChI=1S/C5H2F10/c6-1(2(7)4(10,11)12)3(8,9)5(13,14)15/h1-2H/t1-,2-/m1/s1, purity 99.89%
Compound 2: (R*,S*)-1,1,1,2,2,3,4,5,5,5-decafluoropentane, C5H2F10, InChI=1S/C5H2F10/c6-1(2(7)4(10,11)12)3(8,9)5(13,14)15/h1-2H/t1-,2+/m1/s1, purity 99.06%
Compound 3: tetrahydrofuran, C4H8O, InChI=1S/C4H8O/c1-2-4-5-3-1/h1-4H2, purity 99.9%

System: (R*,R*)-1,1,1,2,2,3,4,5,5,5-decafluoropentane; phases: Liquid, Gas
Property: Vapor or sublimation pressure, kPa (Liquid); method: EBULLIO:UFactor:8
Temperature, K	Vapor or sublimation pressure, kPa	uncertainty
295.82	26.69	0.08
303.17	37.25	0.09
305.11	40.56	0.09
313.05	56.54	0.11
318.04	68.94	0.12
323.24	84.1	0.13
327.95	99.96	0.14

System: (R*,S*)-1,1,1,2,2,3,4,5,5,5-decafluoropentane; phases: Liquid, Gas
Property: Vapor or sublimation pressure, kPa (Liquid); method: EBULLIO:UFactor:8
Temperature, K	Vapor or sublimation pressure, kPa	uncertainty
293.17	34.49	0.1
302.95	52.41	0.11
309.84	68.93	0.13
313.03	77.9	0.15
319.81	99.95	0.17

System: tetrahydrofuran; phases: Liquid, Gas
Property: Vapor or sublimation pressure, kPa (Liquid); method: EBULLIO:UFactor:8
Temperature, K	Vapor or sublimation pressure, kPa	uncertainty
303.04	26.67	0.08
303.05	26.68	0.08
305.11	29.09	0.08
309.28	34.5	0.09
313.11	40.15	0.09
316.36	45.51	0.1
318.1	48.62	0.1

System: (R*,R*)-1,1,1,2,2,3,4,5,5,5-decafluoropentane + (R*,S*)-1,1,1,2,2,3,4,5,5,5-decafluoropentane; phases: Liquid, Gas
Fixed: Pressure, kPa = 68.93
Property: Boiling temperature at pressure P, K (Liquid); method: EBULLIO:UFactor:8
Mole fraction of (R*,S*)-1,1,1,2,2,3,4,5,5,5-decafluoropentane	Boiling temperature at pressure P, K	uncertainty
0	318.04	0.71
0.0941	316.85	0.71
0.1104	316.71	0.71
0.1511	316.26	0.71
0.1522	316.19	0.71
0.2392	315.33	0.71
0.3241	314.52	0.71
0.4094	313.76	0.71
0.5501	312.91	0.71
0.5933	312.57	0.71
0.6596	312.08	0.71
0.7484	311.45	0.71
0.8195	310.97	0.71
0.8957	310.48	0.71
0.9586	310.09	0.71
1	309.84	0.71

System: tetrahydrofuran + (R*,R*)-1,1,1,2,2,3,4,5,5,5-decafluoropentane; phases: Liquid, Gas
Property: Azeotropic composition: mole fraction of tetrahydrofuran (Liquid); method: By X=Y
Temperature, K	Azeotropic composition: mole fraction of tetrahydrofuran	uncertainty
316.22	0.9445	0.0124
316.58	0.7218	0.0128

System: tetrahydrofuran + (R*,R*)-1,1,1,2,2,3,4,5,5,5-decafluoropentane; phases: Liquid, Gas
Fixed: Pressure, kPa = 45.51
Property: Azeotropic composition: mole fraction of tetrahydrofuran (Liquid); method: By X=Y
Azeotropic composition: mole fraction of tetrahydrofuran	uncertainty
0.7218	0.0034
0.9445	0.0013

System: tetrahydrofuran + (R*,R*)-1,1,1,2,2,3,4,5,5,5-decafluoropentane; phases: Liquid, Gas
Property: Boiling temperature at pressure P, K (Liquid); method: EBULLIO:UFactor:2
Pressure, kPa	Mole fraction of tetrahydrofuran	Boiling temperature at pressure P, K	uncertainty
26.69	0	295.82	0.18
26.69	0.0523	296.57	0.18
26.69	0.101	297.31	0.21
26.69	0.1844	298.62	0.21
26.69	0.2646	299.91	0.21
26.69	0.364	301.57	0.21
26.69	0.4411	302.73	0.21
26.69	0.5031	303.49	0.21
26.69	0.5653	304.01	0.18
26.69	0.6153	304.22	0.21
26.69	0.644	304.26	0.19
26.69	0.6999	304.2	0.19
26.69	0.9629	303.08	0.21
26.69	0.9826	303.05	0.21
26.69	1	303.04	0.2
45.51	0	307.82	0.27
45.51	0.051	308.55	0.27
45.51	0.0957	309.21	0.27
45.51	0.1602	310.23	0.27
45.51	0.2385	311.5	0.27
45.51	0.3245	312.96	0.27
45.51	0.4066	314.26	0.28
45.51	0.484	315.31	0.31
45.51	0.5634	316.09	0.27
45.51	0.6446	316.51	0.28
45.51	0.6979	316.56	0.28
45.51	0.7007	316.58	0.28
45.51	0.7158	316.56	0.48
45.51	0.7366	316.56	0.57
45.51	0.74	316.54	0.57
45.51	0.7753	316.48	0.5
45.51	0.8166	316.4	0.51
45.51	0.8553	316.32	0.5
45.51	0.889	316.28	0.49
45.51	0.8899	316.27	0.49
45.51	0.9136	316.26	0.55
45.51	0.9188	316.24	0.47
45.51	0.9336	316.25	0.55
45.51	0.9362	316.24	0.55
45.51	0.9552	316.24	0.44
45.51	0.9553	316.26	0.44
45.51	0.9755	316.28	0.42
45.51	0.9763	316.3	0.42
45.51	1	316.36	0.3
45.51	1	316.38	0.3
