Measured thermophysical data. Density, Refractive Index, and Speed of Sound at 298.15 K and Vapor-Liquid Equilibria at 101.3 kPa for Binary Mixtures of Ethyl Acetate + 1-Pentanol and Ethanol + 2-Methyl-1-propanol
Source: J. Chem. Eng. Data, 2004, 10.1021/je030218b
Compound 1: ethyl acetate, C4H8O2, InChI=1S/C4H8O2/c1-3-6-4(2)5/h3H2,1-2H3, purity 99.9%
Compound 2: pentan-1-ol, C5H12O, InChI=1S/C5H12O/c1-2-3-4-5-6/h6H,2-5H2,1H3, purity 99%
Compound 3: ethanol, C2H6O, InChI=1S/C2H6O/c1-2-3/h3H,2H2,1H3, purity 99.5%
Compound 4: 2-methyl-1-propanol, C4H10O, InChI=1S/C4H10O/c1-4(2)3-5/h4-5H,3H2,1-2H3, purity 99%

System: ethyl acetate; phases: Liquid
Property: Refractive index (Na D-line) (Liquid); method: Standard Abbe refractometry
Temperature, K	Pressure, kPa	Refractive index (Na D-line)	uncertainty
298.15	101.325	1.3698	0.00072

System: ethyl acetate; phases: Liquid
Property: Mass density, kg/m3 (Liquid); method: VIBTUB:UFactor:4
Temperature, K	Pressure, kPa	Mass density, kg/m3	uncertainty
298.15	101.325	894.24	0.38

System: ethyl acetate; phases: Liquid, Gas
Property: Vapor or sublimation pressure, kPa (Liquid); method: EBULLIO:UFactor:16
Temperature, K	Vapor or sublimation pressure, kPa	uncertainty
350.25	101.3	1.1

System: ethyl acetate; phases: Liquid
Property: Speed of sound, m/s (Liquid); method: FPINT:UFactor:2
Temperature, K	Pressure, kPa	Speed of sound, m/s	uncertainty
298.15	101.325	1137.66	1.62

System: pentan-1-ol; phases: Liquid
Property: Refractive index (Na D-line) (Liquid); method: Standard Abbe refractometry
Temperature, K	Pressure, kPa	Refractive index (Na D-line)	uncertainty
298.15	101.325	1.4077	0.00072

System: pentan-1-ol; phases: Liquid
Property: Mass density, kg/m3 (Liquid); method: VIBTUB:UFactor:4
Temperature, K	Pressure, kPa	Mass density, kg/m3	uncertainty
298.15	101.325	810.96	0.44

System: pentan-1-ol; phases: Liquid, Gas
Property: Vapor or sublimation pressure, kPa (Liquid); method: EBULLIO:UFactor:16
Temperature, K	Vapor or sublimation pressure, kPa	uncertainty
410.59	101.3	1.1

System: pentan-1-ol; phases: Liquid
Property: Speed of sound, m/s (Liquid); method: FPINT:UFactor:2
Temperature, K	Pressure, kPa	Speed of sound, m/s	uncertainty
298.15	101.325	1273.31	1.77

System: ethanol; phases: Liquid
Property: Refractive index (Na D-line) (Liquid); method: Standard Abbe refractometry
Temperature, K	Pressure, kPa	Refractive index (Na D-line)	uncertainty
298.15	101.325	1.35916	0.00072

System: ethanol; phases: Liquid
Property: Mass density, kg/m3 (Liquid); method: VIBTUB:UFactor:4
Temperature, K	Pressure, kPa	Mass density, kg/m3	uncertainty
298.15	101.325	785.36	0.48

System: ethanol; phases: Liquid, Gas
Property: Vapor or sublimation pressure, kPa (Liquid); method: EBULLIO:UFactor:16
Temperature, K	Vapor or sublimation pressure, kPa	uncertainty
351.5	101.3	1.1

System: ethanol; phases: Liquid
Property: Speed of sound, m/s (Liquid); method: FPINT:UFactor:2
Temperature, K	Pressure, kPa	Speed of sound, m/s	uncertainty
298.15	101.325	1143.11	1.65

System: 2-methyl-1-propanol; phases: Liquid
Property: Refractive index (Na D-line) (Liquid); method: Standard Abbe refractometry
Temperature, K	Pressure, kPa	Refractive index (Na D-line)	uncertainty
298.15	101.325	1.3937	0.00072

System: 2-methyl-1-propanol; phases: Liquid
Property: Mass density, kg/m3 (Liquid); method: VIBTUB:UFactor:4
Temperature, K	Pressure, kPa	Mass density, kg/m3	uncertainty
298.15	101.325	797.84	0.46

System: 2-methyl-1-propanol; phases: Liquid, Gas
Property: Vapor or sublimation pressure, kPa (Liquid); method: EBULLIO:UFactor:16
Temperature, K	Vapor or sublimation pressure, kPa	uncertainty
381	101.3	1.1

System: 2-methyl-1-propanol; phases: Liquid
Property: Speed of sound, m/s (Liquid); method: FPINT:UFactor:2
Temperature, K	Pressure, kPa	Speed of sound, m/s	uncertainty
298.15	101.325	1185.63	1.69

System: pentan-1-ol + ethyl acetate; phases: Liquid
Fixed: Pressure, kPa = 101
Fixed: Temperature, K = 298.15
Property: Refractive index (Na D-line) (Liquid); method: Standard Abbe refractometry
Mole fraction of ethyl acetate	Refractive index (Na D-line)	uncertainty
0.05	1.40579	0.00072
0.101	1.40382	0.00072
0.15	1.40193	0.00072
0.2	1.40012	0.00072
0.251	1.39803	0.00072
0.3	1.39629	0.00072
0.35	1.39423	0.00072
0.4	1.3925	0.00072
0.45	1.39052	0.00072
0.5	1.38863	0.00072
0.549	1.38676	0.00072
0.599	1.38493	0.00072
0.65	1.38303	0.00072
0.7	1.38107	0.00072
0.749	1.37919	0.00072
0.8	1.37733	0.00072
0.85	1.37548	0.00072
0.898	1.3736	0.00072
0.947	1.37188	0.00072

System: pentan-1-ol + ethyl acetate; phases: Liquid
Fixed: Pressure, kPa = 101
Fixed: Temperature, K = 298.15
Property: Speed of sound, m/s (Liquid); method: FPINT:UFactor:2
Mole fraction of ethyl acetate	Speed of sound, m/s	uncertainty
0.05	1263.5	1.8
0.101	1253.8	1.8
0.15	1245	1.7
0.2	1236.5	1.7
0.251	1227.5	1.7
0.3	1219.9	1.7
0.35	1211.9	1.7
0.4	1204.5	1.7
0.45	1198.2	1.7
0.5	1190.5	1.7
0.549	1184.1	1.7
0.599	1178.8	1.7
0.65	1172.1	1.7
0.7	1166.8	1.7
0.749	1161.7	1.6
0.8	1157.1	1.6
0.85	1152.2	1.6
0.898	1148	1.6
0.947	1144.1	1.6

System: pentan-1-ol + ethyl acetate; phases: Liquid, Gas
Fixed: Pressure, kPa = 101.3
Property: Boiling temperature at pressure P, K (Liquid); method: EBULLIO:UFactor:16
Mole fraction of ethyl acetate	Boiling temperature at pressure P, K	uncertainty
0	410.59	0.49
0.022	406.75	1.03
0.065	400.66	0.93
0.119	393.93	0.85
0.153	390.53	0.78
0.199	385.89	0.76
0.25	381.19	0.74
0.292	377.32	0.67
0.341	374.23	0.6
0.391	371.67	0.58
0.442	368.96	0.58
0.489	366.77	0.57
0.528	364.74	0.56
0.573	363.12	0.54
0.608	361.85	0.54
0.637	360.87	0.53
0.683	359.42	0.53
0.698	359.02	0.53
0.745	357.33	0.53
0.781	356.36	0.52
0.882	353.45	0.52
0.936	351.96	0.52
1	350.25	0.49

System: pentan-1-ol + ethyl acetate; phases: Liquid
Fixed: Pressure, kPa = 101
Fixed: Temperature, K = 298.15
Property: Mass density, kg/m3 (Liquid); method: VIBTUB:UFactor:4
Mole fraction of ethyl acetate	Mass density, kg/m3	uncertainty
0.05	814.16	0.44
0.101	817.63	0.43
0.15	821.07	0.42
0.2	824.6	0.42
0.251	828.3	0.41
0.3	831.9	0.4
0.35	835.73	0.4
0.4	839.69	0.39
0.45	843.69	0.38
0.5	847.81	0.38
0.549	851.89	0.37
0.599	856.06	0.36
0.65	860.53	0.36
0.7	865.01	0.35
0.749	869.4	0.34
0.8	874.19	0.34
0.85	879	0.33
0.898	883.69	0.32
0.947	888.68	0.32

System: pentan-1-ol + ethyl acetate; phases: Gas, Liquid
Fixed: Pressure, kPa = 101.3
Property: Mole fraction of ethyl acetate (Gas); method: RIXVDN
Mole fraction of ethyl acetate	Mole fraction of ethyl acetate	uncertainty
0	0	0.001
0.022	0.145	0.03
0.065	0.327	0.022
0.119	0.495	0.017
0.153	0.564	0.013
0.199	0.652	0.012
0.25	0.724	0.01
0.292	0.777	0.008
0.341	0.81	0.007
0.391	0.843	0.007
0.442	0.869	0.007
0.489	0.888	0.007
0.528	0.905	0.006
0.573	0.918	0.006
0.608	0.927	0.006
0.637	0.934	0.006
0.683	0.944	0.006
0.698	0.946	0.006
0.745	0.959	0.006
0.781	0.964	0.006
0.882	0.982	0.006
0.936	0.991	0.006
1	1	0.001

System: 2-methyl-1-propanol + ethyl acetate; phases: Liquid
Fixed: Pressure, kPa = 101
Fixed: Temperature, K = 298.15
Property: Refractive index (Na D-line) (Liquid); method: Standard Abbe refractometry
Mole fraction of ethyl acetate	Refractive index (Na D-line)	uncertainty
0.052	1.39253	0.00072
0.104	1.39136	0.00072
0.155	1.39012	0.00072
0.206	1.3889	0.00072
0.258	1.38753	0.00072
0.308	1.38611	0.00072
0.359	1.3847	0.00072
0.41	1.3833	0.00072
0.46	1.38169	0.00072
0.51	1.3803	0.00072
0.56	1.37842	0.00072
0.609	1.37674	0.00072
0.659	1.37505	0.00072
0.708	1.37301	0.00072
0.757	1.37111	0.00072
0.806	1.36884	0.00072
0.855	1.36675	0.00072
0.904	1.36431	0.00072
0.952	1.36189	0.00072

System: 2-methyl-1-propanol + ethyl acetate; phases: Liquid
Fixed: Pressure, kPa = 101
Fixed: Temperature, K = 298.15
Property: Speed of sound, m/s (Liquid); method: FPINT:UFactor:2
Mole fraction of ethyl acetate	Speed of sound, m/s	uncertainty
0.052	1186.09	1.69
0.104	1184.42	1.68
0.155	1182.91	1.68
0.206	1181.47	1.68
0.258	1179.29	1.67
0.308	1177.47	1.67
0.359	1175.62	1.66
0.41	1174.15	1.66
0.46	1171.26	1.66
0.51	1169.01	1.65
0.56	1165.22	1.65
0.609	1162.97	1.65
0.659	1160.41	1.64
0.708	1158.25	1.64
0.757	1155.32	1.64
0.806	1152.79	1.63
0.855	1150.1	1.63
0.904	1147.39	1.63
0.952	1144.67	1.62

System: 2-methyl-1-propanol + ethyl acetate; phases: Liquid
Fixed: Pressure, kPa = 101
Fixed: Temperature, K = 298.15
Property: Mass density, kg/m3 (Liquid); method: VIBTUB:UFactor:4
Mole fraction of ethyl acetate	Mass density, kg/m3	uncertainty
0.052	797.95	0.45
0.104	797.48	0.45
0.155	796.99	0.45
0.206	796.46	0.45
0.258	795.94	0.45
0.308	795.35	0.45
0.359	794.79	0.45
0.41	794.16	0.45
0.46	793.58	0.45
0.51	793	0.45
0.56	791.89	0.45
0.609	791.22	0.45
0.659	790.55	0.45
0.708	789.9	0.45
0.757	789.15	0.46
0.806	788.4	0.46
0.855	787.68	0.46
0.904	786.87	0.46
0.952	786.08	0.46

System: ethanol + 2-methyl-1-propanol; phases: Liquid, Gas
Fixed: Pressure, kPa = 101.3
Property: Boiling temperature at pressure P, K (Liquid); method: EBULLIO:UFactor:16
Mole fraction of ethanol	Boiling temperature at pressure P, K	uncertainty
0	381	0.49
0.012	380.36	0.59
0.085	377.01	0.57
0.121	375.21	0.56
0.163	373.55	0.55
0.199	372.07	0.54
0.238	370.69	0.54
0.27	369.51	0.54
0.299	368.5	0.53
0.328	367.65	0.53
0.362	366.54	0.53
0.419	364.78	0.53
0.455	363.66	0.52
0.497	362.59	0.52
0.535	361.63	0.52
0.6	359.96	0.52
0.632	359.09	0.52
0.667	358.27	0.51
0.802	355.37	0.51
0.856	354.17	0.51
0.912	353.2	0.5
0.947	352.5	0.51
1	351.5	0.49

System: ethanol + 2-methyl-1-propanol; phases: Gas, Liquid
Fixed: Pressure, kPa = 101.3
Property: Mole fraction of ethanol (Gas); method: RIXVDN
Mole fraction of ethanol	Mole fraction of ethanol	uncertainty
0	0	0.001
0.012	0.035	0.019
0.085	0.205	0.015
0.121	0.29	0.014
0.163	0.365	0.012
0.199	0.427	0.011
0.238	0.48	0.01
0.27	0.527	0.011
0.299	0.567	0.009
0.328	0.597	0.009
0.362	0.632	0.008
0.419	0.686	0.008
0.455	0.717	0.008
0.497	0.753	0.008
0.535	0.778	0.007
0.6	0.821	0.007
0.632	0.842	0.007
0.667	0.861	0.007
0.802	0.924	0.007
0.856	0.948	0.007
0.912	0.969	0.006
0.947	0.981	0.006
1	1	0.001
