Measured thermophysical data. Densities, Partial Molar Volumes, and Heat Capacities of Glycine, L-Alanine, and L-Leucine in Aqueous Magnesium Chloride Solutions at Different Temperatures
Source: J. Chem. Eng. Data, 2004, 10.1021/je034168m
Compound 1: 2-aminoacetic acid, C2H5NO2, InChI=1S/C2H5NO2/c3-1-2(4)5/h1,3H2,(H,4,5)
Compound 2: (S)-2-aminopropanoic acid, C3H7NO2, InChI=1S/C3H7NO2/c1-2(4)3(5)6/h2H,4H2,1H3,(H,5,6)/t2-/m0/s1
Compound 3: L-leucine, C6H13NO2, InChI=1S/C6H13NO2/c1-4(2)3-5(7)6(8)9/h4-5H,3,7H2,1-2H3,(H,8,9)/t5-/m0/s1
Compound 4: magnesium chloride, Cl2Mg, InChI=1S/2ClH.Mg/h2*1H;/q;;+2/p-2
Compound 5: water, H2O, InChI=1S/H2O/h1H2

System: 2-aminoacetic acid + water + magnesium chloride; phases: Liquid
Fixed: Pressure, kPa = 101.3
Property: Molar heat capacity at constant pressure, J/K/mol (Liquid); method: Large sample (1 g) DSC
Temperature, K	Molality, mol/kg of magnesium chloride	Molality, mol/kg of 2-aminoacetic acid	Molar heat capacity at constant pressure, J/K/mol	uncertainty
298.15	0.05065	0.05491	4.137778	0.082756
298.15	0.05065	0.0955	4.127489	0.08255
298.15	0.05065	0.19686	4.101858	0.082037
298.15	0.05065	0.47711	4.031064	0.080621
298.15	0.05065	0.95891	3.921351	0.078427
298.15	0.05065	1.4591	3.826006	0.07652
298.15	0.05065	1.9241	3.747191	0.074944
298.15	0.07955	0.04536	4.12497	0.082499
298.15	0.07955	0.06871	4.114611	0.082292
298.15	0.07955	0.09801	4.107144	0.082143
298.15	0.07955	0.19839	4.082112	0.081642
298.15	0.07955	0.39396	4.034746	0.080695
298.15	0.07955	0.58049	3.990492	0.07981
298.15	0.07955	0.96331	3.907169	0.078143
298.15	0.09939	0.05741	4.105509	0.08211
298.15	0.09939	0.10136	4.09546	0.081909
298.15	0.09939	0.53675	3.989524	0.07979
298.15	0.09939	1.10816	3.870171	0.077403
298.15	0.09939	1.87244	3.731252	0.074625
298.15	0.35897	0.05038	3.930879	0.078618
298.15	0.35897	0.06209	3.928453	0.078569
298.15	0.35897	0.07032	3.926548	0.078531
298.15	0.35897	0.09823	3.919168	0.078383
298.15	0.35897	0.18876	3.900041	0.078001
298.15	0.35897	0.3788	3.861928	0.077239
298.15	0.35897	0.56352	3.82624	0.076525
303.15	0.05065	0.0955	4.12646	0.082529
303.15	0.05065	0.19686	4.102286	0.082046
303.15	0.05065	0.47711	4.032849	0.080657
303.15	0.05065	0.95891	3.925521	0.07851
303.15	0.05065	1.4591	3.830195	0.076604
303.15	0.05065	1.9241	3.751328	0.075027
303.15	0.07955	0.04536	4.119268	0.082385
303.15	0.07955	0.06871	4.112988	0.08226
303.15	0.07955	0.09801	4.10565	0.082113
303.15	0.07955	0.19839	4.081383	0.081628
303.15	0.07955	0.39396	4.035648	0.080713
303.15	0.07955	0.58049	3.992301	0.079846
303.15	0.07955	0.96331	3.914824	0.078296
303.15	0.09939	0.05741	4.104474	0.082089
303.15	0.09939	0.10136	4.094351	0.081887
303.15	0.09939	0.19759	4.071052	0.081421
303.15	0.09939	0.53675	3.991066	0.079821
303.15	0.09939	1.10816	3.885722	0.077714
303.15	0.09939	1.87244	3.734944	0.074699
303.15	0.38597	0.05038	3.932038	0.078641
303.15	0.38597	0.06209	3.929488	0.07859
303.15	0.38597	0.07032	3.927755	0.078555
303.15	0.38597	0.09823	3.919972	0.078399
303.15	0.38597	0.18876	3.902128	0.078043
303.15	0.38597	0.3788	3.864402	0.077288
303.15	0.38597	0.56352	3.830414	0.076608
308.15	0.05065	0.05491	4.138208	0.082764
308.15	0.05065	0.0955	4.135837	0.082717
308.15	0.05065	0.19686	4.103812	0.082076
308.15	0.05065	0.47711	4.035321	0.080706
308.15	0.05065	0.95891	3.930429	0.078609
308.15	0.05065	1.4591	3.838232	0.076765
308.15	0.05065	1.9241	3.75806	0.075161
308.15	0.07955	0.04536	4.119418	0.082388
308.15	0.07955	0.06871	4.113466	0.082269
308.15	0.07955	0.09801	4.10631	0.082126
308.15	0.07955	0.19839	4.082468	0.081649
308.15	0.07955	0.39396	4.036488	0.08073
308.15	0.07955	0.58049	3.99402	0.07988
308.15	0.07955	0.96331	3.915772	0.078315
308.15	0.09939	0.05741	4.103642	0.082073
308.15	0.09939	0.10136	4.095433	0.081909
308.15	0.09939	0.19759	4.070139	0.081403
308.15	0.09939	0.53675	3.993584	0.079872
308.15	0.09939	1.10816	3.889724	0.077794
308.15	0.09939	1.87244	3.743985	0.07488
308.15	0.38597	0.05038	3.936245	0.078725
308.15	0.38597	0.06209	3.933115	0.078662
308.15	0.38597	0.07032	3.931739	0.078635
308.15	0.38597	0.09823	3.924173	0.078483
308.15	0.38597	0.18876	3.906116	0.078122
308.15	0.38597	0.3788	3.867939	0.077359
308.15	0.38597	0.56352	3.832513	0.07665
308.15	0.38597	1.87244	3.757534	0.075151
313.15	0.05065	0.05491	4.139147	0.082783
313.15	0.05065	0.0955	4.127589	0.082552
313.15	0.05065	0.19686	4.104572	0.082091
313.15	0.05065	0.47711	4.037727	0.080755
313.15	0.05065	0.95891	3.93433	0.078687
313.15	0.05065	1.4591	3.841142	0.076823
313.15	0.05065	1.9241	3.721129	0.074423
313.15	0.07955	0.04536	4.120906	0.082418
313.15	0.07955	0.06871	4.114685	0.082294
313.15	0.07955	0.09801	4.107609	0.082152
313.15	0.07955	0.19839	4.084208	0.081684
313.15	0.07955	0.39396	4.014653	0.080293
313.15	0.07955	0.58049	3.998962	0.079979
313.15	0.07955	0.96331	3.918325	0.078367
313.15	0.09939	0.09939	4.104154	0.082083
313.15	0.09939	0.10136	4.096116	0.081922
313.15	0.09939	0.19759	4.071902	0.081438
313.15	0.09939	0.53675	3.996196	0.079924
313.15	0.09939	1.10816	3.878189	0.077564
313.15	0.09939	1.87244	3.749049	0.074981
313.15	0.38597	0.05038	3.937337	0.078747
313.15	0.38597	0.06209	3.934815	0.078696
313.15	0.38597	0.07032	3.933079	0.078662
313.15	0.38597	0.09823	3.925807	0.078516
313.15	0.38597	0.18876	3.908347	0.078167
313.15	0.38597	0.3788	3.872182	0.077444
313.15	0.38597	0.56352	3.839067	0.076781
313.15	0.38597	1.87244	3.767003	0.07534
318.15	0.05065	0.05491	4.139954	0.082799
318.15	0.05065	0.0955	4.128283	0.082566
318.15	0.05065	0.19686	4.104617	0.082092
318.15	0.05065	0.47711	4.040102	0.080802
318.15	0.05065	0.95891	3.938305	0.078766
318.15	0.05065	1.4591	3.84818	0.076964
318.15	0.05065	1.9241	3.767131	0.075343
318.15	0.07955	0.04536	4.122176	0.082444
318.15	0.07955	0.06871	4.115987	0.08232
318.15	0.07955	0.09801	4.109214	0.082184
318.15	0.07955	0.19839	4.086045	0.081721
318.15	0.07955	0.39396	4.042202	0.080844
318.15	0.07955	0.58049	4.001307	0.080026
318.15	0.07955	0.96331	3.918325	0.078367
318.15	0.09939	0.05741	4.104675	0.082094
318.15	0.09939	0.10136	4.097055	0.081941
318.15	0.09939	0.19759	4.073415	0.081468
318.15	0.09939	0.53675	3.998313	0.079966
318.15	0.09939	1.10816	3.891302	0.077826
318.15	0.09939	1.87244	3.756728	0.075135
318.15	0.38597	0.05038	3.941073	0.078821
318.15	0.38597	0.06209	3.938992	0.07878
318.15	0.38597	0.07032	3.937821	0.078756
318.15	0.38597	0.09823	3.930664	0.078613
318.15	0.38597	0.18876	3.91326	0.078265
318.15	0.38597	0.3788	3.877639	0.077553
318.15	0.38597	0.56352	3.843482	0.07687
318.15	0.38597	1.87244	3.771915	0.075438
323.15	0.05065	0.05491	4.141747	0.082835
323.15	0.05065	0.0955	4.130367	0.082607
323.15	0.05065	0.19686	4.107158	0.082143
323.15	0.05065	0.47711	4.044295	0.080886
323.15	0.05065	0.95891	3.944938	0.078899
323.15	0.05065	1.4591	3.853556	0.077071
323.15	0.05065	1.9241	3.774696	0.075494
323.15	0.07955	0.04536	4.124244	0.082485
323.15	0.07955	0.06871	4.118059	0.082361
323.15	0.07955	0.09801	4.111363	0.082227
323.15	0.07955	0.19839	4.088679	0.081774
323.15	0.07955	0.39396	4.045745	0.080915
323.15	0.07955	0.58049	4.006335	0.080127
323.15	0.07955	0.96331	3.929758	0.078595
323.15	0.09939	0.05741	4.106415	0.082128
323.15	0.09939	0.10136	4.099305	0.081986
323.15	0.09939	0.19759	4.076587	0.081532
323.15	0.09939	0.53675	4.005265	0.080105
323.15	0.09939	1.10816	3.895713	0.077914
323.15	0.09939	1.87244	3.764833	0.075297
323.15	0.38597	0.05038	3.945169	0.078903
323.15	0.38597	0.06209	3.943162	0.078863
323.15	0.38597	0.07032	3.941927	0.078839
323.15	0.38597	0.09823	3.934333	0.078687
323.15	0.38597	0.18876	3.9197	0.078394
323.15	0.38597	0.3788	3.886051	0.077721
323.15	0.38597	0.56352	3.854686	0.077094
323.15	0.38597	1.87244	3.789424	0.075788
328.15	0.05065	0.05491	4.142504	0.08285
328.15	0.05065	0.0955	4.131768	0.082635
328.15	0.05065	0.19686	4.108875	0.082178
328.15	0.05065	0.47711	4.04809	0.080962
328.15	0.05065	0.95891	3.950835	0.079017
328.15	0.05065	1.4591	3.863369	0.077267
328.15	0.05065	1.9241	3.786006	0.07572
328.15	0.07955	0.04536	4.125867	0.082517
328.15	0.07955	0.06871	4.119792	0.082396
328.15	0.07955	0.09801	4.113241	0.082265
328.15	0.07955	0.19839	4.091359	0.081827
328.15	0.07955	0.39396	4.048747	0.080975
328.15	0.07955	0.58049	4.011211	0.080224
328.15	0.07955	0.96331	3.93647	0.078729
328.15	0.09939	0.05741	4.107729	0.082155
328.15	0.09939	0.10136	4.10054	0.082011
328.15	0.09939	0.19759	4.078687	0.081574
328.15	0.09939	0.53675	4.007721	0.080154
328.15	0.09939	1.10816	3.907406	0.078148
328.15	0.09939	1.87244	3.776414	0.075528
328.15	0.38597	0.05038	3.947974	0.078959
328.15	0.38597	0.06209	3.94552	0.07891
328.15	0.38597	0.07032	3.943162	0.078863
328.15	0.38597	0.09823	3.937091	0.078742
328.15	0.38597	0.18876	3.921167	0.078423
328.15	0.38597	0.3788	3.88742	0.077748
328.15	0.38597	0.56352	3.856416	0.077128
328.15	0.38597	1.87244	3.786912	0.075738

System: 2-aminoacetic acid + water + magnesium chloride; phases: Liquid
Fixed: Pressure, kPa = 101.3
Property: Mass density, kg/m3 (Liquid); method: Vibrating tube method
Temperature, K	Molality, mol/kg of magnesium chloride	Molality, mol/kg of 2-aminoacetic acid	Mass density, kg/m3	uncertainty
288.15	0	0.07199	1001.44	2.636
288.15	0	0.08829	1001.969	2.637
288.15	0	0.20585	1005.721	2.647
288.15	0	0.20591	1005.725	2.647
288.15	0	0.31877	1009.266	2.656
288.15	0	0.40686	1012.019	2.664
288.15	0	0.48694	1014.475	2.67
288.15	0	0.50747	1015.099	2.672
288.15	0.05016	0.0481	1004.679	2.644
288.15	0.05016	0.07984	1005.692	2.647
288.15	0.05016	0.18341	1008.989	2.656
288.15	0.05016	0.29718	1012.561	2.665
288.15	0.05016	0.40499	1015.875	2.674
288.15	0.05016	0.50067	1018.769	2.681
288.15	0.05016	0.55778	1020.528	2.686
288.15	0.10123	0.05259	1008.749	2.655
288.15	0.10123	0.09316	1010.027	2.658
288.15	0.10123	0.18569	1012.945	2.666
288.15	0.10123	0.30481	1016.626	2.676
288.15	0.10123	0.40601	1019.695	2.684
288.15	0.10123	0.50258	1022.602	2.692
288.15	0.20109	0.04921	1016.448	2.675
288.15	0.20109	0.19248	1020.863	2.687
288.15	0.20109	0.29424	1023.917	2.695
288.15	0.20109	0.38142	1026.527	2.702
288.15	0.20109	0.51876	1030.587	2.713
288.15	0.27158	0.10054	1023.191	2.693
288.15	0.27158	0.20027	1026.222	2.701
288.15	0.27158	0.30285	1029.258	2.709
288.15	0.27158	0.39141	1031.933	2.716
288.15	0.27158	0.48809	1034.743	2.724
288.15	0.39669	0.04961	1031.498	2.715
288.15	0.39669	0.09671	1032.992	2.719
288.15	0.39669	0.20591	1036.262	2.728
288.15	0.39669	0.29587	1038.983	2.735
288.15	0.39669	0.35959	1040.817	2.74
288.15	0.39669	0.40848	1042.261	2.743
288.15	0.39669	0.63522	1048.673	2.76
288.15	0.40466	0.01532	1030.655	2.713
288.15	0.40466	0.09664	1033.028	2.719
288.15	0.40466	0.20213	1036.21	2.727
288.15	0.40466	0.29102	1038.769	2.734
288.15	0.40466	0.40486	1041.965	2.743
288.15	0.60742	0.04841	1047.676	2.758
288.15	0.60742	0.09736	1048.16	2.759
288.15	0.60742	0.25335	1052.636	2.771
288.15	0.60742	0.36234	1055.337	2.778
288.15	0.60742	0.43705	1057.794	2.785
298.15	0	0.01387	997.485	2.625
298.15	0	0.04314	998.413	2.628
298.15	0	0.05919	998.92	2.629
298.15	0	0.07199	999.324	2.63
298.15	0	0.08907	999.859	2.632
298.15	0	0.11149	1000.563	2.633
298.15	0	0.1643	1002.213	2.638
298.15	0	0.28685	1005.98	2.648
298.15	0	0.48172	1011.801	2.663
298.15	0.05027	0.0481	1002.528	2.639
298.15	0.05027	0.18341	1006.726	2.65
298.15	0.05027	0.29718	1010.175	2.659
298.15	0.05027	0.40499	1013.418	2.667
298.15	0.05027	0.50067	1016.251	2.675
298.15	0.05027	0.55778	1017.938	2.679
298.15	0.0999	0.10812	1008.224	2.654
298.15	0.0999	0.1606	1009.818	2.658
298.15	0.0999	0.2226	1011.712	2.663
298.15	0.0999	0.3522	1015.52	2.673
298.15	0.0999	0.5305	1020.656	2.686
298.15	0.0999	0.646	1023.929	2.695
298.15	0.40358	0.05558	1029.523	2.71
298.15	0.40358	0.10288	1030.908	2.713
298.15	0.40358	0.20417	1033.847	2.721
298.15	0.40358	0.30315	1036.621	2.729
298.15	0.40358	0.3712	1038.525	2.734
298.15	0.40358	0.49936	1042.085	2.743
298.15	0.40358	0.76202	1049.278	2.762
298.15	0.71155	0.05216	1051.659	2.768
298.15	0.71155	0.1071	1053.177	2.772
298.15	0.71155	0.19549	1055.639	2.779
298.15	0.71155	0.29619	1058.379	2.786
298.15	0.71155	0.41	1061.447	2.794
298.15	0.76311	0.04839	1055.542	2.779
298.15	0.76311	0.09608	1056.862	2.782
298.15	0.76311	0.16989	1058.905	2.787
298.15	0.76311	0.30667	1062.599	2.797
298.15	0.76311	0.39616	1064.991	2.804
298.15	0.76311	0.51509	1068.103	2.812
298.15	0.81462	0.04903	1058.944	2.788
298.15	0.81462	0.09991	1060.372	2.791
298.15	0.81462	0.16549	1062.194	2.796
298.15	0.81462	0.2784	1065.228	2.804
298.15	0.81462	0.40085	1068.512	2.813
298.15	0.81462	0.47964	1070.489	2.818
298.15	0.81468	0.05537	1058.964	2.788
298.15	0.81468	0.09948	1060.255	2.791
298.15	0.81468	0.18202	1063.515	2.8
298.15	0.81468	0.29821	1065.599	2.805
298.15	0.81468	0.43423	1069.196	2.815
298.15	0.81468	0.48821	1070.604	2.818
298.15	0.91811	0.04862	1066.158	2.807
298.15	0.91811	0.10545	1067.67	2.811
298.15	0.91811	0.22027	1070.737	2.819
298.15	0.91811	0.32067	1073.394	2.826
298.15	0.91811	0.42326	1076.073	2.833
308.15	0	0.05241	995.657	2.62
308.15	0	0.06946	996.187	2.622
308.15	0	0.09336	996.929	2.624
308.15	0	0.16757	999.091	2.63
308.15	0	0.31573	1003.698	2.642
308.15	0	0.41503	1006.676	2.65
308.15	0	0.51343	1009.576	2.657
308.15	0.05255	0.04803	999.627	2.631
308.15	0.05255	0.09165	1000.956	2.634
308.15	0.05255	0.17652	1003.533	2.641
308.15	0.05255	0.28906	1006.915	2.65
308.15	0.05255	0.41474	1010.605	2.66
308.15	0.05255	0.51236	1013.428	2.667
308.15	0.05255	0.63927	1017.006	2.677
308.15	0.10105	0.09589	1004.691	2.644
308.15	0.10105	0.17272	1006.999	2.65
308.15	0.10105	0.2863	1010.376	2.659
308.15	0.10105	0.41139	1013.976	2.669
308.15	0.10105	0.49655	1016.47	2.675
308.15	0.20259	0.04299	1010.793	2.66
308.15	0.20259	0.10812	1012.788	2.666
308.15	0.20259	0.16558	1014.507	2.67
308.15	0.20259	0.31379	1018.801	2.682
308.15	0.20259	0.39701	1021.178	2.688
308.15	0.20259	0.49415	1023.892	2.695
308.15	0.20259	0.60791	1027.115	2.703
308.15	0.40598	0.04876	1026.138	2.701
308.15	0.40598	0.10832	1027.929	2.706
308.15	0.40598	0.17753	1029.925	2.711
308.15	0.40598	0.30925	1033.618	2.721
308.15	0.40598	0.39212	1035.893	2.727
308.15	0.40598	0.50015	1038.796	2.734
308.15	0.40598	0.60345	1041.607	2.742
308.15	0.82218	0.04591	1055.131	2.777
308.15	0.82218	0.21159	1059.634	2.789
308.15	0.82218	0.39859	1064.496	2.802
308.15	0.82218	0.48182	1066.633	2.808
308.15	0.82218	0.57416	1069.012	2.814

System: (S)-2-aminopropanoic acid + water + magnesium chloride; phases: Liquid
Fixed: Pressure, kPa = 101.3
Property: Molar heat capacity at constant pressure, J/K/mol (Liquid); method: Large sample (1 g) DSC
Temperature, K	Molality, mol/kg of magnesium chloride	Molality, mol/kg of (S)-2-aminopropanoic acid	Molar heat capacity at constant pressure, J/K/mol	uncertainty
298.15	0.05065	0.0481	4.141335	0.082827
298.15	0.05065	0.06491	4.138127	0.082763
298.15	0.05065	0.06511	4.135964	0.082719
298.15	0.05065	0.1465	4.118144	0.082363
298.15	0.05065	0.149	4.116539	0.082331
298.15	0.05065	0.1492	4.117028	0.082341
298.15	0.05065	0.1889	4.107089	0.082142
298.15	0.05065	0.4759	4.041875	0.080838
298.15	0.05065	0.99471	3.957759	0.079155
298.15	0.05065	1.9323	3.788342	0.075767
298.15	0.07955	0.04739	4.123635	0.082473
298.15	0.07955	0.06737	4.119555	0.082391
298.15	0.07955	0.09437	4.112018	0.08224
298.15	0.07955	0.19887	4.089546	0.081791
298.15	0.07955	0.3761	4.052033	0.081041
298.15	0.07955	0.94684	3.943472	0.078869
298.15	0.07955	1.45704	3.863607	0.077272
298.15	0.07955	1.8929	3.794459	0.075889
298.15	0.09939	0.05	4.10893	0.082179
298.15	0.09939	0.10774	4.097551	0.081951
298.15	0.09939	0.19465	4.07818	0.081564
298.15	0.09939	0.47384	4.021286	0.080426
298.15	0.09939	0.96078	3.930186	0.078604
298.15	0.09939	1.9712	3.773119	0.075462
298.15	0.38597	0.075	3.929839	0.078597
298.15	0.38597	0.09543	3.923603	0.078472
298.15	0.38597	0.18605	3.907837	0.078157
298.15	0.38597	0.36104	3.877866	0.077557
298.15	0.38597	0.94233	3.784662	0.075693
298.15	0.38597	1.88303	3.651958	0.073039
303.15	0.05065	0.0481	4.140039	0.082801
303.15	0.05065	0.06491	4.136136	0.082723
303.15	0.05065	0.06511	4.134004	0.08268
303.15	0.05065	0.1465	4.118299	0.082366
303.15	0.05065	0.149	4.115865	0.082317
303.15	0.05065	0.1492	4.116173	0.082323
303.15	0.05065	0.1889	4.106572	0.082131
303.15	0.05065	0.4759	4.043479	0.08087
303.15	0.05065	0.99471	3.961045	0.079221
303.15	0.05065	1.9323	3.801048	0.076021
303.15	0.07955	0.04739	4.121692	0.082434
303.15	0.07955	0.06737	4.117255	0.082345
303.15	0.07955	0.09437	4.110565	0.082211
303.15	0.07955	0.19887	4.088346	0.081767
303.15	0.07955	0.3761	4.050324	0.081006
303.15	0.07955	0.94684	3.944176	0.078884
303.15	0.07955	1.45704	3.861921	0.077238
303.15	0.07955	1.8929	3.805605	0.076112
303.15	0.09939	0.05	4.107905	0.082158
303.15	0.09939	0.10774	4.096513	0.08193
303.15	0.09939	0.19465	4.07788	0.081558
303.15	0.09939	0.47384	4.022292	0.080446
303.15	0.09939	0.96078	3.931016	0.07862
303.15	0.09939	1.9712	3.774887	0.075498
303.15	0.38597	0.075	3.931358	0.078627
303.15	0.38597	0.09543	3.9249	0.078498
303.15	0.38597	0.18605	3.909606	0.078192
303.15	0.38597	0.36104	3.880206	0.077604
303.15	0.38597	0.94233	3.788949	0.075779
303.15	0.38597	1.88303	3.660476	0.07321
308.15	0.05065	0.0481	4.140046	0.082801
308.15	0.05065	0.06491	4.13921	0.082784
308.15	0.05065	0.06511	4.134701	0.082694
308.15	0.05065	0.1492	4.116194	0.082324
308.15	0.05065	0.1889	4.107309	0.082146
308.15	0.05065	0.4759	4.046745	0.080935
308.15	0.05065	0.99471	3.965571	0.079311
308.15	0.05065	1.9323	3.809837	0.076197
308.15	0.07955	0.04739	4.121793	0.082436
308.15	0.07955	0.06737	4.117914	0.082358
308.15	0.07955	0.09437	4.110891	0.082218
308.15	0.07955	0.19887	4.08868	0.081774
308.15	0.07955	0.3761	4.051202	0.081024
308.15	0.07955	0.94684	3.949211	0.078984
308.15	0.07955	1.45704	3.870628	0.077413
308.15	0.07955	1.8929	3.802077	0.076042
308.15	0.09939	0.05	4.108165	0.082163
308.15	0.09939	0.10774	4.096606	0.081932
308.15	0.09939	0.19465	4.07838	0.081568
308.15	0.09939	0.47384	4.024072	0.080481
308.15	0.09939	0.96078	3.933948	0.078679
308.15	0.09939	1.9712	3.785864	0.075717
308.15	0.38597	0.075	3.93553	0.078711
308.15	0.38597	0.09543	3.928644	0.078573
308.15	0.38597	0.18605	3.913339	0.078267
308.15	0.38597	0.36104	3.88376	0.077675
308.15	0.38597	0.94233	3.79124	0.075825
308.15	0.38597	1.88303	3.659518	0.07319
313.15	0.05065	0.0481	4.139938	0.082799
313.15	0.05065	0.06491	4.136085	0.082722
313.15	0.05065	0.06511	4.135031	0.082701
313.15	0.05065	0.1465	4.118007	0.08236
313.15	0.05065	0.149	4.117415	0.082348
313.15	0.05065	0.1492	4.11725	0.082345
313.15	0.05065	0.1889	4.109182	0.082184
313.15	0.07955	0.06737	4.118931	0.082379
313.15	0.07955	0.07955	4.122956	0.082459
313.15	0.07955	0.09437	4.112184	0.082244
313.15	0.07955	0.19887	4.091449	0.081829
313.15	0.07955	0.3761	4.05689	0.081138
313.15	0.07955	0.4759	4.048264	0.080965
313.15	0.07955	0.94684	3.951567	0.079031
313.15	0.07955	0.99471	3.968576	0.079372
313.15	0.07955	1.45704	3.872246	0.077445
313.15	0.07955	1.8929	3.806419	0.076128
313.15	0.07955	1.9323	3.813153	0.076263
313.15	0.09939	0.05	4.108799	0.082176
313.15	0.09939	0.10774	4.097928	0.081959
313.15	0.09939	0.19465	4.080138	0.081603
313.15	0.09939	0.47384	4.026439	0.080529
313.15	0.09939	0.96078	3.940125	0.078803
313.15	0.09939	1.9712	3.790229	0.075805
313.15	0.38597	0.075	3.936845	0.078737
313.15	0.38597	0.09543	3.930294	0.078606
313.15	0.38597	0.18605	3.915881	0.078318
313.15	0.38597	0.36104	3.888857	0.077777
313.15	0.38597	0.94233	3.80369	0.076074
313.15	0.38597	1.88303	3.676922	0.073538
318.15	0.05065	0.0481	4.141121	0.082822
318.15	0.05065	0.06491	4.136355	0.082727
318.15	0.05065	0.06511	4.135902	0.082718
318.15	0.05065	0.1465	4.118233	0.082365
318.15	0.05065	0.149	4.117941	0.082359
318.15	0.05065	0.1492	4.117585	0.082352
318.15	0.05065	0.1889	4.108831	0.082177
318.15	0.05065	0.4759	4.051773	0.081035
318.15	0.05065	0.99471	3.97267	0.079453
318.15	0.07955	0.04739	4.124023	0.08248
318.15	0.07955	0.06737	4.119875	0.082398
318.15	0.07955	0.09437	4.113265	0.082265
318.15	0.07955	0.19887	4.092688	0.081854
318.15	0.07955	0.3761	4.058663	0.081173
318.15	0.07955	0.94684	3.95771	0.079154
318.15	0.07955	1.45704	3.880438	0.077609
318.15	0.07955	1.8929	3.812389	0.076248
318.15	0.07955	1.9323	3.820623	0.076412
318.15	0.09939	0.05	4.109248	0.082185
318.15	0.09939	0.10774	4.098676	0.081974
318.15	0.09939	0.19465	4.08003	0.081601
318.15	0.09939	0.47384	4.026849	0.080537
318.15	0.09939	0.96078	3.942538	0.078851
318.15	0.09939	1.9712	3.798884	0.075978
318.15	0.38597	0.075	3.940911	0.078818
318.15	0.38597	0.09543	3.933756	0.078675
318.15	0.38597	0.18605	3.919767	0.078395
318.15	0.38597	0.36104	3.891628	0.077833
318.15	0.38597	0.94233	3.805096	0.076102
318.15	0.38597	1.88303	3.680829	0.073617
323.15	0.05065	0.0481	4.142228	0.082845
323.15	0.05065	0.06491	4.138381	0.082768
323.15	0.05065	0.06511	4.13774	0.082755
323.15	0.05065	0.1465	4.121231	0.082425
323.15	0.05065	0.149	4.120013	0.0824
323.15	0.05065	0.1492	4.119788	0.082396
323.15	0.05065	0.1889	4.111295	0.082226
323.15	0.05065	0.4759	4.055194	0.081104
323.15	0.05065	0.99471	3.978257	0.079565
323.15	0.05065	1.9323	3.812844	0.076257
323.15	0.07955	0.04739	4.125653	0.082513
323.15	0.07955	0.06737	4.121392	0.082428
323.15	0.07955	0.09437	4.115433	0.082309
323.15	0.07955	0.19887	4.094446	0.081889
323.15	0.07955	0.3761	4.062726	0.081255
323.15	0.07955	0.94684	3.962119	0.079242
323.15	0.07955	1.45704	3.890028	0.077801
323.15	0.07955	1.8929	3.83588	0.076718
323.15	0.09939	0.05	4.111392	0.082228
323.15	0.09939	0.10774	4.100275	0.082006
323.15	0.09939	0.19465	4.082986	0.08166
323.15	0.09939	0.47384	4.030795	0.080616
323.15	0.09939	0.96078	3.948066	0.078961
323.15	0.09939	1.9712	3.800381	0.076008
323.15	0.38597	0.075	3.944829	0.078897
323.15	0.38597	0.09543	3.938562	0.078771
323.15	0.38597	0.18605	3.925566	0.078511
323.15	0.38597	0.36104	3.900251	0.078005
323.15	0.38597	0.94233	3.82153	0.076431
323.15	0.38597	1.88303	3.702985	0.07406
328.15	0.05065	0.0481	4.146697	0.082934
328.15	0.05065	0.06491	4.142495	0.08285
328.15	0.05065	0.06511	4.139062	0.082781
328.15	0.05065	0.1465	4.122674	0.082453
328.15	0.05065	0.149	4.121979	0.08244
328.15	0.05065	0.1492	4.121789	0.082436
328.15	0.05065	0.1889	4.113453	0.082269
328.15	0.05065	0.4759	4.059774	0.081195
328.15	0.05065	0.99471	3.982705	0.079654
328.15	0.05065	1.9323	3.838108	0.076762
328.15	0.07955	0.04739	4.12698	0.08254
328.15	0.07955	0.06737	4.123514	0.08247
328.15	0.07955	0.09437	4.117821	0.082356
328.15	0.07955	0.19887	4.099151	0.081983
328.15	0.07955	0.3761	4.066551	0.081331
328.15	0.07955	0.94684	3.969229	0.079385
328.15	0.07955	1.45704	3.892898	0.077858
328.15	0.07955	1.8929	3.84201	0.07684
328.15	0.09939	0.05	4.112617	0.082252
328.15	0.09939	0.10774	4.101658	0.082033
328.15	0.09939	0.19465	4.084725	0.081695
328.15	0.09939	0.47384	4.033287	0.080666
328.15	0.09939	0.96078	3.951336	0.079027
328.15	0.09939	1.9712	3.809961	0.076199
328.15	0.38597	0.075	3.947845	0.078957
328.15	0.38597	0.09543	3.941354	0.078827
328.15	0.38597	0.18605	3.927757	0.078555
328.15	0.38597	0.36104	3.900984	0.07802
328.15	0.38597	0.94233	3.818953	0.076379
328.15	0.38597	1.88303	3.69623	0.073925

System: (S)-2-aminopropanoic acid + water + magnesium chloride; phases: Liquid
Fixed: Pressure, kPa = 101.3
Property: Mass density, kg/m3 (Liquid); method: Vibrating tube method
Temperature, K	Molality, mol/kg of magnesium chloride	Molality, mol/kg of (S)-2-aminopropanoic acid	Mass density, kg/m3	uncertainty
288.15	0	0.05742	1000.779	2.634
288.15	0	0.07981	1001.428	2.636
288.15	0	0.09607	1001.905	2.637
288.15	0	0.18406	1004.435	2.644
288.15	0	0.31972	1008.254	2.654
288.15	0	0.42189	1011.586	2.662
288.15	0.05017	0.05961	1004.847	2.645
288.15	0.05017	0.09031	1005.727	2.647
288.15	0.05017	0.18293	1008.359	2.654
288.15	0.05017	0.26321	1010.593	2.66
288.15	0.05017	0.34758	1012.918	2.666
288.15	0.05017	0.49415	1016.863	2.676
288.15	0.05017	0.57663	1019.053	2.682
288.15	0.10039	0.05345	1008.626	2.655
288.15	0.10039	0.10457	1010.064	2.658
288.15	0.10039	0.20299	1012.818	2.666
288.15	0.10039	0.29184	1015.266	2.672
288.15	0.10039	0.35303	1016.936	2.677
288.15	0.10039	0.4514	1019.599	2.684
288.15	0.10039	0.59322	1023.31	2.693
288.15	0.40339	0.05102	1031.714	2.716
288.15	0.40339	0.10208	1033.065	2.719
288.15	0.40339	0.21058	1035.877	2.727
288.15	0.40339	0.28825	1037.809	2.732
288.15	0.40339	0.36905	1039.895	2.737
288.15	0.40339	0.48363	1042.736	2.745
288.15	0.40339	0.59841	1045.535	2.752
288.15	0.40417	0.05944	1031.99	2.716
288.15	0.40417	0.09711	1032.907	2.719
288.15	0.40417	0.20417	1035.743	2.726
288.15	0.40417	0.28822	1037.895	2.732
288.15	0.40417	0.4151	1041.178	2.741
288.15	0.40417	0.52576	1043.795	2.748
288.15	0.40417	0.56804	1044.795	2.75
288.15	0.81365	0.05008	1061.456	2.794
288.15	0.81365	0.09269	1062.429	2.797
288.15	0.81365	0.16433	1064.165	2.801
288.15	0.81365	0.29669	1067.214	2.809
288.15	0.81365	0.37861	1068.995	2.814
288.15	0.81365	0.48943	1071.561	2.821
288.15	0.81365	0.53305	1072.512	2.823
298.15	0	0.05742	998.691	2.628
298.15	0	0.07981	999.327	2.63
298.15	0	0.09607	999.788	2.631
298.15	0	0.18406	1002.261	2.638
298.15	0	0.31972	1006.146	2.648
298.15	0	0.42189	1008.869	2.655
298.15	0.05028	0.05961	1002.685	2.639
298.15	0.05028	0.09031	1003.548	2.641
298.15	0.05028	0.18293	1006.121	2.648
298.15	0.05028	0.26321	1008.298	2.654
298.15	0.05028	0.34758	1010.578	2.66
298.15	0.05028	0.49415	1014.454	2.67
298.15	0.05028	0.57663	1016.269	2.675
298.15	0.10061	0.05345	1006.434	2.649
298.15	0.10061	0.10457	1007.869	2.653
298.15	0.10061	0.29814	1012.763	2.666
298.15	0.10061	0.35303	1014.542	2.67
298.15	0.10061	0.4514	1017.199	2.677
298.15	0.10061	0.59322	1020.779	2.687
298.15	0.40438	0.05102	1029.251	2.709
298.15	0.40438	0.10208	1030.579	2.713
298.15	0.40438	0.21058	1033.335	2.72
298.15	0.40438	0.28825	1035.24	2.725
298.15	0.40438	0.36905	1037.265	2.73
298.15	0.40438	0.48363	1039.999	2.738
298.15	0.40438	0.59841	1042.749	2.745
298.15	0.40514	0.05944	1029.494	2.71
298.15	0.40514	0.09711	1030.516	2.712
298.15	0.40514	0.20417	1033.149	2.719
298.15	0.40514	0.28822	1035.242	2.725
298.15	0.40514	0.4151	1038.389	2.733
298.15	0.40514	0.52759	1041.059	2.74
298.15	0.40514	0.56804	1042.321	2.744
298.15	0.81584	0.05008	1058.686	2.787
298.15	0.81584	0.09269	1059.672	2.789
298.15	0.81584	0.16433	1061.358	2.794
298.15	0.81584	0.29669	1064.351	2.802
298.15	0.81584	0.37861	1066.157	2.807
298.15	0.81584	0.48943	1068.567	2.813
298.15	0.81584	0.53305	1069.579	2.816
308.15	0	0.0523	995.507	2.62
308.15	0	0.0704	996.019	2.621
308.15	0	0.10756	997.055	2.624
308.15	0	0.20306	999.689	2.631
308.15	0	0.26655	1001.415	2.636
308.15	0	0.38805	1004.619	2.644
308.15	0	0.41584	1005.418	2.646
308.15	0	0.48277	1007.157	2.651
308.15	0.05043	0.05961	999.649	2.631
308.15	0.05043	0.09031	1000.493	2.633
308.15	0.05043	0.18293	1003.036	2.64
308.15	0.05043	0.26307	1005.195	2.646
308.15	0.05043	0.34758	1007.441	2.652
308.15	0.05043	0.49415	1011.311	2.662
308.15	0.05043	0.57663	1013.28	2.667
308.15	0.10092	0.05345	1003.348	2.641
308.15	0.10092	0.10457	1004.751	2.644
308.15	0.10092	0.20299	1007.392	2.651
308.15	0.10092	0.29184	1009.739	2.658
308.15	0.10092	0.35303	1011.334	2.662
308.15	0.10092	0.4514	1013.877	2.669
308.15	0.10092	0.59322	1017.479	2.678
308.15	0.10442	0.05351	1003.599	2.641
308.15	0.10442	0.09765	1004.789	2.645
308.15	0.10442	0.20047	1007.529	2.652
308.15	0.10442	0.26692	1009.284	2.656
308.15	0.10442	0.40499	1012.879	2.666
308.15	0.10442	0.46362	1014.735	2.671
308.15	0.10442	0.48797	1014.955	2.671
308.15	0.20346	0.04679	1010.902	2.661
308.15	0.20346	0.10387	1012.409	2.665
308.15	0.20346	0.23325	1015.809	2.674
308.15	0.20346	0.29017	1017.263	2.677
308.15	0.20346	0.3969	1019.973	2.685
308.15	0.20346	0.46518	1021.67	2.689
308.15	0.20346	0.62241	1025.548	2.699
308.15	0.40587	0.05102	1025.564	2.699
308.15	0.40587	0.10208	1026.869	2.703
308.15	0.40587	0.21058	1029.567	2.71
308.15	0.40587	0.28825	1031.443	2.715
308.15	0.40587	0.36905	1033.405	2.72
308.15	0.40587	0.48263	1036.05	2.727
308.15	0.40587	0.59841	1038.73	2.734
308.15	0.40648	0.05944	1026.285	2.701
308.15	0.40648	0.09711	1027.209	2.704
308.15	0.40648	0.20417	1029.915	2.711
308.15	0.40648	0.4151	1035.047	2.724
308.15	0.40648	0.52759	1037.698	2.731
308.15	0.40648	0.568	1038.643	2.734
308.15	0.81911	0.05008	1054.638	2.776
308.15	0.81911	0.09269	1055.637	2.779
308.15	0.81911	0.16433	1057.572	2.784
308.15	0.81911	0.29669	1060.206	2.791
308.15	0.81911	0.37861	1062.037	2.796
308.15	0.81911	0.48943	1064.289	2.802
308.15	0.81911	0.53305	1065.361	2.805

System: L-leucine + water + magnesium chloride; phases: Liquid
Fixed: Pressure, kPa = 101.3
Property: Mass density, kg/m3 (Liquid); method: Vibrating tube method
Temperature, K	Molality, mol/kg of magnesium chloride	Molality, mol/kg of L-leucine	Mass density, kg/m3	uncertainty
288.15	0	0.00847	999.305	2.63
288.15	0	0.02055	999.6	2.631
288.15	0	0.03634	999.985	2.632
288.15	0	0.04395	1000.168	2.632
288.15	0	0.05636	1000.467	2.633
288.15	0	0.0877	1001.225	2.635
288.15	0	0.10005	1001.518	2.636
288.15	0.05016	0.00952	1003.389	2.641
288.15	0.05016	0.01909	1003.618	2.641
288.15	0.05016	0.04697	1004.238	2.643
288.15	0.05016	0.07015	1004.822	2.645
288.15	0.05016	0.07956	1005.039	2.645
288.15	0.05016	0.11057	1005.781	2.647
288.15	0.10057	0.01002	1007.316	2.651
288.15	0.10057	0.01852	1007.511	2.652
288.15	0.10057	0.04033	1008.025	2.653
288.15	0.10057	0.04879	1008.235	2.654
288.15	0.10057	0.06481	1008.594	2.655
288.15	0.10057	0.07825	1008.913	2.655
288.15	0.10057	0.10121	1009.452	2.657
288.15	0.40335	0.00945	1030.683	2.713
288.15	0.40335	0.02127	1030.917	2.714
288.15	0.40335	0.04741	1031.442	2.715
288.15	0.40335	0.07016	1031.914	2.716
288.15	0.40335	0.08734	1032.246	2.717
288.15	0.40335	0.09279	1032.358	2.717
288.15	0.81297	0.01261	1060.825	2.793
288.15	0.81297	0.01795	1060.918	2.793
288.15	0.81297	0.03664	1061.236	2.794
288.15	0.81297	0.04831	1061.437	2.794
288.15	0.81297	0.07067	1061.783	2.795
288.15	0.81297	0.09061	1062.097	2.796
288.15	0.81297	0.09455	1062.159	2.796
298.15	0	0.01105	997.306	2.625
298.15	0	0.02655	997.674	2.626
298.15	0	0.04709	998.155	2.627
298.15	0	0.06009	998.468	2.628
298.15	0	0.08736	999.093	2.63
298.15	0	0.08983	999.151	2.63
298.15	0.05027	0.00952	1001.247	2.635
298.15	0.05027	0.01909	1001.471	2.636
298.15	0.05027	0.03738	1001.886	2.637
298.15	0.05027	0.04697	1002.11	2.637
298.15	0.05027	0.07015	1002.644	2.639
298.15	0.05027	0.07956	1002.855	2.639
298.15	0.05027	0.11057	1003.569	2.641
298.15	0.10079	0.01002	1005.165	2.646
298.15	0.10079	0.01852	1005.368	2.646
298.15	0.10079	0.04033	1005.856	2.647
298.15	0.10079	0.04879	1006.048	2.648
298.15	0.10079	0.06481	1006.407	2.649
298.15	0.10079	0.07825	1006.704	2.65
298.15	0.10079	0.10121	1007.206	2.651
298.15	0.40433	0.00945	1028.247	2.706
298.15	0.40433	0.02127	1028.456	2.707
298.15	0.40433	0.04741	1029.004	2.708
298.15	0.40433	0.05149	1029.084	2.709
298.15	0.40433	0.07016	1029.462	2.71
298.15	0.40433	0.08734	1029.794	2.711
298.15	0.40433	0.09279	1029.885	2.711
298.15	0.81809	0.01008	1054.584	2.776
298.15	0.81809	0.02044	1054.715	2.776
298.15	0.81809	0.03082	1054.881	2.777
298.15	0.81809	0.04138	1055.008	2.777
298.15	0.81809	0.04822	1055.158	2.778
298.15	0.81809	0.06559	1055.546	2.779
298.15	0.81809	0.07786	1055.744	2.779
308.15	0	0.02055	994.505	2.617
308.15	0	0.03634	994.863	2.618
308.15	0	0.04395	995.035	2.619
308.15	0	0.05636	995.379	2.62
308.15	0	0.0877	996.009	2.621
308.15	0	0.10005	996.261	2.622
308.15	0.05042	0.00952	998.21	2.627
308.15	0.05042	0.01909	998.425	2.628
308.15	0.05042	0.03738	998.825	2.629
308.15	0.05042	0.04697	999.039	2.629
308.15	0.05042	0.07015	999.539	2.631
308.15	0.05042	0.07956	999.742	2.631
308.15	0.05042	0.11057	1000.401	2.633
308.15	0.10109	0.01002	1005.165	2.646
308.15	0.10109	0.01852	1005.368	2.646
308.15	0.10109	0.04033	1005.856	2.647
308.15	0.10109	0.04879	1006.048	2.648
308.15	0.10109	0.06481	1006.407	2.649
308.15	0.10109	0.07825	1006.704	2.65
308.15	0.10109	0.10121	1007.206	2.651
308.15	0.4056	0.00945	1025.155	2.698
308.15	0.4056	0.02127	1025.379	2.699
308.15	0.4056	0.04741	1025.871	2.7
308.15	0.4056	0.05149	1025.94	2.7
308.15	0.4056	0.07016	1026.294	2.701
308.15	0.4056	0.08734	1026.599	2.702
308.15	0.4056	0.09379	1026.696	2.702
308.15	0.81821	0.01261	1054.501	2.776
308.15	0.81821	0.01795	1054.582	2.776
308.15	0.81821	0.03664	1054.85	2.777
308.15	0.81821	0.04831	1055	2.777
308.15	0.81821	0.07067	1055.305	2.778
308.15	0.81821	0.09061	1055.557	2.779
308.15	0.81821	0.09455	1055.614	2.779
