Measured thermophysical data. Total Vapor Pressure Measurements for 2-Ethoxyethanol with Carbon Tetrachloride, Chloroform, and Dichloromethane at 303.15 K
Source: J. Chem. Eng. Data, 2004, 10.1021/je034153o
Compound 1: 2-ethoxyethan-1-ol, C4H10O2, InChI=1S/C4H10O2/c1-2-6-4-3-5/h5H,2-4H2,1H3
Compound 2: dichloromethane, CH2Cl2, InChI=1S/CH2Cl2/c2-1-3/h1H2
Compound 3: trichloromethane, CHCl3, InChI=1S/CHCl3/c2-1(3)4/h1H
Compound 4: tetrachloromethane, CCl4, InChI=1S/CCl4/c2-1(3,4)5

System: 2-ethoxyethan-1-ol; phases: Liquid, Gas
Fixed: Temperature, K = 303.15
Property: Vapor or sublimation pressure, kPa (Liquid); method: Closed cell (Static) method
Vapor or sublimation pressure, kPa	uncertainty
0.981	0.017
0.984	0.017
0.968	0.017

System: dichloromethane; phases: Liquid, Gas
Property: Vapor or sublimation pressure, kPa (Liquid); method: Closed cell (Static) method
Temperature, K	Vapor or sublimation pressure, kPa	uncertainty
303.15	70.486	0.273

System: trichloromethane; phases: Liquid, Gas
Property: Vapor or sublimation pressure, kPa (Liquid); method: Closed cell (Static) method
Temperature, K	Vapor or sublimation pressure, kPa	uncertainty
303.15	32.408	0.133

System: tetrachloromethane; phases: Liquid, Gas
Property: Vapor or sublimation pressure, kPa (Liquid); method: Closed cell (Static) method
Temperature, K	Vapor or sublimation pressure, kPa	uncertainty
303.15	18.826	0.083

System: tetrachloromethane + 2-ethoxyethan-1-ol; phases: Liquid, Gas
Fixed: Temperature, K = 303.15
Property: Vapor or sublimation pressure, kPa (Liquid); method: Closed cell (Static) method
Mole fraction of tetrachloromethane	Vapor or sublimation pressure, kPa	uncertainty
0	0.981	0.017
0.0846	4.322	0.049
0.1313	5.979	0.049
0.1896	7.848	0.052
0.2499	9.552	0.056
0.3007	10.809	0.058
0.3501	11.897	0.061
0.3998	12.875	0.064
0.4501	13.742	0.066
0.4989	14.488	0.068
0.4996	14.494	0.068
0.5488	15.144	0.07
0.5987	15.719	0.072
0.6487	16.218	0.074
0.6986	16.663	0.075
0.7487	17.059	0.077
0.7886	17.351	0.078
0.819	17.557	0.079
0.8762	17.934	0.08
0.9391	18.355	0.081
0.9724	18.583	0.082
1	18.826	0.083

System: trichloromethane + 2-ethoxyethan-1-ol; phases: Liquid, Gas
Fixed: Temperature, K = 303.15
Property: Vapor or sublimation pressure, kPa (Liquid); method: Closed cell (Static) method
Mole fraction of trichloromethane	Vapor or sublimation pressure, kPa	uncertainty
0	0.984	0.017
0.0302	1.396	0.026
0.063	1.988	0.029
0.105	2.834	0.034
0.2042	5.235	0.042
0.2651	7.021	0.05
0.3094	8.474	0.057
0.3511	9.954	0.062
0.3995	11.792	0.069
0.4497	13.787	0.076
0.4997	15.833	0.082
0.5487	17.761	0.088
0.5496	17.892	0.089
0.598	19.74	0.094
0.6486	21.708	0.101
0.6985	23.53	0.106
0.7484	25.238	0.111
0.7985	26.809	0.116
0.8486	28.284	0.121
0.8987	29.645	0.126
0.939	30.749	0.129
0.9691	31.52	0.132
1	32.408	0.133

System: dichloromethane + 2-ethoxyethan-1-ol; phases: Liquid, Gas
Fixed: Temperature, K = 303.15
Property: Vapor or sublimation pressure, kPa (Liquid); method: Closed cell (Static) method
Mole fraction of dichloromethane	Vapor or sublimation pressure, kPa	uncertainty
0	0.968	0.017
0.0355	2.403	0.053
0.0651	4.11	0.067
0.1068	6.696	0.075
0.1555	9.939	0.086
0.1953	12.819	0.098
0.2727	18.863	0.115
0.3182	22.676	0.128
0.3502	25.388	0.137
0.4033	29.987	0.151
0.4498	34.034	0.163
0.4981	38.165	0.175
0.5486	42.332	0.188
0.5976	46.23	0.194
0.5995	46.346	0.194
0.6474	49.894	0.21
0.6975	53.364	0.22
0.7476	56.547	0.23
0.7976	59.45	0.239
0.8481	62.212	0.249
0.8985	64.876	0.258
0.9388	67	0.266
0.9695	68.72	0.273
1	70.486	0.273
