Measured thermophysical data. Vapor Pressures of the 1-Butyl-3-methylimidazolium Bromide + Water, 1-Butyl-3-methylimidazolium Tetrafluoroborate + Water, and 1-(2-Hydroxyethyl)-3-methylimidazolium Tetrafluoroborate + Water Systems
Source: J. Chem. Eng. Data, 2004, 10.1021/je034210d
Compound 1: 1-butyl-3-methylimidazolium bromide, C8H15BrN2, InChI=1S/C8H15N2.BrH/c1-3-4-5-10-7-6-9(2)8-10;/h6-8H,3-5H2,1-2H3;1H/q+1;/p-1
Compound 2: 1-butyl-3-methylimidazolium tetrafluoroborate, C8H15BF4N2, InChI=1S/C8H15N2.BF4/c1-3-4-5-10-7-6-9(2)8-10;2-1(3,4)5/h6-8H,3-5H2,1-2H3;/q+1;-1
Compound 3: 1-(2-hydroxyethyl)-3-methylimidazolium tetrafluoroborate, C6H11BF4N2O, InChI=1S/C6H11N2O.BF4/c1-7-2-3-8(6-7)4-5-9;2-1(3,4)5/h2-3,6,9H,4-5H2,1H3;/q+1;-1
Compound 4: water, H2O, InChI=1S/H2O/h1H2

System: water + 1-butyl-3-methylimidazolium bromide; phases: Liquid, Gas
Property: Vapor or sublimation pressure, kPa (Liquid); method: MANOM:UFactor:12
Temperature, K	Mole fraction of 1-butyl-3-methylimidazolium bromide	Vapor or sublimation pressure, kPa	uncertainty
304.8	0.2	3.5	1
320.6	0.2	7.9	1.2
320.6	0.4	4.1	1
326.8	0.2	10.8	1.2
332.8	0.4	7.2	1.1
333.4	0.2	14	1.3
338.4	0.2	17.7	1.4
341	0.4	10.4	1.2
343.4	0.2	21.1	1.5
346.6	0.2	24.3	1.6
351.6	0.2	29.5	1.8
353.8	0.4	16.5	1.4
355.6	0.6	8.8	1.2
356.6	0.2	36.4	2
359.5	0.4	21.4	1.6
361	0.2	43.2	2.2
361	0.6	11.2	1.3
365	0.4	25.8	1.7
365.8	0.2	51.9	2.5
368.6	0.2	58.1	2.7
369.2	0.6	15.3	1.4
370.8	0.4	31.2	1.8
375.4	0.2	72.9	3.1
375.6	0.4	37.4	2
376	0.6	19.2	1.5
379.4	0.2	82.6	3.4
379.4	0.8	11.3	1.3
380.2	0.4	43.6	2.2
381.6	0.6	24.1	1.6
383.2	0.2	95.8	3.8
384.6	0.4	49.3	2.4
385.4	0.2	103.2	4
386.8	0.6	29.4	1.8
387.4	0.4	56.6	2.6
387.4	0.8	14.5	1.3
392	0.8	17.4	1.4
392.2	0.4	64.5	2.8
395	0.6	36.4	2
395.8	0.4	71.5	3
396.8	0.8	19.9	1.5
400.6	0.6	42.5	2.2
400.8	0.4	84.1	3.4
402.4	0.8	24.1	1.6
406.8	0.6	50.6	2.4
407.2	0.4	103.1	4
407.6	0.8	27.5	1.7
411.8	0.6	58.4	2.6
413	0.8	32.4	1.9
416.2	0.6	68.2	2.9
418.5	0.8	37.3	2
420.2	0.6	75.7	3.2
422.6	0.8	41.3	2.1
425.2	0.6	87.6	3.5
426.4	0.8	47.5	2.3
430.8	0.8	51.8	2.4
431.2	0.6	103	4
434.2	0.8	58.1	2.6
437.4	0.8	62.9	2.8
441.6	0.8	70.1	3
446.4	0.8	77.3	3.2
450.8	0.8	83.7	3.4
453.6	0.8	91.9	3.6
456.2	0.8	96.5	3.8
457.4	0.8	101.2	4

System: water + 1-butyl-3-methylimidazolium tetrafluoroborate; phases: Liquid, Gas
Property: Vapor or sublimation pressure, kPa (Liquid); method: MANOM:UFactor:12
Temperature, K	Mole fraction of 1-butyl-3-methylimidazolium tetrafluoroborate	Vapor or sublimation pressure, kPa	uncertainty
311.4	0.2	3.9	1
318	0.2	6.1	1.1
320.4	0.4	3.5	1
327.8	0.2	10.5	1.2
332	0.4	6.5	1.1
335.8	0.2	16	1.4
341.6	0.4	10.2	1.2
342	0.6	3.9	1
344	0.2	22.3	1.6
350.8	0.2	29.7	1.8
351.4	0.4	15.9	1.4
353.2	0.6	7.2	1.1
358	0.2	40.6	2.1
359.8	0.6	10	1.2
360.4	0.4	22.6	1.6
364.4	0.2	53.3	2.5
367.4	0.6	13.7	1.3
368.4	0.2	66.9	2.9
369.4	0.4	32.1	1.9
374.2	0.6	17.6	1.4
375	0.8	4.3	1.1
376.4	0.2	82.4	3.4
377	0.4	41.8	2.2
380.6	0.2	102.6	4
380.6	0.6	22.2	1.6
385	0.8	6.8	1.1
385.2	0.4	56	2.6
389	0.6	29.4	1.8
389.8	0.4	68.2	2.9
395	0.4	82.1	3.4
396	0.6	37.3	2
398.4	0.4	92	3.7
401	0.8	12.2	1.3
403.6	0.6	45.8	2.3
409.2	0.6	55	2.5
413	0.8	17.8	1.4
414.6	0.6	63	2.8
419.4	0.6	74.6	3.1
424.2	0.8	24.1	1.6
425	0.6	86.6	3.5
430.8	0.6	102.2	4
431.4	0.8	29.6	1.8
435.4	0.8	35.5	2
442.6	0.8	43.1	2.2
448.4	0.8	51.8	2.5
451.8	0.8	59	2.7
457.6	0.8	68.9	3
464.8	0.8	80.7	3.3
475.2	0.8	101.6	3.9

System: water + 1-(2-hydroxyethyl)-3-methylimidazolium tetrafluoroborate; phases: Liquid, Gas
Property: Vapor or sublimation pressure, kPa (Liquid); method: MANOM:UFactor:12
Temperature, K	Mole fraction of 1-(2-hydroxyethyl)-3-methylimidazolium tetrafluoroborate	Vapor or sublimation pressure, kPa	uncertainty
325.8	0.2	9.2	1.2
326.2	0.4	5.5	1.1
335.6	0.2	15.1	1.4
337.2	0.6	4.6	1.1
343.2	0.2	20.9	1.5
346.2	0.4	14.5	1.3
350.4	0.2	28.9	1.8
352.8	0.8	3.3	1
353.8	0.4	20.1	1.5
357.8	0.2	38.8	2.1
361.6	0.4	26.7	1.7
364.2	0.2	51.2	2.4
367.4	0.6	16.3	1.4
368	0.4	34.2	1.9
370.2	0.2	63.5	2.8
375.2	0.2	76.5	3.2
375.4	0.4	43.8	2.2
378	0.6	21.9	1.6
380	0.4	55.3	2.6
380.4	0.2	88.9	3.6
383.8	0.2	98.8	3.9
388.2	0.6	30.3	1.8
391	0.4	71.9	3
392.6	0.8	12.2	1.3
395	0.6	38.5	2.1
396.8	0.4	84.5	3.4
402	0.8	16.5	1.4
402.2	0.4	100	3.9
403	0.6	48.3	2.3
409.8	0.6	58.5	2.6
416.2	0.6	69.4	3
420	0.8	27.5	1.7
420.2	0.6	80.9	3.3
425.8	0.8	32.8	1.9
427.4	0.6	100.8	3.9
432.2	0.8	39.2	2.1
435	0.8	44.2	2.2
439.6	0.8	50.2	2.4
443.8	0.8	56.3	2.6
448	0.8	62.6	2.8
454	0.8	69.7	3
458.4	0.8	75.8	3.2
462.2	0.8	81.9	3.3
464.8	0.8	87.9	3.5
