Measured thermophysical data. Henry's Constants and Infinite Dilution Activity Coefficients of Propane, Propene, Butane, Isobutane, 1-Butene, Isobutene, trans-2-Butene and 1,3-Butadiene in 1-Butanol and 2-Butanol at (250 to 330) K
Source: J. Chem. Eng. Data, 2004, 10.1021/je034265f
Compound 1: propane, C3H8, InChI=1S/C3H8/c1-3-2/h3H2,1-2H3, purity 99.5%
Compound 2: propene, C3H6, InChI=1S/C3H6/c1-3-2/h3H,1H2,2H3, purity 99.5%
Compound 3: butane, C4H10, InChI=1S/C4H10/c1-3-4-2/h3-4H2,1-2H3, purity 99.8%
Compound 4: 2-methylpropane, C4H10, InChI=1S/C4H10/c1-4(2)3/h4H,1-3H3, purity 99%
Compound 5: 1-butene, C4H8, InChI=1S/C4H8/c1-3-4-2/h3H,1,4H2,2H3, purity 99%
Compound 6: 2-methylpropene, C4H8, InChI=1S/C4H8/c1-4(2)3/h1H2,2-3H3, purity 99%
Compound 7: (E)-2-butene, C4H8, InChI=1S/C4H8/c1-3-4-2/h3-4H,1-2H3/b4-3+, purity 99%
Compound 8: 1,3-butadiene, C4H6, InChI=1S/C4H6/c1-3-4-2/h3-4H,1-2H2, purity 99%
Compound 9: butan-1-ol, C4H10O, InChI=1S/C4H10O/c1-2-3-4-5/h5H,2-4H2,1H3, purity 99.5%
Compound 10: butan-2-ol, C4H10O, InChI=1S/C4H10O/c1-3-4(2)5/h4-5H,3H2,1-2H3, purity 99.5%

System: butan-1-ol + propane; phases: Liquid, Gas
Fixed: Mole fraction of propane = 0
Property: Activity coefficient of propane (Liquid); method: OTHER
Temperature, K	Activity coefficient of propane	uncertainty
250.01	3.6	0.1
270	3.6	0.1
290.01	3.6	0.1
310	3.6	0.1
330	3.6	0.1

System: butan-1-ol + propane; phases: Liquid, Gas
Fixed: Mole fraction of propane = 0
Property: Henry's Law constant (mole fraction scale), kPa of propane (Liquid); method: OTHER
Temperature, K	Henry's Law constant (mole fraction scale), kPa of propane	uncertainty
250.01	746	18
270	1420	35
290.01	2380	58
310	3770	92
330	5400	132

System: butan-1-ol + propene; phases: Liquid, Gas
Fixed: Mole fraction of propene = 0
Property: Activity coefficient of propene (Liquid); method: OTHER
Temperature, K	Activity coefficient of propene	uncertainty
249.99	3	0.1
270	3	0.1
290.01	3	0.1
310	3	0.1
330	3	0.1

System: butan-1-ol + propene; phases: Liquid, Gas
Fixed: Mole fraction of propene = 0
Property: Henry's Law constant (mole fraction scale), kPa of propene (Liquid); method: OTHER
Temperature, K	Henry's Law constant (mole fraction scale), kPa of propene	uncertainty
249.99	770	19
270	1441	35
290.01	2420	59
310	3710	91
330	5250	129

System: butan-1-ol + butane; phases: Liquid, Gas
Fixed: Mole fraction of butane = 0
Property: Activity coefficient of butane (Liquid); method: OTHER
Temperature, K	Activity coefficient of butane	uncertainty
250.01	4.1	0.1
270.04	4.1	0.1
290.01	4.1	0.1
310.01	4	0.1
330	3.9	0.1

System: butan-1-ol + butane; phases: Liquid, Gas
Fixed: Mole fraction of butane = 0
Property: Henry's Law constant (mole fraction scale), kPa of butane (Liquid); method: OTHER
Temperature, K	Henry's Law constant (mole fraction scale), kPa of butane	uncertainty
250.01	159	4
270.04	363	9
290.01	716	18
310.01	1260	31
330	2010	49

System: butan-1-ol + 2-methylpropane; phases: Liquid, Gas
Fixed: Mole fraction of 2-methylpropane = 0
Property: Activity coefficient of 2-methylpropane (Liquid); method: OTHER
Temperature, K	Activity coefficient of 2-methylpropane	uncertainty
250.01	4.4	0.1
270.04	4.4	0.1
290.01	4.3	0.1
310.01	4.3	0.1
330	4.1	0.1

System: butan-1-ol + 2-methylpropane; phases: Liquid, Gas
Fixed: Mole fraction of 2-methylpropane = 0
Property: Henry's Law constant (mole fraction scale), kPa of 2-methylpropane (Liquid); method: OTHER
Temperature, K	Henry's Law constant (mole fraction scale), kPa of 2-methylpropane	uncertainty
250.01	269	7
270.04	583	14
290.01	1080	26
310.01	1830	45
330	2780	68

System: butan-1-ol + 1-butene; phases: Liquid, Gas
Fixed: Mole fraction of 1-butene = 0
Property: Activity coefficient of 1-butene (Liquid); method: OTHER
Temperature, K	Activity coefficient of 1-butene	uncertainty
250.01	3.5	0.1
270	3.4	0.1
290.01	3.4	0.1
310	3.3	0.1
330	3.2	0.1

System: butan-1-ol + 1-butene; phases: Liquid, Gas
Fixed: Mole fraction of 1-butene = 0
Property: Henry's Law constant (mole fraction scale), kPa of 1-butene (Liquid); method: OTHER
Temperature, K	Henry's Law constant (mole fraction scale), kPa of 1-butene	uncertainty
250.01	168	4
270	372	9
290.01	731	18
310	1260	31
330	1970	48

System: butan-1-ol + 2-methylpropene; phases: Liquid, Gas
Fixed: Mole fraction of 2-methylpropene = 0
Property: Activity coefficient of 2-methylpropene (Liquid); method: OTHER
Temperature, K	Activity coefficient of 2-methylpropene	uncertainty
250.01	3.4	0.1
270.04	3.4	0.1
290.01	3.4	0.1
310.01	3.3	0.1
330	3.2	0.1

System: butan-1-ol + 2-methylpropene; phases: Liquid, Gas
Fixed: Mole fraction of 2-methylpropene = 0
Property: Henry's Law constant (mole fraction scale), kPa of 2-methylpropene (Liquid); method: OTHER
Temperature, K	Henry's Law constant (mole fraction scale), kPa of 2-methylpropene	uncertainty
250.01	168	4
270.04	377	9
290.01	733	18
310.01	1260	31
330	1980	49

System: butan-1-ol + (E)-2-butene; phases: Liquid, Gas
Fixed: Mole fraction of (E)-2-butene = 0
Property: Activity coefficient of (E)-2-butene (Liquid); method: OTHER
Temperature, K	Activity coefficient of (E)-2-butene	uncertainty
250.01	3.4	0.1
270	3.4	0.1
290.01	3.4	0.1
310	3.3	0.1
330	3.3	0.1

System: butan-1-ol + (E)-2-butene; phases: Liquid, Gas
Fixed: Mole fraction of (E)-2-butene = 0
Property: Henry's Law constant (mole fraction scale), kPa of (E)-2-butene (Liquid); method: OTHER
Temperature, K	Henry's Law constant (mole fraction scale), kPa of (E)-2-butene	uncertainty
250.01	123	3
270	284	7
290.01	571	14
310	1020	25
330	1630	40

System: butan-1-ol + 1,3-butadiene; phases: Liquid, Gas
Fixed: Mole fraction of 1,3-butadiene = 0
Property: Activity coefficient of 1,3-butadiene (Liquid); method: OTHER
Temperature, K	Activity coefficient of 1,3-butadiene	uncertainty
250.01	3	0.1
270.04	2.9	0.1
290.01	2.9	0.1
310.01	2.9	0.1
330	2.8	0.1

System: butan-1-ol + 1,3-butadiene; phases: Liquid, Gas
Fixed: Mole fraction of 1,3-butadiene = 0
Property: Henry's Law constant (mole fraction scale), kPa of 1,3-butadiene (Liquid); method: OTHER
Temperature, K	Henry's Law constant (mole fraction scale), kPa of 1,3-butadiene	uncertainty
250.01	134	3
270.04	302	7
290.01	598	15
310.01	1050	26
330	1660	41

System: propane + butan-2-ol; phases: Liquid, Gas
Fixed: Mole fraction of propane = 0
Property: Activity coefficient of propane (Liquid); method: OTHER
Temperature, K	Activity coefficient of propane	uncertainty
249.97	3.6	0.1
269.99	3.5	0.1
290	3.5	0.1
310	3.5	0.1
330	3.3	0.1

System: propane + butan-2-ol; phases: Liquid, Gas
Fixed: Mole fraction of propane = 0
Property: Henry's Law constant (mole fraction scale), kPa of propane (Liquid); method: OTHER
Temperature, K	Henry's Law constant (mole fraction scale), kPa of propane	uncertainty
249.97	730	18
269.99	1380	34
290	2360	58
310	3630	89
330	5040	123

System: butan-2-ol + propene; phases: Liquid, Gas
Fixed: Mole fraction of propene = 0
Property: Activity coefficient of propene (Liquid); method: OTHER
Temperature, K	Activity coefficient of propene	uncertainty
249.97	3.1	0.1
269.99	3.1	0.1
290	3.1	0.1
310	3	0.1
330	2.8	0.1

System: butan-2-ol + propene; phases: Liquid, Gas
Fixed: Mole fraction of propene = 0
Property: Henry's Law constant (mole fraction scale), kPa of propene (Liquid); method: OTHER
Temperature, K	Henry's Law constant (mole fraction scale), kPa of propene	uncertainty
249.97	793	19
269.99	1470	36
290	2430	60
310	3670	90
330	4910	120

System: butan-2-ol + butane; phases: Liquid, Gas
Fixed: Mole fraction of butane = 0
Property: Activity coefficient of butane (Liquid); method: OTHER
Temperature, K	Activity coefficient of butane	uncertainty
249.96	4.2	0.1
270	4.1	0.1
290	4	0.1
310	3.9	0.1
330	3.6	0.1

System: butan-2-ol + butane; phases: Liquid, Gas
Fixed: Mole fraction of butane = 0
Property: Henry's Law constant (mole fraction scale), kPa of butane (Liquid); method: OTHER
Temperature, K	Henry's Law constant (mole fraction scale), kPa of butane	uncertainty
249.96	162	4
270	363	9
290	708	17
310	1220	30
330	1860	46

System: 2-methylpropane + butan-2-ol; phases: Liquid, Gas
Fixed: Mole fraction of 2-methylpropane = 0
Property: Activity coefficient of 2-methylpropane (Liquid); method: OTHER
Temperature, K	Activity coefficient of 2-methylpropane	uncertainty
249.97	4.4	0.1
270	4.3	0.1
290	4.2	0.1
310	4.1	0.1
330	3.8	0.1

System: 2-methylpropane + butan-2-ol; phases: Liquid, Gas
Fixed: Mole fraction of 2-methylpropane = 0
Property: Henry's Law constant (mole fraction scale), kPa of 2-methylpropane (Liquid); method: OTHER
Temperature, K	Henry's Law constant (mole fraction scale), kPa of 2-methylpropane	uncertainty
249.97	269	7
270	572	14
290	1060	26
310	1740	43
330	2550	62

System: butan-2-ol + 1-butene; phases: Liquid, Gas
Fixed: Mole fraction of 1-butene = 0
Property: Activity coefficient of 1-butene (Liquid); method: OTHER
Temperature, K	Activity coefficient of 1-butene	uncertainty
249.97	3.7	0.1
269.99	3.6	0.1
290	3.5	0.1
310	3.3	0.1
330	3.1	0.1

System: butan-2-ol + 1-butene; phases: Liquid, Gas
Fixed: Mole fraction of 1-butene = 0
Property: Henry's Law constant (mole fraction scale), kPa of 1-butene (Liquid); method: OTHER
Temperature, K	Henry's Law constant (mole fraction scale), kPa of 1-butene	uncertainty
249.97	180	4
269.99	390	10
290	743	18
310	1230	30
330	1870	46

System: butan-2-ol + 2-methylpropene; phases: Liquid, Gas
Fixed: Mole fraction of 2-methylpropene = 0
Property: Activity coefficient of 2-methylpropene (Liquid); method: OTHER
Temperature, K	Activity coefficient of 2-methylpropene	uncertainty
249.99	3.7	0.1
270	3.5	0.1
290	3.4	0.1
310	3.2	0.1
330	3	0.1

System: butan-2-ol + 2-methylpropene; phases: Liquid, Gas
Fixed: Mole fraction of 2-methylpropene = 0
Property: Henry's Law constant (mole fraction scale), kPa of 2-methylpropene (Liquid); method: OTHER
Temperature, K	Henry's Law constant (mole fraction scale), kPa of 2-methylpropene	uncertainty
249.99	181	4
270	394	10
290	747	18
310	1240	30
330	1860	46

System: butan-2-ol + (E)-2-butene; phases: Liquid, Gas
Fixed: Mole fraction of (E)-2-butene = 0
Property: Activity coefficient of (E)-2-butene (Liquid); method: OTHER
Temperature, K	Activity coefficient of (E)-2-butene	uncertainty
249.97	3.7	0.1
269.99	3.6	0.1
290	3.5	0.1
310	3.3	0.1
330	3.1	0.1

System: butan-2-ol + (E)-2-butene; phases: Liquid, Gas
Fixed: Mole fraction of (E)-2-butene = 0
Property: Henry's Law constant (mole fraction scale), kPa of (E)-2-butene (Liquid); method: OTHER
Temperature, K	Henry's Law constant (mole fraction scale), kPa of (E)-2-butene	uncertainty
249.97	133	3
269.99	301	7
290	584	14
310	1000	25
330	1550	38

System: butan-2-ol + 1,3-butadiene; phases: Liquid, Gas
Fixed: Mole fraction of 1,3-butadiene = 0
Property: Activity coefficient of 1,3-butadiene (Liquid); method: OTHER
Temperature, K	Activity coefficient of 1,3-butadiene	uncertainty
249.99	3.5	0.1
270	3.4	0.1
290	3.2	0.1
310	3	0.1
330	2.8	0.1

System: butan-2-ol + 1,3-butadiene; phases: Liquid, Gas
Fixed: Mole fraction of 1,3-butadiene = 0
Property: Henry's Law constant (mole fraction scale), kPa of 1,3-butadiene (Liquid); method: OTHER
Temperature, K	Henry's Law constant (mole fraction scale), kPa of 1,3-butadiene	uncertainty
249.99	158	4
270	349	9
290	656	16
310	1100	27
330	1670	41
