Measured thermophysical data. Vapor Pressures of Acetonitrile Determined by Comparative Ebulliometry
Source: J. Chem. Eng. Data, 2004, 10.1021/je034144f
Compound 1: acetonitrile, C2H3N, InChI=1S/C2H3N/c1-2-3/h1H3, purity 99.9%

System: acetonitrile; phases: Liquid, Gas
Property: Vapor or sublimation pressure, kPa (Liquid); method: Ebulliometric method (Recirculating still)
Temperature, K	Vapor or sublimation pressure, kPa	uncertainty
277.922	4.323	0.011
278.625	4.49	0.01
281.567	5.247	0.012
285.376	6.385	0.012
287.667	7.165	0.013
290.647	8.296	0.013
292.746	9.182	0.014
295.784	10.604	0.015
300.824	13.366	0.016
303.811	15.271	0.018
309.636	19.639	0.021
315.433	24.972	0.024
321.118	31.311	0.027
325.022	36.387	0.032
331.275	45.907	0.036
336.413	55.169	0.042
341.179	65.072	0.048
345.575	75.44	0.05
349.328	85.311	0.059
352.879	95.589	0.063
354.55	100.745	0.068
354.665	101.12	0.07
357.556	110.614	0.073
360.942	122.631	0.079
361.612	125.129	0.079
368.966	155.329	0.089
371.739	168.122	0.099
373.17	175.036	0.109
378.815	204.592	0.117
384.111	235.792	0.139
394.294	306.279	0.163
405.236	399.5	0.2
415.213	502.665	0.236
423.683	605.601	0.275
431.124	708.993	0.311
437.302	804.861	0.348
443.496	910.819	0.384
449.596	1025.474	0.422
455.736	1151.968	0.464
461.874	1290.201	0.509
468.37	1450.28	0.55
474.052	1602.627	0.602
479.154	1749.838	0.652
484.769	1923.878	0.702
490.37	2110.77	0.76
495.752	2303.512	0.815
501.48	2523.662	0.875
506.921	2747.952	0.942
512.61	2999.224	1.01
518.008	3254.077	1.081
523.151	3512.89	1.15
527.79	3760.372	1.22
532.079	4001.463	1.278
535.032	4174.613	1.316
