Measured thermophysical data. Measurement and Correlation of Phase Equilibria for Water + Decane + 2-Propanol, Water + Hexane + 2-Propanol, and Water + Decane + 2-Butanol Ternary Systems at 573 and 593 K and 15.0 and 20.0 MPa
Source: J. Chem. Eng. Data, 2004, 10.1021/je030213e
Compound 1: water, H2O, InChI=1S/H2O/h1H2
Compound 2: hexane, C6H14, InChI=1S/C6H14/c1-3-5-6-4-2/h3-6H2,1-2H3
Compound 3: decane, C10H22, InChI=1S/C10H22/c1-3-5-7-9-10-8-6-4-2/h3-10H2,1-2H3
Compound 4: propan-2-ol, C3H8O, InChI=1S/C3H8O/c1-3(2)4/h3-4H,1-2H3
Compound 5: butan-2-ol, C4H10O, InChI=1S/C4H10O/c1-3-4(2)5/h4-5H,3H2,1-2H3

System: decane + water; phases: Liquid mixture 1, Liquid mixture 2
Property: Mole fraction of water (Liquid mixture 1); method: CHROM:UFactor:2
Temperature, K	Pressure, kPa	Mole fraction of water	uncertainty
573	15000	1	0.001
573	20000	0.999	0.001
593	20000	0.999	0.001

System: decane + water; phases: Liquid mixture 2, Liquid mixture 1
Property: Mole fraction of water (Liquid mixture 2); method: CHROM:UFactor:2
Temperature, K	Pressure, kPa	Mole fraction of water	uncertainty
573	15000	0.511	0.01
573	20000	0.466	0.01
593	20000	0.622	0.008

System: propan-2-ol + decane + water; phases: Liquid mixture 1, Liquid mixture 2
Property: Mole fraction of decane (Liquid mixture 1); method: CHROM:UFactor:2
Property: Mole fraction of decane (Liquid mixture 2); method: CHROM:UFactor:2
Property: Mole fraction of water (Liquid mixture 2); method: CHROM:UFactor:2
Temperature, K	Pressure, kPa	Mole fraction of water	Mole fraction of decane	uncertainty	Mole fraction of decane	uncertainty	Mole fraction of water	uncertainty
573	20000	0.989	0.001	0.001	0.448	0.009	0.505	
573	20000	0.974	0.002	0.001	0.348	0.007	0.553	
573	20000	0.929	0.006	0.001	0.165	0.003	0.678	
573	20000	0.915	0.008	0.001	0.129	0.003	0.712	
573	20000	0.896	0.013	0.001	0.093	0.002	0.751	
573	20000	0.949	0.003	0.001	0.234	0.005	0.62	
573	20000	0.964	0.002	0.001	0.3	0.006	0.579	
573	15000	0.977	0	0.001	0.293	0.006	0.612	
573	15000	0.957	0	0.001	0.187	0.004	0.673	
573	15000	0.905	0.01	0.001	0.073	0.002	0.782	
573	15000	0.989	0	0.001	0.397	0.008	0.552	
573	15000	0.94	0.001	0.001	0.119	0.003	0.733	
593	20000	0.986	0.002	0.001	0.29	0.007	0.671	
593	20000	0.983	0.002	0.001	0.259	0.006	0.689	
593	20000	0.974	0.003	0.001	0.206	0.005	0.723	
593	20000	0.963	0.004	0.001	0.156	0.003	0.758	
593	20000	0.955	0.006	0.001	0.102	0.002	0.806	

System: propan-2-ol + hexane + water; phases: Liquid mixture 1, Liquid mixture 2
Fixed: Temperature, K = 573
Fixed: Pressure, kPa = 20000
Property: Mole fraction of hexane (Liquid mixture 1); method: CHROM:UFactor:2
Property: Mole fraction of hexane (Liquid mixture 2); method: CHROM:UFactor:2
Property: Mole fraction of water (Liquid mixture 2); method: CHROM:UFactor:2
Mole fraction of water	Mole fraction of hexane	uncertainty	Mole fraction of hexane	uncertainty	Mole fraction of water	uncertainty
0.991	0.003	0.001	0.425	0.009	0.548	
0.984	0.004	0.001	0.383	0.008	0.564	
0.965	0.006	0.001	0.275	0.006	0.626	
0.953	0.008	0.001	0.239	0.005	0.648	
0.976	0.006	0.001	0.335	0.007	0.592	
0.928	0.016	0.001	0.166	0.003	0.703	
0.911	0.021	0.001	0.126	0.003	0.745	
0.896	0.028	0.001	0.111	0.002	0.762	

System: butan-2-ol + decane + water; phases: Liquid mixture 1, Liquid mixture 2
Fixed: Temperature, K = 573
Fixed: Pressure, kPa = 20000
Property: Mole fraction of decane (Liquid mixture 1); method: CHROM:UFactor:2
Property: Mole fraction of water (Liquid mixture 2); method: CHROM:UFactor:2
Property: Mole fraction of decane (Liquid mixture 2); method: CHROM:UFactor:2
Mole fraction of water	Mole fraction of decane	uncertainty	Mole fraction of water	uncertainty	Mole fraction of decane	uncertainty
0.99	0.001	0.001	0.51	0.01	0.434	
0.972	0.002	0.001	0.596	0.008	0.267	
0.966	0.003	0.001	0.641	0.007	0.199	
0.981	0.001	0.001	0.561	0.009	0.326	
0.945	0.005	0.001	0.71	0.006	0.134	
