Measured thermophysical data. Solubility of Formaldehyde and Trioxane in Aqueous Solutions
Source: J. Chem. Eng. Data, 2004, 10.1021/je030243h
Compound 1: methanol, CH4O, InChI=1S/CH4O/c1-2/h2H,1H3
Compound 2: methanal, CH2O, InChI=1S/CH2O/c1-2/h1H2
Compound 3: water, H2O, InChI=1S/H2O/h1H2
Compound 4: 1,3,5-trioxane, C3H6O3, InChI=1S/C3H6O3/c1-4-2-6-3-5-1/h1-3H2, purity 99%

System: 1,3,5-trioxane + water; phases: Liquid mixture 1, Liquid mixture 2
Fixed: Pressure, kPa = 101.3
Property: Liquid-liquid equilibrium temperature, K (Liquid mixture 1); method: VISOBS
Mass fraction of 1,3,5-trioxane	Liquid-liquid equilibrium temperature, K	uncertainty
0.2037	301.28	2.01
0.3	306.87	2.01
0.3781	312.88	2.01
0.4643	316.54	2.01
0.4941	317.5	2.01
0.496	317.35	2.01
0.5551	318.15	2.01
0.588	319.11	2.01
0.5992	319.4	2.01
0.5999	318.39	2.01
0.6011	318.52	2.01
0.6159	319.53	2.01
0.654	319.05	2.01
0.6776	319.34	2.01
0.699	319.89	2.01
0.7495	320.29	2.01
0.7551	319.53	2.01
0.8928	321.01	2.01
0.8994	319.88	2.01

System: methanal + methanol + water; phases: Liquid mixture 1, Liquid mixture 2
Fixed: Pressure, kPa = 101.3
Property: Liquid-liquid equilibrium temperature, K (Liquid mixture 1); method: VISOBS
Mass fraction of methanal	Mass fraction of methanol	Liquid-liquid equilibrium temperature, K	uncertainty
0.461	0.002	300.61	6
0.4648	0.002	305.75	6
0.4648	0.002	295.19	6
0.4967	0.018	312.17	6
0.5134	0.002	315.98	6
0.6057	0.018	325.53	6
0.6132	0.002	334.47	6
0.6647	0.002	346.53	6
0.6691	0.002	345.46	6
0.6799	0.002	340.13	6
0.6935	0.018	342.15	6
0.6975	0.002	351.2	6
0.6975	0.002	353.87	6
0.71	0.002	356.74	6
0.7334	0.018	353.53	6
0.7407	0.002	363.03	6
0.7457	0.002	360.01	6
0.7647	0.018	361.4	6
