Measured thermophysical data. Thermodynamic Properties of 1-Butyl-3-methylimidazolium Hexafluorophosphate in the Condensed State
Source: J. Chem. Eng. Data, 2004, 10.1021/je034102r
Compound 1: 1-butyl-3-methylimidazolium hexafluorophosphate, C8H15F6N2P, InChI=1S/C8H15N2.F6P/c1-3-4-5-10-7-6-9(2)8-10;1-7(2,3,4,5)6/h6-8H,3-5H2,1-2H3;/q+1;-1

System: 1-butyl-3-methylimidazolium hexafluorophosphate; phases: Crystal, Liquid, Gas
Property: Molar enthalpy of transition or fusion, kJ/mol (Crystal); method: ADIACA:UFactor:2
Molar enthalpy of transition or fusion, kJ/mol	uncertainty
19.601	0.042

System: 1-butyl-3-methylimidazolium hexafluorophosphate; phases: Crystal, Liquid, Gas
Property: Triple point temperature, K (Crystal); method: ADIACA:UFactor:2
Triple point temperature, K	uncertainty
283.51	0.12

System: 1-butyl-3-methylimidazolium hexafluorophosphate; phases: Glass, Liquid, Gas
Property: Triple point temperature, K (Glass); method: Adiabatic calorimetry
Triple point temperature, K	uncertainty
190.6	2

System: 1-butyl-3-methylimidazolium hexafluorophosphate; phases: Liquid
Fixed: Pressure, kPa = 101.325
Property: Molar heat capacity at constant pressure, J/K/mol (Liquid); method: heat bridge-scanning calorimeter
Temperature, K	Molar heat capacity at constant pressure, J/K/mol	uncertainty
300.05	409.222598688	8.2412884458
300.17	409.7909634084	8.2412884458
300.3	410.0751457686	8.2412884458
300.43	410.0751457686	8.2412884458
300.55	410.3593281288	8.2412884458
300.81	410.3593281288	8.2412884458
300.94	410.3593281288	8.2412884458
301.07	410.643510489	8.2412884458
301.19	410.9276928492	8.2412884458
301.32	410.9276928492	8.2412884458
301.45	411.2118752094	8.2412884458
301.57	410.9276928492	8.2412884458
301.7	411.4960575696	8.2412884458
301.83	411.4960575696	8.2412884458
301.95	411.4960575696	8.2412884458
302.08	411.7802399298	8.2412884458
302.35	412.06442229	8.2412884458
302.48	412.06442229	8.2412884458
302.61	412.06442229	8.2412884458
302.73	412.3486046502	8.2412884458
302.86	412.3486046502	8.2412884458
302.99	412.3486046502	8.2412884458
303.12	412.3486046502	8.2412884458
303.24	412.9169693706	8.2412884458
303.37	412.9169693706	8.2412884458
303.63	413.2011517308	8.2412884458
303.75	413.2011517308	8.2412884458
303.89	413.2011517308	8.2412884458
304.02	413.2011517308	8.2412884458
304.15	413.2011517308	8.2412884458
304.27	413.2011517308	8.2412884458
304.4	413.485334091	8.2412884458
304.53	413.485334091	8.2412884458
304.66	413.7695164512	8.2412884458
304.78	414.0536988114	8.2412884458
304.91	414.0536988114	8.2412884458
305.19	414.3378811716	8.2412884458
305.31	414.3378811716	8.2412884458
305.44	414.3378811716	8.2412884458
305.57	414.6220635318	8.2412884458
305.7	414.906245892	8.2412884458
305.82	414.6220635318	8.2412884458
305.95	414.906245892	8.2412884458
306.08	415.1904282522	8.2412884458
306.2	415.1904282522	8.2412884458
306.46	415.1904282522	8.2412884458
306.59	415.1904282522	8.2412884458
306.72	415.4746106124	8.2412884458
306.84	415.4746106124	8.2412884458
306.97	415.4746106124	8.2412884458
307.1	415.7587929726	8.2412884458
307.22	415.7587929726	8.2412884458
307.35	416.327157693	8.2412884458
307.48	415.7587929726	8.2412884458
307.61	416.0429753328	8.2412884458
307.73	416.0429753328	8.2412884458
308.01	416.0429753328	8.2412884458
308.13	416.6113400532	8.2412884458
308.26	416.327157693	8.2412884458
308.39	416.6113400532	8.2412884458
308.51	416.6113400532	8.2412884458
308.64	416.8955224134	8.2412884458
308.77	416.6113400532	8.2412884458
308.89	416.6113400532	8.2412884458
309.02	416.8955224134	8.2412884458
309.28	416.8955224134	8.2412884458
309.41	417.1797047736	8.2412884458
309.53	417.4638871338	8.2412884458
309.66	417.4638871338	8.2412884458
309.8	417.4638871338	8.2412884458
309.93	417.4638871338	8.2412884458
310.05	417.4638871338	8.2412884458
310.18	417.4638871338	8.2412884458
310.31	417.748069494	8.2412884458
310.44	417.748069494	8.2412884458
310.56	418.0322518542	8.2412884458
310.84	418.3164342144	8.2412884458
310.97	418.3164342144	8.2412884458
311.09	418.3164342144	8.2412884458
311.22	418.3164342144	8.2412884458
311.35	418.6006165746	8.2412884458
311.47	418.3164342144	8.2412884458
311.6	418.6006165746	8.2412884458
311.73	418.6006165746	8.2412884458
311.86	418.3164342144	8.2412884458
312.11	418.6006165746	8.2412884458
312.24	418.6006165746	8.2412884458
312.37	418.8847989348	8.2412884458
312.49	418.8847989348	8.2412884458
312.62	419.168981295	8.525470806
312.75	419.168981295	8.525470806
312.87	419.4531636552	8.525470806
313	419.4531636552	8.525470806
313.13	419.4531636552	8.525470806
313.25	419.4531636552	8.525470806
313.38	419.7373460154	8.525470806
313.65	420.0215283756	8.525470806
313.78	420.0215283756	8.525470806
313.91	420.0215283756	8.525470806
314.04	420.0215283756	8.525470806
314.16	420.0215283756	8.525470806
314.29	420.0215283756	8.525470806
314.42	420.3057107358	8.525470806
314.54	420.589893096	8.525470806
314.67	420.589893096	8.525470806
314.93	420.589893096	8.525470806
315.05	420.589893096	8.525470806
315.18	420.8740754562	8.525470806
315.31	420.8740754562	8.525470806
315.43	420.8740754562	8.525470806
315.56	420.8740754562	8.525470806
315.7	420.8740754562	8.525470806
315.82	420.8740754562	8.525470806
315.95	421.1582578164	8.525470806
316.08	420.8740754562	8.525470806
316.2	421.1582578164	8.525470806
316.48	421.1582578164	8.525470806
316.6	421.4424401766	8.525470806
316.73	421.7266225368	8.525470806
316.86	421.7266225368	8.525470806
316.98	421.7266225368	8.525470806
317.11	421.7266225368	8.525470806
317.24	421.7266225368	8.525470806
317.36	421.7266225368	8.525470806
317.49	421.4424401766	8.525470806
317.75	422.010804897	8.525470806
317.88	422.010804897	8.525470806
318	422.2949872572	8.525470806
318.13	422.2949872572	8.525470806
318.26	422.5791696174	8.525470806
318.38	422.5791696174	8.525470806
318.51	422.5791696174	8.525470806
318.64	422.5791696174	8.525470806
318.76	422.8633519776	8.525470806
318.89	422.5791696174	8.525470806
319.02	423.1475343378	8.525470806
319.29	422.8633519776	8.525470806
319.42	422.8633519776	8.525470806
319.54	422.8633519776	8.525470806
319.67	422.8633519776	8.525470806
319.8	422.8633519776	8.525470806
319.92	422.8633519776	8.525470806
320.05	423.1475343378	8.525470806
320.18	423.1475343378	8.525470806
320.3	423.1475343378	8.525470806
320.56	423.431716698	8.525470806
320.69	423.431716698	8.525470806
320.81	423.7158990582	8.525470806
320.94	423.7158990582	8.525470806
321.06	423.7158990582	8.525470806
321.19	424.0000814184	8.525470806
321.32	424.0000814184	8.525470806
321.44	424.0000814184	8.525470806
321.57	424.0000814184	8.525470806
321.71	424.0000814184	8.525470806
321.83	424.2842637786	8.525470806
322.11	424.2842637786	8.525470806
322.23	424.2842637786	8.525470806
322.36	424.0000814184	8.525470806
322.49	424.0000814184	8.525470806
322.61	424.0000814184	8.525470806
322.74	424.2842637786	8.525470806
322.87	424.2842637786	8.525470806
322.99	424.5684461388	8.525470806
323.12	424.5684461388	8.525470806
323.38	424.5684461388	8.525470806
323.5	424.5684461388	8.525470806
323.63	424.852628499	8.525470806
323.76	424.852628499	8.525470806
323.88	424.852628499	8.525470806
324.01	425.1368108592	8.525470806
324.14	425.1368108592	8.525470806
324.26	425.1368108592	8.525470806
324.39	425.4209932194	8.525470806
324.51	425.4209932194	8.525470806
324.64	425.4209932194	8.525470806
324.91	425.7051755796	8.525470806
325.04	425.7051755796	8.525470806
325.17	425.7051755796	8.525470806
325.29	425.7051755796	8.525470806
325.42	425.7051755796	8.525470806
325.54	425.9893579398	8.525470806
325.67	425.7051755796	8.525470806
325.8	425.9893579398	8.525470806
325.92	426.2735403	8.525470806
326.18	426.2735403	8.525470806
326.31	426.2735403	8.525470806
326.43	426.2735403	8.525470806
326.56	426.5577226602	8.525470806
326.68	426.5577226602	8.525470806
326.81	426.2735403	8.525470806
326.94	426.5577226602	8.525470806
327.06	426.5577226602	8.525470806
327.19	426.5577226602	8.525470806
327.31	426.5577226602	8.525470806
327.44	426.8419050204	8.525470806
327.72	427.1260873806	8.525470806
327.85	427.1260873806	8.525470806
327.98	427.1260873806	8.525470806
328.1	427.1260873806	8.525470806
328.23	427.4102697408	8.525470806
328.35	427.4102697408	8.525470806
328.48	427.4102697408	8.525470806
328.61	427.4102697408	8.525470806
328.73	427.4102697408	8.525470806
328.99	427.694452101	8.525470806
329.11	427.694452101	8.525470806
329.24	427.9786344612	8.525470806
329.37	427.694452101	8.525470806
329.49	427.9786344612	8.525470806
329.62	427.9786344612	8.525470806
329.74	428.2628168214	8.525470806
329.87	428.2628168214	8.525470806
330	428.2628168214	8.525470806
330.12	427.9786344612	8.525470806
330.25	428.2628168214	8.525470806
330.52	428.5469991816	8.525470806
330.65	428.5469991816	8.525470806
330.77	428.5469991816	8.525470806
330.9	428.5469991816	8.525470806
331.03	428.5469991816	8.525470806
331.15	428.5469991816	8.525470806
331.28	428.8311815418	8.525470806
331.4	429.115363902	8.525470806
331.53	429.115363902	8.525470806
331.79	429.115363902	8.525470806
331.91	429.115363902	8.525470806
332.04	429.115363902	8.525470806
332.16	429.115363902	8.525470806
332.29	429.115363902	8.525470806
332.42	429.3995462622	8.525470806
332.54	429.3995462622	8.525470806
332.67	429.3995462622	8.525470806
332.79	429.3995462622	8.525470806
332.92	429.3995462622	8.525470806
333.05	429.3995462622	8.525470806
333.32	429.6837286224	8.525470806
333.45	429.6837286224	8.525470806
333.58	429.9679109826	8.525470806
333.71	429.9679109826	8.525470806
333.83	429.9679109826	8.525470806
333.96	429.9679109826	8.525470806
334.08	429.9679109826	8.525470806
334.21	429.9679109826	8.525470806
334.34	429.9679109826	8.525470806
334.59	430.2520933428	8.525470806
334.72	430.2520933428	8.525470806
334.84	430.2520933428	8.525470806
334.97	430.2520933428	8.525470806
335.1	430.536275703	8.525470806
335.22	430.536275703	8.525470806
335.35	430.536275703	8.525470806
335.47	430.536275703	8.525470806
335.6	430.8204580632	8.525470806
335.73	430.8204580632	8.525470806
335.85	430.8204580632	8.525470806
336.12	431.1046404234	8.525470806
336.25	430.8204580632	8.525470806
336.38	430.8204580632	8.525470806
336.5	431.1046404234	8.525470806
336.63	431.1046404234	8.525470806
336.75	431.1046404234	8.525470806
336.88	431.3888227836	8.525470806
337.01	431.3888227836	8.525470806
337.13	431.3888227836	8.525470806
337.39	431.3888227836	8.525470806
337.51	431.3888227836	8.525470806
337.64	431.3888227836	8.525470806
337.76	431.3888227836	8.525470806
337.89	431.6730051438	8.525470806
338.02	431.6730051438	8.525470806
338.14	431.957187504	8.525470806
338.27	431.957187504	8.525470806
338.39	431.957187504	8.525470806
338.52	432.2413698642	8.525470806
338.64	432.2413698642	8.525470806
338.91	432.2413698642	8.525470806
339.04	432.5255522244	8.525470806
339.17	432.5255522244	8.525470806
339.29	432.5255522244	8.525470806
339.43	432.8097345846	8.525470806
339.55	432.8097345846	8.525470806
339.68	432.8097345846	8.525470806
339.8	432.8097345846	8.525470806
339.93	433.0939169448	8.525470806
340.19	433.0939169448	8.525470806
340.31	433.378099305	8.8096531662
340.44	433.378099305	8.8096531662
340.56	433.378099305	8.8096531662
340.69	433.378099305	8.8096531662
340.82	433.6622816652	8.8096531662
340.94	433.6622816652	8.8096531662
341.07	433.6622816652	8.8096531662
341.19	433.6622816652	8.8096531662
341.32	433.9464640254	8.8096531662
341.45	433.9464640254	8.8096531662
341.72	434.2306463856	8.8096531662
341.85	434.2306463856	8.8096531662
341.97	434.2306463856	8.8096531662
342.1	434.2306463856	8.8096531662
342.22	434.2306463856	8.8096531662
342.35	434.5148287458	8.8096531662
342.48	434.5148287458	8.8096531662
342.6	434.5148287458	8.8096531662
342.73	434.5148287458	8.8096531662
343	434.799011106	8.8096531662
343.13	434.799011106	8.8096531662
343.25	434.799011106	8.8096531662
343.38	435.0831934662	8.8096531662
343.51	435.0831934662	8.8096531662
343.63	435.0831934662	8.8096531662
343.76	435.3673758264	8.8096531662
343.88	435.3673758264	8.8096531662
344.01	435.3673758264	8.8096531662
344.13	435.3673758264	8.8096531662
344.26	435.6515581866	8.8096531662
344.53	435.9357405468	8.8096531662
344.66	435.6515581866	8.8096531662
344.78	435.9357405468	8.8096531662
344.91	435.9357405468	8.8096531662
345.03	435.9357405468	8.8096531662
345.16	435.9357405468	8.8096531662
345.29	436.219922907	8.8096531662
345.42	436.5041052672	8.8096531662
345.55	436.219922907	8.8096531662
345.82	436.7882876274	8.8096531662
345.95	436.5041052672	8.8096531662
346.07	437.0724699876	8.8096531662
346.2	436.7882876274	8.8096531662
346.32	437.0724699876	8.8096531662
346.45	437.0724699876	8.8096531662
346.57	437.0724699876	8.8096531662
346.7	437.0724699876	8.8096531662
346.82	437.3566523478	8.8096531662
346.95	437.3566523478	8.8096531662
347.08	437.640834708	8.8096531662
347.35	437.3566523478	8.8096531662
347.47	437.640834708	8.8096531662
347.6	437.640834708	8.8096531662
347.72	437.640834708	8.8096531662
347.85	437.9250170682	8.8096531662
347.97	437.9250170682	8.8096531662
348.1	437.9250170682	8.8096531662
348.22	437.9250170682	8.8096531662
348.35	438.2091994284	8.8096531662
348.63	438.2091994284	8.8096531662
348.76	438.2091994284	8.8096531662
348.88	438.4933817886	8.8096531662
349.01	438.2091994284	8.8096531662
349.13	438.4933817886	8.8096531662
349.26	438.4933817886	8.8096531662
349.38	438.7775641488	8.8096531662
349.51	438.7775641488	8.8096531662
349.63	438.7775641488	8.8096531662
349.76	438.7775641488	8.8096531662
349.88	439.061746509	8.8096531662
350.19	439.3459288692	8.8096531662
350.32	439.3459288692	8.8096531662
350.44	439.3459288692	8.8096531662
350.57	439.3459288692	8.8096531662
350.69	439.6301112294	8.8096531662
350.82	439.6301112294	8.8096531662
350.94	439.6301112294	8.8096531662
351.07	439.6301112294	8.8096531662
351.21	439.3459288692	8.8096531662
351.49	439.9142935896	8.8096531662
351.61	439.6301112294	8.8096531662
351.74	439.9142935896	8.8096531662
351.86	440.1984759498	8.8096531662
351.99	440.1984759498	8.8096531662
352.11	440.1984759498	8.8096531662
352.24	440.1984759498	8.8096531662
352.36	440.48265831	8.8096531662
352.49	440.48265831	8.8096531662
352.61	440.48265831	8.8096531662
352.74	440.7668406702	8.8096531662
353.01	440.7668406702	8.8096531662
353.13	440.7668406702	8.8096531662
353.26	441.0510230304	8.8096531662
353.38	441.0510230304	8.8096531662
353.51	441.3352053906	8.8096531662
353.64	441.3352053906	8.8096531662
353.76	441.3352053906	8.8096531662
353.89	441.3352053906	8.8096531662
354.01	441.6193877508	8.8096531662
354.29	441.903570111	8.8096531662
354.41	441.903570111	8.8096531662
354.54	441.6193877508	8.8096531662
354.66	441.903570111	8.8096531662
354.79	442.1877524712	8.8096531662
354.91	441.903570111	8.8096531662
355.04	442.1877524712	8.8096531662
355.16	442.4719348314	8.8096531662
355.29	442.4719348314	8.8096531662
355.41	442.4719348314	8.8096531662
355.54	442.4719348314	8.8096531662
355.81	442.7561171916	8.8096531662
355.94	443.0402995518	8.8096531662
356.06	442.7561171916	8.8096531662
356.19	442.7561171916	8.8096531662
356.31	443.0402995518	8.8096531662
356.44	443.0402995518	8.8096531662
356.56	443.324481912	8.8096531662
356.69	443.324481912	8.8096531662
356.81	443.6086642722	8.8096531662
357.1	443.324481912	8.8096531662
357.24	443.6086642722	8.8096531662
357.36	443.6086642722	8.8096531662
357.49	443.6086642722	8.8096531662
357.61	443.6086642722	8.8096531662
357.74	443.8928466324	8.8096531662
357.86	443.8928466324	8.8096531662
357.99	444.1770289926	8.8096531662
358.12	444.1770289926	8.8096531662
358.24	444.1770289926	8.8096531662
358.37	444.1770289926	8.8096531662
358.64	444.4612113528	8.8096531662
358.76	444.745393713	8.8096531662
358.89	444.4612113528	8.8096531662
359.02	444.745393713	8.8096531662
359.14	444.745393713	8.8096531662
359.27	444.745393713	8.8096531662
359.39	445.0295760732	8.8096531662
359.52	445.0295760732	8.8096531662
359.64	445.3137584334	8.8096531662
359.93	445.3137584334	8.8096531662
360.05	445.3137584334	8.8096531662
360.18	445.5979407936	8.8096531662
360.3	445.5979407936	8.8096531662
360.43	445.8821231538	8.8096531662
360.55	445.8821231538	8.8096531662
360.68	445.8821231538	8.8096531662
360.8	446.166305514	8.8096531662
360.93	446.166305514	8.8096531662
361.05	446.166305514	8.8096531662
361.18	446.4504878742	8.8096531662
361.45	446.4504878742	8.8096531662
361.58	446.4504878742	8.8096531662
361.7	446.4504878742	8.8096531662
361.83	446.4504878742	8.8096531662
361.95	446.7346702344	8.8096531662
362.08	446.7346702344	8.8096531662
362.2	447.0188525946	8.8096531662
362.33	447.0188525946	8.8096531662
362.45	447.0188525946	8.8096531662
362.73	447.0188525946	8.8096531662
362.86	447.0188525946	8.8096531662
362.98	447.3030349548	8.8096531662
363.12	447.3030349548	8.8096531662
363.25	447.3030349548	8.8096531662
363.37	447.3030349548	8.8096531662
363.5	447.587217315	9.0938355264
363.62	447.587217315	9.0938355264
363.75	447.8713996752	9.0938355264
363.87	447.587217315	9.0938355264
364	447.8713996752	9.0938355264
364.27	447.8713996752	9.0938355264
364.4	447.8713996752	9.0938355264
364.52	447.8713996752	9.0938355264
364.65	448.1555820354	9.0938355264
364.77	448.1555820354	9.0938355264
364.9	448.1555820354	9.0938355264
365.02	448.1555820354	9.0938355264
365.15	448.4397643956	9.0938355264
365.28	448.1555820354	9.0938355264
365.56	448.4397643956	9.0938355264
365.69	448.4397643956	9.0938355264
365.81	448.7239467558	9.0938355264
365.94	448.7239467558	9.0938355264
366.06	448.7239467558	9.0938355264
366.19	448.7239467558	9.0938355264
366.32	448.7239467558	9.0938355264
366.44	449.008129116	9.0938355264
366.57	449.008129116	9.0938355264
366.69	449.008129116	9.0938355264
366.82	449.2923114762	9.0938355264
367.09	449.2923114762	9.0938355264
367.22	449.2923114762	9.0938355264
367.34	449.5764938364	9.0938355264
367.47	449.8606761966	9.0938355264
367.59	449.8606761966	9.0938355264
367.72	449.8606761966	9.0938355264
367.84	449.8606761966	9.0938355264
367.97	449.8606761966	9.0938355264
368.1	450.429040917	9.0938355264
368.38	450.1448585568	9.0938355264
368.51	450.429040917	9.0938355264
368.63	450.429040917	9.0938355264
368.76	450.429040917	9.0938355264
368.88	450.429040917	9.0938355264
369.02	450.429040917	9.0938355264
369.15	450.429040917	9.0938355264
369.27	450.429040917	9.0938355264
369.4	450.7132232772	9.0938355264
369.53	450.7132232772	9.0938355264
369.65	450.7132232772	9.0938355264
369.92	452.1341350782	9.0938355264
370.05	452.1341350782	9.0938355264
370.17	451.849952718	9.0938355264
370.3	451.2815879976	9.0938355264
370.43	451.5657703578	9.0938355264
370.55	451.2815879976	9.0938355264
370.68	451.2815879976	9.0938355264
370.8	451.5657703578	9.0938355264
370.93	451.5657703578	9.0938355264
371.21	451.849952718	9.0938355264
371.34	452.1341350782	9.0938355264
371.47	452.1341350782	9.0938355264
371.59	451.849952718	9.0938355264
371.72	452.1341350782	9.0938355264
371.84	451.849952718	9.0938355264
371.97	452.1341350782	9.0938355264
372.09	452.1341350782	9.0938355264
372.22	452.1341350782	9.0938355264
372.35	452.1341350782	9.0938355264
372.47	452.7024997986	9.0938355264
372.74	452.9866821588	9.0938355264
372.87	452.7024997986	9.0938355264
372.99	452.7024997986	9.0938355264
373.12	452.7024997986	9.0938355264
373.25	452.9866821588	9.0938355264
373.37	453.5550468792	9.0938355264
373.5	453.8392292394	9.0938355264
373.62	453.5550468792	9.0938355264
373.75	452.7024997986	9.0938355264
374.03	453.270864519	9.0938355264
374.16	453.270864519	9.0938355264
374.29	453.270864519	9.0938355264
374.41	453.270864519	9.0938355264
374.54	454.4075939598	9.0938355264
374.67	455.2601410404	9.0938355264
374.79	454.69177632	9.0938355264
374.92	454.69177632	9.0938355264
375.06	454.69177632	9.0938355264
375.18	454.4075939598	9.0938355264
375.31	454.1234115996	9.0938355264
375.58	453.8392292394	9.0938355264
375.71	453.8392292394	9.0938355264
375.83	453.5550468792	9.0938355264
375.96	453.8392292394	9.0938355264
376.09	454.69177632	9.0938355264
376.21	455.8285057608	9.0938355264
376.34	455.8285057608	9.0938355264
376.46	455.5443234006	9.0938355264
376.59	454.9759586802	9.0938355264
376.87	454.4075939598	9.0938355264
376.99	454.4075939598	9.0938355264
377.12	454.4075939598	9.0938355264
377.25	454.9759586802	9.0938355264
377.37	455.2601410404	9.0938355264
377.5	454.9759586802	9.0938355264
377.63	454.69177632	9.0938355264
377.75	454.69177632	9.0938355264
377.88	454.9759586802	9.0938355264
378	455.2601410404	9.0938355264
378.13	455.5443234006	9.0938355264
378.4	455.5443234006	9.0938355264
378.53	455.2601410404	9.0938355264
378.65	455.5443234006	9.0938355264
378.78	455.5443234006	9.0938355264
378.91	455.5443234006	9.0938355264
379.03	455.5443234006	9.0938355264
379.16	455.8285057608	9.0938355264
379.29	456.112688121	9.0938355264
379.41	457.533599922	9.0938355264
379.7	456.112688121	9.0938355264
379.83	456.112688121	9.0938355264
379.95	456.3968704812	9.0938355264
380.08	456.6810528414	9.0938355264
380.21	456.6810528414	9.0938355264
380.33	456.6810528414	9.0938355264
380.46	456.6810528414	9.0938355264
380.59	456.6810528414	9.0938355264
380.71	456.9652352016	9.0938355264
380.84	457.533599922	9.0938355264
380.98	457.2494175618	9.0938355264
381.25	457.533599922	9.0938355264
381.38	456.9652352016	9.0938355264
381.51	456.6810528414	9.0938355264
381.63	456.6810528414	9.0938355264
381.76	456.6810528414	9.0938355264
381.89	456.9652352016	9.0938355264
382.01	457.533599922	9.0938355264
382.14	457.8177822822	9.0938355264
382.27	457.533599922	9.0938355264
382.56	457.533599922	9.0938355264
382.68	458.3861470026	9.0938355264
382.81	457.8177822822	9.0938355264
382.94	458.1019646424	9.0938355264
383.06	458.3861470026	9.0938355264
383.19	458.6703293628	9.0938355264
383.32	458.6703293628	9.0938355264
383.45	458.3861470026	9.0938355264
383.57	457.8177822822	9.0938355264
383.7	457.8177822822	9.0938355264
383.83	457.533599922	9.0938355264
384.1	458.1019646424	9.0938355264
384.23	457.8177822822	9.0938355264
384.36	458.1019646424	9.0938355264
384.48	458.6703293628	9.0938355264
384.61	459.2386940832	9.0938355264
384.74	458.954511723	9.0938355264
384.86	458.3861470026	9.0938355264
384.99	457.8177822822	9.0938355264
385.12	458.1019646424	9.0938355264
385.41	459.5228764434	9.0938355264
385.54	460.0912411638	9.0938355264
385.66	459.8070588036	9.0938355264
385.79	459.5228764434	9.0938355264
385.92	459.2386940832	9.0938355264
386.05	459.5228764434	9.0938355264
386.18	460.0912411638	9.0938355264
386.3	460.0912411638	9.0938355264
386.43	459.8070588036	9.0938355264
386.56	460.0912411638	9.0938355264
386.69	460.375423524	9.0938355264
386.97	460.375423524	9.0938355264
387.1	460.0912411638	9.0938355264
387.23	460.0912411638	9.0938355264
387.36	459.8070588036	9.0938355264
387.49	460.0912411638	9.0938355264
387.61	460.375423524	9.0938355264
387.74	460.375423524	9.0938355264
387.87	460.0912411638	9.0938355264
388	460.0912411638	9.0938355264
388.28	461.2279706046	9.0938355264
388.41	460.9437882444	9.0938355264
388.54	461.2279706046	9.0938355264
388.67	461.5121529648	9.0938355264
388.79	461.5121529648	9.0938355264
388.92	461.5121529648	9.0938355264
389.05	461.5121529648	9.0938355264
389.18	461.796335325	9.3780178866
389.3	461.796335325	9.3780178866
389.43	461.5121529648	9.0938355264
389.56	461.796335325	9.3780178866
389.84	461.796335325	9.3780178866
389.96	462.0805176852	9.3780178866
390.09	462.0805176852	9.3780178866
390.22	462.3647000454	9.3780178866
390.35	462.9330647658	9.3780178866
390.47	462.9330647658	9.3780178866
390.6	463.7856118464	9.3780178866
390.73	464.0697942066	9.3780178866
390.86	463.5014294862	9.3780178866
391.15	463.5014294862	9.3780178866
391.27	464.3539765668	9.3780178866
391.4	464.638158927	9.3780178866
391.53	464.3539765668	9.3780178866
391.66	464.638158927	9.3780178866
391.79	464.0697942066	9.3780178866
391.92	464.0697942066	9.3780178866
392.05	463.7856118464	9.3780178866
392.17	463.7856118464	9.3780178866
392.3	464.3539765668	9.3780178866
392.43	464.9223412872	9.3780178866
392.71	464.0697942066	9.3780178866
392.84	464.0697942066	9.3780178866
392.97	464.0697942066	9.3780178866
393.11	464.0697942066	9.3780178866
393.24	464.0697942066	9.3780178866
393.36	464.3539765668	9.3780178866
393.49	464.3539765668	9.3780178866
393.62	464.638158927	9.3780178866
393.75	465.2065236474	9.3780178866
394.04	465.2065236474	9.3780178866
394.17	465.2065236474	9.3780178866
394.3	465.4907060076	9.3780178866
394.42	465.4907060076	9.3780178866
394.55	465.7748883678	9.3780178866
394.68	466.3432530882	9.3780178866
394.81	467.479982529	9.3780178866
394.94	467.479982529	9.3780178866
395.07	467.1958001688	9.3780178866
395.2	466.6274354484	9.3780178866
395.32	466.6274354484	9.3780178866
395.6	466.9116178086	9.3780178866
395.73	466.9116178086	9.3780178866
395.86	467.1958001688	9.3780178866
395.99	468.0483472494	9.3780178866
396.12	468.3325296096	9.3780178866
396.24	468.3325296096	9.3780178866
396.37	468.3325296096	9.3780178866
396.5	468.6167119698	9.3780178866
396.63	469.4692590504	9.3780178866
396.92	469.1850766902	9.3780178866
397.05	468.6167119698	9.3780178866
397.18	468.90089433	9.3780178866
397.31	468.90089433	9.3780178866
397.44	469.1850766902	9.3780178866
397.56	469.1850766902	9.3780178866
397.69	469.4692590504	9.3780178866
397.82	469.1850766902	9.3780178866
397.95	469.1850766902	9.3780178866
398.08	469.4692590504	9.3780178866
398.21	469.4692590504	9.3780178866
398.49	469.1850766902	9.3780178866
398.62	469.4692590504	9.3780178866
398.75	470.0376237708	9.3780178866
398.88	470.321806131	9.3780178866
399.01	470.6059884912	9.3780178866
399.15	470.6059884912	9.3780178866
399.28	470.8901708514	9.3780178866
399.41	471.1743532116	9.3780178866
399.53	472.0269002922	9.3780178866
399.82	471.1743532116	9.3780178866
399.95	470.8901708514	9.3780178866
400.08	470.8901708514	9.3780178866
400.21	470.6059884912	9.3780178866
400.34	471.1743532116	9.3780178866
400.47	471.742717932	9.3780178866
400.6	471.742717932	9.3780178866
400.73	472.5952650126	9.3780178866
400.86	472.0269002922	9.3780178866
400.99	471.742717932	9.3780178866
401.12	471.742717932	9.3780178866
401.41	472.5952650126	9.3780178866
401.54	472.3110826524	9.3780178866
401.67	471.742717932	9.3780178866
401.8	472.0269002922	9.3780178866
401.93	472.0269002922	9.3780178866
402.06	472.3110826524	9.3780178866
402.19	472.0269002922	9.3780178866
402.32	471.4585355718	9.3780178866
402.45	471.4585355718	9.3780178866
402.74	471.742717932	9.3780178866
402.87	471.4585355718	9.3780178866
403	471.742717932	9.3780178866
403.13	472.0269002922	9.3780178866
403.26	472.0269002922	9.3780178866
403.39	472.0269002922	9.3780178866
403.52	472.0269002922	9.3780178866
403.65	472.0269002922	9.3780178866
403.78	472.3110826524	9.3780178866
403.91	472.3110826524	9.3780178866
404.04	472.5952650126	9.3780178866
404.32	472.3110826524	9.3780178866
404.45	472.3110826524	9.3780178866
404.58	472.3110826524	9.3780178866
404.71	473.163629733	9.3780178866
404.84	473.7319944534	9.3780178866
404.98	473.7319944534	9.3780178866
405.11	473.163629733	9.3780178866
405.24	472.8794473728	9.3780178866
405.38	472.0269002922	9.3780178866
405.67	472.8794473728	9.3780178866
405.8	473.7319944534	9.3780178866
405.93	474.0161768136	9.3780178866
406.06	474.0161768136	9.3780178866
406.2	473.7319944534	9.3780178866
406.33	473.4478120932	9.3780178866
406.46	472.8794473728	9.3780178866
406.59	472.8794473728	9.3780178866
406.72	473.163629733	9.3780178866
406.85	473.4478120932	9.3780178866
406.98	473.7319944534	9.3780178866
407.27	474.0161768136	9.3780178866
407.4	473.7319944534	9.3780178866
407.53	473.4478120932	9.3780178866
407.66	473.4478120932	9.3780178866
407.79	473.163629733	9.3780178866
407.92	473.163629733	9.3780178866
408.05	472.8794473728	9.3780178866
408.19	473.4478120932	9.3780178866
408.32	474.584541534	9.3780178866
408.61	473.7319944534	9.3780178866
408.74	473.4478120932	9.3780178866
408.88	473.4478120932	9.3780178866
409.01	473.4478120932	9.3780178866
409.14	473.7319944534	9.3780178866
409.27	474.0161768136	9.3780178866
409.4	474.0161768136	9.3780178866
409.53	473.7319944534	9.3780178866
409.67	473.7319944534	9.3780178866
409.8	474.3003591738	9.3780178866
409.93	474.584541534	9.3780178866
410.22	475.1529062544	9.3780178866
410.35	474.584541534	9.3780178866
410.48	474.3003591738	9.3780178866
410.61	474.3003591738	9.3780178866
410.74	474.584541534	9.3780178866
410.88	474.3003591738	9.3780178866
411.01	474.3003591738	9.3780178866
411.14	474.0161768136	9.3780178866
411.27	473.7319944534	9.3780178866
411.58	475.7212709748	9.3780178866
411.71	475.7212709748	9.3780178866
411.84	476.005453335	9.6622002468
411.97	476.005453335	9.6622002468
412.11	475.7212709748	9.3780178866
412.24	475.1529062544	9.3780178866
412.37	474.584541534	9.3780178866
412.5	474.8687238942	9.3780178866
412.63	474.584541534	9.3780178866
412.77	475.1529062544	9.3780178866
412.9	475.1529062544	9.3780178866
413.18	474.584541534	9.3780178866
413.31	474.584541534	9.3780178866
413.45	474.3003591738	9.3780178866
413.58	474.3003591738	9.3780178866
413.71	474.3003591738	9.3780178866
413.84	474.3003591738	9.3780178866
413.97	474.0161768136	9.3780178866
414.11	474.0161768136	9.3780178866
414.24	474.3003591738	9.3780178866
414.53	474.584541534	9.3780178866
414.67	475.4370886146	9.3780178866
414.8	476.005453335	9.6622002468
414.93	476.2896356952	9.6622002468
415.07	476.2896356952	9.6622002468
415.2	476.5738180554	9.6622002468
415.33	476.005453335	9.6622002468
415.47	476.005453335	9.6622002468
415.6	475.7212709748	9.3780178866
415.73	475.4370886146	9.3780178866
415.87	475.4370886146	9.3780178866
416.15	475.4370886146	9.3780178866
416.29	475.4370886146	9.3780178866
416.42	475.1529062544	9.3780178866
416.55	474.8687238942	9.3780178866
416.69	475.1529062544	9.3780178866
416.82	475.1529062544	9.3780178866
416.95	475.7212709748	9.3780178866
417.08	476.005453335	9.6622002468
417.22	477.426365136	9.6622002468
417.52	476.5738180554	9.6622002468
417.65	476.8580004156	9.6622002468
417.8	476.5738180554	9.6622002468
417.93	476.2896356952	9.6622002468
418.06	476.2896356952	9.6622002468
418.2	475.7212709748	9.3780178866
418.33	475.7212709748	9.3780178866
418.46	475.7212709748	9.3780178866
418.6	475.4370886146	9.3780178866
418.73	476.005453335	9.6622002468
418.86	477.1421827758	9.6622002468
419.15	478.5630945768	9.6622002468
419.29	477.7105474962	9.6622002468
419.42	477.1421827758	9.6622002468
419.55	476.5738180554	9.6622002468
419.69	476.5738180554	9.6622002468
419.82	476.2896356952	9.6622002468
419.96	476.5738180554	9.6622002468
420.09	476.5738180554	9.6622002468
420.22	476.2896356952	9.6622002468
420.52	477.1421827758	9.6622002468
420.66	476.5738180554	9.6622002468
420.79	477.1421827758	9.6622002468
420.92	477.1421827758	9.6622002468
421.06	477.1421827758	9.6622002468
421.19	477.426365136	9.6622002468
421.33	476.8580004156	9.6622002468
421.46	476.8580004156	9.6622002468
421.59	476.8580004156	9.6622002468
421.73	476.5738180554	9.6622002468
421.86	476.5738180554	9.6622002468
422.15	477.1421827758	9.6622002468
422.28	477.9947298564	9.6622002468
422.42	478.5630945768	9.6622002468
422.55	478.2789122166	9.6622002468
422.69	477.9947298564	9.6622002468
422.82	477.7105474962	9.6622002468
422.95	477.7105474962	9.6622002468
423.09	477.9947298564	9.6622002468
423.22	478.5630945768	9.6622002468
423.52	477.7105474962	9.6622002468
423.65	477.426365136	9.6622002468
423.79	477.7105474962	9.6622002468
423.92	477.7105474962	9.6622002468
424.05	477.7105474962	9.6622002468
424.2	477.9947298564	9.6622002468
424.34	478.2789122166	9.6622002468
424.47	478.5630945768	9.6622002468
424.61	478.847276937	9.6622002468
424.74	478.2789122166	9.6622002468
424.87	478.2789122166	9.6622002468
425.17	478.847276937	9.6622002468
425.3	478.847276937	9.6622002468
425.43	478.5630945768	9.6622002468
425.57	478.2789122166	9.6622002468
425.7	478.847276937	9.6622002468
425.84	479.4156416574	9.6622002468
425.97	480.8365534584	9.6622002468
426.11	481.4049181788	9.6622002468
426.24	480.5523710982	9.6622002468
426.54	479.6998240176	9.6622002468
426.67	479.4156416574	9.6622002468
426.81	479.1314592972	9.6622002468
426.94	479.4156416574	9.6622002468
427.08	479.4156416574	9.6622002468
427.21	479.4156416574	9.6622002468
427.35	479.1314592972	9.6622002468
427.48	479.1314592972	9.6622002468
427.62	478.847276937	9.6622002468
427.75	479.1314592972	9.6622002468
427.89	479.1314592972	9.6622002468
428.18	479.1314592972	9.6622002468
428.32	479.6998240176	9.6622002468
428.45	479.9840063778	9.6622002468
428.59	479.9840063778	9.6622002468
428.72	479.9840063778	9.6622002468
428.85	479.6998240176	9.6622002468
428.99	479.6998240176	9.6622002468
429.12	479.4156416574	9.6622002468
429.26	479.4156416574	9.6622002468
429.56	479.6998240176	9.6622002468
429.69	479.6998240176	9.6622002468
429.83	480.268188738	9.6622002468
429.96	480.5523710982	9.6622002468
430.1	480.5523710982	9.6622002468
430.23	480.5523710982	9.6622002468
430.37	481.1207358186	9.6622002468
430.51	480.8365534584	9.6622002468
430.65	480.5523710982	9.6622002468
430.78	480.5523710982	9.6622002468
430.92	480.5523710982	9.6622002468
431.21	480.268188738	9.6622002468
431.35	480.268188738	9.6622002468
431.48	480.5523710982	9.6622002468
431.62	481.1207358186	9.6622002468
431.75	481.4049181788	9.6622002468
431.89	481.689100539	9.6622002468
432.02	481.1207358186	9.6622002468
432.16	481.1207358186	9.6622002468
432.29	480.8365534584	9.6622002468
432.59	481.1207358186	9.6622002468
432.72	481.1207358186	9.6622002468
432.86	481.1207358186	9.6622002468
432.99	481.1207358186	9.6622002468
433.13	481.1207358186	9.6622002468
433.27	481.1207358186	9.6622002468
433.4	481.1207358186	9.6622002468
433.54	481.4049181788	9.6622002468
433.67	482.8258299798	9.6622002468
433.81	484.2467417808	9.6622002468
433.95	483.9625594206	9.6622002468
434.24	482.5416476196	9.6622002468
434.37	482.5416476196	9.6622002468
434.51	483.11001234	9.6622002468
434.65	483.11001234	9.6622002468
434.78	482.8258299798	9.6622002468
434.92	482.5416476196	9.6622002468
435.05	482.5416476196	9.6622002468
435.19	482.2574652594	9.6622002468
435.32	482.2574652594	9.6622002468
435.62	482.8258299798	9.6622002468
435.76	483.11001234	9.6622002468
435.9	483.11001234	9.6622002468
436.03	483.3941947002	9.6622002468
436.17	483.3941947002	9.6622002468
436.3	483.11001234	9.6622002468
436.44	483.6783770604	9.6622002468
436.57	483.9625594206	9.6622002468
436.71	483.3941947002	9.6622002468
436.85	483.6783770604	9.6622002468
436.99	483.11001234	9.6622002468
437.29	483.6783770604	9.6622002468
437.42	483.9625594206	9.6622002468
437.56	484.530924141	9.6622002468
437.69	484.8151065012	9.6622002468
437.83	485.3834712216	9.6622002468
437.96	485.0992888614	9.6622002468
438.1	485.0992888614	9.6622002468
438.24	484.530924141	9.6622002468
438.37	483.9625594206	9.6622002468
438.67	484.530924141	9.6622002468
438.81	484.530924141	9.6622002468
438.94	484.8151065012	9.6622002468
439.08	485.0992888614	9.6622002468
439.21	484.8151065012	9.6622002468
439.35	484.8151065012	9.6622002468
439.49	484.8151065012	9.6622002468
439.62	485.3834712216	9.6622002468
439.76	485.951835942	9.6622002468
439.89	485.6676535818	9.6622002468
440.03	485.951835942	9.6622002468
440.32	485.0992888614	9.6622002468
440.46	484.8151065012	9.6622002468
440.6	484.8151065012	9.6622002468
440.73	484.8151065012	9.6622002468
440.87	484.8151065012	9.6622002468
441	484.8151065012	9.6622002468
441.14	485.0992888614	9.6622002468
441.28	484.8151065012	9.6622002468
441.41	484.530924141	9.6622002468
441.71	484.8151065012	9.6622002468
441.85	485.0992888614	9.6622002468
441.98	485.0992888614	9.6622002468
442.12	485.0992888614	9.6622002468
442.25	485.6676535818	9.6622002468
442.39	486.5202006624	9.6622002468
442.53	486.5202006624	9.6622002468
442.66	485.951835942	9.6622002468
442.8	485.951835942	9.6622002468
442.93	486.2360183022	9.6622002468
443.07	486.2360183022	9.6622002468
443.37	485.951835942	9.6622002468
443.51	485.951835942	9.6622002468
443.65	485.951835942	9.6622002468
443.78	485.951835942	9.6622002468
443.92	486.2360183022	9.6622002468
444.05	485.951835942	9.6622002468
444.19	486.2360183022	9.6622002468
444.32	485.951835942	9.6622002468
444.46	486.5202006624	9.6622002468
444.76	485.951835942	9.6622002468
444.9	485.951835942	9.6622002468
445.03	485.951835942	9.6622002468
445.17	486.2360183022	9.6622002468
445.3	486.8043830226	9.6622002468
445.44	486.5202006624	9.6622002468
445.58	487.372747743	9.6622002468
445.71	487.372747743	9.6622002468
445.85	486.8043830226	9.6622002468
445.99	487.0885653828	9.6622002468
446.12	486.5202006624	9.6622002468
446.42	487.0885653828	9.6622002468
446.55	487.0885653828	9.6622002468
446.69	487.0885653828	9.6622002468
446.83	487.372747743	9.6622002468
446.96	487.9411124634	9.6622002468
447.1	487.6569301032	9.6622002468
447.23	487.6569301032	9.6622002468
447.37	487.372747743	9.6622002468
447.51	487.0885653828	9.6622002468
447.81	489.0778419042	9.6622002468
447.94	489.6462066246	9.6622002468
448.08	489.3620242644	9.6622002468
448.22	488.5094771838	9.6622002468
448.35	488.2252948236	9.6622002468
448.49	487.9411124634	9.6622002468
448.62	487.9411124634	9.6622002468
448.76	488.2252948236	9.6622002468
448.9	487.9411124634	9.6622002468
449.03	487.6569301032	9.6622002468
449.17	487.9411124634	9.6622002468
449.46	487.9411124634	9.6622002468
449.6	487.9411124634	9.6622002468
449.74	488.793659544	9.6622002468
449.89	489.0778419042	9.6622002468
450.02	489.3620242644	9.6622002468
450.16	489.0778419042	9.6622002468
450.3	488.5094771838	9.6622002468
450.43	488.5094771838	9.6622002468
450.57	488.2252948236	9.6622002468
450.87	488.5094771838	9.6622002468
451	489.0778419042	9.6622002468
451.14	489.0778419042	9.6622002468
451.28	488.793659544	9.6622002468
451.41	488.5094771838	9.6622002468
451.55	488.5094771838	9.6622002468
451.69	488.5094771838	9.6622002468
451.82	489.0778419042	9.6622002468
451.96	489.3620242644	9.6622002468
452.1	489.3620242644	9.6622002468
452.23	489.0778419042	9.6622002468
452.53	489.0778419042	9.6622002468
452.67	488.793659544	9.6622002468
452.8	489.6462066246	9.6622002468
452.94	490.4987537052	9.946382607
453.07	491.0671184256	9.946382607
453.21	490.4987537052	9.946382607
453.35	490.214571345	9.946382607
453.48	489.9303889848	9.6622002468
453.62	489.6462066246	9.6622002468
453.92	489.6462066246	9.6622002468
454.06	489.9303889848	9.6622002468
454.2	489.9303889848	9.6622002468
454.33	489.9303889848	9.6622002468
454.47	489.6462066246	9.6622002468
454.61	489.6462066246	9.6622002468
454.74	489.9303889848	9.6622002468
454.88	489.9303889848	9.6622002468
455.02	489.9303889848	9.6622002468
455.15	489.9303889848	9.6622002468
455.29	489.9303889848	9.6622002468
455.59	490.4987537052	9.946382607
455.72	490.4987537052	9.946382607
455.86	490.214571345	9.946382607
456	490.4987537052	9.946382607
456.13	490.7829360654	9.946382607
456.28	490.7829360654	9.946382607
456.42	490.7829360654	9.946382607
456.56	490.7829360654	9.946382607
456.69	491.0671184256	9.946382607
457	491.3513007858	9.946382607
457.13	491.3513007858	9.946382607
457.27	491.3513007858	9.946382607
457.41	491.0671184256	9.946382607
457.54	491.0671184256	9.946382607
457.68	491.635483146	9.946382607
457.82	491.635483146	9.946382607
457.95	491.635483146	9.946382607
458.09	491.635483146	9.946382607
458.23	492.2038478664	9.946382607
458.37	492.4880302266	9.946382607
458.66	492.4880302266	9.946382607
458.8	492.2038478664	9.946382607
458.93	491.9196655062	9.946382607
459.07	491.9196655062	9.946382607
459.21	491.9196655062	9.946382607
459.35	492.2038478664	9.946382607
459.48	492.4880302266	9.946382607
459.62	492.7722125868	9.946382607
459.76	493.3405773072	9.946382607
460.06	492.4880302266	9.946382607
460.19	492.7722125868	9.946382607
460.33	494.1931243878	9.946382607
460.47	495.0456714684	9.946382607
460.6	494.7614891082	9.946382607
460.74	494.477306748	9.946382607
460.88	493.6247596674	9.946382607
461.01	493.056394947	9.946382607
461.15	492.7722125868	9.946382607
461.28	492.7722125868	9.946382607
461.42	493.056394947	9.946382607
461.72	493.3405773072	9.946382607
461.85	493.056394947	9.946382607
461.99	492.7722125868	9.946382607
462.12	493.056394947	9.946382607
462.26	493.056394947	9.946382607
462.4	492.7722125868	9.946382607
462.53	493.3405773072	9.946382607
462.67	493.056394947	9.946382607
462.82	493.056394947	9.946382607
463.12	493.3405773072	9.946382607
463.26	493.056394947	9.946382607
463.39	493.6247596674	9.946382607
463.53	493.3405773072	9.946382607
463.67	493.3405773072	9.946382607
463.81	493.6247596674	9.946382607
463.94	493.6247596674	9.946382607
464.08	493.6247596674	9.946382607
464.22	493.6247596674	9.946382607
464.35	494.477306748	9.946382607
464.49	495.3298538286	9.946382607
464.79	497.31913035	9.946382607
464.92	496.1824009092	9.946382607
465.06	495.3298538286	9.946382607
465.2	494.7614891082	9.946382607
465.34	494.477306748	9.946382607
465.47	495.0456714684	9.946382607
465.61	495.898218549	9.946382607
465.75	495.898218549	9.946382607
465.89	496.4665832694	9.946382607
466.19	494.7614891082	9.946382607
466.32	494.477306748	9.946382607
466.46	494.7614891082	9.946382607
466.59	495.0456714684	9.946382607
466.73	495.898218549	9.946382607
466.87	495.3298538286	9.946382607
467	495.3298538286	9.946382607
467.14	495.3298538286	9.946382607
467.28	495.0456714684	9.946382607
467.41	495.3298538286	9.946382607
467.55	495.0456714684	9.946382607
467.84	495.0456714684	9.946382607
467.98	495.3298538286	9.946382607
468.12	495.3298538286	9.946382607
468.25	495.898218549	9.946382607
468.39	495.898218549	9.946382607
468.52	495.6140361888	9.946382607
468.66	495.6140361888	9.946382607
468.8	495.3298538286	9.946382607
468.93	495.0456714684	9.946382607
469.25	495.3298538286	9.946382607
469.38	495.3298538286	9.946382607
469.52	495.3298538286	9.946382607
469.66	495.3298538286	9.946382607
469.79	495.6140361888	9.946382607
469.93	495.6140361888	9.946382607
470.07	495.6140361888	9.946382607
470.2	495.6140361888	9.946382607
470.34	496.1824009092	9.946382607
470.48	495.6140361888	9.946382607
470.61	495.898218549	9.946382607
470.91	495.898218549	9.946382607
471.04	496.1824009092	9.946382607
471.18	496.4665832694	9.946382607
471.32	496.4665832694	9.946382607
471.45	496.4665832694	9.946382607
471.59	496.4665832694	9.946382607
471.73	496.4665832694	9.946382607
471.87	496.1824009092	9.946382607
472	496.4665832694	9.946382607
472.3	496.4665832694	9.946382607
472.44	496.4665832694	9.946382607
472.58	496.4665832694	9.946382607
472.71	496.7507656296	9.946382607
472.85	496.7507656296	9.946382607
472.99	496.4665832694	9.946382607
473.12	496.4665832694	9.946382607
473.26	496.4665832694	9.946382607
473.4	496.4665832694	9.946382607
473.53	496.4665832694	9.946382607
473.67	497.0349479898	9.946382607
473.97	498.1716774306	9.946382607
474.1	497.6033127102	9.946382607
474.24	497.31913035	9.946382607
474.38	497.31913035	9.946382607
474.51	497.6033127102	9.946382607
474.65	497.31913035	9.946382607
474.79	497.0349479898	9.946382607
474.92	496.7507656296	9.946382607
475.06	496.7507656296	9.946382607
475.36	496.7507656296	9.946382607
475.5	497.0349479898	9.946382607
475.63	496.7507656296	9.946382607
475.78	497.0349479898	9.946382607
475.92	497.0349479898	9.946382607
476.06	497.0349479898	9.946382607
476.19	497.0349479898	9.946382607
476.33	497.0349479898	9.946382607
476.47	497.31913035	9.946382607
476.61	497.31913035	9.946382607
476.74	497.31913035	9.946382607
477.04	497.6033127102	9.946382607
477.18	497.31913035	9.946382607
477.31	497.6033127102	9.946382607
477.45	498.1716774306	9.946382607
477.59	497.8874950704	9.946382607
477.72	497.8874950704	9.946382607
477.86	497.8874950704	9.946382607
478	497.6033127102	9.946382607
478.13	497.6033127102	9.946382607
478.44	497.6033127102	9.946382607
478.57	497.6033127102	9.946382607
478.71	497.6033127102	9.946382607
478.85	497.6033127102	9.946382607
478.98	497.6033127102	9.946382607
479.12	497.8874950704	9.946382607
479.26	497.6033127102	9.946382607
479.39	497.6033127102	9.946382607
479.53	497.8874950704	9.946382607
479.67	497.8874950704	9.946382607
479.81	498.1716774306	9.946382607
480.1	498.1716774306	9.946382607
480.24	498.1716774306	9.946382607
480.38	497.8874950704	9.946382607
480.51	498.1716774306	9.946382607
480.65	498.1716774306	9.946382607
480.79	497.8874950704	9.946382607
480.92	498.1716774306	9.946382607
481.06	498.1716774306	9.946382607
481.2	498.1716774306	9.946382607
481.5	498.4558597908	9.946382607
481.64	498.740042151	9.946382607
481.78	499.3084068714	9.946382607
481.91	498.740042151	9.946382607
482.05	498.4558597908	9.946382607
482.2	498.4558597908	9.946382607
482.34	498.4558597908	9.946382607
482.47	498.4558597908	9.946382607
482.61	498.4558597908	9.946382607
482.75	498.4558597908	9.946382607
482.89	498.4558597908	9.946382607
483.19	498.4558597908	9.946382607
483.32	498.740042151	9.946382607
483.46	499.0242245112	9.946382607
483.6	499.0242245112	9.946382607
483.74	499.3084068714	9.946382607
483.87	499.3084068714	9.946382607
484.01	499.3084068714	9.946382607
484.15	500.160953952	9.946382607
484.29	500.160953952	9.946382607
484.59	499.5925892316	9.946382607
484.72	499.5925892316	9.946382607
484.86	499.3084068714	9.946382607
485	499.5925892316	9.946382607
485.14	499.8767715918	9.946382607
485.27	499.5925892316	9.946382607
485.41	499.8767715918	9.946382607
485.55	499.5925892316	9.946382607
485.69	500.160953952	9.946382607
485.83	500.4451363122	9.946382607
485.96	501.0135010326	9.946382607
486.26	500.7293186724	9.946382607
486.4	501.0135010326	9.946382607
486.53	501.0135010326	9.946382607
486.67	500.4451363122	9.946382607
486.81	500.160953952	9.946382607
486.95	500.160953952	9.946382607
487.08	500.4451363122	9.946382607
487.22	501.0135010326	9.946382607
487.36	500.7293186724	9.946382607
487.66	502.1502304734	9.946382607
487.8	501.581865753	9.946382607
487.94	501.2976833928	9.946382607
488.07	501.0135010326	9.946382607
488.21	501.0135010326	9.946382607
488.35	501.8660481132	9.946382607
488.48	501.2976833928	9.946382607
488.62	501.0135010326	9.946382607
488.77	500.7293186724	9.946382607
488.91	501.2976833928	9.946382607
489.05	501.581865753	9.946382607
489.34	501.0135010326	9.946382607
489.48	501.581865753	9.946382607
489.62	501.2976833928	9.946382607
489.75	501.8660481132	9.946382607
489.89	501.2976833928	9.946382607
490.03	501.0135010326	9.946382607
490.16	501.2976833928	9.946382607
490.3	501.8660481132	9.946382607
490.44	501.0135010326	9.946382607
490.74	500.7293186724	9.946382607
490.88	501.2976833928	9.946382607
491.02	501.0135010326	9.946382607
491.15	501.0135010326	9.946382607
491.29	501.0135010326	9.946382607
491.43	501.0135010326	9.946382607
491.56	500.7293186724	9.946382607
491.7	501.2976833928	9.946382607
491.84	501.581865753	9.946382607
491.98	501.2976833928	9.946382607
492.11	501.0135010326	9.946382607
492.41	501.2976833928	9.946382607
492.55	502.1502304734	9.946382607
492.69	501.8660481132	9.946382607
492.82	502.4344128336	9.946382607
492.96	502.7185951938	9.946382607
493.1	502.1502304734	9.946382607
493.23	501.8660481132	9.946382607
493.37	501.581865753	9.946382607
493.51	501.2976833928	9.946382607
493.81	501.2976833928	9.946382607
493.95	502.4344128336	9.946382607
494.09	503.2869599142	9.946382607
494.22	502.7185951938	9.946382607
494.36	502.7185951938	9.946382607
494.5	502.7185951938	9.946382607
494.64	502.7185951938	9.946382607
494.77	502.7185951938	9.946382607
494.91	502.7185951938	9.946382607
495.05	502.7185951938	9.946382607
495.2	503.2869599142	9.946382607
495.5	502.7185951938	9.946382607
495.63	502.4344128336	9.946382607
495.77	502.4344128336	9.946382607
495.91	502.4344128336	9.946382607
496.05	502.7185951938	9.946382607
496.18	503.8553246346	9.946382607
496.32	504.1395069948	9.946382607
496.46	504.1395069948	9.946382607
496.6	503.2869599142	9.946382607
496.9	505.5604187958	10.2305649672
497.04	506.1287835162	10.2305649672
497.17	506.1287835162	10.2305649672
497.31	504.9920540754	10.2305649672
497.45	504.423689355	10.2305649672
497.58	504.1395069948	9.946382607
497.72	503.5711422744	9.946382607
497.86	503.5711422744	9.946382607
498	503.5711422744	9.946382607
498.13	503.2869599142	9.946382607
498.27	503.8553246346	9.946382607
498.57	504.7078717152	10.2305649672
498.7	504.423689355	10.2305649672
498.84	505.844601156	10.2305649672
498.98	507.265512957	10.2305649672
499.11	506.9813305968	10.2305649672
499.25	505.844601156	10.2305649672
499.39	504.9920540754	10.2305649672
499.52	504.7078717152	10.2305649672
499.66	504.423689355	10.2305649672
499.96	504.1395069948	9.946382607
500.1	504.423689355	10.2305649672
500.24	504.423689355	10.2305649672
500.37	504.423689355	10.2305649672
500.51	504.7078717152	10.2305649672
500.65	505.5604187958	10.2305649672
500.79	506.1287835162	10.2305649672
500.92	506.4129658764	10.2305649672
501.06	506.1287835162	10.2305649672
501.2	506.4129658764	10.2305649672
501.34	506.6971482366	10.2305649672
501.63	505.844601156	10.2305649672
501.78	506.9813305968	10.2305649672
501.92	507.5496953172	10.2305649672
502.06	506.4129658764	10.2305649672
502.19	505.844601156	10.2305649672
502.33	505.5604187958	10.2305649672
502.47	505.2762364356	10.2305649672
502.61	504.9920540754	10.2305649672
502.74	505.2762364356	10.2305649672
503.05	505.2762364356	10.2305649672
503.18	504.9920540754	10.2305649672
503.32	505.2762364356	10.2305649672
503.46	505.2762364356	10.2305649672
503.59	505.2762364356	10.2305649672
503.73	505.844601156	10.2305649672
503.87	505.844601156	10.2305649672
504.01	505.844601156	10.2305649672
504.14	506.1287835162	10.2305649672
504.28	507.5496953172	10.2305649672
504.42	505.844601156	10.2305649672
504.71	505.844601156	10.2305649672
504.85	505.844601156	10.2305649672
504.99	506.1287835162	10.2305649672
505.13	506.4129658764	10.2305649672
505.26	506.6971482366	10.2305649672
505.4	506.4129658764	10.2305649672
505.54	506.9813305968	10.2305649672
505.68	506.9813305968	10.2305649672
505.81	505.844601156	10.2305649672
506.11	505.844601156	10.2305649672
506.25	506.1287835162	10.2305649672
506.39	507.8338776774	10.2305649672
506.53	507.265512957	10.2305649672
506.66	506.9813305968	10.2305649672
506.8	506.9813305968	10.2305649672
506.94	506.4129658764	10.2305649672
507.08	506.1287835162	10.2305649672
507.21	506.1287835162	10.2305649672
507.35	506.6971482366	10.2305649672
507.49	506.9813305968	10.2305649672
507.78	507.265512957	10.2305649672
507.92	508.1180600376	10.2305649672
508.06	508.1180600376	10.2305649672
508.21	508.1180600376	10.2305649672
508.35	507.265512957	10.2305649672
508.48	506.9813305968	10.2305649672
508.62	506.9813305968	10.2305649672
508.76	506.9813305968	10.2305649672
508.9	507.265512957	10.2305649672
509.2	506.6971482366	10.2305649672
509.33	506.9813305968	10.2305649672
509.47	507.8338776774	10.2305649672
509.61	508.686424758	10.2305649672
509.75	509.2547894784	10.2305649672
509.88	509.2547894784	10.2305649672
510.02	507.5496953172	10.2305649672
510.16	506.6971482366	10.2305649672
510.29	506.1287835162	10.2305649672
510.43	506.6971482366	10.2305649672
510.57	507.5496953172	10.2305649672
510.86	507.8338776774	10.2305649672
511	507.265512957	10.2305649672
511.14	506.6971482366	10.2305649672
511.28	506.4129658764	10.2305649672
511.41	505.844601156	10.2305649672
511.55	506.4129658764	10.2305649672
511.69	507.265512957	10.2305649672
511.83	506.9813305968	10.2305649672
511.96	506.4129658764	10.2305649672
512.26	506.6971482366	10.2305649672
512.4	507.265512957	10.2305649672
512.54	507.5496953172	10.2305649672
512.68	507.5496953172	10.2305649672
512.81	507.5496953172	10.2305649672
512.95	506.9813305968	10.2305649672
513.09	506.6971482366	10.2305649672
513.23	506.9813305968	10.2305649672
513.36	506.9813305968	10.2305649672
513.5	506.6971482366	10.2305649672
513.64	506.4129658764	10.2305649672
513.93	506.1287835162	10.2305649672
514.07	506.1287835162	10.2305649672
514.21	506.1287835162	10.2305649672
514.35	506.4129658764	10.2305649672
514.48	507.265512957	10.2305649672
514.62	507.8338776774	10.2305649672
514.77	507.8338776774	10.2305649672
514.91	507.265512957	10.2305649672
515.05	506.9813305968	10.2305649672
515.35	507.5496953172	10.2305649672
515.49	507.5496953172	10.2305649672
515.62	506.9813305968	10.2305649672
515.76	506.9813305968	10.2305649672
515.9	506.9813305968	10.2305649672
516.04	507.265512957	10.2305649672
516.18	507.265512957	10.2305649672
516.31	506.9813305968	10.2305649672
516.45	506.9813305968	10.2305649672
516.59	506.9813305968	10.2305649672
516.73	506.6971482366	10.2305649672
517.03	507.265512957	10.2305649672
517.16	506.9813305968	10.2305649672
517.3	507.265512957	10.2305649672
517.44	506.9813305968	10.2305649672
517.58	506.9813305968	10.2305649672
517.71	507.265512957	10.2305649672
517.85	506.9813305968	10.2305649672
517.99	506.9813305968	10.2305649672
518.13	507.265512957	10.2305649672
518.43	508.9706071182	10.2305649672
518.57	508.1180600376	10.2305649672
518.71	507.8338776774	10.2305649672
518.85	507.5496953172	10.2305649672
518.98	507.8338776774	10.2305649672
519.12	508.1180600376	10.2305649672
519.26	508.4022423978	10.2305649672
519.4	508.4022423978	10.2305649672
519.53	508.4022423978	10.2305649672
519.67	508.1180600376	10.2305649672
519.81	508.1180600376	10.2305649672
520.11	508.1180600376	10.2305649672
520.24	508.4022423978	10.2305649672
520.38	508.9706071182	10.2305649672
520.52	508.9706071182	10.2305649672
520.66	509.2547894784	10.2305649672
520.79	509.5389718386	10.2305649672
520.93	509.5389718386	10.2305649672
521.07	509.2547894784	10.2305649672
521.22	508.9706071182	10.2305649672
521.52	509.2547894784	10.2305649672
521.66	509.2547894784	10.2305649672
521.8	509.2547894784	10.2305649672
521.94	509.2547894784	10.2305649672
522.07	509.2547894784	10.2305649672
522.21	509.5389718386	10.2305649672
522.35	509.8231541988	10.2305649672
522.49	510.3915189192	10.2305649672
522.62	510.3915189192	10.2305649672
522.76	510.107336559	10.2305649672
522.9	510.107336559	10.2305649672
523.2	510.107336559	10.2305649672
523.33	509.8231541988	10.2305649672
523.47	509.8231541988	10.2305649672
523.61	509.8231541988	10.2305649672
523.75	509.8231541988	10.2305649672
523.88	510.107336559	10.2305649672
524.02	510.3915189192	10.2305649672
524.16	510.107336559	10.2305649672
524.3	509.8231541988	10.2305649672
524.6	509.8231541988	10.2305649672
524.74	510.107336559	10.2305649672
524.87	510.107336559	10.2305649672

System: 1-butyl-3-methylimidazolium hexafluorophosphate; phases: Crystal, Gas
Property: Molar heat capacity at saturation pressure, J/K/mol (Crystal); method: Small (less than 1 g) adiabatic calorimetry
Temperature, K	Molar heat capacity at saturation pressure, J/K/mol	uncertainty
5.13	1.065	0.033
5.41	1.231	0.036
5.67	1.405	0.038
5.97	1.625	0.042
6.29	1.927	0.046
6.6	2.264	0.051
6.91	2.566	0.055
7.23	2.994	0.06
7.58	3.435	0.066
7.92	3.848	0.072
8.28	4.395	0.079
8.66	4.99	0.0865
9.07	5.739	0.0956
9.49	6.479	0.1039
9.92	7.352	0.1139
10.35	8.195	0.1239
10.75	9.005	0.133
11.18	10.04	0.141
11.74	11.29	0.158
12.32	12.57	0.166
12.92	14.08	0.183
13.56	15.72	0.2
14.2	17.26	0.216
14.85	19.06	0.233
15.51	20.76	0.241
16.24	22.77	0.258
17	24.84	0.274
17.78	26.97	0.291
18.66	29.5	0.308
19.54	32.1	0.324
20.45	34.73	0.341
21.38	37.23	0.349
22.32	39.8	0.366
23.31	42.57	0.382
24.37	45.56	0.391
25.51	48.5	0.407
26.64	51.23	0.407
27.83	54.25	0.416
29.06	57.36	0.424
30.21	60.16	0.374
31.51	63.15	0.391
32.97	66.37	0.407
34.47	69.5	0.424
36.07	72.74	0.441
37.71	76.12	0.457
39.38	79.31	0.474
41.07	82.46	0.491
42.76	85.47	0.5
44.47	88.38	0.5
46.22	91.38	0.5
48	93.87	0.58
49.81	96.36	0.58
51.62	99.36	0.58
53.48	101.9	0.58
55.49	104.4	0.58
57.62	106.9	0.58
59.71	109.9	0.67
61.89	112.3	0.67
64.13	115.1	0.67
66.36	118.1	0.67
68.68	120.7	0.67
71.13	123.1	0.75
73.64	125.8	0.75
76.05	128.6	0.75
78.39	130.8	0.75
80.75	133.5	0.75
83.19	136	0.75
85.74	138.7	0.831
88.31	141.4	0.831
90.82	143.8	0.831
93.26	146.3	0.831
95.87	149.1	0.831
98.65	151.7	0.831
100.28	153.6	0.831
101.35	154.9	0.831
102.77	156.1	0.831
105.21	158.5	0.831
107.6	160.8	0.915
110.13	163.1	0.915
112.77	165.8	0.915
115.37	168.1	0.915
117.92	170.7	0.915
120.6	173.4	0.915
123.41	176.3	0.915
126.17	178.9	0.998
128.89	181.8	0.998
131.56	184.6	0.998
134.28	187.2	0.998
137.03	190.2	0.998
139.75	193	0.998
142.43	195.6	1.081
145.07	198.5	1.081
147.68	201.1	1.081
150.26	204.1	1.081
152.8	206.7	1.081
155.32	209.6	1.081
157.81	212.4	1.164
160.34	214.8	1.164
162.92	217.8	1.164
165.46	220.6	1.164
168.07	223.6	1.164
170.71	226.4	1.164
173.34	229.6	1.247
175.93	232.7	1.247
178.5	235.4	1.247
181.04	238.3	1.247
183.56	241.2	1.247
186.06	244.3	1.247
188.53	247.2	1.33
190.98	249.9	1.33
193.42	252.8	1.33
194.81	254.5	1.33
197.49	257.7	1.33
200.29	260.8	1.33
203.07	264.4	1.413
205.82	267.4	1.413
208.72	270.5	1.413
211.76	274.3	1.413
214.78	277.7	1.413
217.77	280.9	1.497
220.73	284.4	1.497
223.67	287.4	1.497
226.59	290.7	1.497
229.55	293.6	1.497
232.58	297.2	1.58
235.59	300.4	1.58
238.56	303.6	1.58
241.58	307.1	1.58
244.65	310.8	1.58
247.69	313.5	1.663
250.71	316.9	1.663
253.7	320.9	1.663
256.67	323.9	1.663
259.68	327.4	1.663
262.73	331.8	1.746
265.76	335.3	1.746
268.75	342	1.746

System: 1-butyl-3-methylimidazolium hexafluorophosphate; phases: Liquid, Gas
Property: Molar heat capacity at saturation pressure, J/K/mol (Liquid); method: Small (less than 1 g) adiabatic calorimetry
Temperature, K	Molar heat capacity at saturation pressure, J/K/mol	uncertainty
196.8	355.5	1.829
199.36	356.4	1.829
201.91	357.9	1.829
204.58	359.1	1.829
207.37	360.1	1.829
210.22	361.4	1.829
213.13	363.4	1.829
238.61	375.5	1.912
240.98	376.4	1.912
243.49	377.7	1.912
246	379.1	1.912
248.49	379.9	1.912
250.97	381.9	1.995
253.43	382.8	1.995
256.03	384.1	1.995
258.86	386	1.995
261.82	387.4	1.995
264.77	388.5	1.995
267.7	390.6	1.995
270.75	392.9	1.995
273.92	394.4	1.995
277.07	396.2	1.995
279.27	397.3	1.995
280.22	397.8	1.995
282.28	399.3	2.079
285.27	401.1	2.079
288.25	402.9	2.079
290.53	404.3	2.079
291.29	404.5	2.079
293.21	406.2	2.079
294.38	406.7	2.079
296.25	407.3	2.079
297.45	409	2.079
299.28	409.7	2.079
300.51	409.8	2.079
302.31	411.6	2.079
303.56	411.8	2.079
305.32	412.9	2.079
306.66	414	2.079
308.31	414.6	2.079
309.81	416	2.162
311.31	416.3	2.162

System: 1-butyl-3-methylimidazolium hexafluorophosphate; phases: Glass, Gas
Property: Molar heat capacity at saturation pressure, J/K/mol (Glass); method: Small (less than 1 g) adiabatic calorimetry
Temperature, K	Molar heat capacity at saturation pressure, J/K/mol	uncertainty
5.09	2.049	0.05
5.36	2.336	0.054
5.59	2.627	0.058
5.85	2.997	0.062
6.14	3.411	0.069
6.47	3.839	0.074
6.82	4.454	0.081
7.15	4.943	0.089
7.49	5.596	0.0964
7.84	6.275	0.1048
8.21	6.958	0.1131
8.61	7.772	0.1231
9	8.63	0.133
9.41	9.587	0.141
9.82	10.46	0.15
10.27	11.64	0.166
10.76	12.74	0.175
11.23	14.01	0.191
11.74	15.2	0.2
12.29	16.65	0.216
12.81	18.03	0.233
13.36	19.55	0.241
13.99	21.2	0.258
14.65	23.01	0.274
15.35	24.94	0.291
16.07	26.85	0.299
16.81	28.88	0.316
17.63	31.14	0.333
18.5	33.53	0.349
19.36	35.93	0.358
20.17	38.13	0.374
21.05	40.62	0.391
22.07	43.51	0.399
23.08	46.05	0.416
24.15	49.07	0.424
25.25	51.82	0.432
26.28	54.6	0.441
27.38	57.25	0.449
28.63	60.1	0.449
29.99	63.37	0.457
31.43	66.52	0.407
32.95	70.07	0.424
34.52	73.45	0.441
36.17	76.76	0.457
37.88	79.79	0.474
39.66	83.48	0.5
41.55	86.89	0.5
43.54	90.3	0.5
45.53	93.29	0.58
47.48	96.53	0.58
49.44	99.69	0.58
51.38	102.7	0.58
53.34	105.7	0.58
55.43	108.8	0.67
57.6	111.9	0.67
59.75	114.9	0.67
61.89	117.8	0.67
64.01	121.6	0.67
66.11	123.9	0.75
68.19	127.2	0.75
70.41	130	0.75
72.69	132.8	0.75
75.03	135.6	0.75
77.42	138.4	0.75
79.89	142.1	0.831
82.45	144.5	0.831
84.93	147.7	0.831
87.39	150.3	0.831
89.83	153.7	0.831
92.25	157.1	0.831
95.42	160.5	0.915
97.92	163.5	0.915
100.38	166.5	0.915
100.78	167.5	0.915
103.17	170	0.915
105.51	172.9	0.915
107.81	175.4	0.915
110.06	177.9	0.998
112.28	180.3	0.998
114.54	183.2	0.998
116.84	185.7	0.998
119.11	188.2	0.998
121.35	190.5	0.998
123.71	193.2	0.998
126.2	195.8	1.081
128.66	198.4	1.081
131.16	201.3	1.081
133.7	204.1	1.081
136.2	207.1	1.081
138.67	209.8	1.081
141.19	212.4	1.164
143.75	215.3	1.164
146.28	217.9	1.164
148.93	220.9	1.164
151.7	224.2	1.164
154.44	226.9	1.164
157.14	230.1	1.247
159.81	233.2	1.247
162.53	236.6	1.247
165.29	239.8	1.247
168.02	243.1	1.247
170.72	246.4	1.33
173.39	249.7	1.33
176.04	253	1.33
177.26	254.8	1.33
180.15	258.7	1.33
183.09	263.9	1.413
186.06	273	1.413
188.97	285	1.497
191.7	322.8	1.663
194.24	351	1.829

System: 1-butyl-3-methylimidazolium hexafluorophosphate; phases: Crystal, Gas
Property: Molar heat capacity at saturation pressure, J/K/mol (Crystal); method: Small (less than 1 g) adiabatic calorimetry
Temperature, K	Molar heat capacity at saturation pressure, J/K/mol	uncertainty
5	1.007	0.046
10	7.487	0.1447
15	19.41	0.299
20	33.34	0.424
25	47.15	0.491
30	59.6	0.399
35	70.66	0.457
40	80.48	0.507
45	89.21	0.58
50	96.95	0.58
60	110.2	0.67
70	122	0.75
80	132.7	0.75
90	142.9	0.75
100	153.2	0.831
110	163.1	0.831
120	172.9	0.915
130	182.8	0.915
140	193.1	0.998
150	203.7	0.998
160	214.6	1.081
170	225.7	1.081
180	237.2	1.164
190	248.8	1.164
200	260.7	1.247
210	272.2	1.33
220	283.4	1.33
230	294.2	1.413
240	305.2	1.413
250	316.7	1.497
260	328.2	1.497
270	339.6	1.58
280	351	1.58
283.51	355.1	1.58

System: 1-butyl-3-methylimidazolium hexafluorophosphate; phases: Liquid, Gas
Property: Molar heat capacity at saturation pressure, J/K/mol (Liquid); method: Small (less than 1 g) adiabatic calorimetry
Temperature, K	Molar heat capacity at saturation pressure, J/K/mol	uncertainty
190.6	352.9	1.58
200	356.9	1.663
210	361.4	1.663
220	366.1	1.663
230	370.9	1.663
240	376	1.746
250	381.1	1.746
260	386.5	1.746
270	392.1	1.746
280	397.8	1.829
283.51	399.8	1.829
290	403.8	1.829
298.15	408.7	1.829
300	409.8	1.829
310	415.9	1.829
320	422.3	4.99
340	434.7	8.7302
360	446.2	8.8965
380	457	9.1459
400	466.9	9.3122
420	476	9.5616
440	484.3	9.7279
460	491.8	9.8111
480	498.5	9.9774
500	504.4	10.061
520	509.5	10.227
540	513.8	10.31
550	515.6	10.31

System: 1-butyl-3-methylimidazolium hexafluorophosphate; phases: Glass, Gas
Property: Molar heat capacity at saturation pressure, J/K/mol (Glass); method: Small (less than 1 g) adiabatic calorimetry
Temperature, K	Molar heat capacity at saturation pressure, J/K/mol	uncertainty
5	1.946	0.066
10	10.93	0.2
15	23.95	0.358
20	37.71	0.474
25	51.23	0.532
30	63.41	0.416
35	74.31	0.474
40	83.89	0.5
45	92.46	0.58
50	100.6	0.58
60	115.6	0.67
70	129.2	0.75
80	141.8	0.831
90	154.1	0.831
100	166	0.831
110	177.9	0.915
120	189.1	0.998
130	200	0.998
140	211	1.081
150	222.2	1.081
160	233.6	1.164
170	245.7	1.164
180	258.1	1.247
190	270.5	1.247
190.6	271.2	1.247

System: 1-butyl-3-methylimidazolium hexafluorophosphate; phases: Crystal
Fixed: Pressure, kPa = 101.325
Property: Molar enthalpy function {Hm(T)-Hm(0)}/T, J/K/mol (Crystal); method: Small (less than 1 g) adiabatic calorimetry
Temperature, K	Molar enthalpy function {Hm(T)-Hm(0)}/T, J/K/mol	uncertainty
5	0.246	0.0254
10	1.93	0.052
15	5.681	0.1014
20	10.83	0.15
25	16.74	0.191
30	22.86	0.216
35	28.92	0.249
40	34.76	0.274
45	40.33	0.299
50	45.61	0.333
60	55.3	0.374
70	64	0.424
80	71.92	0.457
90	79.25	0.515
100	86.14	0.58
110	92.71	0.58
120	98.94	0.58
130	105	0.58
140	110.9	0.67
150	116.8	0.67
160	122.6	0.67
170	128.3	0.75
180	134	0.75
190	139.8	0.75
200	145.5	0.75
210	151.2	0.831
220	157.1	0.831
230	162.8	0.831
240	168.5	0.915
250	174.2	0.915
260	179.8	0.915
270	185.6	0.915
280	191.3	0.998
283.51	193.3	0.998

System: 1-butyl-3-methylimidazolium hexafluorophosphate; phases: Liquid
Fixed: Pressure, kPa = 101.325
Property: Molar enthalpy function {Hm(T)-Hm(0)}/T, J/K/mol (Liquid); method: Small (less than 1 g) adiabatic calorimetry
Temperature, K	Molar enthalpy function {Hm(T)-Hm(0)}/T, J/K/mol	uncertainty
190.6	189.2	0.998
200	198.7	0.998
210	208.2	0.998
220	216.9	1.081
230	225.2	1.081
240	232.9	1.164
250	240.2	1.164
260	247.2	1.164
270	253.8	1.247
280	260.2	1.247
283.51	262.4	1.247
290	265.6	1.247
298.15	269.4	1.247
300	270.2	1.247
310	274.9	1.33
320	279.4	1.33
340	288.1	1.33
360	296.6	1.413
380	304.7	1.413
400	312.6	1.413
420	320.2	1.497
440	327.4	1.497
460	334.4	1.58
480	341.1	1.58
500	347.5	1.58
520	353.7	1.58
540	359.5	1.663
550	362.3	1.663

System: 1-butyl-3-methylimidazolium hexafluorophosphate; phases: Crystal
Fixed: Pressure, kPa = 101.325
Property: Molar entropy, J/K/mol (Crystal); method: Small (less than 1 g) adiabatic calorimetry
Temperature, K	Molar entropy, J/K/mol	uncertainty
5	0.325	0.0398
10	2.578	0.0931
15	7.76	0.1946
20	15.23	0.308
25	24.17	0.391
30	33.89	0.407
35	43.93	0.482
40	54.02	0.557
45	64	0.632
50	73.81	0.707
60	92.71	0.831
70	110.6	0.998
80	127.5	1.081
90	143.8	1.164
100	159.4	1.247
110	174.4	1.33
120	189.1	1.413
130	203.3	1.497
140	217.3	1.58
150	230.9	1.663
160	244.4	1.746
170	257.7	1.829
180	271	1.912
190	284.1	1.995
200	297.2	2.079
210	310.2	2.162
220	323.1	2.245
230	335.9	2.328
240	348.7	2.411
250	361.3	2.494
260	374	2.577
270	386.6	2.661
280	399.2	2.661
283.51	403.6	2.744

System: 1-butyl-3-methylimidazolium hexafluorophosphate; phases: Liquid
Fixed: Pressure, kPa = 101.325
Property: Molar entropy, J/K/mol (Liquid); method: Small (less than 1 g) adiabatic calorimetry
Temperature, K	Molar entropy, J/K/mol	uncertainty
190.6	324.4	2.245
200	341.5	2.328
210	359	2.494
220	375.9	2.577
230	392.3	2.661
240	408.2	2.744
250	423.6	2.827
260	438.7	2.91
270	453.4	2.993
280	467.8	3.076
283.51	472.7	3.159
290	481.8	3.159
298.15	493	3.243
300	495.6	3.243
310	509.1	3.326
320	522.5	3.409
340	548.4	3.575
360	573.6	3.742
380	598	3.908
400	621.7	3.991
420	644.7	4.157
440	667.1	4.324
460	688.8	4.407
480	709.8	4.573
500	730.3	4.656
520	750.2	4.822
540	769.5	4.906
550	778.9	4.989

System: 1-butyl-3-methylimidazolium hexafluorophosphate; phases: Liquid
Fixed: Pressure, kPa = 101.325
Property: Mass density, kg/m3 (Liquid); method: Pycnometric method
Temperature, K	Mass density, kg/m3	uncertainty
298.23	1365.95	0.55
302.89	1362.05	0.56
307.9	1357.94	0.57
312.67	1353.99	0.58
317.58	1349.92	0.59
322.33	1346.02	0.61
327.16	1342.02	0.62
344.23	1328.03	0.65
348.93	1324.35	0.67
353.47	1320.69	0.68
