Measured thermophysical data. Thermodynamic Functions for Transfer of Anthracene from Water to (Water + Alcohol) Mixtures at 298.15K
Source: J. Chem. Eng. Data, 2003, 10.1021/je034016r
Compound 1: anthracene, C14H10, InChI=1S/C14H10/c1-2-6-12-10-14-8-4-3-7-13(14)9-11(12)5-1/h1-10H, purity 99.5%
Compound 2: water, H2O, InChI=1S/H2O/h1H2
Compound 3: ethanol, C2H6O, InChI=1S/C2H6O/c1-2-3/h3H,2H2,1H3, purity 99.5%
Compound 4: 2-methylpropan-2-ol, C4H10O, InChI=1S/C4H10O/c1-4(2,3)5/h5H,1-3H3, purity 99.5%

System: anthracene + water; phases: Liquid, Crystal
Fixed: Pressure, kPa = 101
Property: Amount concentration (molarity), mol/dm3 of anthracene (Liquid); method: OTHER
Temperature, K	Amount concentration (molarity), mol/dm3 of anthracene	uncertainty
298.15	2.834e-07	2.83e-08
303.15	3.868e-07	3.87e-08
308.15	4.86e-07	4.86e-08
313.15	5.915e-07	5.92e-08

System: ethanol + anthracene + water; phases: Liquid, Crystal
Fixed: Pressure, kPa = 101
Property: Amount concentration (molarity), mol/dm3 of anthracene (Liquid); method: OTHER
Temperature, K	Solvent: Mole fraction of ethanol	Amount concentration (molarity), mol/dm3 of anthracene	uncertainty
298.15	0	2.834e-07	2.83e-08
298.15	0.01	4.35e-07	4.35e-08
298.15	0.02	5.404e-07	5.4e-08
298.15	0.03	6.255e-07	6.26e-08
298.15	0.04	8.247e-07	8.25e-08
298.15	0.045	9.369e-07	9.37e-08
298.15	0.05	1.037e-06	1.04e-07
298.15	0.06	1.248e-06	1.25e-07
298.15	0.08	1.815e-06	1.82e-07
298.15	0.1	4.221e-06	4.22e-07
298.15	0.15	2.535e-05	2.54e-06
298.15	0.2	7.34e-05	7.34e-06
298.15	0.3	0.0003758	3.76e-05
298.15	0.4	0.0009517	9.52e-05
298.15	0.6	0.002729	0.000273
298.15	0.8	0.004984	0.000498
303.15	0	3.868e-07	3.87e-08
303.15	0.01	5.863e-07	5.86e-08
303.15	0.02	7.53e-07	7.53e-08
303.15	0.03	8.8e-07	8.8e-08
303.15	0.04	1.142e-06	1.14e-07
303.15	0.045	1.296e-06	1.3e-07
303.15	0.05	1.445e-06	1.45e-07
303.15	0.06	1.767e-06	1.77e-07
303.15	0.08	3.22e-06	3.22e-07
303.15	0.1	6.771e-06	6.77e-07
303.15	0.15	3.919e-05	3.92e-06
303.15	0.2	0.0001257	1.26e-05
303.15	0.3	0.0006607	6.61e-05
303.15	0.4	0.001423	0.000142
303.15	0.6	0.003512	0.000351
303.15	0.8	0.005919	0.000592
308.15	0	4.86e-07	4.86e-08
308.15	0.01	7.737e-07	7.74e-08
308.15	0.02	9.55e-07	9.55e-08
308.15	0.03	1.126e-06	1.13e-07
308.15	0.04	1.475e-06	1.48e-07
308.15	0.045	1.725e-06	1.73e-07
308.15	0.05	1.951e-06	1.95e-07
308.15	0.06	2.64e-06	2.64e-07
308.15	0.08	4.546e-06	4.55e-07
308.15	0.1	1.057e-05	1.06e-06
308.15	0.15	5.012e-05	5.01e-06
308.15	0.2	0.0001727	1.73e-05
308.15	0.3	0.0008511	8.51e-05
308.15	0.4	0.001702	0.00017
308.15	0.6	0.004126	0.000413
308.15	0.8	0.007073	0.000707
313.15	0	5.915e-07	5.92e-08
313.15	0.01	9.517e-07	9.52e-08
313.15	0.02	1.227e-06	1.23e-07
313.15	0.03	1.487e-06	1.49e-07
313.15	0.04	1.898e-06	1.9e-07
313.15	0.045	2.255e-06	2.26e-07
313.15	0.05	2.599e-06	2.6e-07
313.15	0.06	3.413e-06	3.41e-07
313.15	0.08	5.795e-06	5.8e-07
313.15	0.1	1.331e-05	1.33e-06
313.15	0.15	5.754e-05	5.75e-06
313.15	0.2	0.0001959	1.96e-05
313.15	0.3	0.0009661	9.66e-05
313.15	0.4	0.002026	0.000203
313.15	0.6	0.005137	0.000514
313.15	0.8	0.008363	0.000836

System: 2-methylpropan-2-ol + anthracene + water; phases: Liquid, Crystal
Fixed: Pressure, kPa = 101
Property: Amount concentration (molarity), mol/dm3 of anthracene (Liquid); method: qqq
Temperature, K	Solvent: Mole fraction of 2-methylpropan-2-ol	Amount concentration (molarity), mol/dm3 of anthracene	uncertainty
298.15	0	2.834e-07	5.67e-08
298.15	0.01	4.377e-07	8.75e-08
298.15	0.02	6.455e-07	1.291e-07
298.15	0.03	8.642e-07	1.728e-07
298.15	0.04	2.04e-06	4.08e-07
298.15	0.045	3.501e-06	7e-07
298.15	0.05	6.147e-06	1.229e-06
298.15	0.06	1.652e-05	3.3e-06
298.15	0.08	7.461e-05	1.492e-05
298.15	0.1	0.0001657	3.31e-05
298.15	0.15	0.0004431	8.86e-05
298.15	0.2	0.0007514	0.0001503
298.15	0.3	0.001347	0.000269
298.15	0.4	0.001901	0.00038
298.15	0.6	0.002891	0.000578
298.15	0.8	0.003577	0.000715
303.15	0	3.868e-07	7.74e-08
303.15	0.01	5.985e-07	1.197e-07
303.15	0.02	8.899e-07	1.78e-07
303.15	0.03	1.262e-06	2.52e-07
303.15	0.04	2.986e-06	5.97e-07
303.15	0.045	5.127e-06	1.025e-06
303.15	0.05	1.062e-05	2.12e-06
303.15	0.06	2.586e-05	5.17e-06
303.15	0.08	0.0001032	2.06e-05
303.15	0.1	0.0002193	4.39e-05
303.15	0.15	0.0005784	0.0001157
303.15	0.2	0.0009794	0.0001959
303.15	0.3	0.001777	0.000355
303.15	0.4	0.002536	0.000507
303.15	0.6	0.003866	0.000773
303.15	0.8	0.004889	0.000978
308.15	0	4.86e-07	9.72e-08
308.15	0.01	7.764e-07	1.553e-07
308.15	0.02	1.211e-06	2.42e-07
308.15	0.03	1.97e-06	3.94e-07
308.15	0.04	4.542e-06	9.08e-07
308.15	0.045	7.561e-06	1.512e-06
308.15	0.05	1.546e-05	3.09e-06
308.15	0.06	3.912e-05	7.82e-06
308.15	0.08	0.000137	2.74e-05
308.15	0.1	0.0003059	6.12e-05
308.15	0.15	0.0007759	0.0001552
308.15	0.2	0.001259	0.000252
308.15	0.3	0.00225	0.00045
308.15	0.4	0.003224	0.000645
308.15	0.6	0.004943	0.000989
308.15	0.8	0.006354	0.001271
313.15	0	5.915e-07	1.183e-07
313.15	0.01	9.694e-07	1.939e-07
313.15	0.02	1.518e-06	3.04e-07
313.15	0.03	3.002e-06	6e-07
313.15	0.04	6.505e-06	1.301e-06
313.15	0.045	9.791e-06	1.958e-06
313.15	0.05	2.171e-05	4.34e-06
313.15	0.06	5.027e-05	1.005e-05
313.15	0.08	0.0001719	3.44e-05
313.15	0.1	0.0003722	7.44e-05
313.15	0.15	0.001028	0.000206
313.15	0.2	0.001764	0.000353
313.15	0.3	0.00307	0.000614
313.15	0.4	0.004174	0.000835
313.15	0.6	0.006064	0.001213
313.15	0.8	0.007784	0.001557
