Measured thermophysical data. Isothermal Vapor-Liquid Equilibrium and Excess Enthalpy Data for the Binary Systems Water + 1,2-Ethanediol and Propene + Acetophenone
Source: J. Chem. Eng. Data, 2004, 10.1021/je0342522
Compound 1: water, H2O, InChI=1S/H2O/h1H2
Compound 2: 1,2-ethanediol, C2H6O2, InChI=1S/C2H6O2/c3-1-2-4/h3-4H,1-2H2
Compound 3: propene, C3H6, InChI=1S/C3H6/c1-3-2/h3H,1H2,2H3, purity 99.5%
Compound 4: acetophenone, C8H8O, InChI=1S/C8H8O/c1-7(9)8-5-3-2-4-6-8/h2-6H,1H3

System: water; phases: Liquid, Gas
Property: Vapor or sublimation pressure, kPa (Liquid); method: CCELL:UFactor:2
Temperature, K	Vapor or sublimation pressure, kPa	uncertainty
333.15	19.93	0.17
353.15	47.44	0.35

System: 1,2-ethanediol; phases: Liquid, Gas
Property: Vapor or sublimation pressure, kPa (Liquid); method: CCELL:UFactor:2
Temperature, K	Vapor or sublimation pressure, kPa	uncertainty
333.15	0.22	0.04
353.15	0.77	0.05

System: propene; phases: Liquid, Gas
Property: Vapor or sublimation pressure, kPa (Liquid); method: CCELL:UFactor:2
Temperature, K	Vapor or sublimation pressure, kPa	uncertainty
323.27	2058.9	14.4

System: acetophenone; phases: Liquid, Gas
Property: Vapor or sublimation pressure, kPa (Liquid); method: CCELL:UFactor:2
Temperature, K	Vapor or sublimation pressure, kPa	uncertainty
323.27	0.34	0.042

System: 1,2-ethanediol + water; phases: Liquid, Gas
Fixed: Temperature, K = 333.15
Property: Vapor or sublimation pressure, kPa (Liquid); method: CCELL:UFactor:2
Mole fraction of water	Vapor or sublimation pressure, kPa	uncertainty
0	0.22	0.04
0.00327	0.28	0.04
0.00949	0.39	0.04
0.01634	0.51	0.04
0.02723	0.71	0.05
0.04142	0.96	0.05
0.0634	1.35	0.05
0.09276	1.87	0.06
0.13218	2.58	0.06
0.17827	3.43	0.06
0.23101	4.42	0.07
0.28891	5.52	0.07
0.34875	6.69	0.08
0.41455	7.99	0.09
0.47769	9.27	0.09
0.53779	10.49	0.1
0.59256	11.61	0.11
0.64202	12.64	0.12
0.68626	13.55	0.12
0.72541	14.37	0.13
0.75942	15.09	0.13
0.7892	15.72	0.14
0.78979	15.81	0.14
0.82005	16.42	0.14
0.84816	16.99	0.15
0.87391	17.5	0.15
0.89719	17.94	0.15
0.918	18.38	0.16
0.93601	18.74	0.16
0.95154	19.04	0.16
0.96334	19.22	0.16
0.97303	19.43	0.16
0.98075	19.58	0.16
0.98667	19.7	0.16
0.99114	19.78	0.16
0.99405	19.83	0.17
0.99597	19.87	0.17
0.9974	19.92	0.17
0.99841	19.89	0.17
0.99915	19.88	0.17
0.99968	19.92	0.17
1	19.93	0.17

System: 1,2-ethanediol + water; phases: Liquid, Gas
Fixed: Temperature, K = 353.15
Property: Vapor or sublimation pressure, kPa (Liquid); method: CCELL:UFactor:2
Mole fraction of water	Vapor or sublimation pressure, kPa	uncertainty
0	0.77	0.05
0.00589	1.02	0.05
0.01148	1.28	0.06
0.02172	1.72	0.06
0.03311	2.22	0.06
0.04538	2.76	0.06
0.06678	3.7	0.07
0.09633	4.99	0.07
0.13585	6.71	0.08
0.18162	8.76	0.09
0.2346	11.15	0.11
0.29193	13.81	0.12
0.35156	16.6	0.14
0.41702	19.7	0.16
0.4797	22.7	0.19
0.53926	25.58	0.2
0.59356	28.22	0.22
0.64277	30.61	0.24
0.6868	32.75	0.25
0.72475	34.59	0.27
0.72575	34.65	0.27
0.75803	36.16	0.28
0.78978	37.66	0.29
0.82003	39.1	0.3
0.84811	40.4	0.31
0.87384	41.61	0.31
0.89707	42.69	0.32
0.91785	43.67	0.33
0.93584	44.5	0.33
0.95131	45.15	0.34
0.9631	45.72	0.34
0.97277	46.2	0.35
0.98043	46.56	0.35
0.98625	46.78	0.35
0.99085	47.02	0.35
0.99381	47.16	0.35
0.99579	47.26	0.35
0.99725	47.32	0.35
0.99816	47.36	0.35
0.99908	47.4	0.35
0.99965	47.41	0.35
1	47.44	0.35

System: acetophenone + propene; phases: Liquid
Fixed: Temperature, K = 323.15
Fixed: Pressure, kPa = 4100
Property: Excess molar enthalpy (molar enthalpy of mixing), kJ/mol (Liquid); method: Flow calorimetry
Mole fraction of propene	Excess molar enthalpy (molar enthalpy of mixing), kJ/mol	uncertainty
0.0702	0.054	0.002
0.1375	0.105	0.003
0.202	0.148	0.003
0.264	0.188	0.004
0.3235	0.213	0.005
0.4086	0.24	0.005
0.4889	0.25	0.006
0.5893	0.246	0.006
0.6828	0.218	0.005
0.7487	0.184	0.004
0.8115	0.142	0.003
0.8516	0.113	0.003
0.8905	0.082	0.002
0.9281	0.052	0.002
0.9646	0.025	0.001

System: acetophenone + propene; phases: Liquid, Gas
Fixed: Temperature, K = 323.27
Property: Vapor or sublimation pressure, kPa (Liquid); method: CCELL:UFactor:2
Mole fraction of propene	Vapor or sublimation pressure, kPa	uncertainty
0	0.34	0.042
0.00016	1.031	0.693
0.00108	4.955	0.858
0.0059	25.817	0.891
0.01323	57.583	0.961
0.0292	125.85	1.24
0.06196	261.43	2.03
0.09018	374.13	2.77
0.11367	465.38	3.38
0.14252	573.23	4.11
0.20909	806.01	5.72
0.26572	985.15	6.95
0.32818	1160.8	8.2
0.39108	1314.8	9.2
0.44197	1420.3	10
0.49066	1507.9	10.6
0.5267	1563.2	11
0.56396	1613.2	11.3
0.57348	1624	11.4
0.59425	1648.1	11.5
0.59453	1647.6	11.5
0.61851	1672.5	11.7
0.64818	1700.3	11.9
0.68356	1728.9	12.1
0.70576	1745.6	12.2
0.74653	1773.2	12.4
0.79292	1802.8	12.6
0.83818	1832.4	12.8
0.88269	1866.5	13
0.922	1906.4	13.3
0.95377	1951.4	13.6
0.97487	1992.2	13.9
0.99059	2030.9	14.2
0.99767	2051.8	14.3
0.9993	2056.2	14.3
0.99987	2058.1	14.4
1	2058.9	14.4
