Measured thermophysical data. Vapor Liquid Equilibrium for the Trans-2-Butene + Methanol, + Ethanol, + 2-Propanol, + 2-Butanol and + 2-Methyl-2-Propanol Systems at 332 K
Source: J. Chem. Eng. Data, 2004, 10.1021/je0341256
Compound 1: (E)-2-butene, C4H8, InChI=1S/C4H8/c1-3-4-2/h3-4H,1-2H3/b4-3+, purity 99.4%
Compound 2: methanol, CH4O, InChI=1S/CH4O/c1-2/h2H,1H3, purity 99.8%
Compound 3: ethanol, C2H6O, InChI=1S/C2H6O/c1-2-3/h3H,2H2,1H3, purity 99.5%
Compound 4: propan-2-ol, C3H8O, InChI=1S/C3H8O/c1-3(2)4/h3-4H,1-2H3, purity 99.8%
Compound 5: butan-2-ol, C4H10O, InChI=1S/C4H10O/c1-3-4(2)5/h4-5H,3H2,1-2H3, purity 99.8%
Compound 6: 2-methylpropan-2-ol, C4H10O, InChI=1S/C4H10O/c1-4(2,3)5/h5H,1-3H3, purity 99.7%

System: (E)-2-butene; phases: Liquid, Gas
Property: Vapor or sublimation pressure, kPa (Liquid); method: Closed cell (Static) method
Temperature, K	Vapor or sublimation pressure, kPa	uncertainty
332.04	605.54	2.08
332.06	605.74	2.08
332.07	606.94	2.09
332.08	606.44	2.09
332.08	606.14	2.08

System: methanol; phases: Liquid, Gas
Property: Vapor or sublimation pressure, kPa (Liquid); method: Closed cell (Static) method
Temperature, K	Vapor or sublimation pressure, kPa	uncertainty
332.08	80.97	0.48

System: ethanol; phases: Liquid, Gas
Property: Vapor or sublimation pressure, kPa (Liquid); method: Closed cell (Static) method
Temperature, K	Vapor or sublimation pressure, kPa	uncertainty
332.06	44.67	0.43

System: propan-2-ol; phases: Liquid, Gas
Property: Vapor or sublimation pressure, kPa (Liquid); method: Closed cell (Static) method
Temperature, K	Vapor or sublimation pressure, kPa	uncertainty
332.03	36.47	0.42

System: butan-2-ol; phases: Liquid, Gas
Property: Vapor or sublimation pressure, kPa (Liquid); method: Closed cell (Static) method
Temperature, K	Vapor or sublimation pressure, kPa	uncertainty
332.08	17.27	0.4

System: 2-methylpropan-2-ol; phases: Liquid, Gas
Property: Vapor or sublimation pressure, kPa (Liquid); method: Closed cell (Static) method
Temperature, K	Vapor or sublimation pressure, kPa	uncertainty
332.06	36.97	0.42

System: methanol + (E)-2-butene; phases: Liquid, Gas
Property: Azeotropic composition: mole fraction of (E)-2-butene (Liquid); method: By X=Y
Temperature, K	Azeotropic composition: mole fraction of (E)-2-butene	uncertainty
332.06	0.902	0.002

System: methanol + (E)-2-butene; phases: Liquid, Gas
Property: Azeotropic composition: mole fraction of (E)-2-butene (Liquid); method: By X=Y
Pressure, kPa	Azeotropic composition: mole fraction of (E)-2-butene	uncertainty
639.5	0.902	0.002

System: methanol + (E)-2-butene; phases: Liquid, Gas
Property: Vapor or sublimation pressure, kPa (Liquid); method: Closed cell (Static) method
Mole fraction of (E)-2-butene	Temperature, K	Vapor or sublimation pressure, kPa	uncertainty
0	332.08	80.97	0.53
0.045	332.07	259.86	1.16
0.094	332.08	385.55	1.68
0.193	332.08	519.45	2.27
0.239	332.08	551.94	2.41
0.287	332.08	574.84	2.52
0.341	332.08	592.14	2.6
0.382	332.08	601.64	2.64
0.397	332.08	604.34	2.65
0.4	332.05	604.34	2.65
0.449	332.05	611.74	2.69
0.498	332.05	617.34	2.72
0.547	332.05	621.74	2.74
0.597	332.05	625.54	2.76
0.647	332.06	628.54	2.78
0.698	332.05	631.34	2.8
0.747	332.06	633.84	2.82
0.798	332.06	636.44	2.83
0.848	332.06	638.84	2.85
0.899	332.06	640.44	2.86
0.949	332.06	639.44	2.87
0.987	332.07	622.84	2.8
1	332.06	605.74	2.72

System: methanol + (E)-2-butene; phases: Gas, Liquid
Property: Mole fraction of (E)-2-butene (Gas); method: Density calibration data
Mole fraction of (E)-2-butene	Temperature, K	Mole fraction of (E)-2-butene	uncertainty
0	332.08	0	
0.045	332.07	0.6898	0.002
0.094	332.08	0.7924	0.0017
0.193	332.08	0.8498	0.0014
0.239	332.08	0.8603	0.0013
0.287	332.08	0.8672	0.0013
0.341	332.08	0.8724	0.0012
0.382	332.08	0.8752	0.0012
0.397	332.08	0.876	0.0012
0.4	332.05	0.8763	0.0012
0.449	332.05	0.8786	0.0012
0.498	332.05	0.8807	0.0012
0.547	332.05	0.8826	0.0011
0.597	332.05	0.8845	0.0011
0.647	332.06	0.8864	0.0011
0.698	332.05	0.8882	0.0011
0.747	332.06	0.8899	0.0011
0.798	332.06	0.8918	0.0011
0.848	332.06	0.8948	0.0011
0.899	332.06	0.9023	0.001
0.949	332.06	0.924	0.0008
0.987	332.07	0.969	0.001
1	332.06	1	

System: ethanol + (E)-2-butene; phases: Liquid, Gas
Property: Azeotropic composition: mole fraction of (E)-2-butene (Liquid); method: By X=Y
Pressure, kPa	Azeotropic composition: mole fraction of (E)-2-butene	uncertainty
607.9	0.988	0.001

System: ethanol + (E)-2-butene; phases: Liquid, Gas
Property: Azeotropic composition: mole fraction of (E)-2-butene (Liquid); method: By X=Y
Temperature, K	Azeotropic composition: mole fraction of (E)-2-butene	uncertainty
332.07	0.988	0.001

System: ethanol + (E)-2-butene; phases: Liquid, Gas
Property: Vapor or sublimation pressure, kPa (Liquid); method: Closed cell (Static) method
Mole fraction of (E)-2-butene	Temperature, K	Vapor or sublimation pressure, kPa	uncertainty
0	332.06	44.67	0.45
0.034	332.06	133.07	0.7
0.052	332.06	172.97	0.84
0.1	332.06	264.86	1.2
0.148	332.06	337.36	1.51
0.195	332.06	391.75	1.75
0.245	332.06	436.25	1.95
0.296	332.07	471.05	2.1
0.347	332.07	497.45	2.22
0.398	332.08	518.05	2.31
0.399	332.07	517.95	2.31
0.448	332.07	533.05	2.38
0.497	332.07	545.34	2.44
0.546	332.07	555.34	2.48
0.598	332.07	563.94	2.52
0.648	332.07	571.14	2.56
0.698	332.08	577.64	2.59
0.748	332.07	583.74	2.62
0.798	332.07	589.64	2.64
0.849	332.07	595.54	2.67
0.9	332.07	601.54	2.7
0.949	332.08	607.24	2.73
0.99	332.07	608.64	2.74
1	332.07	606.94	2.73

System: ethanol + (E)-2-butene; phases: Gas, Liquid
Property: Mole fraction of (E)-2-butene (Gas); method: Density calibration data
Mole fraction of (E)-2-butene	Temperature, K	Mole fraction of (E)-2-butene	uncertainty
0	332.06	0	
0.034	332.06	0.668	0.003
0.052	332.06	0.745	0.002
0.1	332.06	0.836	0.002
0.148	332.06	0.873	0.001
0.195	332.06	0.893	0.001
0.245	332.06	0.906	0.001
0.296	332.07	0.914	0.001
0.347	332.07	0.92	0.001
0.398	332.08	0.925	0.001
0.399	332.07	0.925	0.001
0.448	332.07	0.928	0.001
0.497	332.07	0.931	0.001
0.546	332.07	0.933	0.001
0.598	332.07	0.936	0.001
0.648	332.07	0.938	0.001
0.698	332.08	0.94	0.001
0.748	332.07	0.942	0.001
0.798	332.07	0.944	0.001
0.849	332.07	0.947	0.001
0.9	332.07	0.952	0.001
0.949	332.08	0.964	0.001
0.99	332.07	0.99	0.001
1	332.07	1	

System: propan-2-ol + (E)-2-butene; phases: Liquid, Gas
Property: Vapor or sublimation pressure, kPa (Liquid); method: Closed cell (Static) method
Mole fraction of (E)-2-butene	Temperature, K	Vapor or sublimation pressure, kPa	uncertainty
0	332.03	36.47	0.43
0.042	332.03	114.07	0.63
0.085	332.03	181.16	0.86
0.103	332.03	207.06	0.96
0.154	332.03	270.46	1.2
0.198	332.02	315.76	1.38
0.246	332.02	357.96	1.57
0.29	332.02	389.35	1.71
0.341	332.01	420.75	1.85
0.397	332.01	449.25	1.98
0.44	332.01	467.15	2.06
0.451	332.08	473.15	2.08
0.488	332.01	484.95	2.14
0.5	332.08	490.55	2.16
0.515	332	494.05	2.18
0.549	332.08	505.75	2.23
0.599	332.08	519.65	2.3
0.649	332.08	532.05	2.36
0.698	332.08	543.54	2.41
0.749	332.08	554.54	2.47
0.799	332.09	564.84	2.52
0.85	332.08	574.94	2.57
0.901	332.08	584.94	2.62
0.951	332.08	595.24	2.67
0.992	332.08	604.54	2.72
1	332.08	606.44	2.73

System: propan-2-ol + (E)-2-butene; phases: Gas, Liquid
Property: Mole fraction of (E)-2-butene (Gas); method: Density calibration data
Mole fraction of (E)-2-butene	Temperature, K	Mole fraction of (E)-2-butene	uncertainty
0	332.03	0	
0.042	332.03	0.6849	0.002
0.085	332.03	0.8047	0.0016
0.103	332.03	0.8306	0.0015
0.154	332.03	0.873	0.0012
0.198	332.02	0.8934	0.0011
0.246	332.02	0.9081	0.0009
0.29	332.02	0.9173	0.0009
0.341	332.01	0.9254	0.0008
0.397	332.01	0.932	0.0007
0.44	332.01	0.936	0.0007
0.451	332.08	0.9368	0.0007
0.488	332.01	0.9399	0.0007
0.5	332.08	0.9407	0.0006
0.515	332	0.942	0.0006
0.549	332.08	0.9442	0.0006
0.599	332.08	0.9475	0.0006
0.649	332.08	0.9505	0.0005
0.698	332.08	0.9535	0.0005
0.749	332.08	0.9565	0.0005
0.799	332.09	0.9596	0.0005
0.85	332.08	0.9633	0.0004
0.901	332.08	0.9686	0.0004
0.951	332.08	0.9784	0.0003
0.992	332.08	0.9948	0.0001
1	332.08	1	

System: butan-2-ol + (E)-2-butene; phases: Liquid, Gas
Property: Vapor or sublimation pressure, kPa (Liquid); method: Closed cell (Static) method
Mole fraction of (E)-2-butene	Temperature, K	Vapor or sublimation pressure, kPa	uncertainty
0	332.08	17.27	0.41
0.036	332.09	72.27	0.51
0.053	332.09	95.97	0.57
0.105	332.09	162.77	0.79
0.153	332.09	216.06	0.99
0.201	332.09	262.66	1.17
0.251	332.09	304.56	1.34
0.3	332.1	340.86	1.5
0.351	332.09	373.15	1.64
0.399	332.07	400.25	1.76
0.45	332.06	425.05	1.87
0.499	332.07	446.45	1.97
0.5	332.06	446.95	1.97
0.548	332.07	465.55	2.06
0.598	332.06	482.95	2.14
0.647	332.06	498.85	2.21
0.697	332.06	513.85	2.28
0.747	332.05	527.65	2.35
0.797	332.04	541.15	2.41
0.847	332.04	554.14	2.47
0.897	332.04	567.44	2.54
0.947	332.04	582.64	2.61
0.989	332.04	599.64	2.69
1	332.04	605.54	2.72

System: butan-2-ol + (E)-2-butene; phases: Gas, Liquid
Property: Mole fraction of (E)-2-butene (Gas); method: Density calibration data
Mole fraction of (E)-2-butene	Temperature, K	Mole fraction of (E)-2-butene	uncertainty
0	332.08	0	
0.036	332.09	0.7641	0.0018
0.053	332.09	0.8238	0.0015
0.105	332.09	0.8981	0.001
0.153	332.09	0.9249	0.0008
0.201	332.09	0.9397	0.0007
0.251	332.09	0.9494	0.0006
0.3	332.1	0.9559	0.0005
0.351	332.09	0.9608	0.0004
0.399	332.07	0.9645	0.0004
0.45	332.06	0.9676	0.0004
0.499	332.07	0.9702	0.0003
0.5	332.06	0.9702	0.0003
0.548	332.07	0.9724	0.0003
0.598	332.06	0.9745	0.0003
0.647	332.06	0.9764	0.0003
0.697	332.06	0.9782	0.0003
0.747	332.05	0.98	0.0002
0.797	332.04	0.9818	0.0002
0.847	332.04	0.9838	0.0002
0.897	332.04	0.9864	0.0002
0.947	332.04	0.9907	0.0001
0.989	332.04	0.9973	0.0001
1	332.04	1	

System: 2-methylpropan-2-ol + (E)-2-butene; phases: Liquid, Gas
Property: Vapor or sublimation pressure, kPa (Liquid); method: Closed cell (Static) method
Mole fraction of (E)-2-butene	Temperature, K	Vapor or sublimation pressure, kPa	uncertainty
0	332.06	36.97	0.43
0.022	332.07	67.37	0.49
0.036	332.07	84.37	0.54
0.068	332.07	123.27	0.66
0.101	332.08	161.27	0.79
0.138	332.08	198.46	0.93
0.175	332.08	233.16	1.06
0.214	332.07	266.66	1.2
0.256	332.08	299.46	1.33
0.299	332.08	329.76	1.46
0.345	332.09	359.45	1.59
0.392	332.09	386.75	1.71
0.504	332.13	443.25	1.96
0.553	332.13	463.95	2.06
0.602	332.12	482.75	2.14
0.652	332.11	500.45	2.23
0.701	332.12	516.55	2.3
0.75	332.11	531.65	2.37
0.8	332.1	545.94	2.44
0.849	332.09	559.64	2.5
0.9	332.08	573.34	2.57
0.949	332.08	587.64	2.64
0.989	332.08	601.64	2.7
1	332.08	606.14	2.72

System: 2-methylpropan-2-ol + (E)-2-butene; phases: Gas, Liquid
Property: Mole fraction of (E)-2-butene (Gas); method: Density calibration data
Mole fraction of (E)-2-butene	Temperature, K	Mole fraction of (E)-2-butene	uncertainty
0	332.06	0	
0.022	332.07	0.456	0.002
0.036	332.07	0.57	0.002
0.068	332.07	0.7098	0.0021
0.101	332.08	0.7815	0.0018
0.138	332.08	0.8261	0.0016
0.175	332.08	0.8551	0.0014
0.214	332.07	0.8763	0.0012
0.256	332.08	0.8927	0.0011
0.299	332.08	0.9052	0.001
0.345	332.09	0.9156	0.0009
0.392	332.09	0.924	0.0008
0.504	332.13	0.9391	0.0007
0.553	332.13	0.9444	0.0006
0.602	332.12	0.9492	0.0006
0.652	332.11	0.9537	0.0005
0.701	332.12	0.9578	0.0005
0.75	332.11	0.9618	0.0004
0.8	332.1	0.9659	0.0004
0.849	332.09	0.9703	0.0003
0.9	332.08	0.9758	0.0003
0.949	332.08	0.9841	0.0002
0.989	332.08	0.9956	0.0001
1	332.08	1	
