Measured thermophysical data. High-Pressure Vapor-Liquid Equilibria in the System Carbon Dioxide and 2-Propanol at Temperatures from 293.25 K to 323.15 K
Source: J. Chem. Eng. Data, 2003, 10.1021/je034027k
Compound 1: carbon dioxide, CO2, InChI=1S/CO2/c2-1-3, purity 99.7%
Compound 2: propan-2-ol, C3H8O, InChI=1S/C3H8O/c1-3(2)4/h3-4H,1-2H3, purity 99.7%

System: propan-2-ol + carbon dioxide; phases: Liquid, Gas
Property: Vapor or sublimation pressure, kPa (Liquid); method: CCELL:UFactor:8
Mole fraction of carbon dioxide	Temperature, K	Vapor or sublimation pressure, kPa	uncertainty
0.0494	293.25	680	20
0.0701	316.65	1330	30
0.0718	298.15	1050	30
0.0742	323.15	1520	40
0.0844	293.25	1160	30
0.0963	308.15	1590	40
0.1208	293.25	1610	40
0.1434	316.65	2510	60
0.1576	298.15	2130	50
0.1621	323.15	3010	80
0.1672	293.25	2180	50
0.1981	316.65	3480	90
0.2239	293.25	2760	70
0.2269	298.15	2970	70
0.2434	316.65	4020	100
0.2449	323.15	4470	110
0.2592	308.15	3850	100
0.2692	293.25	3160	80
0.3321	316.65	5150	130
0.3363	293.25	3710	90
0.3643	323.15	5820	140
0.3912	316.65	5770	140
0.4092	298.15	4460	110
0.4191	293.25	4210	100
0.4562	308.15	5490	140
0.4577	298.15	4900	120
0.5203	316.65	6680	170
0.527	316.65	6800	170
0.5404	298.15	5200	130
0.5623	293.25	4750	120
0.5642	323.15	7700	190
0.6407	298.15	5390	130
0.6931	316.65	7510	190
0.7227	308.15	6720	170
0.7277	323.15	8600	210
0.7702	298.15	5680	140
0.7729	316.65	7760	190
0.7892	293.25	5110	130
0.7905	298.15	5810	140
0.7907	293.25	5120	130
0.8742	316.65	8380	210
0.8863	298.15	6070	150
0.8884	293.25	5270	130
0.8935	308.15	7150	180
0.9562	293.25	5560	140

System: propan-2-ol + carbon dioxide; phases: Gas, Liquid
Property: Mole fraction of carbon dioxide (Gas); method: OTHER
Mole fraction of carbon dioxide	Temperature, K	Mole fraction of carbon dioxide	uncertainty
0.0494	293.25	0.9911	0.002
0.0701	316.65	0.9842	0.002
0.0718	298.15	0.993	0.002
0.0742	323.15	0.9801	0.002
0.0844	293.25	0.9954	0.002
0.0963	308.15	0.991	0.002
0.1208	293.25	0.9966	0.002
0.1434	316.65	0.9893	0.002
0.1576	298.15	0.9952	0.002
0.1621	323.15	0.9872	0.002
0.1672	293.25	0.9966	0.002
0.1981	316.65	0.99	0.002
0.2239	293.25	0.9969	0.002
0.2269	298.15	0.9965	0.002
0.2434	316.65	0.9902	0.002
0.2449	323.15	0.9879	0.002
0.2592	308.15	0.994	0.002
0.2692	293.25	0.9969	0.002
0.3321	316.65	0.9912	0.002
0.3363	293.25	0.9973	0.002
0.3643	323.15	0.9869	0.002
0.3912	316.65	0.9896	0.002
0.4092	298.15	0.996	0.002
0.4191	293.25	0.9968	0.002
0.4562	308.15	0.9932	0.002
0.4577	298.15	0.9958	0.002
0.5203	316.65	0.9884	0.002
0.527	316.65	0.9878	0.002
0.5404	298.15	0.9962	0.002
0.5623	293.25	0.9973	0.002
0.5642	323.15	0.9843	0.002
0.6407	298.15	0.9955	0.002
0.6931	316.65	0.9857	0.002
0.7227	308.15	0.9923	0.002
0.7277	323.15	0.9782	0.002
0.7702	298.15	0.9961	0.002
0.7729	316.65	0.9859	0.002
0.7892	293.25	0.997	0.002
0.7905	298.15	0.996	0.002
0.7907	293.25	0.9974	0.002
0.8742	316.65	0.9819	0.002
0.8863	298.15	0.997	0.002
0.8884	293.25	0.9975	0.002
0.8935	308.15	0.9939	0.002
0.9562	293.25	0.9981	0.0019
