Measured thermophysical data. Vapor-Liquid Equilibria of Binary Carbon Dioxide + Alkyl Carbonate Mixture Systems
Source: J. Chem. Eng. Data, 2004, 10.1021/je034089a
Compound 1: carbon dioxide, CO2, InChI=1S/CO2/c2-1-3, purity 99.99%
Compound 2: dimethyl carbonate, C3H6O3, InChI=1S/C3H6O3/c1-5-3(4)6-2/h1-2H3, purity 99%
Compound 3: diethyl carbonate, C5H10O3, InChI=1S/C5H10O3/c1-3-7-5(6)8-4-2/h3-4H2,1-2H3, purity 99%

System: carbon dioxide + dimethyl carbonate; phases: Liquid, Gas
Property: Vapor or sublimation pressure, kPa (Liquid); method: CCELL:UFactor:8
Mole fraction of carbon dioxide	Temperature, K	Vapor or sublimation pressure, kPa	uncertainty
0.1076	340.27	1019	33
0.114	320.36	827	27
0.1431	310.27	863	28
0.1477	330.3	1237	40
0.225	320.36	1664	53
0.245	340.27	2403	77
0.2914	330.3	2509	81
0.3019	310.27	1897	61
0.3356	320.36	2553	82
0.3616	340.27	3684	118
0.3876	330.3	3438	110
0.3919	310.27	2556	82
0.4144	320.36	3219	103
0.4667	340.27	4866	156
0.4707	330.3	4299	138
0.4809	310.27	3190	102
0.5269	320.36	4250	136
0.5445	340.27	5852	188
0.5473	310.27	3718	119
0.5565	330.3	5218	167
0.6273	310.27	4380	140
0.6397	330.3	6136	197
0.6412	340.27	7082	227
0.682	320.36	5757	184
0.7353	340.27	8269	265
0.749	330.3	7403	237
0.7648	310.27	5547	178
0.8141	340.27	9413	301
0.8162	320.36	7084	227
0.8307	330.3	8530	273
0.8569	340.27	9996	320
0.8597	320.36	7697	246
0.8867	310.27	6714	215
0.895	320.36	8140	261
0.8954	330.3	9256	296
0.929	310.27	7246	232

System: carbon dioxide + dimethyl carbonate; phases: Gas, Liquid
Property: Mole fraction of carbon dioxide (Gas); method: CHROM:UFactor:16
Mole fraction of carbon dioxide	Temperature, K	Mole fraction of carbon dioxide	uncertainty
0.1076	340.27	0.9276	0.0139
0.114	320.36	0.9388	0.0118
0.1431	310.27	0.9525	0.0091
0.1477	330.3	0.9587	0.0079
0.225	320.36	0.9699	0.0058
0.245	340.27	0.9645	0.0068
0.2914	330.3	0.9755	0.0047
0.3019	310.27	0.9818	0.0035
0.3356	320.36	0.9778	0.0043
0.3616	340.27	0.9741	0.005
0.3876	330.3	0.9812	0.0036
0.3919	310.27	0.9885	0.0022
0.4144	320.36	0.985	0.0029
0.4667	340.27	0.9773	0.0044
0.4707	330.3	0.9828	0.0033
0.4809	310.27	0.9879	0.0023
0.5269	320.36	0.9881	0.0023
0.5445	340.27	0.9786	0.0041
0.5473	310.27	0.9907	0.0018
0.5565	330.3	0.9842	0.003
0.6273	310.27	0.9917	0.0016
0.6397	330.3	0.9844	0.003
0.6412	340.27	0.9787	0.0041
0.682	320.36	0.9885	0.0022
0.7353	340.27	0.9776	0.0043
0.749	330.3	0.9829	0.0033
0.7648	310.27	0.993	0.0013
0.8141	340.27	0.9727	0.0052
0.8162	320.36	0.9888	0.0022
0.8307	330.3	0.9813	0.0036
0.8569	340.27	0.963	0.0071
0.8597	320.36	0.9879	0.0023
0.8867	310.27	0.9931	0.0013
0.895	320.36	0.9866	0.0026
0.8954	330.3	0.9741	0.005
0.929	310.27	0.9934	0.0013

System: diethyl carbonate + carbon dioxide; phases: Liquid, Gas
Property: Vapor or sublimation pressure, kPa (Liquid); method: CCELL:UFactor:8
Mole fraction of carbon dioxide	Temperature, K	Vapor or sublimation pressure, kPa	uncertainty
0.1095	330.33	746	24
0.1194	320.32	715	23
0.149	340.29	1183	38
0.2367	330.33	1715	55
0.2566	340.29	2147	69
0.2961	320.32	1902	61
0.3204	330.33	2434	78
0.3625	340.29	3228	104
0.3903	320.32	2660	85
0.4301	330.33	3458	111
0.4357	340.29	4058	130
0.4706	320.32	3351	107
0.5374	330.33	4610	148
0.5587	340.29	5557	178
0.5835	320.32	4441	142
0.6439	340.29	6747	216
0.6554	330.33	6069	194
0.7138	340.29	7761	249
0.737	320.32	6079	195
0.7438	330.33	7175	230
0.796	340.29	9008	288
0.8227	330.33	8330	267
0.846	320.32	7365	236
0.9426	320.32	8411	269

System: diethyl carbonate + carbon dioxide; phases: Gas, Liquid
Property: Mole fraction of carbon dioxide (Gas); method: CHROM:UFactor:8
Mole fraction of carbon dioxide	Temperature, K	Mole fraction of carbon dioxide	uncertainty
0.1095	330.33	0.9689	0.003
0.1194	320.32	0.9743	0.0025
0.149	340.29	0.9762	0.0023
0.2367	330.33	0.9854	0.0014
0.2566	340.29	0.9848	0.0015
0.2961	320.32	0.9894	0.001
0.3204	330.33	0.9906	0.0009
0.3625	340.29	0.9885	0.0011
0.3903	320.32	0.9923	0.0007
0.4301	330.33	0.9922	0.0008
0.4357	340.29	0.99	0.001
0.4706	320.32	0.9941	0.0006
0.5374	330.33	0.993	0.0007
0.5587	340.29	0.991	0.0009
0.5835	320.32	0.9949	0.0005
0.6439	340.29	0.991	0.0009
0.6554	330.33	0.9936	0.0006
0.7138	340.29	0.9903	0.0009
0.737	320.32	0.9953	0.0005
0.7438	330.33	0.9932	0.0007
0.796	340.29	0.9878	0.0012
0.8227	330.33	0.9916	0.0008
0.846	320.32	0.9945	0.0005
0.9426	320.32	0.9906	0.0009
