Measured thermophysical data. Solubility of Oxygen in Aqueous Solutions of KCl, K2SO4, and CaCl2 as a Function of Concentration and Temperature
Source: J. Chem. Eng. Data, 2003, 10.1021/je034031w
Compound 1: oxygen, O2, InChI=1S/O2/c1-2
Compound 2: potassium chloride, ClK, InChI=1S/ClH.K/h1H;/q;+1/p-1, purity 98%
Compound 3: potassium sulfate, K2O4S, InChI=1S/2K.H2O4S/c;;1-5(2,3)4/h;;(H2,1,2,3,4)/q2*+1;/p-2, purity 98%
Compound 4: calcium chloride, CaCl2, InChI=1S/Ca.2ClH/h;2*1H/q+2;;/p-2, purity 98%
Compound 5: water, H2O, InChI=1S/H2O/h1H2

System: potassium chloride + water + oxygen; phases: Liquid, Gas
Fixed: Pressure, kPa = 101.3
Property: Molality, mol/kg of oxygen (Liquid); method: OTHER
Temperature, K	Molality, mol/kg of potassium chloride	Molality, mol/kg of oxygen	uncertainty
278.144	0.9859	0.0002935	3.4e-06
278.144	3.7671	0.0001549	3.4e-06
278.146	1.4214	0.0002605	3.4e-06
278.146	1.858	0.0002331	3.4e-06
278.146	2.6128	0.0001964	3.4e-06
278.152	0.3292	0.0003584	3.4e-06
278.152	3.1264	0.0001757	3.4e-06
278.154	0.6919	0.0003211	3.4e-06
278.154	2.1298	0.0002186	3.4e-06
278.156	0	0.0003999	3.4e-06
288.144	2.3113	0.0001766	3.4e-06
288.144	2.8731	0.0001584	3.4e-06
288.146	0.7748	0.0002547	3.4e-06
288.146	3.6849	0.0001367	3.4e-06
288.148	0.5139	0.0002732	3.4e-06
288.148	1.7768	0.0001987	3.4e-06
288.148	3.1875	0.000149	3.4e-06
288.152	0.9828	0.0002411	3.4e-06
288.154	1.4013	0.0002173	3.4e-06
288.156	0	0.0003151	3.4e-06
308.144	2.9696	0.0001203	3.4e-06
308.147	0.6627	0.0001881	3.4e-06
308.148	1.4126	0.0001601	3.4e-06
308.148	1.7621	0.0001497	3.4e-06
308.149	1.3366	0.0001627	3.4e-06
308.149	3.6425	0.0001089	3.4e-06
308.151	0.9626	0.0001753	3.4e-06
308.152	4.8451	9.32e-05	3.4e-06
308.153	0.2658	0.000205	3.4e-06
308.153	4.1663	0.000101	3.4e-06
308.156	0	0.0002188	3.4e-06
308.157	2.2039	0.0001372	3.4e-06
318.141	0.2512	0.000178	3.4e-06
318.147	5.1236	8.4e-05	3.4e-06
318.149	1.7655	0.0001329	3.4e-06
318.15	1.1787	0.0001477	3.4e-06
318.151	0.6712	0.0001641	3.4e-06
318.151	4.5019	9.02e-05	3.4e-06
318.153	0	0.0001879	3.4e-06
318.154	3.7548	9.87e-05	3.4e-06
318.155	3.0263	0.0001082	3.4e-06
318.156	2.2007	0.0001241	3.4e-06

System: water + potassium sulfate + oxygen; phases: Liquid, Gas
Fixed: Pressure, kPa = 101.3
Property: Molality, mol/kg of oxygen (Liquid); method: OTHER
Temperature, K	Molality, mol/kg of potassium sulfate	Molality, mol/kg of oxygen	uncertainty
278.143	0.0791	0.0003736	3.4e-06
278.145	0.1113	0.0003638	3.4e-06
278.145	0.3425	0.0003005	3.4e-06
278.145	0.4733	0.0002709	3.4e-06
278.147	0.223	0.0003301	3.4e-06
278.147	0.387	0.0002891	3.4e-06
278.148	0.3238	0.0003049	3.4e-06
278.149	0.0445	0.0003843	3.4e-06
278.149	0.1684	0.000346	3.4e-06
278.15	0.2786	0.000315	3.4e-06
278.153	0.4554	0.0002742	3.4e-06
278.156	0	0.0003999	3.4e-06
288.144	0.094	0.000293	3.4e-06
288.148	0.5661	0.0002095	3.4e-06
288.15	0.3558	0.0002414	3.4e-06
288.152	0.0529	0.0003035	3.4e-06
288.152	0.4089	0.000232	3.4e-06
288.154	0.3134	0.0002484	3.4e-06
288.156	0	0.0003151	3.4e-06
288.156	0.152	0.0002795	3.4e-06
288.156	0.1967	0.0002705	3.4e-06
288.156	0.2503	0.00026	3.4e-06
288.158	0.532	0.0002135	3.4e-06
288.159	0.4903	0.0002191	3.4e-06
308.142	0.1785	0.0001936	3.4e-06
308.144	0.3509	0.0001733	3.4e-06
308.146	0.0897	0.0002053	3.4e-06
308.146	0.5612	0.0001535	3.4e-06
308.146	0.6212	0.000148	3.4e-06
308.148	0.2683	0.0001832	3.4e-06
308.148	0.2997	0.0001799	3.4e-06
308.148	0.7848	0.0001353	3.4e-06
308.151	0.4106	0.0001667	3.4e-06
308.152	0.4901	0.0001591	3.4e-06
308.152	0.7022	0.0001417	3.4e-06
308.154	0.049	0.0002111	3.4e-06
308.156	0	0.0002188	3.4e-06
318.142	0.4891	0.0001396	3.4e-06
318.145	0.2151	0.0001629	3.4e-06
318.146	0.0806	0.0001784	3.4e-06
318.147	0.2986	0.0001558	3.4e-06
318.147	0.3733	0.0001493	3.4e-06
318.151	0.6882	0.0001256	3.4e-06
318.153	0	0.0001879	3.4e-06
318.153	0.1503	0.0001704	3.4e-06
318.153	0.5901	0.0001318	3.4e-06
318.154	0.4356	0.0001435	3.4e-06
318.155	0.7676	0.000121	3.4e-06

System: water + oxygen + calcium chloride; phases: Liquid, Gas
Fixed: Pressure, kPa = 101.3
Property: Molality, mol/kg of oxygen (Liquid); method: OTHER
Temperature, K	Molality, mol/kg of calcium chloride	Molality, mol/kg of oxygen	uncertainty
278.142	0.1428	0.0003665	3.4e-06
278.147	0.7219	0.0002608	3.4e-06
278.147	3.0598	8.32e-05	3.4e-06
278.147	3.2931	7.51e-05	3.4e-06
278.149	0.3046	0.0003333	3.4e-06
278.149	1.2154	0.0001984	3.4e-06
278.149	1.9738	0.0001325	3.4e-06
278.149	2.4106	0.000109	3.4e-06
278.15	0.9862	0.0002234	3.4e-06
278.151	1.6116	0.0001604	3.4e-06
278.156	0	0.0003999	3.4e-06
288.141	0.8517	0.0002022	3.4e-06
288.142	2.9117	7.87e-05	3.4e-06
288.146	1.1727	0.000171	3.4e-06
288.146	1.7838	0.0001269	3.4e-06
288.148	3.2081	7.01e-05	3.4e-06
288.148	3.5955	6.08e-05	3.4e-06
288.149	1.5426	0.000143	3.4e-06
288.152	0.57	0.000232	3.4e-06
288.152	2.079	0.0001117	3.4e-06
288.153	2.4315	9.61e-05	3.4e-06
288.156	0	0.0003151	3.4e-06
308.146	3.5289	5e-05	3.4e-06
308.148	1.8105	9.23e-05	3.4e-06
308.148	2.3196	7.51e-05	3.4e-06
308.148	3.0491	5.78e-05	3.4e-06
308.151	1.3269	0.0001161	3.4e-06
308.152	0.5638	0.0001664	3.4e-06
308.153	4.2346	4.22e-05	3.4e-06
308.155	1.1053	0.0001289	3.4e-06
308.156	0	0.0002188	3.4e-06
318.143	1.5431	9.43e-05	3.4e-06
318.143	2.0883	7.38e-05	3.4e-06
318.145	0.5428	0.0001451	3.4e-06
318.147	1.0831	0.0001134	3.4e-06
318.147	2.5356	6.24e-05	3.4e-06
318.148	3.1386	5.02e-05	3.4e-06
318.15	3.5126	4.43e-05	3.4e-06
318.152	4.1587	3.73e-05	3.4e-06
318.153	0	0.0001879	3.4e-06
