Measured thermophysical data. High -Pressure Phase Diagrams of Propane + Decahydronaphthalene and Propane + Naphthalene Mixtures
Source: J. Chem. Eng. Data, 2004, 10.1021/je0341458
Compound 1: decahydronaphthalene, C10H18, InChI=1S/C10H18/c1-2-6-10-8-4-3-7-9(10)5-1/h9-10H,1-8H2, purity 99%
Compound 2: naphthalene, C10H8, InChI=1S/C10H8/c1-2-6-10-8-4-3-7-9(10)5-1/h1-8H, purity 99%
Compound 3: propane, C3H8, InChI=1S/C3H8/c1-3-2/h3H2,1-2H3, purity 99.95%

System: propane + decahydronaphthalene; phases: Gas, Liquid
Property: Amount concentration (molarity), mol/dm3 (Gas); method: SPECTR:UFactor:2
Temperature, K	Pressure, kPa	Amount concentration (molarity), mol/dm3	uncertainty
392	2260	0.813	0.037
392	2540	0.946	0.04
392	2850	1.083	0.046
392	3110	1.252	0.053
392	3350	1.375	0.216
392	3380	1.501	0.217
392	3660	1.563	0.059
392	3850	1.703	0.071
392	4050	1.866	0.077
392	4310	2.076	0.085
392	4400	2.182	0.107
392	4450	2.291	0.092
392	4500	2.263	0.09
392	4560	2.381	0.098
392	4590	2.34	0.11
392	4710	2.576	0.128
392	4800	2.721	0.12
392	4900	2.854	0.12
392	4310	2.073	0.085
392	4400	2.178	0.106
392	4500	2.261	0.09
415.5	2760	0.966	0.039
415.5	2980	1.064	0.043
415.5	3080	1.101	0.045
415.5	3420	1.273	0.05
415.5	3880	1.485	0.052
415.5	3980	1.52	0.061
415.5	4070	1.568	0.063
415.5	4220	1.659	0.066
415.5	4370	1.754	0.077
415.5	4480	1.827	0.071
415.5	4540	1.858	0.075
415.5	4640	1.939	0.07
415.5	4820	2.061	0.079
415.5	4980	2.174	0.088
415.5	5050	2.272	0.092
415.5	5110	2.276	0.085
415.5	5180	2.38	0.087
415.5	5250	2.405	0.086
415.5	5280	2.466	0.086
415.5	5380	2.543	0.092
415.5	5430	2.542	0.138
415.5	5480	2.661	0.117
415.5	5520	2.668	0.107
415.5	5570	2.752	0.111
415.5	5690	2.866	0.112
415.5	5800	2.983	0.117
415.5	5920	3.11	0.125
415.5	6020	3.256	0.135
415.5	6130	3.418	0.138
415.5	6230	3.554	0.148
415.5	6310	3.706	0.159
415.5	6410	3.889	0.164
439	2430	0.804	0.034
439	2550	0.85	0.036
439	2730	0.923	0.037
439	2980	1.012	0.041
439	3130	1.091	0.038
439	3150	1.091	0.038
439	3440	1.226	0.042
439	3460	1.227	0.042
439	3780	1.363	0.053
439	3950	1.456	0.058
439	4140	1.555	0.062
439	4410	1.727	0.102
439	4430	1.694	0.101
439	4550	1.751	0.071
439	4600	1.825	0.068
439	4740	1.858	0.07
439	4800	1.943	0.076
439	5000	2.056	0.078
439	5210	2.185	0.082
439	5400	2.308	0.087
439	5600	2.45	0.091
439	5800	2.585	0.097
439	6000	2.74	0.104
439	6200	2.919	0.11
439	6420	3.091	0.117
439	6620	3.283	0.127
439	6810	3.501	0.138
439	6960	3.709	0.143
439	7000	3.714	0.138
439	7100	3.834	0.153
439	7150	3.938	0.158
439	7250	4.072	0.159
439	7320	4.172	0.182
439	7330	4.193	0.147
439	7350	4.187	0.177
439	7410	4.334	0.203
439	7440	4.423	0.194
439	7520	4.589	0.199
439	7560	4.7	0.166
439	7600	4.671	0.188
439	7630	4.837	0.211
439	7670	4.848	0.21
439	7700	5.012	0.45
439	7740	5.366	0.528
439	7320	4.169	0.192
439	7670	5.015	0.222

System: propane + decahydronaphthalene; phases: Gas, Liquid
Property: Amount concentration (molarity), mol/dm3 (Gas); method: SPECTR
Temperature, K	Pressure, kPa	Amount concentration (molarity), mol/dm3	uncertainty
392	2260	0.006	0.005
392	2540	0.005	0.005
392	2850	0	0.01
392	3110	0	0.01
392	3350	0	0.01
392	3380	0	0.01
392	3660	0	0.01
392	3850	0	0.01
392	4050	0	0.01
392	4310	0	0.01
392	4400	0	0.01
392	4450	0	0.01
392	4500	0	0.01
392	4560	0	0.01
392	4590	0	0.01
392	4710	0	0.01
392	4800	0	0.01
392	4900	0	0.01
392	4310	0	0.01
392	4400	0	0.01
392	4500	0	0.01
415.5	2760	0.006	0.005
415.5	2980	0.006	0.005
415.5	3080	0.005	0.005
415.5	3420	0	0.005
415.5	3880	0.005	0.008
415.5	3980	0	0.005
415.5	4070	0	0.005
415.5	4220	0	0.005
415.5	4370	0.005	0.006
415.5	4480	0.007	0.005
415.5	4540	0.006	0.005
415.5	4640	0.007	0.005
415.5	4820	0.008	0.005
415.5	4980	0.01	0.005
415.5	5050	0.012	0.006
415.5	5110	0.011	0.006
415.5	5180	0.014	0.006
415.5	5250	0.013	0.006
415.5	5280	0.017	0.005
415.5	5380	0.018	0.005
415.5	5430	0.016	0.007
415.5	5480	0.022	0.005
415.5	5520	0.018	0.005
415.5	5570	0.023	0.006
415.5	5690	0.026	0.005
415.5	5800	0.03	0.005
415.5	5920	0.034	0.006
415.5	6020	0.04	0.006
415.5	6130	0.049	0.006
415.5	6230	0.055	0.006
415.5	6310	0.061	0.007
415.5	6410	0.072	0.008
439	2430	0.021	0.005
439	2550	0.022	0.005
439	2730	0.022	0.005
439	2980	0.024	0.005
439	3130	0.025	0.006
439	3150	0.026	0.006
439	3440	0.028	0.005
439	3460	0.028	0.005
439	3780	0.03	0.005
439	3950	0.032	0.005
439	4140	0.034	0.005
439	4410	0.037	0.005
439	4430	0.037	0.005
439	4550	0.04	0.005
439	4600	0.04	0.005
439	4740	0.042	0.005
439	4800	0.043	0.005
439	5000	0.046	0.005
439	5210	0.051	0.005
439	5400	0.054	0.005
439	5600	0.061	0.006
439	5800	0.067	0.005
439	6000	0.075	0.006
439	6200	0.084	0.006
439	6420	0.091	0.006
439	6620	0.108	0.007
439	6810	0.128	0.008
439	6960	0.145	0.007
439	7000	0.141	0.007
439	7100	0.155	0.01
439	7150	0.165	0.01
439	7250	0.179	0.012
439	7320	0.2	0.012
439	7330	0.202	0.01
439	7350	0.197	0.014
439	7410	0.219	0.02
439	7440	0.231	0.019
439	7520	0.257	0.023
439	7560	0.284	0.011
439	7600	0.274	0.021
439	7630	0.313	0.029
439	7670	0.313	0.029
439	7700	0.352	0.133
439	7740	0.477	0.176
439	7320	0.201	0.008
439	7670	0.379	0.033

System: propane + decahydronaphthalene; phases: Liquid, Gas
Property: Amount concentration (molarity), mol/dm3 (Liquid); method: SPECTR
Temperature, K	Pressure, kPa	Amount concentration (molarity), mol/dm3	uncertainty
392	1720	4.852	0.101
392	2040	4.499	0.095
392	2260	4.276	0.091
392	2540	3.977	0.087
392	2850	3.666	0.092
392	3000	3.349	0.083
392	3350	3.05	0.075
392	3660	2.683	0.079
392	3850	2.431	0.081
392	4050	2.163	0.087
392	4140	1.99	0.079
392	4210	1.955	0.096
392	4260	1.774	0.15
392	4280	1.765	0.048
392	4370	1.612	0.092
392	4450	1.485	0.067
392	4470	1.522	0.057
392	4550	1.421	0.093
392	4590	1.311	0.086
392	4680	1.209	0.076
392	4710	1.148	0.093
392	4800	1.002	0.083
392	4900	0.869	0.085
392	4950	0.768	0.064
392	5050	0.705	0.223
392	5060	0.661	0.223
392	4210	1.953	0.096
392	4260	1.774	0.15
392	4370	1.618	0.092
392	4470	1.528	0.058
392	4550	1.366	0.098
415.5	2090	4.656	0.094
415.5	2220	4.568	0.091
415.5	2370	4.477	0.083
415.5	2530	4.374	0.081
415.5	2660	4.289	0.08
415.5	2760	4.178	0.087
415.5	2980	4.029	0.083
415.5	3080	3.981	0.072
415.5	3290	3.843	0.086
415.5	3420	3.754	0.068
415.5	3600	3.615	0.088
415.5	3760	3.468	0.079
415.5	3980	3.315	0.084
415.5	4070	3.251	0.072
415.5	4220	3.13	0.08
415.5	4370	3.002	0.074
415.5	4540	2.868	0.077
415.5	4640	2.735	0.068
415.5	4820	2.61	0.06
415.5	4980	2.465	0.092
415.5	5050	2.38	0.056
415.5	5110	2.341	0.131
415.5	5180	2.252	0.077
415.5	5250	2.2	0.133
415.5	5280	2.16	0.086
415.5	5380	2.094	0.084
415.5	5430	2.044	0.071
415.5	5480	1.951	0.057
415.5	5520	1.924	0.064
415.5	5570	1.867	0.065
415.5	5630	1.806	0.068
415.5	5660	1.761	0.473
415.5	5690	1.762	0.432
415.5	5720	1.663	0.069
415.5	5800	1.615	0.042
415.5	5920	1.568	0.051
415.5	6020	1.442	0.067
415.5	6130	1.318	0.061
415.5	6230	1.223	0.06
415.5	6310	1.132	0.064
415.5	6410	1.017	0.068
415.5	6490	0.91	0.073
415.5	6580	0.79	0.146
415.5	6600	0.733	0.146
415.5	5800	1.686	0.044
439	2460	4.499	0.082
439	2660	4.393	0.08
439	2850	4.301	0.079
439	2980	4.22	0.078
439	3150	4.134	0.076
439	3350	4.04	0.074
439	3510	3.958	0.075
439	3660	3.855	0.074
439	3780	3.787	0.071
439	3950	3.702	0.07
439	4140	3.602	0.069
439	4290	3.514	0.069
439	4410	3.426	0.068
439	4500	3.385	0.066
439	4600	3.315	0.068
439	4650	3.284	0.067
439	4800	3.186	0.064
439	5000	3.07	0.063
439	5210	2.94	0.061
439	5400	2.821	0.06
439	5600	2.69	0.051
439	5800	2.562	0.06
439	6000	2.418	0.059
439	6200	2.27	0.058
439	6420	2.111	0.056
439	6620	1.967	0.059
439	6810	1.795	0.059
439	6960	1.675	0.057
439	7150	1.516	0.06
439	7670	1.014	0.141
439	7700	0.939	0.11
439	7740	0.877	0.089
439	2460	4.494	0.082

System: propane + decahydronaphthalene; phases: Liquid, Gas
Property: Amount concentration (molarity), mol/dm3 (Liquid); method: SPECTR
Temperature, K	Pressure, kPa	Amount concentration (molarity), mol/dm3	uncertainty
392	1720	2.393	0.108
392	2040	3.001	0.112
392	2260	3.411	0.112
392	2540	3.903	0.115
392	2850	4.418	0.138
392	3000	4.931	0.132
392	3350	5.38	0.13
392	3660	5.939	0.147
392	3850	6.3	0.153
392	4050	6.667	0.156
392	4140	6.782	0.151
392	4210	6.903	0.194
392	4260	7.123	0.192
392	4280	7.06	0.211
392	4370	7.319	0.167
392	4450	7.352	0.148
392	4470	7.399	0.158
392	4550	7.489	0.165
392	4590	7.592	0.153
392	4680	7.616	0.147
392	4710	7.632	0.155
392	4800	7.732	0.154
392	4900	7.796	0.151
392	4950	7.803	0.149
392	5050	7.836	0.214
392	5060	7.805	0.214
392	4210	6.914	0.194
392	4260	7.12	0.191
392	4370	7.301	0.166
392	4470	7.386	0.159
392	4550	7.469	0.163
415.5	2090	1.724	0.208
415.5	2220	1.862	0.142
415.5	2370	2.005	0.056
415.5	2530	2.176	0.054
415.5	2660	2.313	0.046
415.5	2760	2.466	0.111
415.5	2980	2.696	0.114
415.5	3080	2.782	0.055
415.5	3290	3.021	0.141
415.5	3420	3.156	0.069
415.5	3600	3.369	0.146
415.5	3760	3.615	0.105
415.5	3980	3.731	0.135
415.5	4070	3.821	0.104
415.5	4220	4.014	0.137
415.5	4370	4.214	0.117
415.5	4540	4.414	0.122
415.5	4640	4.603	0.108
415.5	4820	4.785	0.1
415.5	4980	4.98	0.151
415.5	5050	5.075	0.123
415.5	5110	5.161	0.219
415.5	5180	5.231	0.167
415.5	5250	5.358	0.282
415.5	5280	5.337	0.197
415.5	5380	5.415	0.193
415.5	5430	5.543	0.181
415.5	5480	5.584	0.151
415.5	5520	5.695	0.183
415.5	5570	5.672	0.118
415.5	5630	5.826	0.155
415.5	5660	5.877	0.499
415.5	5690	5.784	0.486
415.5	5720	5.991	0.141
415.5	5800	6.027	0.106
415.5	5920	5.976	0.106
415.5	6020	6.081	0.116
415.5	6130	6.16	0.114
415.5	6230	6.228	0.112
415.5	6310	6.254	0.111
415.5	6410	6.284	0.111
415.5	6490	6.298	0.111
415.5	6580	6.253	0.157
415.5	6600	6.208	0.156
415.5	5800	5.865	0.104
439	2460	1.897	0.056
439	2660	2.075	0.058
439	2850	2.245	0.062
439	2980	2.383	0.063
439	3150	2.525	0.06
439	3350	2.687	0.063
439	3510	2.823	0.07
439	3660	2.997	0.074
439	3780	3.103	0.069
439	3950	3.243	0.071
439	4140	3.412	0.076
439	4290	3.567	0.082
439	4410	3.695	0.081
439	4500	3.765	0.082
439	4600	3.873	0.087
439	4650	3.926	0.088
439	4800	4.092	0.087
439	5000	4.268	0.087
439	5210	4.448	0.091
439	5400	4.631	0.095
439	5600	4.824	0.091
439	5800	5.015	0.101
439	6000	5.191	0.103
439	6200	5.38	0.104
439	6420	5.539	0.104
439	6620	5.685	0.106
439	6810	5.841	0.108
439	6960	5.927	0.107
439	7150	6.033	0.105
439	7670	6.121	0.127
439	7700	6.082	0.181
439	7740	5.936	0.225
439	2460	1.899	0.055

System: propane + naphthalene; phases: Gas, Liquid
Property: Amount concentration (molarity), mol/dm3 (Gas); method: SPECTR
Temperature, K	Pressure, kPa	Amount concentration (molarity), mol/dm3	uncertainty
373	720	0	0.01
373	1290	0	0.01
373	1840	0	0.01
373	2100	0	0.01
373	2390	0	0.01
373	2560	0	0.01
373	2640	0	0.01
373	3050	0	0.01
373	3280	0	0.01
373	3490	0	0.01
373	3600	0	0.01
373	3730	0	0.01
373	3880	0	0.01
373	4030	0	0.01
373	4140	0.012	0.006
373	4240	0.013	0.005
373	4320	0.013	0.005
415	600	0	0.01
415	1680	0	0.01
415	2370	0.007	0.005
415	2770	0.006	0.005
415	3300	0.008	0.005
415	4350	0.014	0.005
415	5030	0.025	0.005
415	5190	0.028	0.011
415	5200	0.03	0.011
415	5460	0.038	0.021
415	5470	0.034	0.021
415	5700	0.04	0.005
415	5790	0.045	0.021
415	5800	0.049	0.021
415	5960	0.053	0.006
415	6160	0.065	0.006
415	6260	0.068	0.009
415	6420	0.104	0.007
415	6430	0.098	0.006
415	6440	0.102	0.018
415	6460	0.104	0.01
415	6470	0.087	0.011
415	6550	0.118	0.015
415	6660	0.141	0.015
415	6720	0.168	0.017
415	6760	0.173	0.006
415	6830	0.165	0.017
415	6870	0.215	0.026
415	6970	0.243	0.015
415	6160	0.07	0.006
415	6550	0.12	0.015
415	6660	0.14	0.015
443	1390	0.032	0.005
443	3700	0.03	0.005
443	4260	0.035	0.005
443	5060	0.042	0.005
443	5950	0.064	0.005
443	6180	0.068	0.005
443	6530	0.082	0.006
443	6950	0.106	0.007
443	7140	0.121	0.007
443	7610	0.164	0.009
443	7640	0.168	0.009
443	8100	0.219	0.068
443	8120	0.244	0.068
443	8460	0.355	0.007
443	8510	0.357	0.007

System: propane + naphthalene; phases: Gas, Liquid
Property: Amount concentration (molarity), mol/dm3 (Gas); method: SPECTR
Temperature, K	Pressure, kPa	Amount concentration (molarity), mol/dm3	uncertainty
373	720	0.178	0.017
373	1290	0.356	0.021
373	1840	0.617	0.026
373	2100	0.742	0.028
373	2390	0.89	0.029
373	2560	0.97	0.033
373	2640	1.036	0.045
373	3050	1.261	0.038
373	3280	1.442	0.049
373	3490	1.63	0.046
373	3600	1.67	0.053
373	3730	1.841	0.068
373	3880	2.009	0.039
373	4030	2.191	0.076
373	4140	2.347	0.094
373	4240	2.544	0.106
373	4320	2.691	0.104
415	600	0.108	0.016
415	1680	0.43	0.019
415	2370	0.73	0.024
415	2770	0.882	0.027
415	3300	1.114	0.031
415	4350	1.645	0.042
415	5030	2.114	0.037
415	5190	2.244	0.042
415	5200	2.241	0.042
415	5460	2.451	0.046
415	5470	2.449	0.045
415	5700	2.612	0.064
415	5790	2.747	0.048
415	5800	2.748	0.048
415	5960	2.841	0.074
415	6160	3.137	0.084
415	6260	3.211	0.097
415	6420	3.534	0.146
415	6430	3.428	0.093
415	6440	3.481	0.063
415	6460	3.556	0.15
415	6470	3.518	0.1
415	6550	3.65	0.11
415	6660	3.851	0.138
415	6720	4.072	0.17
415	6760	4.153	0.111
415	6830	4.253	0.124
415	6870	4.373	0.124
415	6970	4.53	0.114
415	6160	3.136	0.084
415	6550	3.717	0.109
415	6660	3.923	0.142
443	1390	0.369	0.02
443	3700	1.218	0.03
443	4260	1.454	0.034
443	5060	1.841	0.042
443	5950	2.36	0.052
443	6180	2.533	0.055
443	6530	2.736	0.061
443	6950	3.086	0.071
443	7140	3.208	0.074
443	7610	3.627	0.123
443	7640	3.686	0.123
443	8100	4.136	0.143
443	8120	4.181	0.144
443	8460	4.682	0.093
443	8510	4.723	0.093

System: propane + naphthalene; phases: Liquid, Gas
Property: Amount concentration (molarity), mol/dm3 (Liquid); method: SPECTR
Temperature, K	Pressure, kPa	Amount concentration (molarity), mol/dm3	uncertainty
373	720	7.504	0.133
373	1290	7.169	0.129
373	1840	6.724	0.124
373	2100	6.491	0.126
373	2390	6.115	0.129
373	2560	5.798	0.123
373	3050	5.159	0.137
373	3550	3.781	0.163
373	3730	3.109	0.205
373	3880	2.479	0.212
373	3960	2.193	0.307
373	4140	0.974	0.28
373	4240	0.715	0.128
373	4320	0.563	0.108
373	4370	0.477	0.103
415	600	7.498	0.133
415	1680	6.868	0.122
415	2370	6.6	0.116
415	2770	6.382	0.116
415	3300	6.089	0.111
415	4290	5.348	0.111
415	5030	4.586	0.095
415	5700	3.92	0.206
415	5710	3.959	0.207
415	6260	3.139	0.11
415	6830	1.957	2.195
415	6870	0.208	2.204
443	1720	6.997	0.124
443	3700	6.065	0.108
443	4260	5.804	0.104
443	5060	5.381	0.099
443	5950	4.803	0.091
443	6530	4.409	0.09
443	7140	3.862	0.107
443	7610	3.43	0.105
443	8100	2.891	0.108
443	8460	2.395	0.113
443	8550	2.255	0.121
443	8720	1.986	0.12

System: propane + naphthalene; phases: Liquid, Gas
Property: Amount concentration (molarity), mol/dm3 (Liquid); method: SPECTR
Temperature, K	Pressure, kPa	Amount concentration (molarity), mol/dm3	uncertainty
373	720	0.385	0.042
373	1290	0.853	0.056
373	1840	1.578	0.071
373	2100	1.904	0.079
373	2390	2.359	0.098
373	2560	2.723	0.102
373	3050	3.556	0.151
373	3550	5.372	0.213
373	3730	6.152	0.25
373	3880	6.852	0.258
373	3960	7.147	0.23
373	4140	7.802	0.192
373	4240	7.785	0.149
373	4320	7.733	0.154
373	4370	7.658	0.164
415	600	0.186	0.027
415	1680	0.747	0.034
415	2370	1.266	0.036
415	2770	1.519	0.056
415	3300	1.926	0.056
415	4290	2.777	0.085
415	5030	3.711	0.089
415	5700	4.472	0.16
415	5710	4.444	0.16
415	6260	5.26	0.123
415	6830	6.14	2.186
415	6870	4.407	2.178
443	1720	0.677	0.031
443	3700	1.801	0.043
443	4260	2.134	0.05
443	5060	2.66	0.062
443	5950	3.357	0.074
443	6530	3.804	0.084
443	7140	4.372	0.089
443	7610	4.81	0.097
443	8100	5.304	0.105
443	8460	5.664	0.11
443	8550	5.745	0.107
443	8720	5.873	0.109
