Measured thermophysical data. Density, Viscosity, and Excess Properties of Binary Liquid Mixtures of Propylene Carbonate with Polar and Nonpolar Solvents
Source: J. Chem. Eng. Data, 2004, 10.1021/je034204h
Compound 1: 4-methyl-1,3-dioxolan-2-one, C4H6O3, InChI=1S/C4H6O3/c1-3-2-6-4(5)7-3/h3H,2H2,1H3
Compound 2: acetone, C3H6O, InChI=1S/C3H6O/c1-3(2)4/h1-2H3
Compound 3: 1,4-dioxane, C4H8O2, InChI=1S/C4H8O2/c1-2-6-4-3-5-1/h1-4H2
Compound 4: trichloromethane, CHCl3, InChI=1S/CHCl3/c2-1(3)4/h1H
Compound 5: benzene, C6H6, InChI=1S/C6H6/c1-2-4-6-5-3-1/h1-6H
Compound 6: toluene, C7H8, InChI=1S/C7H8/c1-7-5-3-2-4-6-7/h2-6H,1H3
Compound 7: 1,2-dimethylbenzene, C8H10, InChI=1S/C8H10/c1-7-5-3-4-6-8(7)2/h3-6H,1-2H3

System: 4-methyl-1,3-dioxolan-2-one; phases: Liquid
Property: Viscosity, Pa*s (Liquid); method: CAPTUB::UFactor:2
Temperature, K	Pressure, kPa	Viscosity, Pa*s	uncertainty
303.15	101.3	0.0021494	3.47e-05

System: 4-methyl-1,3-dioxolan-2-one; phases: Liquid
Property: Mass density, kg/m3 (Liquid); method: VIBTUB::UFactor:16
Temperature, K	Pressure, kPa	Mass density, kg/m3	uncertainty
303.15	101.3	1194.5	2.3

System: acetone; phases: Liquid
Property: Viscosity, Pa*s (Liquid); method: CAPTUB::UFactor:2
Temperature, K	Pressure, kPa	Viscosity, Pa*s	uncertainty
303.15	101.3	0.0002974	6.4e-06

System: acetone; phases: Liquid
Property: Mass density, kg/m3 (Liquid); method: VIBTUB::UFactor:16
Temperature, K	Pressure, kPa	Mass density, kg/m3	uncertainty
303.15	101.3	782.4	2.4

System: 1,4-dioxane; phases: Liquid
Property: Viscosity, Pa*s (Liquid); method: CAPTUB::UFactor:2
Temperature, K	Pressure, kPa	Viscosity, Pa*s	uncertainty
303.15	101.3	0.0010224	1.73e-05

System: 1,4-dioxane; phases: Liquid
Property: Mass density, kg/m3 (Liquid); method: VIBTUB::UFactor:16
Temperature, K	Pressure, kPa	Mass density, kg/m3	uncertainty
303.15	101.3	1023.3	1

System: trichloromethane; phases: Liquid
Property: Viscosity, Pa*s (Liquid); method: CAPTUB::UFactor:2
Temperature, K	Pressure, kPa	Viscosity, Pa*s	uncertainty
303.15	101.3	0.0005033	9.4e-06

System: trichloromethane; phases: Liquid
Property: Mass density, kg/m3 (Liquid); method: VIBTUB:UFactor:16
Temperature, K	Pressure, kPa	Mass density, kg/m3	uncertainty
303.15	101.3	1460.9	4.4

System: benzene; phases: Liquid
Property: Viscosity, Pa*s (Liquid); method: CAPTUB::UFactor:2
Temperature, K	Pressure, kPa	Viscosity, Pa*s	uncertainty
303.15	101.3	0.000539	1e-05

System: benzene; phases: Liquid
Property: Mass density, kg/m3 (Liquid); method: VIBTUB::UFactor:16
Temperature, K	Pressure, kPa	Mass density, kg/m3	uncertainty
303.15	101.3	865.9	1.8

System: toluene; phases: Liquid
Property: Viscosity, Pa*s (Liquid); method: CAPTUB::UFactor:2
Temperature, K	Pressure, kPa	Viscosity, Pa*s	uncertainty
303.15	101.3	0.0005229	9.7e-06

System: toluene; phases: Liquid
Property: Mass density, kg/m3 (Liquid); method: VIBTUB::UFactor:16
Temperature, K	Pressure, kPa	Mass density, kg/m3	uncertainty
303.15	101.3	860.4	1.8

System: 1,2-dimethylbenzene; phases: Liquid
Property: Viscosity, Pa*s (Liquid); method: CAPTUB::UFactor:2
Temperature, K	Pressure, kPa	Viscosity, Pa*s	uncertainty
303.15	101.3	0.0007272	1.28e-05

System: 1,2-dimethylbenzene; phases: Liquid
Property: Mass density, kg/m3 (Liquid); method: VIBTUB:UFactor:16
Temperature, K	Pressure, kPa	Mass density, kg/m3	uncertainty
303.15	101.3	860.5	8.1

System: acetone + 4-methyl-1,3-dioxolan-2-one; phases: Liquid
Fixed: Temperature, K = 303.15
Fixed: Pressure, kPa = 101.3
Property: Viscosity, Pa*s (Liquid); method: CAPTUB:UFactor:2
Mole fraction of 4-methyl-1,3-dioxolan-2-one	Viscosity, Pa*s	uncertainty
0	0.0002974	6.4e-06
0.088	0.0003518	7.2e-06
0.1784	0.0004187	8.2e-06
0.2713	0.0005016	9.4e-06
0.3668	0.0006038	1.09e-05
0.4647	0.0007316	1.29e-05
0.5657	0.0008959	1.54e-05
0.6697	0.001104	1.85e-05
0.7768	0.0013713	2.26e-05
0.8864	0.00171	2.78e-05
1	0.0021494	3.47e-05

System: acetone + 4-methyl-1,3-dioxolan-2-one; phases: Liquid
Fixed: Temperature, K = 303.15
Fixed: Pressure, kPa = 101.3
Property: Mass density, kg/m3 (Liquid); method: VIBTUB:UFactor:16
Mole fraction of 4-methyl-1,3-dioxolan-2-one	Mass density, kg/m3	uncertainty
0	782.4	2.4
0.088	825.4	2.1
0.1784	869	2
0.2713	912.4	1.4
0.3668	955.2	1.1
0.4647	997.4	0.9
0.5657	1038.1	1.1
0.6697	1077.3	1.4
0.7768	1116.5	1.7
0.8864	1155.5	2
1	1194.5	2.3

System: 4-methyl-1,3-dioxolan-2-one + 1,4-dioxane; phases: Liquid
Fixed: Temperature, K = 303.15
Fixed: Pressure, kPa = 101.3
Property: Viscosity, Pa*s (Liquid); method: CAPTUB:UFactor:2
Mole fraction of 4-methyl-1,3-dioxolan-2-one	Viscosity, Pa*s	uncertainty
0	0.0010224	1.73e-05
0.1007	0.0011004	1.85e-05
0.2012	0.0011837	1.97e-05
0.3015	0.0012726	2.11e-05
0.4017	0.0013686	2.26e-05
0.5017	0.0014715	2.41e-05
0.6015	0.0015824	2.58e-05
0.7018	0.0017063	2.78e-05
0.8014	0.0018444	2.99e-05
0.9008	0.001992	3.2e-05
1	0.0021494	3.47e-05

System: 4-methyl-1,3-dioxolan-2-one + 1,4-dioxane; phases: Liquid
Fixed: Temperature, K = 303.15
Fixed: Pressure, kPa = 101.3
Property: Mass density, kg/m3 (Liquid); method: VIBTUB:UFactor:16
Mole fraction of 4-methyl-1,3-dioxolan-2-one	Mass density, kg/m3	uncertainty
0	1023.3	1
0.1007	1041.4	1.1
0.2012	1059.2	1.2
0.3015	1077	1
0.4017	1094.6	1.5
0.5017	1112	2
0.6015	1129	2
0.7018	1145.7	1.9
0.8014	1162.1	2
0.9008	1178.4	2.2
1	1194.5	2.3

System: trichloromethane + 4-methyl-1,3-dioxolan-2-one; phases: Liquid
Fixed: Temperature, K = 303.15
Fixed: Pressure, kPa = 101.3
Property: Viscosity, Pa*s (Liquid); method: CAPTUB:UFactor:2
Mole fraction of 4-methyl-1,3-dioxolan-2-one	Viscosity, Pa*s	uncertainty
0	0.0005033	9.4e-06
0.0961	0.0005649	1.03e-05
0.1929	0.0006358	1.14e-05
0.2906	0.0007195	1.27e-05
0.3894	0.0008171	1.42e-05
0.4887	0.0009421	1.61e-05
0.5894	0.0010981	1.84e-05
0.6906	0.001287	2.1e-05
0.7925	0.0015203	2.49e-05
0.8962	0.001808	2.9e-05
1	0.0021494	3.47e-05

System: trichloromethane + 4-methyl-1,3-dioxolan-2-one; phases: Liquid
Fixed: Temperature, K = 303.15
Fixed: Pressure, kPa = 101.3
Property: Mass density, kg/m3 (Liquid); method: VIBTUB:UFactor:16
Mole fraction of 4-methyl-1,3-dioxolan-2-one	Mass density, kg/m3	uncertainty
0	1460.9	4.4
0.0961	1435.5	4.2
0.1929	1410.5	4
0.2906	1385.2	3.8
0.3894	1359.6	3.6
0.4887	1333.6	3.4
0.5894	1306.5	3.2
0.6906	1278.4	3
0.7925	1250.4	2.7
0.8962	1222.2	2.5
1	1194.5	2.3

System: benzene + 4-methyl-1,3-dioxolan-2-one; phases: Liquid
Fixed: Temperature, K = 303.15
Fixed: Pressure, kPa = 101.3
Property: Viscosity, Pa*s (Liquid); method: CAPTUB:UFactor:2
Mole fraction of 4-methyl-1,3-dioxolan-2-one	Viscosity, Pa*s	uncertainty
0	0.000539	1e-05
0.1049	0.000616	1.1e-05
0.2087	0.0007019	1.24e-05
0.3114	0.000798	1.4e-05
0.4131	0.0009074	1.55e-05
0.5136	0.0010345	1.75e-05
0.6131	0.0011937	1.99e-05
0.7109	0.0013788	2.27e-05
0.8083	0.0015986	2.61e-05
0.9046	0.0018528	3e-05
1	0.0021494	3.47e-05

System: benzene + 4-methyl-1,3-dioxolan-2-one; phases: Liquid
Fixed: Temperature, K = 303.15
Fixed: Pressure, kPa = 101.3
Property: Mass density, kg/m3 (Liquid); method: VIBTUB:UFactor:16
Mole fraction of 4-methyl-1,3-dioxolan-2-one	Mass density, kg/m3	uncertainty
0	865.9	1.8
0.1049	900.6	1.5
0.2087	935.9	1.3
0.3114	970.5	1
0.4131	1004.4	0.9
0.5136	1037.7	1.1
0.6131	1070.1	1.3
0.7109	1101.8	1.6
0.8083	1133	2
0.9046	1163.9	2.1
1	1194.5	2.3

System: 4-methyl-1,3-dioxolan-2-one + toluene; phases: Liquid
Fixed: Temperature, K = 303.15
Fixed: Pressure, kPa = 101.3
Property: Viscosity, Pa*s (Liquid); method: CAPTUB:UFactor:2
Mole fraction of 4-methyl-1,3-dioxolan-2-one	Viscosity, Pa*s	uncertainty
0	0.0005229	9.7e-06
0.1223	0.0006125	1.11e-05
0.2385	0.0007127	1.26e-05
0.3493	0.000824	1.4e-05
0.4553	0.0009463	1.61e-05
0.5561	0.0010853	1.82e-05
0.6524	0.0012444	2.07e-05
0.7452	0.0014313	2.35e-05
0.8335	0.0016461	2.68e-05
0.9188	0.0018885	3.06e-05
1	0.0021494	3.47e-05

System: 4-methyl-1,3-dioxolan-2-one + toluene; phases: Liquid
Fixed: Temperature, K = 303.15
Fixed: Pressure, kPa = 101.3
Property: Mass density, kg/m3 (Liquid); method: VIBTUB:UFactor:16
Mole fraction of 4-methyl-1,3-dioxolan-2-one	Mass density, kg/m3	uncertainty
0	860.4	1.8
0.1223	894.3	1.6
0.2385	928.2	1.3
0.3493	962.1	1.1
0.4553	996	1
0.5561	1029.5	1
0.6524	1062.6	1.3
0.7452	1095.7	1.5
0.8335	1128.5	1.8
0.9188	1161.6	2
1	1194.5	2.3

System: 1,2-dimethylbenzene + 4-methyl-1,3-dioxolan-2-one; phases: Liquid
Fixed: Temperature, K = 303.15
Fixed: Pressure, kPa = 101.3
Property: Viscosity, Pa*s (Liquid); method: CAPTUB:UFactor:2
Mole fraction of 4-methyl-1,3-dioxolan-2-one	Viscosity, Pa*s	uncertainty
0	0.0007272	1.28e-05
0.1383	0.0008178	1.42e-05
0.2653	0.0009124	1.56e-05
0.3824	0.0010108	1.71e-05
0.4906	0.0011198	1.88e-05
0.5909	0.0012435	2.06e-05
0.6842	0.0013841	2.28e-05
0.7712	0.0015471	2.53e-05
0.8525	0.0017333	2.82e-05
0.9286	0.001937	3.1e-05
1	0.0021494	3.47e-05

System: 1,2-dimethylbenzene + 4-methyl-1,3-dioxolan-2-one; phases: Liquid
Fixed: Temperature, K = 303.15
Fixed: Pressure, kPa = 101.3
Property: Mass density, kg/m3 (Liquid); method: VIBTUB:UFactor:16
Mole fraction of 4-methyl-1,3-dioxolan-2-one	Mass density, kg/m3	uncertainty
0	860.5	1.8
0.1383	895.4	1.6
0.2653	930.2	1.3
0.3824	964.7	1.1
0.4906	998.9	0.8
0.5909	1032.8	1.1
0.6842	1066.3	1.3
0.7712	1099.4	1.6
0.8525	1132	2
0.9286	1163.7	2.1
1	1194.5	2.3
