Measured thermophysical data. Viscosities and Densities of Binary Mixtures of Hexane with 1-Chlorohexane between 293.15 K and 333.15 K
Source: J. Chem. Eng. Data, 2003, 10.1021/je034002l
Compound 1: hexane, C6H14, InChI=1S/C6H14/c1-3-5-6-4-2/h3-6H2,1-2H3, purity 99%
Compound 2: 1-chlorohexane, C6H13Cl, InChI=1S/C6H13Cl/c1-2-3-4-5-6-7/h2-6H2,1H3, purity 99%

System: hexane; phases: Liquid
Fixed: Pressure, kPa = 101.3
Property: Viscosity, Pa*s (Liquid); method: CAPTUB:UFactor:2
Temperature, K	Viscosity, Pa*s	uncertainty
293.15	0.0003163	5e-06
298.15	0.0003036	4.9e-06
303.15	0.0002914	4.7e-06
308.15	0.0002797	4.6e-06
313.15	0.0002685	4.5e-06
318.15	0.000258	4.4e-06
323.15	0.0002482	4.3e-06
328.15	0.0002391	4.2e-06
333.15	0.0002308	4.1e-06

System: hexane; phases: Liquid
Fixed: Pressure, kPa = 101.3
Property: Mass density, kg/m3 (Liquid); method: PYCNOM:UFactor:4
Temperature, K	Mass density, kg/m3	uncertainty
293.15	659.44	0.52
298.15	654.93	0.56
303.15	650.36	0.6
308.15	645.74	0.64
313.15	641.08	0.68
318.15	636.37	0.72
323.15	631.61	0.76
328.15	626.81	0.8
333.15	621.95	0.84

System: 1-chlorohexane; phases: Liquid
Fixed: Pressure, kPa = 101.3
Property: Viscosity, Pa*s (Liquid); method: CAPTUB:UFactor:2
Temperature, K	Viscosity, Pa*s	uncertainty
293.15	0.0007704	1.02e-05
298.15	0.0007173	9.6e-06
303.15	0.0006702	9.1e-06
308.15	0.0006283	8.6e-06
313.15	0.000591	8.2e-06
318.15	0.000558	7.8e-06
323.15	0.0005285	7.5e-06
328.15	0.0005019	7.2e-06
333.15	0.0004778	6.9e-06

System: 1-chlorohexane; phases: Liquid
Fixed: Pressure, kPa = 101.3
Property: Mass density, kg/m3 (Liquid); method: PYCNOM:UFactor:4
Temperature, K	Mass density, kg/m3	uncertainty
293.15	878.52	0.84
298.15	873.75	0.88
303.15	868.98	0.91
308.15	864.21	0.95
313.15	859.44	0.99
318.15	854.67	1.03
323.15	849.9	1.07
328.15	845.12	1.11
333.15	840.35	1.14

System: hexane + 1-chlorohexane; phases: Liquid
Fixed: Pressure, kPa = 101.3
Property: Viscosity, Pa*s (Liquid); method: CAPTUB:UFactor:2
Temperature, K	Mole fraction of 1-chlorohexane	Viscosity, Pa*s	uncertainty
293.15	0	0.0003163	5e-06
293.15	0.1	0.0003403	5.3e-06
293.15	0.15	0.0003532	5.4e-06
293.15	0.2	0.0003669	5.6e-06
293.15	0.3	0.0003965	5.9e-06
293.15	0.5	0.0004691	6.7e-06
293.15	0.7	0.0005662	7.8e-06
293.15	0.9	0.0006932	9.3e-06
293.15	1	0.0007704	1.02e-05
298.15	0	0.0003036	4.9e-06
298.15	0.1	0.0003263	5.1e-06
298.15	0.15	0.0003384	5.2e-06
298.15	0.2	0.000352	5.4e-06
298.15	0.3	0.0003794	5.7e-06
298.15	0.5	0.0004464	6.5e-06
298.15	0.7	0.0005367	7.5e-06
298.15	0.9	0.0006495	8.8e-06
298.15	1	0.0007173	9.6e-06
303.15	0	0.0002914	4.7e-06
303.15	0.1	0.000313	5e-06
303.15	0.15	0.0003245	5.1e-06
303.15	0.2	0.0003377	5.2e-06
303.15	0.3	0.0003632	5.5e-06
303.15	0.5	0.0004254	6.2e-06
303.15	0.7	0.0005094	7.2e-06
303.15	0.9	0.0006103	8.4e-06
303.15	1	0.0006702	9.1e-06
308.15	0	0.0002797	4.6e-06
308.15	0.1	0.0002998	4.8e-06
308.15	0.15	0.0003107	4.9e-06
308.15	0.2	0.0003233	5.1e-06
308.15	0.3	0.0003475	5.4e-06
308.15	0.5	0.0004061	6e-06
308.15	0.7	0.0004844	6.9e-06
308.15	0.9	0.0005754	8e-06
308.15	1	0.0006283	8.6e-06
313.15	0	0.0002685	4.5e-06
313.15	0.1	0.0002881	4.7e-06
313.15	0.15	0.0002985	4.8e-06
313.15	0.2	0.0003109	5e-06
313.15	0.3	0.0003337	5.2e-06
313.15	0.5	0.0003884	5.8e-06
313.15	0.7	0.0004614	6.7e-06
313.15	0.9	0.0005436	7.6e-06
313.15	1	0.000591	8.2e-06
318.15	0	0.000258	4.4e-06
318.15	0.1	0.0002765	4.6e-06
318.15	0.15	0.0002865	4.7e-06
318.15	0.2	0.0002984	4.8e-06
318.15	0.3	0.0003201	5.1e-06
318.15	0.5	0.000372	5.7e-06
318.15	0.7	0.0004402	6.4e-06
318.15	0.9	0.0005152	7.3e-06
318.15	1	0.000558	7.8e-06
323.15	0	0.0002482	4.3e-06
323.15	0.1	0.000266	4.5e-06
323.15	0.15	0.0002755	4.6e-06
323.15	0.2	0.0002868	4.7e-06
323.15	0.3	0.0003076	4.9e-06
323.15	0.5	0.0003569	5.5e-06
323.15	0.7	0.0004208	6.2e-06
323.15	0.9	0.0004899	7e-06
323.15	1	0.0005285	7.5e-06
328.15	0	0.0002391	4.2e-06
328.15	0.1	0.000256	4.3e-06
328.15	0.15	0.0002652	4.4e-06
328.15	0.2	0.0002759	4.6e-06
328.15	0.3	0.0002959	4.8e-06
328.15	0.5	0.0003428	5.3e-06
328.15	0.7	0.0004027	6e-06
328.15	0.9	0.0004666	6.8e-06
328.15	1	0.0005019	7.2e-06
333.15	0	0.0002308	4.1e-06
333.15	0.1	0.0002468	4.2e-06
333.15	0.15	0.0002556	4.3e-06
333.15	0.2	0.0002658	4.5e-06
333.15	0.3	0.0002849	4.7e-06
333.15	0.5	0.0003297	5.2e-06
333.15	0.7	0.0003862	5.8e-06
333.15	0.9	0.0004455	6.5e-06
333.15	1	0.0004778	6.9e-06

System: hexane + 1-chlorohexane; phases: Liquid
Fixed: Pressure, kPa = 101.3
Property: Mass density, kg/m3 (Liquid); method: PYCNOM:UFactor:4
Temperature, K	Mole fraction of 1-chlorohexane	Mass density, kg/m3	uncertainty
293.15	0	659.44	0.52
293.15	0.1	683.01	0.55
293.15	0.15	694.01	0.57
293.15	0.2	706.37	0.58
293.15	0.3	728.21	0.61
293.15	0.5	771.87	0.68
293.15	0.7	815.39	0.74
293.15	0.9	856.91	0.81
293.15	1	878.52	0.84
298.15	0	654.93	0.56
298.15	0.1	678.51	0.59
298.15	0.15	689.61	0.61
298.15	0.2	701.84	0.62
298.15	0.3	723.73	0.65
298.15	0.5	767.36	0.72
298.15	0.7	810.91	0.78
298.15	0.9	852.37	0.84
298.15	1	873.75	0.88
303.15	0	650.36	0.6
303.15	0.1	673.93	0.63
303.15	0.15	685.15	0.65
303.15	0.2	697.27	0.66
303.15	0.3	719.21	0.69
303.15	0.5	762.82	0.76
303.15	0.7	806.39	0.82
303.15	0.9	847.8	0.88
303.15	1	868.98	0.91
308.15	0	645.74	0.64
308.15	0.1	669.37	0.67
308.15	0.15	680.63	0.69
308.15	0.2	692.67	0.7
308.15	0.3	714.64	0.73
308.15	0.5	758.26	0.79
308.15	0.7	801.83	0.86
308.15	0.9	843.21	0.92
308.15	1	864.21	0.95
313.15	0	641.08	0.68
313.15	0.1	664.73	0.71
313.15	0.15	676.04	0.73
313.15	0.2	688.03	0.74
313.15	0.3	710.03	0.77
313.15	0.5	753.66	0.83
313.15	0.7	797.24	0.9
313.15	0.9	838.59	0.96
313.15	1	859.44	0.99
318.15	0	636.37	0.72
318.15	0.1	660.04	0.75
318.15	0.15	671.39	0.77
318.15	0.2	683.36	0.78
318.15	0.3	705.37	0.81
318.15	0.5	749.03	0.87
318.15	0.7	792.61	0.94
318.15	0.9	833.95	1
318.15	1	854.67	1.03
323.15	0	631.61	0.76
323.15	0.1	655.31	0.79
323.15	0.15	666.68	0.81
323.15	0.2	678.65	0.82
323.15	0.3	700.66	0.85
323.15	0.5	744.37	0.91
323.15	0.7	787.95	0.97
323.15	0.9	829.29	1.04
323.15	1	849.9	1.07
328.15	0	626.81	0.8
328.15	0.1	650.53	0.83
328.15	0.15	661.91	0.85
328.15	0.2	673.9	0.86
328.15	0.3	695.91	0.89
328.15	0.5	739.68	0.95
328.15	0.7	783.25	1.01
328.15	0.9	824.61	1.07
328.15	1	845.12	1.11
333.15	0	621.95	0.84
333.15	0.1	645.7	0.87
333.15	0.15	657.07	0.89
333.15	0.2	669.12	0.9
333.15	0.3	691.11	0.93
333.15	0.5	734.96	0.99
333.15	0.7	778.51	1.05
333.15	0.9	819.9	1.11
333.15	1	840.35	1.14
