Measured thermophysical data. Solubility of Niacin in 3-Picoline + Water from (287.65 to 359.15) K
Source: J. Chem. Eng. Data, 2004, 10.1021/je034165+
Compound 1: 3-carboxylpyridine, C6H5NO2, InChI=1S/C6H5NO2/c8-6(9)5-2-1-3-7-4-5/h1-4H,(H,8,9)
Compound 2: 3-methylpyridine, C6H7N, InChI=1S/C6H7N/c1-6-3-2-4-7-5-6/h2-5H,1H3
Compound 3: water, H2O, InChI=1S/H2O/h1H2

System: 3-carboxylpyridine + 3-methylpyridine; phases: Liquid, Crystal
Fixed: Pressure, kPa = 101.325
Property: Mole fraction of 3-carboxylpyridine (Liquid); method: DYNAMIC
Temperature, K	Mole fraction of 3-carboxylpyridine	uncertainty
293.65	0.07918	0.0016
298.45	0.08522	0.00173
304.05	0.09546	0.00193
308.85	0.1026	0.0021
313.15	0.1092	0.0022
317.65	0.117	0.0024
321.75	0.1256	0.0025
327.55	0.1355	0.0027
332.05	0.1433	0.0029
335.35	0.1513	0.0031
340.25	0.1611	0.0033
343.75	0.1688	0.0034
350.65	0.1843	0.0037

System: 3-carboxylpyridine + water; phases: Liquid, Crystal
Fixed: Pressure, kPa = 101.325
Property: Mole fraction of 3-carboxylpyridine (Liquid); method: DYNAMIC
Temperature, K	Mole fraction of 3-carboxylpyridine	uncertainty
297.15	0.002426	6e-05
304.45	0.00298	7.4e-05
311.15	0.00352	8.7e-05
318.15	0.004218	0.000104
325.95	0.005129	0.000127
331.45	0.00585	0.000145
335.65	0.006468	0.00016
340.45	0.007166	0.000178
345.05	0.00796	0.000197

System: 3-carboxylpyridine + 3-methylpyridine + water; phases: Liquid, Crystal
Fixed: Pressure, kPa = 101.325
Property: Mole fraction of 3-carboxylpyridine (Liquid); method: DYNAMIC
Temperature, K	Solvent: Mass fraction of 3-methylpyridine	Mole fraction of 3-carboxylpyridine	uncertainty
287.65	0.05	0.01048	0.00021
291.15	0.1	0.01818	0.00037
291.85	0.05	0.01077	0.00022
292.95	0.4	0.0477	0.00097
295.75	0.8	0.05656	0.00114
297.85	0.05	0.0113	0.00023
297.95	0.4	0.04901	0.00099
298.15	0.1	0.01875	0.00038
298.35	0.8	0.05952	0.0012
304.65	0.1	0.01939	0.00039
305.65	0.05	0.01201	0.00024
305.95	0.4	0.05119	0.00103
307.15	0.8	0.06948	0.0014
309.15	0.1	0.02021	0.00041
312.85	0.05	0.01282	0.00026
313.15	0.4	0.0536	0.00108
316.35	0.8	0.07974	0.00161
318.15	0.1	0.02127	0.00043
320.05	0.4	0.05615	0.00113
320.35	0.05	0.01369	0.00028
323.65	0.8	0.0895	0.00181
324.15	0.1	0.02237	0.00045
325.55	0.05	0.01461	0.00029
326.55	0.4	0.059	0.00119
329.65	0.8	0.09817	0.00199
330.85	0.1	0.0236	0.00048
333.15	0.4	0.06211	0.00125
333.35	0.05	0.01558	0.00031
335.75	0.8	0.1075	0.0022
338.35	0.1	0.02517	0.00051
338.75	0.4	0.0653	0.00132
339.05	0.05	0.01665	0.00034
341.65	0.8	0.1171	0.0024
344.15	0.4	0.06899	0.00139
346.15	0.1	0.0269	0.00054
346.65	0.05	0.01797	0.00036
347.25	0.8	0.1272	0.0026
350.95	0.4	0.07401	0.0015
352.95	0.8	0.1366	0.0028
353.15	0.05	0.01944	0.00039
353.65	0.1	0.02888	0.00058
356.75	0.4	0.07917	0.0016
358.15	0.8	0.1474	0.003
359.15	0.05	0.02104	0.00042
359.15	0.1	0.03095	0.00062
