Measured thermophysical data. Speed-of-Sound Measurements Using Spherical Resonator and Acoustic Virial Coefficients for Gaseous Pentafluoroethane (R125)
Source: J. Chem. Eng. Data, 2004, 10.1021/je034213q
Compound 1: pentafluoroethane, C2HF5, InChI=1S/C2HF5/c3-1(4)2(5,6)7/h1H

System: pentafluoroethane; phases: Gas
Property: Speed of sound, m/s (Gas); method: SPRES:UFactor:0.5
Temperature, K	Pressure, kPa	Speed of sound, m/s	uncertainty
277.164	20.94	144.941	0.197
277.164	40.92	144.494	0.197
277.164	60.65	144.049	0.197
277.164	80.97	143.587	0.196
277.164	101.09	143.127	0.196
277.164	121.01	142.666	0.195
277.164	141.08	142.198	0.195
277.164	161.07	141.727	0.195
277.164	180.84	141.258	0.194
277.164	198.8	140.826	0.194
303.137	10.51	151.496	0.203
303.137	20.76	151.314	0.203
303.137	40.75	150.968	0.202
303.137	60.79	150.621	0.202
303.137	80.27	150.282	0.202
303.137	100.78	149.925	0.202
303.137	120.91	149.571	0.201
303.137	140.84	149.22	0.201
303.137	160.84	148.865	0.201
303.137	180.99	148.505	0.2
303.137	200.32	148.157	0.2
303.137	300.92	146.318	0.198
303.137	398.68	144.475	0.197
303.137	465.23	143.19	0.196
313.152	10.5	153.843	0.205
313.152	20.68	153.683	0.205
313.152	40.59	153.372	0.205
313.152	60.28	153.063	0.204
313.152	80.59	152.743	0.204
313.152	100.57	152.427	0.204
313.152	120.77	152.106	0.203
313.152	140.78	151.786	0.203
313.152	160.71	151.466	0.203
313.152	180.78	151.142	0.203
313.152	200.47	150.822	0.202
313.152	300.67	149.175	0.201
313.152	400.7	147.489	0.199
313.152	480.34	146.116	0.198
323.143	10.7	156.16	0.207
323.143	20.42	156.018	0.207
323.143	40.64	155.73	0.207
323.143	60.8	155.442	0.206
323.143	80.84	155.155	0.206
323.143	100.74	154.869	0.206
323.143	120.86	154.579	0.206
323.143	140.92	154.288	0.205
323.143	160.95	153.997	0.205
323.143	180.33	153.713	0.205
323.143	200.71	153.412	0.205
323.143	300.75	151.926	0.203
323.143	400.83	150.409	0.202
323.143	501.38	148.851	0.201
343.135	40.76	160.332	0.211
343.135	60.62	160.094	0.21
343.135	80.21	159.86	0.21
343.135	100.97	159.611	0.21
343.135	120.73	159.373	0.21
343.135	140.89	159.13	0.21
343.135	160.51	158.892	0.209
343.135	180.9	158.645	0.209
343.135	197.5	158.442	0.209
343.135	300.29	157.186	0.208
343.135	400.48	155.939	0.207
343.135	500.26	154.681	0.206
343.135	600.3	153.405	0.205
343.141	20.77	160.578	0.211
343.141	40.77	160.336	0.211
343.141	59.94	160.107	0.21
343.141	80.48	159.86	0.21
343.141	100.55	159.619	0.21
343.141	120.9	159.375	0.21
343.141	140.63	159.137	0.21
343.141	160.64	158.896	0.209
343.141	180.84	158.651	0.209
343.141	200.46	158.413	0.209
343.141	300.55	157.187	0.208
343.141	399.77	155.957	0.207
343.141	501.32	154.676	0.206
