Measured thermophysical data. Densities, Excess Molar Volumes at T = (298.15 to 313.15) K, Speeds of Sound, Excess Isentropic Compressibilities, Relative Permittivities and Deviations in Molar Polarizations at T = (298.15 and 308.15) K for Methyl Methacrylate + 2-Butoxyethanol or + Dibutyl Ether + Benzene, + Toluene and + p-Xylene
Source: J. Chem. Eng. Data, 2004, 10.1021/je034022n
Compound 1: methyl methacrylate, C5H8O2, InChI=1S/C5H8O2/c1-4(2)5(6)7-3/h1H2,2-3H3, purity 99%
Compound 2: 2-butoxyethan-1-ol, C6H14O2, InChI=1S/C6H14O2/c1-2-3-5-8-6-4-7/h7H,2-6H2,1H3, purity 99.5%
Compound 3: dibutyl ether, C8H18O, InChI=1S/C8H18O/c1-3-5-7-9-8-6-4-2/h3-8H2,1-2H3, purity 99.8%
Compound 4: benzene, C6H6, InChI=1S/C6H6/c1-2-4-6-5-3-1/h1-6H, purity 99.5%
Compound 5: toluene, C7H8, InChI=1S/C7H8/c1-7-5-3-2-4-6-7/h2-6H,1H3, purity 99.5%
Compound 6: 1,4-dimethylbenzene, C8H10, InChI=1S/C8H10/c1-7-3-5-8(2)6-4-7/h3-6H,1-2H3, purity 99.5%

System: methyl methacrylate; phases: Liquid
Fixed: Pressure, kPa = 101.325
Property: Speed of sound, m/s (Liquid); method: LVPAI:UFactor:4
Temperature, K	Speed of sound, m/s	uncertainty
298.15	1181	5
308.15	1153	5

System: methyl methacrylate; phases: Liquid
Fixed: Pressure, kPa = 101.325
Property: Mass density, kg/m3 (Liquid); method: VIBTUB:UFactor:16
Temperature, K	Mass density, kg/m3	uncertainty
298.15	937.63	0.92
303.15	931.74	0.96
308.15	925.74	1
313.15	920.26	1.03

System: 2-butoxyethan-1-ol; phases: Liquid
Fixed: Pressure, kPa = 101.325
Property: Speed of sound, m/s (Liquid); method: LVPAI:UFactor:4
Temperature, K	Speed of sound, m/s	uncertainty
298.15	1304	6
308.15	1285	6

System: 2-butoxyethan-1-ol; phases: Liquid
Fixed: Pressure, kPa = 101.325
Property: Mass density, kg/m3 (Liquid); method: VIBTUB:UFactor:16
Temperature, K	Mass density, kg/m3	uncertainty
298.15	896.25	1.16
303.15	892.03	1.19
308.15	888.91	1.21
313.15	883.4	1.24

System: dibutyl ether; phases: Liquid
Fixed: Pressure, kPa = 101.325
Property: Speed of sound, m/s (Liquid); method: LVPAI:UFactor:4
Temperature, K	Speed of sound, m/s	uncertainty
298.15	1220.1	5.3
308.15	1179	5.2

System: dibutyl ether; phases: Liquid
Fixed: Pressure, kPa = 101.325
Property: Mass density, kg/m3 (Liquid); method: VIBTUB:UFactor:16
Temperature, K	Mass density, kg/m3	uncertainty
298.15	764.07	2
303.15	759.73	2.03
308.15	755.45	2.06
313.15	751.21	2.09

System: benzene; phases: Liquid
Fixed: Pressure, kPa = 101.325
Property: Speed of sound, m/s (Liquid); method: LVPAI:UFactor:4
Temperature, K	Speed of sound, m/s	uncertainty
298.15	1299	6
308.15	1260	5

System: benzene; phases: Liquid
Fixed: Pressure, kPa = 101.325
Property: Mass density, kg/m3 (Liquid); method: VIBTUB:UFactor:16
Temperature, K	Mass density, kg/m3	uncertainty
298.15	873.61	1.31
303.15	868.29	1.34
308.15	862.96	1.37
313.15	857.97	1.41

System: toluene; phases: Liquid
Fixed: Pressure, kPa = 101.325
Property: Speed of sound, m/s (Liquid); method: LVPAI:UFactor:4
Temperature, K	Speed of sound, m/s	uncertainty
298.15	1304	6
308.15	1262	5

System: toluene; phases: Liquid
Fixed: Pressure, kPa = 101.325
Property: Mass density, kg/m3 (Liquid); method: VIBTUB:UFactor:16
Temperature, K	Mass density, kg/m3	uncertainty
298.15	862.2	1.38
303.15	857.55	1.41
308.15	852.86	1.44
313.15	848.16	1.47

System: 1,4-dimethylbenzene; phases: Liquid
Fixed: Pressure, kPa = 101.325
Property: Speed of sound, m/s (Liquid); method: LVPAI:UFactor:4
Temperature, K	Speed of sound, m/s	uncertainty
298.15	1308	6
308.15	1276	6

System: 1,4-dimethylbenzene; phases: Liquid
Fixed: Pressure, kPa = 101.325
Property: Mass density, kg/m3 (Liquid); method: VIBTUB:UFactor:16
Temperature, K	Mass density, kg/m3	uncertainty
298.15	856.62	1.41
303.15	852.25	1.44
308.15	847.88	1.47
313.15	843.64	1.5

System: benzene + methyl methacrylate + 2-butoxyethan-1-ol; phases: Liquid
Fixed: Pressure, kPa = 101.3
Property: Speed of sound, m/s (Liquid); method: LVPAI:UFactor:4
Mole fraction of methyl methacrylate	Mole fraction of 2-butoxyethan-1-ol	Temperature, K	Speed of sound, m/s	uncertainty
0.042	0.102	298.15	1284.7	5.5
0.042	0.102	308.15	1250.2	5.4
0.0775	0.6619	298.15	1296.5	5.6
0.0775	0.6619	308.15	1256.7	5.5
0.0939	0.8598	298.15	1292.9	5.6
0.0939	0.8598	308.15	1267.2	5.5
0.1426	0.7539	298.15	1291.7	5.6
0.1426	0.7539	308.15	1257.4	5.5
0.1431	0.2378	298.15	1278.9	5.5
0.1431	0.2378	308.15	1240.7	5.4
0.1887	0.0986	298.15	1274.3	5.5
0.1887	0.0986	308.15	1239.8	5.4
0.2761	0.527	298.15	1285.3	5.6
0.2761	0.527	308.15	1236.9	5.4
0.3376	0.4522	298.15	1278.5	5.5
0.3376	0.4522	308.15	1228.5	5.4
0.4343	0.1509	298.15	1251.2	5.4
0.4343	0.1509	308.15	1216.1	5.3
0.467	0.0439	298.15	1244.6	5.4
0.467	0.0439	308.15	1215.6	5.3
0.5428	0.2771	298.15	1247.9	5.4
0.5428	0.2771	308.15	1204	5.3
0.6349	0.1038	298.15	1227.1	5.4
0.6349	0.1038	308.15	1195.8	5.3
0.7392	0.1554	298.15	1216.6	5.3
0.7392	0.1554	308.15	1183.2	5.2
0.8413	0.1036	298.15	1201.4	5.3
0.8413	0.1036	308.15	1171.8	5.2

System: benzene + methyl methacrylate + 2-butoxyethan-1-ol; phases: Liquid
Fixed: Pressure, kPa = 101.3
Property: Mass density, kg/m3 (Liquid); method: VIBTUB:UFactor:16
Mole fraction of methyl methacrylate	Mole fraction of 2-butoxyethan-1-ol	Temperature, K	Mass density, kg/m3	uncertainty
0.042	0.102	298.15	878.07	1.26
0.042	0.102	303.15	872.79	1.3
0.042	0.102	308.15	867.7	1.33
0.042	0.102	313.15	862.52	1.36
0.0775	0.6619	298.15	894.6	1.16
0.0775	0.6619	303.15	889.96	1.19
0.0775	0.6619	308.15	886	1.21
0.0775	0.6619	313.15	880.52	1.25
0.0939	0.8598	298.15	898.69	1.14
0.0939	0.8598	303.15	894.29	1.16
0.0939	0.8598	308.15	890.85	1.18
0.0939	0.8598	313.15	885.35	1.22
0.1426	0.7539	298.15	899.53	1.13
0.1426	0.7539	303.15	894.98	1.16
0.1426	0.7539	308.15	891.26	1.18
0.1426	0.7539	313.15	885.77	1.22
0.1431	0.2378	298.15	887.94	1.2
0.1431	0.2378	303.15	882.73	1.24
0.1431	0.2378	308.15	877.83	1.27
0.1431	0.2378	313.15	872.47	1.3
0.1887	0.0986	298.15	887.83	1.2
0.1887	0.0986	303.15	882.43	1.24
0.1887	0.0986	308.15	877.2	1.27
0.1887	0.0986	313.15	871.97	1.3
0.2761	0.527	298.15	902.69	1.11
0.2761	0.527	303.15	897.79	1.14
0.2761	0.527	308.15	893.47	1.17
0.2761	0.527	313.15	887.97	1.2
0.3376	0.4522	298.15	904.75	1.1
0.3376	0.4522	303.15	899.74	1.13
0.3376	0.4522	308.15	895.22	1.16
0.3376	0.4522	313.15	889.73	1.19
0.4343	0.1509	298.15	904.66	1.1
0.4343	0.1509	303.15	899.23	1.14
0.4343	0.1509	308.15	894	1.17
0.4343	0.1509	313.15	888.67	1.2
0.467	0.0439	298.15	905.16	1.1
0.467	0.0439	303.15	899.57	1.14
0.467	0.0439	308.15	894.04	1.17
0.467	0.0439	313.15	888.81	1.2
0.5428	0.2771	298.15	913.78	1.05
0.5428	0.2771	303.15	908.46	1.08
0.5428	0.2771	308.15	903.45	1.11
0.5428	0.2771	313.15	897.98	1.15
0.6349	0.1038	298.15	916.68	1.03
0.6349	0.1038	303.15	911.07	1.07
0.6349	0.1038	308.15	905.56	1.1
0.6349	0.1038	313.15	900.15	1.14
0.7392	0.1554	298.15	923.98	0.99
0.7392	0.1554	303.15	918.4	1.03
0.7392	0.1554	308.15	912.97	1.06
0.7392	0.1554	313.15	907.47	1.09
0.8413	0.1036	298.15	929.52	0.96
0.8413	0.1036	303.15	923.83	1
0.8413	0.1036	308.15	918.2	1.03
0.8413	0.1036	313.15	912.7	1.07

System: methyl methacrylate + toluene + 2-butoxyethan-1-ol; phases: Liquid
Fixed: Pressure, kPa = 101.3
Property: Speed of sound, m/s (Liquid); method: LVPAI:UFactor:4
Mole fraction of methyl methacrylate	Mole fraction of 2-butoxyethan-1-ol	Temperature, K	Speed of sound, m/s	uncertainty
0.0465	0.102	298.15	1299.8	5.6
0.0465	0.102	308.15	1258.7	5.5
0.0985	0.8499	298.15	1293.7	5.6
0.0985	0.8499	308.15	1268.2	5.5
0.1013	0.6437	298.15	1302.3	5.6
0.1013	0.6437	308.15	1260.1	5.5
0.1391	0.2469	298.15	1296.4	5.6
0.1391	0.2469	308.15	1251.4	5.4
0.146	0.7495	298.15	1292.7	5.6
0.146	0.7495	308.15	1260	5.5
0.194	0.0962	298.15	1287.7	5.6
0.194	0.0962	308.15	1248.6	5.4
0.2355	0.5771	298.15	1290.4	5.6
0.2355	0.5771	308.15	1246.7	5.4
0.3463	0.4459	298.15	1280.1	5.5
0.3463	0.4459	308.15	1232.8	5.4
0.3772	0.0516	298.15	1265.2	5.5
0.3772	0.0516	308.15	1230	5.4
0.4348	0.1401	298.15	1260.8	5.5
0.4348	0.1401	308.15	1222	5.4
0.5255	0.3257	298.15	1253.5	5.5
0.5255	0.3257	308.15	1211.2	5.3
0.6432	0.0955	298.15	1232.5	5.4
0.6432	0.0955	308.15	1197.4	5.3
0.7444	0.1514	298.15	1218.3	5.4
0.7444	0.1514	308.15	1184.1	5.2
0.832	0.0972	298.15	1204.6	5.3
0.832	0.0972	308.15	1173.5	5.2

System: methyl methacrylate + toluene + 2-butoxyethan-1-ol; phases: Liquid
Fixed: Pressure, kPa = 101.3
Property: Mass density, kg/m3 (Liquid); method: VIBTUB:UFactor:16
Mole fraction of methyl methacrylate	Mole fraction of 2-butoxyethan-1-ol	Temperature, K	Mass density, kg/m3	uncertainty
0.0465	0.102	298.15	869.06	1.32
0.0465	0.102	303.15	864.39	1.35
0.0465	0.102	308.15	859.93	1.38
0.0465	0.102	313.15	854.96	1.41
0.0985	0.8499	298.15	898.16	1.14
0.0985	0.8499	303.15	893.77	1.17
0.0985	0.8499	308.15	890.37	1.19
0.0985	0.8499	313.15	884.82	1.22
0.1013	0.6437	298.15	892.68	1.17
0.1013	0.6437	303.15	888.14	1.2
0.1013	0.6437	308.15	884.1	1.23
0.1013	0.6437	313.15	878.61	1.26
0.1391	0.2469	298.15	881.45	1.24
0.1391	0.2469	303.15	876.73	1.27
0.1391	0.2469	308.15	872.18	1.3
0.1391	0.2469	313.15	867.01	1.33
0.146	0.7495	298.15	898.46	1.14
0.146	0.7495	303.15	893.96	1.17
0.146	0.7495	308.15	890.28	1.19
0.146	0.7495	313.15	884.74	1.22
0.194	0.0962	298.15	880.37	1.25
0.194	0.0962	303.15	875.63	1.28
0.194	0.0962	308.15	871.09	1.31
0.194	0.0962	313.15	866.13	1.34
0.2355	0.5771	298.15	899.43	1.13
0.2355	0.5771	303.15	894.74	1.16
0.2355	0.5771	308.15	890.53	1.19
0.2355	0.5771	313.15	885.06	1.22
0.3463	0.4459	298.15	903.05	1.11
0.3463	0.4459	303.15	898.18	1.14
0.3463	0.4459	308.15	893.65	1.17
0.3463	0.4459	313.15	888.21	1.2
0.3772	0.0516	298.15	893.13	1.17
0.3772	0.0516	303.15	888.17	1.2
0.3772	0.0516	308.15	883.31	1.24
0.3772	0.0516	313.15	878.31	1.27
0.4348	0.1401	298.15	899.97	1.13
0.4348	0.1401	303.15	894.91	1.16
0.4348	0.1401	308.15	890.03	1.19
0.4348	0.1401	313.15	884.81	1.23
0.5255	0.3257	298.15	912.04	1.06
0.5255	0.3257	303.15	906.9	1.09
0.5255	0.3257	308.15	902.06	1.12
0.5255	0.3257	313.15	896.6	1.16
0.6432	0.0955	298.15	913.87	1.05
0.6432	0.0955	303.15	908.47	1.08
0.6432	0.0955	308.15	903.19	1.12
0.6432	0.0955	313.15	897.84	1.15
0.7444	0.1514	298.15	922.82	1
0.7444	0.1514	303.15	917.32	1.03
0.7444	0.1514	308.15	911.97	1.07
0.7444	0.1514	313.15	906.51	1.1
0.832	0.0972	298.15	927.72	0.97
0.832	0.0972	303.15	922.09	1.01
0.832	0.0972	308.15	916.53	1.04
0.832	0.0972	313.15	911.07	1.07

System: methyl methacrylate + 1,4-dimethylbenzene + 2-butoxyethan-1-ol; phases: Liquid
Fixed: Pressure, kPa = 101.3
Property: Speed of sound, m/s (Liquid); method: LVPAI:UFactor:4
Mole fraction of methyl methacrylate	Mole fraction of 2-butoxyethan-1-ol	Temperature, K	Speed of sound, m/s	uncertainty
0.0446	0.1014	298.15	1302.3	5.6
0.0446	0.1014	308.15	1266.3	5.5
0.0998	0.8513	298.15	1292.8	5.6
0.0998	0.8513	308.15	1266.9	5.5
0.101	0.6399	298.15	1303.5	5.6
0.101	0.6399	308.15	1258.8	5.5
0.1478	0.2456	298.15	1301.4	5.6
0.1478	0.2456	308.15	1252.2	5.5
0.1478	0.7479	298.15	1292.3	5.6
0.1478	0.7479	308.15	1258.4	5.5
0.1977	0.0987	298.15	1291.2	5.6
0.1977	0.0987	308.15	1251.5	5.4
0.245	0.5505	298.15	1293.4	5.6
0.245	0.5505	308.15	1244.8	5.4
0.3419	0.445	298.15	1285.5	5.6
0.3419	0.445	308.15	1233.7	5.4
0.3804	0.051	298.15	1267.9	5.5
0.3804	0.051	308.15	1233.9	5.4
0.442	0.1511	298.15	1269	5.5
0.442	0.1511	308.15	1222.4	5.4
0.5327	0.3172	298.15	1256.5	5.5
0.5327	0.3172	308.15	1211.4	5.3
0.6448	0.0957	298.15	1238.2	5.4
0.6448	0.0957	308.15	1199.9	5.3
0.7473	0.1509	298.15	1221	5.4
0.7473	0.1509	308.15	1185.2	5.3
0.84	0.1096	298.15	1204	5.3
0.84	0.1096	308.15	1172.9	5.2

System: methyl methacrylate + 1,4-dimethylbenzene + 2-butoxyethan-1-ol; phases: Liquid
Fixed: Pressure, kPa = 101.3
Property: Mass density, kg/m3 (Liquid); method: VIBTUB:UFactor:16
Mole fraction of methyl methacrylate	Mole fraction of 2-butoxyethan-1-ol	Temperature, K	Mass density, kg/m3	uncertainty
0.0446	0.1014	298.15	862.88	1.36
0.0446	0.1014	303.15	858.53	1.38
0.0446	0.1014	308.15	854.06	1.41
0.0446	0.1014	313.15	849.58	1.44
0.0998	0.8513	298.15	897.82	1.14
0.0998	0.8513	303.15	893.45	1.17
0.0998	0.8513	308.15	889.99	1.19
0.0998	0.8513	313.15	883.6	1.23
0.101	0.6399	298.15	889.92	1.19
0.101	0.6399	303.15	885.46	1.22
0.101	0.6399	308.15	881.58	1.24
0.101	0.6399	313.15	875.79	1.28
0.1478	0.2456	298.15	876.06	1.28
0.1478	0.2456	303.15	871.56	1.3
0.1478	0.2456	308.15	867.03	1.33
0.1478	0.2456	313.15	861.95	1.36
0.1478	0.7479	298.15	897.41	1.14
0.1478	0.7479	303.15	892.95	1.17
0.1478	0.7479	308.15	889.25	1.2
0.1478	0.7479	313.15	883.6	1.23
0.1977	0.0987	298.15	873.66	1.29
0.1977	0.0987	303.15	869.16	1.32
0.1977	0.0987	308.15	864.43	1.35
0.1977	0.0987	313.15	859.75	1.38
0.245	0.5505	298.15	896.73	1.15
0.245	0.5505	303.15	892.05	1.18
0.245	0.5505	308.15	887.9	1.2
0.245	0.5505	313.15	882.21	1.24
0.3419	0.445	298.15	899.8	1.13
0.3419	0.445	303.15	894.94	1.16
0.3419	0.445	308.15	890.52	1.19
0.3419	0.445	313.15	884.92	1.23
0.3804	0.051	298.15	886.15	1.22
0.3804	0.051	303.15	881.25	1.25
0.3804	0.051	308.15	876.24	1.28
0.3804	0.051	313.15	871.45	1.31
0.442	0.1511	298.15	895.21	1.16
0.442	0.1511	303.15	890.19	1.19
0.442	0.1511	308.15	885.19	1.22
0.442	0.1511	313.15	880.12	1.26
0.5327	0.3172	298.15	910.02	1.07
0.5327	0.3172	303.15	904.9	1.1
0.5327	0.3172	308.15	900.06	1.13
0.5327	0.3172	313.15	894.59	1.17
0.6448	0.0957	298.15	910.16	1.07
0.6448	0.0957	303.15	904.95	1.11
0.6448	0.0957	308.15	899.58	1.14
0.6448	0.0957	313.15	894.4	1.17
0.7473	0.1509	298.15	921.49	1.01
0.7473	0.1509	303.15	916.17	1.04
0.7473	0.1509	308.15	910.78	1.07
0.7473	0.1509	313.15	905.39	1.11
0.84	0.1096	298.15	927.98	0.97
0.84	0.1096	303.15	922.53	1
0.84	0.1096	308.15	916.94	1.04
0.84	0.1096	313.15	911.51	1.07

System: benzene + methyl methacrylate + dibutyl ether; phases: Liquid
Fixed: Pressure, kPa = 101.3
Property: Speed of sound, m/s (Liquid); method: LVPAI:UFactor:4
Mole fraction of methyl methacrylate	Mole fraction of dibutyl ether	Temperature, K	Speed of sound, m/s	uncertainty
0.041	0.1025	298.15	1275.5	5.5
0.041	0.1025	308.15	1237.9	5.4
0.0781	0.6619	298.15	1223.2	5.4
0.0781	0.6619	308.15	1184.3	5.2
0.0939	0.8598	298.15	1217.7	5.4
0.0939	0.8598	308.15	1178.9	5.2
0.1431	0.7545	298.15	1216.6	5.3
0.1431	0.7545	308.15	1179.4	5.2
0.1524	0.2378	298.15	1252.5	5.5
0.1524	0.2378	308.15	1213.2	5.3
0.1679	0.0445	298.15	1274.4	5.5
0.1679	0.0445	308.15	1238.4	5.4
0.1927	0.0986	298.15	1264.9	5.5
0.1927	0.0986	308.15	1228.5	5.4
0.2761	0.5275	298.15	1215.9	5.3
0.2761	0.5275	308.15	1181.5	5.2
0.3376	0.4522	298.15	1215.9	5.3
0.3376	0.4522	308.15	1181.8	5.2
0.4218	0.1509	298.15	1237.7	5.4
0.4218	0.1509	308.15	1203.2	5.3
0.5428	0.2775	298.15	1211.3	5.3
0.5428	0.2775	308.15	1179	5.2
0.6421	0.1041	298.15	1217.2	5.3
0.6421	0.1041	308.15	1186.9	5.3
0.7425	0.155	298.15	1200.9	5.3
0.7425	0.155	308.15	1171.6	5.2
0.8214	0.103	298.15	1196.2	5.3
0.8214	0.103	308.15	1167.7	5.2

System: benzene + methyl methacrylate + dibutyl ether; phases: Liquid
Fixed: Pressure, kPa = 101.3
Property: Mass density, kg/m3 (Liquid); method: VIBTUB:UFactor:16
Mole fraction of methyl methacrylate	Mole fraction of dibutyl ether	Temperature, K	Mass density, kg/m3	uncertainty
0.041	0.1025	298.15	856.2	1.4
0.041	0.1025	303.15	851	1.43
0.041	0.1025	308.15	845.8	1.46
0.041	0.1025	313.15	840.9	1.5
0.0781	0.6619	298.15	790.55	1.81
0.0781	0.6619	303.15	786.01	1.84
0.0781	0.6619	308.15	781.47	1.87
0.0781	0.6619	313.15	776.97	1.89
0.0939	0.8598	298.15	776.85	1.92
0.0939	0.8598	303.15	772.45	1.95
0.0939	0.8598	308.15	768.06	1.96
0.0939	0.8598	313.15	763.63	2.01
0.1431	0.7545	298.15	786.59	1.84
0.1431	0.7545	303.15	782.13	1.86
0.1431	0.7545	308.15	777.63	1.89
0.1431	0.7545	313.15	773.1	1.92
0.1524	0.2378	298.15	841.34	1.49
0.1524	0.2378	303.15	836.3	1.52
0.1524	0.2378	308.15	831.23	1.56
0.1524	0.2378	313.15	826.38	1.59
0.1679	0.0445	298.15	875.72	1.28
0.1679	0.0445	303.15	870.32	1.31
0.1679	0.0445	308.15	864.88	1.35
0.1679	0.0445	313.15	859.84	1.38
0.1927	0.0986	298.15	866.85	1.33
0.1927	0.0986	303.15	861.55	1.37
0.1927	0.0986	308.15	856.22	1.4
0.1927	0.0986	313.15	851.22	1.43
0.2761	0.5275	298.15	813.24	1.67
0.2761	0.5275	303.15	808.57	1.7
0.2761	0.5275	308.15	803.8	1.73
0.2761	0.5275	313.15	799.03	1.76
0.3376	0.4522	298.15	824.71	1.6
0.3376	0.4522	303.15	819.93	1.63
0.3376	0.4522	308.15	815.03	1.66
0.3376	0.4522	313.15	810.18	1.69
0.4218	0.1509	298.15	872.01	1.31
0.4218	0.1509	303.15	866.72	1.34
0.4218	0.1509	308.15	861.35	1.37
0.4218	0.1509	313.15	856.3	1.4
0.5428	0.2775	298.15	859.56	1.39
0.5428	0.2775	303.15	854.36	1.42
0.5428	0.2775	308.15	849.05	1.45
0.5428	0.2775	313.15	844	1.48
0.6421	0.1041	298.15	894.68	1.17
0.6421	0.1041	303.15	889.07	1.2
0.6421	0.1041	308.15	883.42	1.24
0.6421	0.1041	313.15	878.18	1.27
0.7425	0.155	298.15	892.16	1.19
0.7425	0.155	303.15	886.46	1.22
0.7425	0.155	308.15	880.79	1.26
0.7425	0.155	313.15	875.54	1.29
0.8214	0.103	298.15	906.65	1.1
0.8214	0.103	303.15	900.78	1.14
0.8214	0.103	308.15	894.97	1.17
0.8214	0.103	313.15	889.64	1.2

System: methyl methacrylate + toluene + dibutyl ether; phases: Liquid
Fixed: Pressure, kPa = 101.3
Property: Speed of sound, m/s (Liquid); method: LVPAI:UFactor:4
Mole fraction of methyl methacrylate	Mole fraction of dibutyl ether	Temperature, K	Speed of sound, m/s	uncertainty
0.0457	0.102	298.15	1287.9	5.6
0.0457	0.102	308.15	1248.1	5.4
0.0985	0.8524	298.15	1219.3	5.3
0.0985	0.8524	308.15	1180.4	5.2
0.1027	0.6427	298.15	1229.2	5.4
0.1027	0.6427	308.15	1190	5.3
0.1425	0.2458	298.15	1264.5	5.5
0.1425	0.2458	308.15	1224.5	5.4
0.1457	0.7495	298.15	1219.7	5.3
0.1457	0.7495	308.15	1181.7	5.2
0.1954	0.0972	298.15	1277.1	5.5
0.1954	0.0972	308.15	1238.3	5.4
0.2357	0.5771	298.15	1221.3	5.4
0.2357	0.5771	308.15	1184.3	5.2
0.3463	0.4458	298.15	1221	5.4
0.3463	0.4458	308.15	1184.7	5.2
0.3779	0.0516	298.15	1260.7	5.5
0.3779	0.0516	308.15	1224.4	5.4
0.4365	0.1405	298.15	1246.4	5.4
0.4365	0.1405	308.15	1208.5	5.3
0.5255	0.3257	298.15	1211.9	5.3
0.5255	0.3257	308.15	1178.6	5.2
0.6428	0.0995	298.15	1223.8	5.4
0.6428	0.0995	308.15	1189.5	5.3
0.7521	0.1514	298.15	1203	5.3
0.7521	0.1514	308.15	1171.5	5.2
0.8287	0.0978	298.15	1197.9	5.3
0.8287	0.0978	308.15	1167.4	5.2

System: methyl methacrylate + toluene + dibutyl ether; phases: Liquid
Fixed: Pressure, kPa = 101.3
Property: Mass density, kg/m3 (Liquid); method: VIBTUB:UFactor:16
Mole fraction of methyl methacrylate	Mole fraction of dibutyl ether	Temperature, K	Mass density, kg/m3	uncertainty
0.0457	0.102	298.15	850.79	1.43
0.0457	0.102	303.15	846.18	1.46
0.0457	0.102	308.15	841.56	1.49
0.0457	0.102	313.15	836.93	1.52
0.0985	0.8524	298.15	777.96	1.89
0.0985	0.8524	303.15	773.58	1.92
0.0985	0.8524	308.15	769.2	1.95
0.0985	0.8524	313.15	764.77	1.97
0.1027	0.6427	298.15	795.04	1.78
0.1027	0.6427	303.15	790.59	1.81
0.1027	0.6427	308.15	786.14	1.84
0.1027	0.6427	313.15	781.65	1.87
0.1425	0.2458	298.15	838.51	1.51
0.1425	0.2458	303.15	833.93	1.54
0.1425	0.2458	308.15	829.32	1.57
0.1425	0.2458	313.15	824.7	1.6
0.1457	0.7495	298.15	787.89	1.83
0.1457	0.7495	303.15	783.48	1.85
0.1457	0.7495	308.15	779.02	1.88
0.1457	0.7495	313.15	774.51	1.91
0.1954	0.0972	298.15	862.35	1.36
0.1954	0.0972	303.15	857.69	1.39
0.1954	0.0972	308.15	852.99	1.42
0.1954	0.0972	313.15	848.3	1.45
0.2357	0.5771	298.15	807.3	1.71
0.2357	0.5771	303.15	802.79	1.73
0.2357	0.5771	308.15	798.19	1.76
0.2357	0.5771	313.15	793.53	1.79
0.3463	0.4458	298.15	826.67	1.59
0.3463	0.4458	303.15	822.02	1.62
0.3463	0.4458	308.15	817.22	1.65
0.3463	0.4458	313.15	812.42	1.68
0.3779	0.0516	298.15	882.87	1.24
0.3779	0.0516	303.15	878.97	1.26
0.3779	0.0516	308.15	873	1.3
0.3779	0.0516	313.15	868.13	1.33
0.4365	0.1405	298.15	872.58	1.3
0.4365	0.1405	303.15	867.63	1.33
0.4365	0.1405	308.15	862.59	1.36
0.4365	0.1405	313.15	857.66	1.4
0.5255	0.3257	298.15	851.76	1.43
0.5255	0.3257	303.15	846.75	1.46
0.5255	0.3257	308.15	841.61	1.5
0.5255	0.3257	313.15	836.63	1.53
0.6428	0.0995	298.15	893.46	1.18
0.6428	0.0995	303.15	888.07	1.21
0.6428	0.0995	308.15	882.64	1.24
0.6428	0.0995	313.15	877.49	1.28
0.7521	0.1514	298.15	892.66	1.18
0.7521	0.1514	303.15	887.02	1.22
0.7521	0.1514	308.15	881.43	1.25
0.7521	0.1514	313.15	876.22	1.29
0.8287	0.0978	298.15	907.2	1.1
0.8287	0.0978	303.15	901.39	1.13
0.8287	0.0978	308.15	895.66	1.17
0.8287	0.0978	313.15	890.37	1.2

System: methyl methacrylate + 1,4-dimethylbenzene + dibutyl ether; phases: Liquid
Fixed: Pressure, kPa = 101.3
Property: Speed of sound, m/s (Liquid); method: LVPAI:UFactor:4
Mole fraction of methyl methacrylate	Mole fraction of dibutyl ether	Temperature, K	Speed of sound, m/s	uncertainty
0.0447	0.101	298.15	1291.3	5.6
0.0447	0.101	308.15	1257.8	5.5
0.0992	0.8519	298.15	1220.1	5.3
0.0992	0.8519	308.15	1181.4	5.2
0.1015	0.6394	298.15	1235.6	5.4
0.1015	0.6394	308.15	1195	5.3
0.1471	0.7479	298.15	1221.6	5.4
0.1471	0.7479	308.15	1183.8	5.2
0.1478	0.2456	298.15	1271.3	5.5
0.1478	0.2456	308.15	1228.8	5.4
0.1982	0.0981	298.15	1280	5.5
0.1982	0.0981	308.15	1242.4	5.4
0.245	0.5505	298.15	1227	5.4
0.245	0.5505	308.15	1188.4	5.3
0.3425	0.4455	298.15	1225.9	5.4
0.3425	0.4455	308.15	1187.7	5.3
0.3801	0.051	298.15	1263	5.5
0.3801	0.051	308.15	1228.6	5.4
0.442	0.1511	298.15	1251.2	5.5
0.442	0.1511	308.15	1208.4	5.3
0.5328	0.3165	298.15	1214.7	5.3
0.5328	0.3165	308.15	1180.9	5.2
0.6448	0.0952	298.15	1228.2	5.4
0.6448	0.0952	308.15	1192.2	5.3
0.7425	0.1509	298.15	1206.5	5.3
0.7425	0.1509	308.15	1174.1	5.2
0.8421	0.1091	298.15	1195.7	5.3
0.8421	0.1091	308.15	1165.5	5.2

System: methyl methacrylate + 1,4-dimethylbenzene + dibutyl ether; phases: Liquid
Fixed: Pressure, kPa = 101.3
Property: Mass density, kg/m3 (Liquid); method: VIBTUB:UFactor:16
Mole fraction of methyl methacrylate	Mole fraction of dibutyl ether	Temperature, K	Mass density, kg/m3	uncertainty
0.0447	0.101	298.15	847.22	1.46
0.0447	0.101	303.15	843.09	1.48
0.0447	0.101	308.15	838.22	1.51
0.0447	0.101	313.15	834.28	1.54
0.0992	0.8519	298.15	777.92	1.89
0.0992	0.8519	303.15	773.87	1.91
0.0992	0.8519	308.15	769.49	1.95
0.0992	0.8519	313.15	765.06	1.97
0.1015	0.6394	298.15	795.59	1.78
0.1015	0.6394	303.15	791.58	1.8
0.1015	0.6394	308.15	787.13	1.83
0.1015	0.6394	313.15	782.68	1.86
0.1471	0.7479	298.15	787.9	1.83
0.1471	0.7479	303.15	784.01	1.85
0.1471	0.7479	308.15	779.56	1.88
0.1471	0.7479	313.15	775.05	1.91
0.1478	0.2456	298.15	836.48	1.52
0.1478	0.2456	303.15	832.72	1.55
0.1478	0.2456	308.15	828.1	1.58
0.1478	0.2456	313.15	823.59	1.6
0.1982	0.0981	298.15	856.69	1.4
0.1982	0.0981	303.15	853.14	1.42
0.1982	0.0981	308.15	848.4	1.45
0.1982	0.0981	313.15	843.84	1.48
0.245	0.5505	298.15	809.49	1.69
0.245	0.5505	303.15	805.93	1.72
0.245	0.5505	308.15	801.29	1.74
0.245	0.5505	313.15	796.64	1.77
0.3425	0.4455	298.15	824.72	1.6
0.3425	0.4455	303.15	821.47	1.62
0.3425	0.4455	308.15	816.66	1.65
0.3425	0.4455	313.15	811.89	1.68
0.3801	0.051	298.15	875.14	1.29
0.3801	0.051	303.15	872.15	1.3
0.3801	0.051	308.15	867.12	1.34
0.3801	0.051	313.15	862.38	1.36
0.442	0.1511	298.15	865.79	1.34
0.442	0.1511	303.15	862.95	1.36
0.442	0.1511	308.15	857.86	1.39
0.442	0.1511	313.15	853.03	1.42
0.5328	0.3165	298.15	850.28	1.44
0.5328	0.3165	303.15	847.65	1.46
0.5328	0.3165	308.15	842.49	1.49
0.5328	0.3165	313.15	837.53	1.52
0.6448	0.0952	298.15	888.17	1.21
0.6448	0.0952	303.15	886.25	1.22
0.6448	0.0952	308.15	880.79	1.26
0.6448	0.0952	313.15	875.74	1.29
0.7425	0.1509	298.15	887.28	1.22
0.7425	0.1509	303.15	885.61	1.23
0.7425	0.1509	308.15	880.02	1.26
0.7425	0.1509	313.15	874.86	1.29
0.8421	0.1091	298.15	901.35	1.13
0.8421	0.1091	303.15	900.14	1.14
0.8421	0.1091	308.15	894.38	1.18
0.8421	0.1091	313.15	889.11	1.21
