Measured thermophysical data. Phase Behavior, Densities, and Isothermal Compressibility of CO2 + Pentane and CO2 + Acetone Systems in Various Phase Regions
Source: J. Chem. Eng. Data, 2003, 10.1021/je034087q
Compound 1: carbon dioxide, CO2, InChI=1S/CO2/c2-1-3
Compound 2: pentane, C5H12, InChI=1S/C5H12/c1-3-5-4-2/h3-5H2,1-2H3
Compound 3: acetone, C3H6O, InChI=1S/C3H6O/c1-3(2)4/h1-2H3

System: pentane + carbon dioxide; phases: Liquid, Gas
Property: Critical pressure, kPa (Liquid); method: DIRECT:UFactor:4
Mole fraction of carbon dioxide	Critical pressure, kPa	uncertainty
0.901	8520	100
0.916	8210	100
0.947	7920	100
0.96	7750	100

System: pentane + carbon dioxide; phases: Liquid, Gas
Property: Critical temperature, K (Liquid); method: VISOBSU:UFactor:4
Mole fraction of carbon dioxide	Critical temperature, K	uncertainty
0.901	326.15	0.62
0.916	323.15	0.62
0.947	315.55	0.62
0.96	312.35	0.62

System: pentane + carbon dioxide; phases: Liquid, Gas
Property: Critical density, kg/m3 (Liquid); method: Derived from PVT data
Mole fraction of carbon dioxide	Critical density, kg/m3	uncertainty
0.901	456	11
0.916	451	10
0.947	463	11
0.96	473	11

System: pentane + carbon dioxide; phases: Liquid, Gas
Property: Vapor or sublimation pressure, kPa (Liquid); method: CCELL:UFactor:8
Temperature, K	Mole fraction of carbon dioxide	Vapor or sublimation pressure, kPa	uncertainty
318.15	0.901	7920	200
323.15	0.214	2250	60
323.15	0.36	3620	90
323.15	0.671	6190	150
323.15	0.791	7210	180
323.15	0.87	7940	200
323.15	0.901	8350	210

System: pentane + carbon dioxide; phases: Gas, Liquid
Property: Vapor or sublimation pressure, kPa (Gas); method: CCELL:UFactor:8
Temperature, K	Mole fraction of carbon dioxide	Vapor or sublimation pressure, kPa	uncertainty
323.15	0.939	8220	200
328.15	0.901	8630	210

System: pentane + carbon dioxide; phases: Liquid, Gas
Property: Mass density, kg/m3 (Liquid); method: Other PVT measurement
Temperature, K	Mole fraction of carbon dioxide	Mass density, kg/m3	uncertainty
318.15	0.901	585	2
323.15	0.214	603	2
323.15	0.36	632	2
323.15	0.671	702	2
323.15	0.791	651	2
323.15	0.87	573	2
323.15	0.901	511	2

System: pentane + carbon dioxide; phases: Gas, Liquid
Property: Mass density, kg/m3 (Gas); method: Other PVT measurement
Temperature, K	Mole fraction of carbon dioxide	Mass density, kg/m3	uncertainty
323.15	0.939	350	2
328.15	0.901	428	2

System: pentane + carbon dioxide; phases: Fluid (supercritical or subcritical phases)
Property: Mass density, kg/m3 (Fluid (supercritical or subcritical phases)); method: OTHPVT:UFactor:16
Temperature, K	Mole fraction of carbon dioxide	Pressure, kPa	Mass density, kg/m3	uncertainty
312.35	0.96	7770	475	3
312.35	0.96	7780	479	3
312.35	0.96	7790	482	3
312.35	0.96	7800	488	3
312.35	0.96	7810	491	3
312.35	0.96	7840	501	3
312.35	0.96	7870	511	3
312.35	0.96	7890	522	3
312.35	0.96	7920	532	3
312.35	0.96	7970	544	3
312.35	0.96	8010	556	3
312.35	0.96	8070	568	4
312.35	0.96	8150	581	4
312.35	0.96	8230	594	4
312.35	0.96	8360	608	4
312.35	0.96	8530	624	4
312.35	0.96	8740	639	4
312.35	0.96	9020	656	4
312.35	0.96	9400	674	4
312.35	0.96	9600	686	4
315.55	0.947	7940	466	3
315.55	0.947	7960	472	3
315.55	0.947	7970	475	3
315.55	0.947	8010	484	3
315.55	0.947	8040	492	3
315.55	0.947	8070	502	3
315.55	0.947	8110	512	3
315.55	0.947	8150	522	3
315.55	0.947	8200	532	3
315.55	0.947	8250	543	3
315.55	0.947	8320	555	3
315.55	0.947	8390	566	4
315.55	0.947	8490	578	4
315.55	0.947	8610	592	4
315.55	0.947	8760	605	4
315.55	0.947	8970	620	4
315.55	0.947	9200	635	4
315.55	0.947	9520	650	4
315.55	0.947	9940	666	4
315.55	0.947	10200	676	4
315.55	0.947	10490	684	4
315.55	0.947	10840	695	4
315.55	0.947	11480	711	4
318.15	0.901	7980	590	4
318.15	0.901	8070	594	4
318.15	0.901	8170	600	4
318.15	0.901	8280	606	4
318.15	0.901	8380	613	4
318.15	0.901	8520	619	4
318.15	0.901	8660	625	4
318.15	0.901	8810	631	4
318.15	0.901	8980	638	4
318.15	0.901	9180	644	4
318.15	0.901	9400	651	4
318.15	0.901	9440	654	4
318.15	0.901	9550	656	4
318.15	0.901	9720	661	4
318.15	0.901	9910	666	4
318.15	0.901	10010	669	4
318.15	0.901	10130	670	4
318.15	0.901	10260	674	4
318.15	0.901	10370	677	4
318.15	0.901	10560	680	4
318.15	0.901	10680	683	4
318.15	0.901	10880	685	4
318.15	0.901	11070	689	4
318.15	0.901	11290	694	4
318.15	0.901	11490	697	4
318.15	0.901	11650	698	4
318.15	0.901	11890	702	4
318.15	0.901	12110	705	4
318.15	0.901	12380	710	4
318.15	0.901	12600	713	4
318.15	0.901	12940	716	4
318.15	0.901	13280	722	5
318.15	0.901	13690	727	5
318.15	0.901	13870	728	5
318.15	0.901	14050	732	5
318.15	0.901	14410	734	5
318.15	0.901	14620	736	5
318.15	0.901	14900	738	5
323.15	0.214	2500	607	4
323.15	0.214	2770	612	4
323.15	0.214	3800	617	4
323.15	0.214	5920	623	4
323.15	0.214	7530	627	4
323.15	0.214	9740	631	4
323.15	0.214	11060	634	4
323.15	0.214	12560	638	4
323.15	0.214	13860	640	4
323.15	0.214	15220	642	4
323.15	0.36	3730	633	4
323.15	0.36	4510	635	4
323.15	0.36	5380	636	4
323.15	0.36	6240	640	4
323.15	0.36	7170	643	4
323.15	0.36	8150	645	4
323.15	0.36	9280	647	4
323.15	0.36	10240	651	4
323.15	0.36	11230	654	4
323.15	0.36	12460	656	4
323.15	0.36	13560	659	4
323.15	0.36	14810	662	4
323.15	0.671	6870	707	4
323.15	0.671	7500	713	4
323.15	0.671	8370	719	4
323.15	0.671	9560	726	5
323.15	0.671	10710	734	5
323.15	0.671	11980	740	5
323.15	0.671	13800	749	5
323.15	0.791	7390	655	4
323.15	0.791	7770	663	4
323.15	0.791	8280	670	4
323.15	0.791	8860	681	4
323.15	0.791	9550	688	4
323.15	0.791	10290	697	4
323.15	0.791	11040	703	4
323.15	0.791	11910	713	4
323.15	0.791	13060	721	5
323.15	0.791	14510	732	5
323.15	0.87	8020	577	4
323.15	0.87	8150	584	4
323.15	0.87	8260	590	4
323.15	0.87	8420	597	4
323.15	0.87	8550	602	4
323.15	0.87	8710	610	4
323.15	0.87	8920	619	4
323.15	0.87	9120	624	4
323.15	0.87	9440	630	4
323.15	0.87	9670	638	4
323.15	0.87	10010	645	4
323.15	0.87	10420	654	4
323.15	0.87	10850	661	4
323.15	0.87	11450	670	4
323.15	0.87	11970	678	4
323.15	0.87	12580	687	4
323.15	0.87	13290	695	4
323.15	0.87	14040	704	4
323.15	0.87	14730	713	4
323.15	0.901	8390	515	3
323.15	0.901	8430	520	3
323.15	0.901	8460	524	3
323.15	0.901	8500	529	3
323.15	0.901	8530	533	3
323.15	0.901	8570	538	3
323.15	0.901	8620	542	3
323.15	0.901	8670	548	3
323.15	0.901	8710	552	3
323.15	0.901	8760	558	4
323.15	0.901	8830	562	4
323.15	0.901	8890	568	4
323.15	0.901	8980	573	4
323.15	0.901	9050	579	4
323.15	0.901	9140	583	4
323.15	0.901	9230	590	4
323.15	0.901	9350	595	4
323.15	0.901	9480	601	4
323.15	0.901	9600	607	4
323.15	0.901	9740	613	4
323.15	0.901	9920	619	4
323.15	0.901	10000	622	4
323.15	0.901	10080	626	4
323.15	0.901	10160	628	4
323.15	0.901	10270	633	4
323.15	0.901	10420	637	4
323.15	0.901	10620	642	4
323.15	0.901	10760	647	4
323.15	0.901	10950	652	4
323.15	0.901	11220	656	4
323.15	0.901	11440	661	4
323.15	0.901	11610	666	4
323.15	0.901	11890	672	4
323.15	0.901	12080	675	4
323.15	0.901	12440	681	4
323.15	0.901	12760	686	4
323.15	0.901	13000	690	4
323.15	0.901	13280	695	4
323.15	0.901	13530	698	4
323.15	0.901	13800	701	4
323.15	0.901	14050	705	4
323.15	0.901	14440	712	4
323.15	0.901	14700	714	4
323.15	0.916	8220	454	3
323.15	0.916	8230	458	3
323.15	0.916	8240	460	3
323.15	0.916	8270	468	3
323.15	0.916	8320	475	3
323.15	0.916	8370	483	3
323.15	0.916	8410	491	3
323.15	0.916	8450	499	3
323.15	0.916	8500	508	3
323.15	0.916	8570	517	3
323.15	0.916	8650	527	3
323.15	0.916	8710	536	3
323.15	0.916	8810	546	3
323.15	0.916	8930	556	3
323.15	0.916	9070	568	4
323.15	0.916	9240	579	4
323.15	0.916	9410	590	4
323.15	0.916	9630	603	4
323.15	0.916	9940	615	4
323.15	0.916	10300	628	4
323.15	0.916	10730	642	4
323.15	0.916	11260	657	4
323.15	0.916	11930	672	4
323.15	0.916	12790	687	4
323.15	0.916	13860	705	4
323.15	0.916	14470	715	4
323.15	0.939	8240	352	2
323.15	0.939	8270	356	2
323.15	0.939	8290	358	2
323.15	0.939	8310	361	2
323.15	0.939	8330	363	2
323.15	0.939	8380	368	2
323.15	0.939	8420	375	2
323.15	0.939	8460	380	2
323.15	0.939	8500	386	2
323.15	0.939	8540	393	2
323.15	0.939	8570	399	3
323.15	0.939	8620	406	3
323.15	0.939	8660	413	3
323.15	0.939	8700	420	3
323.15	0.939	8740	428	3
323.15	0.939	8810	436	3
323.15	0.939	8850	444	3
323.15	0.939	8890	453	3
323.15	0.939	8950	461	3
323.15	0.939	9010	470	3
323.15	0.939	9070	479	3
323.15	0.939	9140	489	3
323.15	0.939	9210	500	3
323.15	0.939	9300	511	3
323.15	0.939	9400	522	3
323.15	0.939	9510	534	3
323.15	0.939	9630	545	3
323.15	0.939	9790	558	4
323.15	0.939	9970	572	4
323.15	0.939	10170	586	4
323.15	0.939	10440	600	4
323.15	0.939	10790	616	4
323.15	0.939	11250	635	4
323.15	0.939	11320	639	4
326.15	0.901	8540	461	3
326.15	0.901	8560	465	3
326.15	0.901	8580	469	3
326.15	0.901	8610	472	3
326.15	0.901	8630	476	3
326.15	0.901	8670	481	3
326.15	0.901	8700	486	3
326.15	0.901	8740	491	3
326.15	0.901	8780	496	3
326.15	0.901	8840	503	3
326.15	0.901	8870	509	3
326.15	0.901	8920	516	3
326.15	0.901	8970	520	3
326.15	0.901	9010	524	3
326.15	0.901	9080	531	3
326.15	0.901	9160	538	3
326.15	0.901	9220	544	3
326.15	0.901	9350	551	3
326.15	0.901	9420	558	4
326.15	0.901	9500	562	4
326.15	0.901	9560	567	4
326.15	0.901	9680	573	4
326.15	0.901	9760	579	4
326.15	0.901	9870	583	4
326.15	0.901	9990	590	4
326.15	0.901	10130	595	4
326.15	0.901	10250	601	4
326.15	0.901	10410	608	4
326.15	0.901	10720	618	4
326.15	0.901	10920	625	4
326.15	0.901	11150	631	4
326.15	0.901	11380	638	4
326.15	0.901	11660	645	4
326.15	0.901	11950	652	4
326.15	0.901	12280	658	4
326.15	0.901	12630	666	4
326.15	0.901	13030	673	4
326.15	0.901	13480	680	4
326.15	0.901	13950	686	4
326.15	0.901	14540	696	4
326.15	0.901	14800	700	4
328.15	0.901	8650	431	3
328.15	0.901	8690	436	3
328.15	0.901	8720	442	3
328.15	0.901	8760	448	3
328.15	0.901	8830	459	3
328.15	0.901	8880	465	3
328.15	0.901	8930	473	3
328.15	0.901	8970	475	3
328.15	0.901	9030	483	3
328.15	0.901	9100	491	3
328.15	0.901	9160	499	3
328.15	0.901	9230	507	3
328.15	0.901	9320	517	3
328.15	0.901	9410	524	3
328.15	0.901	9530	533	3
328.15	0.901	9630	542	3
328.15	0.901	9760	552	3
328.15	0.901	9930	562	4
328.15	0.901	10030	568	4
328.15	0.901	10130	572	4
328.15	0.901	10230	579	4
328.15	0.901	10350	584	4
328.15	0.901	10380	586	4
328.15	0.901	10490	590	4
328.15	0.901	10580	594	4
328.15	0.901	10750	601	4
328.15	0.901	10880	606	4
328.15	0.901	11060	612	4
328.15	0.901	11140	614	4
328.15	0.901	11500	625	4
328.15	0.901	11670	629	4
328.15	0.901	11800	634	4
328.15	0.901	11970	639	4
328.15	0.901	12180	642	4
328.15	0.901	12340	646	4
328.15	0.901	12560	652	4
328.15	0.901	12760	655	4
328.15	0.901	13020	661	4
328.15	0.901	13280	665	4
328.15	0.901	13560	669	4
328.15	0.901	13790	674	4
328.15	0.901	14260	682	4
328.15	0.901	14810	691	4

System: acetone + carbon dioxide; phases: Liquid, Gas
Property: Critical pressure, kPa (Liquid); method: Direct measurement
Mole fraction of carbon dioxide	Critical pressure, kPa	uncertainty
0.902	9940	100
0.909	9790	100
0.933	9150	100
0.948	8940	100

System: acetone + carbon dioxide; phases: Liquid, Gas
Property: Critical temperature, K (Liquid); method: Visual observation in an unstirred cell
Mole fraction of carbon dioxide	Critical temperature, K	uncertainty
0.902	336.35	0.16
0.909	335.15	0.16
0.933	326.65	0.16
0.948	323.15	0.16

System: acetone + carbon dioxide; phases: Liquid, Gas
Property: Critical density, kg/m3 (Liquid); method: Derived from PVT data
Mole fraction of carbon dioxide	Critical density, kg/m3	uncertainty
0.902	524	12
0.909	530	12
0.933	525	12
0.948	531	12

System: acetone + carbon dioxide; phases: Liquid, Gas
Property: Vapor or sublimation pressure, kPa (Liquid); method: CCELL:UFactor:8
Temperature, K	Mole fraction of carbon dioxide	Vapor or sublimation pressure, kPa	uncertainty
318.15	0.902	8000	200
323.15	0.186	1540	40
323.15	0.383	3150	80
323.15	0.576	4980	120
323.15	0.772	6960	170
323.15	0.811	7380	180
323.15	0.882	8160	200
323.15	0.902	8650	210
323.15	0.933	8850	220
328.15	0.902	9260	230
333.15	0.902	9700	240

System: acetone + carbon dioxide; phases: Gas, Liquid
Property: Vapor or sublimation pressure, kPa (Gas); method: CCELL:UFactor:8
Temperature, K	Mole fraction of carbon dioxide	Vapor or sublimation pressure, kPa	uncertainty
323.15	0.952	8960	220
338.15	0.902	10060	250

System: acetone + carbon dioxide; phases: Liquid, Gas
Property: Mass density, kg/m3 (Liquid); method: Other PVT measurement
Temperature, K	Mole fraction of carbon dioxide	Mass density, kg/m3	uncertainty
318.15	0.902	709	2
323.15	0.186	760	2
323.15	0.383	787	2
323.15	0.576	795	2
323.15	0.772	779	2
323.15	0.811	758	2
323.15	0.882	701	2
323.15	0.902	672	2
323.15	0.933	584	2
328.15	0.902	626	2
333.15	0.902	570	2

System: acetone + carbon dioxide; phases: Gas, Liquid
Property: Mass density, kg/m3 (Gas); method: Other PVT measurement
Temperature, K	Mole fraction of carbon dioxide	Mass density, kg/m3	uncertainty
323.15	0.952	492	2
338.15	0.902	508	2

System: acetone + carbon dioxide; phases: Fluid (supercritical or subcritical phases)
Property: Mass density, kg/m3 (Fluid (supercritical or subcritical phases)); method: OTHPVT:UFactor:16
Temperature, K	Mole fraction of carbon dioxide	Pressure, kPa	Mass density, kg/m3	uncertainty
318.15	0.902	8180	715	4
318.15	0.902	8410	722	5
318.15	0.902	8570	726	5
318.15	0.902	8810	732	5
318.15	0.902	8960	735	5
318.15	0.902	9180	738	5
318.15	0.902	9410	744	5
318.15	0.902	9570	746	5
318.15	0.902	9780	751	5
318.15	0.902	9900	754	5
318.15	0.902	10070	756	5
318.15	0.902	10330	757	5
318.15	0.902	10540	763	5
318.15	0.902	10770	766	5
318.15	0.902	10970	770	5
318.15	0.902	11190	774	5
318.15	0.902	11500	776	5
318.15	0.902	11830	781	5
318.15	0.902	12140	785	5
318.15	0.902	12450	789	5
318.15	0.902	12710	793	5
318.15	0.902	13050	795	5
318.15	0.902	13370	798	5
318.15	0.902	13700	803	5
318.15	0.902	14060	807	5
318.15	0.902	14370	809	5
318.15	0.902	14610	812	5
318.15	0.902	14870	815	5
323.15	0.186	1690	764	5
323.15	0.186	2050	767	5
323.15	0.186	2920	770	5
323.15	0.186	4500	772	5
323.15	0.186	6050	775	5
323.15	0.186	7330	777	5
323.15	0.186	8710	781	5
323.15	0.186	10800	785	5
323.15	0.186	12680	788	5
323.15	0.186	14080	789	5
323.15	0.186	14950	791	5
323.15	0.383	4190	789	5
323.15	0.383	5870	795	5
323.15	0.383	7880	800	5
323.15	0.383	9560	803	5
323.15	0.383	11640	806	5
323.15	0.383	13560	813	5
323.15	0.383	14810	817	5
323.15	0.576	5090	798	5
323.15	0.576	6120	802	5
323.15	0.576	7430	810	5
323.15	0.576	8960	813	5
323.15	0.576	10440	818	5
323.15	0.576	11870	825	5
323.15	0.576	13190	829	5
323.15	0.576	15040	834	5
323.15	0.772	7470	783	5
323.15	0.772	7930	787	5
323.15	0.772	8420	792	5
323.15	0.772	8970	796	5
323.15	0.772	9450	798	5
323.15	0.772	9960	803	5
323.15	0.772	10540	807	5
323.15	0.772	11060	811	5
323.15	0.772	11760	815	5
323.15	0.772	12370	818	5
323.15	0.772	13130	823	5
323.15	0.772	13790	827	5
323.15	0.772	14550	831	5
323.15	0.811	7570	760	5
323.15	0.811	7780	764	5
323.15	0.811	7930	769	5
323.15	0.811	8280	774	5
323.15	0.811	8620	778	5
323.15	0.811	9350	787	5
323.15	0.811	9900	790	5
323.15	0.811	10490	796	5
323.15	0.811	10990	801	5
323.15	0.811	11480	805	5
323.15	0.811	11950	807	5
323.15	0.811	12560	813	5
323.15	0.811	13090	818	5
323.15	0.811	13610	821	5
323.15	0.811	14460	826	5
323.15	0.882	8250	703	4
323.15	0.882	8500	712	4
323.15	0.882	8630	716	4
323.15	0.882	8790	719	4
323.15	0.882	8930	721	5
323.15	0.882	9110	728	5
323.15	0.882	9380	732	5
323.15	0.882	9650	736	5
323.15	0.882	9900	743	5
323.15	0.882	10290	748	5
323.15	0.882	10630	754	5
323.15	0.882	10950	761	5
323.15	0.882	11440	764	5
323.15	0.882	11870	769	5
323.15	0.882	12260	779	5
323.15	0.882	12970	785	5
323.15	0.882	13560	791	5
323.15	0.882	14550	800	5
323.15	0.902	8750	678	4
323.15	0.902	8920	683	4
323.15	0.902	9020	687	4
323.15	0.902	9160	690	4
323.15	0.902	9270	694	4
323.15	0.902	9400	699	4
323.15	0.902	9520	702	4
323.15	0.902	9710	707	4
323.15	0.902	9870	711	4
323.15	0.902	10020	715	4
323.15	0.902	10160	719	4
323.15	0.902	10360	722	5
323.15	0.902	10570	727	5
323.15	0.902	10780	733	5
323.15	0.902	11000	736	5
323.15	0.902	11260	740	5
323.15	0.902	11500	744	5
323.15	0.902	11760	751	5
323.15	0.902	12030	754	5
323.15	0.902	12300	757	5
323.15	0.902	12620	762	5
323.15	0.902	12960	769	5
323.15	0.902	13240	771	5
323.15	0.902	13450	775	5
323.15	0.902	13770	776	5
323.15	0.902	14100	781	5
323.15	0.902	14430	785	5
323.15	0.902	14780	789	5
323.15	0.902	15140	792	5
323.15	0.933	8860	586	4
323.15	0.933	8880	590	4
323.15	0.933	8930	594	4
323.15	0.933	8990	601	4
323.15	0.933	9040	606	4
323.15	0.933	9100	613	4
323.15	0.933	9180	618	4
323.15	0.933	9240	624	4
323.15	0.933	9330	630	4
323.15	0.933	9410	637	4
323.15	0.933	9520	642	4
323.15	0.933	9630	649	4
323.15	0.933	9750	656	4
323.15	0.933	9900	664	4
323.15	0.933	10050	669	4
323.15	0.933	10220	678	4
323.15	0.933	10420	684	4
323.15	0.933	10640	693	4
323.15	0.933	10880	699	4
323.15	0.933	11160	707	4
323.15	0.933	11460	714	4
323.15	0.933	11800	724	5
323.15	0.933	12200	731	5
323.15	0.933	12620	740	5
323.15	0.933	13130	748	5
323.15	0.933	13700	758	5
323.15	0.933	14290	767	5
323.15	0.933	14920	777	5
323.15	0.948	9000	540	3
323.15	0.948	9060	549	3
323.15	0.948	9120	559	4
323.15	0.948	9200	568	4
323.15	0.948	9300	579	4
323.15	0.948	9410	590	4
323.15	0.948	9540	602	4
323.15	0.948	9660	613	4
323.15	0.948	9840	625	4
323.15	0.948	10030	638	4
323.15	0.948	10290	651	4
323.15	0.948	10600	666	4
323.15	0.948	10980	679	4
323.15	0.948	11480	696	4
323.15	0.948	12090	711	4
323.15	0.948	12750	727	5
323.15	0.948	13640	744	5
323.15	0.948	14730	762	5
323.15	0.952	8980	495	3
323.15	0.952	9000	497	3
323.15	0.952	9030	502	3
323.15	0.952	9060	505	3
323.15	0.952	9090	510	3
323.15	0.952	9120	514	3
323.15	0.952	9140	519	3
323.15	0.952	9170	523	3
323.15	0.952	9190	527	3
323.15	0.952	9220	531	3
323.15	0.952	9250	537	3
323.15	0.952	9290	541	3
323.15	0.952	9320	546	3
323.15	0.952	9350	550	3
323.15	0.952	9380	556	3
323.15	0.952	9430	561	4
323.15	0.952	9480	567	4
323.15	0.952	9520	571	4
323.15	0.952	9560	578	4
323.15	0.952	9620	582	4
323.15	0.952	9680	588	4
323.15	0.952	9750	594	4
323.15	0.952	9850	603	4
323.15	0.952	9940	611	4
323.15	0.952	10100	623	4
323.15	0.952	10320	636	4
323.15	0.952	10590	649	4
323.15	0.952	10920	663	4
323.15	0.952	11280	678	4
323.15	0.952	11780	694	4
323.15	0.952	12400	710	4
323.15	0.952	13170	726	5
323.15	0.952	14080	744	5
323.15	0.952	14590	751	5
326.65	0.933	9160	528	3
326.65	0.933	9180	531	3
326.65	0.933	9200	535	3
326.65	0.933	9240	540	3
326.65	0.933	9270	544	3
326.65	0.933	9310	549	3
326.65	0.933	9340	553	3
326.65	0.933	9370	559	4
326.65	0.933	9410	563	4
326.65	0.933	9460	569	4
326.65	0.933	9500	574	4
326.65	0.933	9550	579	4
326.65	0.933	9600	584	4
326.65	0.933	9660	590	4
326.65	0.933	9710	594	4
326.65	0.933	9790	601	4
326.65	0.933	9850	606	4
326.65	0.933	9930	612	4
326.65	0.933	10010	617	4
326.65	0.933	10110	625	4
326.65	0.933	10210	630	4
326.65	0.933	10340	637	4
326.65	0.933	10470	643	4
326.65	0.933	10590	650	4
326.65	0.933	10750	656	4
326.65	0.933	10920	663	4
326.65	0.933	11100	670	4
326.65	0.933	11320	677	4
326.65	0.933	11540	684	4
326.65	0.933	11800	691	4
326.65	0.933	12060	699	4
326.65	0.933	12380	708	4
326.65	0.933	12730	715	4
326.65	0.933	13140	723	5
326.65	0.933	13580	731	5
326.65	0.933	14060	741	5
326.65	0.933	14600	749	5
328.15	0.902	9370	632	4
328.15	0.902	9490	640	4
328.15	0.902	9620	645	4
328.15	0.902	9720	650	4
328.15	0.902	9780	654	4
328.15	0.902	9910	657	4
328.15	0.902	10020	662	4
328.15	0.902	10150	669	4
328.15	0.902	10330	673	4
328.15	0.902	10480	679	4
328.15	0.902	10610	684	4
328.15	0.902	10820	688	4
328.15	0.902	11020	695	4
328.15	0.902	11200	700	4
328.15	0.902	11440	705	4
328.15	0.902	11720	711	4
328.15	0.902	11920	716	4
328.15	0.902	12230	721	5
328.15	0.902	12460	727	5
328.15	0.902	12780	733	5
328.15	0.902	12970	737	5
328.15	0.902	13310	739	5
328.15	0.902	13640	748	5
328.15	0.902	13900	748	5
328.15	0.902	14180	754	5
328.15	0.902	14600	758	5
328.15	0.902	14820	761	5
333.15	0.902	9750	573	4
333.15	0.902	9830	579	4
333.15	0.902	9880	582	4
333.15	0.902	9920	585	4
333.15	0.902	9990	590	4
333.15	0.902	10050	594	4
333.15	0.902	10100	599	4
333.15	0.902	10180	603	4
333.15	0.902	10250	607	4
333.15	0.902	10320	610	4
333.15	0.902	10380	614	4
333.15	0.902	10500	619	4
333.15	0.902	10610	626	4
333.15	0.902	10750	631	4
333.15	0.902	10850	636	4
333.15	0.902	10920	641	4
333.15	0.902	11080	646	4
333.15	0.902	11170	650	4
333.15	0.902	11280	654	4
333.15	0.902	11490	660	4
333.15	0.902	11690	666	4
333.15	0.902	11820	671	4
333.15	0.902	12000	676	4
333.15	0.902	12230	682	4
333.15	0.902	12390	687	4
333.15	0.902	12560	690	4
333.15	0.902	12840	697	4
333.15	0.902	13010	700	4
333.15	0.902	13280	705	4
333.15	0.902	13630	711	4
333.15	0.902	13800	716	4
333.15	0.902	13980	719	4
333.15	0.902	14280	723	5
333.15	0.902	14460	726	5
333.15	0.902	14830	733	5
335.15	0.909	9800	532	3
335.15	0.909	9820	535	3
335.15	0.909	9860	539	3
335.15	0.909	9900	543	3
335.15	0.909	9940	548	3
335.15	0.909	10000	551	3
335.15	0.909	10050	558	4
335.15	0.909	10100	562	4
335.15	0.909	10160	567	4
335.15	0.909	10220	572	4
335.15	0.909	10280	578	4
335.15	0.909	10350	583	4
335.15	0.909	10420	589	4
335.15	0.909	10500	593	4
335.15	0.909	10590	599	4
335.15	0.909	10680	604	4
335.15	0.909	10780	611	4
335.15	0.909	10890	616	4
335.15	0.909	11020	623	4
335.15	0.909	11150	628	4
335.15	0.909	11280	635	4
335.15	0.909	11440	640	4
335.15	0.909	11600	648	4
335.15	0.909	11790	653	4
335.15	0.909	12010	661	4
335.15	0.909	12240	667	4
335.15	0.909	12460	675	4
335.15	0.909	12750	681	4
335.15	0.909	13080	691	4
335.15	0.909	13400	697	4
335.15	0.909	13770	706	4
335.15	0.909	14150	711	4
335.15	0.909	14600	721	5
336.35	0.902	9960	531	3
336.35	0.902	10000	535	3
336.35	0.902	10030	538	3
336.35	0.902	10080	542	3
336.35	0.902	10110	545	3
336.35	0.902	10150	547	3
336.35	0.902	10190	551	3
336.35	0.902	10230	555	3
336.35	0.902	10260	558	4
336.35	0.902	10310	561	4
336.35	0.902	10360	566	4
336.35	0.902	10390	569	4
336.35	0.902	10450	573	4
336.35	0.902	10540	579	4
336.35	0.902	10610	583	4
336.35	0.902	10710	590	4
336.35	0.902	10810	595	4
336.35	0.902	10910	602	4
336.35	0.902	11020	606	4
336.35	0.902	11100	611	4
336.35	0.902	11200	616	4
336.35	0.902	11320	620	4
336.35	0.902	11420	625	4
336.35	0.902	11570	631	4
336.35	0.902	11700	638	4
336.35	0.902	11790	641	4
336.35	0.902	11950	645	4
336.35	0.902	12080	649	4
336.35	0.902	12210	654	4
336.35	0.902	12400	659	4
336.35	0.902	12570	663	4
336.35	0.902	12710	668	4
336.35	0.902	12940	673	4
336.35	0.902	13140	678	4
336.35	0.902	13320	684	4
336.35	0.902	13580	688	4
336.35	0.902	13900	694	4
336.35	0.902	14180	701	4
336.35	0.902	14450	706	4
336.35	0.902	14700	710	4
336.35	0.902	14920	715	4
338.15	0.902	10080	511	3
338.15	0.902	10110	515	3
338.15	0.902	10180	520	3
338.15	0.902	10230	524	3
338.15	0.902	10280	529	3
338.15	0.902	10340	533	3
338.15	0.902	10380	538	3
338.15	0.902	10430	542	3
338.15	0.902	10500	548	3
338.15	0.902	10560	552	3
338.15	0.902	10640	558	4
338.15	0.902	10710	563	4
338.15	0.902	10780	569	4
338.15	0.902	10860	573	4
338.15	0.902	10910	581	4
338.15	0.902	10980	584	4
338.15	0.902	11080	590	4
338.15	0.902	11200	595	4
338.15	0.902	11280	600	4
338.15	0.902	11350	603	4
338.15	0.902	11420	606	4
338.15	0.902	11510	610	4
338.15	0.902	11590	615	4
338.15	0.902	11630	616	4
338.15	0.902	11710	619	4
338.15	0.902	11790	622	4
338.15	0.902	11880	627	4
338.15	0.902	11950	629	4
338.15	0.902	12040	632	4
338.15	0.902	12110	634	4
338.15	0.902	12240	640	4
338.15	0.902	12330	642	4
338.15	0.902	12460	646	4
338.15	0.902	12570	651	4
338.15	0.902	12700	654	4
338.15	0.902	12880	659	4
338.15	0.902	13010	663	4
338.15	0.902	13200	668	4
338.15	0.902	13320	671	4
338.15	0.902	13480	675	4
338.15	0.902	13710	680	4
338.15	0.902	13860	684	4
338.15	0.902	14080	689	4
338.15	0.902	14300	693	4
338.15	0.902	14560	699	4
338.15	0.902	14780	700	4
338.15	0.902	15010	705	4
