Measured thermophysical data. Liquid-Solid Phase Equilibria and Thermodynamic Modeling for Binary Organic Carbonates
Source: J. Chem. Eng. Data, 2004, 10.1021/je034134e
Compound 1: ethyl methyl carbonate, C4H8O3, InChI=1S/C4H8O3/c1-3-7-4(5)6-2/h3H2,1-2H3
Compound 2: ethylene carbonate, C3H4O3, InChI=1S/C3H4O3/c4-3-5-1-2-6-3/h1-2H2
Compound 3: dimethyl carbonate, C3H6O3, InChI=1S/C3H6O3/c1-5-3(4)6-2/h1-2H3
Compound 4: diethyl carbonate, C5H10O3, InChI=1S/C5H10O3/c1-3-7-5(6)8-4-2/h3-4H2,1-2H3
Compound 5: 4-methyl-1,3-dioxolan-2-one, C4H6O3, InChI=1S/C4H6O3/c1-3-2-6-4(5)7-3/h3H,2H2,1H3

System: ethyl methyl carbonate; phases: Crystal, Liquid, Air at 1 atmosphere
Property: Molar enthalpy of transition or fusion, kJ/mol (Crystal); method: DSC
Molar enthalpy of transition or fusion, kJ/mol	uncertainty
11.24	0.46

System: ethyl methyl carbonate; phases: Crystal, Liquid, Air at 1 atmosphere
Property: Normal melting temperature, K (Crystal); method: DTA:UFactor:2
Normal melting temperature, K	uncertainty
219.4	1

System: ethyl methyl carbonate; phases: Liquid
Fixed: Pressure, kPa = 101.325
Property: Molar heat capacity at constant pressure, J/K/mol (Liquid); method: Small sample (50 mg) DSC
Temperature, K	Molar heat capacity at constant pressure, J/K/mol	uncertainty
217	164.7	8.56
218	164.7	8.56
219	164.8	8.56
220	165	8.57
221	165.2	8.58
222	165.4	8.59
223	165.4	8.59
224	165.6	8.6
225	165.7	8.61
226	166	8.63
227	166.2	8.64
228	166.4	8.65
229	166.5	8.65
230	166.3	8.64
231	166.4	8.65
232	166.9	8.67
233	167.1	8.68
234	167.3	8.69
235	167.6	8.71
236	167.8	8.72
237	167.9	8.72
238	168.2	8.74
239	168.4	8.75
240	168.5	8.76
241	168.7	8.77
242	168.9	8.78
243	169.3	8.8
244	169.5	8.81
245	169.5	8.81
246	170	8.83
247	170.3	8.85
248	170.5	8.86
249	170.5	8.86
250	170.9	8.88
251	171	8.89
252	171.1	8.89
253	171.4	8.91
254	171.8	8.93
255	171.9	8.93
256	172.3	8.95
257	172.7	8.97
258	172.8	8.98
259	172.9	8.98
260	173.2	9
261	173.5	9.02
262	173.7	9.03
263	173.9	9.04
264	174.1	9.05
265	174.5	9.07
266	175	9.09
267	175.2	9.1
268	175.3	9.11
269	175.6	9.12
270	175.9	9.14
271	176.1	9.15
272	176.3	9.16
273	176.6	9.18
274	176.8	9.19
275	177.2	9.21
276	177.6	9.23
277	177.9	9.24
278	177.9	9.24
279	177.9	9.24
280	178.5	9.28
281	178.8	9.29
282	178.9	9.3
283	179.2	9.31
284	179.6	9.33
285	179.8	9.34
286	179.8	9.34
287	180	9.35
288	180.3	9.37
289	180.7	9.39
290	180.6	9.38
291	180.8	9.39
292	181.2	9.42
293	181.5	9.43
294	181.6	9.44
295	181.8	9.45
296	182	9.46
297	182.3	9.47
298	182.5	9.48
299	182.7	9.49
300	182.8	9.5
301	183.1	9.51
302	183.3	9.52
303	183.6	9.54
304	183.8	9.55
305	184.1	9.57
306	184.3	9.58
307	184.5	9.59
308	184.7	9.6
309	184.8	9.6
310	184.8	9.6
311	185.1	9.62
312	185.5	9.64
313	185.8	9.65
314	185.9	9.66
315	186	9.66
316	186.2	9.68
317	186.5	9.69
318	186.7	9.7
319	187	9.72
320	187.1	9.72

System: ethyl methyl carbonate; phases: Crystal
Fixed: Pressure, kPa = 101.325
Property: Molar heat capacity at constant pressure, J/K/mol (Crystal); method: Small sample (50 mg) DSC
Temperature, K	Molar heat capacity at constant pressure, J/K/mol	uncertainty
179	117.7	6.12
180	118.7	6.17
181	119.8	6.23
182	121.1	6.29
183	121.8	6.33
184	122.5	6.37
185	123.4	6.41
186	124.6	6.47
187	125.6	6.53
188	126.1	6.55
189	127.2	6.61
190	128.2	6.66
191	129.1	6.71
192	130.4	6.78
193	131.4	6.83
194	132.5	6.88
195	133.2	6.92
196	134.3	6.98
197	135.4	7.04
198	136.7	7.1
199	138.4	7.19
200	139.7	7.26
201	140.8	7.32
202	142.1	7.38
203	143.4	7.45

System: ethylene carbonate; phases: Crystal, Liquid, Air at 1 atmosphere
Property: Molar enthalpy of transition or fusion, kJ/mol (Crystal); method: DSC:UFactor:2
Molar enthalpy of transition or fusion, kJ/mol	uncertainty
13.02	0.85

System: ethylene carbonate; phases: Crystal, Liquid, Air at 1 atmosphere
Property: Normal melting temperature, K (Crystal); method: DTA:UFactor:2
Normal melting temperature, K	uncertainty
311.2	1

System: ethylene carbonate; phases: Liquid
Fixed: Pressure, kPa = 101.325
Property: Molar heat capacity at constant pressure, J/K/mol (Liquid); method: Small sample (50 mg) DSC
Temperature, K	Molar heat capacity at constant pressure, J/K/mol	uncertainty
288	131.4	6.83
289	131.6	6.84
290	131.9	6.85
291	132.1	6.86
292	132.1	6.86
293	132.3	6.87
294	132.3	6.87
295	132.4	6.88
296	132.6	6.89
297	132.7	6.9
298	132.8	6.9
299	132.9	6.91
300	133	6.91
301	133.1	6.92
302	133.3	6.93
303	133.6	6.94
304	133.7	6.95
305	133.7	6.95
306	133.9	6.96
307	134.1	6.97
308	134.2	6.97
309	134.3	6.98
310	134.5	6.99
311	134.6	6.99
312	134.7	7
313	134.8	7
314	134.9	7.01
315	135.1	7.02
316	135.3	7.03
317	135.4	7.04
318	135.5	7.04
319	135.6	7.05
320	135.7	7.05
321	135.9	7.06

System: ethylene carbonate; phases: Crystal
Fixed: Pressure, kPa = 101.325
Property: Molar heat capacity at constant pressure, J/K/mol (Crystal); method: Small sample (50 mg) DSC
Temperature, K	Molar heat capacity at constant pressure, J/K/mol	uncertainty
180	69.78	3.63
181	70.04	3.64
182	70.35	3.66
183	70.59	3.67
184	70.94	3.69
185	71.36	3.71
186	71.73	3.73
187	72.05	3.74
188	72.45	3.76
189	72.67	3.78
190	73.09	3.8
191	73.57	3.82
192	73.84	3.84
193	74.17	3.85
194	74.64	3.88
195	75.08	3.9
196	75.37	3.92
197	75.72	3.93
198	75.96	3.95
199	76.14	3.96
200	76.71	3.99
201	77.18	4.01
202	77.37	4.02
203	77.64	4.03
204	78.01	4.05
205	78.27	4.07
206	78.72	4.09
207	78.85	4.1
208	79.04	4.11
209	79.73	4.14
210	80.18	4.17
211	80.44	4.18
212	80.82	4.2
213	81.11	4.21
214	81.32	4.23
215	81.61	4.24
216	82.12	4.27
217	82.62	4.29
218	82.83	4.3
219	83.12	4.32
220	83.36	4.33
221	83.7	4.35
222	84.01	4.37
223	84.46	4.39
224	84.93	4.41
225	85.21	4.43
226	85.47	4.44
227	85.85	4.46
228	86.2	4.48
229	86.51	4.5
230	86.89	4.51
231	87.33	4.54
232	87.63	4.55
233	87.87	4.57
234	88.09	4.58
235	88.4	4.59
236	88.82	4.62
237	89.3	4.64
238	89.64	4.66
239	89.86	4.67
240	90.13	4.68
241	90.53	4.7
242	90.94	4.73
243	91.27	4.74
244	91.65	4.76
245	92.08	4.78
246	92.36	4.8
247	92.62	4.81
248	93	4.83
249	93.45	4.86
250	93.88	4.88
251	94.32	4.9
252	94.77	4.92
253	95.17	4.95
254	95.4	4.96
255	95.72	4.97
256	96.18	5
257	96.54	5.02
258	96.92	5.04
259	97.42	5.06
260	97.98	5.09
261	98.45	5.12
262	98.83	5.14
263	99.18	5.15
264	99.55	5.17
265	100	5.2
266	100.6	5.23
267	100.9	5.24
268	101.3	5.26
269	101.8	5.29
270	102.3	5.32
271	102.8	5.34
272	103.3	5.37
273	103.8	5.39
274	104.4	5.42
275	104.8	5.45
276	105.3	5.47
277	105.9	5.5
278	106.4	5.53
279	106.8	5.55
280	107.2	5.57
281	107.6	5.59
282	108.1	5.62
283	108.7	5.65
284	109.2	5.67
285	109.7	5.7
286	110.2	5.73
287	110.7	5.75
288	111.2	5.78
289	111.7	5.8
290	112.3	5.84
291	112.9	5.87
292	113.4	5.89
293	114	5.92
294	114.6	5.95
295	115.2	5.99
296	115.9	6.02
297	116.5	6.05
298	116.8	6.07
299	117.6	6.11

System: dimethyl carbonate; phases: Crystal, Liquid, Air at 1 atmosphere
Property: Molar enthalpy of transition or fusion, kJ/mol (Crystal); method: DSC:UFactor:2
Molar enthalpy of transition or fusion, kJ/mol	uncertainty
11.58	0.82

System: dimethyl carbonate; phases: Crystal 1, Liquid, Air at 1 atmosphere
Property: Normal melting temperature, K (Crystal 1); method: DTA:UFactor:2
Normal melting temperature, K	uncertainty
278.2	1

System: dimethyl carbonate; phases: Liquid
Fixed: Pressure, kPa = 101.325
Property: Molar heat capacity at constant pressure, J/K/mol (Liquid); method: Small sample (50 mg) DSC
Temperature, K	Molar heat capacity at constant pressure, J/K/mol	uncertainty
281	162.7	8.45
282	163	8.47
283	163.2	8.48
284	163.4	8.49
285	163.5	8.5
286	163.8	8.51
287	164	8.52
288	164.1	8.53
289	164.1	8.53
290	164.4	8.54
291	164.6	8.55
292	164.8	8.56
293	165	8.57
294	165.3	8.59
295	165.5	8.6
296	165.6	8.6
297	165.8	8.62
298	165.8	8.62
299	165.9	8.62
300	166.3	8.64
301	166.5	8.65
302	166.6	8.66
303	166.7	8.66
304	166.8	8.67
305	167	8.68
306	167.2	8.69
307	167.3	8.69
308	167.5	8.7
309	167.8	8.72
310	167.9	8.72
311	168.1	8.73
312	168.3	8.75
313	168.5	8.76
314	168.8	8.77
315	168.9	8.78
316	169	8.78
317	169.3	8.8
318	169.5	8.81
319	169.6	8.81
320	169.7	8.82

System: dimethyl carbonate; phases: Crystal 1
Fixed: Pressure, kPa = 101.325
Property: Molar heat capacity at constant pressure, J/K/mol (Crystal 1); method: Small sample (50 mg) DSC
Temperature, K	Molar heat capacity at constant pressure, J/K/mol	uncertainty
228	118.2	6.14
229	118.4	6.15
230	118.5	6.16
231	118.7	6.17
232	118.9	6.18
233	119.1	6.19
234	119.3	6.2
235	119.5	6.21
236	119.8	6.22
237	120.2	6.25
238	120.4	6.26
239	120.7	6.27
240	121	6.29
241	121.2	6.3
242	121.5	6.31
243	121.9	6.33
244	122.2	6.35
245	122.6	6.37
246	123	6.39
247	123.3	6.41
248	123.4	6.41
249	123.8	6.43
250	124.1	6.45
251	124.4	6.46
252	124.8	6.48
253	125.2	6.51
254	125.6	6.53
255	125.8	6.54
256	126.2	6.56
257	126.5	6.57
258	127	6.6
259	127.4	6.62
260	127.7	6.64
261	128.1	6.66
262	128.3	6.67
263	128.7	6.69
264	129.2	6.71
265	129.8	6.74
266	130.4	6.78
267	131	6.81
268	131.4	6.83
269	131.6	6.84
270	132.1	6.86
271	132.9	6.91
272	133.6	6.94

System: dimethyl carbonate; phases: Crystal 2
Fixed: Pressure, kPa = 101.325
Property: Molar heat capacity at constant pressure, J/K/mol (Crystal 2); method: Small sample (50 mg) DSC
Temperature, K	Molar heat capacity at constant pressure, J/K/mol	uncertainty
179	112	5.82
180	112.7	5.86
181	113.3	5.89
182	113.9	5.92
183	114.6	5.95
184	115.4	6
185	116	6.03
186	116.6	6.06
187	117.5	6.11
188	118.2	6.14
189	119.1	6.19
190	119.9	6.23
191	120.5	6.26
192	121.2	6.3
193	121.9	6.33
194	122.6	6.37
195	123.3	6.41
196	124.2	6.45
197	124.9	6.49
198	125.5	6.52
199	126.3	6.56
200	127.3	6.61
201	128.2	6.66
202	128.9	6.7
203	129.8	6.74
204	130.7	6.79
205	131.4	6.83
206	132.3	6.87
207	133.3	6.93
208	134.2	6.97
209	135.2	7.03
210	136.4	7.09
211	137.4	7.14
212	138.6	7.2
213	139.8	7.26
214	141.2	7.34
215	142.6	7.41
216	144	7.48
217	145.8	7.58
218	148.1	7.7

System: diethyl carbonate; phases: Crystal 1, Liquid, Air at 1 atmosphere
Property: Molar enthalpy of transition or fusion, kJ/mol (Crystal 1); method: DSC:UFactor:2
Molar enthalpy of transition or fusion, kJ/mol	uncertainty
9.24	0.66

System: diethyl carbonate; phases: Crystal, Liquid, Air at 1 atmosphere
Property: Normal melting temperature, K (Crystal); method: DTA:UFactor:2
Normal melting temperature, K	uncertainty
198.2	1

System: diethyl carbonate; phases: Liquid
Fixed: Pressure, kPa = 101.325
Property: Molar heat capacity at constant pressure, J/K/mol (Liquid); method: Small sample (50 mg) DSC
Temperature, K	Molar heat capacity at constant pressure, J/K/mol	uncertainty
202	197.5	10.26
203	198.3	10.3
204	198.8	10.33
205	198.5	10.31
206	198.6	10.32
207	199.1	10.35
208	199.4	10.36
209	199.8	10.38
210	200.2	10.4
211	200.6	10.42
212	200.8	10.43
213	201	10.44
214	201.3	10.46
215	201.5	10.47
216	201.7	10.48
217	201.8	10.49
218	201.9	10.49
219	202.4	10.52
220	202.8	10.54
221	203	10.55
222	203.4	10.57
223	203.5	10.57
224	203.6	10.58
225	203.9	10.59
226	204.2	10.61
227	204.6	10.63
228	205	10.65
229	205.3	10.67
230	205.5	10.68
231	205.9	10.7
232	206.3	10.72
233	206.6	10.74
234	207.2	10.77
235	207.5	10.78
236	207.6	10.79
237	208	10.81
238	208.4	10.83
239	209	10.86
240	209.4	10.88
241	209.6	10.89
242	209.8	10.9
243	210	10.91
244	210.4	10.93
245	211.1	10.97
246	211.6	11
247	211.6	11
248	211.9	11.01
249	212.2	11.03
250	212.7	11.05
251	213.3	11.08
252	213.4	11.09
253	213.5	11.09
254	214	11.12
255	214.4	11.14
256	214.8	11.16
257	215.1	11.18
258	215.6	11.2
259	215.9	11.22
260	216.2	11.23
261	216.6	11.25
262	216.9	11.27
263	217.1	11.28
264	217.3	11.29
265	217.8	11.32
266	218.3	11.34
267	218.9	11.37
268	219.2	11.39
269	219.4	11.4
270	219.8	11.42
271	220.1	11.44
272	220.5	11.46
273	220.9	11.48
274	221.2	11.49
275	221.6	11.51
276	222	11.54
277	222.4	11.56
278	222.8	11.58
279	223	11.59
280	223.4	11.61
281	223.9	11.63
282	224.3	11.65
283	224.7	11.68
284	225	11.69
285	225.2	11.7
286	225.5	11.72
287	225.9	11.74
288	226.1	11.75
289	226.4	11.76
290	226.8	11.78
291	227.2	11.81
292	227.5	11.82
293	227.8	11.84
294	228.2	11.86
295	228.6	11.88
296	228.9	11.89
297	229.1	11.9
298	229.4	11.92
299	229.8	11.94
300	230.1	11.96
301	230.4	11.97
302	230.5	11.98
303	230.9	12
304	231.3	12.02
305	231.7	12.04
306	232.1	12.06
307	232.3	12.07
308	232.6	12.09
309	232.8	12.1
310	233.2	12.12
311	233.4	12.13
312	233.7	12.14
313	234	12.16
314	234.4	12.18
315	234.8	12.2
316	235	12.21
317	235.1	12.22
318	235.4	12.23
319	235.8	12.25
320	236.2	12.27

System: diethyl carbonate; phases: Crystal
Fixed: Pressure, kPa = 101.325
Property: Molar heat capacity at constant pressure, J/K/mol (Crystal); method: Small sample (50 mg) DSC
Temperature, K	Molar heat capacity at constant pressure, J/K/mol	uncertainty
178	137.8	7.16
179	138.6	7.2
180	139.4	7.24
181	140.1	7.28
182	140.8	7.32
183	141.5	7.35
184	142.3	7.39
185	143	7.43
186	144.1	7.49
187	144.7	7.52
188	145.2	7.54
189	146.1	7.59

System: 4-methyl-1,3-dioxolan-2-one; phases: Crystal, Liquid, Air at 1 atmosphere
Property: Molar enthalpy of transition or fusion, kJ/mol (Crystal); method: DSC:UFactor:2
Molar enthalpy of transition or fusion, kJ/mol	uncertainty
8.96	0.648

System: 4-methyl-1,3-dioxolan-2-one; phases: Crystal, Liquid, Air at 1 atmosphere
Property: Normal melting temperature, K (Crystal); method: DTA:UFactor:2
Normal melting temperature, K	uncertainty
220.3	1

System: 4-methyl-1,3-dioxolan-2-one; phases: Liquid
Fixed: Pressure, kPa = 101.325
Property: Molar heat capacity at constant pressure, J/K/mol (Liquid); method: Small sample (50 mg) DSC
Temperature, K	Molar heat capacity at constant pressure, J/K/mol	uncertainty
181	132.6	6.89
182	132.5	6.88
183	132.2	6.87
184	132.3	6.87
185	132.4	6.88
186	132.5	6.88
187	132.8	6.9
188	133	6.91
189	133.2	6.92
190	133.4	6.93
191	133.5	6.94
192	133.7	6.95
193	133.7	6.95
194	134.1	6.97
195	134.2	6.97
196	134.3	6.98
197	134.5	6.99
198	134.5	6.99
199	134.8	7
200	134.9	7.01
201	135	7.01
202	135.3	7.03
203	135.5	7.04
204	135.5	7.04
205	135.7	7.05
206	135.9	7.06
207	136	7.07
208	136.2	7.08
209	136.3	7.08
210	136.4	7.09
211	136.6	7.1
212	136.8	7.11
213	137	7.12
214	137.3	7.13
215	137.4	7.14
216	137.5	7.14
217	137.7	7.16
218	137.7	7.16
219	137.8	7.16
220	138.1	7.18
221	138.3	7.19
222	138.4	7.19
223	138.5	7.2
224	138.7	7.21
225	138.9	7.22
226	138.9	7.22
227	139.1	7.23
228	139.3	7.24
229	139.5	7.25
230	139.5	7.25
231	139.6	7.25
232	139.8	7.26
233	139.9	7.27
234	140.2	7.29
235	140.4	7.3
236	140.5	7.3
237	140.8	7.32
238	141	7.33
239	141	7.33
240	141.1	7.33
241	141.4	7.35
242	141.6	7.36
243	141.8	7.37
244	142	7.38
245	142.4	7.4
246	142.6	7.41
247	142.7	7.41
248	143	7.43
249	143.1	7.44
250	143.4	7.45
251	143.7	7.47
252	143.9	7.48
253	144.1	7.49
254	144.3	7.5
255	144.5	7.51
256	144.7	7.52
257	145	7.53
258	145.2	7.54
259	145.4	7.56
260	145.7	7.57
261	146	7.59
262	146.2	7.6
263	146.4	7.61
264	146.5	7.61
265	146.8	7.63
266	147.1	7.64
267	147.3	7.65
268	147.6	7.67
269	147.7	7.67
270	147.8	7.68
271	148.2	7.7
272	148.4	7.71
273	148.6	7.72
274	148.8	7.73
275	149.1	7.75
276	149.3	7.76
277	149.6	7.77
278	149.8	7.78
279	149.9	7.79
280	150.1	7.8
281	150.4	7.82
282	150.6	7.83
283	150.8	7.84
284	150.9	7.84
285	151.1	7.85
286	151.3	7.86
287	151.5	7.87
288	151.7	7.88
289	151.8	7.89
290	152	7.9
291	152.3	7.91
292	152.6	7.93
293	152.7	7.93
294	152.8	7.94
295	152.9	7.94
296	153.2	7.96
297	153.4	7.97
298	153.6	7.98
299	153.7	7.99
300	153.9	8
301	154	8
302	154.2	8.01
303	154.5	8.03
304	154.7	8.04
305	154.9	8.05
306	155	8.05
307	155.1	8.06
308	155.3	8.07
309	155.5	8.08
310	155.7	8.09
311	155.9	8.1
312	156	8.11
313	156.2	8.12
314	156.4	8.13
315	156.6	8.14
316	156.7	8.14
317	156.8	8.15
318	157	8.16
319	157.2	8.17
320	157.4	8.18

System: 4-methyl-1,3-dioxolan-2-one; phases: Crystal
Fixed: Pressure, kPa = 101.325
Property: Molar heat capacity at constant pressure, J/K/mol (Crystal); method: Small sample (50 mg) DSC
Temperature, K	Molar heat capacity at constant pressure, J/K/mol	uncertainty
154	76.84	3.99
155	77.52	4.03
156	78.02	4.05
157	78.67	4.09
158	79.44	4.13
159	80.04	4.16
160	80.5	4.18
161	81.02	4.21
162	81.56	4.24
163	82.21	4.27
164	82.56	4.29
165	83.13	4.32
166	83.97	4.36
167	84.47	4.39
168	84.86	4.41
169	85.29	4.43
170	85.75	4.46
171	86.32	4.49
172	86.92	4.52
173	87.48	4.55
174	87.96	4.57
175	88.33	4.59
176	88.68	4.61
177	89.15	4.63
178	89.71	4.66
179	90.03	4.68
180	90.45	4.7
181	90.96	4.73
182	91.35	4.75
183	91.85	4.77
184	92.39	4.8
185	93.04	4.83
186	93.54	4.86
187	93.68	4.87
188	94.09	4.89
189	94.75	4.92
190	95.15	4.94
191	95.43	4.96
192	96.03	4.99
193	96.34	5.01
194	96.7	5.02
195	97.08	5.04
196	97.43	5.06
197	98.12	5.1
198	98.49	5.12
199	98.59	5.12
200	98.75	5.13
201	99.06	5.15
202	99.37	5.16
203	99.82	5.19
204	100.2	5.21
205	100.6	5.23
206	101.1	5.25
207	101.4	5.27
208	101.7	5.28

System: ethylene carbonate + ethyl methyl carbonate; phases: Crystal, Crystal, Liquid, Air at 1 atmosphere
Property: Eutectic temperature, K (Crystal); method: DIROBS
Eutectic temperature, K	uncertainty
218.2	2

System: ethylene carbonate + ethyl methyl carbonate; phases: Liquid, Crystal
Fixed: Pressure, kPa = 101.3
Property: Solid-liquid equilibrium temperature, K (Liquid); method: DTA:UFactor:4
Mole fraction of ethylene carbonate	Solid-liquid equilibrium temperature, K	uncertainty
0.1144	256.4	2
0.1734	266.5	2
0.2296	266.1	2
0.282	273.7	2
0.3393	277.8	2
0.3909	280.8	2
0.4408	281.2	2
0.4924	283.4	2
0.541	285.5	2
0.5907	287.1	2
0.6409	290.1	2
0.688	292.2	2
0.7334	294.8	2
0.7792	296	2
0.8265	299	2
0.8695	301.5	2
0.9128	304.3	2
0.9579	307.6	2
1	311.2	2

System: 4-methyl-1,3-dioxolan-2-one + ethyl methyl carbonate; phases: Crystal, Crystal, Liquid, Air at 1 atmosphere
Property: Eutectic temperature, K (Crystal); method: DIROBS
Eutectic temperature, K	uncertainty
199.8	2

System: 4-methyl-1,3-dioxolan-2-one + ethyl methyl carbonate; phases: Liquid, Crystal
Fixed: Pressure, kPa = 101.3
Property: Solid-liquid equilibrium temperature, K (Liquid); method: DTA:UFactor:4
Mole fraction of ethyl methyl carbonate	Solid-liquid equilibrium temperature, K	uncertainty
0.4008	201.4	2
0.4504	204	2
0.4993	206	2
0.5511	207.9	2
0.5996	209.7	2
0.6485	211.9	2
0.7017	212.8	2
0.7517	214.1	2
0.7995	215.4	2
0.8546	216.8	2
0.8998	217.6	2
0.9513	218.5	2
1	219.4	2

System: dimethyl carbonate + ethyl methyl carbonate; phases: Crystal, Crystal, Liquid, Air at 1 atmosphere
Property: Eutectic temperature, K (Crystal); method: DIROBS
Eutectic temperature, K	uncertainty
209.3	2

System: dimethyl carbonate + ethyl methyl carbonate; phases: Liquid, Crystal
Fixed: Pressure, kPa = 101.3
Property: Solid-liquid equilibrium temperature, K (Liquid); method: DTA:UFactor:4
Mole fraction of dimethyl carbonate	Solid-liquid equilibrium temperature, K	uncertainty
0.2505	215.2	2
0.2984	222.1	2
0.3487	226.8	2
0.4014	233.9	2
0.4958	242.2	2
0.5507	247	2
0.5985	250.8	2
0.6478	254.6	2
0.6978	258.7	2
0.7506	262	2
0.7979	265.5	2
0.8484	268.4	2
0.9006	271.7	2
0.9399	273.7	2
1	277.7	2

System: dimethyl carbonate + ethyl methyl carbonate; phases: Liquid, Crystal
Fixed: Pressure, kPa = 101.3
Property: Solid-liquid equilibrium temperature, K (Liquid); method: DTA:UFactor:4
Mole fraction of dimethyl carbonate	Solid-liquid equilibrium temperature, K	uncertainty
0	219.4	2
0.0492	217.2	2
0.1022	215	2
0.1518	213.4	2

System: diethyl carbonate + ethyl methyl carbonate; phases: Crystal, Crystal, Liquid, Air at 1 atmosphere
Property: Eutectic temperature, K (Crystal); method: DIROBS
Eutectic temperature, K	uncertainty
183.8	2

System: diethyl carbonate + ethyl methyl carbonate; phases: Liquid, Crystal
Fixed: Pressure, kPa = 101.3
Property: Solid-liquid equilibrium temperature, K (Liquid); method: DTA:UFactor:4
Mole fraction of ethyl methyl carbonate	Solid-liquid equilibrium temperature, K	uncertainty
0.3991	191.4	2
0.4513	195	2
0.499	197.1	2
0.5505	199.9	2
0.5989	202.1	2
0.651	204.5	2
0.7001	206.7	2
0.7499	208.4	2
0.8	210.5	2
0.8515	212.8	2
0.9001	215.1	2
0.9516	217.1	2
1	219.4	2

System: diethyl carbonate + ethyl methyl carbonate; phases: Liquid, Crystal
Fixed: Pressure, kPa = 101.3
Property: Solid-liquid equilibrium temperature, K (Liquid); method: DTA:UFactor:4
Mole fraction of ethyl methyl carbonate	Solid-liquid equilibrium temperature, K	uncertainty
0	198.2	2
0.0247	197.3	2
0.052	197.2	2
0.0723	196.1	2
0.1022	194.5	2
0.1251	194.3	2
0.1509	193.5	2
0.1751	192.2	2
0.1994	191.1	2
0.2262	190	2
0.2596	188.9	2

System: ethylene carbonate + dimethyl carbonate; phases: Crystal, Crystal 1, Liquid, Air at 1 atmosphere
Property: Eutectic temperature, K (Crystal); method: DIROBS:Method:DIROBS
Eutectic temperature, K	uncertainty
264.2	2

System: ethylene carbonate + dimethyl carbonate; phases: Liquid, Crystal
Fixed: Pressure, kPa = 101.3
Property: Solid-liquid equilibrium temperature, K (Liquid); method: DTA:UFactor:4
Mole fraction of ethylene carbonate	Solid-liquid equilibrium temperature, K	uncertainty
0.3478	268.4	2
0.4016	271.7	2
0.4505	276	2
0.4987	279.4	2
0.5505	283.8	2
0.6006	286.5	2
0.6513	289.4	2
0.7009	291.6	2
0.7505	295.1	2
0.7988	297.5	2
0.8467	299.8	2
0.8898	303.3	2
0.9499	307.3	2
1	311.2	2

System: ethylene carbonate + dimethyl carbonate; phases: Liquid, Crystal 1
Fixed: Pressure, kPa = 101.3
Property: Solid-liquid equilibrium temperature, K (Liquid); method: DTA:UFactor:4
Mole fraction of ethylene carbonate	Solid-liquid equilibrium temperature, K	uncertainty
0	278.2	2
0.0501	274.8	2
0.077	273.6	2
0.1011	272.7	2
0.1258	271.6	2
0.1515	270.7	2
0.1761	269.4	2
0.2013	268.8	2
0.2246	267.3	2
0.2489	266.4	2
0.2768	265.3	2

System: diethyl carbonate + dimethyl carbonate; phases: Crystal, Crystal 2, Liquid, Air at 1 atmosphere
Property: Eutectic temperature, K (Crystal); method: DIROBS
Eutectic temperature, K	uncertainty
193.2	2

System: diethyl carbonate + dimethyl carbonate; phases: Liquid, Crystal 1
Fixed: Pressure, kPa = 101.3
Property: Solid-liquid equilibrium temperature, K (Liquid); method: DTA:UFactor:4
Mole fraction of dimethyl carbonate	Solid-liquid equilibrium temperature, K	uncertainty
0.3002	221.7	2
0.3484	227.7	2
0.3996	232.2	2
0.4523	238.4	2
0.5	242.4	2
0.5496	247.5	2
0.6008	251	2
0.6495	254.9	2
0.7012	258.3	2
0.7511	261.9	2
0.7998	265.5	2
0.8489	268.9	2
0.8986	271.4	2
0.951	275	2
1	278.2	2

System: diethyl carbonate + dimethyl carbonate; phases: Liquid, Crystal
Fixed: Pressure, kPa = 101.3
Property: Solid-liquid equilibrium temperature, K (Liquid); method: DTA:UFactor:4
Mole fraction of dimethyl carbonate	Solid-liquid equilibrium temperature, K	uncertainty
0	198.2	2
0.0249	198.2	2
0.0506	197.1	2

System: diethyl carbonate + dimethyl carbonate; phases: Liquid, Crystal 2
Fixed: Pressure, kPa = 101.3
Property: Solid-liquid equilibrium temperature, K (Liquid); method: DTA:UFactor:4
Mole fraction of dimethyl carbonate	Solid-liquid equilibrium temperature, K	uncertainty
0.2024	206.9	2
0.2486	214	2

System: 4-methyl-1,3-dioxolan-2-one + dimethyl carbonate; phases: Crystal 2, Crystal, Liquid, Air at 1 atmosphere
Property: Eutectic temperature, K (Crystal 2); method: DIROBS
Eutectic temperature, K	uncertainty
210.2	2

System: 4-methyl-1,3-dioxolan-2-one + dimethyl carbonate; phases: Liquid, Crystal 1
Fixed: Pressure, kPa = 101.3
Property: Solid-liquid equilibrium temperature, K (Liquid); method: DTA:UFactor:4
Mole fraction of dimethyl carbonate	Solid-liquid equilibrium temperature, K	uncertainty
0.2499	225.4	2
0.3003	232.2	2
0.3496	237.7	2
0.4027	243	2
0.4498	246.9	2
0.5011	250.5	2
0.5521	254.6	2
0.6071	257.5	2
0.6621	261.2	2
0.6996	263.2	2
0.7501	265.9	2
0.7993	268.2	2
0.8501	270.6	2
0.8998	272.7	2
0.9491	274.9	2
1	277.2	2

System: 4-methyl-1,3-dioxolan-2-one + dimethyl carbonate; phases: Liquid, Crystal 2
Fixed: Pressure, kPa = 101.3
Property: Solid-liquid equilibrium temperature, K (Liquid); method: DTA:UFactor:4
Mole fraction of dimethyl carbonate	Solid-liquid equilibrium temperature, K	uncertainty
0.1678	211.6	2
0.1998	217.2	2

System: ethylene carbonate + diethyl carbonate; phases: Crystal, Crystal, Liquid, Air at 1 atmosphere
Property: Eutectic temperature, K (Crystal); method: DIROBS
Eutectic temperature, K	uncertainty
196.5	2

System: ethylene carbonate + diethyl carbonate; phases: Liquid, Crystal
Fixed: Pressure, kPa = 101.3
Property: Solid-liquid equilibrium temperature, K (Liquid); method: DTA:UFactor:4
Mole fraction of ethylene carbonate	Solid-liquid equilibrium temperature, K	uncertainty
0.101	268.8	2
0.149	275.3	2
0.2015	278.8	2
0.2479	280.4	2
0.299	282.3	2
0.3507	284.4	2
0.3988	285	2
0.4503	287.5	2
0.5017	290.3	2
0.5499	291.1	2
0.602	292.8	2
0.6498	294.9	2
0.7012	296.6	2
0.7506	298.4	2
0.7995	300.4	2
0.8505	302.8	2
0.893	305	2
0.9506	308.3	2
1	311.2	2

System: ethylene carbonate + 4-methyl-1,3-dioxolan-2-one; phases: Crystal, Crystal, Liquid, Air at 1 atmosphere
Property: Eutectic temperature, K (Crystal); method: DIROBS:Method:DIROBS
Eutectic temperature, K	uncertainty
207.9	2

System: ethylene carbonate + 4-methyl-1,3-dioxolan-2-one; phases: Liquid, Crystal
Fixed: Pressure, kPa = 101.3
Property: Solid-liquid equilibrium temperature, K (Liquid); method: DTA:UFactor:4
Mole fraction of ethylene carbonate	Solid-liquid equilibrium temperature, K	uncertainty
0.3001	253.6	2
0.3498	255.1	2
0.4003	257.1	2
0.4504	265.6	2
0.5005	270.6	2
0.5506	273.9	2
0.5965	279.8	2
0.6499	284	2
0.6999	288.2	2
0.7492	290.8	2
0.7991	294	2
0.8492	297.8	2
0.8995	301.8	2
0.9354	304.6	2
1	311.2	2

System: diethyl carbonate + 4-methyl-1,3-dioxolan-2-one; phases: Crystal, Crystal, Liquid, Air at 1 atmosphere
Property: Eutectic temperature, K (Crystal); method: DIROBS
Eutectic temperature, K	uncertainty
189.6	2

System: diethyl carbonate + 4-methyl-1,3-dioxolan-2-one; phases: Liquid, Crystal
Fixed: Pressure, kPa = 101.3
Property: Solid-liquid equilibrium temperature, K (Liquid); method: DTA:UFactor:4
Mole fraction of diethyl carbonate	Solid-liquid equilibrium temperature, K	uncertainty
0.6499	190.8	2
0.7024	191.9	2
0.7503	192.9	2
0.7984	194.1	2
0.8507	194.7	2
0.8996	195.5	2
0.9659	196.6	2
1	198.2	2
