Measured thermophysical data. Influence of Ionic Liquids on the Phase Behavior of Aqueous Azeotropic Systems
Source: J. Chem. Eng. Data, 2004, 10.1021/je034183r
Compound 1: 1-ethyl-3-methylimidazolium tetrafluoroborate, C6H11BF4N2, InChI=1S/C6H11N2.BF4/c1-3-8-5-4-7(2)6-8;2-1(3,4)5/h4-6H,3H2,1-2H3;/q+1;-1
Compound 2: 1-butyl-3-methylimidazolium tetrafluoroborate, C8H15BF4N2, InChI=1S/C8H15N2.BF4/c1-3-4-5-10-7-6-9(2)8-10;2-1(3,4)5/h6-8H,3-5H2,1-2H3;/q+1;-1
Compound 3: 1-methyl-3-octylimidazolium tetrafluoroborate, C12H23BF4N2, InChI=1S/C12H23N2.BF4/c1-3-4-5-6-7-8-9-14-11-10-13(2)12-14;2-1(3,4)5/h10-12H,3-9H2,1-2H3;/q+1;-1
Compound 4: 1-butyl-3-methylimidazolium chloride, C8H15ClN2, InChI=1S/C8H15N2.ClH/c1-3-4-5-10-7-6-9(2)8-10;/h6-8H,3-5H2,1-2H3;1H/q+1;/p-1
Compound 5: ethanol, C2H6O, InChI=1S/C2H6O/c1-2-3/h3H,2H2,1H3
Compound 6: tetrahydrofuran, C4H8O, InChI=1S/C4H8O/c1-2-4-5-3-1/h1-4H2
Compound 7: water, H2O, InChI=1S/H2O/h1H2

System: water + 1-ethyl-3-methylimidazolium tetrafluoroborate; phases: Liquid, Gas
Property: Mole fraction of water (Liquid); method: OTHER
Temperature, K	Pressure, kPa	Mole fraction of water	uncertainty
373.15	2.5	0.05	0.006
373.15	11.6	0.204	0.021
373.15	19	0.288	0.029
373.15	24.7	0.375	0.038
373.15	29.2	0.402	0.04
373.15	39.3	0.483	0.048
373.15	45.3	0.535	0.054
373.15	49.9	0.582	0.058
373.15	56.4	0.633	0.063
373.15	60.4	0.663	0.066
373.15	67	0.719	0.072
373.15	75.6	0.778	0.078
403.15	10.1	0.073	0.007
403.15	15.3	0.106	0.011
403.15	20.1	0.128	0.013
403.15	24.8	0.149	0.015
403.15	30.6	0.188	0.019
403.15	45	0.271	0.027
403.15	59.7	0.329	0.033
403.15	70	0.371	0.037
403.15	80.2	0.401	0.04

System: tetrahydrofuran + water + 1-ethyl-3-methylimidazolium tetrafluoroborate; phases: Liquid mixture 2, Liquid mixture 1
Fixed: Temperature, K = 337.15
Fixed: Pressure, kPa = 101.3
Property: Mole fraction of tetrahydrofuran (Liquid mixture 2); method: Chromatography
Property: Mole fraction of water (Liquid mixture 1); method: Chromatography
Property: Mole fraction of tetrahydrofuran (Liquid mixture 1); method: Chromatography
Mole fraction of water	Mole fraction of tetrahydrofuran	uncertainty	Mole fraction of water	uncertainty	Mole fraction of tetrahydrofuran	uncertainty
0.399	0.298	0.006	0.079	0.018	0.919	
0.567	0.304	0.007	0.199	0.016	0.794	
0.316	0.306	0.007	0.053	0.019	0.945	
0.53	0.296	0.006	0.139	0.017	0.856	
0.117	0.334	0.007	0.031	0.019	0.967	
0.18	0.328	0.007	0.042	0.019	0.956	

System: tetrahydrofuran + water + 1-ethyl-3-methylimidazolium tetrafluoroborate; phases: Liquid mixture 1, Liquid mixture 2
Fixed: Temperature, K = 337.15
Fixed: Pressure, kPa = 101.3
Property: Mole fraction of water (Liquid mixture 1); method: Titration method
Mole fraction of tetrahydrofuran	Mole fraction of water	uncertainty
0.299	0.525	0.017
0.301	0.35	0.012
0.322	0.255	0.009
0.337	0.169	0.006
0.337	0.623	0.016
0.344	0.08	0.003
0.388	0.58	0.017

System: tetrahydrofuran + water + 1-ethyl-3-methylimidazolium tetrafluoroborate; phases: Gas, Liquid
Fixed: Temperature, K = 337.15
Property: Mole fraction of tetrahydrofuran (Gas); method: Chromatography
Mole fraction of 1-ethyl-3-methylimidazolium tetrafluoroborate	Mole fraction of tetrahydrofuran	Mole fraction of tetrahydrofuran	uncertainty
0.1	0.827	0.428	0.008
0.1	0.855	0.623	0.01
0.1	0.894	0.792	0.012
0.1	0.913	0.849	0.013
0.1	0.961	0.949	0.014
0.3	0.827	0.255	0.004
0.3	0.887	0.429	0.008
0.3	0.902	0.623	0.01
0.3	0.944	0.793	0.012
0.3	0.956	0.849	0.013
0.3	0.985	0.949	0.014
0.5	0.87	0.254	0.004
0.5	0.919	0.428	0.008
0.5	0.947	0.624	0.01
0.5	0.973	0.795	0.012
0.5	0.976	0.85	0.013
0.5	0.994	0.949	0.014

System: tetrahydrofuran + water + 1-butyl-3-methylimidazolium tetrafluoroborate; phases: Liquid mixture 2, Liquid mixture 1
Fixed: Temperature, K = 337.15
Fixed: Pressure, kPa = 101.3
Property: Mole fraction of tetrahydrofuran (Liquid mixture 2); method: Chromatography
Property: Mole fraction of water (Liquid mixture 1); method: Chromatography
Property: Mole fraction of tetrahydrofuran (Liquid mixture 1); method: Chromatography
Mole fraction of water	Mole fraction of tetrahydrofuran	uncertainty	Mole fraction of water	uncertainty	Mole fraction of tetrahydrofuran	uncertainty
0.053	0.677	0.014	0.015	0.015	0.98	
0.126	0.682	0.014	0.046	0.016	0.944	

System: tetrahydrofuran + water + 1-butyl-3-methylimidazolium tetrafluoroborate; phases: Gas, Liquid
Fixed: Temperature, K = 337.15
Property: Mole fraction of tetrahydrofuran (Gas); method: Chromatography
Mole fraction of tetrahydrofuran	Mole fraction of 1-butyl-3-methylimidazolium tetrafluoroborate	Mole fraction of tetrahydrofuran	uncertainty
0.356	0.1	0.788	0.012
0.356	0.3	0.795	0.012
0.356	0.5	0.811	0.012
0.428	0.1	0.801	0.012
0.428	0.3	0.826	0.013
0.428	0.5	0.833	0.013
0.622	0.1	0.833	0.013
0.622	0.3	0.879	0.014
0.7	0.1	0.85	0.013
0.7	0.3	0.9	0.014
0.7	0.5	0.922	0.014
0.792	0.1	0.878	0.014
0.792	0.3	0.925	0.014
0.792	0.5	0.947	0.015
0.851	0.1	0.901	0.015
0.851	0.3	0.947	0.015
0.851	0.5	0.965	0.015
0.9	0.1	0.924	0.016
0.9	0.3	0.963	0.015
0.9	0.5	0.978	0.015
0.948	0.1	0.955	0.018
0.948	0.3	0.98	0.016
0.948	0.5	0.987	0.013
0.98	0.1	0.982	0.018
0.98	0.3	0.992	0.008
0.98	0.5	0.995	0.005

System: tetrahydrofuran + water + 1-methyl-3-octylimidazolium tetrafluoroborate; phases: Gas, Liquid
Fixed: Temperature, K = 337.15
Property: Mole fraction of tetrahydrofuran (Gas); method: Chromatography
Mole fraction of tetrahydrofuran	Mole fraction of 1-methyl-3-octylimidazolium tetrafluoroborate	Mole fraction of tetrahydrofuran	uncertainty
0.428	0.1	0.769	0.012
0.428	0.3	0.757	0.012
0.622	0.1	0.819	0.013
0.622	0.3	0.837	0.013
0.622	0.5	0.84	0.014
0.7	0.1	0.839	0.013
0.7	0.3	0.869	0.014
0.7	0.5	0.885	0.014
0.794	0.1	0.872	0.014
0.794	0.3	0.906	0.014
0.794	0.5	0.922	0.015
0.852	0.1	0.896	0.015
0.852	0.3	0.932	0.015
0.852	0.5	0.948	0.015
0.899	0.1	0.922	0.016
0.899	0.3	0.953	0.016
0.899	0.5	0.965	0.015
0.949	0.1	0.956	0.018
0.949	0.3	0.976	0.016
0.949	0.5	0.984	0.016
0.979	0.1	0.982	0.018
0.979	0.3	0.991	0.009
0.979	0.5	0.994	0.006

System: tetrahydrofuran + water + 1-butyl-3-methylimidazolium chloride; phases: Gas, Liquid
Fixed: Temperature, K = 337.15
Property: Mole fraction of tetrahydrofuran (Gas); method: Chromatography
Mole fraction of tetrahydrofuran	Mole fraction of 1-butyl-3-methylimidazolium chloride	Mole fraction of tetrahydrofuran	uncertainty
0.127	0.3	0.905	0.014
0.127	0.5	0.95	0.014
0.254	0.3	0.939	0.014
0.255	0.5	0.975	0.015
0.358	0.5	0.985	0.015
0.428	0.5	0.988	0.012
0.5	0.5	0.991	0.009
0.501	0.1	0.878	0.013
0.501	0.3	0.971	0.015
0.622	0.1	0.908	0.014
0.622	0.3	0.983	0.015
0.623	0.5	0.993	0.007
0.699	0.1	0.926	0.014
0.699	0.3	0.988	0.012
0.699	0.5	0.995	0.005
0.792	0.1	0.948	0.015
0.792	0.3	0.993	0.007
0.793	0.5	0.996	0.004
0.949	0.1	0.994	0.006
0.95	0.3	0.997	0.003

System: ethanol + water + 1-ethyl-3-methylimidazolium tetrafluoroborate; phases: Gas, Liquid
Fixed: Temperature, K = 363.15
Property: Mole fraction of ethanol (Gas); method: Chromatography
Mole fraction of ethanol	Mole fraction of 1-ethyl-3-methylimidazolium tetrafluoroborate	Mole fraction of ethanol	uncertainty
0.298	0.5	0.685	0.011
0.299	0.3	0.661	0.011
0.396	0.5	0.747	0.012
0.402	0.3	0.725	0.012
0.45	0.5	0.786	0.013
0.601	0.3	0.827	0.013
0.602	0.1	0.743	0.012
0.603	0.5	0.869	0.014
0.743	0.5	0.916	0.014
0.746	0.3	0.879	0.014
0.754	0.1	0.819	0.014
0.837	0.1	0.885	0.017
0.849	0.1	0.895	0.017
0.849	0.5	0.949	0.015
0.85	0.3	0.926	0.015
0.881	0.5	0.962	0.015
0.901	0.3	0.95	0.016
0.901	0.5	0.968	0.016
0.913	0.1	0.938	0.017
0.945	0.1	0.955	0.016
0.945	0.3	0.973	0.016
0.946	0.5	0.988	0.012
0.968	0.5	0.989	0.011

System: ethanol + water + 1-butyl-3-methylimidazolium tetrafluoroborate; phases: Gas, Liquid
Fixed: Temperature, K = 363.15
Property: Mole fraction of ethanol (Gas); method: Chromatography
Mole fraction of ethanol	Mole fraction of 1-butyl-3-methylimidazolium tetrafluoroborate	Mole fraction of ethanol	uncertainty
0.388	0.1	0.635	0.011
0.388	0.3	0.66	0.011
0.388	0.5	0.677	0.012
0.504	0.1	0.696	0.012
0.504	0.3	0.735	0.012
0.504	0.5	0.759	0.013
0.636	0.1	0.764	0.013
0.636	0.3	0.813	0.013
0.636	0.5	0.834	0.014
0.725	0.1	0.81	0.014
0.725	0.3	0.857	0.014
0.725	0.5	0.88	0.014
0.766	0.1	0.837	0.015
0.766	0.3	0.876	0.014
0.766	0.5	0.897	0.014
0.858	0.1	0.893	0.016
0.858	0.3	0.922	0.015
0.858	0.5	0.938	0.015
0.898	0.1	0.918	0.017
0.898	0.3	0.943	0.016
0.898	0.5	0.955	0.016
0.953	0.1	0.957	0.018
0.953	0.3	0.969	0.017
0.953	0.5	0.983	0.016
0.98	0.1	0.985	0.015
0.98	0.3	0.991	0.009
0.98	0.5	0.994	0.006

System: ethanol + water + 1-butyl-3-methylimidazolium chloride; phases: Gas, Liquid
Fixed: Temperature, K = 363.15
Property: Mole fraction of ethanol (Gas); method: Chromatography
Mole fraction of ethanol	Mole fraction of 1-butyl-3-methylimidazolium chloride	Mole fraction of ethanol	uncertainty
0.374	0.5	0.84	0.013
0.38	0.3	0.757	0.012
0.504	0.3	0.827	0.013
0.504	0.5	0.903	0.014
0.592	0.5	0.927	0.014
0.62	0.3	0.874	0.014
0.724	0.1	0.839	0.013
0.724	0.5	0.957	0.015
0.732	0.3	0.911	0.014
0.759	0.1	0.851	0.014
0.857	0.1	0.905	0.015
0.857	0.3	0.954	0.016
0.857	0.5	0.988	0.012
0.876	0.3	0.958	0.015
0.89	0.1	0.924	0.017
0.902	0.5	0.994	0.006
0.954	0.1	0.97	0.018
0.954	0.3	0.991	0.009
0.977	0.1	0.985	0.015
