Measured thermophysical data. Experimental P-T-rho and Enthalpy-Increment Measurements of an Equimolar Mixture of Trichlorofluoromethane (R-11) + Chlorotrifluoromethane (R-13)
Source: J. Chem. Eng. Data, 2003, 10.1021/je030105s
Compound 1: trichlorofluoromethane, CCl3F, InChI=1S/CCl3F/c2-1(3,4)5, purity 99.9%
Compound 2: chlorotrifluoromethane, CClF3, InChI=1S/CClF3/c2-1(3,4)5, purity 99%

System: trichlorofluoromethane + chlorotrifluoromethane; phases: Liquid
Property: Molar enthalpy, kJ/mol (Liquid); method: Flow calorimetry
Temperature, K	Pressure, kPa	Mole fraction of trichlorofluoromethane	Molar enthalpy, kJ/mol	uncertainty
230.119	6589	0.5024	-7.01874	0.088

System: trichlorofluoromethane + chlorotrifluoromethane; phases: Liquid
Property: Molar enthalpy, kJ/mol (Liquid); method: Flow calorimetry
Temperature, K	Pressure, kPa	Mole fraction of trichlorofluoromethane	Molar enthalpy, kJ/mol	uncertainty
266.353	6624	0.5024	-3.27283	0.076

System: trichlorofluoromethane + chlorotrifluoromethane; phases: Liquid
Property: Molar enthalpy, kJ/mol (Liquid); method: Flow calorimetry
Temperature, K	Pressure, kPa	Mole fraction of trichlorofluoromethane	Molar enthalpy, kJ/mol	uncertainty
348.356	6716	0.5024	5.44222	0.09

System: trichlorofluoromethane + chlorotrifluoromethane; phases: Liquid
Property: Molar enthalpy, kJ/mol (Liquid); method: Flow calorimetry
Temperature, K	Pressure, kPa	Mole fraction of trichlorofluoromethane	Molar enthalpy, kJ/mol	uncertainty
367.331	6652	0.5024	7.59103	0.109

System: trichlorofluoromethane + chlorotrifluoromethane; phases: Liquid
Property: Molar enthalpy, kJ/mol (Liquid); method: Flow calorimetry
Temperature, K	Pressure, kPa	Mole fraction of trichlorofluoromethane	Molar enthalpy, kJ/mol	uncertainty
394.248	6702	0.5024	10.4561	0.1464

System: trichlorofluoromethane + chlorotrifluoromethane; phases: Liquid
Property: Molar enthalpy, kJ/mol (Liquid); method: Flow calorimetry
Temperature, K	Pressure, kPa	Mole fraction of trichlorofluoromethane	Molar enthalpy, kJ/mol	uncertainty
411.282	6675	0.5024	12.38473	0.1803

System: trichlorofluoromethane + chlorotrifluoromethane; phases: Liquid
Property: Molar enthalpy, kJ/mol (Liquid); method: Flow calorimetry
Temperature, K	Pressure, kPa	Mole fraction of trichlorofluoromethane	Molar enthalpy, kJ/mol	uncertainty
464.39	6853	0.5024	22.29276	0.4138

System: trichlorofluoromethane + chlorotrifluoromethane; phases: Liquid
Property: Molar enthalpy, kJ/mol (Liquid); method: Flow calorimetry
Temperature, K	Pressure, kPa	Mole fraction of trichlorofluoromethane	Molar enthalpy, kJ/mol	uncertainty
264.478	4366	0.5024	-3.52691	0.076

System: trichlorofluoromethane + chlorotrifluoromethane; phases: Liquid
Property: Molar enthalpy, kJ/mol (Liquid); method: Flow calorimetry
Temperature, K	Pressure, kPa	Mole fraction of trichlorofluoromethane	Molar enthalpy, kJ/mol	uncertainty
369.167	4324	0.5024	8.10162	0.113

System: trichlorofluoromethane + chlorotrifluoromethane; phases: Liquid
Property: Molar enthalpy, kJ/mol (Liquid); method: Flow calorimetry
Temperature, K	Pressure, kPa	Mole fraction of trichlorofluoromethane	Molar enthalpy, kJ/mol	uncertainty
397.353	4397	0.5024	11.2837	0.1573

System: trichlorofluoromethane + chlorotrifluoromethane; phases: Gas
Property: Molar enthalpy, kJ/mol (Gas); method: Flow calorimetry
Temperature, K	Pressure, kPa	Mole fraction of trichlorofluoromethane	Molar enthalpy, kJ/mol	uncertainty
410.841	2370	0.5024	25.15542	0.2142

System: trichlorofluoromethane + chlorotrifluoromethane; phases: Liquid
Fixed: Mole fraction of trichlorofluoromethane = 0.4998
Property: Mass density, kg/m3 (Liquid); method: Pycnometric method
Temperature, K	Pressure, kPa	Mass density, kg/m3	uncertainty
230.008	15789	1563.93	2.03
230.009	8318	1547.23	2.17
230.009	28639	1589.11	1.92
230.009	44014	1615.5	1.78
230.01	3674	1536.02	2.29
230.01	56454	1634.26	1.75
230.01	65713	1646.78	1.73
230.014	3188	1534.86	2.3
230.018	2573	1533.3	2.31
269.997	8340	1433.25	2.19
269.997	25912	1485.54	1.82
269.998	65145	1564.96	1.68
269.999	2501	1410.75	2.34
270	2973	1412.68	2.32
270.001	4011	1417.01	2.28
270.002	3431	1414.69	2.32
270.002	56409	1549.99	1.69
270.003	35631	1508.68	1.74
270.004	16889	1460.69	2.15
270.005	46015	1530.41	1.7
298.141	2407	1316.46	2.57
298.141	4872	1331.18	2.44
298.142	3449	1322.91	2.49
298.142	4132	1326.95	2.45
298.142	27332	1422.41	1.83
298.142	49512	1480.56	1.62
298.143	1998	1313.82	2.57
298.143	3104	1320.81	2.51
298.143	42035	1462.99	1.66
298.143	56117	1495	1.61
298.143	68788	1519.84	1.6
298.144	5516	1334.74	2.43
298.144	7446	1344.93	2.28
298.145	1816	1312.12	2.57
298.145	2069	1314.31	2.57
298.145	6211	1338.49	2.43
298.145	13586	1373.19	2.04
298.145	62801	1508.47	1.59
298.146	21044	1401.76	1.89
298.146	34987	1444.72	1.73
298.147	2778	1318.79	2.53
319.985	2766	1238.35	2.67
319.985	4162	1250.48	3.07
319.986	2754	1234.2	2.8
319.986	5572	1261.65	2.86
319.986	69846	1482.48	1.63
319.987	3104	1241.42	2.88
319.987	3451	1244.44	3.04
319.987	4847	1256	2.95
319.987	13920	1313.37	2.26
319.988	6166	1266.03	2.78
319.989	7562	1275.8	2.7
319.99	20780	1345.44	2.02
319.991	34435	1395.04	1.79
319.992	41353	1415.6	1.72
319.992	48470	1434.61	1.68
319.992	62362	1466.93	1.64
319.993	27565	1371.78	1.9
319.993	55504	1451.81	1.65
349.977	4871	1122.27	4.83
349.979	6332	1143.41	3.43
349.979	7031	1152.33	3.14
349.979	21094	1262.99	2.13
349.979	27411	1294.63	1.94
349.98	5545	1132.59	3.65
349.981	4147	1109.87	4.9
349.981	13898	1217.04	2.45
349.981	55114	1390.72	1.67
349.982	34580	1324.58	1.83
349.982	61425	1407.04	1.66
349.983	41906	1350.76	1.75
349.983	48408	1371.52	1.7
349.986	64884	1415.65	1.61
374.971	34445	1266.81	1.83
374.971	41104	1295.2	1.74
374.971	48370	1321.88	1.69
374.972	55245	1344.15	1.66
374.974	4814	875.16	8.52
374.974	7507	1035.79	4.59
374.974	13897	1130.11	2.73
374.974	27568	1232.43	1.98
374.975	5508	978.01	6.29
374.975	20821	1189.97	2.22
374.975	61916	1363.67	1.65
374.975	67597	1378.93	1.66
374.977	6229	1002.85	5.66
399.965	62308	1320.05	1.67
399.967	10139	951.31	3.63
399.967	48446	1272.44	1.71
399.967	55491	1298.22	1.68
399.967	69092	1339.9	1.68
399.968	14186	1033.46	3.05
399.969	20693	1111.34	2.35
399.969	41281	1242.15	1.77
399.97	7340	834.92	6.63
399.97	27341	1164.91	2.05
399.971	34348	1207.68	1.87
399.972	6401	747.38	7.67
424.959	41522	1190.2	1.85
424.959	48489	1223.5	1.78
424.962	55546	1252.47	1.75
424.962	62269	1276.87	1.73
424.963	5213	299.9	8.41
424.963	20813	1032.51	2.79
424.964	27408	1098.36	2.25
424.964	69519	1300.26	1.76
424.965	7204	553.31	8.83
424.965	34546	1150.21	1.99
424.966	10657	816.56	6.14
424.968	14133	923.74	3.75
