Measured thermophysical data. Solubility of (S)-Boc-Piperazine and Racemic Boc-Piperazine in Supercritical Carbon Dioxide
Source: J. Chem. Eng. Data, 2004, 10.1021/je034229g
Compound 1: carbon dioxide, CO2, InChI=1S/CO2/c2-1-3
Compound 2: (R,S)-3-[[(1,1-dimethylethyl)amino]carbonyl]-1-piperazinecarboxylic acid 1,1-dimethylethyl ester, C14H27N3O3, InChI=1S/C14H27N3O3/c1-13(2,3)16-11(18)10-9-17(8-7-15-10)12(19)20-14(4,5)6/h10,15H,7-9H2,1-6H3,(H,16,18)
Compound 3: (S)-3-[[(1,1-dimethylethyl)amino]carbonyl]-1-piperazinecarboxylic acid 1,1-dimethylethyl ester, C14H27N3O3, InChI=1S/C14H27N3O3/c1-13(2,3)16-11(18)10-9-17(8-7-15-10)12(19)20-14(4,5)6/h10,15H,7-9H2,1-6H3,(H,16,18)/t10-/m0/s1

System: carbon dioxide + (S)-3-[[(1,1-dimethylethyl)amino]carbonyl]-1-piperazinecarboxylic acid 1,1-dimethylethyl ester; phases: Fluid (supercritical or subcritical phases), Crystal
Property: Mole fraction of (S)-3-[[(1,1-dimethylethyl)amino]carbonyl]-1-piperazinecarboxylic acid 1,1-dimethylethyl ester (Fluid (supercritical or subcritical phases)); method: OTHER
Temperature, K	Pressure, kPa	Mole fraction of (S)-3-[[(1,1-dimethylethyl)amino]carbonyl]-1-piperazinecarboxylic acid 1,1-dimethylethyl ester	uncertainty
308.2	9000	0.00137	0.00027
308.2	10900	0.00244	0.00049
308.2	13800	0.00293	0.00059
308.2	15500	0.00232	0.00046
308.2	16700	0.00281	0.00056
308.2	18400	0.00231	0.00046
308.2	19500	0.00254	0.00051
308.2	20500	0.00225	0.00045
318.2	10600	0.00114	0.00023
318.2	12500	0.00285	0.00057
318.2	14300	0.004	0.0008
318.2	18200	0.00509	0.00102
318.2	20200	0.00572	0.00114
328.2	10300	0.000178	3.6e-05
328.2	10800	0.000241	4.8e-05
328.2	12300	0.000946	0.000189
328.2	12900	0.00118	0.00024
328.2	14300	0.00246	0.00049
328.2	16400	0.00367	0.00073
328.2	18200	0.00481	0.00096
328.2	20100	0.00652	0.0013

System: carbon dioxide + (R,S)-3-[[(1,1-dimethylethyl)amino]carbonyl]-1-piperazinecarboxylic acid 1,1-dimethylethyl ester; phases: Fluid (supercritical or subcritical phases), Crystal
Property: Mole fraction of (R,S)-3-[[(1,1-dimethylethyl)amino]carbonyl]-1-piperazinecarboxylic acid 1,1-dimethylethyl ester (Fluid (supercritical or subcritical phases)); method: OTHER
Temperature, K	Pressure, kPa	Mole fraction of (R,S)-3-[[(1,1-dimethylethyl)amino]carbonyl]-1-piperazinecarboxylic acid 1,1-dimethylethyl ester	uncertainty
308.2	10300	0.000124	2.5e-05
308.2	11400	0.000191	3.8e-05
308.2	13500	0.000173	3.5e-05
308.2	15200	0.000212	4.2e-05
308.2	17100	0.000238	4.8e-05
308.2	20000	0.000223	4.5e-05
318.2	10200	6.72e-05	1.34e-05
318.2	10500	9.75e-05	1.95e-05
318.2	12500	0.000249	5e-05
318.2	14500	0.000313	6.3e-05
318.2	16500	0.000298	6e-05
318.2	18700	0.000351	7e-05
318.2	20400	0.00046	9.2e-05
328.2	10400	4.23e-05	8.5e-06
328.2	12400	0.000104	2.1e-05
328.2	14500	0.0003	6e-05
328.2	16500	0.000348	7e-05
328.2	18400	0.000539	0.000108
328.2	20400	0.00059	0.000118
