Measured thermophysical data. Surface Tension of Dimethyl Ether from (213 to 368) K
Source: J. Chem. Eng. Data, 2003, 10.1021/je034097r
Compound 1: dimethyl ether, C2H6O, InChI=1S/C2H6O/c1-3-2/h1-2H3, purity 99.95%

System: dimethyl ether; phases: Liquid, Gas
Property: Surface tension liquid-gas, N/m (Liquid); method: Capillary rise
Temperature, K	Surface tension liquid-gas, N/m	uncertainty
213.118	0.024523	0.000306
223.106	0.022953	0.000306
228.187	0.022258	0.000306
233.308	0.02144	0.000306
238.152	0.020749	0.000305
243.118	0.019811	0.000305
248.12	0.019302	0.000305
253.095	0.018537	0.000305
258.11	0.017709	0.000305
263.124	0.016991	0.000305
268.081	0.016265	0.000305
273.077	0.015429	0.000304
278.058	0.014604	0.000304
283.071	0.013966	0.000304
288.042	0.013159	0.000304
293.094	0.012659	0.000304
298.085	0.011731	0.000304
303.197	0.010997	0.000304
308.123	0.01022	0.000304
313.117	0.009557	0.000303
318.18	0.009089	0.000303
323.178	0.008428	0.000303
328.142	0.00764	0.000303
333.143	0.007045	0.000303
338.091	0.006368	0.000303
343.135	0.005717	0.000303
348.069	0.005148	0.000303
353.109	0.004435	0.000303
358.106	0.00394	0.000303
363.103	0.003315	0.000303
368.041	0.002779	0.000302
