Measured thermophysical data. Excess Molar Volumes, Viscosities, and Refractive Indexes for Binary Mixtures of 1-Chlorobutane with Four Alcohols at T = (288.15, 298.15 and 308.15) K
Source: J. Chem. Eng. Data, 2004, 10.1021/je030226s
Compound 1: 1-chlorobutane, C4H9Cl, InChI=1S/C4H9Cl/c1-2-3-4-5/h2-4H2,1H3
Compound 2: methanol, CH4O, InChI=1S/CH4O/c1-2/h2H,1H3
Compound 3: ethanol, C2H6O, InChI=1S/C2H6O/c1-2-3/h3H,2H2,1H3
Compound 4: propan-1-ol, C3H8O, InChI=1S/C3H8O/c1-2-3-4/h4H,2-3H2,1H3
Compound 5: butan-1-ol, C4H10O, InChI=1S/C4H10O/c1-2-3-4-5/h5H,2-4H2,1H3

System: 1-chlorobutane; phases: Liquid
Fixed: Pressure, kPa = 101.325
Property: Refractive index (Na D-line) (Liquid); method: ABBE::UFactor:2
Temperature, K	Refractive index (Na D-line)	uncertainty
288.15	1.4045	0.0006
298.15	1.3993	0.0006
308.15	1.3941	0.0006

System: 1-chlorobutane; phases: Liquid
Fixed: Pressure, kPa = 101.32
Property: Viscosity, Pa*s (Liquid); method: CAPTUB::UFactor:2
Temperature, K	Viscosity, Pa*s	uncertainty
288.15	0.000472	9e-06
298.15	0.000423	8e-06
308.15	0.000382	8e-06

System: 1-chlorobutane; phases: Liquid
Fixed: Pressure, kPa = 101.32
Property: Mass density, kg/m3 (Liquid); method: VIBTUB:UFactor:8
Temperature, K	Mass density, kg/m3	uncertainty
288.15	892.2	0.6
298.15	881	0.7
308.15	869.7	0.7

System: methanol; phases: Liquid
Fixed: Pressure, kPa = 101.325
Property: Refractive index (Na D-line) (Liquid); method: ABBE:UFactor:2
Temperature, K	Refractive index (Na D-line)	uncertainty
288.15	1.3303	0.0006
298.15	1.3275	0.0006
308.15	1.3254	0.0006

System: methanol; phases: Liquid
Fixed: Pressure, kPa = 101.32
Property: Viscosity, Pa*s (Liquid); method: CAPTUB:UFactor:2
Temperature, K	Viscosity, Pa*s	uncertainty
288.15	0.000627	1e-05
298.15	0.000543	9e-06
308.15	0.000473	9e-06

System: methanol; phases: Liquid
Fixed: Pressure, kPa = 101.32
Property: Mass density, kg/m3 (Liquid); method: VIBTUB:UFactor:8
Temperature, K	Mass density, kg/m3	uncertainty
288.15	796.1	0.9
298.15	786.6	0.9
308.15	777.2	1

System: ethanol; phases: Liquid
Fixed: Pressure, kPa = 101.325
Property: Refractive index (Na D-line) (Liquid); method: ABBE:UFactor:2
Temperature, K	Refractive index (Na D-line)	uncertainty
288.15	1.363	0.0006
298.15	1.3591	0.0006
308.15	1.355	0.0006

System: ethanol; phases: Liquid
Fixed: Pressure, kPa = 101.32
Property: Viscosity, Pa*s (Liquid); method: CAPTUB:UFactor:2
Temperature, K	Viscosity, Pa*s	uncertainty
288.15	0.001317	1.6e-05
298.15	0.001085	1.4e-05
308.15	0.000902	1.2e-05

System: ethanol; phases: Liquid
Fixed: Pressure, kPa = 101.32
Property: Mass density, kg/m3 (Liquid); method: VIBTUB:UFactor:8
Temperature, K	Mass density, kg/m3	uncertainty
288.15	793.8	0.9
298.15	785.2	0.9
308.15	776.6	1

System: propan-1-ol; phases: Liquid
Fixed: Pressure, kPa = 101.325
Property: Refractive index (Na D-line) (Liquid); method: ABBE::UFactor:2
Temperature, K	Refractive index (Na D-line)	uncertainty
288.15	1.3869	0.0006
298.15	1.3829	0.0006
308.15	1.3789	0.0006

System: propan-1-ol; phases: Liquid
Fixed: Pressure, kPa = 101.32
Property: Viscosity, Pa*s (Liquid); method: CAPTUB:UFactor:2
Temperature, K	Viscosity, Pa*s	uncertainty
288.15	0.002504	2.9e-05
298.15	0.001958	2.3e-05
308.15	0.001548	1.9e-05

System: propan-1-ol; phases: Liquid
Fixed: Pressure, kPa = 101.32
Property: Mass density, kg/m3 (Liquid); method: VIBTUB:UFactor:8
Temperature, K	Mass density, kg/m3	uncertainty
288.15	807.6	0.9
298.15	799.6	0.9
308.15	791.5	0.9

System: butan-1-ol; phases: Liquid
Fixed: Pressure, kPa = 101.325
Property: Refractive index (Na D-line) (Liquid); method: ABBE::UFactor:2
Temperature, K	Refractive index (Na D-line)	uncertainty
288.15	1.401	0.0006
298.15	1.3972	0.0006
308.15	1.3932	0.0006

System: butan-1-ol; phases: Liquid
Fixed: Pressure, kPa = 101.32
Property: Viscosity, Pa*s (Liquid); method: CAPTUB::UFactor:2
Temperature, K	Viscosity, Pa*s	uncertainty
288.15	0.003394	3.9e-05
298.15	0.002598	3e-05
308.15	0.002019	2.4e-05

System: butan-1-ol; phases: Liquid
Fixed: Pressure, kPa = 101.32
Property: Mass density, kg/m3 (Liquid); method: VIBTUB:UFactor:8
Temperature, K	Mass density, kg/m3	uncertainty
288.15	813.5	0.9
298.15	805.9	0.9
308.15	798.2	0.9

System: methanol + 1-chlorobutane; phases: Liquid
Fixed: Pressure, kPa = 101.32
Property: Viscosity, Pa*s (Liquid); method: CAPTUB:UFactor:2
Temperature, K	Mole fraction of methanol	Viscosity, Pa*s	uncertainty
288.15	0	0.000472	9e-06
288.15	0.05	0.000463	9e-06
288.15	0.1	0.000462	9e-06
288.15	0.2	0.000465	9e-06
288.15	0.3	0.000478	9e-06
288.15	0.4	0.000496	9e-06
288.15	0.5	0.000516	9e-06
288.15	0.6	0.000536	9e-06
288.15	0.7	0.000559	9e-06
288.15	0.8	0.000581	9e-06
288.15	0.9	0.000601	1e-05
288.15	0.95	0.000613	1e-05
288.15	1	0.000627	1e-05
298.15	0	0.000423	8e-06
298.15	0.05	0.000416	8e-06
298.15	0.1	0.000413	8e-06
298.15	0.2	0.000412	8e-06
298.15	0.3	0.000421	8e-06
298.15	0.4	0.000435	8e-06
298.15	0.5	0.00045	8e-06
298.15	0.6	0.000469	9e-06
298.15	0.7	0.000489	9e-06
298.15	0.8	0.000506	9e-06
298.15	0.9	0.000521	9e-06
298.15	0.95	0.000532	9e-06
298.15	1	0.000543	9e-06
308.15	0	0.000382	8e-06
308.15	0.05	0.000375	8e-06
308.15	0.1	0.000374	8e-06
308.15	0.2	0.000376	8e-06
308.15	0.3	0.000382	8e-06
308.15	0.4	0.000393	8e-06
308.15	0.5	0.000407	8e-06
308.15	0.6	0.000416	8e-06
308.15	0.7	0.000431	8e-06
308.15	0.8	0.000445	8e-06
308.15	0.9	0.000457	9e-06
308.15	0.95	0.000467	9e-06
308.15	1	0.000473	9e-06

System: methanol + 1-chlorobutane; phases: Liquid
Fixed: Pressure, kPa = 101.32
Property: Refractive index (Na D-line) (Liquid); method: ABBE:UFactor:2
Temperature, K	Mole fraction of methanol	Refractive index (Na D-line)	uncertainty
288.15	0	1.4045	0.0006
288.15	0.05	1.4032	0.0006
288.15	0.1	1.4015	0.0006
288.15	0.2	1.3978	0.0006
288.15	0.3	1.3936	0.0006
288.15	0.4	1.3885	0.0006
288.15	0.5	1.3827	0.0006
288.15	0.6	1.3759	0.0006
288.15	0.7	1.3679	0.0006
288.15	0.8	1.3579	0.0006
288.15	0.9	1.3457	0.0006
288.15	0.95	1.3384	0.0006
288.15	1	1.3303	0.0006
298.15	0	1.3993	0.0006
298.15	0.05	1.398	0.0006
298.15	0.1	1.3964	0.0006
298.15	0.2	1.3927	0.0006
298.15	0.3	1.3885	0.0006
298.15	0.4	1.3835	0.0006
298.15	0.5	1.3778	0.0006
298.15	0.6	1.371	0.0006
298.15	0.7	1.3628	0.0006
298.15	0.8	1.3529	0.0006
298.15	0.9	1.3413	0.0006
298.15	0.95	1.3342	0.0006
298.15	1	1.3275	0.0006
308.15	0	1.3941	0.0006
308.15	0.05	1.3928	0.0006
308.15	0.1	1.3912	0.0006
308.15	0.2	1.3877	0.0006
308.15	0.3	1.3834	0.0006
308.15	0.4	1.3785	0.0006
308.15	0.5	1.3728	0.0006
308.15	0.6	1.366	0.0006
308.15	0.7	1.3579	0.0006
308.15	0.8	1.3478	0.0006
308.15	0.9	1.3365	0.0006
308.15	0.95	1.3298	0.0006
308.15	1	1.3254	0.0006

System: methanol + 1-chlorobutane; phases: Liquid
Fixed: Pressure, kPa = 101.32
Property: Mass density, kg/m3 (Liquid); method: VIBTUB:UFactor:8
Temperature, K	Mole fraction of methanol	Mass density, kg/m3	uncertainty
288.15	0	892.2	0.6
288.15	0.05	889.6	0.6
288.15	0.1	887.2	0.6
288.15	0.2	882.4	0.7
288.15	0.3	876.9	0.7
288.15	0.4	870.6	0.7
288.15	0.5	863.3	0.7
288.15	0.6	854.6	0.7
288.15	0.7	844.2	0.8
288.15	0.8	831.7	0.8
288.15	0.9	815.9	0.9
288.15	0.95	806.6	0.9
288.15	1	796.1	0.9
298.15	0	881	0.7
298.15	0.05	878.4	0.7
298.15	0.1	876.1	0.7
298.15	0.2	871.2	0.7
298.15	0.3	865.6	0.7
298.15	0.4	859.6	0.7
298.15	0.5	852.4	0.7
298.15	0.6	843.9	0.8
298.15	0.7	833.7	0.8
298.15	0.8	821.4	0.8
298.15	0.9	806	0.9
298.15	0.95	796.9	0.9
298.15	1	786.6	0.9
308.15	0	869.7	0.7
308.15	0.05	867.1	0.7
308.15	0.1	864.7	0.7
308.15	0.2	859.9	0.7
308.15	0.3	854.5	0.7
308.15	0.4	848.4	0.8
308.15	0.5	841.3	0.8
308.15	0.6	833	0.8
308.15	0.7	823.1	0.8
308.15	0.8	811	0.9
308.15	0.9	796	0.9
308.15	0.95	787.2	0.9
308.15	1	777.2	1

System: ethanol + 1-chlorobutane; phases: Liquid
Fixed: Pressure, kPa = 101.32
Property: Viscosity, Pa*s (Liquid); method: CAPTUB:UFactor:2
Temperature, K	Mole fraction of ethanol	Viscosity, Pa*s	uncertainty
288.15	0	0.000472	9e-06
288.15	0.05	0.000475	9e-06
288.15	0.1	0.000479	9e-06
288.15	0.2	0.0005	9e-06
288.15	0.3	0.000529	9e-06
288.15	0.4	0.000566	9e-06
288.15	0.5	0.00063	1e-05
288.15	0.6	0.000708	1e-05
288.15	0.7	0.000807	1.1e-05
288.15	0.8	0.000932	1.2e-05
288.15	0.9	0.001099	1.4e-05
288.15	0.95	0.001209	1.5e-05
288.15	1	0.001317	1.6e-05
298.15	0	0.000423	8e-06
298.15	0.05	0.000424	8e-06
298.15	0.1	0.000428	8e-06
298.15	0.2	0.000442	8e-06
298.15	0.3	0.000465	9e-06
298.15	0.4	0.000493	9e-06
298.15	0.5	0.000543	9e-06
298.15	0.6	0.000601	1e-05
298.15	0.7	0.00068	1e-05
298.15	0.8	0.000781	1.1e-05
298.15	0.9	0.000903	1.2e-05
298.15	0.95	0.000994	1.3e-05
298.15	1	0.001085	1.4e-05
308.15	0	0.000382	8e-06
308.15	0.05	0.000384	8e-06
308.15	0.1	0.000388	8e-06
308.15	0.2	0.000395	8e-06
308.15	0.3	0.00041	8e-06
308.15	0.4	0.00043	8e-06
308.15	0.5	0.000469	9e-06
308.15	0.6	0.000515	9e-06
308.15	0.7	0.000581	9e-06
308.15	0.8	0.00067	1e-05
308.15	0.9	0.000765	1.1e-05
308.15	0.95	0.000839	1.2e-05
308.15	1	0.000902	1.2e-05

System: ethanol + 1-chlorobutane; phases: Liquid
Fixed: Pressure, kPa = 101.32
Property: Refractive index (Na D-line) (Liquid); method: ABBE:UFactor:2
Temperature, K	Mole fraction of ethanol	Refractive index (Na D-line)	uncertainty
288.15	0	1.4045	0.0006
288.15	0.05	1.403	0.0006
288.15	0.1	1.4016	0.0006
288.15	0.2	1.3988	0.0006
288.15	0.3	1.3958	0.0006
288.15	0.4	1.3925	0.0006
288.15	0.5	1.389	0.0006
288.15	0.6	1.3851	0.0006
288.15	0.7	1.3807	0.0006
288.15	0.8	1.3756	0.0006
288.15	0.9	1.3697	0.0006
288.15	0.95	1.3665	0.0006
288.15	1	1.363	0.0006
298.15	0	1.3993	0.0006
298.15	0.05	1.3978	0.0006
298.15	0.1	1.3964	0.0006
298.15	0.2	1.3937	0.0006
298.15	0.3	1.3907	0.0006
298.15	0.4	1.3875	0.0006
298.15	0.5	1.384	0.0006
298.15	0.6	1.3802	0.0006
298.15	0.7	1.3759	0.0006
298.15	0.8	1.3711	0.0006
298.15	0.9	1.3653	0.0006
298.15	0.95	1.3624	0.0006
298.15	1	1.3591	0.0006
308.15	0	1.3941	0.0006
308.15	0.05	1.3925	0.0006
308.15	0.1	1.3912	0.0006
308.15	0.2	1.3885	0.0006
308.15	0.3	1.3855	0.0006
308.15	0.4	1.3823	0.0006
308.15	0.5	1.3788	0.0006
308.15	0.6	1.375	0.0006
308.15	0.7	1.3708	0.0006
308.15	0.8	1.3661	0.0006
308.15	0.9	1.3609	0.0006
308.15	0.95	1.3581	0.0006
308.15	1	1.355	0.0006

System: ethanol + 1-chlorobutane; phases: Liquid
Fixed: Pressure, kPa = 101.32
Property: Mass density, kg/m3 (Liquid); method: VIBTUB:UFactor:8
Temperature, K	Mole fraction of ethanol	Mass density, kg/m3	uncertainty
288.15	0	892.2	0.6
288.15	0.05	888.5	0.6
288.15	0.1	885.3	0.6
288.15	0.2	878.7	0.7
288.15	0.3	871.7	0.7
288.15	0.4	864.1	0.7
288.15	0.5	855.7	0.7
288.15	0.6	846.4	0.8
288.15	0.7	835.8	0.8
288.15	0.8	823.9	0.8
288.15	0.9	810	0.9
288.15	0.95	802.2	0.9
288.15	1	793.8	0.9
298.15	0	881	0.7
298.15	0.05	877.3	0.7
298.15	0.1	874.2	0.7
298.15	0.2	867.7	0.7
298.15	0.3	860.8	0.7
298.15	0.4	853.4	0.7
298.15	0.5	845.2	0.8
298.15	0.6	836.1	0.8
298.15	0.7	825.9	0.8
298.15	0.8	814.4	0.9
298.15	0.9	800.9	0.9
298.15	0.95	793.4	0.9
298.15	1	785.2	0.9
308.15	0	869.7	0.7
308.15	0.05	866	0.7
308.15	0.1	862.8	0.7
308.15	0.2	856.4	0.7
308.15	0.3	849.7	0.8
308.15	0.4	842.4	0.8
308.15	0.5	834.5	0.8
308.15	0.6	825.7	0.8
308.15	0.7	815.8	0.9
308.15	0.8	804.7	0.9
308.15	0.9	791.7	0.9
308.15	0.95	784.5	0.9
308.15	1	776.6	1

System: propan-1-ol + 1-chlorobutane; phases: Liquid
Fixed: Pressure, kPa = 101.32
Property: Viscosity, Pa*s (Liquid); method: CAPTUB:UFactor:2
Temperature, K	Mole fraction of propan-1-ol	Viscosity, Pa*s	uncertainty
288.15	0	0.000472	9e-06
288.15	0.05	0.000473	9e-06
288.15	0.1	0.000495	9e-06
288.15	0.2	0.000525	9e-06
288.15	0.3	0.000587	1e-05
288.15	0.4	0.000672	1e-05
288.15	0.5	0.000795	1.1e-05
288.15	0.6	0.000965	1.3e-05
288.15	0.7	0.001202	1.5e-05
288.15	0.8	0.001503	1.8e-05
288.15	0.9	0.00194	2.3e-05
288.15	0.95	0.0022	2.6e-05
288.15	1	0.002504	2.9e-05
298.15	0	0.000423	8e-06
298.15	0.05	0.000426	8e-06
298.15	0.1	0.00044	8e-06
298.15	0.2	0.000461	9e-06
298.15	0.3	0.000511	9e-06
298.15	0.4	0.000576	9e-06
298.15	0.5	0.00067	1e-05
298.15	0.6	0.000802	1.1e-05
298.15	0.7	0.000977	1.3e-05
298.15	0.8	0.001206	1.5e-05
298.15	0.9	0.001531	1.8e-05
298.15	0.95	0.001729	2.1e-05
298.15	1	0.001958	2.3e-05
308.15	0	0.000382	8e-06
308.15	0.05	0.000384	8e-06
308.15	0.1	0.000395	8e-06
308.15	0.2	0.000409	8e-06
308.15	0.3	0.000447	8e-06
308.15	0.4	0.000498	9e-06
308.15	0.5	0.000572	9e-06
308.15	0.6	0.000673	1e-05
308.15	0.7	0.000804	1.1e-05
308.15	0.8	0.000989	1.3e-05
308.15	0.9	0.001229	1.5e-05
308.15	0.95	0.001375	1.7e-05
308.15	1	0.001548	1.9e-05

System: propan-1-ol + 1-chlorobutane; phases: Liquid
Fixed: Pressure, kPa = 101.32
Property: Refractive index (Na D-line) (Liquid); method: ABBE:UFactor:2
Temperature, K	Mole fraction of propan-1-ol	Refractive index (Na D-line)	uncertainty
288.15	0	1.4045	0.0006
288.15	0.05	1.4036	0.0006
288.15	0.1	1.4028	0.0006
288.15	0.2	1.4013	0.0006
288.15	0.3	1.3998	0.0006
288.15	0.4	1.3984	0.0006
288.15	0.5	1.3968	0.0006
288.15	0.6	1.3952	0.0006
288.15	0.7	1.3934	0.0006
288.15	0.8	1.3914	0.0006
288.15	0.9	1.3892	0.0006
288.15	0.95	1.3881	0.0006
288.15	1	1.3869	0.0006
298.15	0	1.3993	0.0006
298.15	0.05	1.3984	0.0006
298.15	0.1	1.3976	0.0006
298.15	0.2	1.3962	0.0006
298.15	0.3	1.3948	0.0006
298.15	0.4	1.3934	0.0006
298.15	0.5	1.3919	0.0006
298.15	0.6	1.3904	0.0006
298.15	0.7	1.3888	0.0006
298.15	0.8	1.387	0.0006
298.15	0.9	1.385	0.0006
298.15	0.95	1.384	0.0006
298.15	1	1.3829	0.0006
308.15	0	1.3941	0.0006
308.15	0.05	1.3931	0.0006
308.15	0.1	1.3923	0.0006
308.15	0.2	1.3909	0.0006
308.15	0.3	1.3895	0.0006
308.15	0.4	1.3882	0.0006
308.15	0.5	1.3869	0.0006
308.15	0.6	1.3855	0.0006
308.15	0.7	1.384	0.0006
308.15	0.8	1.3824	0.0006
308.15	0.9	1.3807	0.0006
308.15	0.95	1.3798	0.0006
308.15	1	1.3789	0.0006

System: propan-1-ol + 1-chlorobutane; phases: Liquid
Fixed: Pressure, kPa = 101.32
Property: Mass density, kg/m3 (Liquid); method: VIBTUB:UFactor:8
Temperature, K	Mole fraction of propan-1-ol	Mass density, kg/m3	uncertainty
288.15	0	892.2	0.6
288.15	0.05	888.3	0.6
288.15	0.1	884.9	0.6
288.15	0.2	878.2	0.7
288.15	0.3	871.2	0.7
288.15	0.4	864	0.7
288.15	0.5	856.3	0.7
288.15	0.6	848.1	0.8
288.15	0.7	839.2	0.8
288.15	0.8	829.6	0.8
288.15	0.9	819.2	0.8
288.15	0.95	813.5	0.9
288.15	1	807.6	0.9
298.15	0	881	0.7
298.15	0.05	877.2	0.7
298.15	0.1	873.8	0.7
298.15	0.2	867.3	0.7
298.15	0.3	860.5	0.7
298.15	0.4	853.5	0.7
298.15	0.5	846.1	0.8
298.15	0.6	838.3	0.8
298.15	0.7	829.8	0.8
298.15	0.8	820.7	0.8
298.15	0.9	810.7	0.9
298.15	0.95	805.3	0.9
298.15	1	799.6	0.9
308.15	0	869.7	0.7
308.15	0.05	866	0.7
308.15	0.1	862.6	0.7
308.15	0.2	856.2	0.7
308.15	0.3	849.7	0.8
308.15	0.4	842.9	0.8
308.15	0.5	835.8	0.8
308.15	0.6	828.3	0.8
308.15	0.7	820.3	0.8
308.15	0.8	811.5	0.9
308.15	0.9	802	0.9
308.15	0.95	796.9	0.9
308.15	1	791.5	0.9

System: butan-1-ol + 1-chlorobutane; phases: Liquid
Fixed: Pressure, kPa = 101.32
Property: Viscosity, Pa*s (Liquid); method: CAPTUB:UFactor:2
Temperature, K	Mole fraction of butan-1-ol	Viscosity, Pa*s	uncertainty
288.15	0	0.000472	9e-06
288.15	0.05	0.00049	9e-06
288.15	0.1	0.000506	9e-06
288.15	0.2	0.000569	9e-06
288.15	0.3	0.000655	1e-05
288.15	0.4	0.000781	1.1e-05
288.15	0.5	0.000953	1.3e-05
288.15	0.6	0.001196	1.5e-05
288.15	0.7	0.001528	1.8e-05
288.15	0.8	0.001979	2.3e-05
288.15	0.9	0.002601	3e-05
288.15	0.95	0.002966	3.4e-05
288.15	1	0.003394	3.9e-05
298.15	0	0.000423	8e-06
298.15	0.05	0.000437	8e-06
298.15	0.1	0.000453	8e-06
298.15	0.2	0.000499	9e-06
298.15	0.3	0.000569	9e-06
298.15	0.4	0.000665	1e-05
298.15	0.5	0.000798	1.1e-05
298.15	0.6	0.000977	1.3e-05
298.15	0.7	0.001221	1.5e-05
298.15	0.8	0.001563	1.9e-05
298.15	0.9	0.002019	2.4e-05
298.15	0.95	0.002328	2.7e-05
298.15	1	0.002598	3e-05
308.15	0	0.000382	8e-06
308.15	0.05	0.000388	8e-06
308.15	0.1	0.00041	8e-06
308.15	0.2	0.000442	8e-06
308.15	0.3	0.000497	9e-06
308.15	0.4	0.00057	9e-06
308.15	0.5	0.000676	1e-05
308.15	0.6	0.00081	1.1e-05
308.15	0.7	0.001	1.3e-05
308.15	0.8	0.001251	1.5e-05
308.15	0.9	0.001584	1.9e-05
308.15	0.95	0.001784	2.1e-05
308.15	1	0.002019	2.4e-05

System: butan-1-ol + 1-chlorobutane; phases: Liquid
Fixed: Pressure, kPa = 101.32
Property: Refractive index (Na D-line) (Liquid); method: ABBE:UFactor:2
Temperature, K	Mole fraction of butan-1-ol	Refractive index (Na D-line)	uncertainty
288.15	0	1.4045	0.0006
288.15	0.05	1.4041	0.0006
288.15	0.1	1.4039	0.0006
288.15	0.2	1.4035	0.0006
288.15	0.3	1.4031	0.0006
288.15	0.4	1.4029	0.0006
288.15	0.5	1.4027	0.0006
288.15	0.6	1.4024	0.0006
288.15	0.7	1.4022	0.0006
288.15	0.8	1.4019	0.0006
288.15	0.9	1.4016	0.0006
288.15	0.95	1.4013	0.0006
288.15	1	1.401	0.0006
298.15	0	1.3993	0.0006
298.15	0.05	1.3989	0.0006
298.15	0.1	1.3987	0.0006
298.15	0.2	1.3984	0.0006
298.15	0.3	1.3982	0.0006
298.15	0.4	1.3981	0.0006
298.15	0.5	1.398	0.0006
298.15	0.6	1.3979	0.0006
298.15	0.7	1.3978	0.0006
298.15	0.8	1.3977	0.0006
298.15	0.9	1.3975	0.0006
298.15	0.95	1.3974	0.0006
298.15	1	1.3972	0.0006
308.15	0	1.3941	0.0006
308.15	0.05	1.3936	0.0006
308.15	0.1	1.3934	0.0006
308.15	0.2	1.3932	0.0006
308.15	0.3	1.3931	0.0006
308.15	0.4	1.3931	0.0006
308.15	0.5	1.3932	0.0006
308.15	0.6	1.3932	0.0006
308.15	0.7	1.3933	0.0006
308.15	0.8	1.3933	0.0006
308.15	0.9	1.3933	0.0006
308.15	0.95	1.3933	0.0006
308.15	1	1.3932	0.0006

System: butan-1-ol + 1-chlorobutane; phases: Liquid
Fixed: Pressure, kPa = 101.32
Property: Mass density, kg/m3 (Liquid); method: VIBTUB:UFactor:8
Temperature, K	Mole fraction of butan-1-ol	Mass density, kg/m3	uncertainty
288.15	0	892.2	0.6
288.15	0.05	888	0.6
288.15	0.1	884.3	0.7
288.15	0.2	877	0.7
288.15	0.3	869.7	0.7
288.15	0.4	862.4	0.7
288.15	0.5	854.9	0.7
288.15	0.6	847.3	0.8
288.15	0.7	839.4	0.8
288.15	0.8	831.2	0.8
288.15	0.9	822.6	0.8
288.15	0.95	818.1	0.8
288.15	1	813.5	0.9
298.15	0	881	0.7
298.15	0.05	876.9	0.7
298.15	0.1	873.3	0.7
298.15	0.2	866.3	0.7
298.15	0.3	859.4	0.7
298.15	0.4	852.4	0.7
298.15	0.5	845.3	0.8
298.15	0.6	838	0.8
298.15	0.7	830.5	0.8
298.15	0.8	822.7	0.8
298.15	0.9	814.5	0.9
298.15	0.95	810.3	0.9
298.15	1	805.9	0.9
308.15	0	869.7	0.7
308.15	0.05	865.7	0.7
308.15	0.1	862.3	0.7
308.15	0.2	855.5	0.7
308.15	0.3	848.9	0.8
308.15	0.4	842.2	0.8
308.15	0.5	835.4	0.8
308.15	0.6	828.6	0.8
308.15	0.7	821.5	0.8
308.15	0.8	814.1	0.9
308.15	0.9	806.3	0.9
308.15	0.95	802.3	0.9
308.15	1	798.2	0.9
