Measured thermophysical data. Vapor-Liquid Equilibria in Alcohol + Cyclohexane + Water Systems
Source: J. Chem. Eng. Data, 2004, 10.1021/je030146o
Compound 1: ethanol, C2H6O, InChI=1S/C2H6O/c1-2-3/h3H,2H2,1H3, purity 99.5%
Compound 2: 2-methyl-1-propanol, C4H10O, InChI=1S/C4H10O/c1-4(2)3-5/h4-5H,3H2,1-2H3, purity 99%
Compound 3: cyclohexane, C6H12, InChI=1S/C6H12/c1-2-4-6-5-3-1/h1-6H2, purity 99.5%
Compound 4: water, H2O, InChI=1S/H2O/h1H2, purity 99.9%

System: ethanol + water; phases: Gas, Liquid
Fixed: Temperature, K = 323.15
Property: Mole fraction of ethanol (Gas); method: CHROM:UFactor:4
Mole fraction of ethanol	Mole fraction of ethanol	uncertainty
0.0429	0.2982	0.0143
0.0654	0.3821	0.0184
0.1545	0.5132	0.0234
0.1825	0.5462	0.0218
0.2421	0.5679	0.0208
0.4081	0.6176	0.0184
0.4356	0.6278	0.0179
0.5049	0.6664	0.0161
0.64	0.7303	0.013
0.6527	0.7322	0.0129
0.8056	0.8265	0.0084
0.9006	0.8996	0.0049

System: ethanol + cyclohexane + water; phases: Gas, Liquid
Property: Mole fraction of ethanol (Gas); method: CHROM:UFactor:4
Temperature, K	Mole fraction of ethanol	Mole fraction of cyclohexane	Mole fraction of ethanol	uncertainty
308.15	0.479	0.0046	0.4651	0.0224
308.15	0.5096	0.4257	0.2948	0.0142
308.15	0.5776	0.3814	0.3269	0.0157
308.15	0.5972	0.3589	0.3201	0.0154
308.15	0.6675	0.2752	0.3381	0.0163
308.15	0.7066	0.1073	0.3213	0.0154
308.15	0.7155	0.2137	0.3369	0.0162
308.15	0.81	0.0973	0.4101	0.0197
308.15	0.8457	0.0678	0.4795	0.0231
323.15	0.4644	0.0103	0.3796	0.0183
323.15	0.4902	0.4886	0.3887	0.0187
323.15	0.5542	0.4095	0.3881	0.0187
323.15	0.5825	0.3746	0.3861	0.0186
323.15	0.5982	0.0263	0.4332	0.0208
323.15	0.6411	0.3065	0.3957	0.019
323.15	0.6749	0.1437	0.3603	0.0173
323.15	0.6753	0.0682	0.4049	0.0195
323.15	0.6885	0.2439	0.4043	0.0194
323.15	0.7703	0.1121	0.4274	0.0206
323.15	0.8324	0.0766	0.5229	0.023
338.15	0.5653	0.4041	0.4204	0.0202
338.15	0.6124	0.3523	0.4271	0.0205
338.15	0.6822	0.0603	0.4141	0.0199
338.15	0.716	0.237	0.4572	0.022
338.15	0.806	0.1113	0.5175	0.0232
338.15	0.8098	0.1288	0.5057	0.0238
338.15	0.8276	0.0786	0.5584	0.0213
338.15	0.865	0.0405	0.6221	0.0182

System: ethanol + cyclohexane + water; phases: Gas, Liquid
Property: Mole fraction of cyclohexane (Gas); method: CHROM:UFactor:4
Temperature, K	Mole fraction of ethanol	Mole fraction of cyclohexane	Mole fraction of cyclohexane	uncertainty
308.15	0.479	0.0046	0.2965	0.0142
308.15	0.5096	0.4257	0.6352	0.0176
308.15	0.5776	0.3814	0.6251	0.0181
308.15	0.5972	0.3589	0.6325	0.0177
308.15	0.6675	0.2752	0.6116	0.0187
308.15	0.7066	0.1073	0.5809	0.0202
308.15	0.7155	0.2137	0.6095	0.0188
308.15	0.81	0.0973	0.5302	0.0226
308.15	0.8457	0.0678	0.464	0.0223
323.15	0.4644	0.0103	0.419	0.0202
323.15	0.4902	0.4886	0.5754	0.0205
323.15	0.5542	0.4095	0.5668	0.0209
323.15	0.5825	0.3746	0.5588	0.0213
323.15	0.5982	0.0263	0.3647	0.0175
323.15	0.6411	0.3065	0.5503	0.0217
323.15	0.6749	0.1437	0.5513	0.0216
323.15	0.6753	0.0682	0.4525	0.0218
323.15	0.6885	0.2439	0.5344	0.0224
323.15	0.7703	0.1121	0.4915	0.0237
323.15	0.8324	0.0766	0.4075	0.0196
338.15	0.5653	0.4041	0.5327	0.0225
338.15	0.6124	0.3523	0.5244	0.0229
338.15	0.6822	0.0603	0.4379	0.0211
338.15	0.716	0.237	0.4957	0.0239
338.15	0.806	0.1113	0.4174	0.0201
338.15	0.8098	0.1288	0.4418	0.0213
338.15	0.8276	0.0786	0.3672	0.0177
338.15	0.865	0.0405	0.3027	0.0145

System: 2-methyl-1-propanol + cyclohexane + water; phases: Gas, Liquid
Property: Mole fraction of 2-methyl-1-propanol (Gas); method: CHROM:UFactor:4
Temperature, K	Mole fraction of 2-methyl-1-propanol	Mole fraction of cyclohexane	Mole fraction of 2-methyl-1-propanol	uncertainty
313.15	0.0449	0.9514	0.0431	0.0021
313.15	0.0866	0.905	0.059	0.0028
313.15	0.169	0.7553	0.0689	0.0033
313.15	0.3068	0.6125	0.0632	0.003
313.15	0.3985	0.475	0.0641	0.0031
313.15	0.465	0.3695	0.0603	0.0029
313.15	0.5009	0.3145	0.0723	0.0035
313.15	0.5409	0.2592	0.066	0.0032
313.15	0.5472	0.1368	0.0961	0.0046
313.15	0.5695	0.1315	0.0897	0.0043
313.15	0.5966	0.04	0.1417	0.0068
313.15	0.7104	0.1089	0.1208	0.0058
333.15	0.0788	0.9092	0.0723	0.0035
333.15	0.0797	0.9093	0.0667	0.0032
333.15	0.2737	0.6958	0.1077	0.0052
333.15	0.2872	0.6443	0.0878	0.0042
333.15	0.3872	0.5557	0.1138	0.0055
333.15	0.3914	0.4784	0.0869	0.0042
333.15	0.4027	0.4938	0.1003	0.0048
333.15	0.4381	0.3794	0.0943	0.0045
333.15	0.4431	0.4208	0.0889	0.0043
333.15	0.4876	0.3382	0.1454	0.007
333.15	0.4973	0.2635	0.1059	0.0051
333.15	0.5024	0.2275	0.1006	0.0048
333.15	0.5133	0.1846	0.116	0.0056
333.15	0.5139	0.2442	0.1077	0.0052
333.15	0.5185	0.1247	0.1163	0.0056
333.15	0.5916	0.0998	0.2014	0.0097

System: 2-methyl-1-propanol + cyclohexane + water; phases: Gas, Liquid
Property: Mole fraction of cyclohexane (Gas); method: CHROM:UFactor:4
Temperature, K	Mole fraction of 2-methyl-1-propanol	Mole fraction of cyclohexane	Mole fraction of cyclohexane	uncertainty
313.15	0.0449	0.9514	0.8665	0.0065
313.15	0.0866	0.905	0.7649	0.0114
313.15	0.169	0.7553	0.7241	0.0133
313.15	0.3068	0.6125	0.6536	0.0167
313.15	0.3985	0.475	0.6788	0.0155
313.15	0.465	0.3695	0.6772	0.0156
313.15	0.5009	0.3145	0.6549	0.0166
313.15	0.5409	0.2592	0.6846	0.0152
313.15	0.5472	0.1368	0.589	0.0198
313.15	0.5695	0.1315	0.587	0.0199
313.15	0.5966	0.04	0.4487	0.0216
313.15	0.7104	0.1089	0.5959	0.0195
333.15	0.0788	0.9092	0.7124	0.0139
333.15	0.0797	0.9093	0.746	0.0123
333.15	0.2737	0.6958	0.6926	0.0148
333.15	0.2872	0.6443	0.6179	0.0184
333.15	0.3872	0.5557	0.6321	0.0177
333.15	0.3914	0.4784	0.6009	0.0192
333.15	0.4027	0.4938	0.601	0.0192
333.15	0.4381	0.3794	0.5791	0.0203
333.15	0.4431	0.4208	0.5849	0.02
333.15	0.4876	0.3382	0.5656	0.0209
333.15	0.4973	0.2635	0.5733	0.0206
333.15	0.5024	0.2275	0.5721	0.0206
333.15	0.5133	0.1846	0.53	0.0226
333.15	0.5139	0.2442	0.5486	0.0217
333.15	0.5185	0.1247	0.521	0.0231
333.15	0.5916	0.0998	0.4211	0.0203
