Measured thermophysical data. Liquid-Liquid Equilibria of Methyl Acetate + Methanol + Octane or Nonane
Source: J. Chem. Eng. Data, 2004, 10.1021/je0342365
Compound 1: methanol, CH4O, InChI=1S/CH4O/c1-2/h2H,1H3
Compound 2: methyl ethanoate, C3H6O2, InChI=1S/C3H6O2/c1-3(4)5-2/h1-2H3
Compound 3: octane, C8H18, InChI=1S/C8H18/c1-3-5-7-8-6-4-2/h3-8H2,1-2H3
Compound 4: nonane, C9H20, InChI=1S/C9H20/c1-3-5-7-9-8-6-4-2/h3-9H2,1-2H3

System: methanol + methyl ethanoate + octane; phases: Liquid mixture 1, Liquid mixture 2
Fixed: Pressure, kPa = 101.3
Property: Mole fraction of methyl ethanoate (Liquid mixture 1); method: CHROM:UFactor:4
Property: Mole fraction of methyl ethanoate (Liquid mixture 2); method: CHROM:UFactor:4
Property: Mole fraction of methanol (Liquid mixture 2); method: CHROM:UFactor:4
Temperature, K	Mole fraction of methanol	Mole fraction of methyl ethanoate	uncertainty	Mole fraction of methyl ethanoate	uncertainty	Mole fraction of methanol	uncertainty
278.15	0.088	0	0.001	0	0.001	0.957	
278.15	0.091	0.019	0.019	0.024	0.003	0.929	
278.15	0.104	0.039	0.005	0.052	0.004	0.895	
278.15	0.119	0.059	0.005	0.079	0.004	0.862	
278.15	0.134	0.079	0.006	0.105	0.004	0.825	
278.15	0.155	0.109	0.006	0.137	0.005	0.785	
278.15	0.161	0.124	0.006	0.157	0.005	0.754	
278.15	0.184	0.142	0.006	0.177	0.006	0.724	
278.15	0.191	0.151	0.006	0.187	0.006	0.713	
278.15	0.206	0.163	0.006	0.201	0.006	0.692	
278.15	0.233	0.181	0.006	0.217	0.007	0.66	
278.15	0.26	0.201	0.007	0.24	0.008	0.614	
278.15	0.267	0.206	0.007	0.243	0.008	0.604	
278.15	0.296	0.222	0.007	0.254	0.008	0.567	
278.15	0.327	0.235	0.007	0.262	0.008	0.529	
288.15	0.095	0	0.001	0	0.001	0.952	
288.15	0.11	0.015	0.004	0.018	0.003	0.928	
288.15	0.13	0.032	0.004	0.039	0.003	0.898	
288.15	0.147	0.051	0.005	0.061	0.004	0.871	
288.15	0.161	0.065	0.005	0.078	0.004	0.846	
288.15	0.186	0.086	0.005	0.102	0.004	0.811	
288.15	0.206	0.106	0.005	0.124	0.004	0.778	
288.15	0.233	0.124	0.005	0.145	0.005	0.741	
288.15	0.279	0.149	0.005	0.172	0.006	0.688	
288.15	0.3	0.159	0.006	0.185	0.006	0.658	
288.15	0.333	0.172	0.006	0.194	0.006	0.626	
288.15	0.364	0.181	0.006	0.201	0.006	0.599	
298.15	0.115	0	0.001	0	0.001	0.94	
298.15	0.147	0.023	0.004	0.024	0.003	0.908	
298.15	0.173	0.043	0.004	0.05	0.003	0.866	
298.15	0.207	0.066	0.004	0.076	0.004	0.825	
298.15	0.238	0.09	0.004	0.101	0.004	0.786	
298.15	0.267	0.104	0.004	0.114	0.004	0.76	
298.15	0.326	0.125	0.005	0.136	0.004	0.698	
298.15	0.363	0.138	0.005	0.149	0.005	0.658	

System: methanol + methyl ethanoate + nonane; phases: Liquid mixture 1, Liquid mixture 2
Fixed: Pressure, kPa = 101.3
Property: Mole fraction of methyl ethanoate (Liquid mixture 1); method: CHROM:UFactor:4
Property: Mole fraction of methyl ethanoate (Liquid mixture 2); method: CHROM:UFactor:4
Property: Mole fraction of methanol (Liquid mixture 2); method: CHROM:UFactor:4
Temperature, K	Mole fraction of methanol	Mole fraction of methyl ethanoate	uncertainty	Mole fraction of methyl ethanoate	uncertainty	Mole fraction of methanol	uncertainty
278.15	0.063	0	0.001	0	0.001	0.974	
278.15	0.074	0.02	0.006	0.026	0.003	0.944	
278.15	0.084	0.037	0.007	0.05	0.004	0.918	
278.15	0.094	0.063	0.008	0.085	0.004	0.877	
278.15	0.107	0.091	0.007	0.123	0.005	0.832	
278.15	0.119	0.112	0.006	0.154	0.005	0.794	
278.15	0.137	0.132	0.006	0.173	0.006	0.771	
278.15	0.147	0.148	0.007	0.197	0.007	0.744	
278.15	0.165	0.178	0.007	0.234	0.008	0.69	
278.15	0.194	0.214	0.008	0.268	0.009	0.639	
278.15	0.218	0.243	0.008	0.3	0.009	0.589	
278.15	0.24	0.263	0.008	0.318	0.01	0.552	
278.15	0.239	0.263	0.008	0.319	0.01	0.552	
278.15	0.251	0.272	0.009	0.324	0.01	0.539	
278.15	0.265	0.282	0.009	0.329	0.01	0.517	
288.15	0.082	0	0.001	0	0.001	0.968	
288.15	0.095	0.023	0.006	0.027	0.003	0.935	
288.15	0.104	0.039	0.005	0.047	0.004	0.913	
288.15	0.122	0.065	0.005	0.079	0.004	0.873	
288.15	0.137	0.085	0.005	0.101	0.004	0.847	
288.15	0.158	0.103	0.005	0.121	0.005	0.821	
288.15	0.178	0.125	0.006	0.147	0.005	0.787	
288.15	0.191	0.14	0.006	0.166	0.006	0.76	
288.15	0.205	0.157	0.006	0.188	0.006	0.731	
288.15	0.236	0.184	0.007	0.214	0.007	0.689	
288.15	0.255	0.198	0.007	0.228	0.007	0.657	
288.15	0.29	0.219	0.007	0.248	0.008	0.621	
288.15	0.33	0.248	0.008	0.271	0.008	0.539	
298.15	0.098	0	0.001	0	0.001	0.963	
298.15	0.114	0.022	0.004	0.027	0.003	0.933	
298.15	0.138	0.041	0.004	0.047	0.003	0.904	
298.15	0.165	0.068	0.005	0.076	0.004	0.862	
298.15	0.184	0.087	0.005	0.098	0.004	0.835	
298.15	0.203	0.103	0.005	0.122	0.005	0.803	
298.15	0.23	0.124	0.005	0.144	0.005	0.771	
298.15	0.253	0.139	0.005	0.159	0.005	0.747	
298.15	0.28	0.158	0.006	0.175	0.006	0.714	
298.15	0.292	0.164	0.006	0.182	0.006	0.707	
298.15	0.295	0.165	0.006	0.183	0.006	0.702	
298.15	0.315	0.177	0.006	0.195	0.006	0.674	
298.15	0.362	0.193	0.006	0.209	0.007	0.641	
298.15	0.407	0.206	0.007	0.218	0.007	0.596	
