Measured thermophysical data. High-Pressure Phase Equilibrium for Carbon Dioxide + Ethanol at 291.15 K
Source: J. Chem. Eng. Data, 2005, 10.1021/je034243t
Compound 1: carbon dioxide, CO2, InChI=1S/CO2/c2-1-3
Compound 2: ethanol, C2H6O, InChI=1S/C2H6O/c1-2-3/h3H,2H2,1H3

System: ethanol + carbon dioxide; phases: Liquid, Gas
Fixed: Temperature, K = 291.15
Property: Vapor or sublimation pressure, kPa (Liquid); method: Closed cell (Static) method
Mole fraction of carbon dioxide	Vapor or sublimation pressure, kPa	uncertainty
0.184	2094	31
0.227	2563	33
0.304	3250	37
0.455	4278	45
0.728	4938	52
0.838	5032	53
0.951	5191	54
0.983	5300	56
0.996	5400	59

System: ethanol + carbon dioxide; phases: Liquid, Gas
Fixed: Temperature, K = 291.15
Property: Mass density, kg/m3 (Liquid); method: Vibrating tube method
Mole fraction of carbon dioxide	Mass density, kg/m3	uncertainty
0.184	819.5	0.4
0.227	826.4	0.4
0.304	836.8	0.4
0.455	855.1	0.3
0.728	865.9	0.3
0.838	856.5	0.5
0.951	828	0.7
0.983	811.3	1.2
0.996	800.6	1.7

System: ethanol + carbon dioxide; phases: Gas, Liquid
Fixed: Temperature, K = 291.15
Property: Mass density, kg/m3 (Gas); method: Vibrating tube method
Mole fraction of carbon dioxide	Mass density, kg/m3	uncertainty
0.184	44.1	0.6
0.227	56	0.6
0.304	75.4	0.5
0.455	112	0.4
0.728	146.4	0.3
0.838	152.2	0.3
0.951	162.6	0.3
0.983	169.8	0.7
0.996	178.2	1.3

System: ethanol + carbon dioxide; phases: Gas, Liquid
Fixed: Temperature, K = 291.15
Property: Mole fraction of carbon dioxide (Gas); method: Chromatography
Mole fraction of carbon dioxide	Mole fraction of carbon dioxide	uncertainty
0.184	0.985	0.002
0.227	0.99	0.002
0.304	0.994	0.002
0.455	0.992	0.002
0.728	0.992	0.002
0.838	0.994	0.002
0.951	0.997	0.002
0.983	0.998	0.002
0.996	0.999	0.001
