Measured thermophysical data. Isobaric Vapor - Liquid Equilibria for the Ternary System of 2-Methyl-1-butanol, 3-Methyl-1-butanol, and Ethylene Glycol at 101.3 kPa
Source: J. Chem. Eng. Data, 2004, 10.1021/je030216r
Compound 1: 2-methyl-1-butanol, C5H12O, InChI=1S/C5H12O/c1-3-5(2)4-6/h5-6H,3-4H2,1-2H3, purity 99.9%
Compound 2: 3-methylbutan-1-ol, C5H12O, InChI=1S/C5H12O/c1-5(2)3-4-6/h5-6H,3-4H2,1-2H3, purity 99.9%
Compound 3: 1,2-ethanediol, C2H6O2, InChI=1S/C2H6O2/c3-1-2-4/h3-4H,1-2H2, purity 98%

System: 2-methyl-1-butanol; phases: Liquid
Property: Refractive index (Na D-line) (Liquid); method: Standard Abbe refractometry
Temperature, K	Pressure, kPa	Refractive index (Na D-line)	uncertainty
293.15	101.325	1.4095	0.0007

System: 2-methyl-1-butanol; phases: Liquid, Gas
Property: Boiling temperature at pressure P, K (Liquid); method: Ebulliometric method (Recirculating still)
Pressure, kPa	Boiling temperature at pressure P, K	uncertainty
100	401.55	0.2

System: 2-methyl-1-butanol; phases: Liquid
Property: Mass density, kg/m3 (Liquid); method: UNKNOWN
Temperature, K	Pressure, kPa	Mass density, kg/m3	uncertainty
293.15	101.325	817.8	5

System: 3-methylbutan-1-ol; phases: Liquid
Property: Refractive index (Na D-line) (Liquid); method: Standard Abbe refractometry
Temperature, K	Pressure, kPa	Refractive index (Na D-line)	uncertainty
293.15	101.325	1.4054	0.0007

System: 3-methylbutan-1-ol; phases: Liquid, Gas
Property: Boiling temperature at pressure P, K (Liquid); method: Ebulliometric method (Recirculating still)
Pressure, kPa	Boiling temperature at pressure P, K	uncertainty
100	404.45	0.2

System: 3-methylbutan-1-ol; phases: Liquid
Property: Mass density, kg/m3 (Liquid); method: UNKNOWN
Temperature, K	Pressure, kPa	Mass density, kg/m3	uncertainty
293.15	101.325	808.1	5

System: 1,2-ethanediol; phases: Liquid
Property: Refractive index (Na D-line) (Liquid); method: Standard Abbe refractometry
Temperature, K	Pressure, kPa	Refractive index (Na D-line)	uncertainty
293.15	101.325	1.4328	0.0008

System: 1,2-ethanediol; phases: Liquid, Gas
Property: Boiling temperature at pressure P, K (Liquid); method: Ebulliometric method (Recirculating still)
Pressure, kPa	Boiling temperature at pressure P, K	uncertainty
100	470.63	0.2

System: 1,2-ethanediol; phases: Liquid
Property: Mass density, kg/m3 (Liquid); method: UNKNOWN
Temperature, K	Pressure, kPa	Mass density, kg/m3	uncertainty
293.15	101.325	1113.6	5.1

System: 1,2-ethanediol + 3-methylbutan-1-ol + 2-methyl-1-butanol; phases: Liquid, Gas
Fixed: Pressure, kPa = 101.3
Property: Mole fraction of 3-methylbutan-1-ol (Liquid); method: Chromatography
Property: Mole fraction of 3-methylbutan-1-ol (Gas); method: Chromatography
Property: Mole fraction of 2-methyl-1-butanol (Gas); method: Chromatography
Temperature, K	Mole fraction of 2-methyl-1-butanol	Mole fraction of 3-methylbutan-1-ol	uncertainty	Mole fraction of 3-methylbutan-1-ol	uncertainty	Mole fraction of 2-methyl-1-butanol	uncertainty
402.34	0.9365	0.0206	0.01	0.0204	0.01	0.9547	
404.16	0.4331	0.4857	0.0106	0.4864	0.0108	0.4835	
405.46	0.6851	0.0523	0.01	0.0577	0.01	0.8827	
407.44	0.0515	0.7654	0.0102	0.883	0.01	0.0672	
408.95	0.2812	0.3309	0.0103	0.4661	0.0108	0.4483	
409.36	0.3737	0.0922	0.01	0.1632	0.0101	0.7565	
410.76	0.102	0.4681	0.0106	0.7327	0.0103	0.1922	
411.36	0.1862	0.2768	0.0102	0.5145	0.0109	0.3672	
412.98	0.0478	0.3999	0.0105	0.7822	0.0102	0.1079	
414.89	0.0431	0.2997	0.0103	0.7563	0.0103	0.0997	
417.13	0.0435	0.2445	0.0102	0.7161	0.0103	0.1658	
419.81	0.0482	0.1405	0.0101	0.6309	0.0106	0.2088	
430.47	0.0431	0.0412	0.01	0.3865	0.0106	0.3844	
444.83	0.0188	0.0168	0.01	0.2932	0.0104	0.2828	
