Measured thermophysical data. Vapor Liquid Equilibrium between (278.15 and 323.15) K and Excess Functions at T ) 298.15 K for 1-Bromobutane with 1-Octanol or 1-Decanol
Source: J. Chem. Eng. Data, 2004, 10.1021/je030168a
Compound 1: 1-bromobutane, C4H9Br, InChI=1S/C4H9Br/c1-2-3-4-5/h2-4H2,1H3
Compound 2: octan-1-ol, C8H18O, InChI=1S/C8H18O/c1-2-3-4-5-6-7-8-9/h9H,2-8H2,1H3
Compound 3: decan-1-ol, C10H22O, InChI=1S/C10H22O/c1-2-3-4-5-6-7-8-9-10-11/h11H,2-10H2,1H3

System: 1-bromobutane; phases: Liquid, Gas
Property: Vapor or sublimation pressure, kPa (Liquid); method: CCELL:UFactor:2
Temperature, K	Vapor or sublimation pressure, kPa	uncertainty
278.15	1.86	0.022
283.15	2.48	0.023
288.15	3.265	0.026
293.15	4.261	0.029
298.15	5.506	0.033
303.15	7.039	0.038
308.15	8.899	0.043
313.15	11.148	0.05
318.15	13.872	0.059
323.15	17.092	0.069

System: octan-1-ol; phases: Liquid, Gas
Property: Vapor or sublimation pressure, kPa (Liquid); method: CCELL:UFactor:2
Temperature, K	Vapor or sublimation pressure, kPa	uncertainty
288.15	0.001	0.01
293.15	0.003	0.01
298.15	0.007	0.01
303.15	0.011	0.01
308.15	0.019	0.01
313.15	0.031	0.01
318.15	0.051	0.01
323.15	0.08	0.01

System: decan-1-ol; phases: Liquid, Gas
Property: Vapor or sublimation pressure, kPa (Liquid); method: Closed cell (Static) method
Temperature, K	Vapor or sublimation pressure, kPa	uncertainty
308.15	0.001	0.01
313.15	0.004	0.01
318.15	0.007	0.01
323.15	0.011	0.01

System: 1-bromobutane + octan-1-ol; phases: Liquid
Fixed: Temperature, K = 298.15
Fixed: Pressure, kPa = 101.3
Property: Excess molar enthalpy (molar enthalpy of mixing), kJ/mol (Liquid); method: Flow calorimetry
Mole fraction of octan-1-ol	Excess molar enthalpy (molar enthalpy of mixing), kJ/mol	uncertainty
0.025	0.364	0.008
0.0571	0.602	0.013
0.1224	0.84	0.018
0.1949	0.976	0.021
0.2361	1.021	0.022
0.276	1.048	0.022
0.3205	1.057	0.023
0.367	1.056	0.023
0.4661	1.005	0.022
0.5784	0.889	0.019
0.7064	0.692	0.015
0.8484	0.4	0.009
0.9311	0.204	0.005

System: 1-bromobutane + octan-1-ol; phases: Liquid
Fixed: Temperature, K = 298.15
Fixed: Pressure, kPa = 101.3
Property: Excess molar volume, m3/mol (Liquid); method: Calculated with densities of this investigation
Mole fraction of octan-1-ol	Excess molar volume, m3/mol	uncertainty
0.0702	1.04e-07	8e-09
0.1016	1.27e-07	8e-09
0.2062	1.67e-07	8e-09
0.298	1.83e-07	8e-09
0.3954	1.87e-07	8e-09
0.4953	1.82e-07	8e-09
0.5976	1.68e-07	8e-09
0.6922	1.42e-07	8e-09
0.7908	1.11e-07	8e-09
0.853	8.1e-08	8e-09
0.8904	5.7e-08	8e-09

System: 1-bromobutane + octan-1-ol; phases: Liquid, Gas
Property: Vapor or sublimation pressure, kPa (Liquid); method: CCELL:UFactor:2
Temperature, K	Mole fraction of octan-1-ol	Vapor or sublimation pressure, kPa	uncertainty
278.15	0.1029	1.763	0.042
278.15	0.1957	1.728	0.042
278.15	0.265	1.687	0.041
278.15	0.3503	1.6	0.041
278.15	0.4477	1.491	0.04
278.15	0.5528	1.339	0.039
278.15	0.6397	1.191	0.041
278.15	0.7345	0.964	0.034
278.15	0.8543	0.603	0.023
278.15	0.9136	0.384	0.018
283.15	0.1029	2.374	0.046
283.15	0.1957	2.301	0.045
283.15	0.265	2.236	0.045
283.15	0.3504	2.125	0.044
283.15	0.4477	1.984	0.043
283.15	0.5529	1.779	0.042
283.15	0.6398	1.569	0.041
283.15	0.7345	1.272	0.043
283.15	0.8543	0.769	0.028
283.15	0.9136	0.489	0.02
288.15	0.103	3.101	0.05
288.15	0.1958	3.018	0.05
288.15	0.2651	2.92	0.049
288.15	0.3504	2.777	0.048
288.15	0.4478	2.592	0.047
288.15	0.553	2.31	0.045
288.15	0.6399	2.038	0.044
288.15	0.7346	1.639	0.041
288.15	0.8544	1.021	0.036
288.15	0.9137	0.636	0.024
293.15	0.103	4.034	0.056
293.15	0.1958	3.916	0.055
293.15	0.2651	3.786	0.055
293.15	0.3505	3.593	0.053
293.15	0.4479	3.352	0.052
293.15	0.5531	2.984	0.05
293.15	0.64	2.62	0.047
293.15	0.7347	2.1	0.044
293.15	0.8544	1.303	0.039
293.15	0.9137	0.815	0.029
298.15	0.103	5.173	0.063
298.15	0.1959	5.025	0.062
298.15	0.2652	4.854	0.061
298.15	0.3506	4.598	0.06
298.15	0.4481	4.258	0.058
298.15	0.5532	3.809	0.055
298.15	0.6401	3.337	0.052
298.15	0.7349	2.681	0.048
298.15	0.8545	1.656	0.041
298.15	0.9138	1.029	0.036
303.15	0.1031	6.607	0.072
303.15	0.196	6.403	0.071
303.15	0.2653	6.179	0.07
303.15	0.3508	5.852	0.068
303.15	0.4482	5.41	0.065
303.15	0.5534	4.808	0.061
303.15	0.6403	4.218	0.057
303.15	0.735	3.385	0.052
303.15	0.8547	2.092	0.044
303.15	0.9138	1.315	0.039
308.15	0.1031	8.355	0.083
308.15	0.1961	8.062	0.081
308.15	0.2654	7.751	0.079
308.15	0.351	7.333	0.077
308.15	0.4485	6.771	0.073
308.15	0.5537	6.016	0.069
308.15	0.6406	5.257	0.064
308.15	0.7352	4.228	0.057
308.15	0.8548	2.612	0.047
308.15	0.9139	1.633	0.041
313.15	0.1032	10.44	0.096
313.15	0.1962	10.057	0.094
313.15	0.2656	9.659	0.091
313.15	0.3512	9.119	0.088
313.15	0.4488	8.413	0.084
313.15	0.554	7.455	0.078
313.15	0.6409	6.502	0.072
313.15	0.7355	5.209	0.064
313.15	0.855	3.212	0.051
313.15	0.914	2.028	0.044
318.15	0.1033	12.955	0.112
318.15	0.1965	12.424	0.109
318.15	0.2658	11.946	0.106
318.15	0.3516	11.259	0.101
318.15	0.4492	10.348	0.096
318.15	0.5544	9.159	0.088
318.15	0.6413	7.965	0.081
318.15	0.7358	6.357	0.071
318.15	0.8552	3.914	0.056
318.15	0.9141	2.466	0.047
323.15	0.1034	15.932	0.131
323.15	0.1967	15.249	0.126
323.15	0.2661	14.637	0.122
323.15	0.352	13.779	0.117
323.15	0.4497	12.631	0.11
323.15	0.555	11.159	0.101
323.15	0.6418	9.687	0.092
323.15	0.7362	7.697	0.079
323.15	0.8555	4.753	0.061
323.15	0.9143	3.006	0.051

System: 1-bromobutane + decan-1-ol; phases: Liquid, Gas
Property: Vapor or sublimation pressure, kPa (Liquid); method: CCELL:UFactor:2
Temperature, K	Mole fraction of decan-1-ol	Vapor or sublimation pressure, kPa	uncertainty
283.15	0.0997	2.389	0.046
283.15	0.1937	2.301	0.045
283.15	0.3007	2.172	0.045
283.15	0.4342	1.913	0.043
283.15	0.4912	1.833	0.042
283.15	0.5656	1.697	0.042
283.15	0.6516	1.469	0.04
283.15	0.7095	1.256	0.043
283.15	0.7113	1.228	0.042
283.15	0.7801	0.977	0.034
283.15	0.7906	0.94	0.033
283.15	0.9006	0.508	0.021
288.15	0.0998	3.133	0.051
288.15	0.1937	3.025	0.05
288.15	0.3007	2.84	0.049
288.15	0.4343	2.546	0.047
288.15	0.4913	2.393	0.046
288.15	0.5657	2.173	0.045
288.15	0.6517	1.859	0.043
288.15	0.7096	1.601	0.042
288.15	0.7114	1.595	0.041
288.15	0.7802	1.277	0.044
288.15	0.7907	1.237	0.042
288.15	0.9007	0.644	0.024
293.15	0.0998	4.068	0.056
293.15	0.1938	3.917	0.055
293.15	0.3008	3.677	0.054
293.15	0.4344	3.272	0.052
293.15	0.4914	3.085	0.05
293.15	0.5658	2.802	0.049
293.15	0.6518	2.405	0.046
293.15	0.7097	2.088	0.045
293.15	0.7116	2.077	0.044
293.15	0.7803	1.665	0.042
293.15	0.7908	1.593	0.041
293.15	0.9007	0.821	0.03
298.15	0.0998	5.232	0.064
298.15	0.1938	5.021	0.062
298.15	0.3009	4.713	0.061
298.15	0.4345	4.21	0.058
298.15	0.4916	3.945	0.056
298.15	0.566	3.558	0.054
298.15	0.6519	3.057	0.05
298.15	0.7098	2.66	0.049
298.15	0.7117	2.646	0.048
298.15	0.7805	2.124	0.045
298.15	0.7909	2.023	0.044
298.15	0.9008	1.035	0.036
303.15	0.0998	6.689	0.073
303.15	0.1939	6.331	0.071
303.15	0.301	5.986	0.069
303.15	0.4347	5.337	0.065
303.15	0.4918	4.978	0.063
303.15	0.5661	4.5	0.06
303.15	0.6521	3.858	0.056
303.15	0.71	3.342	0.053
303.15	0.712	3.346	0.053
303.15	0.7806	2.668	0.048
303.15	0.791	2.564	0.047
303.15	0.9008	1.316	0.039
308.15	0.0999	8.423	0.084
308.15	0.194	8.041	0.081
308.15	0.3011	7.522	0.078
308.15	0.435	6.666	0.073
308.15	0.492	6.241	0.071
308.15	0.5664	5.626	0.067
308.15	0.6524	4.796	0.062
308.15	0.7102	4.148	0.058
308.15	0.7122	4.158	0.058
308.15	0.7809	3.312	0.052
308.15	0.7912	3.176	0.051
308.15	0.9009	1.644	0.042
313.15	0.1	10.518	0.097
313.15	0.1942	10.079	0.094
313.15	0.3014	9.339	0.09
313.15	0.4354	8.287	0.084
313.15	0.4924	7.738	0.08
313.15	0.5667	6.97	0.076
313.15	0.6527	5.92	0.069
313.15	0.7104	5.116	0.064
313.15	0.7126	5.136	0.065
313.15	0.7812	4.077	0.057
313.15	0.7914	3.93	0.056
313.15	0.901	2.034	0.044
318.15	0.1	13.048	0.113
318.15	0.1944	12.412	0.109
318.15	0.3016	11.532	0.104
318.15	0.4358	10.198	0.096
318.15	0.4928	9.514	0.092
318.15	0.567	8.566	0.086
318.15	0.6531	7.266	0.078
318.15	0.7116	6.29	0.072
318.15	0.713	6.286	0.072
318.15	0.7816	4.978	0.063
318.15	0.7916	4.8	0.062
318.15	0.9012	2.501	0.047
323.15	0.1002	16.044	0.132
323.15	0.1946	15.207	0.127
323.15	0.302	14.104	0.12
323.15	0.4364	12.44	0.11
323.15	0.4934	11.586	0.105
323.15	0.5675	10.419	0.098
323.15	0.6536	8.809	0.088
323.15	0.7112	7.623	0.08
323.15	0.7135	7.606	0.08
323.15	0.782	6.03	0.07
323.15	0.7919	5.818	0.069
323.15	0.9013	3.037	0.051
