Measured thermophysical data. Viscosity of Aqueous CO2 Solutions Measured by Dynamic Light Scattering
Source: J. Chem. Eng. Data, 2003, 10.1021/je034041x
Compound 1: water, H2O, InChI=1S/H2O/h1H2
Compound 2: carbon dioxide, CO2, InChI=1S/CO2/c2-1-3

System: water; phases: Liquid
Property: Viscosity, Pa*s (Liquid); method: OTHER
Temperature, K	Pressure, kPa	Viscosity, Pa*s	uncertainty
273.9	670	0.001833	0.000119
274.2	4630	0.001802	0.000117
274.3	670	0.001827	0.000119
274.5	670	0.001808	0.00012
274.6	4610	0.001804	0.000117
274.7	670	0.001774	0.000119
275	670	0.001737	0.000116
275.1	670	0.001725	0.000114
275.3	670	0.001705	0.000112
275.6	690	0.001683	0.00011
275.9	101.3	0.00164	0.000107
275.9	690	0.00166	0.000109
276	690	0.001652	0.000108
276.1	101.3	0.001637	0.000107
276.1	4780	0.00167	0.00011
276.3	101.3	0.001631	0.000107
276.3	4790	0.001652	0.000109
276.4	690	0.001622	0.000106
276.5	4810	0.001634	0.000108
276.7	101.3	0.001594	0.000105
276.7	690	0.001613	0.000105
276.9	101.3	0.001588	0.000104
277.1	690	0.001589	0.000104
277.2	101.3	0.001555	0.000102
277.5	690	0.001558	0.000102
277.7	4850	0.001459	9.6e-05
278.3	101.3	0.001491	9.8e-05
278.6	4890	0.001459	9.5e-05
279.1	710	0.001442	9.4e-05
279.3	101.3	0.001437	9.4e-05
279.3	710	0.001428	9.4e-05
279.6	4910	0.001425	9.3e-05
279.9	101.3	0.001405	9.2e-05
281	710	0.001357	8.9e-05
281	4910	0.001375	9e-05
281.8	769	0.001329	8.7e-05
282.1	729	0.001319	8.6e-05
282.1	4920	0.001338	8.7e-05
282.2	101.3	0.001286	8.4e-05
282.2	4870	0.001335	8.7e-05

System: carbon dioxide + water; phases: Liquid
Property: Viscosity, Pa*s (Liquid); method: OTHER
Temperature, K	Pressure, kPa	Mole fraction of carbon dioxide	Viscosity, Pa*s	uncertainty
273.9	670	0.00869	0.001855	0.000121
274.2	4630	0.00295	0.002827	0.000184
274.3	670	0.00857	0.001851	0.000121
274.5	670	0.0085	0.001839	0.00012
274.6	4610	0.00294	0.002951	0.000193
274.7	670	0.00844	0.001818	0.000118
275	670	0.00834	0.001794	0.000117
275.1	670	0.00831	0.001807	0.000118
275.3	670	0.00824	0.001771	0.000115
275.6	690	0.00815	0.001739	0.000113
275.9	690	0.00805	0.001705	0.000111
276	690	0.00802	0.001694	0.00011
276.1	4780	0.00291	0.002225	0.000145
276.3	4790	0.00291	0.002179	0.000142
276.4	690	0.00789	0.001647	0.000107
276.5	4810	0.0029	0.002171	0.000142
276.7	690	0.00779	0.001605	0.000105
277.1	690	0.00766	0.001604	0.000104
277.5	690	0.00754	0.00157	0.000102
277.7	4850	0.00287	0.002078	0.000135
278.6	4890	0.00285	0.001948	0.000127
279.1	710	0.00702	0.001438	9.4e-05
279.3	710	0.00695	0.00144	9.4e-05
279.6	4910	0.00283	0.001848	0.00012
281	710	0.00641	0.001367	8.9e-05
281	4910	0.0028	0.001728	0.000113
281.8	769	0.00615	0.001225	8e-05
282.1	729	0.00605	0.001267	8.2e-05
282.1	4920	0.00277	0.001539	0.0001
282.2	4870	0.00277	0.001576	0.000103
