Measured thermophysical data. Analysis and Evaluation of the Liquid-Liquid Equilibrium Data of the Extraction of Aromatics from Hydrocarbons by Tetraethylene Glycol
Source: J. Chem. Eng. Data, 2003, 10.1021/je034128i
Compound 1: 1,2-dimethylbenzene, C8H10, InChI=1S/C8H10/c1-7-5-3-4-6-8(7)2/h3-6H,1-2H3, purity 99%
Compound 2: tetraethylene glycol, C8H18O5, InChI=1S/C8H18O5/c9-1-3-11-5-7-13-8-6-12-4-2-10/h9-10H,1-8H2, purity 98%
Compound 3: heptane, C7H16, InChI=1S/C7H16/c1-3-5-7-6-4-2/h3-7H2,1-2H3, purity 99%

System: 1,2-dimethylbenzene + tetraethylene glycol + heptane; phases: Liquid mixture 1, Liquid mixture 2
Fixed: Pressure, kPa = 101.3
Property: Mole fraction of 1,2-dimethylbenzene (Liquid mixture 1); method: Chromatography
Property: Mole fraction of heptane (Liquid mixture 2); method: Chromatography
Property: Mole fraction of 1,2-dimethylbenzene (Liquid mixture 2); method: Chromatography
Temperature, K	Mole fraction of heptane	Mole fraction of 1,2-dimethylbenzene	uncertainty	Mole fraction of heptane	uncertainty	Mole fraction of 1,2-dimethylbenzene	uncertainty
293.1	0.901	0.099	0.007	0.015	0.005	0.028	
293.1	0.819	0.181	0.007	0.011	0.005	0.048	
293.1	0.671	0.328	0.007	0.01	0.005	0.081	
293.1	0.514	0.486	0.008	0.008	0.005	0.109	
293.1	0.43	0.568	0.008	0.011	0.005	0.148	
303.1	0.807	0.192	0.007	0.017	0.006	0.053	
303.1	0.699	0.301	0.007	0.001	0.001	0.084	
303.1	0.66	0.338	0.007	0.014	0.008	0.091	
303.1	0.516	0.481	0.008	0.008	0.005	0.121	
303.1	0.467	0.532	0.008	0.013	0.005	0.146	
303.1	0.41	0.584	0.007	0.015	0.005	0.162	
313.1	0.889	0.11	0.007	0.022	0.005	0.033	
313.1	0.81	0.189	0.007	0.018	0.005	0.057	
313.1	0.673	0.325	0.007	0.02	0.005	0.091	
313.1	0.566	0.428	0.008	0.019	0.005	0.133	
313.1	0.484	0.508	0.008	0.016	0.005	0.157	
313.1	0.422	0.568	0.008	0.015	0.005	0.179	
