Measured thermophysical data. Apparent Molar Volumes and Viscosities of Some Amino Acids in Aqueous Sodium Acetate Solutions at 298.15 K
Source: J. Chem. Eng. Data, 2004, 10.1021/je034209e
Compound 1: 2-aminoacetic acid, C2H5NO2, InChI=1S/C2H5NO2/c3-1-2(4)5/h1,3H2,(H,4,5)
Compound 2: DL-2-aminopropanoic acid, C3H7NO2, InChI=1S/C3H7NO2/c1-2(4)3(5)6/h2H,4H2,1H3,(H,5,6)
Compound 3: (.+-.)-.alpha.-aminobutyric acid, C4H9NO2, InChI=1S/C4H9NO2/c1-2-3(5)4(6)7/h3H,2,5H2,1H3,(H,6,7)
Compound 4: L-leucine, C6H13NO2, InChI=1S/C6H13NO2/c1-4(2)3-5(7)6(8)9/h4-5H,3,7H2,1-2H3,(H,8,9)/t5-/m0/s1
Compound 5: L-phenylalanine, C9H11NO2, InChI=1S/C9H11NO2/c10-8(9(11)12)6-7-4-2-1-3-5-7/h1-5,8H,6,10H2,(H,11,12)/t8-/m0/s1
Compound 6: water, H2O, InChI=1S/H2O/h1H2
Compound 7: sodium ethanoate, C2H3NaO2, InChI=1S/C2H4O2.Na/c1-2(3)4;/h1H3,(H,3,4);/q;+1/p-1

System: 2-aminoacetic acid + water; phases: Liquid
Fixed: Pressure, kPa = 101.3
Fixed: Temperature, K = 298.15
Property: Viscosity, Pa*s (Liquid); method: Capillary tube (Ostwald; Ubbelohde) method
Amount concentration (molarity), mol/dm3 of 2-aminoacetic acid	Viscosity, Pa*s	uncertainty
0.06012	1.0087	0.0177
0.10856	1.0148	0.0178
0.15802	1.0232	0.018
0.21529	1.029	0.0181
0.2578	1.0364	0.0182
0.34331	1.0506	0.0184

System: 2-aminoacetic acid + water; phases: Liquid
Fixed: Pressure, kPa = 101.3
Fixed: Temperature, K = 298.15
Property: Mass density, kg/m3 (Liquid); method: Vibrating tube method
Molality, mol/kg of 2-aminoacetic acid	Mass density, kg/m3	uncertainty
0.09741	1000.138	1.744
0.2011	1003.365	1.749
0.30165	1006.458	1.755
0.39361	1009.246	1.76
0.48778	1012.066	1.765
0.59157	1015.098	1.77

System: sodium ethanoate + water; phases: Liquid
Fixed: Pressure, kPa = 101.3
Fixed: Temperature, K = 298.15
Property: Mass density, kg/m3 (Liquid); method: Vibrating tube method
Molality, mol/kg of sodium ethanoate	Mass density, kg/m3	uncertainty
0.5	1023.282	1.784
1	1047.559	1.829
2	1086.81	1.907
4	1123.245	1.964
5.5	1139.165	1.988

System: DL-2-aminopropanoic acid + water; phases: Liquid
Fixed: Pressure, kPa = 101.3
Fixed: Temperature, K = 298.15
Property: Viscosity, Pa*s (Liquid); method: Capillary tube (Ostwald; Ubbelohde) method
Amount concentration (molarity), mol/dm3 of DL-2-aminopropanoic acid	Viscosity, Pa*s	uncertainty
0.0665	1.0156	0.0178
0.12286	1.0311	0.0181
0.34544	1.0737	0.0189
0.39707	1.1041	0.0194
0.49658	1.1214	0.0197
0.55811	1.1473	0.0201

System: DL-2-aminopropanoic acid + water; phases: Liquid
Fixed: Pressure, kPa = 101.3
Fixed: Temperature, K = 298.15
Property: Mass density, kg/m3 (Liquid); method: Vibrating tube method
Molality, mol/kg of DL-2-aminopropanoic acid	Mass density, kg/m3	uncertainty
0.0436	998.297	1.741
0.08036	999.343	1.742
0.14831	1001.262	1.746
0.20594	1002.862	1.748
0.32973	1006.262	1.754
0.38631	1007.795	1.757
0.44356	1009.334	1.76

System: (.+-.)-.alpha.-aminobutyric acid + water; phases: Liquid
Fixed: Pressure, kPa = 101.3
Fixed: Temperature, K = 298.15
Property: Viscosity, Pa*s (Liquid); method: Capillary tube (Ostwald; Ubbelohde) method
Amount concentration (molarity), mol/dm3 of (.+-.)-.alpha.-aminobutyric acid	Viscosity, Pa*s	uncertainty
0.03911	1.0097	0.0177
0.08051	1.0265	0.018
0.14249	1.049	0.0184
0.19854	1.0648	0.0187
0.23254	1.0795	0.019
0.27953	1.096	0.0192

System: (.+-.)-.alpha.-aminobutyric acid + water; phases: Liquid
Fixed: Pressure, kPa = 101.3
Fixed: Temperature, K = 298.15
Property: Mass density, kg/m3 (Liquid); method: Vibrating tube method
Molality, mol/kg of (.+-.)-.alpha.-aminobutyric acid	Mass density, kg/m3	uncertainty
0.03934	998.127	1.74
0.08124	999.275	1.742
0.14447	1000.993	1.745
0.20216	1002.543	1.748
0.23741	1003.478	1.75
0.28641	1004.784	1.752
0.3179	1005.602	1.753

System: L-leucine + water; phases: Liquid
Fixed: Pressure, kPa = 101.3
Fixed: Temperature, K = 298.15
Property: Viscosity, Pa*s (Liquid); method: Capillary tube (Ostwald; Ubbelohde) method
Amount concentration (molarity), mol/dm3 of L-leucine	Viscosity, Pa*s	uncertainty
0.0126	1.0068	0.0177
0.0173	1.0095	0.0177
0.02262	1.0126	0.0178
0.03009	1.0164	0.0178
0.03915	1.0209	0.0179
0.04629	1.0249	0.018
0.05561	1.0296	0.0181

System: L-leucine + water; phases: Liquid
Fixed: Pressure, kPa = 101.3
Fixed: Temperature, K = 298.15
Property: Mass density, kg/m3 (Liquid); method: Vibrating tube method
Molality, mol/kg of L-leucine	Mass density, kg/m3	uncertainty
0.01266	997.346	1.739
0.01738	997.458	1.739
0.02274	997.582	1.739
0.03028	997.762	1.739
0.03943	997.975	1.74
0.04666	998.149	1.74
0.05611	998.37	1.74

System: L-phenylalanine + water; phases: Liquid
Fixed: Pressure, kPa = 101.3
Fixed: Temperature, K = 298.15
Property: Viscosity, Pa*s (Liquid); method: Capillary tube (Ostwald; Ubbelohde) method
Amount concentration (molarity), mol/dm3 of L-phenylalanine	Viscosity, Pa*s	uncertainty
0.01076	1.0063	0.0177
0.01392	1.0093	0.0177
0.01953	1.0115	0.0178
0.02399	1.0138	0.0178
0.02932	1.017	0.0179
0.03523	1.0203	0.0179

System: L-phenylalanine + water; phases: Liquid
Fixed: Pressure, kPa = 101.3
Fixed: Temperature, K = 298.15
Property: Mass density, kg/m3 (Liquid); method: Vibrating tube method
Molality, mol/kg of L-phenylalanine	Mass density, kg/m3	uncertainty
0.01545	997.721	1.739
0.02099	997.961	1.74
0.02977	998.343	1.74
0.03372	998.516	1.741
0.04624	999.058	1.742
0.05305	999.349	1.742
0.05832	999.577	1.743

System: 2-aminoacetic acid + sodium ethanoate + water; phases: Liquid
Fixed: Pressure, kPa = 101.3
Fixed: Temperature, K = 298.15
Property: Viscosity, Pa*s (Liquid); method: Capillary tube (Ostwald; Ubbelohde) method
Solvent: Molality, mol/kg of sodium ethanoate	Amount concentration (molarity), mol/dm3 of 2-aminoacetic acid	Viscosity, Pa*s	uncertainty
0	0.06012	1.0087	0.0177
0	0.10856	1.0148	0.0178
0	0.15802	1.0232	0.018
0	0.21529	1.029	0.0181
0	0.2578	1.0364	0.0182
0	0.34331	1.0506	0.0184
0.5	0.198	1.0285	0.0181
0.5	0.3001	1.044	0.0183
0.5	0.39298	1.0573	0.0186
0.5	0.47391	1.0682	0.0188
0.5	0.58836	1.0874	0.0191
0.5	0.71026	1.1113	0.0195
1	0.19928	1.0285	0.0181
1	0.30141	1.0452	0.0184
1	0.39767	1.0584	0.0186
1	0.48219	1.0764	0.0189
1	0.61696	1.0957	0.0192
1	0.70514	1.1101	0.0195
2	0.1154	1.0123	0.0178
2	0.19049	1.0263	0.018
2	0.31267	1.0461	0.0184
2	0.40076	1.0586	0.0186
2	0.50862	1.0797	0.019
2	0.68005	1.113	0.0195
4	0.19882	1.0264	0.018
4	0.28486	1.0414	0.0183
4	0.36295	1.0597	0.0186
4	0.42794	1.0687	0.0188
4	0.57413	1.0872	0.0191
5.5	0.1784	1.0273	0.018
5.5	0.2663	1.0379	0.0182
5.5	0.32915	1.0481	0.0184
5.5	0.43243	1.0662	0.0187
5.5	0.43243	1.0823	0.019

System: 2-aminoacetic acid + sodium ethanoate + water; phases: Liquid
Fixed: Pressure, kPa = 101.3
Fixed: Temperature, K = 298.15
Property: Mass density, kg/m3 (Liquid); method: Vibrating tube method
Solvent: Molality, mol/kg of sodium ethanoate	Molality, mol/kg of 2-aminoacetic acid	Mass density, kg/m3	uncertainty
0	0.09741	1000.138	1.744
0	0.2011	1003.365	1.749
0	0.30165	1006.458	1.755
0	0.39361	1009.246	1.76
0	0.48778	1012.066	1.765
0	0.59157	1015.098	1.77
0.5	0	1023.282	1.784
0.5	0.04978	1024.765	1.787
0.5	0.10798	1026.486	1.79
0.5	0.29728	1032.002	1.8
0.5	0.39095	1034.685	1.804
0.5	0.47324	1037.009	1.808
0.5	0.59064	1040.299	1.814
0.5	0.7171	1043.773	1.82
1	0	1047.559	1.829
1	0.03822	1048.63	1.829
1	0.09398	1050.182	1.832
1	0.29179	1055.611	1.841
1	0.4708	1060.391	1.85
1	0.60627	1063.949	1.856
1	0.69588	1066.255	1.86
2	0	1086.81	1.907
2	0.04993	1088.073	1.899
2	0.17688	1091.252	1.904
2	0.29205	1094.073	1.909
2	0.37594	1096.103	1.913
2	0.64681	1102.436	1.924
4	0	1123.245	1.964
4	0.04558	1124.282	1.962
4	0.10145	1125.532	1.964
4	0.32819	1130.471	1.973
4	0.38916	1131.765	1.976
4	0.526	1134.619	1.981
5.5	0	1139.165	1.988
5.5	0.07215	1140.694	1.991
5.5	0.158	1142.493	1.994
5.5	0.23689	1144.133	1.997
5.5	0.29373	1145.404	2
5.5	0.38792	1147.223	2.003
5.5	0.51623	1149.818	2.007

System: sodium ethanoate + DL-2-aminopropanoic acid + water; phases: Liquid
Fixed: Pressure, kPa = 101.3
Fixed: Temperature, K = 298.15
Property: Viscosity, Pa*s (Liquid); method: Capillary tube (Ostwald; Ubbelohde) method
Solvent: Molality, mol/kg of sodium ethanoate	Amount concentration (molarity), mol/dm3 of DL-2-aminopropanoic acid	Viscosity, Pa*s	uncertainty
0	0.0665	1.0156	0.0178
0	0.12286	1.0311	0.0181
0	0.34544	1.0737	0.0189
0	0.39707	1.1041	0.0194
0	0.49658	1.1214	0.0197
0	0.55811	1.1473	0.0201
0.5	0.09738	1.0268	0.018
0.5	0.20939	1.0516	0.0185
0.5	0.28646	1.0795	0.019
0.5	0.38716	1.1059	0.0194
0.5	0.49953	1.1267	0.0198
0.5	0.57896	1.1561	0.0203
1	0.03649	1.0103	0.0177
1	0.10214	1.0279	0.0181
1	0.207	1.0507	0.0185
1	0.29946	1.081	0.019
1	0.37857	1.102	0.0194
1	0.508	1.1374	0.02
2	0.11469	1.0316	0.0181
2	0.18726	1.0523	0.0185
2	0.26338	1.0702	0.0188
2	0.36704	1.1042	0.0194
2	0.47176	1.1247	0.0198
4	0.11071	1.0255	0.018
4	0.19825	1.0497	0.0184
4	0.26808	1.0683	0.0188
4	0.35474	1.0961	0.0192
4	0.42719	1.1201	0.0197
5.5	0.05723	1.0144	0.0178
5.5	0.19471	1.0484	0.0184
5.5	0.26102	1.0696	0.0188
5.5	0.3494	1.0899	0.0191
5.5	0.42274	1.1134	0.0196

System: sodium ethanoate + DL-2-aminopropanoic acid + water; phases: Liquid
Fixed: Pressure, kPa = 101.3
Fixed: Temperature, K = 298.15
Property: Mass density, kg/m3 (Liquid); method: Vibrating tube method
Solvent: Molality, mol/kg of sodium ethanoate	Molality, mol/kg of DL-2-aminopropanoic acid	Mass density, kg/m3	uncertainty
0	0.0436	998.297	1.741
0	0.08036	999.343	1.742
0	0.14831	1001.262	1.746
0	0.20594	1002.862	1.748
0	0.32973	1006.262	1.754
0	0.38631	1007.795	1.757
0	0.44356	1009.334	1.76
0.5	0	1023.282	1.784
0.5	0.05216	1024.672	1.787
0.5	0.09574	1025.819	1.789
0.5	0.20731	1028.721	1.794
0.5	0.28498	1030.694	1.797
0.5	0.38764	1033.27	1.802
0.5	0.50375	1036.131	1.807
0.5	0.58686	1038.115	1.81
1	0	1047.559	1.829
1	0.03492	1048.425	1.828
1	0.05391	1048.894	1.83
1	0.09813	1049.987	1.831
1	0.29131	1054.681	1.839
1	0.37013	1056.556	1.843
1	0.50079	1059.64	1.848
2	0	1086.81	1.924
2	0.02944	1087.452	1.898
2	0.05581	1088.024	1.933
2	0.24647	1092.073	1.905
2	0.34579	1094.117	1.909
2	0.44753	1096.175	1.919
4	0	1123.245	1.961
4	0.09928	1125.057	1.964
4	0.17879	1126.482	1.966
4	0.24289	1127.6	1.968
4	0.32326	1128.985	1.97
4	0.39117	1130.136	1.972
4	0.46912	1131.434	1.975
5.5	0	1139.165	1.988
5.5	0.05043	1139.999	1.99
5.5	0.17313	1142.007	1.993
5.5	0.23311	1142.96	1.995
5.5	0.31388	1144.278	1.997
5.5	0.38164	1145.348	1.999

System: sodium ethanoate + (.+-.)-.alpha.-aminobutyric acid + water; phases: Liquid
Fixed: Pressure, kPa = 101.3
Fixed: Temperature, K = 298.15
Property: Viscosity, Pa*s (Liquid); method: Capillary tube (Ostwald; Ubbelohde) method
Solvent: Molality, mol/kg of sodium ethanoate	Amount concentration (molarity), mol/dm3 of (.+-.)-.alpha.-aminobutyric acid	Viscosity, Pa*s	uncertainty
0	0.03911	1.0097	0.0177
0	0.08051	1.0265	0.018
0	0.14249	1.049	0.0184
0	0.19854	1.0648	0.0187
0	0.23254	1.0795	0.019
0	0.27953	1.096	0.0192
0.5	0.07753	1.026	0.018
0.5	0.10445	1.0366	0.0182
0.5	0.14235	1.0496	0.0184
0.5	0.17218	1.0623	0.0187
0.5	0.20802	1.0776	0.0189
0.5	0.24135	1.0886	0.0191
1	0.04893	1.0183	0.0179
1	0.0842	1.0313	0.0181
1	0.11108	1.0403	0.0183
1	0.14533	1.0543	0.0185
1	0.16746	1.0602	0.0186
1	0.22086	1.0792	0.019
1	0.23705	1.0885	0.0191
2	0.08808	1.0325	0.0181
2	0.11694	1.0429	0.0183
2	0.15173	1.0545	0.0185
2	0.17928	1.066	0.0187
2	0.20883	1.0795	0.019
2	0.22792	1.085	0.0191
4	0.05148	1.0174	0.0179
4	0.11248	1.042	0.0183
4	0.13864	1.0513	0.0185
4	0.18798	1.0685	0.0188
4	0.23292	1.0867	0.0191
4	0.23895	1.0878	0.0191
5.5	0.08951	1.0278	0.018
5.5	0.11858	1.042	0.0183
5.5	0.14421	1.0519	0.0185
5.5	0.17846	1.0686	0.0188
5.5	0.20417	1.0748	0.0189

System: sodium ethanoate + (.+-.)-.alpha.-aminobutyric acid + water; phases: Liquid
Fixed: Pressure, kPa = 101.3
Fixed: Temperature, K = 298.15
Property: Mass density, kg/m3 (Liquid); method: Vibrating tube method
Solvent: Molality, mol/kg of sodium ethanoate	Molality, mol/kg of (.+-.)-.alpha.-aminobutyric acid	Mass density, kg/m3	uncertainty
0	0.03934	998.127	1.74
0	0.08124	999.275	1.742
0	0.14447	1000.993	1.745
0	0.20216	1002.543	1.748
0	0.23741	1003.478	1.75
0	0.28641	1004.784	1.752
0	0.3179	1005.602	1.753
0.5	0	1023.282	1.784
0.5	0.04219	1024.348	1.786
0.5	0.07622	1025.204	1.788
0.5	0.10289	1025.874	1.789
0.5	0.14065	1026.804	1.79
0.5	0.17051	1027.556	1.792
0.5	0.20658	1028.446	1.793
0.5	0.24029	1029.264	1.795
1	0	1047.559	1.828
1	0.04689	1048.645	1.829
1	0.0809	1049.427	1.83
1	0.10696	1050.02	1.831
1	0.1403	1050.789	1.833
1	0.16195	1051.271	1.834
1	0.21449	1052.463	1.835
1	0.23051	1052.82	1.871
2	0	1086.81	1.9
2	0.08161	1088.393	1.899
2	0.10859	1088.913	1.901
2	0.14129	1089.552	1.901
2	0.16731	1090.043	1.904
2	0.19535	1090.583	1.911
2	0.21353	1090.913	4.88
2	0.21558	1090.97	4.094
4	0	1123.245	1.963
4	0.04602	1123.953	1.962
4	0.07588	1124.407	1.962
4	0.10105	1124.786	1.963
4	0.20372	1126.308	1.997
4	0.21128	1126.417	1.966
4	0.21686	1126.495	1.966
5.5	0	1139.165	1.988
5.5	0.05001	1139.84	1.99
5.5	0.12808	1140.881	1.991
5.5	0.15893	1141.281	1.992
5.5	0.16274	1141.327	1.992
5.5	0.18221	1141.588	1.993
5.5	0.18692	1141.66	1.993

System: L-leucine + sodium ethanoate + water; phases: Liquid
Fixed: Pressure, kPa = 101.3
Fixed: Temperature, K = 298.15
Property: Viscosity, Pa*s (Liquid); method: Capillary tube (Ostwald; Ubbelohde) method
Solvent: Molality, mol/kg of sodium ethanoate	Amount concentration (molarity), mol/dm3 of L-leucine	Viscosity, Pa*s	uncertainty
0	0.0126	1.0068	0.0177
0	0.0173	1.0095	0.0177
0	0.02262	1.0126	0.0178
0	0.03009	1.0164	0.0178
0	0.03915	1.0209	0.0179
0	0.04629	1.0249	0.018
0	0.05561	1.0296	0.0181
0.5	0.00841	1.0043	0.0176
0.5	0.01434	1.0078	0.0177
0.5	0.02149	1.0118	0.0178
0.5	0.02623	1.0136	0.0178
0.5	0.03237	1.0178	0.0179
0.5	0.03629	1.02	0.0179
1	0.00978	1.0053	0.0177
1	0.01498	1.0082	0.0177
1	0.02032	1.0118	0.0178
1	0.02712	1.0146	0.0178
1	0.0333	1.0183	0.0179
1	0.03934	1.0211	0.0179
2	0.00953	1.0052	0.0177
2	0.01797	1.0098	0.0177
2	0.01996	1.0116	0.0178
2	0.02985	1.0168	0.0179
2	0.05528	1.0301	0.0181
4	0.0096	1.0053	0.0177
4	0.014	1.0077	0.0177
4	0.02418	1.0136	0.0178
4	0.04774	1.026	0.018
4	0.05942	1.033	0.0181
5.5	0.02365	1.0133	0.0178
5.5	0.02865	1.0158	0.0178
5.5	0.0349	1.0191	0.0179
5.5	0.0425	1.0239	0.018

System: L-leucine + sodium ethanoate + water; phases: Liquid
Fixed: Pressure, kPa = 101.3
Fixed: Temperature, K = 298.15
Property: Mass density, kg/m3 (Liquid); method: Vibrating tube method
Solvent: Molality, mol/kg of sodium ethanoate	Molality, mol/kg of L-leucine	Mass density, kg/m3	uncertainty
0	0.01266	997.346	1.739
0	0.01738	997.458	1.739
0	0.02274	997.582	1.739
0	0.03028	997.762	1.739
0	0.03943	997.975	1.74
0	0.04666	998.149	1.74
0	0.05611	998.37	1.74
0.5	0	1023.282	1.784
0.5	0.01084	1023.509	1.785
0.5	0.02222	1023.748	1.785
0.5	0.0332	1023.975	1.785
0.5	0.03582	1024.029	1.785
0.5	0.05147	1024.356	1.786
0.5	0.06294	1024.589	1.786
1	0	1047.559	1.827
1	0.0108	1047.754	1.827
1	0.0161	1047.849	1.827
1	0.02138	1047.945	1.828
1	0.02925	1048.085	1.828
1	0.03644	1048.212	1.828
1	0.04603	1048.386	1.828
1	0.05212	1048.494	1.828
2	0	1086.81	1.896
2	0.00878	1086.923	1.896
2	0.01657	1087.023	1.896
2	0.01841	1087.048	1.896
2	0.02756	1087.165	1.897
2	0.03467	1087.258	1.897
2	0.04403	1087.373	1.897
2	0.05118	1087.469	1.897
4	0	1123.245	1.96
4	0.00681	1123.298	1.96
4	0.00856	1123.311	1.96
4	0.01248	1123.34	1.96
4	0.02158	1123.408	1.961
4	0.03237	1123.485	1.961
4	0.04273	1123.558	1.961
4	0.05326	1123.626	1.961
5.5	0	1139.165	1.988
5.5	0.01497	1139.236	1.989
5.5	0.02082	1139.262	1.989
5.5	0.02523	1139.286	1.989
5.5	0.03076	1139.311	1.989
5.5	0.03749	1139.342	1.989
5.5	0.05297	1139.419	1.989

System: L-phenylalanine + sodium ethanoate + water; phases: Liquid
Fixed: Pressure, kPa = 101.3
Fixed: Temperature, K = 298.15
Property: Viscosity, Pa*s (Liquid); method: Capillary tube (Ostwald; Ubbelohde) method
Solvent: Molality, mol/kg of sodium ethanoate	Amount concentration (molarity), mol/dm3 of L-phenylalanine	Viscosity, Pa*s	uncertainty
0	0.01076	1.0063	0.0177
0	0.01392	1.0093	0.0177
0	0.01953	1.0115	0.0178
0	0.02399	1.0138	0.0178
0	0.02932	1.017	0.0179
0	0.03523	1.0203	0.0179
0.5	0.00927	1.0047	0.0176
0.5	0.02032	1.0119	0.0178
0.5	0.02483	1.0149	0.0178
0.5	0.03107	1.0186	0.0179
0.5	0.03746	1.0224	0.018
0.5	0.03875	1.0234	0.018
1	0.01088	1.0064	0.0177
1	0.01616	1.0095	0.0177
1	0.01997	1.0119	0.0178
1	0.0246	1.0148	0.0178
1	0.02738	1.017	0.0179
1	0.03417	1.0202	0.0179
2	0.01079	1.0065	0.0177
2	0.01483	1.009	0.0177
2	0.02008	1.0127	0.0178
2	0.02457	1.015	0.0178
2	0.03192	1.0189	0.0179
2	0.03219	1.0192	0.0179
4	0.01612	1.0096	0.0177
4	0.01875	1.0118	0.0178
4	0.02185	1.0132	0.0178
4	0.02547	1.0151	0.0178
4	0.0268	1.0159	0.0178

System: L-phenylalanine + sodium ethanoate + water; phases: Liquid
Fixed: Pressure, kPa = 101.3
Fixed: Temperature, K = 298.15
Property: Mass density, kg/m3 (Liquid); method: Vibrating tube method
Solvent: Molality, mol/kg of sodium ethanoate	Molality, mol/kg of L-phenylalanine	Mass density, kg/m3	uncertainty
0	0.01545	997.721	1.739
0	0.02099	997.961	1.74
0	0.02977	998.343	1.74
0	0.03372	998.516	1.741
0	0.04624	999.058	1.742
0	0.05305	999.349	1.742
0	0.05832	999.577	1.743
0.5	0	1023.282	1.784
0.5	0.00907	1023.65	1.785
0.5	0.0199	1024.09	1.786
0.5	0.02433	1024.27	1.786
0.5	0.03047	1024.518	1.786
0.5	0.03677	1024.772	1.787
0.5	0.03805	1024.823	1.787
1	0	1047.559	1.827
1	0.0104	1047.948	1.828
1	0.01546	1048.136	1.828
1	0.01911	1048.272	1.828
1	0.02356	1048.437	1.828
1	0.02623	1048.536	1.829
1	0.03276	1048.78	1.829
2	0	1086.81	1.896
2	0.00994	1087.13	1.897
2	0.01367	1087.25	1.897
2	0.01852	1087.406	1.897
2	0.02267	1087.539	1.897
2	0.02949	1087.759	1.898
2	0.02974	1087.765	1.898
4	0	1123.245	1.96
4	0.01438	1123.62	1.961
4	0.01673	1123.691	1.961
4	0.01951	1123.766	1.961
4	0.02275	1123.851	1.961
4	0.02394	1123.882	1.961
4	0.02828	1123.999	1.962
