Measured thermophysical data. Vapor Pressures of Hydrated Barium Chloride
Source: J. Chem. Eng. Data, 2005, 10.1021/je034012m
Compound 1: barium chloride monohydrate, BaCl2H2O, InChI=1S/Ba.2ClH.H2O/h;2*1H;1H2/q+2;;;/p-2
Compound 2: barium chloride dihydrate, BaCl2H4O2, InChI=1S/Ba.2ClH.2H2O/h;2*1H;2*1H2/q+2;;;;/p-2

System: barium chloride monohydrate; phases: Crystal, Gas
Property: Vapor or sublimation pressure, kPa (Crystal); method: MANOM:UFactor:2
Temperature, K	Vapor or sublimation pressure, kPa	uncertainty
290.45	0.086	0.155
304.15	0.173	0.159
304.45	0.146	0.156
305.25	0.138	0.156
307.25	0.133	0.159
307.45	0.231	0.159
307.75	0.244	0.156
307.75	1.01	0.17
307.95	0.17	0.156
308.05	0.142	0.161
308.45	0.248	0.157
308.45	0.272	0.157
308.65	0.241	0.157
308.95	0.105	0.157
309.05	0.195	0.156
309.25	0.344	0.157
310.15	0.199	0.157
311.45	0.16	0.156
312.95	0.24	0.16
313.45	0.274	0.164
315.35	0.35	0.16
315.95	0.4	0.16
316.15	0.76	0.16
318.45	0.312	0.157
322.85	0.6	0.16
323.55	0.6	0.16
334.45	1.04	0.17
334.45	1.1	0.17
334.85	1.01	0.25
334.95	0.96	0.27
335.45	1.26	0.2
337.45	1.51	0.18
337.65	1.47	0.18
344.95	2.06	0.18
345.25	2.05	0.18

System: barium chloride dihydrate; phases: Crystal, Gas
Property: Vapor or sublimation pressure, kPa (Crystal); method: MANOM:UFactor:4
Temperature, K	Vapor or sublimation pressure, kPa	uncertainty
295.45	0.5	0.33
295.55	0.39	0.32
295.55	0.53	0.34
295.65	0.56	0.35
297.35	0.31	0.35
304.25	1.22	0.33
304.55	0.9	0.33
306.35	1.01	0.33
306.95	1.31	0.33
307.25	1.39	0.33
307.35	1.04	0.33
308.25	1.19	0.32
309.45	1.3	0.33
319.05	2.5	0.34
321.15	2.66	0.47
323.15	3.88	0.76
323.45	3.85	0.74
323.75	3.97	0.73
324.15	4.05	0.64
324.85	5.15	1.13
325.55	5.1	0.83
336.95	9.4	0.6
343.65	13.59	0.76
