Measured thermophysical data. Liquid-Liquid Equilibria of Water + 1-Butanol + 2-Ethyl-1-hexanol System
Source: J. Chem. Eng. Data, 2004, 10.1021/je030202l
Compound 1: 2-ethyl-1-hexanol, C8H18O, InChI=1S/C8H18O/c1-3-5-6-8(4-2)7-9/h8-9H,3-7H2,1-2H3, purity 99.5%
Compound 2: butan-1-ol, C4H10O, InChI=1S/C4H10O/c1-2-3-4-5/h5H,2-4H2,1H3, purity 99.8%
Compound 3: water, H2O, InChI=1S/H2O/h1H2

System: butan-1-ol + 2-ethyl-1-hexanol + water; phases: Liquid mixture 2, Liquid mixture 1
Fixed: Pressure, kPa = 101.3
Property: Mole fraction of water (Liquid mixture 2); method: Chromatography
Property: Mole fraction of water (Liquid mixture 1); method: Chromatography
Property: Mole fraction of butan-1-ol (Liquid mixture 1); method: Chromatography
Temperature, K	Mole fraction of butan-1-ol	Mole fraction of water	uncertainty	Mole fraction of water	uncertainty	Mole fraction of butan-1-ol	uncertainty
298.2	0.099	0.1351	0.0102	0.9948	0.0052	0.0047	
298.2	0.2292	0.161	0.0104	0.9921	0.0079	0.0072	
298.2	0.3019	0.1909	0.011	0.9907	0.0093	0.0086	
298.2	0.374	0.224	0.0115	0.9869	0.0131	0.0124	
298.2	0.4401	0.266	0.0123	0.9832	0.0144	0.0159	
298.2	0.508	0.3161	0.0141	0.9816	0.0149	0.0175	
298.2	0.5896	0.4101	0.0155	0.9807	0.018	0.0181	
303.2	0.1547	0.143	0.0102	0.9959	0.0041	0.0039	
303.2	0.2746	0.1644	0.0104	0.9908	0.0092	0.0066	
303.2	0.3437	0.193	0.0118	0.9896	0.0103	0.0011	
303.2	0.4566	0.2724	0.0121	0.9885	0.0115	0.0086	
303.2	0.4869	0.2841	0.0137	0.9828	0.013	0.0144	
303.2	0.5011	0.3233	0.0177	0.9814	0.0186	0.0161	
303.2	0.5989	0.4011	0.0136	0.9744	0.0256	0.0175	
308.2	0.1221	0.1569	0.0102	0.9959	0.0041	0.0036	
308.2	0.3167	0.1864	0.0104	0.9944	0.0056	0.005	
308.2	0.3933	0.2314	0.012	0.9928	0.0072	0.0061	
308.2	0.4188	0.2544	0.0114	0.9925	0.0075	0.0071	
308.2	0.4795	0.2784	0.0115	0.9831	0.0108	0.0161	
308.2	0.5042	0.3043	0.0166	0.982	0.0127	0.0171	
308.2	0.5354	0.3507	0.0182	0.9808	0.012	0.0189	
313.2	0.1202	0.1434	0.0102	0.996	0.004	0.0038	
313.2	0.2395	0.1664	0.0104	0.9924	0.0076	0.0072	
313.2	0.3133	0.195	0.011	0.9898	0.0102	0.0096	
313.2	0.3903	0.23	0.0113	0.9851	0.0146	0.014	
313.2	0.4607	0.2674	0.0117	0.9817	0.0167	0.0172	
313.2	0.5427	0.3188	0.0145	0.9836	0.0146	0.0154	
313.2	0.5927	0.4073	0.0206	0.9813	0.0167	0.0175	
