Measured thermophysical data. Liquid-Liquid Equilibria for the Epichlorohydrin + Water + Methanol and Allyl Chloride + Water + Methanol Systems
Source: J. Chem. Eng. Data, 2003, 10.1021/je034018b
Compound 1: 1-chloro-2,3-epoxypropane, C3H5ClO, InChI=1S/C3H5ClO/c4-1-3-2-5-3/h3H,1-2H2, purity 99%
Compound 2: 3-chloro-1-propene, C3H5Cl, InChI=1S/C3H5Cl/c1-2-3-4/h2H,1,3H2
Compound 3: water, H2O, InChI=1S/H2O/h1H2, purity 99.99%
Compound 4: methanol, CH4O, InChI=1S/CH4O/c1-2/h2H,1H3, purity 99.5%

System: 1-chloro-2,3-epoxypropane; phases: Liquid
Property: Refractive index (Na D-line) (Liquid); method: ABBE:monoch:UFactor:4:dT:0.01
Temperature, K	Pressure, kPa	Refractive index (Na D-line)	uncertainty
293	101.325	1.4363	0.001

System: 1-chloro-2,3-epoxypropane; phases: Liquid
Property: Mass density, kg/m3 (Liquid); method: PYCNOM:dT:0.1
Temperature, K	Pressure, kPa	Mass density, kg/m3	uncertainty
293	101.325	1182	0.8

System: 3-chloro-1-propene; phases: Liquid
Property: Refractive index (Na D-line) (Liquid); method: ABBE:monoch:UFactor:4:dT:0.01
Temperature, K	Pressure, kPa	Refractive index (Na D-line)	uncertainty
293	101.325	1.4155	0.0009

System: 3-chloro-1-propene; phases: Liquid
Property: Mass density, kg/m3 (Liquid); method: PYCNOM:dT:0.1
Temperature, K	Pressure, kPa	Mass density, kg/m3	uncertainty
293	101.325	937.5	0.6

System: water; phases: Liquid
Property: Refractive index (Na D-line) (Liquid); method: ABBE:monoch:UFactor:4:dT:0.01
Temperature, K	Pressure, kPa	Refractive index (Na D-line)	uncertainty
293	101.325	1.3331	0.0009

System: water; phases: Liquid
Property: Mass density, kg/m3 (Liquid); method: PYCNOM:dT:0.1
Temperature, K	Pressure, kPa	Mass density, kg/m3	uncertainty
293	101.325	999	0.6

System: methanol; phases: Liquid
Property: Refractive index (Na D-line) (Liquid); method: ABBE:monoch:dT:0.01
Temperature, K	Pressure, kPa	Refractive index (Na D-line)	uncertainty
293	101.325	1.3289	

System: methanol; phases: Liquid
Property: Mass density, kg/m3 (Liquid); method: PYCNOM:dT:0.1
Temperature, K	Pressure, kPa	Mass density, kg/m3	uncertainty
293	101.325	791.5	

System: methanol + 1-chloro-2,3-epoxypropane + water; phases: Liquid mixture 1, Liquid mixture 2
Fixed: Pressure, kPa = 273.15
Fixed: Temperature, K = 101
Property: Mole fraction of 1-chloro-2,3-epoxypropane (Liquid mixture 1); method: OTHER
Property: Mole fraction of water (Liquid mixture 2); method: OTHER
Property: Mole fraction of 1-chloro-2,3-epoxypropane (Liquid mixture 2); method: OTHER
Mole fraction of water	Mole fraction of 1-chloro-2,3-epoxypropane	uncertainty	Mole fraction of water	uncertainty	Mole fraction of 1-chloro-2,3-epoxypropane	uncertainty
0.9142	0.013	0.003	0.0188	0.003	0.945	
0.878	0.0148	0.003	0.0196	0.003	0.9352	
0.8221	0.0192	0.003	0.05	0.0034	0.875	
0.775	0.025	0.003	0.085	0.0033	0.805	
0.7482	0.0283	0.003	0.1	0.0033	0.77	
0.71	0.035	0.0032	0.135	0.0034	0.7025	
0.6225	0.0725	0.0033	0.173	0.0034	0.625	
0.5798	0.0944	0.0036	0.2025	0.0034	0.575	
0.526	0.1355	0.0038	0.24625	0.00342	0.495	

System: methanol + 1-chloro-2,3-epoxypropane + water; phases: Liquid mixture 1, Liquid mixture 2
Fixed: Temperature, K = 273.15
Fixed: Pressure, kPa = 101
Property: Mole fraction of water (Liquid mixture 1); method: Titration method
Mole fraction of 1-chloro-2,3-epoxypropane	Mole fraction of water	uncertainty
0.0129	0.9638	0.0362
0.013	0.9404	0.0573
0.013	0.9142	0.0447
0.0141	0.8863	0.0295
0.0165	0.8545	0.0275
0.0192	0.8221	0.0372
0.0283	0.7482	0.015
0.057	0.65	0.0124
0.1407	0.5126	0.0159

System: methanol + 1-chloro-2,3-epoxypropane + water; phases: Liquid mixture 2, Liquid mixture 1
Fixed: Temperature, K = 273.15
Fixed: Pressure, kPa = 101
Property: Mole fraction of water (Liquid mixture 2); method: Titration method
Mole fraction of 1-chloro-2,3-epoxypropane	Mole fraction of water	uncertainty
0.1476	0.5088	0.0154
0.2151	0.4532	0.0143
0.3174	0.367	0.0116
0.3859	0.3172	0.01
0.4629	0.2693	0.0086
0.5653	0.2046	0.0067
0.6757	0.1479	0.0054
0.8193	0.0797	0.004
0.9352	0.0196	0.0031
0.9576	0.0189	0.003

System: methanol + 1-chloro-2,3-epoxypropane + water; phases: Liquid
Fixed: Temperature, K = 297.15
Fixed: Pressure, kPa = 101
Property: Refractive index (Na D-line) (Liquid); method: ABBE:monoch:UFactor:4
Mole fraction of 1-chloro-2,3-epoxypropane	Mole fraction of water	Refractive index (Na D-line)	uncertainty
0.0129	0.9638	1.3385	0.0014
0.013	0.9142	1.3414	0.0013
0.013	0.9404	1.3412	0.0014
0.013	0.9142	1.3414	0.0013
0.0141	0.8863	1.3425	0.0013
0.0148	0.878	1.3429	0.0013
0.0165	0.8545	1.3438	0.0013
0.0192	0.8221	1.345	0.0013
0.0192	0.8221	1.345	0.0013
0.025	0.775	1.3472	0.0013
0.0283	0.7482	1.3482	0.0013
0.0283	0.7482	1.3482	0.0013
0.035	0.71	1.35	0.0013
0.057	0.65	1.3538	0.0013
0.0725	0.6225	1.356	0.0013
0.0944	0.5798	1.3605	0.0013
0.1355	0.526	1.3677	0.0013
0.1407	0.5126	1.3685	0.0013
0.1476	0.5088	1.3693	0.0013
0.2151	0.4532	1.376	0.0013
0.3174	0.367	1.3915	0.0013
0.3859	0.3172	1.4	0.0013
0.4629	0.2693	1.408	0.0013
0.495	0.24625	1.4113	0.0013
0.5653	0.2046	1.4176	0.0014
0.575	0.2025	1.4185	0.0014
0.625	0.173	1.4225	0.0014
0.6757	0.1479	1.4262	0.0016
0.7025	0.135	1.4279	0.0016
0.77	0.1	1.4305	0.0014
0.805	0.085	1.432	0.0014
0.8193	0.0797	1.4315	0.0014
0.875	0.05	1.4323	0.0014
0.9352	0.0196	1.4335	0.0014
0.9352	0.0196	1.4335	0.0014
0.945	0.0188	1.4337	0.0014
0.9576	0.0189	1.434	0.0014

System: methanol + 3-chloro-1-propene + water; phases: Liquid mixture 1, Liquid mixture 2
Fixed: Pressure, kPa = 101
Fixed: Temperature, K = 273.15
Property: Mole fraction of 3-chloro-1-propene (Liquid mixture 1); method: OTHER
Property: Mole fraction of water (Liquid mixture 2); method: OTHER
Property: Mole fraction of 3-chloro-1-propene (Liquid mixture 2); method: OTHER
Mole fraction of water	Mole fraction of 3-chloro-1-propene	uncertainty	Mole fraction of water	uncertainty	Mole fraction of 3-chloro-1-propene	uncertainty
0.9235	0.0015	0.0015	0.02	0.003	0.949	
0.8357	0.0021	0.0021	0.02	0.003	0.935	
0.6832	0.0095	0.003	0.024	0.003	0.931	
0.5884	0.0218	0.003	0.022	0.003	0.928	
0.5	0.042	0.0031	0.022	0.003	0.918	
0.4	0.075	0.0033	0.026	0.003	0.899	
0.29	0.134	0.0068	0.032	0.003	0.86	
0.27	0.175	0.0068	0.061	0.003	0.709	

System: methanol + 3-chloro-1-propene + water; phases: Liquid mixture 1, Liquid mixture 2
Fixed: Pressure, kPa = 101
Fixed: Temperature, K = 273.15
Property: Mole fraction of water (Liquid mixture 1); method: Titration method
Mole fraction of methanol	Mole fraction of water	uncertainty
0.0276	0.971	0.0043
0.0502	0.9484	0.0045
0.1015	0.897	0.0052
0.1311	0.8672	0.0057
0.1622	0.8357	0.0063
0.2304	0.765	0.0079
0.3074	0.6832	0.0104
0.3897	0.5884	0.0133
0.479	0.4623	0.0149

System: methanol + 3-chloro-1-propene + water; phases: Liquid mixture 2, Liquid mixture 1
Fixed: Pressure, kPa = 101
Fixed: Temperature, K = 273.15
Property: Mole fraction of water (Liquid mixture 2); method: Titration method
Mole fraction of methanol	Mole fraction of water	uncertainty
0.0965	0.0279	0.0082
0.2004	0.05	0.0084
0.2599	0.0753	0.0091
0.2952	0.095	0.0095
0.3566	0.127	0.0098
0.393	0.1485	0.0099
0.45	0.175	0.0111
0.5072	0.2329	0.0126
0.55	0.265	0.0127
0.5798	0.2913	0.0135

System: methanol + 3-chloro-1-propene + water; phases: Liquid
Fixed: Temperature, K = 297.15
Fixed: Pressure, kPa = 101
Property: Refractive index (Na D-line) (Liquid); method: ABBE:monoch:UFactor:4
Mole fraction of 3-chloro-1-propene	Mole fraction of water	Refractive index (Na D-line)	uncertainty
0.0014	0.9484	1.337	0.0013
0.0014	0.971	1.3366	0.0013
0.0015	0.897	1.3378	0.0013
0.0015	0.9235	1.3374	0.0013
0.0016	0.8672	1.3384	0.0013
0.0021	0.8357	1.3398	0.0013
0.0021	0.8357	1.3397	0.0013
0.0046	0.765	1.3408	0.0013
0.0095	0.6832	1.3415	0.0013
0.0095	0.6832	1.3415	0.0013
0.0218	0.5884	1.3423	0.0013
0.0218	0.5884	1.3423	0.0013
0.042	0.5	1.3426	0.0013
0.0586	0.4623	1.343	0.0013
0.075	0.4	1.3433	0.0013
0.1287	0.2913	1.3444	0.0013
0.134	0.29	1.3446	0.0013
0.175	0.27	1.3523	0.0013
0.185	0.265	1.3537	0.0013
0.2598	0.2329	1.3623	0.0013
0.375	0.175	1.3717	0.0013
0.4585	0.1485	1.3786	0.0013
0.5164	0.127	1.3827	0.0013
0.61	0.095	1.3883	0.0013
0.6647	0.0753	1.3927	0.0013
0.709	0.061	1.3959	0.0013
0.7506	0.05	1.3997	0.0013
0.86	0.032	1.4063	0.0013
0.8756	0.0279	1.4083	0.0013
0.899	0.026	1.41	0.0013
0.918	0.022	1.412	0.0013
0.928	0.022	1.4118	0.0013
0.931	0.024	1.4133	0.0013
0.935	0.02	1.4131	0.0013
0.949	0.02	1.4146	0.0013
