Measured thermophysical data. Temperature and Concentration Dependence of Apparent Molar Volumes and Viscosities of NaCl, NH4Cl, CuCl2, CuSO4, and MgSO4 in Pure Water and Water + Urea Mixtures
Source: J. Chem. Eng. Data, 2004, 10.1021/je0340957
Compound 1: sodium chloride, ClNa, InChI=1S/ClH.Na/h1H;/q;+1/p-1
Compound 2: water, H2O, InChI=1S/H2O/h1H2, purity 99%
Compound 3: ammonium chloride (NH4Cl), ClH4N, InChI=1S/ClH.H3N/h1H;1H3
Compound 4: copper chloride, Cl2Cu, InChI=1S/2ClH.Cu/h2*1H;/q;;+2/p-2
Compound 5: copper sulfate, CuO4S, InChI=1S/Cu.H2O4S/c;1-5(2,3)4/h;(H2,1,2,3,4)/q+2;/p-2
Compound 6: magnesium sulfate, MgO4S, InChI=1S/Mg.H2O4S/c;1-5(2,3)4/h;(H2,1,2,3,4)/q+2;/p-2
Compound 7: urea, CH4N2O, InChI=1S/CH4N2O/c2-1(3)4/h(H4,2,3,4)

System: sodium chloride + water; phases: Liquid
Fixed: Pressure, kPa = 101.3
Property: Viscosity, Pa*s (Liquid); method: CAPTUB:UFactor:4
Temperature, K	Molality, mol/kg of sodium chloride	Viscosity, Pa*s	uncertainty
308.15	0.0625	0.0007238	1.91e-05
308.15	0.125	0.0007353	1.93e-05
308.15	0.25	0.0007441	1.95e-05
308.15	0.5	0.0007642	2e-05
308.15	1	0.000799	2.07e-05
313.15	0.0625	0.000661	1.77e-05
313.15	0.125	0.00067	1.79e-05
313.15	0.25	0.0006786	1.81e-05
313.15	0.5	0.000695	1.84e-05
313.15	1	0.000722	1.9e-05
323.15	0.0625	0.0005516	1.53e-05
323.15	0.125	0.0005585	1.54e-05
323.15	0.25	0.0005678	1.56e-05
323.15	0.5	0.000587	1.61e-05
323.15	1	0.00062	1.68e-05

System: sodium chloride + water; phases: Liquid
Fixed: Pressure, kPa = 101.3
Property: Apparent molar volume, m3/mol (Liquid); method: SAME:UFactor:2
Temperature, K	Molality, mol/kg of sodium chloride	Apparent molar volume, m3/mol	uncertainty
308.15	0.0625	1.72e-05	8e-07
308.15	0.125	1.77e-05	4e-07
308.15	0.25	1.83e-05	2e-07
308.15	0.5	1.9e-05	1e-07
308.15	1	2.07e-05	1e-07
313.15	0.0625	1.78e-05	8e-07
313.15	0.125	1.81e-05	4e-07
313.15	0.25	1.87e-05	2e-07
313.15	0.5	1.95e-05	2e-07
313.15	1	2.13e-05	1e-07
323.15	0.0625	1.84e-05	8e-07
323.15	0.125	1.87e-05	4e-07
323.15	0.25	1.94e-05	2e-07
323.15	0.5	2.02e-05	2e-07
323.15	1	2.18e-05	1e-07

System: water + ammonium chloride (NH4Cl); phases: Liquid
Fixed: Pressure, kPa = 101.3
Property: Viscosity, Pa*s (Liquid); method: CAPTUB:UFactor:4
Temperature, K	Molality, mol/kg of ammonium chloride (NH4Cl)	Viscosity, Pa*s	uncertainty
308.15	0.0625	0.0007299	1.92e-05
308.15	0.125	0.0007289	1.92e-05
308.15	0.25	0.0007281	1.92e-05
308.15	0.5	0.0007279	1.92e-05
308.15	1	0.0007315	1.92e-05
313.15	0.0625	0.0006608	1.77e-05
313.15	0.125	0.0006597	1.77e-05
313.15	0.25	0.000659	1.76e-05
313.15	0.5	0.0006586	1.76e-05
313.15	1	0.000661	1.77e-05
323.15	0.0625	0.000556	1.54e-05
323.15	0.125	0.0005555	1.54e-05
323.15	0.25	0.0005551	1.54e-05
323.15	0.5	0.0005547	1.53e-05
323.15	1	0.000557	1.54e-05

System: water + ammonium chloride (NH4Cl); phases: Liquid
Fixed: Pressure, kPa = 101.3
Property: Apparent molar volume, m3/mol (Liquid); method: SAME:UFactor:2
Temperature, K	Molality, mol/kg of ammonium chloride (NH4Cl)	Apparent molar volume, m3/mol	uncertainty
308.15	0.0625	3.72e-05	1.9e-06
308.15	0.125	3.73e-05	9e-07
308.15	0.25	3.74e-05	5e-07
308.15	0.5	3.76e-05	3e-07
308.15	1	3.77e-05	2e-07
313.15	0.0625	3.77e-05	1.9e-06
313.15	0.125	3.78e-05	9e-07
313.15	0.25	3.79e-05	5e-07
313.15	0.5	3.8e-05	3e-07
313.15	1	3.82e-05	2e-07
323.15	0.0625	3.82e-05	1.9e-06
323.15	0.125	3.83e-05	1e-06
323.15	0.25	3.85e-05	5e-07
323.15	0.5	3.86e-05	3e-07
323.15	1	3.87e-05	2e-07

System: copper chloride + water; phases: Liquid
Fixed: Pressure, kPa = 101.3
Property: Viscosity, Pa*s (Liquid); method: CAPTUB:UFactor:4
Temperature, K	Molality, mol/kg of copper chloride	Viscosity, Pa*s	uncertainty
308.15	0.0625	0.000739	1.94e-05
308.15	0.125	0.0007708	2.01e-05
308.15	0.25	0.0008088	2.1e-05
308.15	0.5	0.000879	2.26e-05
308.15	1	0.0009692	2.46e-05
313.15	0.0625	0.0006675	1.78e-05
313.15	0.125	0.000697	1.85e-05
313.15	0.25	0.0007375	1.94e-05
313.15	0.5	0.000794	2.07e-05
313.15	1	0.0008595	2.22e-05
323.15	0.0625	0.000577	1.58e-05
323.15	0.125	0.000601	1.64e-05
323.15	0.25	0.000637	1.72e-05
323.15	0.5	0.0006967	1.85e-05
323.15	1	0.0007595	2e-05

System: copper chloride + water; phases: Liquid
Fixed: Pressure, kPa = 101.3
Property: Apparent molar volume, m3/mol (Liquid); method: SAME:UFactor:2
Temperature, K	Molality, mol/kg of copper chloride	Apparent molar volume, m3/mol	uncertainty
308.15	0.0625	5.38e-05	1e-06
308.15	0.125	5.44e-05	6e-07
308.15	0.25	5.49e-05	4e-07
308.15	0.5	5.61e-05	3e-07
308.15	1	5.76e-05	3e-07
313.15	0.0625	5.43e-05	1.1e-06
313.15	0.125	5.49e-05	6e-07
313.15	0.25	5.54e-05	4e-07
313.15	0.5	5.66e-05	3e-07
313.15	1	5.82e-05	3e-07
323.15	0.0625	5.49e-05	1.1e-06
323.15	0.125	5.55e-05	6e-07
323.15	0.25	5.59e-05	4e-07
323.15	0.5	5.71e-05	3e-07
323.15	1	5.86e-05	3e-07

System: water + copper sulfate; phases: Liquid
Fixed: Pressure, kPa = 101.3
Property: Viscosity, Pa*s (Liquid); method: CAPTUB:UFactor:4
Temperature, K	Molality, mol/kg of copper sulfate	Viscosity, Pa*s	uncertainty
308.15	0.0625	0.000742	1.95e-05
308.15	0.125	0.0007918	2.06e-05
308.15	0.25	0.0008376	2.16e-05
308.15	0.5	0.0009348	2.38e-05
308.15	1	0.001089	2.73e-05
313.15	0.0625	0.000673	1.8e-05
313.15	0.125	0.0007176	1.9e-05
313.15	0.25	0.0007579	1.99e-05
313.15	0.5	0.0008476	2.19e-05
313.15	1	0.000977	2.48e-05
323.15	0.0625	0.0005823	1.6e-05
323.15	0.125	0.0006001	1.64e-05
323.15	0.25	0.0006314	1.71e-05
323.15	0.5	0.0007076	1.88e-05
323.15	1	0.000817	2.13e-05

System: water + copper sulfate; phases: Liquid
Fixed: Pressure, kPa = 101.3
Property: Apparent molar volume, m3/mol (Liquid); method: SAME:UFactor:2
Temperature, K	Molality, mol/kg of copper sulfate	Apparent molar volume, m3/mol	uncertainty
308.15	0.0625	9.1e-05	1.5e-06
308.15	0.125	9.19e-05	8e-07
308.15	0.25	9.29e-05	6e-07
308.15	0.5	9.46e-05	5e-07
308.15	1	9.64e-05	5e-07
313.15	0.0625	9.18e-05	1.5e-06
313.15	0.125	9.26e-05	8e-07
313.15	0.25	9.36e-05	6e-07
313.15	0.5	9.54e-05	5e-07
313.15	1	9.71e-05	5e-07
323.15	0.0625	9.25e-05	1.5e-06
323.15	0.125	9.33e-05	9e-07
323.15	0.25	9.44e-05	6e-07
323.15	0.5	9.6e-05	5e-07
323.15	1	9.78e-05	5e-07

System: magnesium sulfate + water; phases: Liquid
Fixed: Pressure, kPa = 101.3
Property: Viscosity, Pa*s (Liquid); method: CAPTUB:UFactor:4
Temperature, K	Molality, mol/kg of magnesium sulfate	Viscosity, Pa*s	uncertainty
308.15	0.0625	0.00074	1.94e-05
308.15	0.125	0.0007982	2.07e-05
308.15	0.25	0.0008401	2.16e-05
308.15	0.5	0.000942	2.39e-05
308.15	1	0.0010939	2.72e-05
313.15	0.0625	0.0006745	1.8e-05
313.15	0.125	0.0007215	1.9e-05
313.15	0.25	0.00076	1.99e-05
313.15	0.5	0.0008575	2.2e-05
313.15	1	0.000955	2.42e-05
323.15	0.0625	0.0005642	1.56e-05
323.15	0.125	0.000605	1.65e-05
323.15	0.25	0.0006392	1.72e-05
323.15	0.5	0.000733	1.93e-05
323.15	1	0.0008368	2.16e-05

System: magnesium sulfate + water; phases: Liquid
Fixed: Pressure, kPa = 101.3
Property: Apparent molar volume, m3/mol (Liquid); method: SAME:UFactor:2
Temperature, K	Molality, mol/kg of magnesium sulfate	Apparent molar volume, m3/mol	uncertainty
308.15	0.0625	0.0001281	2.9e-06
308.15	0.125	0.0001296	1.5e-06
308.15	0.25	0.000131	1e-06
308.15	0.5	0.0001329	8e-07
308.15	1	0.0001345	7e-07
313.15	0.0625	0.0001292	2.9e-06
313.15	0.125	0.0001307	1.5e-06
313.15	0.25	0.0001321	1e-06
313.15	0.5	0.0001339	8e-07
313.15	1	0.0001355	7e-07
323.15	0.0625	0.0001301	2.9e-06
323.15	0.125	0.0001317	1.5e-06
323.15	0.25	0.0001331	1e-06
323.15	0.5	0.000135	8e-07
323.15	1	0.0001366	7e-07

System: urea + sodium chloride + water; phases: Liquid
Fixed: Pressure, kPa = 101.3
Property: Viscosity, Pa*s (Liquid); method: CAPTUB:UFactor:4
Temperature, K	Molality, mol/kg of urea	Molality, mol/kg of sodium chloride	Viscosity, Pa*s	uncertainty
308.15	0.0625	1	0.0007354	1.93e-05
308.15	0.0625	5	0.0008872	2.27e-05
308.15	0.125	1	0.0007475	1.96e-05
308.15	0.125	5	0.0008932	2.28e-05
308.15	0.25	1	0.0007561	1.98e-05
308.15	0.25	5	0.0009001	2.3e-05
308.15	0.5	1	0.0007749	2.02e-05
308.15	0.5	5	0.0009174	2.33e-05
308.15	1	1	0.0007995	2.07e-05
308.15	1	5	0.000948	2.4e-05
313.15	0.0625	1	0.0006674	1.78e-05
313.15	0.0625	5	0.0008127	2.1e-05
313.15	0.125	1	0.0006785	1.81e-05
313.15	0.125	5	0.0008297	2.14e-05
313.15	0.25	1	0.0006867	1.83e-05
313.15	0.25	5	0.0008402	2.16e-05
313.15	0.5	1	0.0007066	1.87e-05
313.15	0.5	5	0.0008601	2.21e-05
313.15	1	1	0.0007295	1.92e-05
313.15	1	5	0.000893	2.28e-05
323.15	0.0625	1	0.000557	1.54e-05
323.15	0.0625	5	0.0006846	1.82e-05
323.15	0.125	1	0.0005673	1.56e-05
323.15	0.125	5	0.0006914	1.84e-05
323.15	0.25	1	0.0005774	1.58e-05
323.15	0.25	5	0.0007005	1.86e-05
323.15	0.5	1	0.0005974	1.63e-05
323.15	0.5	5	0.0007198	1.9e-05
323.15	1	1	0.0006274	1.7e-05
323.15	1	5	0.000799	5.07e-05

System: urea + sodium chloride + water; phases: Liquid
Fixed: Pressure, kPa = 101.3
Property: Apparent molar volume, m3/mol (Liquid); method: SAME:UFactor:2
Temperature, K	Solvent: Molality, mol/kg of urea	Molality, mol/kg of sodium chloride	Apparent molar volume, m3/mol	uncertainty
308.15	1	0.0625	1.78e-05	8e-07
308.15	1	0.125	1.83e-05	4e-07
308.15	1	0.25	1.89e-05	2e-07
308.15	1	0.5	1.96e-05	2e-07
308.15	1	1	2.07e-05	1e-07
308.15	5	0.0625	1.85e-05	8e-07
308.15	5	0.125	1.9e-05	4e-07
308.15	5	0.25	1.97e-05	2e-07
308.15	5	0.5	2.05e-05	2e-07
308.15	5	1	2.24e-05	4e-07
313.15	1	0.0625	1.84e-05	8e-07
313.15	1	0.125	1.89e-05	4e-07
313.15	1	0.25	1.95e-05	2e-07
313.15	1	0.5	2.02e-05	2e-07
313.15	1	1	2.13e-05	1e-07
313.15	5	0.0625	1.91e-05	8e-07
313.15	5	0.125	1.97e-05	4e-07
313.15	5	0.25	2.03e-05	2e-07
313.15	5	0.5	2.11e-05	2e-07
313.15	5	1	2.29e-05	1e-07
323.15	1	0.0625	1.9e-05	8e-07
323.15	1	0.125	1.94e-05	4e-07
323.15	1	0.25	2e-05	2e-07
323.15	1	0.5	2.08e-05	2e-07
323.15	1	1	2.18e-05	4e-07
323.15	5	0.0625	1.97e-05	9e-07
323.15	5	0.125	2.02e-05	4e-07
323.15	5	0.25	2.09e-05	2e-07
323.15	5	0.5	2.17e-05	2e-07
323.15	5	1	2.35e-05	1e-07

System: urea + water + ammonium chloride (NH4Cl); phases: Liquid
Fixed: Pressure, kPa = 101.3
Property: Viscosity, Pa*s (Liquid); method: CAPTUB:UFactor:4
Temperature, K	Molality, mol/kg of urea	Molality, mol/kg of ammonium chloride (NH4Cl)	Viscosity, Pa*s	uncertainty
308.15	0.0625	1	0.000739	1.94e-05
308.15	0.0625	5	0.0008917	2.28e-05
308.15	0.125	1	0.0007384	1.94e-05
308.15	0.125	5	0.0008932	2.28e-05
308.15	0.25	1	0.000738	1.94e-05
308.15	0.25	5	0.000895	2.29e-05
308.15	0.5	1	0.0007377	1.94e-05
308.15	0.5	5	0.0008998	2.3e-05
308.15	1	1	0.0007398	1.94e-05
308.15	1	5	0.0009149	2.33e-05
313.15	0.0625	1	0.0006701	1.79e-05
313.15	0.0625	5	0.0008118	2.1e-05
313.15	0.125	1	0.0006697	1.79e-05
313.15	0.125	5	0.0008142	2.11e-05
313.15	0.25	1	0.0006692	1.79e-05
313.15	0.25	5	0.0008177	2.12e-05
313.15	0.5	1	0.000669	1.79e-05
313.15	0.5	5	0.000823	2.13e-05
313.15	1	1	0.000671	1.79e-05
313.15	1	5	0.0008379	2.16e-05
323.15	0.0625	1	0.0005645	1.56e-05
323.15	0.0625	5	0.0006921	1.84e-05
323.15	0.125	1	0.0005642	1.56e-05
323.15	0.125	5	0.000694	1.84e-05
323.15	0.25	1	0.0005638	1.55e-05
323.15	0.25	5	0.0006976	1.85e-05
323.15	0.5	1	0.0005635	1.55e-05
323.15	0.5	5	0.0007028	1.86e-05
323.15	1	1	0.0005651	1.56e-05
323.15	1	5	0.000717	1.89e-05

System: urea + water + ammonium chloride (NH4Cl); phases: Liquid
Fixed: Pressure, kPa = 101.3
Property: Apparent molar volume, m3/mol (Liquid); method: SAME:UFactor:2
Temperature, K	Solvent: Molality, mol/kg of urea	Molality, mol/kg of ammonium chloride (NH4Cl)	Apparent molar volume, m3/mol	uncertainty
308.15	1	0.0625	3.76e-05	1.9e-06
308.15	1	0.125	3.77e-05	9e-07
308.15	1	0.25	3.78e-05	5e-07
308.15	1	0.5	3.8e-05	3e-07
308.15	1	1	3.82e-05	2e-07
308.15	5	0.0625	3.81e-05	1.9e-06
308.15	5	0.125	3.86e-05	1e-06
308.15	5	0.25	3.92e-05	5e-07
308.15	5	0.5	4.01e-05	3e-07
308.15	5	1	4.22e-05	3e-07
313.15	1	0.0625	3.81e-05	1.9e-06
313.15	1	0.125	3.82e-05	1e-06
313.15	1	0.25	3.84e-05	5e-07
313.15	1	0.5	3.85e-05	3e-07
313.15	1	1	3.88e-05	2e-07
313.15	5	0.0625	3.86e-05	1.9e-06
313.15	5	0.125	3.91e-05	1e-06
313.15	5	0.25	3.97e-05	5e-07
313.15	5	0.5	4.06e-05	3e-07
313.15	5	1	4.31e-05	3e-07
323.15	1	0.0625	3.86e-05	1.9e-06
323.15	1	0.125	3.88e-05	1e-06
323.15	1	0.25	3.89e-05	5e-07
323.15	1	0.5	3.91e-05	3e-07
323.15	1	1	3.93e-05	2e-07
323.15	5	0.0625	3.92e-05	2e-06
323.15	5	0.125	3.99e-05	1e-06
323.15	5	0.25	4.02e-05	5e-07
323.15	5	0.5	4.12e-05	3e-07
323.15	5	1	4.27e-05	3e-07

System: urea + copper chloride + water; phases: Liquid
Fixed: Pressure, kPa = 101.3
Property: Viscosity, Pa*s (Liquid); method: CAPTUB:UFactor:4
Temperature, K	Molality, mol/kg of urea	Molality, mol/kg of copper chloride	Viscosity, Pa*s	uncertainty
308.15	0.0625	1	0.0007675	2.01e-05
308.15	0.0625	5	0.0008998	2.34e-05
308.15	0.125	1	0.0007872	2.06e-05
308.15	0.125	5	0.0009356	2.42e-05
308.15	0.25	1	0.0008249	2.14e-05
308.15	0.25	5	0.0009809	2.52e-05
308.15	0.5	1	0.0008807	2.26e-05
308.15	0.5	5	0.0011024	2.79e-05
308.15	1	1	0.0009397	2.39e-05
308.15	1	5	0.0012039	3.02e-05
313.15	0.0625	1	0.0006977	1.86e-05
313.15	0.0625	5	0.0008194	2.16e-05
313.15	0.125	1	0.000714	1.89e-05
313.15	0.125	5	0.0008621	2.25e-05
313.15	0.25	1	0.0007579	1.99e-05
313.15	0.25	5	0.0009062	2.35e-05
313.15	0.5	1	0.0008162	2.12e-05
313.15	0.5	5	0.0010156	2.6e-05
313.15	1	1	0.0008845	2.27e-05
313.15	1	5	0.001125	2.84e-05
323.15	0.0625	1	0.0005881	1.61e-05
323.15	0.0625	5	0.0007157	1.92e-05
323.15	0.125	1	0.0006188	1.68e-05
323.15	0.125	5	0.0007407	1.98e-05
323.15	0.25	1	0.0006528	1.76e-05
323.15	0.25	5	0.0007928	2.1e-05
323.15	0.5	1	0.00072	1.91e-05
323.15	0.5	5	0.0008609	2.25e-05
323.15	1	1	0.0007892	2.06e-05
323.15	1	5	0.0009372	2.42e-05

System: urea + copper chloride + water; phases: Liquid
Fixed: Pressure, kPa = 101.3
Property: Apparent molar volume, m3/mol (Liquid); method: SAME:UFactor:2
Temperature, K	Solvent: Molality, mol/kg of urea	Molality, mol/kg of copper chloride	Apparent molar volume, m3/mol	uncertainty
308.15	1	0.0625	5.4e-05	1e-06
308.15	1	0.125	5.45e-05	6e-07
308.15	1	0.25	5.5e-05	4e-07
308.15	1	0.5	5.62e-05	3e-07
308.15	1	1	5.78e-05	3e-07
308.15	5	0.0625	5.46e-05	1.1e-06
308.15	5	0.125	5.51e-05	6e-07
308.15	5	0.25	5.57e-05	4e-07
308.15	5	0.5	5.7e-05	3e-07
308.15	5	1	5.92e-05	3e-07
313.15	1	0.0625	5.45e-05	1.1e-06
313.15	1	0.125	5.51e-05	6e-07
313.15	1	0.25	5.56e-05	4e-07
313.15	1	0.5	5.68e-05	3e-07
313.15	1	1	5.8e-05	3e-07
313.15	5	0.0625	5.51e-05	1.1e-06
313.15	5	0.125	5.57e-05	6e-07
313.15	5	0.25	5.63e-05	4e-07
313.15	5	0.5	5.75e-05	3e-07
313.15	5	1	6.04e-05	3e-07
323.15	1	0.0625	5.51e-05	1.1e-06
323.15	1	0.125	5.57e-05	6e-07
323.15	1	0.25	5.7e-05	4e-07
323.15	1	0.5	5.74e-05	3e-07
323.15	1	1	5.87e-05	3e-07
323.15	5	0.0625	5.57e-05	1.1e-06
323.15	5	0.125	5.63e-05	6e-07
323.15	5	0.25	5.69e-05	4e-07
323.15	5	0.5	5.85e-05	3e-07
323.15	5	1	6.18e-05	3e-07

System: urea + water + copper sulfate; phases: Liquid
Fixed: Pressure, kPa = 101.3
Property: Viscosity, Pa*s (Liquid); method: CAPTUB:UFactor:4
Temperature, K	Molality, mol/kg of urea	Molality, mol/kg of copper sulfate	Viscosity, Pa*s	uncertainty
308.15	0.0625	1	0.0007738	2.03e-05
308.15	0.0625	5	0.0009191	2.39e-05
308.15	0.125	1	0.0008056	2.1e-05
308.15	0.125	5	0.0009423	2.44e-05
308.15	0.25	1	0.0008488	2.2e-05
308.15	0.25	5	0.0009985	2.57e-05
308.15	0.5	1	0.0009485	2.42e-05
308.15	0.5	5	0.0011075	2.81e-05
308.15	1	1	0.0010498	2.64e-05
308.15	1	5	0.001294	3.23e-05
313.15	0.0625	1	0.000699	1.86e-05
313.15	0.0625	5	0.0008397	2.21e-05
313.15	0.125	1	0.0007345	1.94e-05
313.15	0.125	5	0.0008826	2.3e-05
313.15	0.25	1	0.0007741	2.03e-05
313.15	0.25	5	0.0009207	2.39e-05
313.15	0.5	1	0.0008733	2.25e-05
313.15	0.5	5	0.0010186	2.61e-05
313.15	1	1	0.0009825	2.49e-05
313.15	1	5	0.001187	2.99e-05
323.15	0.0625	1	0.0005828	1.6e-05
323.15	0.0625	5	0.0007184	1.93e-05
323.15	0.125	1	0.0006068	1.66e-05
323.15	0.125	5	0.0007437	1.99e-05
323.15	0.25	1	0.0006492	1.75e-05
323.15	0.25	5	0.0007989	2.11e-05
323.15	0.5	1	0.0007258	1.92e-05
323.15	0.5	5	0.0008701	2.28e-05
323.15	1	1	0.0008124	2.11e-05
323.15	1	5	0.000994	2.55e-05

System: urea + water + copper sulfate; phases: Liquid
Fixed: Pressure, kPa = 101.3
Property: Apparent molar volume, m3/mol (Liquid); method: SAME:UFactor:2
Temperature, K	Solvent: Molality, mol/kg of urea	Molality, mol/kg of copper sulfate	Apparent molar volume, m3/mol	uncertainty
308.15	1	0.0625	9.16e-05	1.5e-06
308.15	1	0.125	9.26e-05	8e-07
308.15	1	0.25	9.36e-05	6e-07
308.15	1	0.5	9.51e-05	5e-07
308.15	1	1	9.67e-05	5e-07
308.15	5	0.0625	9.25e-05	1.5e-06
308.15	5	0.125	9.34e-05	9e-07
308.15	5	0.25	9.44e-05	6e-07
308.15	5	0.5	9.58e-05	5e-07
308.15	5	1	9.89e-05	5e-07
313.15	1	0.0625	9.24e-05	1.5e-06
313.15	1	0.125	9.33e-05	9e-07
313.15	1	0.25	9.43e-05	6e-07
313.15	1	0.5	9.59e-05	5e-07
313.15	1	1	9.74e-05	5e-07
313.15	5	0.0625	9.32e-05	1.5e-06
313.15	5	0.125	9.41e-05	9e-07
313.15	5	0.25	9.51e-05	6e-07
313.15	5	0.5	9.73e-05	5e-07
313.15	5	1	0.0001	5e-07
323.15	1	0.0625	9.31e-05	1.5e-06
323.15	1	0.125	9.41e-05	9e-07
323.15	1	0.25	9.51e-05	6e-07
323.15	1	0.5	9.66e-05	5e-07
323.15	1	1	9.82e-05	5e-07
323.15	5	0.0625	9.39e-05	1.6e-06
323.15	5	0.125	9.48e-05	9e-07
323.15	5	0.25	9.58e-05	6e-07
323.15	5	0.5	9.81e-05	5e-07
323.15	5	1	0.0001015	5e-07

System: urea + magnesium sulfate + water; phases: Liquid
Fixed: Pressure, kPa = 101.3
Property: Viscosity, Pa*s (Liquid); method: CAPTUB:UFactor:4
Temperature, K	Molality, mol/kg of urea	Molality, mol/kg of magnesium sulfate	Viscosity, Pa*s	uncertainty
308.15	0.0625	1	0.0007742	2.02e-05
308.15	0.0625	5	0.0009199	2.34e-05
308.15	0.125	1	0.0008187	2.12e-05
308.15	0.125	5	0.0009557	2.42e-05
308.15	0.25	1	0.0008847	2.26e-05
308.15	0.25	5	0.0009976	2.51e-05
308.15	0.5	1	0.0009589	2.43e-05
308.15	0.5	5	0.0011096	2.76e-05
308.15	1	1	0.0010531	2.63e-05
308.15	1	5	0.0012595	3.09e-05
313.15	0.0625	1	0.0006994	1.85e-05
313.15	0.0625	5	0.0008392	2.16e-05
313.15	0.125	1	0.0007345	1.93e-05
313.15	0.125	5	0.0008891	2.27e-05
313.15	0.25	1	0.0007787	2.03e-05
313.15	0.25	5	0.0009258	2.35e-05
313.15	0.5	1	0.0008825	2.26e-05
313.15	0.5	5	0.0010211	2.56e-05
313.15	1	1	0.0009963	2.51e-05
313.15	1	5	0.0011357	2.82e-05
323.15	0.0625	1	0.0005962	1.63e-05
323.15	0.0625	5	0.0007188	1.9e-05
323.15	0.125	1	0.000616	1.67e-05
323.15	0.125	5	0.0007489	1.96e-05
323.15	0.25	1	0.0006621	1.77e-05
323.15	0.25	5	0.0008031	2.08e-05
323.15	0.5	1	0.00075	1.97e-05
323.15	0.5	5	0.0008942	2.28e-05
323.15	1	1	0.0008472	2.18e-05
323.15	1	5	0.000998	2.51e-05

System: urea + magnesium sulfate + water; phases: Liquid
Fixed: Pressure, kPa = 101.3
Property: Apparent molar volume, m3/mol (Liquid); method: Calculated with densities of this investigation
Temperature, K	Solvent: Molality, mol/kg of urea	Molality, mol/kg of magnesium sulfate	Apparent molar volume, m3/mol	uncertainty
308.15	1	0.0625	0.0001292	1.5e-06
308.15	1	0.125	0.0001307	9e-07
308.15	1	0.25	0.0001322	7e-07
308.15	1	0.5	0.0001337	7e-07
308.15	1	1	0.0001352	7e-07
308.15	5	0.0625	0.0001304	1.5e-06
308.15	5	0.125	0.0001316	1e-06
308.15	5	0.25	0.000133	8e-07
308.15	5	0.5	0.0001345	7e-07
308.15	5	1	0.0001371	7e-07
313.15	1	0.0625	0.0001303	1.5e-06
313.15	1	0.125	0.0001318	1e-06
313.15	1	0.25	0.0001333	8e-07
313.15	1	0.5	0.0001348	7e-07
313.15	1	1	0.0001364	7e-07
313.15	5	0.0625	0.0001315	1.5e-06
313.15	5	0.125	0.0001327	1e-06
313.15	5	0.25	0.000134	8e-07
313.15	5	0.5	0.0001356	7e-07
313.15	5	1	0.0001388	7e-07
323.15	1	0.0625	0.0001313	1.5e-06
323.15	1	0.125	0.0001328	1e-06
323.15	1	0.25	0.0001344	8e-07
323.15	1	0.5	0.0001359	7e-07
323.15	1	1	0.0001375	7e-07
323.15	5	0.0625	0.0001325	1.5e-06
323.15	5	0.125	0.0001338	1e-06
323.15	5	0.25	0.0001351	8e-07
323.15	5	0.5	0.0001367	7e-07
323.15	5	1	0.0001393	7e-07
