Measured thermophysical data. Vapor Pressures and Standard Sublimation Enthalpies for Thulium Trichloride, Tribromide, and Triiodide
Source: J. Chem. Eng. Data, 2004, 10.1021/je030223f
Compound 1: thulium tribromide, Br3Tm, InChI=1S/3BrH.Tm/h3*1H;/q;;;+3/p-3, purity 99.8%
Compound 2: thulium triiodide, I3Tm, InChI=1S/3HI.Tm/h3*1H;/q;;;+3/p-3, purity 99.8%

System: thulium tribromide; phases: Liquid, Gas
Property: Vapor or sublimation pressure, kPa (Liquid); method: Calculated from knudsen effusion weight loss
Temperature, K	Vapor or sublimation pressure, kPa	uncertainty
921	0.000114815	6.834e-06
924	0.000125893	7.138e-06
927	0.000134896	1.335e-05
931	0.000204174	1.205e-05
937	0.000204174	1.782e-05
938	0.000218776	1.176e-05
938	0.000275423	1.378e-05
942	0.000229087	1.539e-05
947	0.00030903	2.272e-05
947	0.00040738	2.886e-05
949	0.000346737	2.626e-05
952	0.00040738	2.182e-05
953	0.000363078	2.474e-05
956	0.000457088	4.964e-05
958	0.000588844	3.002e-05
961	0.000501187	2.778e-05
964	0.000660693	5.419e-05
965	0.000660693	5.287e-05
967	0.000776247	3.882e-05
968	0.000630957	3.168e-05
971	0.000724436	6.814e-05
974	0.000977237	6.392e-05
976	0.000912011	5.449e-05
978	0.001096478	0.000113
980	0.000977237	6.567e-05
984	0.001318257	0.0001473
987	0.00128825	0.0001404
988	0.001513561	0.0001698
988	0.001348963	0.0001527
990	0.00144544	0.0001573
995	0.00162181	0.0002067
999	0.002398833	0.0003055
1000	0.001995262	0.000243
1001	0.002238721	0.0002962
1004	0.002570396	0.0003232
1004	0.002290868	0.0002833
1006	0.002691535	0.0003279
1007	0.002454709	0.0003616
1009	0.003235937	0.0004212
1009	0.002951209	0.0003843
1013	0.003235937	0.0004075
1013	0.004073803	0.0005354
1015	0.003467369	0.0004429
1015	0.003162278	0.0003996
1019	0.003548134	0.000481
1020	0.004570882	0.0008387
1020	0.004677351	0.0008456
1022	0.005370318	0.0007349
1024	0.004365158	0.0006362
1025	0.004677351	0.000659
1026	0.004786301	0.0006436
1027	0.004570882	0.0007381
1028	0.005623413	0.0008297
1030	0.005623413	0.0007737
1033	0.005495409	0.0007736
1035	0.006606934	0.0009338
1037	0.005754399	0.0008385
1038	0.007762471	0.001264
1039	0.00691831	0.001013
1042	0.006606934	0.0009735
1043	0.00851138	0.001404
1046	0.009549926	0.001649
1048	0.012882496	0.002104
1050	0.009549926	0.001438
1056	0.013489629	0.002159
1061	0.014454398	0.002284
1063	0.013182567	0.002376
1066	0.019952623	0.003417
1070	0.019952623	0.003448
1073	0.027542287	0.004815
1076	0.025118864	0.004273
1080	0.02630268	0.004562
1088	0.033884416	0.009096
1089	0.040738028	0.00736
1092	0.034673685	0.006148
1096	0.042657952	0.007812
1103	0.046773514	0.008802
1105	0.064565423	0.012850404
1107	0.0616595	0.011774483
1116	0.067608298	0.014233054
1118	0.079432823	0.01604309
1123	0.097723722	0.019702204
1127	0.10471285	0.021213736
1127	0.09332543	0.018743892
1135	0.12882495	0.027160817
1136	0.13489629	0.028510064
1143	0.16595869	0.035260561
1155	0.21379621	0.046458259

System: thulium triiodide; phases: Liquid, Gas
Property: Vapor or sublimation pressure, kPa (Liquid); method: Calculated from knudsen effusion weight loss
Temperature, K	Vapor or sublimation pressure, kPa	uncertainty
887	0.000131826	5.46e-05
888	7.7625e-05	5.434e-05
897	0.000158489	2.198e-05
899	0.00011749	1.31e-05
902	0.00020893	2.212e-05
905	0.000234423	1.31e-05
905	0.000169824	8.545e-06
906	0.000229087	1.714e-05
906	0.000158489	1.501e-05
907	0.00020893	2.597e-05
909	0.000158489	2.139e-05
911	0.000288403	5.623e-05
912	0.000316228	1.671e-05
912	0.00020893	1.672e-05
914	0.00030903	1.695e-05
914	0.000234423	1.364e-05
916	0.000288403	2.914e-05
916	0.00020893	3.003e-05
920	0.000446684	3.22e-05
920	0.000457088	3.309e-05
921	0.000371535	6.782e-05
922	0.000316228	2.275e-05
923	0.000338844	3.828e-05
925	0.000416869	3.83e-05
925	0.000288403	3.833e-05
928	0.000501187	4.862e-05
930	0.000630957	3.486e-05
930	0.000660693	3.54e-05
931	0.000416869	5.138e-05
932	0.000537032	3.025e-05
932	0.000467735	2.722e-05
933	0.000389045	4.873e-05
936	0.000660693	9.466e-05
938	0.000831764	4.891e-05
938	0.000549541	2.804e-05
939	0.000707946	0.0001575
939	0.000912011	0.0001601
940	0.000524807	3.532e-05
941	0.000660693	0.0001398
946	0.000954993	0.0002021
946	0.001122018	0.0003812
947	0.000758578	0.0001038
948	0.001148154	0.0001195
948	0.000954993	5.072e-05
949	0.000724436	4.754e-05
951	0.000977237	0.0001167
953	0.001148154	0.0001954
954	0.001479108	0.0001816
955	0.001318257	0.0001494
955	0.001047129	0.0001183
956	0.001584893	0.0002086
956	0.000933254	0.0001711
959	0.001819701	0.0002093
960	0.00128825	0.0002313
961	0.00144544	0.000216
961	0.001905461	0.0002465
963	0.001737801	0.0001988
963	0.001348963	0.0001591
964	0.001230269	0.0002067
966	0.002089296	0.0004515
966	0.002290868	0.0004672
966	0.001584893	0.000419
968	0.002754229	0.0003365
969	0.001862087	0.0002436
970	0.002511886	0.000386
971	0.002344229	0.0002797
971	0.001584893	0.0001949
973	0.002570396	0.0003126
973	0.001862087	0.0002155
975	0.002511886	0.0004244
976	0.003630781	0.0005199
976	0.002951209	0.0004606
976	0.002137962	0.0004213
978	0.003388442	0.0004494
980	0.003090295	0.0004266
980	0.002041738	0.0003503
981	0.002818383	0.000587
981	0.002398833	0.0005798
983	0.004365158	0.0005835
984	0.002754229	0.0003809
987	0.004570882	0.0007056
988	0.003890451	0.001011
989	0.002818383	0.0007358
989	0.003090295	0.0007385
991	0.005495409	0.0007747
991	0.005011872	0.0007008
993	0.003548134	0.0005364
999	0.007079458	0.001031
999	0.006309573	0.0009045
1002	0.004897788	0.0007528
1006	0.009332543	0.001554
1008	0.008709636	0.00131
1014	0.011220185	0.001741
1017	0.011481536	0.001805
1024	0.015135612	0.002501
1025	0.014454398	0.002383
1032	0.019952623	0.00335
1034	0.019498446	0.003216
1043	0.028183829	0.004971
1043	0.025703958	0.004502
1051	0.037153523	0.006726
1051	0.033113112	0.00586
