Measured thermophysical data. Isothermal Vapor-Liquid Equilibria for Binary Mixtures Composed of the Closely Boiling Compounds 1,2-Dimethoxybenzene and 2-Methoxyphenol with an Adducted Agent: tert-Butanol or Morpholine
Source: J. Chem. Eng. Data, 2004, 10.1021/je0302349
Compound 1: 2-methoxyphenol, C7H8O2, InChI=1S/C7H8O2/c1-9-7-5-3-2-4-6(7)8/h2-5,8H,1H3, purity 99%
Compound 2: 1,2-dimethoxybenzene, C8H10O2, InChI=1S/C8H10O2/c1-9-7-5-3-4-6-8(7)10-2/h3-6H,1-2H3, purity 99%
Compound 3: 2-methylpropan-2-ol, C4H10O, InChI=1S/C4H10O/c1-4(2,3)5/h5H,1-3H3, purity 99.5%
Compound 4: tetrahydro-1,4-oxazine, C4H9NO, InChI=1S/C4H9NO/c1-3-6-4-2-5-1/h5H,1-4H2, purity 99%

System: 2-methoxyphenol; phases: Liquid, Gas
Property: Vapor or sublimation pressure, kPa (Liquid); method: CCELL:UFactor:2
Temperature, K	Vapor or sublimation pressure, kPa	uncertainty
373.15	2.98	0.21
383.15	4.69	0.21
393.15	7.08	0.21
413.15	15.2	0.2
428.15	25.3	0.3
443.15	40.3	0.3

System: 1,2-dimethoxybenzene; phases: Liquid, Gas
Property: Vapor or sublimation pressure, kPa (Liquid); method: CCELL:UFactor:2
Temperature, K	Vapor or sublimation pressure, kPa	uncertainty
373.15	2.66	0.2
383.15	4.15	0.21
393.15	6.4	0.21
413.15	13.7	0.2
428.15	23.1	0.3
443.15	37.2	0.3

System: 2-methylpropan-2-ol; phases: Liquid, Gas
Property: Vapor or sublimation pressure, kPa (Liquid); method: CCELL:UFactor:2
Temperature, K	Vapor or sublimation pressure, kPa	uncertainty
333.15	38.6	0.3
343.15	60.8	0.4
353.15	92.4	0.6

System: tetrahydro-1,4-oxazine; phases: Liquid, Gas
Property: Vapor or sublimation pressure, kPa (Liquid); method: CCELL:UFactor:2
Temperature, K	Vapor or sublimation pressure, kPa	uncertainty
373.15	41	0.3
383.15	57.6	0.4
393.15	79	0.6

System: 2-methoxyphenol + 1,2-dimethoxybenzene; phases: Liquid, Gas
Property: Vapor or sublimation pressure, kPa (Liquid); method: CCELL:UFactor:2
Temperature, K	Mole fraction of 2-methoxyphenol	Vapor or sublimation pressure, kPa	uncertainty
413.15	0	13.7	0.2
413.15	0.102	13.9	0.2
413.15	0.199	14.1	0.2
413.15	0.302	14.3	0.2
413.15	0.402	14.5	0.2
413.15	0.496	14.6	0.2
413.15	0.604	14.7	0.2
413.15	0.704	14.9	0.2
413.15	0.819	15	0.2
413.15	0.914	15.1	0.2
413.15	1	15.2	0.2
428.15	0	23.1	0.3
428.15	0.104	23.3	0.3
428.15	0.202	23.7	0.3
428.15	0.3	23.8	0.3
428.15	0.405	24.1	0.3
428.15	0.49	24.4	0.3
428.15	0.606	24.6	0.3
428.15	0.703	24.7	0.3
428.15	0.824	24.9	0.3
428.15	0.916	25.2	0.3
428.15	1	25.3	0.3
443.15	0	37.2	0.3
443.15	0.103	37.8	0.3
443.15	0.204	38	0.3
443.15	0.298	38.5	0.3
443.15	0.407	38.8	0.3
443.15	0.489	39.2	0.3
443.15	0.605	39.5	0.3
443.15	0.706	39.7	0.3
443.15	0.825	39.9	0.3
443.15	0.914	40.1	0.3
443.15	1	40.3	0.3

System: 2-methoxyphenol + 1,2-dimethoxybenzene; phases: Gas, Liquid
Property: Mole fraction of 2-methoxyphenol (Gas); method: Chromatography
Temperature, K	Mole fraction of 2-methoxyphenol	Mole fraction of 2-methoxyphenol	uncertainty
413.5	0	0	0.001
413.5	0.102	0.117	0.011
413.5	0.199	0.217	0.011
413.5	0.302	0.331	0.011
413.5	0.402	0.433	0.012
413.5	0.496	0.519	0.012
413.5	0.604	0.625	0.012
413.5	0.704	0.726	0.011
413.5	0.819	0.829	0.011
413.5	0.914	0.921	0.011
413.5	1	1	0.001
428.15	0	0	0.001
428.15	0.104	0.115	0.011
428.15	0.202	0.215	0.011
428.15	0.3	0.325	0.011
428.15	0.405	0.426	0.012
428.15	0.49	0.519	0.012
428.15	0.606	0.63	0.012
428.15	0.703	0.716	0.011
428.15	0.824	0.837	0.011
428.15	0.916	0.921	0.011
428.15	1	1	0.001
443.15	0	0	0.001
443.15	0.103	0.115	0.011
443.15	0.204	0.218	0.011
443.15	0.298	0.321	0.011
443.15	0.407	0.423	0.012
443.15	0.489	0.512	0.012
443.15	0.605	0.618	0.012
443.15	0.706	0.722	0.011
443.15	0.825	0.831	0.011
443.15	0.914	0.918	0.011
443.15	1	1	0.001

System: 2-methylpropan-2-ol + 2-methoxyphenol; phases: Liquid, Gas
Property: Vapor or sublimation pressure, kPa (Liquid); method: CCELL:UFactor:2
Temperature, K	Mole fraction of 2-methylpropan-2-ol	Vapor or sublimation pressure, kPa	uncertainty
333.15	0.043	3.31	0.33
333.15	0.095	6.7	0.3
333.15	0.185	11.6	0.3
333.15	0.267	15.3	0.3
333.15	0.332	18.1	0.3
333.15	0.411	20.9	0.3
333.15	0.531	24.8	0.3
333.15	0.643	27.9	0.3
333.15	0.762	31.2	0.3
333.15	0.842	33.3	0.3
333.15	0.901	35.3	0.3
333.15	1	38.6	0.3
343.15	0.04	4.49	0.41
343.15	0.105	10.4	0.4
343.15	0.189	17	0.4
343.15	0.263	22.4	0.4
343.15	0.328	26.4	0.4
343.15	0.409	31.2	0.4
343.15	0.531	37.5	0.4
343.15	0.633	42.2	0.4
343.15	0.756	48.1	0.4
343.15	0.838	52	0.4
343.15	0.9	55.3	0.5
343.15	1	60.8	0.4
353.15	0.038	6.15	0.55
353.15	0.109	15.2	0.5
353.15	0.192	24.6	0.5
353.15	0.256	31.3	0.5
353.15	0.328	38.3	0.5
353.15	0.407	45.2	0.5
353.15	0.539	55.9	0.5
353.15	0.634	63.3	0.5
353.15	0.701	68.3	0.6
353.15	0.795	75.4	0.6
353.15	0.895	83.4	0.7
353.15	1	92.4	0.6

System: 2-methylpropan-2-ol + 1,2-dimethoxybenzene; phases: Liquid, Gas
Property: Vapor or sublimation pressure, kPa (Liquid); method: CCELL:UFactor:2
Temperature, K	Mole fraction of 2-methylpropan-2-ol	Vapor or sublimation pressure, kPa	uncertainty
333.15	0.033	4.43	0.48
333.15	0.061	7.49	0.43
333.15	0.113	12	0.4
333.15	0.21	18.7	0.3
333.15	0.276	21.6	0.3
333.15	0.366	24.9	0.3
333.15	0.499	27.8	0.3
333.15	0.592	29.4	0.3
333.15	0.654	30.7	0.3
333.15	0.712	31.5	0.3
333.15	0.808	33.5	0.3
333.15	0.906	35.7	0.3
333.15	1	38.6	0.3
343.15	0.036	6.65	0.61
343.15	0.074	12.4	0.6
343.15	0.105	16.4	0.5
343.15	0.209	26.6	0.5
343.15	0.263	30.7	0.4
343.15	0.354	35.7	0.4
343.15	0.477	40.7	0.4
343.15	0.59	44.4	0.4
343.15	0.652	46.5	0.4
343.15	0.725	49.1	0.4
343.15	0.819	52.1	0.4
343.15	0.913	56.2	0.5
343.15	1	60.8	0.4
353.15	0.037	9.38	0.85
353.15	0.075	17.2	0.8
353.15	0.117	24.6	0.7
353.15	0.202	36.7	0.6
353.15	0.282	45.7	0.5
353.15	0.367	53	0.5
353.15	0.491	61.2	0.5
353.15	0.591	66.8	0.5
353.15	0.654	70.1	0.5
353.15	0.742	74.8	0.6
353.15	0.812	78.7	0.6
353.15	0.913	85.3	0.7
353.15	1	92.4	0.6

System: 2-methoxyphenol + tetrahydro-1,4-oxazine; phases: Liquid, Gas
Property: Vapor or sublimation pressure, kPa (Liquid); method: CCELL:UFactor:2
Temperature, K	Mole fraction of tetrahydro-1,4-oxazine	Vapor or sublimation pressure, kPa	uncertainty
373.15	0	2.98	0.21
373.15	0.133	3.64	0.21
373.15	0.216	5.17	0.23
373.15	0.321	8.23	0.25
373.15	0.377	10.5	0.3
373.15	0.473	15.1	0.3
373.15	0.503	16.5	0.3
373.15	0.583	20.8	0.3
373.15	0.656	24.6	0.3
373.15	0.736	29	0.4
373.15	0.786	31.3	0.4
373.15	0.867	35.4	0.4
373.15	0.929	38	0.4
373.15	1	41	0.3
383.15	0	4.69	0.21
383.15	0.123	5.52	0.21
383.15	0.214	7.26	0.24
383.15	0.324	11.2	0.3
383.15	0.378	13.9	0.3
383.15	0.467	19.5	0.4
383.15	0.515	22.7	0.4
383.15	0.584	27.9	0.4
383.15	0.656	33.6	0.4
383.15	0.728	39	0.5
383.15	0.791	43.8	0.5
383.15	0.868	49.4	0.5
383.15	0.931	53.4	0.5
383.15	1	57.6	0.4
393.15	0	7.08	0.21
393.15	0.122	8.2	0.22
393.15	0.215	10.8	0.3
393.15	0.315	15.6	0.3
393.15	0.379	20	0.4
393.15	0.472	28	0.5
393.15	0.514	31.8	0.5
393.15	0.581	38.5	0.5
393.15	0.654	46.1	0.6
393.15	0.728	53.8	0.6
393.15	0.792	60.2	0.6
393.15	0.864	67.4	0.6
393.15	0.93	73.3	0.6
393.15	1	79	0.6

System: 1,2-dimethoxybenzene + tetrahydro-1,4-oxazine; phases: Liquid, Gas
Property: Vapor or sublimation pressure, kPa (Liquid); method: CCELL:UFactor:2
Temperature, K	Mole fraction of tetrahydro-1,4-oxazine	Vapor or sublimation pressure, kPa	uncertainty
373.15	0	2.66	0.2
373.15	0.056	5.72	0.3
373.15	0.103	8.05	0.28
373.15	0.186	11.5	0.3
373.15	0.206	12.1	0.3
373.15	0.296	15.4	0.3
373.15	0.396	18.9	0.3
373.15	0.49	22.3	0.3
373.15	0.576	25.3	0.3
373.15	0.658	28.4	0.3
373.15	0.752	31.5	0.3
373.15	0.81	33.9	0.3
373.15	0.881	36.6	0.4
373.15	1	41	0.3
383.15	0	4.15	0.21
383.15	0.054	7.95	0.34
383.15	0.106	11.3	0.3
383.15	0.187	15.8	0.3
383.15	0.193	16.2	0.6
383.15	0.305	21.8	0.3
383.15	0.394	26.1	0.3
383.15	0.502	31.5	0.4
383.15	0.578	35.4	0.4
383.15	0.656	39.5	0.4
383.15	0.754	44.3	0.4
383.15	0.803	47.1	0.4
383.15	0.884	51.6	0.4
383.15	1	57.6	0.4
393.15	0	6.4	0.21
393.15	0.052	11.2	0.4
393.15	0.11	15.8	0.4
393.15	0.185	21.4	0.4
393.15	0.197	22.3	0.4
393.15	0.298	29.3	0.4
393.15	0.395	35.6	0.4
393.15	0.495	42.7	0.4
393.15	0.582	48.6	0.5
393.15	0.657	53.9	0.5
393.15	0.739	60	0.5
393.15	0.791	63.7	0.5
393.15	0.885	70.7	0.6
393.15	1	79	0.5
