Measured thermophysical data. Vapor-Liquid Equilibrium and Excess Enthalpy Data for the Binary Systems Propane + Dimethyl Ether and Propene + Dimethyl Ether at Temperatures from (298 to 323) K
Source: J. Chem. Eng. Data, 2004, 10.1021/je0301242
Compound 1: propane, C3H8, InChI=1S/C3H8/c1-3-2/h3H2,1-2H3, purity 99.8%
Compound 2: dimethyl ether, C2H6O, InChI=1S/C2H6O/c1-3-2/h1-2H3, purity 99.8%
Compound 3: propene, C3H6, InChI=1S/C3H6/c1-3-2/h3H,1H2,2H3, purity 99.8%

System: propane + dimethyl ether; phases: Liquid
Fixed: Temperature, K = 323.15
Fixed: Pressure, kPa = 3060
Property: Excess molar enthalpy (molar enthalpy of mixing), kJ/mol (Liquid); method: Flow calorimetry
Mole fraction of propane	Excess molar enthalpy (molar enthalpy of mixing), kJ/mol	uncertainty
0.0397	0.092	0.002
0.0803	0.179	0.003
0.1218	0.263	0.004
0.1643	0.34	0.004
0.2076	0.409	0.005
0.252	0.469	0.006
0.2974	0.52	0.006
0.3439	0.563	0.007
0.3914	0.597	0.007
0.4401	0.616	0.007
0.49	0.626	0.007
0.5411	0.625	0.007
0.5935	0.608	0.007
0.6472	0.575	0.007
0.7023	0.529	0.006
0.7587	0.458	0.006
0.8167	0.368	0.005
0.8762	0.255	0.004
0.9373	0.125	0.002

System: propane + dimethyl ether; phases: Liquid, Gas
Fixed: Temperature, K = 313.19
Property: Vapor or sublimation pressure, kPa (Liquid); method: Closed cell (Static) method
Mole fraction of propane	Vapor or sublimation pressure, kPa	uncertainty
0	903.7	4.5
0.0201	926.1	4.7
0.0384	946.3	4.8
0.0689	977.7	4.9
0.1303	1037	5.2
0.2013	1098.6	5.5
0.2909	1164.8	5.9
0.4324	1252.4	6.3
0.4945	1280.8	6.4
0.5509	1304.6	6.6
0.6061	1324.4	6.7
0.667	1344	6.8
0.7319	1361.6	6.8
0.7762	1370.9	6.9
0.8216	1378.8	6.9
0.8623	1383.7	7
0.9075	1386.6	7
0.9616	1386.8	7
0.9775	1386.4	7
0.9812	1385.7	7
0.9862	1385.2	7
1	1383.1	7

System: propane + dimethyl ether; phases: Liquid, Gas
Property: Azeotropic pressure, kPa (Liquid); method: By P(X) extreme
Temperature, K	Azeotropic pressure, kPa	uncertainty
298.15	952.9	
313.1	1371	
313.39	1388	

System: propane + dimethyl ether; phases: Gas, Liquid
Fixed: Temperature, K = 313.19
Property: Mole fraction of propane (Gas); method: Chromatography
Mole fraction of propane	Mole fraction of propane	uncertainty
0	0	0.0001
0.0201	0.0415	0.0011
0.0384	0.0763	0.0012
0.0689	0.1289	0.0015
0.1303	0.2221	0.0021
0.2013	0.3128	0.0029
0.2909	0.408	0.0038
0.4324	0.5328	0.0044
0.4945	0.5826	0.004
0.5509	0.6265	0.0035
0.6061	0.6676	0.0032
0.667	0.7134	0.0027
0.7319	0.7639	0.0023
0.7762	0.7984	0.002
0.8216	0.8363	0.0018
0.8623	0.8699	0.0015
0.9075	0.9107	0.0013
0.9616	0.9615	0.0011
0.9775	0.9774	0.001
0.9812	0.9812	0.001
0.9862	0.9861	0.001
1	1	0.0001

System: propane + dimethyl ether; phases: Liquid, Gas
Property: Azeotropic composition: mole fraction of propane (Liquid); method: By T or P extreme
Temperature, K	Azeotropic composition: mole fraction of propane	uncertainty
298.15	0.945	
313.1	0.935	
313.39	0.94	

System: propane + dimethyl ether; phases: Liquid, Gas
Property: Vapor or sublimation pressure, kPa (Liquid); method: Closed cell (Static) method
Temperature, K	Mole fraction of propane	Vapor or sublimation pressure, kPa	uncertainty
298.15	0	589.6	2.15
298.15	0.3848	836.79	3.19
298.15	0.5118	880.24	3.35
298.15	0.6436	915.17	3.48
298.15	0.7737	939.37	3.58
298.15	0.8696	949.83	3.62
298.15	0.9268	952.64	3.63
298.15	0.9628	952.77	3.63
298.15	0.981	952.37	3.63
298.15	0.9886	952.07	3.62
298.15	0.9924	951.81	3.62
298.15	0.9962	951.56	3.62
298.15	1	951.25	3.43
313.1	0	890.9	3.18
313.1	0.0065	899.53	3.21
313.1	0.0382	937.47	3.34
313.1	0.0712	973.79	3.46
313.1	0.1208	1023.5	3.6
313.1	0.2037	1095.6	3.9
313.1	0.2354	1119.9	4
313.1	0.2775	1150	4.1
313.1	0.3321	1185.4	4.2
313.1	0.3887	1216.3	4.3
313.1	0.3966	1222.6	4.3
313.1	0.4729	1257.2	4.5
313.1	0.5704	1297	4.6
313.1	0.67	1329.4	4.8
313.1	0.7641	1352.3	4.9
313.1	0.8422	1364.8	5
313.1	0.9022	1369.9	5
313.1	0.947	1370.9	5
313.1	0.9739	1370.1	5.1
313.1	0.9853	1369.2	5.1
313.1	0.9944	1368.5	5.1
313.1	1	1368.1	4.9

System: propene + dimethyl ether; phases: Liquid
Fixed: Temperature, K = 323.15
Fixed: Pressure, kPa = 3000
Property: Excess molar enthalpy (molar enthalpy of mixing), kJ/mol (Liquid); method: Flow calorimetry
Mole fraction of propene	Excess molar enthalpy (molar enthalpy of mixing), kJ/mol	uncertainty
0.0427	0.024	0.001
0.0861	0.047	0.002
0.1301	0.065	0.002
0.1748	0.084	0.002
0.2203	0.101	0.002
0.2664	0.117	0.002
0.3133	0.128	0.002
0.361	0.139	0.002
0.4095	0.148	0.003
0.4587	0.154	0.003
0.5088	0.156	0.003
0.5597	0.155	0.003
0.6115	0.152	0.003
0.6641	0.145	0.003
0.7177	0.133	0.002
0.7722	0.116	0.002
0.8277	0.093	0.002
0.8841	0.067	0.002
0.9415	0.033	0.001

System: propene + dimethyl ether; phases: Liquid, Gas
Fixed: Temperature, K = 313.1
Property: Vapor or sublimation pressure, kPa (Liquid); method: Closed cell (Static) method
Mole fraction of propene	Vapor or sublimation pressure, kPa	uncertainty
0	891.6	4.49
0.0068	899.18	4.53
0.0542	945.55	4.76
0.1057	994.33	5
0.168	1050.9	5.3
0.2325	1107.2	5.6
0.294	1158.6	5.8
0.3546	1207.5	6.1
0.4032	1246.6	6.3
0.4169	1256.1	6.3
0.4696	1296	6.5
0.4856	1307	6.6
0.5286	1339.6	6.7
0.5793	1373.8	6.9
0.674	1439.1	7.2
0.7633	1498.9	7.5
0.8379	1547.6	7.8
0.8967	1585.2	8
0.9419	1613.5	8.1
0.9704	1630.8	8.2
0.9833	1638.3	8.2
0.9952	1644.8	8.3
1	1647.3	8.3

System: propene + dimethyl ether; phases: Liquid, Gas
Fixed: Temperature, K = 313.32
Property: Vapor or sublimation pressure, kPa (Liquid); method: Closed cell (Static) method
Mole fraction of propene	Vapor or sublimation pressure, kPa	uncertainty
0	896.2	4.5
0.0307	927.9	4.7
0.083	977.1	4.9
0.1125	1004.6	5.1
0.1353	1024.5	5.2
0.1845	1065.6	5.4
0.2687	1139.1	5.7
0.3753	1227.5	6.2
0.4971	1324	6.7
0.5986	1399.1	7
0.6823	1458.4	7.3
0.689	1463	7.4
0.7365	1493.8	7.5
0.7618	1510.2	7.6
0.7769	1520	7.6
0.7987	1534	7.7
0.8213	1548.2	7.8
0.8593	1571.5	7.9
0.8925	1591.6	8
0.9175	1606.5	8.1
0.9224	1610.8	8.1
0.9294	1614.7	8.1
0.9321	1616.3	8.1
0.9398	1620.1	8.1
0.9479	1625	8.2
0.9568	1630	8.2
0.96	1634	8.2
0.9648	1636	8.2
0.9707	1639.5	8.2
0.9781	1643.5	8.3
0.9907	1651	8.3
0.9949	1653.5	8.3
1	1656.4	8.3

System: propene + dimethyl ether; phases: Gas, Liquid
Fixed: Temperature, K = 313.32
Property: Mole fraction of propene (Gas); method: Chromatography
Mole fraction of propene	Mole fraction of propene	uncertainty
0	0	0.0001
0.0307	0.0568	0.002
0.083	0.1432	0.0023
0.1125	0.1884	0.0024
0.1353	0.2202	0.0025
0.1845	0.2858	0.0029
0.2687	0.3875	0.0038
0.3753	0.4977	0.0048
0.4971	0.6113	0.0038
0.5986	0.6961	0.003
0.6823	0.7645	0.0024
0.689	0.768	0.0023
0.7365	0.8055	0.0021
0.7618	0.8247	0.002
0.7769	0.836	0.0019
0.7987	0.8521	0.0018
0.8213	0.869	0.0017
0.8593	0.8967	0.0015
0.8925	0.921	0.0014
0.9175	0.9395	0.0014
0.9224	0.9432	0.0013
0.9294	0.9482	0.0013
0.9321	0.9502	0.0013
0.9398	0.9558	0.0013
0.9479	0.9618	0.0013
0.9568	0.9683	0.0013
0.96	0.9708	0.0013
0.9648	0.9743	0.0013
0.9707	0.9786	0.0013
0.9781	0.984	0.0012
0.9907	0.9932	0.0012
0.9949	0.9963	0.0012
1	1	0.0001
