Measured thermophysical data. Thermodynamic Properties of Water + Tetrahydrofuran and Water + 1,4-Dioxane Mixtures at (303.15, 313.15, and 323.15) K
Source: J. Chem. Eng. Data, 2004, 10.1021/je030196t
Compound 1: water, H2O, InChI=1S/H2O/h1H2
Compound 2: tetrahydrofuran, C4H8O, InChI=1S/C4H8O/c1-2-4-5-3-1/h1-4H2
Compound 3: 1,4-dioxane, C4H8O2, InChI=1S/C4H8O2/c1-2-6-4-3-5-1/h1-4H2

System: tetrahydrofuran; phases: Liquid
Property: Refractive index (Na D-line) (Liquid); method: ABBE:UFactor:16
Temperature, K	Pressure, kPa	Refractive index (Na D-line)	uncertainty
303.15	101.325	1.4048	0.005

System: tetrahydrofuran; phases: Liquid
Fixed: Pressure, kPa = 101.3
Property: Viscosity, Pa*s (Liquid); method: CAPTUB:UFactor:4
Temperature, K	Viscosity, Pa*s	uncertainty
303.15	0.000463	1.3e-05
313.15	0.0004	1.2e-05
323.15	0.000372	1.1e-05

System: tetrahydrofuran; phases: Liquid
Fixed: Pressure, kPa = 101.3
Property: Mass density, kg/m3 (Liquid); method: VIBTUB:UFactor:64
Temperature, K	Mass density, kg/m3	uncertainty
303.15	876.6	5.07
313.15	865.65	5.35
323.15	854.3	5.63

System: 1,4-dioxane; phases: Liquid
Property: Refractive index (Na D-line) (Liquid); method: ABBE:UFactor:16
Temperature, K	Pressure, kPa	Refractive index (Na D-line)	uncertainty
303.15	101.325	1.4181	0.005

System: 1,4-dioxane; phases: Liquid
Fixed: Pressure, kPa = 101.3
Property: Viscosity, Pa*s (Liquid); method: CAPTUB:UFactor:4
Temperature, K	Viscosity, Pa*s	uncertainty
303.15	0.001022	2.6e-05
313.15	0.000871	2.2e-05
323.15	0.000807	0.0001

System: 1,4-dioxane; phases: Liquid
Fixed: Pressure, kPa = 101.3
Property: Mass density, kg/m3 (Liquid); method: VIBTUB:UFactor:32
Temperature, K	Mass density, kg/m3	uncertainty
303.15	1024.63	1.4
313.15	1013.3	1.27
323.15	1001.9	1.13

System: tetrahydrofuran + water; phases: Liquid
Fixed: Temperature, K = 303.15
Fixed: Pressure, kPa = 101.3
Property: Refractive index (Na D-line) (Liquid); method: ABBE:UFactor:16
Mole fraction of water	Refractive index (Na D-line)	uncertainty
0	1.4048	0.005
0.3523	1.3994	0.005
0.5503	1.3946	0.005
0.6772	1.387	0.005
0.7654	1.3786	0.005
0.8304	1.3684	0.005
0.8801	1.3613	0.005
0.9195	1.3546	0.005
0.9514	1.3405	0.005
0.9778	1.3386	0.005
1	1.3326	0.005

System: tetrahydrofuran + water; phases: Liquid
Fixed: Pressure, kPa = 101.3
Property: Viscosity, Pa*s (Liquid); method: CAPTUB:UFactor:4
Temperature, K	Mole fraction of water	Viscosity, Pa*s	uncertainty
303.15	0	0.000463	1.3e-05
303.15	0.3081	0.000574	1.6e-05
303.15	0.5004	0.000793	2e-05
303.15	0.6319	0.001001	2.5e-05
303.15	0.7276	0.001208	2.9e-05
303.15	0.8002	0.001344	3.2e-05
303.15	0.8573	0.001384	3.3e-05
303.15	0.9034	0.001341	3.2e-05
303.15	0.9413	0.001226	3e-05
303.15	0.973	0.001003	2.5e-05
303.15	1	0.000754	1.9e-05
313.15	0	0.0004	1.2e-05
313.15	0.3081	0.000519	1.4e-05
313.15	0.5004	0.000668	1.8e-05
313.15	0.6319	0.000833	2.1e-05
313.15	0.7276	0.00098	2.4e-05
313.15	0.8002	0.001061	2.6e-05
313.15	0.8573	0.001084	2.7e-05
313.15	0.9034	0.001021	2.5e-05
313.15	0.9413	0.00092	2.3e-05
313.15	0.973	0.000803	2e-05
313.15	1	0.000624	1.7e-05
323.15	0	0.000372	1.1e-05
323.15	0.3081	0.00034	0.0002
323.15	0.5004	0.000578	1.6e-05
323.15	0.6319	0.000698	1.8e-05
323.15	0.7276	0.000807	2.1e-05
323.15	0.8002	0.000868	2.2e-05
323.15	0.8573	0.000871	2.2e-05
323.15	0.9034	0.000829	2.1e-05
323.15	0.9413	0.00074	1.9e-05
323.15	0.973	0.000641	1.7e-05
323.15	1	0.000544	1.5e-05

System: tetrahydrofuran + water; phases: Liquid
Fixed: Pressure, kPa = 101.3
Property: Mass density, kg/m3 (Liquid); method: VIBTUB:UFactor:64
Mole fraction of water	Temperature, K	Mass density, kg/m3	uncertainty
0	303.15	876.6	5.07
0	313.15	865.65	5.35
0	323.15	854.3	5.63
0.3081	303.15	894.98	4.61
0.3081	313.15	884.04	4.89
0.3081	323.15	872.9	5.17
0.5004	303.15	912.11	4.19
0.5004	313.15	901.53	4.45
0.5004	323.15	890.7	4.72
0.6319	303.15	927.1	3.81
0.6319	313.15	916.82	4.07
0.6319	323.15	901.63	4.45
0.7276	303.15	941.82	3.44
0.7276	313.15	931.96	3.69
0.7276	323.15	921.9	3.94
0.8002	303.15	955.23	3.11
0.8002	313.15	945.99	3.34
0.8002	323.15	936.5	3.58
0.8573	303.15	966.73	2.82
0.8573	313.15	958.34	3.03
0.8573	323.15	949.3	3.26
0.9034	303.15	977.2	2.56
0.9034	313.15	969.74	2.74
0.9034	323.15	962.2	2.93
0.9413	303.15	984.94	2.36
0.9413	313.15	984.94	15
0.9413	323.15	972.7	2.67
0.973	303.15	990.31	2.23
0.973	313.15	990.31	15
0.973	323.15	980.8	2.47
1	303.15	995.71	2.1
1	313.15	991.91	2.19
1	323.15	985.7	2.35

System: 1,4-dioxane + water; phases: Liquid
Fixed: Temperature, K = 303.15
Fixed: Pressure, kPa = 101.3
Property: Refractive index (Na D-line) (Liquid); method: ABBE:UFactor:16
Mole fraction of water	Refractive index (Na D-line)	uncertainty
0	1.4181	0.005
0.3523	1.4116	0.005
0.5503	1.4046	0.005
0.6772	1.3972	0.005
0.7654	1.391	0.005
0.8304	1.3865	0.005
0.8801	1.3798	0.005
0.9195	1.3698	0.005
0.9514	1.3517	0.005
0.9778	1.3417	0.005
1	1.3326	0.005

System: 1,4-dioxane + water; phases: Liquid
Fixed: Pressure, kPa = 101.3
Property: Viscosity, Pa*s (Liquid); method: CAPTUB:UFactor:4
Temperature, K	Mass fraction of water	Viscosity, Pa*s	uncertainty
303.15	0	0.001022	2.6e-05
303.15	0.3523	0.001205	2.9e-05
303.15	0.5503	0.001413	3.4e-05
303.15	0.6772	0.001563	3.7e-05
303.15	0.7654	0.001573	3.7e-05
303.15	0.8304	0.001497	3.5e-05
303.15	0.8801	0.001362	3.3e-05
303.15	0.9195	0.001194	2.9e-05
303.15	0.9514	0.00107	2.6e-05
303.15	0.9778	0.000876	2.2e-05
303.15	1	0.000754	1.9e-05
313.15	0	0.000871	2.2e-05
313.15	0.3523	0.001005	2.5e-05
313.15	0.5503	0.001157	2.8e-05
313.15	0.6772	0.001257	3e-05
313.15	0.7654	0.001279	3.1e-05
313.15	0.8304	0.001216	2.9e-05
313.15	0.8801	0.00112	2.7e-05
313.15	0.9195	0.000986	2.4e-05
313.15	0.9514	0.000869	2.2e-05
313.15	0.9778	0.000735	1.9e-05
313.15	1	0.000624	1.7e-05
323.15	0	0.000807	0.0001
323.15	0.3523	0.000866	2.2e-05
323.15	0.5503	0.000982	2.4e-05
323.15	0.6772	0.001029	2.5e-05
323.15	0.7654	0.001034	2.6e-05
323.15	0.8304	0.000998	2.5e-05
323.15	0.8801	0.000884	2.2e-05
323.15	0.9195	0.000809	2.1e-05
323.15	0.9514	0.000728	1.9e-05
323.15	0.9778	0.000613	1.6e-05
323.15	1	0.000544	1.5e-05

System: 1,4-dioxane + water; phases: Liquid
Fixed: Pressure, kPa = 101.3
Property: Mass density, kg/m3 (Liquid); method: VIBTUB:UFactor:32
Mole fraction of water	Temperature, K	Mass density, kg/m3	uncertainty
0	303.15	1024.63	1.4
0	313.15	1013.3	1.27
0	323.15	1001.9	1.13
0.3523	303.15	1029.1	1.41
0.3523	313.15	1018.5	1.28
0.3523	323.15	1007.8	1.15
0.5503	303.15	1032.4	1.43
0.5503	313.15	1022.6	1.31
0.5503	323.15	1012.5	1.19
0.6772	303.15	1033.83	1.44
0.6772	313.15	1024.7	1.33
0.6772	323.15	1015.2	1.21
0.7654	303.15	1033.22	1.43
0.7654	313.15	1024.7	1.32
0.7654	323.15	1015.9	1.21
0.8304	303.15	1030.5	1.39
0.8304	313.15	1022.7	1.29
0.8304	323.15	1014.6	1.19
0.8801	303.15	1025.6	1.33
0.8801	313.15	1018.7	1.24
0.8801	323.15	1011.4	1.15
0.9195	303.15	1019.51	1.25
0.9195	313.15	1013.4	1.17
0.9195	323.15	1006.9	1.09
0.9514	303.15	1012.1	1.16
0.9514	313.15	1006.9	1.09
0.9514	323.15	1001.3	1.02
0.9778	303.15	1004.1	1.05
0.9778	313.15	999.8	1.01
0.9778	323.15	994.9	1.07
1	303.15	995.71	1.06
1	313.15	992.3	1.1
1	323.15	988.1	1.15
