Measured thermophysical data. A Study on Properties Derived from Densities and Viscosities for the Ternary Systems (Methyl Pentanoate or Methyl Heptanoate) + n-Octane + 1-Hexanol and their Binary Subsystems at Various Temperatures.
Source: J. Chem. Eng. Data, 2003, 10.1021/je034017j
Compound 1: hexan-1-ol, C6H14O, InChI=1S/C6H14O/c1-2-3-4-5-6-7/h7H,2-6H2,1H3, purity 99.5%
Compound 2: methyl pentanoate, C6H12O2, InChI=1S/C6H12O2/c1-3-4-5-6(7)8-2/h3-5H2,1-2H3, purity 99%
Compound 3: methyl heptanoate, C8H16O2, InChI=1S/C8H16O2/c1-3-4-5-6-7-8(9)10-2/h3-7H2,1-2H3, purity 99.1%
Compound 4: octane, C8H18, InChI=1S/C8H18/c1-3-5-7-8-6-4-2/h3-8H2,1-2H3, purity 99.8%

System: hexan-1-ol; phases: Liquid
Fixed: Pressure, kPa = 101.325
Property: Viscosity, Pa*s (Liquid); method: CAPTUB:UFactor:2
Temperature, K	Viscosity, Pa*s	uncertainty
293.15	0.005412	5.9e-05
298.15	0.004596	5.1e-05
303.15	0.003964	4.5e-05
313.15	0.002966	3.4e-05

System: hexan-1-ol; phases: Liquid
Fixed: Pressure, kPa = 101
Property: Mass density, kg/m3 (Liquid); method: VIBTUB::UFactor:2
Temperature, K	Mass density, kg/m3	uncertainty
293.15	818.84	0.29
303.15	811.56	0.29
313.15	804.28	0.3

System: methyl pentanoate; phases: Liquid
Fixed: Pressure, kPa = 101.325
Property: Viscosity, Pa*s (Liquid); method: CAPTUB:UFactor:2
Temperature, K	Viscosity, Pa*s	uncertainty
283.15	0.000816	1.1e-05
293.15	0.000712	1e-05
298.15	0.000661	9e-06
303.15	0.000623	9e-06
313.15	0.000551	8e-06

System: methyl pentanoate; phases: Liquid
Fixed: Pressure, kPa = 101
Property: Mass density, kg/m3 (Liquid); method: VIBTUB::UFactor:2
Temperature, K	Mass density, kg/m3	uncertainty
293.15	889.75	0.47
303.15	879.51	0.47
313.15	869.32	0.47

System: methyl heptanoate; phases: Liquid
Fixed: Pressure, kPa = 101.325
Property: Viscosity, Pa*s (Liquid); method: CAPTUB:UFactor:2
Temperature, K	Viscosity, Pa*s	uncertainty
283.15	0.00132	1.7e-05
293.15	0.001112	1.4e-05
298.15	0.001023	1.3e-05
303.15	0.00095	1.3e-05
313.15	0.000823	1.1e-05

System: methyl heptanoate; phases: Liquid
Fixed: Pressure, kPa = 101
Property: Mass density, kg/m3 (Liquid); method: VIBTUB::UFactor:2
Temperature, K	Mass density, kg/m3	uncertainty
293.15	879.96	0.43
303.15	870.73	0.43
313.15	861.65	0.43

System: octane; phases: Liquid
Fixed: Pressure, kPa = 101.325
Property: Viscosity, Pa*s (Liquid); method: CAPTUB:UFactor:2
Temperature, K	Viscosity, Pa*s	uncertainty
283.15	0.000614	8e-06
293.15	0.000542	7e-06
298.15	0.000508	7e-06
303.15	0.000483	7e-06
313.15	0.00043	6e-06

System: octane; phases: Liquid
Fixed: Pressure, kPa = 101
Property: Mass density, kg/m3 (Liquid); method: VIBTUB::UFactor:2
Temperature, K	Mass density, kg/m3	uncertainty
293.15	702.54	0.3
303.15	694.35	0.31
313.15	686.12	0.32

System: methyl heptanoate + hexan-1-ol; phases: Liquid
Fixed: Pressure, kPa = 101
Property: Kinematic viscosity, m2/s (Liquid); method: CAPTUB:UFactor:2
Temperature, K	Mole fraction of methyl heptanoate	Kinematic viscosity, m2/s	uncertainty
293.15	0	6.609e-06	6.9e-08
293.15	0.0702	5.107e-06	5.7e-08
293.15	0.1168	4.398e-06	5e-08
293.15	0.189	3.588e-06	4.1e-08
293.15	0.3018	2.76e-06	3.2e-08
293.15	0.3966	2.309e-06	2.7e-08
293.15	0.4898	1.992e-06	2.4e-08
293.15	0.594	1.736e-06	2.1e-08
293.15	0.7085	1.52e-06	1.9e-08
293.15	0.7917	1.415e-06	1.8e-08
293.15	0.8937	1.321e-06	1.7e-08
293.15	0.937	1.293e-06	1.6e-08
293.15	1	1.264e-06	1.6e-08
303.15	0	4.885e-06	5.4e-08
303.15	0.0753	3.812e-06	4.3e-08
303.15	0.12	3.35e-06	3.8e-08
303.15	0.1919	2.794e-06	3.2e-08
303.15	0.2963	2.244e-06	2.7e-08
303.15	0.4003	1.874e-06	2.3e-08
303.15	0.4934	1.642e-06	2e-08
303.15	0.5979	1.449e-06	1.8e-08
303.15	0.6849	1.321e-06	1.7e-08
303.15	0.8004	1.203e-06	1.5e-08
303.15	0.8676	1.151e-06	1.5e-08
303.15	0.9415	1.114e-06	1.4e-08
303.15	1	1.091e-06	1.4e-08
313.15	0	3.688e-06	4.2e-08
313.15	0.064	3.046e-06	3.5e-08
313.15	0.1198	2.623e-06	3e-08
313.15	0.1968	2.213e-06	2.6e-08
313.15	0.2986	1.826e-06	2.2e-08
313.15	0.3995	1.556e-06	1.9e-08
313.15	0.5299	1.322e-06	1.6e-08
313.15	0.6009	1.218e-06	1.5e-08
313.15	0.6925	1.123e-06	1.4e-08
313.15	0.8022	1.038e-06	1.3e-08
313.15	0.872	9.99e-07	1.3e-08
313.15	0.9368	9.78e-07	1.3e-08
313.15	1	9.55e-07	1.3e-08

System: methyl heptanoate + hexan-1-ol; phases: Liquid
Fixed: Pressure, kPa = 101
Property: Mass density, kg/m3 (Liquid); method: VIBTUB:UFactor:2
Temperature, K	Mole fraction of methyl heptanoate	Mass density, kg/m3	uncertainty
293.15	0	818.84	0.29
293.15	0.0702	824.02	0.3
293.15	0.1168	827.4	0.3
293.15	0.189	832.46	0.31
293.15	0.3018	840.04	0.32
293.15	0.3966	846.13	0.33
293.15	0.4898	851.87	0.35
293.15	0.594	858.04	0.36
293.15	0.7085	864.51	0.38
293.15	0.7917	869.04	0.39
293.15	0.8937	874.45	0.41
293.15	0.937	876.69	0.42
293.15	1	879.96	0.43
303.15	0	811.56	0.29
303.15	0.0753	816.9	0.3
303.15	0.12	819.99	0.3
303.15	0.1919	824.84	0.31
303.15	0.2963	831.61	0.32
303.15	0.4003	838.05	0.34
303.15	0.4934	843.6	0.35
303.15	0.5979	849.6	0.36
303.15	0.6849	854.38	0.38
303.15	0.8004	860.53	0.39
303.15	0.8676	864	0.41
303.15	0.9415	867.77	0.42
303.15	1	870.73	0.43
313.15	0	804.28	0.3
313.15	0.064	808.63	0.3
313.15	0.1198	812.36	0.31
313.15	0.1968	817.35	0.31
313.15	0.2986	823.7	0.33
313.15	0.3995	829.76	0.34
313.15	0.5299	837.23	0.36
313.15	0.6009	841.13	0.36
313.15	0.6925	846.03	0.38
313.15	0.8022	851.72	0.4
313.15	0.872	855.24	0.41
313.15	0.9368	858.5	0.42
313.15	1	861.65	0.43

System: hexan-1-ol + methyl pentanoate; phases: Liquid
Fixed: Pressure, kPa = 101
Property: Kinematic viscosity, m2/s (Liquid); method: Capillary tube (Ostwald; Ubbelohde) method
Temperature, K	Mole fraction of methyl pentanoate	Kinematic viscosity, m2/s	uncertainty
293.15	0	6.609e-06	4.4e-08
293.15	0.085	4.728e-06	3.3e-08
293.15	0.1145	4.25e-06	3e-08
293.15	0.1854	3.367e-06	2.4e-08
293.15	0.2862	2.527e-06	1.8e-08
293.15	0.4123	1.87e-06	1.4e-08
293.15	0.5087	1.533e-06	1.2e-08
293.15	0.6157	1.256e-06	1e-08
293.15	0.6835	1.129e-06	9e-09
293.15	0.7846	9.82e-07	8e-09
293.15	0.9071	8.57e-07	7e-09
293.15	0.9274	8.42e-07	7e-09
293.15	1	8e-07	7e-09
303.15	0	4.885e-06	3.3e-08
303.15	0.0771	3.701e-06	2.6e-08
303.15	0.1183	3.251e-06	2.3e-08
303.15	0.192	2.619e-06	1.9e-08
303.15	0.2983	1.994e-06	1.5e-08
303.15	0.4502	1.436e-06	1.1e-08
303.15	0.4593	1.412e-06	1.1e-08
303.15	0.5089	1.285e-06	1e-08
303.15	0.613	1.085e-06	9e-09
303.15	0.691	9.67e-07	8e-09
303.15	0.7873	8.55e-07	7e-09
303.15	0.8796	7.75e-07	7e-09
303.15	0.9346	7.39e-07	6e-09
303.15	1	7.08e-07	6e-09
313.15	0	3.688e-06	2.5e-08
313.15	0.0802	2.858e-06	2e-08
313.15	0.1168	2.58e-06	1.8e-08
313.15	0.1965	2.082e-06	1.5e-08
313.15	0.2939	1.644e-06	1.2e-08
313.15	0.3995	1.321e-06	1e-08
313.15	0.5141	1.083e-06	9e-09
313.15	0.548	1.028e-06	8e-09
313.15	0.5971	9.61e-07	8e-09
313.15	0.6912	8.44e-07	7e-09
313.15	0.7876	7.52e-07	6e-09
313.15	0.9035	6.75e-07	6e-09
313.15	0.9358	6.58e-07	6e-09
313.15	1	6.34e-07	6e-09

System: hexan-1-ol + methyl pentanoate; phases: Liquid
Fixed: Pressure, kPa = 101
Property: Mass density, kg/m3 (Liquid); method: VIBTUB:UFactor:2
Temperature, K	Mole fraction of methyl pentanoate	Mass density, kg/m3	uncertainty
293.15	0	818.84	0.29
293.15	0.085	824.62	0.3
293.15	0.1145	826.65	0.3
293.15	0.1854	831.55	0.31
293.15	0.2862	838.56	0.33
293.15	0.4123	847.4	0.35
293.15	0.5087	854.22	0.37
293.15	0.6157	861.84	0.39
293.15	0.6835	866.67	0.4
293.15	0.7846	873.96	0.43
293.15	0.9071	882.86	0.45
293.15	0.9274	884.35	0.46
293.15	1	889.75	0.47
303.15	0	811.56	0.29
303.15	0.0771	816.54	0.3
303.15	0.1183	819.23	0.31
303.15	0.192	824.09	0.32
303.15	0.2983	831.16	0.33
303.15	0.4502	841.37	0.36
303.15	0.4593	841.99	0.36
303.15	0.5089	845.34	0.37
303.15	0.613	852.44	0.39
303.15	0.691	857.8	0.4
303.15	0.7873	864.46	0.42
303.15	0.8796	870.9	0.44
303.15	0.9346	874.8	0.46
303.15	1	879.51	0.47
313.15	0	804.28	0.3
313.15	0.0802	809.21	0.3
313.15	0.1168	811.47	0.31
313.15	0.1965	816.46	0.32
313.15	0.2939	822.62	0.33
313.15	0.3995	829.39	0.35
313.15	0.5141	836.8	0.37
313.15	0.548	838.99	0.38
313.15	0.5971	842.2	0.39
313.15	0.6912	848.37	0.4
313.15	0.7876	854.78	0.42
313.15	0.9035	862.6	0.45
313.15	0.9358	864.8	0.45
313.15	1	869.32	0.47

System: hexan-1-ol + octane; phases: Liquid
Fixed: Pressure, kPa = 101
Property: Kinematic viscosity, m2/s (Liquid); method: CAPTUB:UFactor:2
Temperature, K	Mole fraction of octane	Kinematic viscosity, m2/s	uncertainty
293.15	0	6.609e-06	6.9e-08
293.15	0.0618	5.495e-06	6e-08
293.15	0.1114	4.744e-06	5.3e-08
293.15	0.1928	3.74e-06	4.2e-08
293.15	0.3022	2.746e-06	3.1e-08
293.15	0.4039	2.085e-06	2.4e-08
293.15	0.495	1.67e-06	2e-08
293.15	0.6088	1.307e-06	1.6e-08
293.15	0.715	1.085e-06	1.3e-08
293.15	0.8086	9.47e-07	1.2e-08
293.15	0.9078	8.43e-07	1.1e-08
293.15	0.9458	8.03e-07	1e-08
293.15	1	7.71e-07	1e-08
303.15	0	4.885e-06	5.4e-08
303.15	0.086	3.85e-06	4.3e-08
303.15	0.1308	3.415e-06	3.9e-08
303.15	0.188	2.938e-06	3.4e-08
303.15	0.308	2.154e-06	2.5e-08
303.15	0.3936	1.749e-06	2.1e-08
303.15	0.4994	1.382e-06	1.7e-08
303.15	0.5852	1.17e-06	1.4e-08
303.15	0.7026	9.66e-07	1.2e-08
303.15	0.8042	8.42e-07	1.1e-08
303.15	0.8767	7.73e-07	1e-08
303.15	0.9272	7.36e-07	1e-08
303.15	1	6.96e-07	9e-09
313.15	0	3.688e-06	4.2e-08
313.15	0.0646	3.132e-06	3.6e-08
313.15	0.1067	2.812e-06	3.2e-08
313.15	0.2007	2.236e-06	2.6e-08
313.15	0.2976	1.783e-06	2.1e-08
313.15	0.3882	1.457e-06	1.7e-08
313.15	0.4916	1.18e-06	1.4e-08
313.15	0.5873	1e-06	1.2e-08
313.15	0.7108	8.36e-07	1.1e-08
313.15	0.7893	7.56e-07	1e-08
313.15	0.9109	6.67e-07	9e-09
313.15	0.9599	6.41e-07	9e-09
313.15	1	6.27e-07	8e-09

System: hexan-1-ol + octane; phases: Liquid
Fixed: Pressure, kPa = 101
Property: Mass density, kg/m3 (Liquid); method: VIBTUB:UFactor:2
Temperature, K	Mole fraction of octane	Mass density, kg/m3	uncertainty
293.15	0	818.84	0.29
293.15	0.0618	809.74	0.29
293.15	0.086	806.25	0.29
293.15	0.1114	802.62	0.29
293.15	0.1597	795.86	0.29
293.15	0.1891	791.83	0.29
293.15	0.1928	791.32	0.29
293.15	0.2346	785.68	0.29
293.15	0.3022	776.82	0.29
293.15	0.4039	764.07	0.29
293.15	0.495	753.22	0.29
293.15	0.4994	752.71	0.29
293.15	0.6088	740.42	0.29
293.15	0.715	729.21	0.29
293.15	0.7991	720.79	0.3
293.15	0.8086	719.86	0.3
293.15	0.8381	717.02	0.3
293.15	0.8767	713.37	0.3
293.15	0.9078	710.5	0.3
293.15	0.9272	708.75	0.3
293.15	0.9458	707.09	0.3
293.15	1	702.54	0.3
303.15	0	811.56	0.29
303.15	0.0233	808.05	0.29
303.15	0.051	803.93	0.29
303.15	0.086	798.81	0.29
303.15	0.1189	794.07	0.29
303.15	0.1308	792.38	0.29
303.15	0.1581	788.53	0.29
303.15	0.188	784.37	0.29
303.15	0.1922	783.8	0.29
303.15	0.2352	777.94	0.29
303.15	0.2632	774.2	0.29
303.15	0.308	768.33	0.29
303.15	0.369	760.56	0.29
303.15	0.3936	757.47	0.29
303.15	0.4152	754.82	0.29
303.15	0.4508	750.49	0.29
303.15	0.4994	744.75	0.29
303.15	0.5249	741.79	0.29
303.15	0.578	735.78	0.29
303.15	0.5852	734.98	0.29
303.15	0.6255	730.55	0.3
303.15	0.7026	722.36	0.3
303.15	0.7143	721.15	0.3
303.15	0.774	715.1	0.3
303.15	0.7909	713.42	0.3
303.15	0.8042	712.11	0.3
303.15	0.8532	707.39	0.3
303.15	0.8767	705.17	0.3
303.15	0.9009	702.91	0.31
303.15	0.9272	700.52	0.31
303.15	0.947	698.76	0.31
303.15	1	694.35	0.31
313.15	0	804.28	0.3
313.15	0.0229	800.79	0.29
313.15	0.0502	796.68	0.29
313.15	0.0646	794.53	0.29
313.15	0.0825	791.88	0.29
313.15	0.1067	788.35	0.29
313.15	0.1205	786.35	0.29
313.15	0.1569	781.14	0.29
313.15	0.2007	774.99	0.29
313.15	0.2441	769.04	0.29
313.15	0.2976	761.89	0.29
313.15	0.3132	759.85	0.29
313.15	0.3441	755.84	0.29
313.15	0.3882	750.23	0.3
313.15	0.3938	749.53	0.3
313.15	0.4703	740.16	0.3
313.15	0.4916	737.63	0.3
313.15	0.4949	737.24	0.3
313.15	0.5873	726.62	0.3
313.15	0.6023	724.95	0.3
313.15	0.6746	717.11	0.3
313.15	0.6964	714.81	0.3
313.15	0.7108	713.3	0.3
313.15	0.757	708.56	0.31
313.15	0.7619	708.06	0.31
313.15	0.7893	705.32	0.31
313.15	0.8428	700.08	0.31
313.15	0.8748	697.03	0.31
313.15	0.9109	693.67	0.31
313.15	0.9297	691.97	0.31
313.15	0.9599	689.33	0.31
313.15	1	686.12	0.32

System: hexan-1-ol + octane + methyl pentanoate; phases: Liquid
Fixed: Temperature, K = 293.15
Property: Kinematic viscosity, m2/s (Liquid); method: CAPTUB:UFactor:2
Pressure, kPa	Mole fraction of methyl pentanoate	Mole fraction of octane	Kinematic viscosity, m2/s	uncertainty
293.15	0.0773	0.1203	3.455e-06	4.5e-08
293.15	0.0812	0.3271	1.968e-06	2.5e-08
293.15	0.1057	0.3954	1.582e-06	2.3e-08
293.15	0.1189	0.0861	3.279e-06	4.3e-08
293.15	0.1218	0.4854	1.275e-06	1.7e-08
293.15	0.1235	0.1851	2.49e-06	3.2e-08
293.15	0.1387	0.5645	1.078e-06	1.4e-08
293.15	0.1562	0.6451	9.29e-07	1.2e-08
293.15	0.1626	0.2369	1.966e-06	2.5e-08
293.15	0.173	0.7261	8.18e-07	1.1e-08
293.15	0.177	0.1313	2.445e-06	3.5e-08
293.15	0.1985	0.3029	1.551e-06	2.1e-08
293.15	0.2303	0.1615	1.972e-06	2.7e-08
293.15	0.2384	0.3613	1.275e-06	1.7e-08
293.15	0.2779	0.4211	1.07e-06	1.4e-08
293.15	0.3038	0.202	1.519e-06	2.1e-08
293.15	0.3095	0.4853	9.25e-07	1.2e-08
293.15	0.3109	0.0877	1.927e-06	2.5e-08
293.15	0.3637	0.545	7.98e-07	1.1e-08
293.15	0.3652	0.2364	1.261e-06	1.7e-08
293.15	0.4042	0.0973	1.531e-06	2e-08
293.15	0.4195	0.2884	1.054e-06	1.4e-08
293.15	0.4747	0.321	9.26e-07	1.2e-08
293.15	0.4835	0.125	1.252e-06	1.7e-08
293.15	0.5452	0.3532	8.12e-07	1.1e-08
293.15	0.5521	0.1462	1.08e-06	1.4e-08
293.15	0.6329	0.1608	9.42e-07	1.3e-08
293.15	0.7118	0.1821	8.33e-07	1.1e-08
303.15	0.0781	0.3244	1.638e-06	2.2e-08
303.15	0.0883	0.1252	2.563e-06	3.6e-08
303.15	0.1099	0.1843	2.084e-06	2.8e-08
303.15	0.1183	0.0871	2.578e-06	3.5e-08
303.15	0.1232	0.4833	1.094e-06	1.4e-08
303.15	0.1417	0.5651	9.32e-07	1.2e-08
303.15	0.155	0.6419	8.24e-07	1.1e-08
303.15	0.1675	0.2403	1.58e-06	2.1e-08
303.15	0.1824	0.7178	7.26e-07	1e-08
303.15	0.1834	0.1218	1.984e-06	2.7e-08
303.15	0.197	0.3052	1.303e-06	1.7e-08
303.15	0.2353	0.1726	1.561e-06	2.1e-08
303.15	0.2381	0.3717	1.072e-06	1.4e-08
303.15	0.2883	0.4141	9.24e-07	1.2e-08
303.15	0.3008	0.1996	1.294e-06	1.7e-08
303.15	0.3137	0.4858	8.08e-07	1.1e-08
303.15	0.3218	0.0837	1.555e-06	2.1e-08
303.15	0.3589	0.2466	1.072e-06	1.4e-08
303.15	0.3637	0.5305	7.2e-07	1e-08
303.15	0.4049	0.0943	1.292e-06	1.7e-08
303.15	0.4142	0.2851	9.25e-07	1.3e-08
303.15	0.4773	0.1279	1.076e-06	1.5e-08
303.15	0.5501	0.3581	7.12e-07	1e-08
303.15	0.5574	0.1448	9.29e-07	1.3e-08
303.15	0.6355	0.1621	8.22e-07	1.1e-08
303.15	0.7025	0.1876	7.38e-07	1e-08
313.05	0.0889	0.1216	2.066e-06	2.9e-08
313.05	0.0907	0.3159	1.349e-06	1.9e-08
313.05	0.1049	0.4013	1.119e-06	1.7e-08
313.05	0.1182	0.0836	2.089e-06	2.9e-08
313.05	0.1251	0.1856	1.624e-06	2.3e-08
313.05	0.1274	0.4813	9.43e-07	1.3e-08
313.05	0.1438	0.5584	8.23e-07	1.1e-08
313.05	0.1618	0.635	7.28e-07	1e-08
313.05	0.163	0.2436	1.328e-06	1.8e-08
313.05	0.1794	0.7207	6.49e-07	9e-09
313.05	0.1871	0.1274	1.589e-06	2.1e-08
313.05	0.2051	0.2979	1.108e-06	1.5e-08
313.05	0.2413	0.1613	1.323e-06	1.7e-08
313.05	0.2448	0.3588	9.37e-07	1.2e-08
313.05	0.28	0.4186	8.16e-07	1.1e-08
313.05	0.3049	0.2031	1.089e-06	1.4e-08
313.05	0.318	0.0871	1.308e-06	1.8e-08
313.05	0.3265	0.4769	7.13e-07	1e-08
313.05	0.364	0.5361	6.41e-07	9e-09
313.05	0.3672	0.2381	9.3e-07	1.2e-08
313.05	0.4064	0.0977	1.097e-06	1.5e-08
313.05	0.4171	0.2846	8.09e-07	1.1e-08
313.05	0.4795	0.3194	7.16e-07	1.1e-08
313.05	0.4826	0.1224	9.32e-07	1.3e-08
313.05	0.5492	0.3528	6.42e-07	9e-09
313.05	0.5589	0.1411	8.18e-07	1.1e-08
313.05	0.6413	0.16	7.23e-07	1e-08
313.05	0.7128	0.1886	6.53e-07	9e-09

System: hexan-1-ol + octane + methyl pentanoate; phases: Liquid
Fixed: Pressure, kPa = 101
Property: Mass density, kg/m3 (Liquid); method: VIBTUB:UFactor:2
Temperature, K	Mole fraction of methyl pentanoate	Mole fraction of octane	Mass density, kg/m3	uncertainty
293.15	0.0773	0.1203	806.36	0.3
293.15	0.0812	0.3271	778.53	0.29
293.15	0.1057	0.3954	771.39	0.29
293.15	0.1189	0.0861	813.99	0.3
293.15	0.1218	0.4854	761.43	0.3
293.15	0.1235	0.1851	800.14	0.3
293.15	0.1387	0.5645	753.29	0.3
293.15	0.1562	0.6451	745.37	0.3
293.15	0.1626	0.2369	795.5	0.3
293.15	0.173	0.7261	737.74	0.3
293.15	0.177	0.1313	811.27	0.31
293.15	0.1985	0.3029	788.92	0.3
293.15	0.2303	0.1615	810.46	0.31
293.15	0.2384	0.3613	783.81	0.31
293.15	0.2779	0.4211	778.66	0.31
293.15	0.3038	0.202	809.49	0.32
293.15	0.3095	0.4853	772.73	0.31
293.15	0.3109	0.0877	826.69	0.33
293.15	0.3637	0.545	768.92	0.31
293.15	0.3652	0.2364	808.67	0.33
293.15	0.4042	0.0973	831.57	0.34
293.15	0.4195	0.2884	805.01	0.33
293.15	0.4747	0.321	804.12	0.34
293.15	0.4835	0.125	832.79	0.35
293.15	0.5452	0.3532	804.35	0.35
293.15	0.5521	0.1462	834.3	0.36
293.15	0.6329	0.1608	837.55	0.38
293.15	0.7118	0.1821	839.76	0.39
303.15	0.0781	0.3244	770.64	0.3
303.15	0.0883	0.1252	798.5	0.3
303.15	0.1099	0.1843	791.44	0.3
303.15	0.1183	0.0871	805.97	0.3
303.15	0.1232	0.4833	753.45	0.3
303.15	0.1417	0.5651	744.98	0.3
303.15	0.155	0.6419	737.13	0.3
303.15	0.1675	0.2403	787.15	0.31
303.15	0.1824	0.7178	730.51	0.31
303.15	0.1834	0.1218	804.98	0.31
303.15	0.197	0.3052	780.18	0.31
303.15	0.2353	0.1726	800.87	0.32
303.15	0.2381	0.3717	773.92	0.31
303.15	0.2883	0.4141	771.51	0.31
303.15	0.3008	0.1996	801.09	0.32
303.15	0.3137	0.4858	764.12	0.32
303.15	0.3218	0.0837	819.53	0.33
303.15	0.3589	0.2466	798.07	0.33
303.15	0.3637	0.5305	761.65	0.32
303.15	0.4049	0.0943	823.33	0.34
303.15	0.4142	0.2851	796.16	0.33
303.15	0.4773	0.1279	822.91	0.35
303.15	0.5501	0.3581	794.67	0.35
303.15	0.5574	0.1448	825.57	0.36
303.15	0.6355	0.1621	828.05	0.38
303.15	0.7025	0.1876	828.62	0.39
313.15	0.0889	0.1216	791.36	0.3
313.15	0.0907	0.3159	764.49	0.3
313.15	0.1049	0.4013	754.28	0.3
313.15	0.1182	0.0836	798.74	0.31
313.15	0.1251	0.1856	784.26	0.31
313.15	0.1274	0.4813	745.67	0.3
313.15	0.1438	0.5584	737.47	0.31
313.15	0.1618	0.635	729.81	0.31
313.15	0.163	0.2436	778.33	0.31
313.15	0.1794	0.7207	721.48	0.31
313.15	0.1871	0.1274	796.37	0.31
313.15	0.2051	0.2979	773.34	0.31
313.15	0.2413	0.1613	794.64	0.32
313.15	0.2448	0.3588	767.54	0.31
313.15	0.28	0.4186	761.85	0.32
313.15	0.3049	0.2031	792.4	0.33
313.15	0.318	0.0871	810.44	0.33
313.15	0.3265	0.4769	757.18	0.32
313.15	0.364	0.5361	752.13	0.32
313.15	0.3672	0.2381	791.12	0.33
313.15	0.4064	0.0977	814.3	0.35
313.15	0.4171	0.2846	787.54	0.34
313.15	0.4795	0.3194	786.46	0.34
313.15	0.4826	0.1224	815.25	0.36
313.15	0.5492	0.3528	786.08	0.35
313.15	0.5589	0.1411	817.16	0.37
313.15	0.6413	0.16	819.44	0.38
313.15	0.7128	0.1886	819.61	0.39

System: methyl heptanoate + hexan-1-ol + octane; phases: Liquid
Fixed: Pressure, kPa = 101
Property: Kinematic viscosity, m2/s (Liquid); method: CAPTUB:UFactor:2
Temperature, K	Mole fraction of methyl heptanoate	Mole fraction of octane	Kinematic viscosity, m2/s	uncertainty
293.15	0.0816	0.3217	2.071e-06	2.4e-08
293.15	0.0819	0.1244	3.448e-06	3.9e-08
293.15	0.1102	0.3968	1.64e-06	1.9e-08
293.15	0.1185	0.4778	1.378e-06	1.7e-08
293.15	0.1193	0.0866	3.435e-06	3.9e-08
293.15	0.1231	0.1818	2.644e-06	3.1e-08
293.15	0.1419	0.5535	1.17e-06	1.4e-08
293.15	0.1586	0.2451	2.089e-06	2.4e-08
293.15	0.1609	0.6407	1.005e-06	1.3e-08
293.15	0.1713	0.125	2.748e-06	3.2e-08
293.15	0.1829	0.7058	9.04e-07	1.1e-08
293.15	0.2031	0.2972	1.705e-06	2e-08
293.15	0.2393	0.1666	2.124e-06	2.5e-08
293.15	0.2437	0.3648	1.409e-06	1.7e-08
293.15	0.2729	0.4232	1.232e-06	1.5e-08
293.15	0.3008	0.1996	1.78e-06	2.1e-08
293.15	0.3197	0.0824	2.207e-06	2.6e-08
293.15	0.3214	0.4768	1.077e-06	1.3e-08
293.15	0.358	0.2405	1.508e-06	1.8e-08
293.15	0.3632	0.5357	9.63e-07	1.2e-08
293.15	0.4039	0.1085	1.822e-06	2.2e-08
293.15	0.4235	0.2822	1.299e-06	1.6e-08
293.15	0.4729	0.1289	1.598e-06	1.9e-08
293.15	0.4808	0.3197	1.162e-06	1.4e-08
293.15	0.538	0.3596	1.056e-06	1.3e-08
293.15	0.5582	0.1368	1.421e-06	1.8e-08
293.15	0.6266	0.1686	1.272e-06	1.6e-08
293.15	0.7128	0.183	1.171e-06	1.5e-08
303.15	0.0802	0.1221	2.733e-06	3.1e-08
303.15	0.0879	0.3145	1.701e-06	2e-08
303.15	0.1061	0.3955	1.392e-06	1.7e-08
303.15	0.1179	0.1841	2.134e-06	2.5e-08
303.15	0.1193	0.484	1.168e-06	1.4e-08
303.15	0.1273	0.0861	2.635e-06	3.1e-08
303.15	0.1437	0.5678	9.89e-07	1.2e-08
303.15	0.1609	0.6368	8.84e-07	1.1e-08
303.15	0.1633	0.2376	1.726e-06	2.1e-08
303.15	0.1806	0.123	2.137e-06	2.5e-08
303.15	0.1814	0.71	7.95e-07	1e-08
303.15	0.2043	0.3055	1.402e-06	1.7e-08
303.15	0.242	0.1734	1.708e-06	2e-08
303.15	0.2454	0.3699	1.186e-06	1.5e-08
303.15	0.2803	0.4167	1.06e-06	1.3e-08
303.15	0.3023	0.2057	1.454e-06	1.8e-08
303.15	0.3237	0.4736	9.4e-07	1.2e-08
303.15	0.3252	0.0807	1.789e-06	2.1e-08
303.15	0.3592	0.2393	1.273e-06	1.6e-08
303.15	0.3607	0.5327	8.61e-07	1.1e-08
303.15	0.4003	0.1053	1.518e-06	1.9e-08
303.15	0.4177	0.2854	1.113e-06	1.4e-08
303.15	0.4745	0.3181	1.012e-06	1.3e-08
303.15	0.4798	0.1297	1.322e-06	1.6e-08
303.15	0.5335	0.3586	9.23e-07	1.2e-08
303.15	0.558	0.1464	1.191e-06	1.5e-08
303.15	0.6379	0.1647	1.087e-06	1.4e-08
303.15	0.7004	0.1854	1.018e-06	1.3e-08
313.15	0.0808	0.1273	2.144e-06	2.5e-08
313.15	0.0886	0.3214	1.389e-06	1.7e-08
313.15	0.1004	0.4067	1.167e-06	1.4e-08
313.15	0.112	0.1824	1.771e-06	2.1e-08
313.15	0.1203	0.0845	2.159e-06	2.5e-08
313.15	0.1241	0.4869	9.93e-07	1.2e-08
313.15	0.1447	0.5626	8.71e-07	1.1e-08
313.15	0.155	0.6445	7.79e-07	1e-08
313.15	0.1596	0.2395	1.435e-06	1.7e-08
313.15	0.1803	0.713	7.08e-07	9e-09
313.15	0.1841	0.1221	1.748e-06	2.1e-08
313.15	0.2026	0.3044	1.197e-06	1.5e-08
313.15	0.2437	0.3618	1.038e-06	1.3e-08
313.15	0.2446	0.1576	1.458e-06	1.8e-08
313.15	0.2776	0.4116	9.32e-07	1.2e-08
313.15	0.3052	0.206	1.23e-06	1.5e-08
313.15	0.3159	0.0914	1.476e-06	1.8e-08
313.15	0.3244	0.476	8.25e-07	1.1e-08
313.15	0.3595	0.535	7.55e-07	1e-08
313.15	0.3644	0.2396	1.089e-06	1.4e-08
313.15	0.4048	0.1058	1.279e-06	1.6e-08
313.15	0.4215	0.2785	9.75e-07	1.2e-08
313.15	0.4809	0.1179	1.153e-06	1.4e-08
313.15	0.4824	0.318	8.82e-07	1.1e-08
313.15	0.5257	0.3616	8.18e-07	1.1e-08
313.15	0.5616	0.1432	1.033e-06	1.3e-08
313.15	0.635	0.1708	9.44e-07	1.2e-08
313.15	0.7093	0.1852	8.91e-07	1.2e-08

System: methyl heptanoate + hexan-1-ol + octane; phases: Liquid
Fixed: Pressure, kPa = 101
Property: Mass density, kg/m3 (Liquid); method: VIBTUB:UFactor:2
Temperature, K	Mole fraction of methyl heptanoate	Mole fraction of octane	Mass density, kg/m3	uncertainty
293.15	0.0816	0.3217	780.68	0.29
293.15	0.0819	0.1244	806.92	0.29
293.15	0.1102	0.3968	773.63	0.29
293.15	0.1185	0.4778	764.66	0.29
293.15	0.1193	0.0866	814.99	0.3
293.15	0.1231	0.1818	802.09	0.29
293.15	0.1419	0.5535	757.92	0.29
293.15	0.1586	0.2451	796.28	0.3
293.15	0.1609	0.6407	749.98	0.29
293.15	0.1713	0.125	813.36	0.3
293.15	0.1829	0.7058	745.02	0.29
293.15	0.2031	0.2972	792.88	0.3
293.15	0.2393	0.1666	812.5	0.31
293.15	0.2437	0.3648	787.48	0.3
293.15	0.2729	0.4232	782.66	0.3
293.15	0.3008	0.1996	812.41	0.31
293.15	0.3197	0.0824	829.48	0.32
293.15	0.3214	0.4768	780.01	0.3
293.15	0.358	0.2405	811.05	0.31
293.15	0.3632	0.5357	776.49	0.3
293.15	0.4039	0.1085	831.45	0.33
293.15	0.4235	0.2822	810.25	0.32
293.15	0.4729	0.1289	833.11	0.33
293.15	0.4808	0.3197	809.51	0.32
293.15	0.538	0.3596	808.55	0.33
293.15	0.5582	0.1368	837.41	0.34
293.15	0.6266	0.1686	837.47	0.35
293.15	0.7128	0.183	840.81	0.36
303.15	0.0802	0.1221	799.33	0.3
303.15	0.0879	0.3145	774.02	0.29
303.15	0.1061	0.3955	765.26	0.29
303.15	0.1179	0.1841	793.41	0.3
303.15	0.1193	0.484	755.74	0.3
303.15	0.1273	0.0861	807.79	0.3
303.15	0.1437	0.5678	748.13	0.3
303.15	0.1609	0.6368	741.97	0.3
303.15	0.1633	0.2376	789.47	0.3
303.15	0.1806	0.123	806.27	0.3
303.15	0.1814	0.71	735.94	0.3
303.15	0.2043	0.3055	783.63	0.3
303.15	0.242	0.1734	803.55	0.31
303.15	0.2454	0.3699	778.59	0.3
303.15	0.2803	0.4167	775.48	0.3
303.15	0.3023	0.2057	803.33	0.31
303.15	0.3237	0.4736	771.97	0.31
303.15	0.3252	0.0807	821.79	0.32
303.15	0.3592	0.2393	802.77	0.32
303.15	0.3607	0.5327	767.97	0.31
303.15	0.4003	0.1053	823.16	0.33
303.15	0.4177	0.2854	800.81	0.32
303.15	0.4745	0.3181	800.51	0.32
303.15	0.4798	0.1297	824.81	0.34
303.15	0.5335	0.3586	799.5	0.33
303.15	0.558	0.1464	827.37	0.34
303.15	0.6379	0.1647	829.72	0.35
303.15	0.7004	0.1854	830.79	0.36
313.15	0.0808	0.1273	790.79	0.3
313.15	0.0886	0.3214	765.04	0.3
313.15	0.1004	0.4067	755.2	0.3
313.15	0.112	0.1824	785.23	0.3
313.15	0.1203	0.0845	799.66	0.3
313.15	0.1241	0.4869	747.37	0.3
313.15	0.1447	0.5626	740.25	0.3
313.15	0.155	0.6445	732.09	0.3
313.15	0.1596	0.2395	780.78	0.3
313.15	0.1803	0.713	726.84	0.31
313.15	0.1841	0.1221	798.56	0.31
313.15	0.2026	0.3044	775.32	0.31
313.15	0.2437	0.3618	770.97	0.31
313.15	0.2446	0.1576	797.66	0.31
313.15	0.2776	0.4116	767.29	0.31
313.15	0.3052	0.206	795.1	0.32
313.15	0.3159	0.0914	811.43	0.32
313.15	0.3244	0.476	763.01	0.31
313.15	0.3595	0.535	758.83	0.31
313.15	0.3644	0.2396	794.56	0.32
313.15	0.4048	0.1058	814.94	0.33
313.15	0.4215	0.2785	793.28	0.32
313.15	0.4809	0.1179	817.89	0.34
313.15	0.4824	0.318	792.28	0.33
313.15	0.5257	0.3616	789.79	0.33
313.15	0.5616	0.1432	819.29	0.35
313.15	0.635	0.1708	819.97	0.35
313.15	0.7093	0.1852	822.41	0.36
