Measured thermophysical data. Surface Tension Measurements of Difluoromethane(R-32) and the Binary Mixture Difluoromethane(R-32) + 1,1,1,2-tetrafluoroethane(R-134a) from (253 to 333) K
Source: J. Chem. Eng. Data, 2003, 10.1021/je030137f
Compound 1: difluoromethane, CH2F2, InChI=1S/CH2F2/c2-1-3/h1H2, purity 99.95%
Compound 2: 1,1,1,2-tetrafluoroethane, C2H2F4, InChI=1S/C2H2F4/c3-1-2(4,5)6/h1H2, purity 99.96%

System: difluoromethane; phases: Liquid, Gas
Property: Surface tension liquid-gas, N/m (Liquid); method: CAPRISE:UFactor:2
Temperature, K	Surface tension liquid-gas, N/m	uncertainty
252.74	0.014631	0.000181
252.74	0.014621	0.000181
257	0.01376	0.00018
257	0.013787	0.00018
260.46	0.01316	0.00018
260.46	0.013182	0.00018
265.04	0.012396	0.000179
265.04	0.012417	0.000179
268.75	0.011825	0.000178
268.75	0.011825	0.000178
273.28	0.011011	0.000177
273.28	0.011011	0.000177
276.85	0.010455	0.000176
276.85	0.01048	0.000176
281.5	0.0096	0.000176
281.5	0.009634	0.000176
285.79	0.008809	0.000175
285.79	0.008809	0.000175
294.05	0.007543	0.000173
294.05	0.007552	0.000173
297.58	0.006972	0.000173
297.58	0.006981	0.000173
301.42	0.006377	0.000172
301.42	0.006373	0.000172
305.3	0.005801	0.000171
305.3	0.005792	0.000171
309.5	0.005154	0.000171
309.5	0.005154	0.000171
315.58	0.004249	0.00017
315.58	0.00426	0.00017
319.38	0.003661	0.000169
319.38	0.003672	0.000169
319.84	0.003568	0.000169
319.84	0.003571	0.000169
323.29	0.003087	0.000169
323.29	0.003087	0.000169
327.23	0.002575	0.000168
327.23	0.002568	0.000168
332	0.001919	0.000168
332	0.001919	0.000168

System: difluoromethane + 1,1,1,2-tetrafluoroethane; phases: Liquid, Gas
Property: Surface tension liquid-gas, N/m (Liquid); method: CAPRISE:UFactor:2
Temperature, K	Mass fraction of difluoromethane	Surface tension liquid-gas, N/m	uncertainty
254.87	0.7577	0.013952	0.00018
254.87	0.7577	0.013969	0.000181
254.88	0.3944	0.013923	0.00018
254.88	0.6169	0.013807	0.00018
254.88	0.3944	0.013923	0.00018
254.88	0.6169	0.01383	0.00018
255.03	0.2324	0.014033	0.000181
255.03	0.2324	0.014033	0.000181
256.82	0.394	0.01372	0.00018
256.82	0.394	0.013714	0.00018
256.94	0.2321	0.013747	0.00018
256.94	0.2321	0.013735	0.00018
257	0.7574	0.013649	0.00018
257	0.7574	0.013649	0.00018
257.14	0.6164	0.0135	0.00018
257.14	0.6164	0.0135	0.00018
258.87	0.2318	0.013518	0.00018
258.87	0.2318	0.013518	0.00018
258.96	0.7571	0.013349	0.00018
258.96	0.7571	0.013315	0.00018
258.98	0.616	0.01313	0.00018
258.98	0.616	0.01313	0.00018
259.08	0.3935	0.013296	0.00018
259.08	0.3935	0.013296	0.00018
260.74	0.2315	0.013236	0.00018
260.74	0.2315	0.013242	0.00018
261.04	0.6156	0.012886	0.000179
261.04	0.6156	0.012897	0.000179
261.07	0.7567	0.01295	0.000179
261.07	0.7567	0.012928	0.000179
261.21	0.393	0.012988	0.000179
261.21	0.393	0.012988	0.000179
262.98	0.3926	0.012613	0.000179
262.98	0.7563	0.012606	0.000179
262.98	0.3926	0.012649	0.000179
262.98	0.7563	0.012606	0.000179
263.04	0.2311	0.012735	0.000179
263.04	0.2311	0.012753	0.000179
263.08	0.6151	0.012485	0.000179
263.08	0.6151	0.012542	0.000179
264.63	0.2309	0.012568	0.000179
264.63	0.2309	0.012568	0.000179
264.74	0.756	0.01232	0.000179
264.74	0.756	0.012331	0.000179
264.91	0.6146	0.012308	0.000179
264.91	0.6146	0.01232	0.000179
265.09	0.3921	0.012364	0.000179
265.09	0.3921	0.012358	0.000179
266.52	0.6142	0.011961	0.000178
266.52	0.6142	0.012	0.000178
266.53	0.2305	0.01225	0.000178
266.53	0.2305	0.01225	0.000178
266.9	0.3916	0.012064	0.000178
266.9	0.3916	0.012064	0.000178
267.08	0.7555	0.01194	0.000178
267.08	0.7555	0.011956	0.000178
268.9	0.2301	0.011881	0.000178
268.9	0.2301	0.011887	0.000178
268.91	0.6136	0.011656	0.000178
268.91	0.6136	0.011662	0.000178
268.95	0.7551	0.01169	0.000178
268.95	0.7551	0.011679	0.000178
269.06	0.3911	0.011771	0.000178
269.06	0.3911	0.011766	0.000178
270.7	0.7548	0.011432	0.000178
270.7	0.7548	0.011432	0.000178
270.89	0.6131	0.011251	0.000177
270.89	0.6131	0.011268	0.000177
271.05	0.2297	0.011568	0.000178
271.05	0.2297	0.011598	0.000178
271.09	0.3905	0.011356	0.000177
271.09	0.3905	0.011367	0.000177
273.21	0.6125	0.010904	0.000177
273.21	0.6125	0.010893	0.000177
273.32	0.7542	0.010927	0.000177
273.32	0.7542	0.010906	0.000177
273.66	0.2292	0.011175	0.000177
273.66	0.2292	0.011216	0.000177
274.56	0.6121	0.010678	0.000177
274.56	0.6121	0.010694	0.000177
275.42	0.7537	0.01063	0.000177
275.42	0.7537	0.010667	0.000177
275.81	0.3892	0.010717	0.000177
275.81	0.3892	0.010728	0.000177
276.93	0.7533	0.01035	0.000176
276.93	0.7533	0.01035	0.000176
277.22	0.6113	0.01033	0.000176
277.22	0.6113	0.010324	0.000176
278.11	0.3885	0.010333	0.000176
278.11	0.3885	0.010349	0.000176
278.13	0.2283	0.010504	0.000177
278.13	0.2283	0.010556	0.000177
279.2	0.6107	0.009956	0.000176
279.2	0.6107	0.009956	0.000176
279.23	0.7527	0.010001	0.000176
279.23	0.7527	0.009954	0.000176
280.06	0.3879	0.010083	0.000176
280.06	0.3879	0.010105	0.000176
281.69	0.7521	0.009578	0.000175
281.69	0.7521	0.009603	0.000176
282.23	0.3872	0.009604	0.000176
282.23	0.3872	0.00962	0.000176
282.42	0.2274	0.009906	0.000176
282.42	0.2274	0.009906	0.000176
282.76	0.6095	0.009324	0.000175
282.76	0.6095	0.009324	0.000175
283.16	0.7517	0.009307	0.000175
283.16	0.7517	0.009337	0.000175
283.25	0.3869	0.00954	0.000175
283.25	0.3869	0.009551	0.000175
285.86	0.7509	0.008928	0.000175
285.86	0.7509	0.008918	0.000175
286.04	0.2266	0.009388	0.000175
286.04	0.2266	0.009388	0.000175
286.27	0.3859	0.009149	0.000175
286.27	0.3859	0.00916	0.000175
287.13	0.608	0.008788	0.000175
287.13	0.608	0.008798	0.000175
288.32	0.2261	0.009119	0.000175
288.32	0.2261	0.009119	0.000175
289.25	0.3849	0.008674	0.000174
289.25	0.3849	0.008669	0.000174
289.77	0.7498	0.008287	0.000174
289.77	0.7498	0.008297	0.000174
289.78	0.6071	0.008365	0.000174
289.78	0.6071	0.008381	0.000174
291.23	0.3842	0.008371	0.000174
291.23	0.3842	0.008376	0.000174
291.41	0.6065	0.008017	0.000174
291.41	0.6065	0.008032	0.000174
291.86	0.7491	0.007977	0.000174
291.86	0.7491	0.007977	0.000174
292.49	0.2251	0.008405	0.000174
292.49	0.2251	0.008421	0.000174
293.41	0.3835	0.007964	0.000174
293.41	0.3835	0.007975	0.000174
293.49	0.7486	0.007591	0.000173
293.49	0.7486	0.007586	0.000173
293.56	0.6057	0.007705	0.000173
293.56	0.6057	0.00771	0.000173
295.14	0.2245	0.008031	0.000174
295.14	0.2245	0.00802	0.000174
295.3	0.748	0.007476	0.000173
295.3	0.748	0.007476	0.000173
295.48	0.3827	0.007647	0.000173
295.48	0.3827	0.007668	0.000173
295.58	0.6049	0.007374	0.000173
295.58	0.6049	0.007374	0.000173
296.81	0.224	0.007772	0.000174
296.81	0.224	0.007745	0.000173
297.23	0.3821	0.007478	0.000173
297.23	0.3821	0.007478	0.000173
297.26	0.6042	0.007123	0.000173
297.26	0.6042	0.007123	0.000173
297.55	0.7472	0.006997	0.000173
297.55	0.7472	0.006992	0.000173
298.62	0.2236	0.007531	0.000173
298.62	0.2236	0.007537	0.000173
299.2	0.3813	0.007138	0.000173
299.2	0.6034	0.006917	0.000173
299.2	0.3813	0.007153	0.000173
299.2	0.6034	0.006912	0.000173
299.27	0.7466	0.006868	0.000173
299.27	0.7466	0.006863	0.000173
300.47	0.2232	0.007218	0.000173
300.47	0.2232	0.007223	0.000173
301.19	0.3805	0.006913	0.000173
301.19	0.3805	0.006908	0.000173
301.42	0.7458	0.006514	0.000172
301.42	0.7458	0.006519	0.000172
301.54	0.6024	0.006508	0.000172
301.54	0.6024	0.006513	0.000172
302.58	0.2227	0.007015	0.000173
302.58	0.2227	0.007041	0.000173
303.42	0.7451	0.006206	0.000172
303.42	0.7451	0.006215	0.000172
303.43	0.3797	0.006641	0.000172
303.43	0.3797	0.006646	0.000172
303.56	0.6015	0.006278	0.000172
303.56	0.6015	0.006283	0.000172
304.89	0.2221	0.006726	0.000172
304.89	0.2221	0.006742	0.000172
305.51	0.3788	0.006326	0.000172
305.51	0.7443	0.005875	0.000172
305.51	0.3788	0.006336	0.000172
305.51	0.7443	0.005884	0.000172
305.76	0.6006	0.006008	0.000172
305.76	0.6006	0.006008	0.000172
306.9	0.2216	0.006421	0.000172
306.9	0.2216	0.006395	0.000172
307.34	0.3781	0.006077	0.000172
307.34	0.3781	0.006067	0.000172
307.52	0.5997	0.005761	0.000171
307.52	0.5997	0.005761	0.000171
307.72	0.7434	0.005557	0.000171
307.72	0.7434	0.005557	0.000171
308.95	0.221	0.006214	0.000172
308.95	0.221	0.006214	0.000172
309.23	0.3773	0.005888	0.000172
309.23	0.3773	0.005879	0.000172
309.37	0.5989	0.005446	0.000171
309.37	0.5989	0.005442	0.000171
309.65	0.7426	0.005315	0.000171
309.65	0.7426	0.005306	0.000171
310.59	0.2206	0.005981	0.000172
310.59	0.2206	0.005981	0.000172
311.21	0.2204	0.005888	0.000172
311.21	0.2204	0.005873	0.000172
311.59	0.7417	0.005019	0.000171
311.59	0.7417	0.005023	0.000171
311.6	0.3764	0.005488	0.000171
311.6	0.3764	0.005474	0.000171
311.69	0.5978	0.005095	0.000171
311.69	0.5978	0.005095	0.000171
313.15	0.2199	0.005659	0.000171
313.15	0.2199	0.005649	0.000171
313.64	0.3755	0.005205	0.000171
313.64	0.3755	0.005186	0.000171
313.91	0.5967	0.004849	0.00017
313.91	0.5967	0.004871	0.000171
313.99	0.7407	0.004676	0.00017
313.99	0.7407	0.004667	0.00017
315.19	0.2193	0.005275	0.000171
315.19	0.2193	0.00528	0.000171
315.26	0.3748	0.005029	0.000171
315.26	0.3748	0.005024	0.000171
315.42	0.7401	0.004475	0.00017
315.42	0.7401	0.004475	0.00017
315.46	0.5959	0.004557	0.00017
315.46	0.5959	0.004579	0.00017
317.1	0.2188	0.005151	0.000171
317.1	0.2188	0.005131	0.000171
317.4	0.3739	0.004695	0.00017
317.4	0.3739	0.004682	0.00017
317.42	0.7392	0.004188	0.00017
317.42	0.7392	0.004188	0.00017
317.56	0.5949	0.004292	0.00017
317.56	0.5949	0.004305	0.00017
318.71	0.2184	0.004949	0.000171
318.71	0.2184	0.004944	0.000171
319.24	0.3731	0.004459	0.00017
319.24	0.3731	0.004446	0.00017
319.34	0.2182	0.004823	0.00017
319.34	0.2182	0.004842	0.00017
319.64	0.7381	0.003883	0.00017
319.64	0.7381	0.003883	0.00017
319.7	0.5937	0.004038	0.00017
319.7	0.5937	0.004025	0.00017
321.24	0.2177	0.004622	0.00017
321.24	0.2177	0.004627	0.00017
321.49	0.3721	0.004224	0.00017
321.49	0.3721	0.004219	0.00017
321.58	0.7372	0.003577	0.000169
321.58	0.7372	0.003573	0.000169
321.73	0.5927	0.003733	0.000169
321.73	0.5927	0.003729	0.000169
323.11	0.2172	0.004369	0.00017
323.11	0.2172	0.004369	0.00017
323.44	0.3713	0.003928	0.00017
323.44	0.3713	0.003937	0.00017
323.49	0.7362	0.00334	0.000169
323.49	0.7362	0.003344	0.000169
323.69	0.5916	0.003425	0.000169
323.69	0.5916	0.003429	0.000169
325.33	0.2166	0.004076	0.00017
325.33	0.2166	0.004076	0.00017
325.43	0.3704	0.003706	0.000169
325.43	0.3704	0.003701	0.000169
325.54	0.7352	0.003098	0.000169
325.54	0.7352	0.003098	0.000169
325.56	0.5907	0.003217	0.000169
325.56	0.5907	0.003225	0.000169
327.18	0.3697	0.003456	0.000169
327.18	0.3697	0.003465	0.000169
327.26	0.2161	0.003895	0.00017
327.26	0.2161	0.003904	0.00017
327.4	0.7343	0.002868	0.000169
327.4	0.7343	0.002868	0.000169
327.99	0.5893	0.002948	0.000169
327.99	0.5893	0.002944	0.000169
329.24	0.3687	0.00318	0.000169
329.24	0.3687	0.003176	0.000169
329.46	0.2155	0.003617	0.000169
329.46	0.2155	0.003608	0.000169
329.5	0.5884	0.002737	0.000168
329.5	0.5884	0.002729	0.000168
329.68	0.7331	0.002547	0.000168
329.68	0.7331	0.002558	0.000168
331.37	0.215	0.003372	0.000169
331.37	0.215	0.003364	0.000169
331.5	0.3677	0.002924	0.000169
331.5	0.3677	0.002924	0.000169
331.7	0.5872	0.002478	0.000168
331.7	0.5872	0.00247	0.000168
331.97	0.7318	0.002258	0.000168
331.97	0.7318	0.002261	0.000168
333.49	0.731	0.002083	0.000168
333.49	0.731	0.00209	0.000168
333.53	0.2144	0.003069	0.000169
333.53	0.2144	0.003065	0.000169
