Measured thermophysical data. Densities, Viscosities, and Refractive Indices of New Mixtures of Poly(ethylene glycols) + Dialkyl Carbonates at 313.15 K
Source: J. Chem. Eng. Data, 2004, 10.1021/je034159d
Compound 1: dimethyl carbonate, C3H6O3, InChI=1S/C3H6O3/c1-5-3(4)6-2/h1-2H3, purity 99%
Compound 2: diethyl carbonate, C5H10O3, InChI=1S/C5H10O3/c1-3-7-5(6)8-4-2/h3-4H2,1-2H3, purity 99%

System: dimethyl carbonate; phases: Liquid
Property: Mass density, kg/m3 (Liquid); method: Vibrating tube method
Temperature, K	Pressure, kPa	Mass density, kg/m3	uncertainty
313.15	101.325	1043.19	0.08

System: dimethyl carbonate; phases: Liquid
Property: Refractive index (Na D-line) (Liquid); method: REFRACT
Temperature, K	Pressure, kPa	Refractive index (Na D-line)	uncertainty
313.15	101.325	1.359	0.0001

System: diethyl carbonate; phases: Liquid
Property: Mass density, kg/m3 (Liquid); method: Vibrating tube method
Temperature, K	Pressure, kPa	Mass density, kg/m3	uncertainty
313.15	101.325	952.43	0.08

System: diethyl carbonate; phases: Liquid
Property: Refractive index (Na D-line) (Liquid); method: REFRACT
Temperature, K	Pressure, kPa	Refractive index (Na D-line)	uncertainty
313.15	101.325	1.3754	0.0001
