Measured thermophysical data. Activity of Water in Aqueous Solutions of Sodium Citrate and in Aqueous Solutions of (An Inorganic Salt and Citric Acid) at 298.15 K
Source: J. Chem. Eng. Data, 2004, 10.1021/je034258r
Compound 1: 2-hydroxy-1,2,3-propanetricarboxylic acid monohydrate, C6H10O8, InChI=1S/C6H8O7.H2O/c7-3(8)1-6(13,5(11)12)2-4(9)10;/h13H,1-2H2,(H,7,8)(H,9,10)(H,11,12);1H2
Compound 2: sodium nitrate, NNaO3, InChI=1S/NO3.Na/c2-1(3)4;/q-1;+1
Compound 3: sodium chloride, ClNa, InChI=1S/ClH.Na/h1H;/q;+1/p-1
Compound 4: sodium sulfate, Na2O4S, InChI=1S/2Na.H2O4S/c;;1-5(2,3)4/h;;(H2,1,2,3,4)/q2*+1;/p-2
Compound 5: trisodium citrate, C6H5Na3O7, InChI=1S/C6H8O7.3Na/c7-3(8)1-6(13,5(11)12)2-4(9)10;;;/h13H,1-2H2,(H,7,8)(H,9,10)(H,11,12);;;/q;3*+1/p-3
Compound 6: water, H2O, InChI=1S/H2O/h1H2

System: trisodium citrate + water; phases: Liquid
Fixed: Temperature, K = 298.15
Fixed: Pressure, kPa = 101.3
Property: (Relative) activity of water (Liquid); method: OTHER
Molality, mol/kg of trisodium citrate	(Relative) activity of water	uncertainty
0.465	0.9785	0.001
0.758	0.9648	0.001
0.804	0.9627	0.001
1.018	0.952	0.001
1.136	0.9457	0.001
1.137	0.9456	0.001
1.185	0.9425	0.001
1.298	0.937	0.001
1.457	0.9277	0.001
1.605	0.919	0.0011
1.683	0.9142	0.0011

System: 2-hydroxy-1,2,3-propanetricarboxylic acid monohydrate + sodium chloride + water; phases: Liquid
Fixed: Temperature, K = 298.15
Fixed: Pressure, kPa = 101.3
Property: (Relative) activity of water (Liquid); method: OTHER
Molality, mol/kg of sodium chloride	Molality, mol/kg of 2-hydroxy-1,2,3-propanetricarboxylic acid monohydrate	(Relative) activity of water	uncertainty
0.498	0.103	0.9821	0.0011
0.498	0.973	0.9633	0.001
0.498	3.486	0.907	0.0011
0.498	4.489	0.8811	0.0011
0.499	0.301	0.9779	0.001
0.499	0.502	0.975	0.001
0.499	2.993	0.9188	0.001
0.499	3.58	0.903	0.0011
0.5	5.034	0.8639	0.0011
0.501	5.517	0.8503	0.0011
0.502	4.009	0.8921	0.0011
0.503	1.562	0.9498	0.001
0.503	2.514	0.9303	0.001
0.506	0.101	0.9804	0.0011
0.97	2.918	0.903	0.001
0.986	4.939	0.8503	0.0011
0.987	2.171	0.9206	0.001
0.988	0.493	0.9571	0.001
0.988	2.471	0.9137	0.001
0.995	1.492	0.9365	0.001
0.995	3.483	0.8895	0.0011
0.997	2.506	0.9125	0.001
0.997	4.737	0.855	0.0011
0.999	5.647	0.8286	0.0012
1.944	2.907	0.8689	0.0011
1.946	1.945	0.8921	0.0011
1.946	3.41	0.855	0.0011
1.974	2.469	0.8773	0.0011
1.981	3.964	0.8409	0.0011
1.981	4.447	0.8286	0.0011
1.985	1.503	0.9017	0.001
2.001	0.5	0.9206	0.001
2.924	2.955	0.829	0.0011
2.931	1.954	0.8513	0.0011
2.939	2.45	0.8409	0.0011
2.975	1.393	0.8639	0.0011
2.984	0.675	0.8811	0.0011

System: 2-hydroxy-1,2,3-propanetricarboxylic acid monohydrate + sodium nitrate + water; phases: Liquid
Fixed: Temperature, K = 298.15
Fixed: Pressure, kPa = 101.3
Property: (Relative) activity of water (Liquid); method: OTHER
Molality, mol/kg of sodium nitrate	Molality, mol/kg of 2-hydroxy-1,2,3-propanetricarboxylic acid monohydrate	(Relative) activity of water	uncertainty
0.194	1.742	0.9592	0.001
0.296	1.599	0.9592	0.001
0.379	1.507	0.9592	0.001
0.447	1.389	0.9592	0.001
0.506	3.861	0.8984	0.0011
0.519	2.663	0.9287	0.001
0.542	1.25	0.9592	0.001
0.602	2.56	0.9287	0.001
0.62	1.134	0.9592	0.001
0.711	3.638	0.8984	0.0011
0.719	2.419	0.9287	0.001
0.782	0.892	0.9592	0.001
0.84	0.807	0.9592	0.001
0.903	3.42	0.8984	0.001
0.907	0.706	0.9592	0.001
0.928	2.155	0.9287	0.001
1.001	0.561	0.9592	0.001
1.105	0.399	0.9592	0.001
1.107	3.203	0.8984	0.001
1.136	1.884	0.9287	0.001
1.203	0.247	0.9592	0.001
1.226	1.768	0.9287	0.001
1.312	2.975	0.8984	0.001
1.335	1.623	0.9287	0.001
1.41	1.521	0.9287	0.001
1.5	2.758	0.8984	0.001
1.631	1.221	0.9287	0.001
1.815	0.962	0.9287	0.001
1.915	2.261	0.8984	0.001
2.03	0.658	0.9287	0.001
2.094	2.043	0.8984	0.001
2.29	1.796	0.8984	0.001
2.48	1.552	0.8984	0.001
2.715	1.257	0.8984	0.001
2.906	1.005	0.8984	0.001

System: trisodium citrate + 2-hydroxy-1,2,3-propanetricarboxylic acid monohydrate + water; phases: Liquid
Fixed: Temperature, K = 298.15
Fixed: Pressure, kPa = 101.3
Property: (Relative) activity of water (Liquid); method: OTHER
Molality, mol/kg of trisodium citrate	Molality, mol/kg of 2-hydroxy-1,2,3-propanetricarboxylic acid monohydrate	(Relative) activity of water	uncertainty
0.032	1.052	0.9785	0.001
0.049	3.093	0.9326	0.0011
0.049	3.643	0.919	0.001
0.05	3.075	0.9332	0.0011
0.051	2.048	0.9571	0.001
0.063	0.986	0.9785	0.001
0.1	0.9	0.9785	0.001
0.101	2.501	0.9457	0.001
0.101	3.609	0.919	0.001
0.108	3.021	0.9332	0.0011
0.111	3.038	0.9326	0.0011
0.13	0.826	0.9785	0.001
0.13	1.315	0.9696	0.001
0.132	1.844	0.9591	0.001
0.134	1.345	0.9686	0.001
0.137	1.922	0.9571	0.001
0.153	3.567	0.919	0.001
0.162	0.743	0.9785	0.001
0.162	2.988	0.9326	0.001
0.164	2.961	0.9332	0.001
0.171	2.961	0.9332	0.001
0.197	0.652	0.9785	0.001
0.2	2.375	0.9457	0.001
0.202	3.528	0.919	0.001
0.226	0.571	0.9785	0.001
0.234	2.893	0.9332	0.001
0.237	1.081	0.9696	0.001
0.239	2.91	0.9326	0.001
0.245	1.105	0.9686	0.001
0.252	1.634	0.9591	0.001
0.261	0.481	0.9785	0.001
0.264	1.708	0.9571	0.001
0.264	2.901	0.9322	0.001
0.264	3.476	0.919	0.001
0.293	2.823	0.9332	0.001
0.297	0.386	0.9785	0.001
0.298	2.24	0.9457	0.001
0.301	2.837	0.9326	0.001
0.31	3.435	0.919	0.001
0.325	0.867	0.9696	0.001
0.327	0.307	0.9785	0.001
0.331	0.895	0.9686	0.001
0.345	2.761	0.9332	0.001
0.354	2.774	0.9326	0.001
0.356	1.424	0.9591	0.001
0.373	3.371	0.919	0.001
0.376	1.488	0.9571	0.001
0.392	0.689	0.9696	0.001
0.396	0.14	0.9785	0.001
0.402	0.711	0.9686	0.001
0.404	2.07	0.9457	0.001
0.441	2.641	0.9332	0.001
0.443	2.66	0.9326	0.001
0.445	1.224	0.9591	0.001
0.448	0.536	0.9696	0.001
0.462	0.551	0.9686	0.001
0.462	3.287	0.919	0.001
0.466	1.291	0.9571	0.001
0.484	0.443	0.9696	0.001
0.497	0.455	0.9686	0.001
0.516	2.581	0.9322	0.001
0.518	1.038	0.9591	0.001
0.519	0.347	0.9696	0.001
0.554	0.256	0.9696	0.001
0.581	0.872	0.9591	0.001
0.59	0.166	0.9696	0.001
0.606	0.173	0.9686	0.001
0.613	0.919	0.9571	0.001
0.626	0.08	0.9696	0.001
0.632	0.731	0.9591	0.001
0.644	0.083	0.9686	0.001
0.667	0.768	0.9571	0.001
0.678	0.594	0.9591	0.001
0.715	0.484	0.9591	0.001
0.715	0.62	0.9571	0.001
0.752	0.374	0.9591	0.001
0.755	0.506	0.9571	0.001
0.782	0.284	0.9591	0.001
0.794	0.389	0.9571	0.001
0.822	0.296	0.9571	0.001
0.856	0.2	0.9571	0.001
0.933	0.757	0.9457	0.001
0.977	0.613	0.9457	0.001
1.061	0.289	0.9457	0.001
1.191	0.845	0.9326	0.001
1.197	0.855	0.9322	0.001
1.246	0.625	0.9326	0.001
1.247	0.623	0.9322	0.001
1.288	0.427	0.9326	0.001
1.296	0.432	0.9322	0.001
1.321	0.265	0.9326	0.001
1.33	0.266	0.9322	0.001
1.353	0.12	0.9326	0.001
1.36	0.124	0.9322	0.001
1.455	0.895	0.919	0.001
1.494	0.695	0.919	0.001
1.531	0.47	0.919	0.001
1.547	0.891	0.9142	0.001
1.57	0.76	0.9142	0.001
1.578	0.183	0.919	0.0011
1.59	0.628	0.9142	0.0011
1.607	0.526	0.9142	0.0011
1.624	0.407	0.9142	0.0011
1.642	0.299	0.9142	0.0011
1.655	0.197	0.9142	0.0011
1.67	0.096	0.9142	0.0011

System: 2-hydroxy-1,2,3-propanetricarboxylic acid monohydrate + water + sodium sulfate; phases: Liquid
Fixed: Temperature, K = 298.15
Fixed: Pressure, kPa = 101.3
Property: (Relative) activity of water (Liquid); method: OTHER
Molality, mol/kg of sodium sulfate	Molality, mol/kg of 2-hydroxy-1,2,3-propanetricarboxylic acid monohydrate	(Relative) activity of water	uncertainty
0.213	1.677	0.9589	0.001
0.311	1.514	0.9589	0.001
0.41	1.357	0.9589	0.001
0.517	1.175	0.9589	0.001
0.542	2.655	0.9265	0.001
0.609	1.024	0.9589	0.001
0.641	2.506	0.9265	0.001
0.682	3.541	0.9004	0.001
0.726	0.821	0.9589	0.001
0.736	2.374	0.9265	0.001
0.816	0.662	0.9589	0.001
0.85	2.219	0.9265	0.001
0.916	0.492	0.9589	0.001
0.936	3.219	0.9004	0.001
1.001	0.348	0.9589	0.001
1.044	1.915	0.9265	0.001
1.095	0.199	0.9589	0.001
1.224	1.625	0.9265	0.001
1.234	2.804	0.9004	0.001
1.319	1.472	0.9265	0.001
1.41	1.317	0.9265	0.001
1.487	2.423	0.9004	0.001
1.574	1.039	0.9265	0.001
1.666	2.141	0.9004	0.001
1.754	0.731	0.9265	0.001
1.841	0.585	0.9265	0.001
1.901	1.736	0.9004	0.001
1.934	0.436	0.9265	0.001
2.027	0.293	0.9265	0.001
2.06	1.455	0.9004	0.001
2.201	1.198	0.9004	0.001
2.346	0.933	0.9004	0.001
2.48	0.698	0.9004	0.0011
