Measured thermophysical data. Density, Viscosity, Refractive Index, and Speed of Sound in the Binary Mixtures of 1,4-Dioxane + Ethanediol, + Hexane, + Tributylamine, or + Triethylamine at (298.15, 303.15, and 308.15) K
Source: J. Chem. Eng. Data, 2003, 10.1021/je030107c
Compound 1: 1,4-dioxane, C4H8O2, InChI=1S/C4H8O2/c1-2-6-4-3-5-1/h1-4H2
Compound 2: 1,2-ethanediol, C2H6O2, InChI=1S/C2H6O2/c3-1-2-4/h3-4H,1-2H2
Compound 3: hexane, C6H14, InChI=1S/C6H14/c1-3-5-6-4-2/h3-6H2,1-2H3
Compound 4: tributylamine, C12H27N, InChI=1S/C12H27N/c1-4-7-10-13(11-8-5-2)12-9-6-3/h4-12H2,1-3H3
Compound 5: triethylamine, C6H15N, InChI=1S/C6H15N/c1-4-7(5-2)6-3/h4-6H2,1-3H3

System: 1,4-dioxane; phases: Liquid
Fixed: Pressure, kPa = 101.325
Property: Refractive index (Na D-line) (Liquid); method: Standard Abbe refractometry
Temperature, K	Refractive index (Na D-line)	uncertainty
298.15	1.4201	0.0011
303.15	1.417	0.0011
308.15	1.4143	0.0011

System: 1,4-dioxane; phases: Liquid
Fixed: Pressure, kPa = 101.3
Property: Viscosity, Pa*s (Liquid); method: Capillary tube (Ostwald; Ubbelohde) method
Temperature, K	Viscosity, Pa*s	uncertainty
298.15	0.001166	9e-06
303.15	0.001069	8e-06
308.15	0.000984	8e-06

System: 1,4-dioxane; phases: Liquid
Fixed: Pressure, kPa = 101.3
Fixed: Temperature, K = 298.15
Property: Speed of sound, m/s (Liquid); method: Linear variable-path acoustic interferometer
Speed of sound, m/s	uncertainty
1347	3
1343	3

System: 1,4-dioxane; phases: Liquid
Fixed: Pressure, kPa = 101.3
Property: Mass density, kg/m3 (Liquid); method: Pycnometric method
Temperature, K	Mass density, kg/m3	uncertainty
298.15	1027.6	0.6
303.15	1021.9	0.6
308.15	1016.2	0.6

System: 1,2-ethanediol; phases: Liquid
Fixed: Pressure, kPa = 101.325
Property: Refractive index (Na D-line) (Liquid); method: Standard Abbe refractometry
Temperature, K	Refractive index (Na D-line)	uncertainty
298.15	1.4307	0.0011
303.15	1.4269	0.0011
308.15	1.4246	0.0011

System: 1,2-ethanediol; phases: Liquid
Fixed: Pressure, kPa = 101.3
Property: Viscosity, Pa*s (Liquid); method: Capillary tube (Ostwald; Ubbelohde) method
Temperature, K	Viscosity, Pa*s	uncertainty
298.15	0.01262	9e-05
303.15	0.009618	6.6e-05
308.15	0.007539	5.3e-05

System: 1,2-ethanediol; phases: Liquid
Property: Speed of sound, m/s (Liquid); method: Linear variable-path acoustic interferometer
Pressure, kPa	Temperature, K	Speed of sound, m/s	uncertainty
101.3	298.15	1659	3

System: 1,2-ethanediol; phases: Liquid
Fixed: Pressure, kPa = 101.3
Property: Mass density, kg/m3 (Liquid); method: Pycnometric method
Temperature, K	Mass density, kg/m3	uncertainty
298.15	1111.3	0.6
303.15	1107.3	0.6
308.15	1103.5	0.6

System: hexane; phases: Liquid
Fixed: Pressure, kPa = 101.325
Property: Refractive index (Na D-line) (Liquid); method: Standard Abbe refractometry
Temperature, K	Refractive index (Na D-line)	uncertainty
298.15	1.3728	0.0011
303.15	1.3698	0.0011
308.15	1.367	0.0011

System: hexane; phases: Liquid
Fixed: Pressure, kPa = 101.3
Property: Viscosity, Pa*s (Liquid); method: Capillary tube (Ostwald; Ubbelohde) method
Temperature, K	Viscosity, Pa*s	uncertainty
298.15	0.000315	3e-06
303.15	0.000299	3e-06
308.15	0.000286	3e-06

System: hexane; phases: Liquid
Property: Speed of sound, m/s (Liquid); method: Linear variable-path acoustic interferometer
Pressure, kPa	Temperature, K	Speed of sound, m/s	uncertainty
101.3	298.15	1083	3

System: hexane; phases: Liquid
Fixed: Pressure, kPa = 101.3
Property: Mass density, kg/m3 (Liquid); method: Pycnometric method
Temperature, K	Mass density, kg/m3	uncertainty
298.15	654.8	0.4
303.15	649.7	0.4
308.15	644.8	0.4

System: tributylamine; phases: Liquid
Fixed: Pressure, kPa = 101.325
Property: Refractive index (Na D-line) (Liquid); method: Standard Abbe refractometry
Temperature, K	Refractive index (Na D-line)	uncertainty
298.15	1.4274	0.0011
303.15	1.4251	0.0011
308.15	1.4226	0.0011

System: tributylamine; phases: Liquid
Fixed: Pressure, kPa = 101.3
Property: Viscosity, Pa*s (Liquid); method: Capillary tube (Ostwald; Ubbelohde) method
Temperature, K	Viscosity, Pa*s	uncertainty
298.15	0.00136	1.1e-05
303.15	0.001221	1e-05
308.15	0.001125	9e-06

System: tributylamine; phases: Liquid
Property: Speed of sound, m/s (Liquid); method: Linear variable-path acoustic interferometer
Pressure, kPa	Temperature, K	Speed of sound, m/s	uncertainty
101.3	298.15	1261	3

System: tributylamine; phases: Liquid
Fixed: Pressure, kPa = 101.3
Property: Mass density, kg/m3 (Liquid); method: Pycnometric method
Temperature, K	Mass density, kg/m3	uncertainty
298.15	774.4	0.4
303.15	770.1	0.4
308.15	766.2	0.4

System: triethylamine; phases: Liquid
Fixed: Pressure, kPa = 101.325
Property: Refractive index (Na D-line) (Liquid); method: Standard Abbe refractometry
Temperature, K	Refractive index (Na D-line)	uncertainty
298.15	1.3983	0.001
303.15	1.3955	0.001
308.15	1.3926	0.001

System: triethylamine; phases: Liquid
Fixed: Pressure, kPa = 101.3
Property: Viscosity, Pa*s (Liquid); method: Capillary tube (Ostwald; Ubbelohde) method
Temperature, K	Viscosity, Pa*s	uncertainty
298.15	0.000363	3e-06
303.15	0.000347	3e-06
308.15	0.00033	3e-06

System: triethylamine; phases: Liquid
Property: Speed of sound, m/s (Liquid); method: Linear variable-path acoustic interferometer
Pressure, kPa	Temperature, K	Speed of sound, m/s	uncertainty
101.3	298.15	1127	2

System: triethylamine; phases: Liquid
Fixed: Pressure, kPa = 101.3
Property: Mass density, kg/m3 (Liquid); method: Pycnometric method
Temperature, K	Mass density, kg/m3	uncertainty
298.15	723.1	0.2
303.15	718.5	0.3
308.15	713.6	0.3

System: 1,2-ethanediol + 1,4-dioxane; phases: Liquid
Fixed: Pressure, kPa = 101.3
Fixed: Temperature, K = 298.15
Property: Speed of sound, m/s (Liquid); method: Linear variable-path acoustic interferometer
Mole fraction of 1,4-dioxane	Speed of sound, m/s	uncertainty
0	1659	3
0.1031	1620	3
0.2072	1577	3
0.3021	1537	3
0.4246	1485	3
0.5042	1456	3
0.5986	1426	3
0.6914	1400	3
0.7906	1381	3
0.8909	1369	3
1	1347	3

System: 1,2-ethanediol + 1,4-dioxane; phases: Liquid
Fixed: Pressure, kPa = 101.3
Property: Viscosity, Pa*s (Liquid); method: Capillary tube (Ostwald; Ubbelohde) method
Temperature, K	Mole fraction of 1,4-dioxane	Viscosity, Pa*s	uncertainty
298.15	0	0.01262	9e-05
298.15	0.1031	0.009007	6.2e-05
298.15	0.2072	0.006285	4.5e-05
298.15	0.3021	0.004654	3.5e-05
298.15	0.4246	0.003177	2.4e-05
298.15	0.5042	0.002566	1.9e-05
298.15	0.5986	0.002012	1.5e-05
298.15	0.6914	0.001663	1.3e-05
298.15	0.7906	0.001388	1.1e-05
298.15	0.8909	0.001212	1e-05
298.15	1	0.001166	9e-06
303.15	0	0.009618	6.6e-05
303.15	0.1031	0.007262	5.1e-05
303.15	0.2072	0.005149	3.8e-05
303.15	0.3021	0.003849	2.9e-05
303.15	0.4246	0.00268	2e-05
303.15	0.5042	0.002184	1.7e-05
303.15	0.5986	0.001728	1.3e-05
303.15	0.6914	0.001447	1.1e-05
303.15	0.7906	0.001226	1e-05
303.15	0.8909	0.001081	9e-06
303.15	1	0.001069	8e-06
308.15	0	0.007539	5.3e-05
308.15	0.1031	0.005518	4e-05
308.15	0.2072	0.004013	3e-05
308.15	0.3021	0.003044	2.3e-05
308.15	0.4246	0.002181	1.7e-05
308.15	0.5042	0.001802	1.4e-05
308.15	0.5986	0.001444	1.1e-05
308.15	0.6914	0.001229	1e-05
308.15	0.7906	0.001063	8e-06
308.15	0.8909	0.000949	8e-06
308.15	1	0.000984	8e-06

System: 1,2-ethanediol + 1,4-dioxane; phases: Liquid
Fixed: Pressure, kPa = 101.3
Property: Refractive index (Na D-line) (Liquid); method: Standard Abbe refractometry
Temperature, K	Mole fraction of 1,4-dioxane	Refractive index (Na D-line)	uncertainty
298.15	0	1.4307	0.0011
298.15	0.1031	1.4294	0.0011
298.15	0.2072	1.4284	0.0011
298.15	0.3021	1.4275	0.0011
298.15	0.4246	1.426	0.0011
298.15	0.5042	1.4248	0.0011
298.15	0.5986	1.4238	0.0011
298.15	0.6914	1.423	0.0011
298.15	0.7906	1.422	0.0011
298.15	0.8909	1.421	0.0011
298.15	1	1.4201	0.0011
303.15	0	1.4269	0.0011
303.15	0.1031	1.4279	0.0011
303.15	0.2072	1.4268	0.0011
303.15	0.3021	1.4256	0.0011
303.15	0.4246	1.424	0.0011
303.15	0.5042	1.4226	0.0011
303.15	0.5986	1.4216	0.0011
303.15	0.6914	1.4207	0.0011
303.15	0.7906	1.4196	0.0011
303.15	0.8909	1.4187	0.0011
303.15	1	1.417	0.0011
308.15	0	1.4246	0.0011
308.15	0.1031	1.4262	0.0011
308.15	0.2072	1.425	0.0011
308.15	0.3021	1.4236	0.0011
308.15	0.4246	1.4219	0.0011
308.15	0.5042	1.4204	0.0011
308.15	0.5986	1.4193	0.0011
308.15	0.6914	1.4186	0.0011
308.15	0.7906	1.4172	0.0011
308.15	0.8909	1.4163	0.0011
308.15	1	1.4143	0.0011

System: 1,2-ethanediol + 1,4-dioxane; phases: Liquid
Fixed: Pressure, kPa = 101.3
Property: Mass density, kg/m3 (Liquid); method: Pycnometric method
Temperature, K	Mole fraction of 1,4-dioxane	Mass density, kg/m3	uncertainty
298.15	0	1111.3	0.6
298.15	0.1031	1100.6	0.6
298.15	0.2072	1090.6	0.6
298.15	0.3021	1082	0.6
298.15	0.4246	1071.1	0.6
298.15	0.5042	1064.5	0.6
298.15	0.5986	1056.8	0.6
298.15	0.6914	1049.6	0.6
298.15	0.7906	1042.4	0.6
298.15	0.8909	1035.2	0.6
298.15	1	1027.6	0.6
303.15	0	1107.3	0.6
303.15	0.1031	1096.6	0.6
303.15	0.2072	1086.4	0.6
303.15	0.3021	1077.6	0.6
303.15	0.4246	1066.5	0.6
303.15	0.5042	1059.7	0.6
303.15	0.5986	1051.7	0.6
303.15	0.6914	1044.5	0.6
303.15	0.7906	1037.1	0.6
303.15	0.8909	1029.9	0.6
303.15	1	1021.9	0.6
308.15	0	1103.5	0.6
308.15	0.1031	1092.8	0.6
308.15	0.2072	1082.4	0.6
308.15	0.3021	1073.1	0.6
308.15	0.4246	1061.7	0.6
308.15	0.5042	1054.7	0.6
308.15	0.5986	1046.8	0.6
308.15	0.6914	1039.5	0.6
308.15	0.7906	1031.8	0.6
308.15	0.8909	1024.5	0.6
308.15	1	1016.2	0.6

System: hexane + 1,4-dioxane; phases: Liquid
Fixed: Pressure, kPa = 101.3
Fixed: Temperature, K = 298.15
Property: Speed of sound, m/s (Liquid); method: Linear variable-path acoustic interferometer
Mole fraction of 1,4-dioxane	Speed of sound, m/s	uncertainty
0	1083	3
0.1135	1087	3
0.2057	1099	3
0.3099	1116	3
0.4032	1132	3
0.501	1154	3
0.6028	1185	3
0.7006	1220	3
0.7991	1257	3
0.8962	1303	3
1	1347	3

System: hexane + 1,4-dioxane; phases: Liquid
Fixed: Pressure, kPa = 101.3
Property: Viscosity, Pa*s (Liquid); method: Capillary tube (Ostwald; Ubbelohde) method
Temperature, K	Mole fraction of 1,4-dioxane	Viscosity, Pa*s	uncertainty
298.15	0	0.000315	3e-06
298.15	0.1135	0.000333	3e-06
298.15	0.2057	0.000357	3e-06
298.15	0.3099	0.000391	4e-06
298.15	0.4032	0.000429	4e-06
298.15	0.501	0.000482	4e-06
298.15	0.6028	0.000549	5e-06
298.15	0.7006	0.000634	5e-06
298.15	0.7991	0.000753	6e-06
298.15	0.8962	0.000912	7e-06
298.15	1	0.001166	9e-06
303.15	0	0.000299	3e-06
303.15	0.1135	0.000319	3e-06
303.15	0.2057	0.00034	3e-06
303.15	0.3099	0.000372	3e-06
303.15	0.4032	0.000408	4e-06
303.15	0.501	0.000455	4e-06
303.15	0.6028	0.000517	4e-06
303.15	0.7006	0.000596	5e-06
303.15	0.7991	0.000705	6e-06
303.15	0.8962	0.000849	7e-06
303.15	1	0.001069	8e-06
308.15	0	0.000286	3e-06
308.15	0.1135	0.000304	3e-06
308.15	0.2057	0.000323	3e-06
308.15	0.3099	0.000353	3e-06
308.15	0.4032	0.000386	3e-06
308.15	0.501	0.000429	4e-06
308.15	0.6028	0.000485	4e-06
308.15	0.7006	0.000557	5e-06
308.15	0.7991	0.000656	5e-06
308.15	0.8962	0.000787	6e-06
308.15	1	0.000984	8e-06

System: hexane + 1,4-dioxane; phases: Liquid
Fixed: Pressure, kPa = 101.3
Property: Refractive index (Na D-line) (Liquid); method: Standard Abbe refractometry
Temperature, K	Mole fraction of 1,4-dioxane	Refractive index (Na D-line)	uncertainty
298.15	0	1.3728	0.0011
298.15	0.1135	1.3758	0.0011
298.15	0.2057	1.3787	0.0011
298.15	0.3099	1.3824	0.0011
298.15	0.4032	1.3864	0.0011
298.15	0.501	1.3906	0.0011
298.15	0.6028	1.3954	0.0011
298.15	0.7006	1.4014	0.0011
298.15	0.7991	1.4078	0.0011
298.15	0.8962	1.414	0.0011
298.15	1	1.4201	0.0011
303.15	0	1.3698	0.0011
303.15	0.1135	1.3728	0.0011
303.15	0.2057	1.3756	0.0011
303.15	0.3099	1.3795	0.0011
303.15	0.4032	1.3838	0.0011
303.15	0.501	1.3878	0.0011
303.15	0.6028	1.3928	0.0011
303.15	0.7006	1.3986	0.0011
303.15	0.7991	1.4048	0.0011
303.15	0.8962	1.4119	0.0011
303.15	1	1.417	0.0011
308.15	0	1.367	0.0011
308.15	0.1135	1.37	0.0011
308.15	0.2057	1.3726	0.0011
308.15	0.3099	1.3767	0.0011
308.15	0.4032	1.3814	0.0011
308.15	0.501	1.385	0.0011
308.15	0.6028	1.3903	0.0011
308.15	0.7006	1.3959	0.0011
308.15	0.7991	1.4017	0.0011
308.15	0.8962	1.4098	0.0011
308.15	1	1.4143	0.0011

System: hexane + 1,4-dioxane; phases: Liquid
Fixed: Pressure, kPa = 101.3
Property: Mass density, kg/m3 (Liquid); method: Pycnometric method
Temperature, K	Mole fraction of 1,4-dioxane	Mass density, kg/m3	uncertainty
298.15	0	654.8	0.4
298.15	0.1135	682	0.4
298.15	0.2057	706.4	0.4
298.15	0.3099	736.2	0.4
298.15	0.4032	765.7	0.4
298.15	0.501	799.6	0.5
298.15	0.6028	838.1	0.5
298.15	0.7006	878.7	0.5
298.15	0.7991	924	0.5
298.15	0.8962	972.1	0.6
298.15	1	1027.6	0.6
303.15	0	649.7	0.4
303.15	0.1135	677.3	0.4
303.15	0.2057	701.4	0.4
303.15	0.3099	731.2	0.4
303.15	0.4032	760.5	0.4
303.15	0.501	794.3	0.5
303.15	0.6028	832.7	0.5
303.15	0.7006	873.3	0.5
303.15	0.7991	918.3	0.5
303.15	0.8962	966.4	0.6
303.15	1	1021.9	0.6
308.15	0	644.8	0.4
308.15	0.1135	672.5	0.4
308.15	0.2057	696.5	0.4
308.15	0.3099	726.1	0.4
308.15	0.4032	755.3	0.4
308.15	0.501	788.9	0.5
308.15	0.6028	827.2	0.5
308.15	0.7006	868	0.5
308.15	0.7991	912.4	0.5
308.15	0.8962	960.8	0.6
308.15	1	1016.2	0.6

System: tributylamine + 1,4-dioxane; phases: Liquid
Fixed: Pressure, kPa = 101.3
Fixed: Temperature, K = 298.15
Property: Speed of sound, m/s (Liquid); method: Linear variable-path acoustic interferometer
Mole fraction of 1,4-dioxane	Speed of sound, m/s	uncertainty
0	1261	3
0.1201	1253	3
0.2122	1254	3
0.3072	1257	3
0.4085	1264	3
0.5014	1272	3
0.5972	1281	3
0.6998	1292	3
0.7999	1305	3
0.8947	1320	3
1	1343	3

System: tributylamine + 1,4-dioxane; phases: Liquid
Fixed: Pressure, kPa = 101.3
Property: Viscosity, Pa*s (Liquid); method: Capillary tube (Ostwald; Ubbelohde) method
Temperature, K	Mole fraction of 1,4-dioxane	Viscosity, Pa*s	uncertainty
298.15	0	0.00136	1.1e-05
298.15	0.1201	0.001245	1e-05
298.15	0.2122	0.00119	9e-06
298.15	0.3072	0.001156	9e-06
298.15	0.4085	0.001137	9e-06
298.15	0.5014	0.001123	9e-06
298.15	0.5972	0.001118	9e-06
298.15	0.6998	0.001112	9e-06
298.15	0.7999	0.001114	9e-06
298.15	0.8947	0.001133	9e-06
298.15	1	0.001166	9e-06
303.15	0	0.001221	1e-05
303.15	0.1201	0.001142	9e-06
303.15	0.2122	0.001089	9e-06
303.15	0.3072	0.001059	8e-06
303.15	0.4085	0.001044	8e-06
303.15	0.5014	0.001032	8e-06
303.15	0.5972	0.001026	8e-06
303.15	0.6998	0.001022	8e-06
303.15	0.7999	0.001025	8e-06
303.15	0.8947	0.001042	8e-06
303.15	1	0.001069	8e-06
308.15	0	0.001125	9e-06
308.15	0.1201	0.001039	8e-06
308.15	0.2122	0.000989	8e-06
308.15	0.3072	0.000963	8e-06
308.15	0.4085	0.00095	8e-06
308.15	0.5014	0.00094	8e-06
308.15	0.5972	0.000934	7e-06
308.15	0.6998	0.000933	7e-06
308.15	0.7999	0.000936	7e-06
308.15	0.8947	0.000952	8e-06
308.15	1	0.000984	8e-06

System: tributylamine + 1,4-dioxane; phases: Liquid
Fixed: Pressure, kPa = 101.3
Property: Refractive index (Na D-line) (Liquid); method: Standard Abbe refractometry
Temperature, K	Mole fraction of 1,4-dioxane	Refractive index (Na D-line)	uncertainty
298.15	0	1.4274	0.0011
298.15	0.1201	1.4266	0.0011
298.15	0.2122	1.4259	0.0011
298.15	0.3072	1.425	0.0011
298.15	0.4085	1.4244	0.0011
298.15	0.5014	1.4234	0.0011
298.15	0.5972	1.4226	0.0011
298.15	0.6998	1.4217	0.0011
298.15	0.7999	1.421	0.0011
298.15	0.8947	1.4205	0.0011
298.15	1	1.4201	0.0011
303.15	0	1.4251	0.0011
303.15	0.1201	1.424	0.0011
303.15	0.2122	1.4236	0.0011
303.15	0.3072	1.4226	0.0011
303.15	0.4085	1.4218	0.0011
303.15	0.5014	1.4209	0.0011
303.15	0.5972	1.4201	0.0011
303.15	0.6998	1.4192	0.0011
303.15	0.7999	1.4185	0.0011
303.15	0.8947	1.418	0.0011
303.15	1	1.417	0.0011
308.15	0	1.4226	0.0011
308.15	0.1201	1.4215	0.0011
308.15	0.2122	1.421	0.0011
308.15	0.3072	1.4201	0.0011
308.15	0.4085	1.4196	0.0011
308.15	0.5014	1.4184	0.0011
308.15	0.5972	1.4174	0.0011
308.15	0.6998	1.4168	0.0011
308.15	0.7999	1.416	0.0011
308.15	0.8947	1.4154	0.0011
308.15	1	1.4143	0.0011

System: tributylamine + 1,4-dioxane; phases: Liquid
Fixed: Pressure, kPa = 101.3
Property: Mass density, kg/m3 (Liquid); method: Pycnometric method
Temperature, K	Mole fraction of 1,4-dioxane	Mass density, kg/m3	uncertainty
298.15	0	774.4	0.4
298.15	0.1201	785.1	0.4
298.15	0.2122	794.7	0.4
298.15	0.3072	806	0.5
298.15	0.4085	820.5	0.5
298.15	0.5014	836.6	0.5
298.15	0.5972	856.9	0.5
298.15	0.6998	884	0.5
298.15	0.7999	917.9	0.5
298.15	0.8947	960.6	0.6
298.15	1	1027.6	0.6
303.15	0	770.1	0.4
303.15	0.1201	780.9	0.4
303.15	0.2122	790.2	0.4
303.15	0.3072	801.6	0.5
303.15	0.4085	815.9	0.5
303.15	0.5014	832.1	0.5
303.15	0.5972	852.1	0.5
303.15	0.6998	879.2	0.5
303.15	0.7999	912.6	0.5
303.15	0.8947	955.2	0.6
303.15	1	1021.9	0.6
308.15	0	766.2	0.4
308.15	0.1201	776.8	0.4
308.15	0.2122	785.9	0.4
308.15	0.3072	797.1	0.5
308.15	0.4085	811.4	0.5
308.15	0.5014	827.5	0.5
308.15	0.5972	847.4	0.5
308.15	0.6998	874.1	0.5
308.15	0.7999	907.4	0.5
308.15	0.8947	949.9	0.6
308.15	1	1016.2	0.6

System: triethylamine + 1,4-dioxane; phases: Liquid
Fixed: Pressure, kPa = 101.3
Fixed: Temperature, K = 298.15
Property: Speed of sound, m/s (Liquid); method: Linear variable-path acoustic interferometer
Mole fraction of 1,4-dioxane	Speed of sound, m/s	uncertainty
0	1127	2
0.1104	1139	2
0.2044	1155	2
0.3028	1172	2
0.398	1189	2
0.4946	1210	3
0.5986	1234	3
0.6952	1260	3
0.7996	1290	3
0.8934	1318	3
1	1343	3

System: triethylamine + 1,4-dioxane; phases: Liquid
Fixed: Pressure, kPa = 101.3
Property: Viscosity, Pa*s (Liquid); method: Capillary tube (Ostwald; Ubbelohde) method
Temperature, K	Mole fraction of 1,4-dioxane	Viscosity, Pa*s	uncertainty
298.15	0	0.000363	3e-06
298.15	0.1104	0.000392	3e-06
298.15	0.2044	0.000418	3e-06
298.15	0.3028	0.000451	4e-06
298.15	0.398	0.000494	4e-06
298.15	0.4946	0.000542	4e-06
298.15	0.5986	0.000613	5e-06
298.15	0.6952	0.000697	5e-06
298.15	0.7996	0.000815	6e-06
298.15	0.8934	0.000958	8e-06
298.15	1	0.001166	9e-06
303.15	0	0.000347	3e-06
303.15	0.1104	0.000372	3e-06
303.15	0.2044	0.000397	3e-06
303.15	0.3028	0.000428	3e-06
303.15	0.398	0.000466	4e-06
303.15	0.4946	0.000512	4e-06
303.15	0.5986	0.000575	5e-06
303.15	0.6952	0.000652	5e-06
303.15	0.7996	0.00076	6e-06
303.15	0.8934	0.000889	7e-06
303.15	1	0.001069	8e-06
308.15	0	0.00033	3e-06
308.15	0.1104	0.000353	3e-06
308.15	0.2044	0.000377	3e-06
308.15	0.3028	0.000404	3e-06
308.15	0.398	0.000438	4e-06
308.15	0.4946	0.000481	4e-06
308.15	0.5986	0.000538	4e-06
308.15	0.6952	0.000608	5e-06
308.15	0.7996	0.000705	6e-06
308.15	0.8934	0.000821	7e-06
308.15	1	0.000984	8e-06

System: triethylamine + 1,4-dioxane; phases: Liquid
Fixed: Pressure, kPa = 101.3
Property: Refractive index (Na D-line) (Liquid); method: Standard Abbe refractometry
Temperature, K	Mole fraction of 1,4-dioxane	Refractive index (Na D-line)	uncertainty
298.15	0	1.3983	0.001
298.15	0.1104	1.3996	0.001
298.15	0.2044	1.4014	0.001
298.15	0.3028	1.4032	0.001
298.15	0.398	1.4048	0.0011
298.15	0.4946	1.4068	0.0011
298.15	0.5986	1.4095	0.0011
298.15	0.6952	1.4117	0.0011
298.15	0.7996	1.4147	0.0011
298.15	0.8934	1.4176	0.0011
298.15	1	1.4201	0.0011
303.15	0	1.3955	0.001
303.15	0.1104	1.3969	0.001
303.15	0.2044	1.3985	0.001
303.15	0.3028	1.4002	0.001
303.15	0.398	1.402	0.0011
303.15	0.4946	1.404	0.0011
303.15	0.5986	1.4067	0.0011
303.15	0.6952	1.409	0.0011
303.15	0.7996	1.412	0.0011
303.15	0.8934	1.4148	0.0011
303.15	1	1.417	0.0011
308.15	0	1.3926	0.001
308.15	0.1104	1.3942	0.001
308.15	0.2044	1.3956	0.001
308.15	0.3028	1.3972	0.001
308.15	0.398	1.3994	0.0011
308.15	0.4946	1.4013	0.0011
308.15	0.5986	1.4041	0.0011
308.15	0.6952	1.4062	0.0011
308.15	0.7996	1.4093	0.0011
308.15	0.8934	1.4121	0.0011
308.15	1	1.4143	0.0011

System: triethylamine + 1,4-dioxane; phases: Liquid
Fixed: Pressure, kPa = 101.3
Property: Mass density, kg/m3 (Liquid); method: Pycnometric method
Temperature, K	Mole fraction of 1,4-dioxane	Mass density, kg/m3	uncertainty
298.15	0	723.1	0.2
298.15	0.1104	744.6	0.3
298.15	0.2044	764.5	0.3
298.15	0.3028	787.3	0.3
298.15	0.398	811.3	0.3
298.15	0.4946	838	0.4
298.15	0.5986	869.7	0.4
298.15	0.6952	902.3	0.5
298.15	0.7996	941.2	0.5
298.15	0.8934	979.8	0.5
298.15	1	1027.6	0.6
303.15	0	718.5	0.3
303.15	0.1104	739.7	0.3
303.15	0.2044	759.5	0.3
303.15	0.3028	782.2	0.3
303.15	0.398	806.1	0.4
303.15	0.4946	832.8	0.4
303.15	0.5986	864.3	0.4
303.15	0.6952	896.8	0.5
303.15	0.7996	935.6	0.5
303.15	0.8934	974.2	0.5
303.15	1	1021.9	0.6
308.15	0	713.6	0.3
308.15	0.1104	734.8	0.3
308.15	0.2044	754.6	0.3
308.15	0.3028	777.1	0.3
308.15	0.398	800.9	0.4
308.15	0.4946	827.5	0.4
308.15	0.5986	859	0.4
308.15	0.6952	891.5	0.5
308.15	0.7996	930	0.5
308.15	0.8934	968.5	0.5
308.15	1	1016.2	0.6
