Measured thermophysical data. Excess Enthalpies of the Ternary Mixtures: Diisopropyl Ether + 3-Methylpentane + (Octane or Decane) at 298.15 K
Source: J. Chem. Eng. Data, 2003, 10.1021/je030161t
Compound 1: diisopropyl ether, C6H14O, InChI=1S/C6H14O/c1-5(2)7-6(3)4/h5-6H,1-4H3, purity 99%
Compound 2: 3-methylpentane, C6H14, InChI=1S/C6H14/c1-4-6(3)5-2/h6H,4-5H2,1-3H3, purity 99%
Compound 3: octane, C8H18, InChI=1S/C8H18/c1-3-5-7-8-6-4-2/h3-8H2,1-2H3, purity 99%
Compound 4: decane, C10H22, InChI=1S/C10H22/c1-3-5-7-9-10-8-6-4-2/h3-10H2,1-2H3, purity 99%

System: diisopropyl ether; phases: Liquid
Property: Mass density, kg/m3 (Liquid); method: Vibrating tube method
Temperature, K	Pressure, kPa	Mass density, kg/m3	uncertainty
298.15	101.325	718.7	0.41

System: 3-methylpentane; phases: Liquid
Property: Mass density, kg/m3 (Liquid); method: Vibrating tube method
Temperature, K	Pressure, kPa	Mass density, kg/m3	uncertainty
298.15	101.325	659.94	0.4

System: octane; phases: Liquid
Property: Mass density, kg/m3 (Liquid); method: Vibrating tube method
Temperature, K	Pressure, kPa	Mass density, kg/m3	uncertainty
298.15	101.325	698.72	0.4

System: decane; phases: Liquid
Property: Mass density, kg/m3 (Liquid); method: Vibrating tube method
Temperature, K	Pressure, kPa	Mass density, kg/m3	uncertainty
298.15	101.325	726.3	0.41

System: 3-methylpentane + diisopropyl ether; phases: Liquid
Fixed: Temperature, K = 298.15
Fixed: Pressure, kPa = 101.3
Property: Excess molar enthalpy (molar enthalpy of mixing), kJ/mol (Liquid); method: Flow calorimetry
Mole fraction of diisopropyl ether	Excess molar enthalpy (molar enthalpy of mixing), kJ/mol	uncertainty
0.05	0.04223	0.00111
0.1	0.07858	0.00139
0.1499	0.10967	0.00163
0.2	0.1361	0.00183
0.2503	0.15555	0.00198
0.2998	0.1716	0.00211
0.3501	0.18383	0.00221
0.3997	0.19231	0.00228
0.45	0.19743	0.00233
0.5003	0.19763	0.00233
0.5502	0.19377	0.00229
0.5998	0.1873	0.00224
0.65	0.17675	0.00215
0.7002	0.16213	0.00203
0.7501	0.14357	0.00189
0.8003	0.12154	0.00172
0.85	0.09371	0.0015
0.9	0.06594	0.00129
0.95	0.03579	0.00106

System: 3-methylpentane + diisopropyl ether + octane; phases: Liquid
Fixed: Temperature, K = 298.15
Fixed: Pressure, kPa = 101.3
Property: Excess molar enthalpy (molar enthalpy of mixing), kJ/mol (Liquid); method: Flow calorimetry
Solvent: Amount ratio of component to other component of binary solvent of 3-methylpentane	Mole fraction of diisopropyl ether	Excess molar enthalpy (molar enthalpy of mixing), kJ/mol	uncertainty
0.3332	0.0501	0.04881	0.00116
0.3332	0.1	0.09079	0.00148
0.3332	0.15	0.13145	0.0018
0.3332	0.1999	0.1637	0.00205
0.3332	0.2501	0.19386	0.0023
0.3332	0.3017	0.21188	0.00245
0.3332	0.3498	0.23296	0.00263
0.3332	0.3999	0.24549	0.00274
0.3332	0.4504	0.25355	0.0028
0.3332	0.5	0.25621	0.00283
0.3332	0.5501	0.25459	0.00281
0.3332	0.6	0.24722	0.00275
0.3332	0.6502	0.23432	0.00264
0.3332	0.6998	0.21729	0.00249
0.3332	0.7498	0.19463	0.0023
0.3332	0.8004	0.16606	0.00206
0.3332	0.8508	0.13253	0.0018
0.3332	0.8999	0.09375	0.0015
0.3332	0.9499	0.05022	0.00117
1.0002	0.0499	0.04478	0.00113
1.0002	0.1	0.08576	0.00144
1.0002	0.15	0.12277	0.00173
1.0002	0.2002	0.15418	0.00197
1.0002	0.2503	0.17831	0.00216
1.0002	0.3007	0.19849	0.00233
1.0002	0.3502	0.21529	0.00248
1.0002	0.4001	0.22662	0.00257
1.0002	0.45	0.23363	0.00263
1.0002	0.5001	0.23418	0.00264
1.0002	0.5503	0.2332	0.00263
1.0002	0.6003	0.22462	0.00256
1.0002	0.65	0.21374	0.00246
1.0002	0.7	0.19757	0.00233
1.0002	0.7504	0.17634	0.00215
1.0002	0.7999	0.15093	0.00195
1.0002	0.85	0.12083	0.00171
1.0002	0.8999	0.08498	0.00144
1.0002	0.9499	0.04544	0.00113
2.9995	0.05	0.04258	0.00111
2.9995	0.1	0.08133	0.00141
2.9995	0.15	0.11505	0.00167
2.9995	0.1999	0.14371	0.00189
2.9995	0.2508	0.16546	0.00206
2.9995	0.3004	0.18618	0.00223
2.9995	0.3498	0.19797	0.00233
2.9995	0.3995	0.20836	0.00242
2.9995	0.4501	0.2144	0.00247
2.9995	0.4994	0.21521	0.00248
2.9995	0.5503	0.2125	0.00245
2.9995	0.5999	0.20539	0.00239
2.9995	0.6497	0.19419	0.0023
2.9995	0.7	0.17887	0.00217
2.9995	0.75	0.15938	0.00201
2.9995	0.7992	0.13553	0.00183
2.9995	0.8517	0.10598	0.0016
2.9995	0.8998	0.07597	0.00137
2.9995	0.9499	0.04042	0.00109

System: 3-methylpentane + diisopropyl ether + decane; phases: Liquid
Fixed: Temperature, K = 298.15
Fixed: Pressure, kPa = 101.3
Property: Excess molar enthalpy (molar enthalpy of mixing), kJ/mol (Liquid); method: Flow calorimetry
Solvent: Amount ratio of component to other component of binary solvent of 3-methylpentane	Mole fraction of diisopropyl ether	Excess molar enthalpy (molar enthalpy of mixing), kJ/mol	uncertainty
0.3333	0.0496	0.04286	0.00111
0.3333	0.099	0.09227	0.00149
0.3333	0.1485	0.13974	0.00186
0.3333	0.1983	0.17935	0.00217
0.3333	0.2478	0.21364	0.00246
0.3333	0.2977	0.23845	0.00268
0.3333	0.3477	0.26044	0.00286
0.3333	0.3973	0.27661	0.003
0.3333	0.447	0.28724	0.00309
0.3333	0.4963	0.2912	0.00313
0.3333	0.5467	0.2937	0.00315
0.3333	0.5979	0.28665	0.00309
0.3333	0.6472	0.27358	0.00298
0.3333	0.6977	0.25404	0.00281
0.3333	0.7478	0.22881	0.00259
0.3333	0.7984	0.19639	0.00232
0.3333	0.8489	0.15681	0.00199
0.3333	0.8989	0.11024	0.00163
0.3333	0.9494	0.05619	0.00121
0.9994	0.0495	0.04878	0.00116
0.9994	0.099	0.09366	0.0015
0.9994	0.1485	0.13245	0.0018
0.9994	0.1982	0.1657	0.00206
0.9994	0.2477	0.19571	0.00231
0.9994	0.2976	0.21677	0.00249
0.9994	0.3469	0.23512	0.00265
0.9994	0.3971	0.24927	0.00277
0.9994	0.4503	0.25679	0.00283
0.9994	0.4971	0.26091	0.00287
0.9994	0.5461	0.2603	0.00286
0.9994	0.5975	0.25386	0.00281
0.9994	0.6475	0.24142	0.0027
0.9994	0.6972	0.224	0.00255
0.9994	0.7477	0.20124	0.00236
0.9994	0.7982	0.17265	0.00211
0.9994	0.8481	0.13812	0.00185
0.9994	0.899	0.09768	0.00153
0.9994	0.9494	0.05135	0.00118
3.0013	0.0499	0.04511	0.00113
3.0013	0.0998	0.08553	0.00144
3.0013	0.15	0.11947	0.0017
3.0013	0.2	0.15024	0.00194
3.0013	0.2498	0.17608	0.00214
3.0013	0.2996	0.19352	0.00229
3.0013	0.3502	0.20935	0.00243
3.0013	0.3999	0.22016	0.00252
3.0013	0.4501	0.22666	0.00257
3.0013	0.4966	0.22845	0.00259
3.0013	0.55	0.22557	0.00257
3.0013	0.6001	0.21846	0.0025
3.0013	0.6497	0.20705	0.00241
3.0013	0.7007	0.19095	0.00227
3.0013	0.7497	0.17086	0.0021
3.0013	0.8001	0.14466	0.0019
3.0013	0.8503	0.11495	0.00167
3.0013	0.8998	0.08161	0.00141
3.0013	0.9499	0.0432	0.00111
