Measured thermophysical data. Conductivities and Viscosities of the Ionic Liquid [bmim][PF6] + Water + Ethanol and [bmim][PF6] + Water + Acetone Ternary Mixtures
Source: J. Chem. Eng. Data, 2003, 10.1021/je034078h
Compound 1: ethanol, C2H6O, InChI=1S/C2H6O/c1-2-3/h3H,2H2,1H3
Compound 2: 1-butyl-3-methylimidazolium hexafluorophosphate, C8H15F6N2P, InChI=1S/C8H15N2.F6P/c1-3-4-5-10-7-6-9(2)8-10;1-7(2,3,4,5)6/h6-8H,3-5H2,1-2H3;/q+1;-1
Compound 3: water, H2O, InChI=1S/H2O/h1H2, purity 99.99%
Compound 4: acetone, C3H6O, InChI=1S/C3H6O/c1-3(2)4/h1-2H3

System: ethanol + 1-butyl-3-methylimidazolium hexafluorophosphate; phases: Liquid
Fixed: Pressure, kPa = 101.3
Property: Electrical conductivity, S/m (Liquid); method: Shanghai Precision & Scientific Instrument Co., LTD (DDS-307)
Temperature, K	Mole fraction of ethanol	Electrical conductivity, S/m	uncertainty
288.15	0.2	0.00302	0.00018
288.15	0.48	0.0068	0.00041
293.15	0.2	0.00336	0.0002
293.15	0.48	0.00733	0.00044
298.15	0.2	0.0038	0.00023
298.15	0.48	0.00798	0.00048
303.15	0.2	0.0043	0.00026
303.15	0.48	0.00863	0.00052
308.15	0.2	0.00475	0.00029
308.15	0.48	0.00933	0.00056

System: ethanol + 1-butyl-3-methylimidazolium hexafluorophosphate; phases: Liquid
Fixed: Pressure, kPa = 101.3
Property: Viscosity, Pa*s (Liquid); method: Capillary tube (Ostwald; Ubbelohde) method
Temperature, K	Mole fraction of ethanol	Viscosity, Pa*s	uncertainty
288.15	0.2	0.2006	0.0087
288.15	0.48	0.048	0.0017
293.15	0.2	0.1481	0.0062
293.15	0.48	0.0377	0.0013
298.15	0.2	0.1137	0.0045
298.15	0.48	0.0301	0.001
303.15	0.2	0.0884	0.0034
303.15	0.48	0.0248	0.0008
308.15	0.2	0.0715	0.0027
308.15	0.48	0.021	0.0007

System: water + 1-butyl-3-methylimidazolium hexafluorophosphate; phases: Liquid
Fixed: Pressure, kPa = 101.3
Fixed: Mole fraction of water = 0.2
Property: Electrical conductivity, S/m (Liquid); method: Shanghai Precision & Scientific Instrument Co., LTD (DDS-307)
Temperature, K	Electrical conductivity, S/m	uncertainty
293.15	0.0033	0.0002
298.15	0.00372	0.00022
303.15	0.00429	0.00026
308.15	0.00478	0.00029

System: water + 1-butyl-3-methylimidazolium hexafluorophosphate; phases: Liquid
Fixed: Mole fraction of water = 0.2
Fixed: Pressure, kPa = 101.3
Property: Viscosity, Pa*s (Liquid); method: Capillary tube (Ostwald; Ubbelohde) method
Temperature, K	Viscosity, Pa*s	uncertainty
293.15	0.1664	0.0094
298.15	0.1287	0.0052
303.15	0.0992	0.0039
308.15	0.0782	0.0034

System: acetone + 1-butyl-3-methylimidazolium hexafluorophosphate; phases: Liquid
Fixed: Pressure, kPa = 101.3
Property: Electrical conductivity, S/m (Liquid); method: Shanghai Precision & Scientific Instrument Co., LTD (DDS-307)
Temperature, K	Mole fraction of acetone	Electrical conductivity, S/m	uncertainty
288.15	0.2	0.00298	0.00018
288.15	0.48	0.00925	0.00056
293.15	0.2	0.00342	0.00021
293.15	0.48	0.00965	0.00058
298.15	0.2	0.00375	0.00023
298.15	0.48	0.01017	0.00061
303.15	0.2	0.00429	0.00026
303.15	0.48	0.01061	0.00064
308.15	0.2	0.00467	0.00028
308.15	0.48	0.01103	0.00066

System: acetone + 1-butyl-3-methylimidazolium hexafluorophosphate; phases: Liquid
Fixed: Pressure, kPa = 101.3
Property: Viscosity, Pa*s (Liquid); method: Capillary tube (Ostwald; Ubbelohde) method
Temperature, K	Mole fraction of acetone	Viscosity, Pa*s	uncertainty
288.15	0.2	0.165	0.0069
288.15	0.48	0.0251	0.0009
293.15	0.2	0.127	0.0051
293.15	0.48	0.0212	0.0007
298.15	0.2	0.1002	0.0039
298.15	0.48	0.0182	0.0006
303.15	0.2	0.0798	0.003
303.15	0.48	0.016	0.0005
308.15	0.2	0.0641	0.0024
308.15	0.48	0.0138	0.0005

System: ethanol + water + 1-butyl-3-methylimidazolium hexafluorophosphate; phases: Liquid
Fixed: Pressure, kPa = 101
Property: Electrical conductivity, S/m (Liquid); method: Shanghai Precision & Scientific Instrument Co., LTD (DDS-307)
Temperature, K	Mole fraction of water	Mole fraction of ethanol	Electrical conductivity, S/m	uncertainty
288.15	0	0.2	0.00302	0.00018
288.15	0	0.48	0.0068	0.00041
288.15	0.06	0.14	0.00303	0.00018
288.15	0.1	0.1	0.00295	0.00018
288.15	0.14	0.06	0.00298	0.00018
288.15	0.14	0.34	0.00726	0.00044
288.15	0.2	0.2	0.00606	0.00036
288.15	0.24	0.24	0.00733	0.00044
288.15	0.31	0.31	0.01018	0.00061
293.15	0	0.2	0.00336	0.0002
293.15	0	0.48	0.00733	0.00044
293.15	0.06	0.14	0.00346	0.00021
293.15	0.1	0.1	0.0033	0.0002
293.15	0.14	0.06	0.00334	0.0002
293.15	0.14	0.34	0.00795	0.00048
293.15	0.2	0	0.0033	0.0002
293.15	0.2	0.2	0.00677	0.00041
293.15	0.24	0.24	0.00809	0.00049
293.15	0.31	0.31	0.01117	0.00067
293.15	0.35	0.35	0.01309	0.00079
298.15	0	0.2	0.0038	0.00023
298.15	0	0.48	0.00798	0.00048
298.15	0.06	0.14	0.00387	0.00023
298.15	0.1	0.1	0.00376	0.00023
298.15	0.14	0.06	0.00368	0.00022
298.15	0.14	0.34	0.00864	0.00052
298.15	0.2	0	0.00372	0.00022
298.15	0.2	0.2	0.00735	0.00044
298.15	0.24	0.24	0.00871	0.00052
298.15	0.31	0.31	0.0122	0.00073
298.15	0.34	0.14	0.00855	0.00051
298.15	0.35	0.35	0.01422	0.00085
303.15	0	0.2	0.0043	0.00026
303.15	0	0.48	0.00863	0.00052
303.15	0.06	0.14	0.00434	0.00026
303.15	0.1	0.1	0.00421	0.00025
303.15	0.14	0.06	0.00423	0.00025
303.15	0.14	0.34	0.00938	0.00056
303.15	0.2	0	0.00429	0.00026
303.15	0.2	0.2	0.00803	0.00048
303.15	0.24	0.24	0.00955	0.00057
303.15	0.31	0.31	0.01328	0.0008
303.15	0.34	0.14	0.00963	0.00058
303.15	0.35	0.35	0.01538	0.00092
308.15	0	0.2	0.00475	0.00029
308.15	0	0.48	0.00933	0.00056
308.15	0.06	0.14	0.00485	0.00029
308.15	0.1	0.1	0.00471	0.00028
308.15	0.14	0.06	0.00468	0.00028
308.15	0.14	0.34	0.00998	0.0006
308.15	0.2	0	0.00478	0.00029
308.15	0.2	0.2	0.0088	0.00053
308.15	0.24	0.24	0.01031	0.00062
308.15	0.31	0.31	0.01405	0.00084
308.15	0.34	0.14	0.01061	0.00064
308.15	0.35	0.35	0.01625	0.00098

System: ethanol + water + 1-butyl-3-methylimidazolium hexafluorophosphate; phases: Liquid
Fixed: Pressure, kPa = 101.3
Property: Viscosity, Pa*s (Liquid); method: Capillary tube (Ostwald; Ubbelohde) method
Temperature, K	Mole fraction of water	Mole fraction of ethanol	Viscosity, Pa*s	uncertainty
288.15	0	0.2	0.2006	0.0087
288.15	0	0.48	0.048	0.0017
288.15	0.24	0.24	0.0547	0.0019
293.15	0	0.2	0.1481	0.0062
293.15	0	0.48	0.0377	0.0015
293.15	0.2	0	0.1664	0.0069
293.15	0.24	0.24	0.0442	0.0015
298.15	0	0.2	0.1137	0.0046
298.15	0	0.48	0.0301	0.0014
298.15	0.2	0	0.1287	0.0052
298.15	0.24	0.24	0.0348	0.0012
303.15	0	0.2	0.0884	0.0035
303.15	0	0.48	0.0248	0.0014
303.15	0.2	0	0.0992	0.0039
303.15	0.24	0.24	0.0272	0.0009
308.15	0	0.2	0.0715	0.0029
308.15	0	0.48	0.021	0.0014
308.15	0.2	0	0.0782	0.003
308.15	0.24	0.24	0.0233	0.0008

System: acetone + water + 1-butyl-3-methylimidazolium hexafluorophosphate; phases: Liquid
Fixed: Pressure, kPa = 101
Property: Electrical conductivity, S/m (Liquid); method: Shanghai Precision & Scientific Instrument Co., LTD (DDS-307)
Temperature, K	Mole fraction of water	Mole fraction of acetone	Electrical conductivity, S/m	uncertainty
288.15	0	0.2	0.00298	0.00018
288.15	0	0.48	0.00925	0.00056
288.15	0.06	0.14	0.00322	0.00019
288.15	0.1	0.1	0.00315	0.00019
288.15	0.14	0.06	0.00287	0.00017
288.15	0.14	0.34	0.0096	0.00058
288.15	0.17	0.41	0.01604	0.00096
288.15	0.24	0.24	0.01577	0.00095
288.15	0.34	0.14	0.00748	0.00045
293.15	0	0.2	0.00342	0.00021
293.15	0	0.48	0.00965	0.00058
293.15	0.06	0.14	0.00359	0.00022
293.15	0.1	0.1	0.00355	0.00021
293.15	0.14	0.06	0.00336	0.0002
293.15	0.14	0.37	0.01008	0.0006
293.15	0.17	0.41	0.01629	0.00098
293.15	0.2	0	0.0033	0.0002
293.15	0.24	0.24	0.0165	0.00099
293.15	0.34	0.14	0.0086	0.00052
298.15	0	0.2	0.00375	0.00023
298.15	0	0.48	0.01017	0.00061
298.15	0.06	0.14	0.00394	0.00024
298.15	0.1	0.1	0.00375	0.00023
298.15	0.14	0.06	0.00373	0.00022
298.15	0.14	0.34	0.0108	0.00065
298.15	0.17	0.41	0.01666	0.001
298.15	0.2	0	0.00372	0.00022
298.15	0.24	0.24	0.01691	0.00101
298.15	0.34	0.14	0.0094	0.00056
303.15	0	0.2	0.00429	0.00026
303.15	0	0.48	0.01061	0.00064
303.15	0.06	0.14	0.00443	0.00027
303.15	0.1	0.1	0.00442	0.00027
303.15	0.14	0.06	0.00415	0.00025
303.15	0.14	0.34	0.0114	0.00068
303.15	0.17	0.41	0.01703	0.00102
303.15	0.2	0	0.00429	0.00026
303.15	0.24	0.24	0.01741	0.00104
303.15	0.34	0.14	0.01069	0.00064
308.15	0	0.2	0.00467	0.00028
308.15	0	0.48	0.01103	0.00066
308.15	0.06	0.14	0.00487	0.00029
308.15	0.1	0.1	0.00495	0.0003
308.15	0.14	0.06	0.0047	0.00028
308.15	0.14	0.34	0.01182	0.00071
308.15	0.17	0.41	0.01737	0.00104
308.15	0.2	0	0.00478	0.00029
308.15	0.24	0.24	0.01789	0.00107
308.15	0.34	0.14	0.01148	0.00069

System: acetone + water + 1-butyl-3-methylimidazolium hexafluorophosphate; phases: Liquid
Fixed: Pressure, kPa = 101.3
Property: Viscosity, Pa*s (Liquid); method: Capillary tube (Ostwald; Ubbelohde) method
Temperature, K	Mole fraction of water	Mole fraction of acetone	Viscosity, Pa*s	uncertainty
288.15	0	0.2	0.165	0.0069
288.15	0	0.48	0.0251	0.0009
288.15	0.24	0.24	0.0373	0.0013
293.15	0	0.2	0.127	0.0051
293.15	0	0.48	0.0212	0.0008
293.15	0.2	0	0.1664	0.0069
293.15	0.24	0.24	0.031	0.0011
298.15	0	0.2	0.1002	0.0039
298.15	0	0.48	0.0182	0.0009
298.15	0.2	0	0.1287	0.0052
298.15	0.24	0.24	0.0258	0.0009
303.15	0	0.2	0.0798	0.0031
303.15	0	0.48	0.016	0.001
303.15	0.2	0	0.0992	0.0039
303.15	0.24	0.24	0.0214	0.0007
308.15	0	0.2	0.0641	0.0026
308.15	0	0.48	0.0138	0.0011
308.15	0.2	0	0.0782	0.003
308.15	0.24	0.24	0.0186	0.0006
