Measured thermophysical data. Partition Coefficients of Organic Solutes between Supercritical Carbon Dioxide and Water: Experimental Measurements and Empirical Correlations
Source: J. Chem. Eng. Data, 2004, 10.1021/je030197l
Compound 1: carbon dioxide, CO2, InChI=1S/CO2/c2-1-3
Compound 2: water, H2O, InChI=1S/H2O/h1H2
Compound 3: acetophenone, C8H8O, InChI=1S/C8H8O/c1-7(9)8-5-3-2-4-6-8/h2-6H,1H3, purity 99%
Compound 4: benzaldehyde, C7H6O, InChI=1S/C7H6O/c8-6-7-4-2-1-3-5-7/h1-6H, purity 99%
Compound 5: bromobenzene, C6H5Br, InChI=1S/C6H5Br/c7-6-4-2-1-3-5-6/h1-5H, purity 99%
Compound 6: 3-buten-2-one, C4H6O, InChI=1S/C4H6O/c1-3-4(2)5/h3H,1H2,2H3, purity 99%
Compound 7: chlorobenzene, C6H5Cl, InChI=1S/C6H5Cl/c7-6-4-2-1-3-5-6/h1-5H, purity 99%
Compound 8: cyclohexane, C6H12, InChI=1S/C6H12/c1-2-4-6-5-3-1/h1-6H2, purity 99.5%
Compound 9: cyclohexene, C6H10, InChI=1S/C6H10/c1-2-4-6-5-3-1/h1-2H,3-6H2, purity 99.7%
Compound 10: cyclopentene, C5H8, InChI=1S/C5H8/c1-2-4-5-3-1/h1-2H,3-5H2, purity 99%
Compound 11: ethyl benzoate, C9H10O2, InChI=1S/C9H10O2/c1-2-11-9(10)8-6-4-3-5-7-8/h3-7H,2H2,1H3, purity 99%
Compound 12: fluorobenzene, C6H5F, InChI=1S/C6H5F/c7-6-4-2-1-3-5-6/h1-5H, purity 99.7%
Compound 13: hexane, C6H14, InChI=1S/C6H14/c1-3-5-6-4-2/h3-6H2,1-2H3, purity 99%
Compound 14: 2-methoxyacetophenone, C9H10O2, InChI=1S/C9H10O2/c1-11-7-9(10)8-5-3-2-4-6-8/h2-6H,7H2,1H3, purity 95%
Compound 15: 3'-methoxyacetophenone, C9H10O2, InChI=1S/C9H10O2/c1-7(10)8-4-3-5-9(6-8)11-2/h3-6H,1-2H3, purity 95%
Compound 16: methyl benzoate, C8H8O2, InChI=1S/C8H8O2/c1-10-8(9)7-5-3-2-4-6-7/h2-6H,1H3, purity 99%
Compound 17: ethyl phenyl ketone, C9H10O, InChI=1S/C9H10O/c1-2-9(10)8-6-4-3-5-7-8/h3-7H,2H2,1H3, purity 99%
Compound 18: propyl benzoate, C10H12O2, InChI=1S/C10H12O2/c1-2-8-12-10(11)9-6-4-3-5-7-9/h3-7H,2,8H2,1H3, purity 99%
Compound 19: tetrahydrofuran, C4H8O, InChI=1S/C4H8O/c1-2-4-5-3-1/h1-4H2, purity 99.5%
Compound 20: toluene, C7H8, InChI=1S/C7H8/c1-7-5-3-2-4-6-7/h2-6H,1H3, purity 99.7%

System: acetophenone + carbon dioxide + water; phases: Gas, Liquid
Property: Mole fraction of acetophenone (Gas); method: Chromatography
Temperature, K	Pressure, kPa	Mole fraction of acetophenone	Mole fraction of acetophenone	uncertainty
300	8000	0	48.5	4.6

System: benzaldehyde + carbon dioxide + water; phases: Gas, Liquid
Property: Mole fraction of benzaldehyde (Gas); method: Chromatography
Temperature, K	Pressure, kPa	Mole fraction of benzaldehyde	Mole fraction of benzaldehyde	uncertainty
300	8000	0	39.1	3.7

System: bromobenzene + carbon dioxide + water; phases: Gas, Liquid
Property: Mole fraction of bromobenzene (Gas); method: Chromatography
Temperature, K	Pressure, kPa	Mole fraction of bromobenzene	Mole fraction of bromobenzene	uncertainty
300	8000	0	1090	100

System: 3-buten-2-one + carbon dioxide + water; phases: Gas, Liquid
Property: Mole fraction of 3-buten-2-one (Gas); method: Chromatography
Temperature, K	Pressure, kPa	Mole fraction of 3-buten-2-one	Mole fraction of 3-buten-2-one	uncertainty
300	8000	0	7.8	1

System: chlorobenzene + carbon dioxide + water; phases: Gas, Liquid
Property: Mole fraction of chlorobenzene (Gas); method: Chromatography
Temperature, K	Pressure, kPa	Mole fraction of chlorobenzene	Mole fraction of chlorobenzene	uncertainty
300	8000	0	1140	110

System: cyclohexane + carbon dioxide + water; phases: Gas, Liquid
Property: Mole fraction of cyclohexane (Gas); method: Chromatography
Temperature, K	Pressure, kPa	Mole fraction of cyclohexane	Mole fraction of cyclohexane	uncertainty
300	8000	0	4900	600

System: cyclohexene + carbon dioxide + water; phases: Gas, Liquid
Property: Mole fraction of cyclohexene (Gas); method: Chromatography
Temperature, K	Pressure, kPa	Mole fraction of cyclohexene	Mole fraction of cyclohexene	uncertainty
300	8000	0	1900	300

System: carbon dioxide + cyclopentene + water; phases: Gas, Liquid
Property: Mole fraction of cyclopentene (Gas); method: Chromatography
Temperature, K	Pressure, kPa	Mole fraction of cyclopentene	Mole fraction of cyclopentene	uncertainty
300	8000	0	1400	180

System: ethyl benzoate + carbon dioxide + water; phases: Gas, Liquid
Property: Mole fraction of ethyl benzoate (Gas); method: Chromatography
Temperature, K	Pressure, kPa	Mole fraction of ethyl benzoate	Mole fraction of ethyl benzoate	uncertainty
300	8000	0	550	100

System: carbon dioxide + fluorobenzene + water; phases: Gas, Liquid
Property: Mole fraction of fluorobenzene (Gas); method: Chromatography
Temperature, K	Pressure, kPa	Mole fraction of fluorobenzene	Mole fraction of fluorobenzene	uncertainty
300	8000	0	770	150

System: hexane + carbon dioxide + water; phases: Gas, Liquid
Property: Mole fraction of hexane (Gas); method: Chromatography
Temperature, K	Pressure, kPa	Mole fraction of hexane	Mole fraction of hexane	uncertainty
300	8000	0	9000	3000

System: carbon dioxide + 2-methoxyacetophenone + water; phases: Gas, Liquid
Property: Mole fraction of 2-methoxyacetophenone (Gas); method: Chromatography
Temperature, K	Pressure, kPa	Mole fraction of 2-methoxyacetophenone	Mole fraction of 2-methoxyacetophenone	uncertainty
300	8000	0	47.3	4

System: carbon dioxide + 3'-methoxyacetophenone + water; phases: Gas, Liquid
Property: Mole fraction of 3'-methoxyacetophenone (Gas); method: Chromatography
Temperature, K	Pressure, kPa	Mole fraction of 3'-methoxyacetophenone	Mole fraction of 3'-methoxyacetophenone	uncertainty
300	8000	0	84	7

System: methyl benzoate + carbon dioxide + water; phases: Gas, Liquid
Property: Mole fraction of methyl benzoate (Gas); method: Chromatography
Temperature, K	Pressure, kPa	Mole fraction of methyl benzoate	Mole fraction of methyl benzoate	uncertainty
300	8000	0	205	21

System: ethyl phenyl ketone + carbon dioxide + water; phases: Gas, Liquid
Property: Mole fraction of ethyl phenyl ketone (Gas); method: Chromatography
Temperature, K	Pressure, kPa	Mole fraction of ethyl phenyl ketone	Mole fraction of ethyl phenyl ketone	uncertainty
300	8000	0	121	13

System: carbon dioxide + propyl benzoate + water; phases: Gas, Liquid
Property: Mole fraction of propyl benzoate (Gas); method: Chromatography
Temperature, K	Pressure, kPa	Mole fraction of propyl benzoate	Mole fraction of propyl benzoate	uncertainty
300	8000	0	1050	220

System: tetrahydrofuran + carbon dioxide + water; phases: Gas, Liquid
Property: Mole fraction of tetrahydrofuran (Gas); method: Chromatography
Temperature, K	Pressure, kPa	Mole fraction of tetrahydrofuran	Mole fraction of tetrahydrofuran	uncertainty
300	8000	0	8.5	1

System: toluene + carbon dioxide + water; phases: Gas, Liquid
Property: Mole fraction of toluene (Gas); method: Chromatography
Temperature, K	Pressure, kPa	Mole fraction of toluene	Mole fraction of toluene	uncertainty
300	8000	0	1200	250
