Measured thermophysical data. Critical Properties of Three Dimethyl Ether Binary Systems: Dimethyl Ether (RE-170) + Propane (HC-290), Butane (HC-600), and 2-Methyl Propane (HC-600A)
Source: J. Chem. Eng. Data, 2005, 10.1021/je0496589
Compound 1: dimethyl ether, C2H6O, InChI=1S/C2H6O/c1-3-2/h1-2H3, purity 99.9%
Compound 2: propane, C3H8, InChI=1S/C3H8/c1-3-2/h3H2,1-2H3, purity 99.9%
Compound 3: butane, C4H10, InChI=1S/C4H10/c1-3-4-2/h3-4H2,1-2H3, purity 99.9%
Compound 4: 2-methylpropane, C4H10, InChI=1S/C4H10/c1-4(2)3/h4H,1-3H3, purity 99.9%

System: dimethyl ether; phases: Liquid, Gas
Property: Critical pressure, kPa (Liquid); method: DIRECT:FP
Critical pressure, kPa	uncertainty
5267	6

System: dimethyl ether; phases: Liquid, Gas
Property: Critical temperature, K (Liquid); method: VISOBSU:UFactor:.5:FP
Critical temperature, K	uncertainty
399.63	0.08

System: dimethyl ether; phases: Liquid, Gas
Property: Critical density, kg/m3 (Liquid); method: PVT:FP
Critical density, kg/m3	uncertainty
271	6

System: dimethyl ether; phases: Liquid, Gas
Property: Vapor or sublimation pressure, kPa (Liquid); method: Closed cell (Static) method
Temperature, K	Vapor or sublimation pressure, kPa	uncertainty
303.14	679	1.4
306.71	749.6	1.6
313.09	888.3	1.9
313.09	887.7	1.9
323.14	1143.3	2.4
323.15	1143.2	2.4
333.18	1449.1	3
333.18	1449.4	3
343.22	1811.6	3.7
343.23	1812.6	3.7
353.25	2236.9	4.6
353.28	2237.7	4.6
363.3	2732.3	5.6
363.31	2733	5.6
373.34	3306.2	6.7
373.34	3306	6.7
383.37	3967.8	8.1
383.38	3967.8	8.1
393.41	4730.9	9.6
393.41	4731.5	9.6
399.62	5267	10.7

System: propane; phases: Liquid, Gas
Property: Critical pressure, kPa (Liquid); method: DIRECT:FP
Critical pressure, kPa	uncertainty
4247	6

System: propane; phases: Liquid, Gas
Property: Critical temperature, K (Liquid); method: VISOBSU:UFactor:.5:FP
Critical temperature, K	uncertainty
369.84	0.08

System: propane; phases: Liquid, Gas
Property: Critical density, kg/m3 (Liquid); method: PVT:FP
Critical density, kg/m3	uncertainty
216	5

System: butane; phases: Liquid, Gas
Property: Critical pressure, kPa (Liquid); method: DIRECT:FP
Critical pressure, kPa	uncertainty
3787	6

System: butane; phases: Liquid, Gas
Property: Critical temperature, K (Liquid); method: VISOBSU:UFactor:.5:FP
Critical temperature, K	uncertainty
425.16	0.08

System: butane; phases: Liquid, Gas
Property: Critical density, kg/m3 (Liquid); method: PVT:FP
Critical density, kg/m3	uncertainty
225	5

System: 2-methylpropane; phases: Liquid, Gas
Property: Critical pressure, kPa (Liquid); method: DIRECT:FP
Critical pressure, kPa	uncertainty
3633	6

System: 2-methylpropane; phases: Liquid, Gas
Property: Critical temperature, K (Liquid); method: VISOBSU:UFactor:.5:FP
Critical temperature, K	uncertainty
407.81	0.08

System: 2-methylpropane; phases: Liquid, Gas
Property: Critical density, kg/m3 (Liquid); method: PVT:FP
Critical density, kg/m3	uncertainty
225	5

System: propane + dimethyl ether; phases: Liquid, Gas
Property: Critical pressure, kPa (Liquid); method: Direct measurement
Mole fraction of dimethyl ether	Critical pressure, kPa	uncertainty
0	4247	6
0.1741	4377	6
0.4049	4591	7
0.6913	4910	10
0.7849	5014	11
0.8205	5059	12
1	5267	6

System: propane + dimethyl ether; phases: Liquid, Gas
Property: Critical temperature, K (Liquid); method: VISOBSU:UFactor:0.5
Mole fraction of dimethyl ether	Critical temperature, K	uncertainty
0	369.84	0.08
0.1741	371.54	0.08
0.4049	376.31	0.14
0.6913	385.72	0.25
0.7849	389.45	0.33
0.8205	391.05	0.38
1	399.63	0.08

System: propane + dimethyl ether; phases: Liquid, Gas
Property: Critical density, kg/m3 (Liquid); method: Derived from PVT data
Mole fraction of dimethyl ether	Critical density, kg/m3	uncertainty
0	216	5
0.1741	227	5
0.4049	238	6
0.6913	251	6
0.7849	261	6
0.8205	265	6
1	271	6

System: butane + dimethyl ether; phases: Liquid, Gas
Property: Critical pressure, kPa (Liquid); method: Direct measurement
Mole fraction of dimethyl ether	Critical pressure, kPa	uncertainty
0	3787	6
0.2332	4162	7
0.3943	4392	8
0.5529	4597	10
0.7405	4843	12
0.8958	5074	16
1	5267	6

System: butane + dimethyl ether; phases: Liquid, Gas
Property: Critical temperature, K (Liquid); method: VISOBSU:UFactor:0.5
Mole fraction of dimethyl ether	Critical temperature, K	uncertainty
0	425.16	0.08
0.2332	416.82	0.11
0.3943	411.47	0.15
0.5529	406.81	0.16
0.7405	402.38	0.16
0.8958	400.17	0.12
1	399.63	0.08

System: butane + dimethyl ether; phases: Liquid, Gas
Property: Critical density, kg/m3 (Liquid); method: Derived from PVT data
Mole fraction of dimethyl ether	Critical density, kg/m3	uncertainty
0	225	5
0.2332	235	5
0.3943	242	6
0.5529	245	6
0.7405	258	6
0.8958	265	6
1	271	6

System: 2-methylpropane + dimethyl ether; phases: Liquid, Gas
Property: Critical pressure, kPa (Liquid); method: Direct measurement
Mole fraction of dimethyl ether	Critical pressure, kPa	uncertainty
0	3633	6
0.2152	3955	7
0.4006	4218	8
0.599	4503	11
0.7493	4746	14
0.8907	5013	19
1	5267	6

System: 2-methylpropane + dimethyl ether; phases: Liquid, Gas
Property: Critical temperature, K (Liquid); method: VISOBSU:UFactor:0.5
Mole fraction of dimethyl ether	Critical temperature, K	uncertainty
0	407.81	0.08
0.2152	403.03	0.09
0.4006	399.87	0.1
0.599	397.66	0.09
0.7493	397.23	0.08
0.8907	398.01	0.11
1	399.63	0.08

System: 2-methylpropane + dimethyl ether; phases: Liquid, Gas
Property: Critical density, kg/m3 (Liquid); method: Derived from PVT data
Mole fraction of dimethyl ether	Critical density, kg/m3	uncertainty
0	225	5
0.2152	235	5
0.4006	238	6
0.599	246	6
0.7493	256	6
0.8907	265	6
1	271	6
