Measured thermophysical data. Thermodynamic Properties of Mixtures Containing Ionic Liquids. Activity Coefficients of Ethers and Alcohols in 1-Methyl-3-Ethyl-Imidazolium Bis(trifluoromethyl-sulfonyl) Imide Using the Transpiration Method
Source: J. Chem. Eng. Data, 2005, 10.1021/je0497799
Compound 1: 1,4-butanediol, C4H10O2, InChI=1S/C4H10O2/c5-3-1-2-4-6/h5-6H,1-4H2, purity 97%
Compound 2: anisole, C7H8O, InChI=1S/C7H8O/c1-8-7-5-3-2-4-6-7/h2-6H,1H3, purity 97%
Compound 3: benzenemethanol, C7H8O, InChI=1S/C7H8O/c8-6-7-4-2-1-3-5-7/h1-5,8H,6H2, purity 98%
Compound 4: 1-ethyl-3-methylimidazolium bis((trifluoromethyl)sulfonyl)imide, C8H11F6N3O4S2, InChI=1S/C6H11N2.C2F6NO4S2/c1-3-8-5-4-7(2)6-8;3-1(4,5)14(10,11)9-15(12,13)2(6,7)8/h4-6H,3H2,1-2H3;/q+1;-1
Compound 5: 1,2-ethanediol, C2H6O2, InChI=1S/C2H6O2/c3-1-2-4/h3-4H,1-2H2, purity 98%

System: 1,4-butanediol; phases: Liquid, Gas
Property: Vapor or sublimation pressure, kPa (Liquid); method: Transpiration method
Temperature, K	Vapor or sublimation pressure, kPa	uncertainty
329.2	0.01385	0.00069
332.3	0.01899	0.00095
335.2	0.02437	0.00122
338.2	0.0322	0.0016
339.6	0.03538	0.00177
339.6	0.03538	0.00354
341.2	0.0394	0.002
343.2	0.04754	0.00238
343.6	0.04775	0.00239
343.6	0.04775	0.00478
346.3	0.05971	0.00299
348.2	0.06952	0.00348
348.6	0.06945	0.00347
348.6	0.06945	0.00695
351.2	0.08455	0.00423
353.2	0.1031	0.0052
353.6	0.09995	0.005
353.6	0.09995	0.01
356.2	0.1206	0.006
358.3	0.1421	0.0071
358.6	0.14239	0.00712
358.6	0.14239	0.01424
361.2	0.1671	0.0084
363.2	0.189	0.009

System: anisole; phases: Liquid, Gas
Property: Vapor or sublimation pressure, kPa (Liquid); method: Transpiration method
Temperature, K	Vapor or sublimation pressure, kPa	uncertainty
278.3	0.122	0.0061
281.3	0.1524	0.0076
284.3	0.1893	0.0095
287.3	0.2317	0.0116
290.3	0.2851	0.0143
293.3	0.3452	0.0173
296.3	0.4109	0.0206
298.6	0.50011	0.02502
298.6	0.50011	0.02502
299.3	0.5188	0.0259
302.2	0.6106	0.0305
303.6	0.67307	0.03366
303.6	0.67307	0.03366
306.2	0.765	0.0383
308.6	0.89211	0.04462
308.6	0.89211	0.04462
309.2	0.9292	0.0465
312.3	1.1139	0.0557
313.6	1.17831	0.05893
313.6	1.17831	0.05893
318.6	1.54331	0.07718
318.6	1.54331	0.07718
323.6	2.00425	0.10023

System: benzenemethanol; phases: Liquid, Gas
Property: Vapor or sublimation pressure, kPa (Liquid); method: Transpiration method
Temperature, K	Vapor or sublimation pressure, kPa	uncertainty
282.2	0.00272	0.00014
285.2	0.00368	0.00018
288.2	0.00516	0.00026
291.2	0.00688	0.00034
294.1	0.0089	0.00045
297.2	0.01148	0.00057
298.6	0.01302	0.00065
300.2	0.01549	0.00078
303.2	0.01959	0.00098
303.6	0.0199	0.001
305.2	0.02377	0.00119
308.1	0.02895	0.00145
308.6	0.03025	0.00151
311.2	0.03779	0.00189
313.6	0.04536	0.00227
314.1	0.04668	0.00233
318.6	0.06717	0.00336
323.6	0.09827	0.00492

System: 1,2-ethanediol; phases: Liquid, Gas
Property: Vapor or sublimation pressure, kPa (Liquid); method: Transpiration method
Temperature, K	Vapor or sublimation pressure, kPa	uncertainty
303.2	0.01799	0.0009
306.2	0.02275	0.00114
308.2	0.02639	0.00132
310.2	0.03107	0.00155
313.2	0.04027	0.00201
316.2	0.0495	0.00248
318.2	0.05997	0.003
320.2	0.06797	0.0034
323.2	0.08464	0.00423
326.2	0.1053	0.0053
328.1	0.1244	0.0062
331.2	0.1523	0.0076
333.2	0.1792	0.009
336.2	0.2164	0.0108
339.6	0.27338	0.01367
343.6	0.357	0.01786
348.6	0.49408	0.02471
353.6	0.67755	0.03389
358.6	0.92101	0.04606
363.6	1.24141	0.06208

System: 1,2-ethanediol + 1-ethyl-3-methylimidazolium bis((trifluoromethyl)sulfonyl)imide; phases: Liquid, Gas
Property: Vapor or sublimation pressure, kPa (Liquid); method: TRANSPIR:UFactor:2
Mole fraction of 1,2-ethanediol	Temperature, K	Vapor or sublimation pressure, kPa	uncertainty
0	339.6	0	1e-05
0	343.6	0	1e-05
0	348.6	0	1e-05
0	353.6	0	1e-05
0	358.6	0	1e-05
0	363.6	0	1e-05
0.101	363.6	0.38066	0.03822
0.108	358.6	0.30227	0.03035
0.115	353.6	0.21876	0.02196
0.122	348.6	0.15414	0.01548
0.128	343.6	0.11535	0.01158
0.133	339.6	0.08793	0.00883
0.219	363.6	0.96047	0.09635
0.235	358.6	0.63736	0.06393
0.251	353.6	0.49427	0.04957
0.261	363.6	1.06544	0.10685
0.268	348.6	0.34276	0.03437
0.283	343.6	0.24443	0.02451
0.294	339.6	0.17604	0.01765
0.305	358.6	0.81724	0.08193
0.345	363.6	1.12528	0.11278
0.348	353.6	0.6058	0.06072
0.367	348.6	0.4397	0.04406
0.376	363.6	1.16775	0.11701
0.384	348.6	0.43478	0.04357
0.413	343.6	0.30444	0.0305
0.416	358.6	0.88008	0.08816
0.423	358.6	0.84516	0.08466
0.436	339.6	0.23912	0.02395
0.455	353.6	0.6183	0.06193
0.491	348.6	0.45591	0.04566
0.494	353.6	0.6372	0.06381
0.522	343.6	0.30608	0.03065
0.545	339.6	0.25385	0.02541
0.552	348.6	0.46036	0.04609
0.596	343.6	0.33224	0.03325
0.612	343.6	0.32006	0.03203
0.629	339.6	0.24626	0.02465
0.713	339.6	0.24964	0.02498
0.762	363.6	1.16993	0.11704
0.79	358.6	0.80638	0.08067
0.813	353.6	0.60461	0.06048
0.832	348.6	0.45264	0.04527
0.848	343.6	0.33162	0.03317
0.86	339.6	0.2515	0.02516
0.931	363.6	1.22186	0.1222
0.936	358.6	0.87285	0.08729
0.94	353.6	0.68103	0.06811
0.944	348.6	0.512	0.05121
0.948	343.6	0.35303	0.03531
0.951	339.6	0.26138	0.02614
1	339.6	0.27338	0.02734
1	343.6	0.357	0.0357
1	348.6	0.49408	0.04941
1	353.6	0.67755	0.06776
1	358.6	0.92101	0.09211
1	363.6	1.24141	0.12415

System: 1,4-butanediol + 1-ethyl-3-methylimidazolium bis((trifluoromethyl)sulfonyl)imide; phases: Liquid, Gas
Property: Vapor or sublimation pressure, kPa (Liquid); method: TRANSPIR:UFactor:4
Mole fraction of 1,4-butanediol	Temperature, K	Vapor or sublimation pressure, kPa	uncertainty
0	339.6	0	1e-05
0	343.6	0	1e-05
0	348.6	0	1e-05
0	353.6	0	1e-05
0	358.6	0	1e-05
0.043	348.6	0.02386	0.00478
0.053	343.6	0.01595	0.00319
0.059	339.6	0.01191	0.00239
0.067	358.6	0.07389	0.0148
0.087	353.6	0.05112	0.01024
0.095	358.6	0.09754	0.01953
0.11	348.6	0.03579	0.00717
0.132	358.6	0.0916	0.01834
0.136	343.6	0.02436	0.00488
0.137	358.6	0.10323	0.02067
0.143	353.6	0.06418	0.01285
0.152	339.6	0.01818	0.00364
0.156	348.6	0.04527	0.00906
0.172	343.6	0.03036	0.00608
0.181	353.6	0.06754	0.01352
0.184	339.6	0.02186	0.00438
0.202	348.6	0.04851	0.00971
0.209	358.6	0.10566	0.02115
0.238	353.6	0.07765	0.01554
0.267	358.6	0.1284	0.0257
0.271	348.6	0.0527	0.01055
0.299	353.6	0.09241	0.01849
0.307	343.6	0.03516	0.00704
0.313	353.6	0.07545	0.0151
0.33	348.6	0.05013	0.01003
0.333	339.6	0.02429	0.00486
0.346	343.6	0.03519	0.00704
0.362	339.6	0.026	0.0052
0.387	343.6	0.03182	0.00637
0.398	339.6	0.0249	0.00498
0.51	358.6	0.14777	0.02956
0.529	353.6	0.10512	0.02103
0.54	358.6	0.13895	0.0278
0.556	353.6	0.09898	0.0198
0.709	358.6	0.15813	0.03163
0.72	353.6	0.11445	0.02289
0.778	358.6	0.14119	0.02824
0.782	353.6	0.09466	0.01893
0.785	348.6	0.06872	0.01375
0.788	343.6	0.04829	0.00966
0.79	339.6	0.03465	0.00693
0.841	358.6	0.14485	0.02897
0.846	353.6	0.1001	0.02002
0.849	348.6	0.06895	0.01379
0.853	343.6	0.04519	0.00904
0.855	339.6	0.03491	0.00698
0.916	358.6	0.14766	0.02953
0.918	353.6	0.10499	0.021
0.92	348.6	0.07224	0.01445
0.922	343.6	0.04938	0.00988
0.923	339.6	0.03629	0.00726
0.961	358.6	0.15586	0.03117
0.962	353.6	0.10881	0.02176
0.963	348.6	0.07624	0.01525
0.964	343.6	0.05114	0.01023
0.965	339.6	0.03659	0.00732
0.966	358.6	0.14953	0.02991
0.967	348.6	0.0776	0.01552
0.967	353.6	0.11122	0.02224
0.968	343.6	0.05259	0.01052
0.969	339.6	0.03892	0.00778
0.979	353.6	0.1052	0.02104
0.979	358.6	0.14918	0.02984
0.98	339.6	0.0363	0.00726
0.98	343.6	0.04901	0.0098
0.98	348.6	0.07411	0.01482
1	339.6	0.03538	0.00708
1	343.6	0.04775	0.00955
1	348.6	0.06945	0.01389
1	353.6	0.09995	0.01999
1	358.6	0.14239	0.02848

System: anisole + 1-ethyl-3-methylimidazolium bis((trifluoromethyl)sulfonyl)imide; phases: Liquid, Gas
Property: Vapor or sublimation pressure, kPa (Liquid); method: TRANSPIR:UFactor:2
Mole fraction of anisole	Temperature, K	Vapor or sublimation pressure, kPa	uncertainty
0	298.6	0	1e-05
0	303.6	0	1e-05
0	308.6	0	1e-05
0	313.6	0	1e-05
0	318.6	0	1e-05
0	323.6	0	1e-05
0.059	323.6	0.49244	0.04947
0.076	323.6	0.55803	0.05605
0.088	318.6	0.39531	0.0397
0.108	318.6	0.46541	0.04673
0.118	313.6	0.31206	0.03134
0.143	313.6	0.41476	0.04164
0.146	308.6	0.24723	0.02482
0.174	303.6	0.19298	0.01937
0.185	308.6	0.3412	0.03424
0.2	298.6	0.15551	0.0156
0.232	303.6	0.285	0.02859
0.239	323.6	1.18083	0.11843
0.303	318.6	1.09563	0.10984
0.37	313.6	0.89265	0.08946
0.377	298.6	0.26175	0.02624
0.493	303.6	0.52933	0.05301
0.569	298.6	0.34576	0.03462
0.572	323.6	1.73892	0.17406
0.598	318.6	1.40291	0.14042
0.621	313.6	1.0354	0.10363
0.642	308.6	0.75394	0.07545
0.661	303.6	0.58089	0.05813
0.679	298.6	0.43162	0.04319
0.686	323.6	1.92527	0.19263
0.713	318.6	1.60742	0.16082
0.74	313.6	1.15989	0.11604
0.764	308.6	0.87572	0.0876
0.783	303.6	0.64017	0.06404
0.796	298.6	0.43015	0.04303
0.904	323.6	1.95005	0.19502
0.907	318.6	1.54661	0.15468
0.911	313.6	1.15625	0.11564
0.914	308.6	0.91359	0.09137
0.917	303.6	0.67031	0.06704
0.92	298.6	0.49664	0.04967
1	298.6	0.50011	0.05002
1	303.6	0.67307	0.06731
1	308.6	0.89211	0.08922
1	313.6	1.17831	0.11784
1	318.6	1.54331	0.15434
1	323.6	2.00425	0.20043

System: benzenemethanol + 1-ethyl-3-methylimidazolium bis((trifluoromethyl)sulfonyl)imide; phases: Liquid, Gas
Property: Vapor or sublimation pressure, kPa (Liquid); method: TRANSPIR:UFactor:2
Mole fraction of benzenemethanol	Temperature, K	Vapor or sublimation pressure, kPa	uncertainty
0	298.6	0	1e-05
0	303.6	0	1e-05
0	308.6	0	1e-05
0	313.6	0	1e-05
0	318.6	0	1e-05
0	323.6	0	1e-05
0.039	323.6	0.00871	0.00088
0.042	318.6	0.00582	0.00058
0.045	313.6	0.00407	0.00041
0.046	308.6	0.00257	0.00026
0.048	303.6	0.00188	0.00019
0.049	298.6	0.00114	0.00011
0.112	323.6	0.01805	0.00181
0.123	318.6	0.01313	0.00132
0.134	313.6	0.00867	0.00087
0.144	308.6	0.00594	0.0006
0.151	303.6	0.00399	0.0004
0.154	298.6	0.00287	0.00029
0.183	308.6	0.00662	0.00066
0.245	318.6	0.01994	0.002
0.252	313.6	0.01306	0.00131
0.259	308.6	0.0087	0.00087
0.265	303.6	0.00595	0.0006
0.27	298.6	0.00389	0.00039
0.371	323.6	0.04354	0.00436
0.376	318.6	0.02773	0.00278
0.382	313.6	0.01855	0.00186
0.391	303.6	0.00794	0.0008
0.395	298.6	0.00583	0.00058
0.448	323.6	0.04851	0.00486
0.459	318.6	0.03021	0.00303
0.467	313.6	0.02199	0.0022
0.473	308.6	0.01738	0.00174
0.478	303.6	0.01053	0.00105
0.48	323.6	0.05658	0.00567
0.482	298.6	0.00716	0.00072
0.498	318.6	0.0402	0.00403
0.514	313.6	0.02738	0.00274
0.527	308.6	0.01862	0.00186
0.535	323.6	0.06097	0.0061
0.539	303.6	0.01235	0.00124
0.54	318.6	0.04225	0.00423
0.549	298.6	0.00819	0.00082
0.55	308.6	0.02043	0.00205
0.655	323.6	0.06857	0.00686
0.66	318.6	0.04814	0.00482
0.663	313.6	0.0328	0.00328
0.666	308.6	0.02193	0.00219
0.668	303.6	0.01553	0.00155
0.67	298.6	0.01042	0.00104
0.844	323.6	0.08395	0.0084
0.846	318.6	0.05951	0.00595
0.848	313.6	0.0423	0.00423
0.849	308.6	0.02906	0.00291
0.85	303.6	0.01764	0.00176
0.851	298.6	0.01166	0.00117
0.962	323.6	0.0961	0.00961
0.963	298.6	0.0139	0.00139
0.963	303.6	0.02092	0.00209
0.963	308.6	0.03165	0.00317
0.963	313.6	0.04519	0.00452
0.963	318.6	0.06753	0.00675
1	298.6	0.01302	0.0013
1	303.6	0.0199	0.00199
1	308.6	0.03025	0.00303
1	313.6	0.04536	0.00454
1	318.6	0.06717	0.00672
1	323.6	0.09827	0.00983
