Measured thermophysical data. Temperature and Volume Dependence of the Viscosity of Water and Heavy Water at Low Temperatures
Source: J. Chem. Eng. Data, 2004, 10.1021/je049918m
Compound 1: water, H2O, InChI=1S/H2O/h1H2
Compound 2: water-d2, D2O, InChI=1S/H2O/h1H2/i/hD2, purity 99.9%

System: water; phases: Liquid
Property: Viscosity, Pa*s (Liquid); method: Falling or rolling sphere viscometry
Temperature, K	Pressure, kPa	Viscosity, Pa*s	uncertainty
255.65	177500	0.002945	3.8e-05
255.65	190300	0.002955	3.8e-05
255.65	196700	0.002959	3.8e-05
255.65	201800	0.002964	3.8e-05
255.65	231800	0.003003	3.8e-05
255.65	257800	0.003056	3.9e-05
255.65	292300	0.003135	4e-05
255.65	321100	0.003217	4.1e-05
258.15	159300	0.002678	3.4e-05
258.15	188400	0.00269	3.4e-05
258.15	205200	0.002708	3.5e-05
258.15	209200	0.00271	3.5e-05
258.15	239800	0.002754	3.5e-05
258.15	282600	0.002834	3.6e-05
258.15	309000	0.002898	3.7e-05
258.15	323500	0.002934	3.8e-05
258.15	333200	0.002957	3.8e-05
258.15	354100	0.003019	3.9e-05
258.15	361000	0.003033	3.9e-05
263.15	112000	0.002258	2.9e-05
263.15	112100	0.002258	2.9e-05
263.15	128600	0.002247	2.9e-05
263.15	150800	0.002244	2.9e-05
263.15	180700	0.002256	2.9e-05
263.15	209900	0.002281	2.9e-05
263.15	240100	0.002315	3e-05
263.15	270500	0.002357	3e-05
263.15	302000	0.002415	3.1e-05
263.15	335400	0.002481	3.2e-05
263.15	386400	0.002605	3.3e-05
268.15	61100	0.001969	2.5e-05
268.15	80800	0.001942	2.5e-05
268.15	98000	0.001927	2.5e-05
268.15	100200	0.001926	2.5e-05
268.15	124200	0.001914	2.5e-05
268.15	151100	0.001913	2.5e-05
268.15	177500	0.001924	2.5e-05
268.15	213300	0.001949	2.5e-05
268.15	245400	0.001982	2.5e-05
268.15	295300	0.002047	2.6e-05
268.15	350800	0.002138	2.7e-05
268.15	376700	0.00219	2.8e-05
268.15	387900	0.002212	2.8e-05
273.15	100	0.001799	2.3e-05
273.15	30700	0.001722	2.2e-05
273.15	60400	0.001678	2.2e-05
273.15	90700	0.001653	2.1e-05
273.15	120600	0.001644	2.1e-05
273.15	150300	0.001649	2.1e-05
273.15	180000	0.001659	2.1e-05
273.15	209600	0.001678	2.2e-05
273.15	240300	0.001704	2.2e-05
273.15	270400	0.001735	2.2e-05
273.15	300400	0.001771	2.3e-05
273.15	330300	0.00181	2.3e-05
273.15	359500	0.001852	2.4e-05
273.15	386700	0.001893	2.4e-05
273.15	100	0.001802	2.3e-05
278.15	100	0.001528	2.1e-05
278.15	600	0.001527	2e-05
278.15	30700	0.001481	1.9e-05
278.15	60700	0.001454	1.9e-05
278.15	90500	0.00144	1.8e-05
278.15	120300	0.001439	1.8e-05
278.15	150800	0.001444	1.9e-05
278.15	180700	0.001456	1.9e-05
278.15	210700	0.001476	1.9e-05
278.15	240400	0.001498	1.9e-05
278.15	270400	0.001522	2e-05
278.15	300600	0.001555	2e-05
278.15	330300	0.001591	2e-05
278.15	360000	0.001631	2.1e-05
278.15	389000	0.001672	2.1e-05
278.15	100	0.001528	2.1e-05
283.15	100	0.001313	2.5e-05
283.15	500	0.00131	2.3e-05
283.15	30700	0.00128	1.6e-05
283.15	60700	0.001264	1.6e-05
283.15	90700	0.001257	1.6e-05
283.15	120800	0.001257	1.6e-05
283.15	150800	0.001263	1.6e-05
283.15	180800	0.001275	1.6e-05
283.15	210200	0.001293	1.7e-05
283.15	240600	0.001314	1.7e-05
283.15	270700	0.001337	1.7e-05
283.15	300200	0.001362	1.7e-05
283.15	330000	0.00139	1.8e-05
283.15	359200	0.00142	1.8e-05
283.15	385200	0.00145	1.9e-05
283.15	100	0.00131	2.5e-05
283.15	100	0.00131	2.5e-05
298.15	100	0.000892	1.1e-05
298.15	31000	0.000888	1.1e-05
298.15	61000	0.000888	1.1e-05
298.15	90900	0.000891	1.1e-05
298.15	120700	0.000898	1.2e-05
298.15	150600	0.000907	1.2e-05
298.15	180600	0.000919	1.2e-05
298.15	210600	0.000933	1.2e-05
298.15	240600	0.000948	1.2e-05
298.15	270100	0.000965	1.2e-05
298.15	299700	0.000983	1.3e-05
298.15	329200	0.001002	1.3e-05
298.15	358500	0.001022	1.3e-05
298.15	384300	0.001042	1.3e-05
298.15	100	0.000892	1.1e-05
298.15	100	0.000893	1.1e-05
298.15	100	0.000893	1.1e-05
298.15	100	0.000893	1.1e-05

System: water-d2; phases: Liquid
Property: Viscosity, Pa*s (Liquid); method: Falling or rolling sphere viscometry
Temperature, K	Pressure, kPa	Viscosity, Pa*s	uncertainty
255.65	212200	0.003963	5.5e-05
255.65	220100	0.003973	5.5e-05
255.65	239200	0.004012	5.5e-05
255.65	249500	0.004036	5.6e-05
258.15	196900	0.003566	4.9e-05
258.15	215300	0.003588	4.9e-05
258.15	242900	0.003629	5e-05
258.15	271000	0.003697	5.1e-05
258.15	298500	0.003777	5.2e-05
258.15	315600	0.003835	5.3e-05
263.15	153200	0.002939	4e-05
263.15	160800	0.002937	4e-05
263.15	185300	0.002944	4e-05
263.15	200800	0.002953	4.1e-05
263.15	249500	0.00302	4.2e-05
263.15	299600	0.003125	4.3e-05
263.15	347100	0.00326	4.5e-05
263.15	383400	0.003381	4.7e-05
268.15	109700	0.002494	3.4e-05
268.15	125300	0.002475	3.4e-05
268.15	150900	0.002468	3.4e-05
268.15	174700	0.002464	3.4e-05
268.15	201200	0.002481	3.4e-05
268.15	251400	0.002535	3.5e-05
268.15	289200	0.002601	3.6e-05
268.15	325500	0.002675	3.7e-05
268.15	390600	0.00285	3.9e-05
273.15	52000	0.002196	3e-05
273.15	69600	0.002159	3e-05
273.15	99700	0.002116	2.9e-05
273.15	130400	0.002098	2.9e-05
273.15	150600	0.002096	2.9e-05
273.15	177300	0.002103	2.9e-05
273.15	204300	0.002119	2.9e-05
273.15	223000	0.002135	2.9e-05
273.15	252900	0.002165	3e-05
273.15	279500	0.002203	3e-05
273.15	302900	0.002234	3.1e-05
273.15	350500	0.002318	3.2e-05
273.15	357500	0.002336	3.2e-05
273.15	395200	0.002435	3.4e-05
273.15	99700	0.002116	2.9e-05
278.15	100	0.001987	2.7e-05
278.15	3100	0.001977	2.7e-05
278.15	5600	0.001968	2.7e-05
278.15	8100	0.001961	2.7e-05
278.15	10800	0.001952	2.7e-05
278.15	25900	0.001911	2.6e-05
278.15	50800	0.001862	2.6e-05
278.15	75600	0.001829	2.5e-05
278.15	100700	0.001811	2.5e-05
278.15	125600	0.001803	2.5e-05
278.15	150500	0.001802	2.5e-05
278.15	174500	0.001809	2.5e-05
278.15	199100	0.001822	2.5e-05
278.15	224100	0.001841	2.5e-05
278.15	249600	0.001865	2.6e-05
278.15	299700	0.001922	2.6e-05
278.15	349100	0.001993	2.7e-05
283.15	100	0.001677	2.3e-05
283.15	200	0.001676	2.3e-05
283.15	3000	0.00167	2.3e-05
283.15	5600	0.001665	2.3e-05
283.15	8100	0.00166	2.3e-05
283.15	10800	0.001655	2.3e-05
283.15	25800	0.001629	2.2e-05
283.15	50800	0.001597	2.2e-05
283.15	100800	0.001569	2.2e-05
283.15	125500	0.001566	2.2e-05
283.15	150600	0.00157	2.2e-05
283.15	150800	0.001569	2.2e-05
283.15	175500	0.001579	2.2e-05
283.15	199400	0.001592	2.2e-05
283.15	199700	0.001592	2.2e-05
283.15	224300	0.001608	2.2e-05
283.15	249600	0.001629	2.2e-05
283.15	249700	0.00163	2.2e-05
283.15	299200	0.001678	3e-05
283.15	299600	0.001678	3e-05
283.15	348600	0.001737	2.4e-05
283.15	348700	0.001737	2.4e-05
283.15	200	0.001677	2.3e-05
283.15	50800	0.001598	2.2e-05
283.15	100800	0.001567	2.2e-05
298.15	100	0.001095	1.5e-05
298.15	200	0.001095	1.5e-05
298.15	5600	0.001092	1.5e-05
298.15	8000	0.00109	1.5e-05
298.15	10300	0.001091	1.5e-05
298.15	10700	0.00109	1.5e-05
298.15	25700	0.001084	1.5e-05
298.15	30700	0.001084	1.5e-05
298.15	50700	0.001081	1.5e-05
298.15	60700	0.001079	1.5e-05
298.15	75600	0.00108	1.5e-05
298.15	90600	0.001081	1.5e-05
298.15	90700	0.001081	1.5e-05
298.15	100600	0.001081	1.5e-05
298.15	120700	0.001086	1.5e-05
298.15	125600	0.001087	1.5e-05
298.15	130600	0.001089	1.5e-05
298.15	150600	0.001094	1.5e-05
298.15	170500	0.001104	1.5e-05
298.15	175600	0.001105	1.5e-05
298.15	180600	0.001108	1.5e-05
298.15	200600	0.001117	1.5e-05
298.15	210200	0.001122	1.5e-05
298.15	210600	0.001123	1.5e-05
298.15	225500	0.001131	1.6e-05
298.15	240600	0.001141	1.6e-05
298.15	249700	0.001146	1.6e-05
298.15	270500	0.00116	1.6e-05
298.15	299600	0.001181	1.6e-05
298.15	300300	0.001182	1.6e-05
298.15	330100	0.001205	1.7e-05
298.15	331900	0.001205	1.7e-05
298.15	349000	0.001221	1.7e-05
298.15	359800	0.00123	1.7e-05
298.15	389400	0.001257	1.7e-05
298.15	100	0.001103	1.5e-05
298.15	200	0.001095	1.5e-05
298.15	50700	0.001079	1.5e-05
298.15	150600	0.001095	1.5e-05
298.15	100	0.001096	1.5e-05
298.15	100	0.001097	1.5e-05
298.15	100	0.001101	1.5e-05
298.15	100	0.001094	1.5e-05
298.15	100	0.001096	1.5e-05
