Measured thermophysical data. Solubility of Imidazoles, Benzimidazoles, and Phenylimidazoles in Dichloromethane, 1-Chlorobutane, Toluene, and 2-Nitrotoluene
Source: J. Chem. Eng. Data, 2004, 10.1021/je049907t
Compound 1: 1H-imidazole, C3H4N2, InChI=1S/C3H4N2/c1-2-5-3-4-1/h1-3H,(H,4,5), purity 99%
Compound 2: 2-methylimidazole, C4H6N2, InChI=1S/C4H6N2/c1-4-5-2-3-6-4/h2-3H,1H3,(H,5,6), purity 99%
Compound 3: benzimidazole, C7H6N2, InChI=1S/C7H6N2/c1-2-4-7-6(3-1)8-5-9-7/h1-5H,(H,8,9), purity 98%
Compound 4: 2-methylbenzimidazole, C8H8N2, InChI=1S/C8H8N2/c1-6-9-7-4-2-3-5-8(7)10-6/h2-5H,1H3,(H,9,10), purity 98%
Compound 5: 2-phenyl-1H-imidazole, C9H8N2, InChI=1S/C9H8N2/c1-2-4-8(5-3-1)9-10-6-7-11-9/h1-7H,(H,10,11), purity 98%
Compound 6: 2,4,5-triphenyl-1H-imidazole, C21H16N2, InChI=1S/C21H16N2/c1-4-10-16(11-5-1)19-20(17-12-6-2-7-13-17)23-21(22-19)18-14-8-3-9-15-18/h1-15H,(H,22,23), purity 98%
Compound 7: dichloromethane, CH2Cl2, InChI=1S/CH2Cl2/c2-1-3/h1H2, purity 99.6%
Compound 8: 1-chlorobutane, C4H9Cl, InChI=1S/C4H9Cl/c1-2-3-4-5/h2-4H2,1H3, purity 99.5%
Compound 9: toluene, C7H8, InChI=1S/C7H8/c1-7-5-3-2-4-6-7/h2-6H,1H3, purity 99%
Compound 10: 2-nitrotoluene, C7H7NO2, InChI=1S/C7H7NO2/c1-6-4-2-3-5-7(6)8(9)10/h2-5H,1H3, purity 99.5%
Compound 11: 4,5-diphenylimidazole, C15H12N2, InChI=1S/C15H12N2/c1-3-7-12(8-4-1)14-15(17-11-16-14)13-9-5-2-6-10-13/h1-11H,(H,16,17)

System: 2-methylimidazole; phases: Crystal 1, Liquid, Air at 1 atmosphere
Property: Normal melting temperature, K (Crystal 1); method: VISOBS
Normal melting temperature, K	uncertainty
419	0.5

System: benzimidazole; phases: Crystal 1, Liquid, Air at 1 atmosphere
Property: Normal melting temperature, K (Crystal 1); method: VISOBS
Normal melting temperature, K	uncertainty
445.51	0.5

System: 2-methylbenzimidazole; phases: Crystal 1, Liquid, Air at 1 atmosphere
Property: Normal melting temperature, K (Crystal 1); method: VISOBS
Normal melting temperature, K	uncertainty
451.43	0.5

System: 4,5-diphenylimidazole; phases: Crystal, Liquid, Air at 1 atmosphere
Property: Molar enthalpy of transition or fusion, kJ/mol (Crystal); method: DSC:UFactor:2
Molar enthalpy of transition or fusion, kJ/mol	uncertainty
34.185	1.915

System: 4,5-diphenylimidazole; phases: Crystal, Liquid, Air at 1 atmosphere
Property: Triple point temperature, K (Crystal); method: DTA:UFactor:2
Triple point temperature, K	uncertainty
504.84	1

System: 1-chlorobutane + 2-methylimidazole; phases: Liquid, Crystal 2
Fixed: Pressure, kPa = 101.3
Property: Solid-liquid equilibrium temperature, K (Liquid); method: VISOBS:UFactor:4
Mole fraction of 2-methylimidazole	Solid-liquid equilibrium temperature, K	uncertainty
0.001	300.36	9.3
0.0012	304.07	6.55
0.0016	308.4	4.71
0.0019	310.55	5.38
0.0023	315.79	3.42
0.0033	320.61	2.7
0.0036	322.81	3.6
0.004	325.58	2.16
0.0046	327.09	1.77
0.0052	329.55	1.45
0.0058	330.24	1.15
0.0064	331.87	1.44
0.0075	334.67	1.2
0.0083	335.72	0.85
0.0091	336.55	0.8
0.0095	336.95	0.8
0.0101	337.55	0.83
0.0103	337.85	0.71
0.011	338.24	0.68
0.0123	338.95	0.69
0.0139	340.05	0.7
0.0145	340.35	0.68
0.015	340.65	0.66
0.0158	340.98	0.66
0.017	341.58	0.66
0.0197	342.68	0.67
0.0262	345.97	0.66
0.0283	346.47	0.63
0.0309	346.87	0.64
0.034	348.06	0.64
0.0349	348.16	0.62
0.0361	348.26	0.63
0.0378	348.76	0.63
0.0399	348.96	0.62
0.0405	349.06	0.63
0.0495	349.59	0.64
0.0515	350.15	0.64

System: dichloromethane + 2-methylimidazole; phases: Liquid, Crystal 2
Fixed: Pressure, kPa = 101.3
Property: Solid-liquid equilibrium temperature, K (Liquid); method: VISOBS:UFactor:8
Mole fraction of 2-methylimidazole	Solid-liquid equilibrium temperature, K	uncertainty
0.0231	296.48	1.3
0.027	299.45	1.26
0.0361	302.86	1.31
0.0372	303.82	1.26
0.0398	304.47	1.26
0.0448	307.08	1.25
0.0547	308.93	1.26
0.0565	309.67	1.26
0.0673	312.47	1.25
0.0733	313.88	1.25
0.0813	316.97	1.25
0.0898	318.86	1.24
0.0899	319.28	1.24
0.1031	321.45	1.24
0.1094	323.12	1.25
0.114	324.47	1.25
0.116	325.58	1.27
0.1277	328.52	1.24
0.1347	329.6	1.24
0.1486	332.41	1.24
0.1538	333.23	1.25
0.16	335.45	1.25
0.1665	336.75	1.24
0.1727	338.07	1.24
0.1877	340.65	1.24
0.1974	342.73	1.25
0.2017	344.47	1.25
0.2146	347.95	1.25
0.2203	348.75	1.24
0.2293	350.07	1.24
0.238	351.88	1.24
0.2404	352.65	1.24
0.2455	353.38	1.24
0.2537	354.67	1.24
0.2577	355.45	1.24
0.2683	357.19	1.24
0.2734	358.09	1.24
0.284	359.57	1.24
0.2981	361.78	1.24
0.3043	363.06	1.24
0.3166	365.49	1.24
0.3225	366.87	1.24
0.3318	368.27	1.24

System: dichloromethane + 2-methylimidazole; phases: Liquid, Crystal 1
Property: Solid-liquid equilibrium temperature, K (Liquid); method: VISOBS:UFactor:8
Mole fraction of 2-methylimidazole	Pressure, kPa	Solid-liquid equilibrium temperature, K	uncertainty
0.3425	101.3	370.31	1.24

System: toluene + 2-methylimidazole; phases: Liquid, Crystal 2
Fixed: Pressure, kPa = 101.3
Property: Solid-liquid equilibrium temperature, K (Liquid); method: VISOBS:UFactor:4
Mole fraction of 2-methylimidazole	Solid-liquid equilibrium temperature, K	uncertainty
0.0042	324.47	4.47
0.0053	334.22	3.5
0.0056	333.27	3.42
0.006	335.83	1.49
0.0062	338.09	1.49
0.007	338.78	0.73
0.0088	340.09	0.74
0.0095	340.85	0.81
0.0109	342.28	0.69
0.011	342.05	0.69
0.0128	342.85	0.64
0.0149	343.26	0.63
0.017	343.92	0.64
0.0172	344.05	0.64
0.0182	344.38	0.63
0.0217	345.24	0.63
0.0266	346.1	0.63
0.0283	346.5	0.63
0.0355	347.69	0.62
0.0355	347.56	0.62
0.0451	348.65	0.62
0.0477	349.01	0.62
0.0562	350.07	0.62
0.0645	350.85	0.62
0.0681	351.19	0.62
0.0837	352.58	0.62
0.0904	353.15	0.62
0.0955	353.49	0.62
0.112	354.34	0.62
0.1142	354.34	0.62
0.123	354.72	0.62
0.1382	355.15	0.62
0.1584	355.88	0.62
0.2014	356.88	0.62
0.2105	357.15	0.62
0.2118	357.15	0.62
0.2351	357.65	0.62
0.2644	358.5	0.62

System: 2-nitrotoluene + 2-methylimidazole; phases: Liquid, Crystal 2
Fixed: Pressure, kPa = 101.3
Property: Solid-liquid equilibrium temperature, K (Liquid); method: VISOBS:UFactor:8
Mole fraction of 2-methylimidazole	Solid-liquid equilibrium temperature, K	uncertainty
0.0668	333.97	1.25
0.0858	341.06	1.24
0.1335	347.74	1.24
0.1805	353.97	1.24
0.1998	355.88	1.24
0.2315	358.34	1.24
0.2546	359.97	1.24
0.2723	361.08	1.24
0.3142	365.17	1.24
0.3238	366.53	1.24
0.3374	368.42	1.24
0.3429	367.13	1.24
0.3472	367.67	1.24
0.3563	368.26	1.24

System: 2-nitrotoluene + 2-methylimidazole; phases: Liquid, Crystal 1
Fixed: Pressure, kPa = 101.3
Property: Solid-liquid equilibrium temperature, K (Liquid); method: VISOBS:UFactor:8
Mole fraction of 2-methylimidazole	Solid-liquid equilibrium temperature, K	uncertainty
0.3873	370.45	1.24
0.3923	371.57	1.24
0.4176	373.46	1.24
0.4419	375.65	1.24
0.4475	375.87	1.24
0.5288	384.15	1.25
0.5373	386.17	1.25
0.597	390.13	1.24
0.6157	392.67	1.24
0.6965	397.06	1.24
0.7244	400.37	1.24
0.7666	402.82	1.24
0.7968	405.19	1.24
0.82	406.36	1.24
0.8809	408.88	1.24
0.9131	410.75	1.24
0.943	413.23	1.24
0.9624	415.16	1.24

System: benzimidazole + 1-chlorobutane; phases: Liquid, Crystal 2
Fixed: Pressure, kPa = 101.3
Property: Solid-liquid equilibrium temperature, K (Liquid); method: VISOBS:UFactor:8
Mole fraction of benzimidazole	Solid-liquid equilibrium temperature, K	uncertainty
0.0009	296.33	1.24
0.0009	296.72	1.24
0.0009	300.7	1.24
0.001	305.34	1.24
0.001	308.99	1.24
0.001	308.24	1.24
0.0011	311.77	1.24
0.0011	312.54	1.24
0.0011	313.83	1.24
0.0012	316.32	1.24
0.0012	317.57	1.24
0.0013	318.76	1.24
0.0013	320.09	1.24
0.0013	321.98	1.24
0.0014	322.65	1.24
0.0014	324.64	1.24
0.0015	326.56	1.24
0.0015	327.45	1.24
0.0015	328.37	1.24
0.0016	329.88	1.24
0.0016	330.43	1.24
0.0016	331.91	1.24
0.0017	332.89	1.24
0.0017	333.77	1.24
0.0017	334.83	1.24
0.0018	335.59	1.24
0.0018	336.58	1.24
0.0018	336.95	1.24
0.0019	337.61	1.24
0.0019	338.57	1.24
0.002	339.09	1.24
0.002	339.57	1.24
0.002	340.19	1.24
0.0021	340.99	1.24
0.0021	341.51	1.24
0.0021	341.9	1.24
0.0022	342.03	1.24
0.0022	342.28	1.24
0.0022	342.57	1.24
0.0023	342.58	1.24
0.0023	342.97	1.24
0.0023	343.46	1.24
0.0023	343.27	1.24
0.0023	343.63	1.24
0.0024	343.8	1.24
0.0024	344.33	1.24

System: benzimidazole + dichloromethane; phases: Liquid, Crystal 2
Fixed: Pressure, kPa = 101.3
Property: Solid-liquid equilibrium temperature, K (Liquid); method: VISOBS:UFactor:8
Mole fraction of benzimidazole	Solid-liquid equilibrium temperature, K	uncertainty
0.0034	306.08	2.2
0.0041	308.62	3.28
0.0048	314.57	4.14
0.0054	318.88	3.29
0.0064	324.42	2.28
0.0078	328.25	1.84
0.0105	335.54	1.75
0.0112	336.29	1.46
0.0139	340.65	1.55
0.0149	343.45	1.55
0.0163	345.18	1.35
0.0178	346.55	1.35
0.0184	347.56	1.37
0.0191	348.06	1.26
0.0195	347.97	1.25
0.0206	348.46	1.27
0.0213	348.97	1.27
0.0223	349.45	1.28
0.0236	350.4	1.29
0.0244	350.89	1.27
0.0253	351.35	1.28
0.0263	352.08	1.28
0.0268	352.24	1.24
0.0275	352.26	1.29
0.0287	353.47	1.26
0.0294	352.95	1.24
0.031	353	1.24
0.0319	352.96	1.26
0.0329	353.94	1.25
0.0341	353.67	1.25
0.0354	354.86	1.26
0.038	355.55	1.25
0.0403	356.53	1.27
0.0412	357.38	1.33

System: benzimidazole + toluene; phases: Liquid, Crystal 2
Fixed: Pressure, kPa = 101.3
Property: Solid-liquid equilibrium temperature, K (Liquid); method: VISOBS:UFactor:8
Mole fraction of benzimidazole	Solid-liquid equilibrium temperature, K	uncertainty
0.0009	297.97	1.24
0.0012	314.02	1.24
0.0014	318.98	1.24
0.0017	324.75	1.24
0.0019	327.45	1.24
0.0022	329.85	1.24
0.0026	337.55	1.24
0.0032	342.25	1.24
0.0035	345.85	1.24
0.0039	348.55	1.24
0.0041	350.35	1.24
0.0043	351.18	1.24
0.0044	352.67	1.24
0.0046	353.85	1.24
0.0048	355.12	1.24
0.005	355.97	1.24
0.0052	357.18	1.24
0.0055	358.95	1.24
0.0058	360.36	1.24
0.0062	362.2	1.24
0.0064	363.15	1.24
0.0065	363.65	1.24
0.0066	363.85	1.24
0.0067	363.85	1.24
0.0075	365.23	1.24

System: benzimidazole + 2-nitrotoluene; phases: Liquid, Crystal 2
Fixed: Pressure, kPa = 101.3
Property: Solid-liquid equilibrium temperature, K (Liquid); method: VISOBS:UFactor:8
Mole fraction of benzimidazole	Solid-liquid equilibrium temperature, K	uncertainty
0.0105	316.65	1.49
0.0144	323.17	1.4
0.0209	330.58	1.35
0.0264	335.86	1.31
0.0311	339.45	1.28
0.0414	345.19	1.26
0.0479	347.76	1.26
0.0505	349.78	1.26
0.0557	351.74	1.25
0.0629	354.05	1.25
0.072	357.85	1.26
0.0753	359.15	1.25
0.0894	362.76	1.25
0.0969	364.95	1.25
0.1087	367.45	1.24
0.1323	372.4	1.24
0.1488	374.25	1.24
0.1937	381.7	1.24

System: benzimidazole + 2-nitrotoluene; phases: Liquid, Crystal 1
Fixed: Pressure, kPa = 101.3
Property: Solid-liquid equilibrium temperature, K (Liquid); method: VISOBS:UFactor:8
Mole fraction of benzimidazole	Solid-liquid equilibrium temperature, K	uncertainty
0.2267	384.01	1.24
0.2494	384.55	1.24
0.2553	383.55	1.24
0.2691	384.95	1.24
0.2819	386.35	1.24
0.3041	390.67	1.24
0.3523	397.95	1.24
0.4249	407.05	1.24
0.4557	410.65	1.24
0.4911	414.15	1.24
0.5111	416.25	1.24
0.5598	421.85	1.24
0.6379	428.55	1.24
0.6777	430.95	1.24
0.7725	438.05	1.24
0.7987	438.35	1.24

System: 1-chlorobutane + 2-methylbenzimidazole; phases: Liquid, Crystal 2
Fixed: Pressure, kPa = 101.3
Property: Solid-liquid equilibrium temperature, K (Liquid); method: VISOBS:UFactor:8
Mole fraction of 2-methylbenzimidazole	Solid-liquid equilibrium temperature, K	uncertainty
0.0005	290.39	1.24
0.0005	291.68	1.24
0.0006	293.51	1.24
0.0006	298.82	1.24
0.0006	302.58	1.24
0.0007	305.53	1.24
0.0007	307.87	1.24
0.0007	308.55	1.24
0.0007	309.66	1.24
0.0007	311.39	1.24
0.0008	312.96	1.24
0.0008	315.07	1.24
0.0008	316.34	1.24
0.0009	317.71	1.24
0.0009	319.44	1.24
0.0009	320.03	1.24
0.001	322.65	1.24
0.001	323.75	1.24
0.0011	324.2	1.24
0.0012	325.97	1.24
0.0013	328.16	1.24
0.0014	328.95	1.24
0.0016	331.57	1.24
0.0018	332.83	1.24
0.0019	334.91	1.24
0.0021	336.48	1.24
0.0023	338.33	1.24
0.0025	340.17	1.24
0.0028	342.91	1.24
0.0031	344.47	1.24
0.0032	345.15	1.24

System: dichloromethane + 2-methylbenzimidazole; phases: Liquid, Crystal 2
Fixed: Pressure, kPa = 101.3
Property: Solid-liquid equilibrium temperature, K (Liquid); method: VISOBS:UFactor:8
Mole fraction of 2-methylbenzimidazole	Solid-liquid equilibrium temperature, K	uncertainty
0.0065	307.95	2.96
0.0075	313.33	1.95
0.009	315.75	1.42
0.0108	317.93	1.4
0.0142	322.39	1.34
0.0196	326.96	1.32
0.0246	331.88	1.28
0.0296	333.19	1.26
0.0352	336.75	1.26
0.0432	339.43	1.25
0.0463	339.67	1.25
0.0538	342.72	1.26
0.0591	344.78	1.25
0.0644	346.27	1.25
0.0684	348.04	1.25
0.0749	349.56	1.24
0.0786	350.28	1.24
0.0818	350.67	1.24
0.0874	352.23	1.25
0.0903	353.76	1.25
0.0928	353.95	1.24
0.0956	354.67	1.25
0.0983	355.37	1.25
0.1051	357.13	1.25
0.1075	358.12	1.25
0.1113	359.56	1.24
0.1165	360.18	1.24
0.1188	360.9	1.24
0.1222	361.16	1.24
0.1254	362.16	1.25

System: toluene + 2-methylbenzimidazole; phases: Liquid, Crystal 2
Fixed: Pressure, kPa = 101.3
Property: Solid-liquid equilibrium temperature, K (Liquid); method: VISOBS:UFactor:8
Mole fraction of 2-methylbenzimidazole	Solid-liquid equilibrium temperature, K	uncertainty
0.0008	307.98	10.95
0.0008	311.4	5.33
0.0011	314.51	11.27
0.0011	317.11	11.61
0.0013	319.21	9.47
0.0014	319.91	7.62
0.0016	323.56	6.83
0.0019	326.75	5.27
0.0021	328.66	4.57
0.0022	329.35	6.81
0.0024	332.55	6.07
0.0026	334.1	4.2
0.0027	334.97	4.07
0.0028	335.65	4.31
0.0029	336.62	4.04
0.0029	336.66	4.02
0.0032	338.78	3.94
0.0033	339.65	4.12
0.0034	340.35	3.48
0.0035	340.95	3.95
0.0036	341.85	3.25
0.0037	342.15	3.39
0.004	344.28	2.85
0.0046	346.88	2.45
0.0051	348.93	2.89
0.0054	351.15	2.39
0.0057	351.38	2.1
0.0064	354.36	2.25
0.0075	358.18	2.13
0.0084	361.28	1.88
0.0094	363.55	1.28
0.0095	363.61	1.88
0.0097	364.35	1.65
0.0099	364.48	1.69
0.0105	366.09	1.67
0.0111	367.16	1.6
0.0113	367.78	1.67
0.0118	368.77	1.63
0.0122	369.69	1.55
0.013	371.03	1.5

System: 2-nitrotoluene + 2-methylbenzimidazole; phases: Liquid, Crystal 2
Fixed: Pressure, kPa = 101.3
Property: Solid-liquid equilibrium temperature, K (Liquid); method: VISOBS:UFactor:16
Mole fraction of 2-methylbenzimidazole	Solid-liquid equilibrium temperature, K	uncertainty
0.0092	310.87	2.58
0.0137	317.35	2.55
0.0194	323.56	2.55
0.0238	329.18	2.57
0.0283	335.93	2.51
0.0351	338.96	2.49
0.037	339.85	2.49
0.0401	341.23	2.49
0.0447	343.18	2.49
0.0483	344.62	2.49
0.052	345.77	2.48
0.0587	347.17	2.48
0.0625	348.56	2.48
0.067	349.44	2.48
0.0714	350.37	2.48
0.0741	351.53	2.48
0.0773	352.36	2.48
0.08	353.18	2.48
0.0844	354.83	2.49
0.0881	356.07	2.48
0.0945	357.27	2.48
0.098	358.16	2.49
0.1043	361.05	2.49
0.1091	363.65	2.49
0.1145	364.75	2.49
0.1191	367.35	2.49
0.1236	369.25	2.48
0.1263	369.25	2.48
0.1317	370.85	2.48
0.135	371.32	2.48
0.1365	372.15	2.49
0.1452	374.33	2.48
0.1596	376.46	2.48
0.1714	378.36	2.48
0.1873	379.05	2.48
0.2128	383.42	2.48

System: 2-nitrotoluene + 2-methylbenzimidazole; phases: Liquid, Crystal 1
Fixed: Pressure, kPa = 101.3
Property: Solid-liquid equilibrium temperature, K (Liquid); method: VISOBS:UFactor:8
Mole fraction of 2-methylbenzimidazole	Solid-liquid equilibrium temperature, K	uncertainty
0.2168	385.36	1.24
0.2335	387.86	1.24
0.2511	390	1.24
0.2557	390.17	1.24
0.2792	394.46	1.24
0.2946	397.37	1.24
0.3052	398.36	1.24
0.3141	399.19	1.24
0.3212	400.45	1.24
0.3448	402.64	1.24
0.3616	404.66	1.24
0.3807	406.56	1.24
0.3915	407.88	1.24
0.3998	408.97	1.24
0.4184	409.93	1.24
0.441	412.06	1.24
0.4576	414.18	1.24
0.4827	416.69	1.24
0.492	417.55	1.24
0.5691	421.7	1.24
0.6352	427.62	1.24

System: 1-chlorobutane + 1H-imidazole; phases: Liquid, Crystal
Fixed: Pressure, kPa = 101.3
Property: Mole fraction of 1H-imidazole (Liquid); method: CHROM:UFactor:8
Temperature, K	Mole fraction of 1H-imidazole	uncertainty
298.15	8e-06	1e-07
303.15	9.3e-06	1e-07
313.15	1.1e-06	1e-07

System: dichloromethane + 1H-imidazole; phases: Liquid, Crystal
Fixed: Pressure, kPa = 101.3
Property: Mole fraction of 1H-imidazole (Liquid); method: Chromatography
Temperature, K	Mole fraction of 1H-imidazole	uncertainty
298.15	2.76e-05	1.7e-06
303.15	3.19e-05	7.6e-06
308.15	6.57e-05	7.7e-06
313.15	7.02e-05	1.8e-06

System: toluene + 1H-imidazole; phases: Liquid, Crystal
Fixed: Pressure, kPa = 101.3
Property: Mole fraction of 1H-imidazole (Liquid); method: Chromatography
Temperature, K	Mole fraction of 1H-imidazole	uncertainty
298.15	3.7e-05	4.6e-06
303.15	4.85e-05	4e-06
313.15	6.76e-05	3.8e-06

System: 2-nitrotoluene + 1H-imidazole; phases: Liquid, Crystal
Fixed: Pressure, kPa = 101.3
Property: Mole fraction of 1H-imidazole (Liquid); method: Chromatography
Temperature, K	Mole fraction of 1H-imidazole	uncertainty
298.15	1.24e-05	2e-07
303.15	1.29e-05	3e-07
313.15	1.42e-05	3e-07

System: 1-chlorobutane + 2-phenyl-1H-imidazole; phases: Liquid, Crystal
Fixed: Pressure, kPa = 101.3
Property: Mole fraction of 2-phenyl-1H-imidazole (Liquid); method: Chromatography
Temperature, K	Mole fraction of 2-phenyl-1H-imidazole	uncertainty
298.15	2.14e-06	6.1e-07
303.15	3.65e-06	2.6e-07
313.15	4.21e-06	1.2e-07

System: dichloromethane + 2-phenyl-1H-imidazole; phases: Liquid, Crystal
Fixed: Pressure, kPa = 101.3
Property: Mole fraction of 2-phenyl-1H-imidazole (Liquid); method: Chromatography
Temperature, K	Mole fraction of 2-phenyl-1H-imidazole	uncertainty
298.15	1.46e-05	7e-08
303.15	1.47e-05	1.4e-07
313.15	1.55e-05	1.7e-07

System: toluene + 2-phenyl-1H-imidazole; phases: Liquid, Crystal
Fixed: Pressure, kPa = 101.3
Property: Mole fraction of 2-phenyl-1H-imidazole (Liquid); method: Chromatography
Temperature, K	Mole fraction of 2-phenyl-1H-imidazole	uncertainty
298.15	5.97e-06	1.4e-07
303.15	6.32e-06	1.2e-07
313.15	6.86e-06	1.1e-07

System: 2-nitrotoluene + 2-phenyl-1H-imidazole; phases: Liquid, Crystal
Fixed: Pressure, kPa = 101.3
Property: Mole fraction of 2-phenyl-1H-imidazole (Liquid); method: Chromatography
Temperature, K	Mole fraction of 2-phenyl-1H-imidazole	uncertainty
298.15	2.7e-06	9e-08
303.15	2.91e-06	1.7e-07
313.15	3.89e-06	2e-07

System: 1-chlorobutane + 4,5-diphenylimidazole; phases: Liquid, Crystal
Fixed: Pressure, kPa = 101.3
Property: Mole fraction of 4,5-diphenylimidazole (Liquid); method: Chromatography
Temperature, K	Mole fraction of 4,5-diphenylimidazole	uncertainty
298.15	1.26e-06	5e-08
303.15	1.38e-06	7e-08
313.15	1.76e-06	8e-08

System: dichloromethane + 4,5-diphenylimidazole; phases: Liquid, Crystal
Fixed: Pressure, kPa = 101.3
Property: Mole fraction of 4,5-diphenylimidazole (Liquid); method: Chromatography
Temperature, K	Mole fraction of 4,5-diphenylimidazole	uncertainty
298.15	1.85e-06	1.35e-06
303.15	2.98e-06	9.2e-07
313.15	4.2e-06	7.6e-07

System: toluene + 4,5-diphenylimidazole; phases: Liquid, Crystal
Fixed: Pressure, kPa = 101.3
Property: Mole fraction of 4,5-diphenylimidazole (Liquid); method: Chromatography
Temperature, K	Mole fraction of 4,5-diphenylimidazole	uncertainty
298.15	3.01e-06	1.3e-07
303.15	3.33e-06	8e-08
313.15	3.57e-06	6e-08

System: 2-nitrotoluene + 4,5-diphenylimidazole; phases: Liquid, Crystal
Fixed: Pressure, kPa = 101.3
Property: Mole fraction of 4,5-diphenylimidazole (Liquid); method: Chromatography
Temperature, K	Mole fraction of 4,5-diphenylimidazole	uncertainty
298.15	1.91e-06	4e-08
303.15	1.91e-06	4e-08
313.15	1.95e-06	4e-08

System: 1-chlorobutane + 2,4,5-triphenyl-1H-imidazole; phases: Liquid, Crystal
Fixed: Pressure, kPa = 101.3
Property: Mole fraction of 2,4,5-triphenyl-1H-imidazole (Liquid); method: Chromatography
Temperature, K	Mole fraction of 2,4,5-triphenyl-1H-imidazole	uncertainty
298.15	1.54e-06	1.8e-07
303.15	1.97e-06	9e-08
313.15	2.18e-06	6e-08

System: dichloromethane + 2,4,5-triphenyl-1H-imidazole; phases: Liquid, Crystal
Fixed: Pressure, kPa = 101.3
Property: Mole fraction of 2,4,5-triphenyl-1H-imidazole (Liquid); method: Chromatography
Temperature, K	Mole fraction of 2,4,5-triphenyl-1H-imidazole	uncertainty
298.15	1.41e-06	1.3e-07
303.15	1.73e-06	1e-07
313.15	2.11e-06	9e-08

System: toluene + 2,4,5-triphenyl-1H-imidazole; phases: Liquid, Crystal
Fixed: Pressure, kPa = 101.3
Property: Mole fraction of 2,4,5-triphenyl-1H-imidazole (Liquid); method: Chromatography
Temperature, K	Mole fraction of 2,4,5-triphenyl-1H-imidazole	uncertainty
298.15	1.95e-06	6e-08
303.15	2.04e-06	7e-08
313.15	2.36e-06	8e-08
