Measured thermophysical data. Measurement of Isobaric Vapor - Liquid Equilibria of Dimethyl Carbonate with Acetone, 2-Butanone and 2-Pentanone at 101.3 kPa and Density and Speed of Sound at 298.15 K
Source: J. Chem. Eng. Data, 2005, 10.1021/je0497000
Compound 1: dimethyl carbonate, C3H6O3, InChI=1S/C3H6O3/c1-5-3(4)6-2/h1-2H3, purity 99%
Compound 2: acetone, C3H6O, InChI=1S/C3H6O/c1-3(2)4/h1-2H3, purity 99.8%
Compound 3: butanone, C4H8O, InChI=1S/C4H8O/c1-3-4(2)5/h3H2,1-2H3, purity 99.5%
Compound 4: pentan-2-one, C5H10O, InChI=1S/C5H10O/c1-3-4-5(2)6/h3-4H2,1-2H3, purity 99.5%

System: dimethyl carbonate; phases: Liquid, Gas
Property: Normal boiling temperature, K (Liquid); method: EBULLIO:UFactor:32:FP
Normal boiling temperature, K	uncertainty
363.46	0.13

System: dimethyl carbonate; phases: Liquid
Property: Speed of sound, m/s (Liquid); method: FPINT:UFactor:2
Pressure, kPa	Temperature, K	Speed of sound, m/s	uncertainty
101.3	298.15	1198	2

System: dimethyl carbonate; phases: Liquid
Property: Mass density, kg/m3 (Liquid); method: VIBTUB:UFactor:2
Temperature, K	Pressure, kPa	Mass density, kg/m3	uncertainty
298.15	101.3	1063.33	0.56

System: acetone; phases: Liquid, Gas
Property: Normal boiling temperature, K (Liquid); method: EBULLIO:UFactor:32:FP
Normal boiling temperature, K	uncertainty
329.27	0.13

System: acetone; phases: Liquid
Property: Speed of sound, m/s (Liquid); method: FPINT:UFactor:2
Pressure, kPa	Temperature, K	Speed of sound, m/s	uncertainty
101.3	298.15	1162	2

System: acetone; phases: Liquid
Property: Mass density, kg/m3 (Liquid); method: VIBTUB:UFactor:2
Temperature, K	Pressure, kPa	Mass density, kg/m3	uncertainty
298.15	101.3	784.37	0.31

System: butanone; phases: Liquid, Gas
Property: Normal boiling temperature, K (Liquid); method: EBULLIO:UFactor:32:FP
Normal boiling temperature, K	uncertainty
352.78	0.13

System: butanone; phases: Liquid
Property: Speed of sound, m/s (Liquid); method: FPINT:UFactor:2
Pressure, kPa	Temperature, K	Speed of sound, m/s	uncertainty
101.3	298.15	1192	2

System: butanone; phases: Liquid
Property: Mass density, kg/m3 (Liquid); method: VIBTUB:UFactor:2
Temperature, K	Pressure, kPa	Mass density, kg/m3	uncertainty
298.15	101.3	799.7	0.35

System: pentan-2-one; phases: Liquid, Gas
Property: Normal boiling temperature, K (Liquid); method: EBULLIO:UFactor:32:FP
Normal boiling temperature, K	uncertainty
375.36	0.13

System: pentan-2-one; phases: Liquid
Property: Speed of sound, m/s (Liquid); method: FPINT:UFactor:2
Pressure, kPa	Temperature, K	Speed of sound, m/s	uncertainty
101.3	298.15	1212	2

System: pentan-2-one; phases: Liquid
Property: Mass density, kg/m3 (Liquid); method: VIBTUB:UFactor:2
Temperature, K	Pressure, kPa	Mass density, kg/m3	uncertainty
298.15	101.3	801.39	0.35

System: acetone + dimethyl carbonate; phases: Liquid
Fixed: Pressure, kPa = 101.3
Fixed: Temperature, K = 298.15
Property: Speed of sound, m/s (Liquid); method: FPINT:UFactor:2
Mole fraction of acetone	Speed of sound, m/s	uncertainty
0	1198	2
0.0447	1196	2
0.0906	1195	2
0.1886	1192	2
0.2886	1188	2
0.3941	1184	2
0.4933	1180	2
0.5988	1176	2
0.7021	1172	2
0.7974	1168	2
0.9053	1165	2
0.9534	1163	2
1	1162	2

System: acetone + dimethyl carbonate; phases: Liquid, Gas
Fixed: Pressure, kPa = 101.3
Property: Boiling temperature at pressure P, K (Liquid); method: EBULLIO:UFactor:16
Mole fraction of acetone	Boiling temperature at pressure P, K	uncertainty
0.0469	360.52	0.64
0.0668	359.88	0.64
0.0989	357.58	0.64
0.1271	355.77	0.64
0.1565	354.45	0.64
0.1802	353.55	0.64
0.21	352.25	0.64
0.2265	351.25	0.64
0.2438	350.6	0.64
0.261	349.8	0.64
0.2893	348.82	0.64
0.3288	347.37	0.64
0.3562	346.64	0.64
0.3945	345.1	0.64
0.4309	343.6	0.64
0.4505	342.95	0.64
0.4728	342.13	0.64
0.4957	341.46	0.64
0.5202	340.89	0.64
0.5399	340.32	0.64
0.5834	339.49	0.64
0.6104	338.54	0.64
0.6334	338.21	0.64
0.6589	337.58	0.64
0.6876	336.86	0.64
0.6982	336.65	0.64
0.7238	335.7	0.64
0.7656	335.24	0.64
0.7861	334.51	0.64
0.8225	333.67	0.64
0.8443	332.88	0.64
0.8828	332.06	0.64
0.9176	331.25	0.64
0.9655	330.29	0.64

System: acetone + dimethyl carbonate; phases: Liquid
Fixed: Temperature, K = 298.15
Fixed: Pressure, kPa = 101.3
Property: Mass density, kg/m3 (Liquid); method: VIBTUB:UFactor:2
Mole fraction of acetone	Mass density, kg/m3	uncertainty
0	1063.33	0.56
0.0447	1052.64	0.53
0.0906	1041.54	0.51
0.1886	1017.22	0.45
0.2886	991.68	0.4
0.3941	963.86	0.37
0.4933	936.83	0.35
0.5988	907.17	0.32
0.7021	877.06	0.3
0.7974	848.41	0.29
0.9053	814.88	0.29
0.9534	799.51	0.3
1	784.37	0.31

System: acetone + dimethyl carbonate; phases: Gas, Liquid
Fixed: Pressure, kPa = 101.3
Property: Mole fraction of acetone (Gas); method: RIXVDN
Mole fraction of acetone	Mole fraction of acetone	uncertainty
0.0469	0.127	0.0145
0.0668	0.1709	0.0158
0.0989	0.2532	0.0159
0.1271	0.3185	0.0144
0.1565	0.3782	0.0121
0.1802	0.4102	0.0107
0.21	0.4556	0.012
0.2265	0.4906	0.0117
0.2438	0.5112	0.0103
0.261	0.537	0.0096
0.2893	0.5671	0.009
0.3288	0.6091	0.009
0.3562	0.6402	0.0088
0.3945	0.6781	0.0083
0.4309	0.7095	0.0081
0.4505	0.7276	0.0079
0.4728	0.7441	0.0076
0.4957	0.7612	0.0075
0.5202	0.7793	0.0073
0.5399	0.7906	0.0071
0.5834	0.8176	0.0071
0.6104	0.8335	0.0069
0.6334	0.8452	0.0067
0.6589	0.8578	0.0067
0.6876	0.871	0.0066
0.6982	0.8748	0.0068
0.7238	0.8902	0.0065
0.7656	0.9035	0.0065
0.7861	0.9176	0.0067
0.8225	0.9323	0.0065
0.8443	0.9422	0.0065
0.8828	0.9584	0.0064
0.9176	0.9701	0.0064
0.9655	0.9879	0.0064

System: butanone + dimethyl carbonate; phases: Liquid
Fixed: Pressure, kPa = 101.3
Fixed: Temperature, K = 298.15
Property: Speed of sound, m/s (Liquid); method: FPINT:UFactor:2
Mole fraction of butanone	Speed of sound, m/s	uncertainty
0	1198	2
0.0499	1199	2
0.0999	1198	2
0.1994	1196	2
0.2996	1194	2
0.3986	1192	2
0.5027	1191	2
0.6014	1190	2
0.7102	1190	2
0.8038	1191	2
0.9043	1191	2
0.9514	1191	2
1	1192	2

System: butanone + dimethyl carbonate; phases: Liquid, Gas
Fixed: Pressure, kPa = 101.3
Property: Boiling temperature at pressure P, K (Liquid); method: EBULLIO:UFactor:8
Mole fraction of butanone	Boiling temperature at pressure P, K	uncertainty
0.0406	362.62	0.32
0.0712	362.04	0.32
0.101	361.54	0.32
0.1271	361.06	0.32
0.1518	360.73	0.32
0.1712	360.38	0.32
0.1958	360.02	0.32
0.2199	359.57	0.32
0.2484	359.14	0.32
0.2794	358.62	0.32
0.3094	358.18	0.32
0.3616	357.48	0.32
0.3915	357.12	0.32
0.4366	356.59	0.32
0.4665	356.26	0.32
0.4784	356.14	0.32
0.491	356.01	0.32
0.5048	355.86	0.32
0.5191	355.72	0.32
0.5357	355.56	0.32
0.5521	355.41	0.32
0.5928	355.04	0.32
0.6169	354.84	0.32
0.6377	354.67	0.32
0.6683	354.44	0.32
0.6935	354.26	0.32
0.7183	353.99	0.32
0.7496	353.79	0.32
0.7791	353.62	0.32
0.8128	353.45	0.32
0.8473	353.3	0.32
0.8821	353.17	0.32
0.9229	352.95	0.32
0.9699	352.84	0.32

System: butanone + dimethyl carbonate; phases: Liquid
Fixed: Temperature, K = 298.15
Fixed: Pressure, kPa = 101.3
Property: Mass density, kg/m3 (Liquid); method: VIBTUB:UFactor:2
Mole fraction of butanone	Mass density, kg/m3	uncertainty
0	1063.33	0.56
0.0499	1049.31	0.54
0.0999	1035.29	0.51
0.1994	1007.79	0.47
0.2996	980.5	0.44
0.3986	953.88	0.42
0.5027	926.3	0.41
0.6014	900.51	0.38
0.7102	872.49	0.36
0.8038	848.69	0.35
0.9043	823.48	0.35
0.9514	811.75	0.35
1	799.7	0.35

System: butanone + dimethyl carbonate; phases: Gas, Liquid
Fixed: Pressure, kPa = 101.3
Property: Mole fraction of butanone (Gas); method: RIXVDN
Mole fraction of butanone	Mole fraction of butanone	uncertainty
0.0406	0.0675	0.0113
0.0712	0.1166	0.0108
0.101	0.1576	0.0106
0.1271	0.1983	0.0102
0.1518	0.2268	0.0101
0.1712	0.2585	0.0104
0.1958	0.289	0.0097
0.2199	0.3195	0.0091
0.2484	0.3486	0.0088
0.2794	0.3815	0.009
0.3094	0.414	0.0087
0.3616	0.4647	0.0087
0.3915	0.4936	0.0086
0.4366	0.5342	0.0083
0.4665	0.5577	0.0082
0.4784	0.5688	0.0083
0.491	0.5786	0.0083
0.5048	0.5917	0.0085
0.5191	0.6048	0.0084
0.5357	0.6192	0.0085
0.5521	0.6357	0.0082
0.5928	0.6682	0.0079
0.6169	0.6864	0.008
0.6377	0.7053	0.0077
0.6683	0.7248	0.0076
0.6935	0.7453	0.0082
0.7183	0.7694	0.008
0.7496	0.7933	0.0079
0.7791	0.8193	0.0078
0.8128	0.8448	0.0077
0.8473	0.872	0.0078
0.8821	0.9016	0.0077
0.9229	0.9322	0.0077
0.9699	0.9713	0.0078

System: pentan-2-one + dimethyl carbonate; phases: Liquid
Fixed: Pressure, kPa = 101.3
Fixed: Temperature, K = 298.15
Property: Speed of sound, m/s (Liquid); method: FPINT:UFactor:2
Mole fraction of pentan-2-one	Speed of sound, m/s	uncertainty
0	1198	2
0.0498	1199	2
0.1004	1198	2
0.1996	1197	2
0.3009	1198	2
0.398	1198	2
0.5036	1200	2
0.6017	1201	2
0.7046	1203	2
0.8012	1206	2
0.901	1209	2
0.9504	1211	2
1	1212	2

System: pentan-2-one + dimethyl carbonate; phases: Liquid, Gas
Fixed: Pressure, kPa = 101.3
Property: Boiling temperature at pressure P, K (Liquid); method: EBULLIO:UFactor:8
Mole fraction of dimethyl carbonate	Boiling temperature at pressure P, K	uncertainty
0.0078	375.12	0.32
0.0469	374.04	0.32
0.0874	373.13	0.32
0.1211	372.33	0.32
0.16	371.56	0.32
0.1954	370.95	0.32
0.2289	370.43	0.32
0.257	369.98	0.32
0.2861	369.61	0.32
0.312	369.19	0.32
0.3516	368.69	0.32
0.3925	368.05	0.32
0.4175	367.85	0.32
0.4417	367.52	0.32
0.4671	367.29	0.32
0.4917	367.03	0.32
0.521	366.71	0.32
0.5539	366.39	0.32
0.5824	366.02	0.32
0.6006	365.86	0.32
0.628	365.6	0.32
0.6526	365.48	0.32
0.6697	365.33	0.32
0.685	365.24	0.32
0.6857	365.25	0.32
0.712	365.02	0.32
0.7343	364.86	0.32
0.7443	364.78	0.32
0.763	364.65	0.32
0.7858	364.5	0.32
0.8109	364.31	0.32
0.846	364.08	0.32
0.8613	363.99	0.32
0.8853	363.84	0.32
0.9116	363.67	0.32
0.9308	363.59	0.32
0.9616	363.54	0.32

System: pentan-2-one + dimethyl carbonate; phases: Liquid
Fixed: Temperature, K = 298.15
Fixed: Pressure, kPa = 101.3
Property: Mass density, kg/m3 (Liquid); method: VIBTUB:UFactor:2
Mole fraction of pentan-2-one	Mass density, kg/m3	uncertainty
0	1063.33	0.56
0.0498	1046.71	0.53
0.1004	1030.33	0.51
0.1996	999.49	0.47
0.3009	969.77	0.44
0.398	942.67	0.42
0.5036	914.75	0.41
0.6017	890.1	0.38
0.7046	865.52	0.36
0.8012	843.59	0.35
0.901	821.94	0.35
0.9504	811.55	0.35
1	801.39	0.35

System: pentan-2-one + dimethyl carbonate; phases: Gas, Liquid
Fixed: Pressure, kPa = 101.3
Property: Mole fraction of dimethyl carbonate (Gas); method: RIXVDN
Mole fraction of dimethyl carbonate	Mole fraction of dimethyl carbonate	uncertainty
0.0078	0.0194	0.0129
0.0469	0.094	0.0118
0.0874	0.1549	0.0106
0.1211	0.2014	0.01
0.16	0.2523	0.0098
0.1954	0.2975	0.0095
0.2289	0.3363	0.0091
0.257	0.3663	0.0087
0.2861	0.3955	0.0089
0.312	0.4243	0.0087
0.3516	0.4621	0.0088
0.3925	0.5052	0.0087
0.4175	0.5233	0.0084
0.4417	0.5482	0.0085
0.4671	0.5673	0.0081
0.4917	0.5873	0.0084
0.521	0.6141	0.0084
0.5539	0.6413	0.0087
0.5824	0.6727	0.0088
0.6006	0.6869	0.008
0.628	0.7083	0.0078
0.6526	0.7245	0.0079
0.6697	0.7398	0.0083
0.685	0.7527	0.0078
0.6857	0.7523	0.0078
0.712	0.7716	0.0078
0.7343	0.7878	0.0077
0.7443	0.7953	0.0078
0.763	0.8094	0.0079
0.7858	0.8277	0.008
0.8109	0.8485	0.0076
0.846	0.8722	0.0074
0.8613	0.8824	0.0078
0.8853	0.9033	0.0079
0.9116	0.9245	0.0078
0.9308	0.9405	0.0079
0.9616	0.9667	0.0079
