Measured thermophysical data. Thermodynamic Properties of Inorganic Salts in Nonaqueous Solvents. II. Apparent Molar Volumes and Compressibilities of Divalent Transition-Metal Perchlorates in Acetonitrile
Source: J. Chem. Eng. Data, 2005, 10.1021/je0496950
Compound 1: acetonitrile, C2H3N, InChI=1S/C2H3N/c1-2-3/h1H3
Compound 2: manganese (II) perchlorate, Cl2MnO8, InChI=1S/2ClHO4.Mn/c2*2-1(3,4)5;/h2*(H,2,3,4,5);/q;;+2/p-2
Compound 3: cobalt(II) perchlorate, Cl2CoO8, InChI=1S/2ClHO4.Co/c2*2-1(3,4)5;/h2*(H,2,3,4,5);/q;;+2/p-2
Compound 4: nickel perchlorate, Cl2NiO8, InChI=1S/2ClHO4.Ni/c2*2-1(3,4)5;/h2*(H,2,3,4,5);/q;;+2/p-2
Compound 5: copper perchlorate, Cl2CuO8, InChI=1S/2ClHO4.Cu/c2*2-1(3,4)5;/h2*(H,2,3,4,5);/q;;+2/p-2
Compound 6: zinc perchlorate, Cl2O8Zn, InChI=1S/2ClHO4.Zn/c2*2-1(3,4)5;/h2*(H,2,3,4,5);/q;;+2/p-2

System: acetonitrile; phases: Liquid
Fixed: Pressure, kPa = 101
Property: Mass density, kg/m3 (Liquid); method: VIBTUB:UFactor:4
Temperature, K	Mass density, kg/m3	uncertainty
288.13	787.307	0.74
288.13	787.308	0.74
288.13	787.312	0.741
288.15	787.308	0.737
293.15	781.932	0.745
293.15	781.933	0.747
293.15	781.93	0.747
293.15	781.934	0.748
298.15	776.531	0.752
298.15	776.535	0.755
298.15	776.53	0.755
298.15	776.532	0.755
303.15	771.102	0.76
303.15	771.114	0.762
303.15	771.101	0.763
303.15	771.106	0.763
308.15	765.645	0.768
308.15	765.664	0.77
308.15	765.649	0.771
313.15	760.156	0.776
313.15	760.181	0.778
313.15	760.155	0.779
313.15	760.158	0.779
323.15	749.07	0.792
323.15	749.107	0.794
323.15	749.068	0.795
323.15	749.067	0.795

System: acetonitrile + manganese (II) perchlorate; phases: Liquid
Fixed: Pressure, kPa = 101
Fixed: Temperature, K = 298.15
Property: Speed of sound, m/s (Liquid); method: Pulse-echo method
Molality, mol/kg of manganese (II) perchlorate	Speed of sound, m/s	uncertainty
0.07666	1282.84	1.4
0.08738	1283.47	1.4
0.1308	1286	1.4
0.1732	1288.42	1.4
0.216	1290.82	1.4
0.257	1293.05	1.4
0.298	1295.35	1.4
0.3364	1297.89	1.4
0.3745	1300.3	1.4
0.4122	1302.69	1.41

System: acetonitrile + manganese (II) perchlorate; phases: Liquid
Fixed: Pressure, kPa = 101
Property: Mass density, kg/m3 (Liquid); method: VIBTUB:UFactor:4
Temperature, K	Molality, mol/kg of manganese (II) perchlorate	Mass density, kg/m3	uncertainty
288.15	0	787.308	0.737
288.15	0.1308	812.076	0.705
288.15	0.1732	820.267	0.697
288.15	0.216	828.628	0.687
288.15	0.257	836.778	0.679
288.15	0.298	845.062	0.671
288.15	0.3364	852.972	0.663
288.15	0.3745	860.854	0.655
288.15	0.4122	868.75	0.647
293.15	0	781.932	0.745
293.15	0.1308	806.744	0.712
293.15	0.1732	814.947	0.703
293.15	0.216	823.32	0.694
293.15	0.257	831.471	0.685
293.15	0.298	839.769	0.677
293.15	0.3364	847.683	0.668
293.15	0.3745	855.574	0.661
293.15	0.4122	863.479	0.653
298.15	0	776.531	0.752
298.15	0.1308	801.389	0.719
298.15	0.1732	809.604	0.71
298.15	0.216	817.989	0.7
298.15	0.257	826.148	0.691
298.15	0.298	834.455	0.683
298.15	0.3364	842.377	0.674
298.15	0.3745	850.277	0.666
298.15	0.4122	858.191	0.658
303.15	0	771.102	0.76
303.15	0.1308	796.009	0.726
303.15	0.1732	804.238	0.717
303.15	0.216	812.633	0.707
303.15	0.257	820.803	0.698
303.15	0.298	829.123	0.689
303.15	0.3364	837.051	0.681
303.15	0.3745	844.96	0.672
303.15	0.4122	852.884	0.664
308.15	0	765.645	0.768
308.15	0.1308	790.599	0.734
308.15	0.1732	798.846	0.724
308.15	0.216	807.252	0.714
308.15	0.257	815.431	0.705
308.15	0.298	823.764	0.696
308.15	0.3364	831.7	0.687
308.15	0.3745	839.624	0.678
308.15	0.4122	847.554	0.67
313.15	0	760.156	0.776
313.15	0.1308	785.164	0.741
313.15	0.1732	793.424	0.731
313.15	0.216	801.843	0.721
313.15	0.257	810.032	0.712
313.15	0.298	818.379	0.702
313.15	0.3364	826.326	0.693
313.15	0.3745	834.26	0.685
313.15	0.4122	842.203	0.676
323.15	0	749.07	0.792
323.15	0.1308	774.198	0.757
323.15	0.1732	782.485	0.746
323.15	0.216	790.933	0.735
323.15	0.257	799.145	0.726
323.15	0.298	807.522	0.716
323.15	0.3364	815.497	0.707
323.15	0.3745	823.454	0.698
323.15	0.4122	831.418	0.689

System: acetonitrile + cobalt(II) perchlorate; phases: Liquid
Fixed: Pressure, kPa = 101
Fixed: Temperature, K = 298.15
Property: Speed of sound, m/s (Liquid); method: Pulse-echo method
Molality, mol/kg of cobalt(II) perchlorate	Speed of sound, m/s	uncertainty
0.06311	1282.38	1.4
0.1115	1285.12	1.4
0.1477	1287.04	1.4
0.1815	1288.98	1.4
0.2169	1290.74	1.4
0.2496	1292.58	1.4
0.2829	1294.53	1.4
0.3172	1296.4	1.4
0.3491	1298.21	1.4

System: acetonitrile + cobalt(II) perchlorate; phases: Liquid
Fixed: Pressure, kPa = 101
Property: Mass density, kg/m3 (Liquid); method: VIBTUB:UFactor:4
Temperature, K	Molality, mol/kg of cobalt(II) perchlorate	Mass density, kg/m3	uncertainty
288.13	0	787.307	0.74
288.13	0.0631	799.771	0.723
288.13	0.1115	809.436	0.712
288.13	0.1477	816.764	0.703
288.13	0.1815	823.65	0.696
288.13	0.2169	831.031	0.688
288.13	0.2496	837.824	0.681
288.13	0.2829	844.904	0.674
288.13	0.3172	852.306	0.667
288.13	0.3491	859.24	0.66
293.15	0	781.933	0.747
293.15	0.0631	794.418	0.73
293.15	0.1115	804.1	0.719
293.15	0.1477	811.44	0.71
293.15	0.1815	818.333	0.702
293.15	0.2169	825.723	0.694
293.15	0.2496	832.525	0.687
293.15	0.2829	839.613	0.68
293.15	0.3172	847.023	0.672
293.15	0.3491	853.965	0.665
298.15	0	776.535	0.755
298.15	0.0631	789.05	0.738
298.15	0.1115	798.743	0.726
298.15	0.1477	806.094	0.717
298.15	0.1815	812.996	0.709
298.15	0.2169	820.399	0.701
298.15	0.2496	827.21	0.693
298.15	0.2829	834.306	0.686
298.15	0.3172	841.727	0.678
298.15	0.3491	848.675	0.671
303.15	0	771.114	0.762
303.15	0.0631	783.653	0.745
303.15	0.1115	793.363	0.733
303.15	0.1477	800.726	0.724
303.15	0.1815	807.639	0.716
303.15	0.2169	815.051	0.707
303.15	0.2496	821.873	0.7
303.15	0.2829	828.983	0.692
303.15	0.3172	836.41	0.685
303.15	0.3491	843.372	0.677
308.15	0	765.664	0.77
308.15	0.0631	778.228	0.753
308.15	0.1115	787.958	0.74
308.15	0.1477	795.334	0.731
308.15	0.1815	802.256	0.723
308.15	0.2169	809.685	0.714
308.15	0.2496	816.516	0.706
308.15	0.2829	823.636	0.699
308.15	0.3172	831.074	0.691
308.15	0.3491	838.048	0.683
313.15	0	760.181	0.778
313.15	0.0631	772.771	0.76
313.15	0.1115	782.523	0.748
313.15	0.1477	789.913	0.738
313.15	0.1815	796.848	0.73
313.15	0.2169	804.289	0.721
313.15	0.2496	811.134	0.713
313.15	0.2829	818.267	0.705
313.15	0.3172	825.719	0.697
313.15	0.3491	832.702	0.689
323.15	0	749.107	0.794
323.15	0.0631	761.76	0.776
323.15	0.1115	771.558	0.763
323.15	0.1477	778.975	0.753
323.15	0.1815	785.942	0.745
323.15	0.2169	793.42	0.736
323.15	0.2496	800.293	0.727
323.15	0.2829	807.451	0.719
323.15	0.3172	814.932	0.711
323.15	0.3491	821.94	0.702

System: acetonitrile + nickel perchlorate; phases: Liquid
Fixed: Pressure, kPa = 101
Fixed: Temperature, K = 298.15
Property: Speed of sound, m/s (Liquid); method: Pulse-echo method
Molality, mol/kg of nickel perchlorate	Speed of sound, m/s	uncertainty
0.04923	1281.81	1.4
0.08198	1284.05	1.4
0.1087	1285.82	1.4
0.135	1287.53	1.4
0.1611	1289.38	1.4
0.1844	1290.89	1.4
0.2114	1292.7	1.4
0.2353	1294.14	1.4
0.2607	1295.85	1.4

System: acetonitrile + nickel perchlorate; phases: Liquid
Fixed: Pressure, kPa = 101
Property: Mass density, kg/m3 (Liquid); method: VIBTUB:UFactor:4
Temperature, K	Molality, mol/kg of nickel perchlorate	Mass density, kg/m3	uncertainty
288.13	0	787.307	0.74
288.13	0.0492	797.088	0.727
288.13	0.082	803.621	0.719
288.13	0.1087	809.018	0.713
288.13	0.135	814.36	0.707
288.13	0.1611	819.735	0.701
288.13	0.1844	824.54	0.695
288.13	0.2114	830.147	0.689
288.13	0.2353	835.248	0.684
288.13	0.2607	840.618	0.678
293.15	0	781.93	0.747
293.15	0.0492	791.73	0.734
293.15	0.082	798.268	0.726
293.15	0.1087	803.673	0.72
293.15	0.135	809.021	0.713
293.15	0.1611	814.406	0.707
293.15	0.1844	819.217	0.702
293.15	0.2114	824.83	0.696
293.15	0.2353	829.938	0.69
293.15	0.2607	835.309	0.684
298.15	0	776.53	0.755
298.15	0.0492	786.35	0.742
298.15	0.082	792.896	0.733
298.15	0.1087	798.312	0.727
298.15	0.135	803.671	0.72
298.15	0.1611	809.058	0.714
298.15	0.1844	813.878	0.708
298.15	0.2114	819.495	0.702
298.15	0.2353	824.608	0.697
298.15	0.2607	829.987	0.69
303.15	0	771.101	0.763
303.15	0.0492	780.945	0.749
303.15	0.082	787.511	0.74
303.15	0.1087	792.927	0.734
303.15	0.135	798.291	0.727
303.15	0.1611	803.686	0.721
303.15	0.1844	808.519	0.715
303.15	0.2114	814.141	0.709
303.15	0.2353	819.261	0.703
303.15	0.2607	824.647	0.696
308.15	0	765.645	0.77
308.15	0.0492	775.512	0.757
308.15	0.082	782.087	0.748
308.15	0.1087	787.516	0.741
308.15	0.135	792.889	0.735
308.15	0.1611	798.299	0.728
308.15	0.1844	803.134	0.722
308.15	0.2114	808.766	0.716
308.15	0.2353	813.893	0.71
308.15	0.2607	819.287	0.703
313.15	0	760.155	0.779
313.15	0.0492	770.049	0.764
313.15	0.082	776.641	0.756
313.15	0.1087	782.077	0.749
313.15	0.135	787.46	0.742
313.15	0.1611	792.88	0.735
313.15	0.1844	797.731	0.729
313.15	0.2114	803.366	0.723
313.15	0.2353	808.502	0.717
313.15	0.2607	813.905	0.71
323.15	0	749.068	0.795
323.15	0.0492	759.023	0.78
323.15	0.082	765.646	0.771
323.15	0.1087	771.11	0.764
323.15	0.135	776.511	0.757
323.15	0.1611	781.957	0.75
323.15	0.1844	786.838	0.744
323.15	0.2114	792.486	0.737
323.15	0.2353	797.637	0.731
323.15	0.2607	803.067	0.724

System: acetonitrile + copper perchlorate; phases: Liquid
Fixed: Pressure, kPa = 101
Fixed: Temperature, K = 298.15
Property: Speed of sound, m/s (Liquid); method: Pulse-echo method
Molality, mol/kg of copper perchlorate	Speed of sound, m/s	uncertainty
0.05724	1281.63	1.4
0.1013	1284.29	1.4
0.1335	1286.22	1.4
0.1645	1288.15	1.4
0.1975	1289.99	1.4
0.2264	1291.75	1.4
0.258	1293.72	1.4
0.285	1295.37	1.4
0.3172	1297.32	1.4

System: acetonitrile + copper perchlorate; phases: Liquid
Fixed: Pressure, kPa = 101
Property: Mass density, kg/m3 (Liquid); method: VIBTUB:UFactor:4
Temperature, K	Molality, mol/kg of copper perchlorate	Mass density, kg/m3	uncertainty
288.13	0	787.308	0.74
288.13	0.0572	798.765	0.725
288.13	0.1013	807.682	0.715
288.13	0.1335	814.263	0.707
288.13	0.1645	820.66	0.7
288.13	0.1975	827.568	0.693
288.13	0.2264	833.698	0.686
288.13	0.258	840.493	0.679
288.13	0.285	846.334	0.674
288.13	0.3172	853.453	0.667
293.15	0	781.932	0.748
293.15	0.0572	793.409	0.733
293.15	0.1013	802.334	0.721
293.15	0.1335	808.919	0.714
293.15	0.1645	815.323	0.707
293.15	0.1975	822.238	0.699
293.15	0.2264	828.373	0.693
293.15	0.258	835.168	0.685
293.15	0.285	841.014	0.68
293.15	0.3172	848.137	0.673
298.15	0	776.532	0.755
298.15	0.0572	788.03	0.74
298.15	0.1013	796.961	0.729
298.15	0.1335	803.556	0.721
298.15	0.1645	809.967	0.713
298.15	0.1975	816.887	0.706
298.15	0.2264	823.028	0.699
298.15	0.258	829.828	0.692
298.15	0.285	835.678	0.686
298.15	0.3172	842.806	0.679
303.15	0	771.102	0.763
303.15	0.0572	782.624	0.747
303.15	0.1013	791.568	0.736
303.15	0.1335	798.17	0.728
303.15	0.1645	804.588	0.72
303.15	0.1975	811.516	0.712
303.15	0.2264	817.66	0.706
303.15	0.258	824.467	0.698
303.15	0.285	830.323	0.692
303.15	0.3172	837.456	0.685
308.15	0	765.645	0.771
308.15	0.0572	777.19	0.755
308.15	0.1013	786.147	0.743
308.15	0.1335	792.754	0.735
308.15	0.1645	799.184	0.727
308.15	0.1975	806.117	0.719
308.15	0.2264	812.272	0.712
308.15	0.258	819.083	0.705
308.15	0.285	824.946	0.699
308.15	0.3172	832.084	0.691
313.15	0	760.155	0.779
313.15	0.0572	771.728	0.763
313.15	0.1013	780.696	0.751
313.15	0.1335	787.314	0.742
313.15	0.1645	793.753	0.735
313.15	0.1975	800.692	0.726
313.15	0.2264	806.857	0.719
313.15	0.258	813.673	0.711
313.15	0.285	819.544	0.705
313.15	0.3172	826.687	0.697
323.15	0	749.067	0.795
323.15	0.0572	760.698	0.778
323.15	0.1013	769.697	0.766
323.15	0.1335	776.342	0.758
323.15	0.1645	782.802	0.749
323.15	0.1975	789.754	0.741
323.15	0.2264	795.939	0.734
323.15	0.258	802.774	0.725
323.15	0.285	808.66	0.719
323.15	0.3172	815.817	0.711

System: acetonitrile + zinc perchlorate; phases: Liquid
Fixed: Pressure, kPa = 101
Fixed: Temperature, K = 298.15
Property: Speed of sound, m/s (Liquid); method: Pulse-echo method
Molality, mol/kg of zinc perchlorate	Speed of sound, m/s	uncertainty
0.05169	1280.24	1.4
0.09336	1281.89	1.4
0.1233	1283.07	1.4
0.1524	1284.25	1.4
0.1817	1285.44	1.4
0.2106	1286.77	1.4
0.2379	1287.87	1.4
0.2668	1288.98	1.4
0.2944	1290.34	1.4

System: acetonitrile + zinc perchlorate; phases: Liquid
Fixed: Pressure, kPa = 101
Property: Mass density, kg/m3 (Liquid); method: VIBTUB:UFactor:4
Temperature, K	Molality, mol/kg of zinc perchlorate	Mass density, kg/m3	uncertainty
288.13	0	787.312	0.741
288.13	0.05169	797.728	0.727
288.13	0.09336	806.167	0.717
288.13	0.1233	812.307	0.71
288.13	0.1524	818.329	0.703
288.13	0.1817	824.45	0.696
288.13	0.2106	830.536	0.69
288.13	0.2379	836.415	0.684
288.13	0.2668	842.682	0.677
288.13	0.2944	848.641	0.67
293.15	0	781.934	0.748
293.15	0.05169	792.369	0.734
293.15	0.09336	800.821	0.724
293.15	0.1233	806.971	0.716
293.15	0.1524	812.997	0.709
293.15	0.1817	819.125	0.702
293.15	0.2106	825.218	0.696
293.15	0.2379	831.101	0.69
293.15	0.2668	837.373	0.683
293.15	0.2944	843.338	0.676
298.15	0	776.535	0.756
298.15	0.05169	786.992	0.741
298.15	0.09336	795.456	0.731
298.15	0.1233	801.611	0.723
298.15	0.1524	807.644	0.716
298.15	0.1817	813.78	0.709
298.15	0.2106	819.877	0.703
298.15	0.2379	825.768	0.697
298.15	0.2668	832.046	0.689
298.15	0.2944	838.017	0.682
303.15	0	771.106	0.763
303.15	0.05169	781.587	0.749
303.15	0.09336	790.063	0.738
303.15	0.1233	796.227	0.73
303.15	0.1524	802.268	0.723
303.15	0.1817	808.412	0.716
303.15	0.2106	814.514	0.709
303.15	0.2379	820.412	0.703
303.15	0.2668	826.696	0.696
303.15	0.2944	832.675	0.688
308.15	0	765.649	0.771
308.15	0.05169	776.154	0.757
308.15	0.09336	784.645	0.745
308.15	0.1233	790.815	0.738
308.15	0.1524	796.864	0.73
308.15	0.1817	803.019	0.723
308.15	0.2106	809.128	0.716
308.15	0.2379	815.033	0.71
308.15	0.2668	821.325	0.702
308.15	0.2944	827.308	0.695
313.15	0	760.158	0.779
313.15	0.05169	770.69	0.764
313.15	0.09336	779.192	0.753
313.15	0.1233	785.374	0.745
313.15	0.1524	791.433	0.738
313.15	0.1817	797.595	0.73
313.15	0.2106	803.712	0.723
313.15	0.2379	809.624	0.717
313.15	0.2668	815.925	0.709
313.15	0.2944	821.916	0.701
323.15	0	749.07	0.795
323.15	0.05169	759.656	0.78
323.15	0.09336	768.19	0.768
323.15	0.1233	774.39	0.76
323.15	0.1524	780.466	0.753
323.15	0.1817	786.657	0.745
323.15	0.2106	792.788	0.737
323.15	0.2379	798.715	0.731
323.15	0.2668	805.037	0.723
323.15	0.2944	811.045	0.715
