Measured thermophysical data. Liquid-Liquid Equilibrium for the Quaternary System Toluene + Water + Propionic Acid + Ethyl Acetate at 25 deg C and Atmospheric Pressure
Source: J. Chem. Eng. Data, 2005, 10.1021/je0496488
Compound 1: propanoic acid, C3H6O2, InChI=1S/C3H6O2/c1-2-3(4)5/h2H2,1H3,(H,4,5)
Compound 2: toluene, C7H8, InChI=1S/C7H8/c1-7-5-3-2-4-6-7/h2-6H,1H3
Compound 3: water, H2O, InChI=1S/H2O/h1H2
Compound 4: ethyl acetate, C4H8O2, InChI=1S/C4H8O2/c1-3-6-4(2)5/h3H2,1-2H3

System: propanoic acid + toluene + water; phases: Liquid mixture 2, Liquid mixture 1
Fixed: Temperature, K = 298
Fixed: Pressure, kPa = 101.3
Property: Mole fraction of toluene (Liquid mixture 2); method: Chromatography
Property: Mole fraction of water (Liquid mixture 1); method: Chromatography
Property: Mole fraction of toluene (Liquid mixture 1); method: Chromatography
Mole fraction of water	Mole fraction of toluene	uncertainty	Mole fraction of water	uncertainty	Mole fraction of toluene	uncertainty
0.9827	0.0021	0.0021	0.0435	0.004015	0.9077	
0.9486	0.0038	0.0038	0.0477	0.004016	0.8012	
0.9107	0.0047	0.004003	0.0498	0.004033	0.698	
0.8595	0.0071	0.004014	0.0674	0.004224	0.5885	
0.7886	0.0145	0.004094	0.1247	0.005161	0.4594	
0.661	0.0486	0.004155	0.3342	0.00601	0.2396	

System: propanoic acid + toluene + water; phases: Liquid mixture 1, Liquid mixture 2
Fixed: Pressure, kPa = 101.3
Fixed: Temperature, K = 298
Property: Mole fraction of water (Liquid mixture 1); method: Titration method
Mole fraction of toluene	Mole fraction of water	uncertainty
0.0077	0.9923	0.0003
0.0195	0.9572	0.0017
0.0306	0.9244	0.003
0.0444	0.8906	0.0044
0.0814	0.8119	0.0075
0.1007	0.7781	0.0089
0.159	0.686	0.0126
0.2455	0.5793	0.0168
0.3576	0.4723	0.0189
0.4302	0.4163	0.0167
0.5245	0.3508	0.014
0.6622	0.2591	0.0104
0.8467	0.1533	0.0061

System: propanoic acid + ethyl acetate + water; phases: Liquid mixture 2, Liquid mixture 1
Fixed: Temperature, K = 298
Fixed: Pressure, kPa = 101.3
Property: Mole fraction of ethyl acetate (Liquid mixture 2); method: Chromatography
Property: Mole fraction of water (Liquid mixture 1); method: Chromatography
Property: Mole fraction of ethyl acetate (Liquid mixture 1); method: Chromatography
Mole fraction of water	Mole fraction of ethyl acetate	uncertainty	Mole fraction of water	uncertainty	Mole fraction of ethyl acetate	uncertainty
0.9788	0.0121	0.004217	0.2303	0.005052	0.7046	
0.9662	0.0163	0.004218	0.3209	0.005336	0.5663	
0.9515	0.0212	0.004219	0.4061	0.005712	0.445	
0.9335	0.0272	0.004263	0.478	0.006252	0.3495	
0.9039	0.0385	0.00429	0.5689	0.006315	0.2543	

System: propanoic acid + ethyl acetate + water; phases: Liquid mixture 1, Liquid mixture 2
Fixed: Pressure, kPa = 101.3
Fixed: Temperature, K = 298
Property: Mole fraction of water (Liquid mixture 1); method: Titration method
Mole fraction of ethyl acetate	Mole fraction of water	uncertainty
0.0017	0.9983	0.0001
0.0027	0.9736	0.0011
0.0061	0.8673	0.0053
0.0136	0.7934	0.0083
0.0382	0.6924	0.0123
0.0848	0.5779	0.0169
0.1577	0.45	0.018
0.2449	0.3288	0.0132
0.35	0.21	0.0084
0.5211	0.0901	0.0036
0.6288	0.0584	0.0023
0.7625	0.0478	0.0019
0.9701	0.0299	0.0012

System: toluene + ethyl acetate + water; phases: Liquid mixture 2, Liquid mixture 1
Fixed: Temperature, K = 298
Fixed: Pressure, kPa = 101.3
Property: Mole fraction of toluene (Liquid mixture 2); method: Chromatography
Property: Mole fraction of ethyl acetate (Liquid mixture 1); method: Chromatography
Property: Mole fraction of toluene (Liquid mixture 1); method: Chromatography
Mole fraction of ethyl acetate	Mole fraction of toluene	uncertainty	Mole fraction of ethyl acetate	uncertainty	Mole fraction of toluene	uncertainty
0.00132	0.00011	0.00011	0.1901	0.005737	0.793	
0.00215	0.00013	0.00013	0.3339	0.006025	0.645	
0.00321	0.000147	0.000147	0.5396	0.006346	0.4289	
0.00433	0.000152	0.000152	0.7265	0.005708	0.2203	

System: toluene + ethyl acetate + water; phases: Liquid mixture 1, Liquid mixture 2
Fixed: Pressure, kPa = 101.3
Fixed: Temperature, K = 298
Property: Mole fraction of ethyl acetate (Liquid mixture 1); method: Titration method
Mole fraction of toluene	Mole fraction of ethyl acetate	uncertainty
0	0.8468	0.0061
0.0001	0.0013	0.0001
0.0001	0.0032	0.0001
0.0002	0.0043	0.0002
0.0003	0.0077	0.0003
0.0017	0	0.0001
0.0974	0.8064	0.0077
0.1613	0.769	0.0092
0.3246	0.6402	0.0144
0.7059	0.28	0.0112
0.8995	0.075	0.003
0.957	0	0.0001

System: toluene + water; phases: Liquid mixture 1, Liquid mixture 2
Fixed: Pressure, kPa = 101.3
Fixed: Temperature, K = 298
Property: Mole fraction of water (Liquid mixture 1); method: Titration method
Mole fraction of water	uncertainty
0.9923	0.0003
0.1533	0.0061

System: toluene + water; phases: Liquid mixture 1, Liquid mixture 2
Fixed: Pressure, kPa = 101.3
Fixed: Temperature, K = 298
Property: Mole fraction of toluene (Liquid mixture 1); method: Titration method
Mole fraction of toluene	uncertainty
0.0017	
0.957	

System: ethyl acetate + water; phases: Liquid mixture 1, Liquid mixture 2
Fixed: Pressure, kPa = 101.3
Fixed: Temperature, K = 298
Property: Mole fraction of water (Liquid mixture 1); method: Titration method
Mole fraction of water	uncertainty
0.9983	0.0001
0.0299	0.0012

System: ethyl acetate + water; phases: Liquid mixture 1, Liquid mixture 2
Property: Mole fraction of ethyl acetate (Liquid mixture 1); method: Titration method
Pressure, kPa	Temperature, K	Mole fraction of ethyl acetate	uncertainty
101.3	298	0.8468	0.0061
