Measured thermophysical data. Density, Viscosity, Refractive Index, and Speed of Sound for Binary Mixtures of Anisole with 2-Chloroethanol, 1,4-Dioxane, Tetrachloroethylene, Tetrachloroethane, DMF, DMSO, and Diethyl Oxalate at (298.15, 303.15, and 308.15) K
Source: J. Chem. Eng. Data, 2005, 10.1021/je049610v
Compound 1: anisole, C7H8O, InChI=1S/C7H8O/c1-8-7-5-3-2-4-6-7/h2-6H,1H3, purity 99%
Compound 2: 1-chloro-2-hydroxyethane, C2H5ClO, InChI=1S/C2H5ClO/c3-1-2-4/h4H,1-2H2, purity 99%
Compound 3: 1,4-dioxane, C4H8O2, InChI=1S/C4H8O2/c1-2-6-4-3-5-1/h1-4H2, purity 99%
Compound 4: tetrachloroethene, C2Cl4, InChI=1S/C2Cl4/c3-1(4)2(5)6, purity 99.9%
Compound 5: dimethylformamide, C3H7NO, InChI=1S/C3H7NO/c1-4(2)3-5/h3H,1-2H3, purity 99.5%
Compound 6: dimethyl sulfoxide, C2H6OS, InChI=1S/C2H6OS/c1-4(2)3/h1-2H3, purity 99%
Compound 7: diethyl ethanedioate, C6H10O4, InChI=1S/C6H10O4/c1-3-9-5(7)6(8)10-4-2/h3-4H2,1-2H3, purity 99%
Compound 8: 1,1,2,2-tetrachloroethane, C2H2Cl4, InChI=1S/C2H2Cl4/c3-1(4)2(5)6/h1-2H, purity 99%

System: anisole; phases: Liquid
Fixed: Pressure, kPa = 101.325
Property: Refractive index (Na D-line) (Liquid); method: ABBE:UFactor:6
Temperature, K	Refractive index (Na D-line)	uncertainty
298.15	1.5148	0.0024
303.15	1.5124	0.0024
308.15	1.5092	0.0024

System: anisole; phases: Liquid
Fixed: Pressure, kPa = 101
Property: Viscosity, Pa*s (Liquid); method: CAPTUB:UFactor:4
Temperature, K	Viscosity, Pa*s	uncertainty
298.15	0.000992	3.2e-05
303.15	0.000919	3e-05
303.15	0.000918	3e-05
308.15	0.000853	2.8e-05

System: anisole; phases: Liquid
Property: Speed of sound, m/s (Liquid); method: LVPAI:UFactor:4
Pressure, kPa	Temperature, K	Speed of sound, m/s	uncertainty
101	298.15	1410	8

System: anisole; phases: Liquid
Fixed: Pressure, kPa = 101
Property: Mass density, kg/m3 (Liquid); method: PYCNOM:UFactor:8
Temperature, K	Mass density, kg/m3	uncertainty
298.15	988.9	2
303.15	984.1	2.1
308.15	979.4	2.1

System: 1-chloro-2-hydroxyethane; phases: Liquid
Fixed: Pressure, kPa = 101.325
Property: Refractive index (Na D-line) (Liquid); method: ABBE::UFactor:6
Temperature, K	Refractive index (Na D-line)	uncertainty
298.15	1.4411	0.0024
303.15	1.438	0.0024
308.15	1.4326	0.0024

System: 1-chloro-2-hydroxyethane; phases: Liquid
Fixed: Pressure, kPa = 101
Property: Viscosity, Pa*s (Liquid); method: CAPTUB::UFactor:4
Temperature, K	Viscosity, Pa*s	uncertainty
298.15	0.003104	9.1e-05
303.15	0.002669	7.9e-05
308.15	0.002347	7e-05

System: 1-chloro-2-hydroxyethane; phases: Liquid
Property: Speed of sound, m/s (Liquid); method: LVPAI::UFactor:4
Pressure, kPa	Temperature, K	Speed of sound, m/s	uncertainty
101	298.15	1358	8

System: 1-chloro-2-hydroxyethane; phases: Liquid
Fixed: Pressure, kPa = 101
Property: Mass density, kg/m3 (Liquid); method: PYCNOM::UFactor:8
Temperature, K	Mass density, kg/m3	uncertainty
298.15	1200.9	2.5
303.15	1192.5	2.6
308.15	1187.1	2.7

System: 1,4-dioxane; phases: Liquid
Fixed: Pressure, kPa = 101.325
Property: Refractive index (Na D-line) (Liquid); method: ABBE::UFactor:6
Temperature, K	Refractive index (Na D-line)	uncertainty
298.15	1.4181	0.0024
303.15	1.4176	0.0024
308.15	1.4141	0.0024

System: 1,4-dioxane; phases: Liquid
Fixed: Pressure, kPa = 101
Property: Viscosity, Pa*s (Liquid); method: CAPTUB::UFactor:4
Temperature, K	Viscosity, Pa*s	uncertainty
298.15	0.001415	4.4e-05
303.15	0.001171	0.0001
308.15	0.001068	3.4e-05

System: 1,4-dioxane; phases: Liquid
Property: Speed of sound, m/s (Liquid); method: LVPAI::UFactor:4
Pressure, kPa	Temperature, K	Speed of sound, m/s	uncertainty
101	298.15	1345	7

System: 1,4-dioxane; phases: Liquid
Fixed: Pressure, kPa = 101
Property: Mass density, kg/m3 (Liquid); method: PYCNOM::UFactor:8
Temperature, K	Mass density, kg/m3	uncertainty
298.15	1028.3	2.1
303.15	1023.1	2.2
308.15	1017.8	2.2

System: tetrachloroethene; phases: Liquid
Fixed: Pressure, kPa = 101.325
Property: Refractive index (Na D-line) (Liquid); method: ABBE::UFactor:6
Temperature, K	Refractive index (Na D-line)	uncertainty
298.15	1.5036	0.0024
303.15	1.501	0.0024
308.15	1.498	0.0024

System: tetrachloroethene; phases: Liquid
Fixed: Pressure, kPa = 101
Property: Viscosity, Pa*s (Liquid); method: CAPTUB::UFactor:4
Temperature, K	Viscosity, Pa*s	uncertainty
298.15	0.000861	2.8e-05
303.15	0.000817	2.7e-05
308.15	0.000782	2.6e-05

System: tetrachloroethene; phases: Liquid
Property: Speed of sound, m/s (Liquid); method: LVPAI::UFactor:4
Pressure, kPa	Temperature, K	Speed of sound, m/s	uncertainty
101	298.15	1038	6

System: tetrachloroethene; phases: Liquid
Fixed: Pressure, kPa = 101
Property: Mass density, kg/m3 (Liquid); method: PYCNOM::UFactor:8
Temperature, K	Mass density, kg/m3	uncertainty
298.15	1614.7	3.5
303.15	1606.9	3.6
308.15	1599	3.6

System: dimethylformamide; phases: Liquid
Fixed: Pressure, kPa = 101.325
Property: Refractive index (Na D-line) (Liquid); method: ABBE::UFactor:6
Temperature, K	Refractive index (Na D-line)	uncertainty
298.15	1.4288	0.0024
303.15	1.4264	0.0024
308.15	1.4238	0.0024

System: dimethylformamide; phases: Liquid
Fixed: Pressure, kPa = 101
Property: Viscosity, Pa*s (Liquid); method: CAPTUB::UFactor:4
Temperature, K	Viscosity, Pa*s	uncertainty
298.15	0.000801	2.6e-05
303.15	0.000754	2.5e-05
308.15	0.000711	2.4e-05

System: dimethylformamide; phases: Liquid
Property: Speed of sound, m/s (Liquid); method: LVPAI::UFactor:4
Pressure, kPa	Temperature, K	Speed of sound, m/s	uncertainty
101	298.15	1462	8

System: dimethylformamide; phases: Liquid
Fixed: Pressure, kPa = 101
Property: Mass density, kg/m3 (Liquid); method: PYCNOM:UFactor:8
Temperature, K	Mass density, kg/m3	uncertainty
298.15	943.9	4
303.15	939.5	4.1
308.15	935	4.1

System: dimethyl sulfoxide; phases: Liquid
Fixed: Pressure, kPa = 101.325
Property: Refractive index (Na D-line) (Liquid); method: ABBE::UFactor:16
Temperature, K	Refractive index (Na D-line)	uncertainty
298.15	1.4768	0.0064
303.15	1.4594	0.0064
308.15	1.4547	0.0064

System: dimethyl sulfoxide; phases: Liquid
Fixed: Pressure, kPa = 101
Property: Viscosity, Pa*s (Liquid); method: CAPTUB::UFactor:4
Temperature, K	Viscosity, Pa*s	uncertainty
298.15	0.001984	6e-05
303.15	0.001801	5.5e-05
308.15	0.001651	5e-05

System: dimethyl sulfoxide; phases: Liquid
Property: Speed of sound, m/s (Liquid); method: LVPAI::UFactor:4
Pressure, kPa	Temperature, K	Speed of sound, m/s	uncertainty
101	298.15	1493	8

System: dimethyl sulfoxide; phases: Liquid
Fixed: Pressure, kPa = 101
Property: Mass density, kg/m3 (Liquid); method: PYCNOM::UFactor:8
Temperature, K	Mass density, kg/m3	uncertainty
298.15	1095.4	2.3
303.15	1090.8	2.3
308.15	1086.2	2.4

System: diethyl ethanedioate; phases: Liquid
Fixed: Pressure, kPa = 101.325
Property: Refractive index (Na D-line) (Liquid); method: ABBE::UFactor:6
Temperature, K	Refractive index (Na D-line)	uncertainty
298.15	1.4084	0.0024
303.15	1.4061	0.0024
308.15	1.4039	0.0024

System: diethyl ethanedioate; phases: Liquid
Fixed: Pressure, kPa = 101
Property: Viscosity, Pa*s (Liquid); method: CAPTUB::UFactor:4
Temperature, K	Viscosity, Pa*s	uncertainty
298.15	0.001844	5.6e-05
303.15	0.001659	5.1e-05
308.15	0.001508	4.6e-05

System: diethyl ethanedioate; phases: Liquid
Property: Speed of sound, m/s (Liquid); method: LVPAI::UFactor:4
Pressure, kPa	Temperature, K	Speed of sound, m/s	uncertainty
101	298.15	1267	7

System: diethyl ethanedioate; phases: Liquid
Fixed: Pressure, kPa = 101
Property: Mass density, kg/m3 (Liquid); method: PYCNOM::UFactor:8
Temperature, K	Mass density, kg/m3	uncertainty
298.15	1072.3	2.2
303.15	1066.6	2.3
308.15	1060.7	2.4

System: 1,1,2,2-tetrachloroethane; phases: Liquid
Fixed: Pressure, kPa = 101.325
Property: Refractive index (Na D-line) (Liquid); method: ABBE::UFactor:6
Temperature, K	Refractive index (Na D-line)	uncertainty
298.15	1.4922	0.0024
303.15	1.4894	0.0024
308.15	1.4865	0.0024

System: 1,1,2,2-tetrachloroethane; phases: Liquid
Fixed: Pressure, kPa = 101
Property: Viscosity, Pa*s (Liquid); method: CAPTUB::UFactor:4
Temperature, K	Viscosity, Pa*s	uncertainty
298.15	0.001591	4.9e-05
303.15	0.001471	4.5e-05
308.15	0.001361	4.2e-05

System: 1,1,2,2-tetrachloroethane; phases: Liquid
Property: Speed of sound, m/s (Liquid); method: LVPAI::UFactor:4
Pressure, kPa	Temperature, K	Speed of sound, m/s	uncertainty
101	298.15	1153	7

System: 1,1,2,2-tetrachloroethane; phases: Liquid
Fixed: Pressure, kPa = 101
Property: Mass density, kg/m3 (Liquid); method: PYCNOM::UFactor:8
Temperature, K	Mass density, kg/m3	uncertainty
298.15	1587.8	3.5
303.15	1580.6	3.6
308.15	1573.3	3.6

System: anisole + 1-chloro-2-hydroxyethane; phases: Liquid
Fixed: Pressure, kPa = 101
Fixed: Temperature, K = 298.15
Property: Speed of sound, m/s (Liquid); method: LVPAI:UFactor:4
Mole fraction of anisole	Speed of sound, m/s	uncertainty
0	1358	8
0.103	1365	8
0.209	1372	8
0.313	1378	8
0.395	1382	8
0.49	1388	8
0.59	1392	8
0.69	1397	8
0.797	1402	8
0.898	1406	8
1	1410	8

System: anisole + 1-chloro-2-hydroxyethane; phases: Liquid
Fixed: Pressure, kPa = 101
Property: Viscosity, Pa*s (Liquid); method: CAPTUB:UFactor:4
Temperature, K	Mole fraction of anisole	Viscosity, Pa*s	uncertainty
298.15	0	0.003104	9.1e-05
298.15	0.103	0.0026	7.7e-05
298.15	0.209	0.00213	6.4e-05
298.15	0.313	0.001778	5.4e-05
298.15	0.395	0.001583	4.9e-05
298.15	0.49	0.001418	4.4e-05
298.15	0.59	0.001269	4e-05
298.15	0.69	0.001155	3.7e-05
298.15	0.797	0.001087	3.5e-05
298.15	0.898	0.001007	3.2e-05
298.15	1	0.000992	3.2e-05
303.15	0	0.002669	7.9e-05
303.15	0.103	0.002334	6.9e-05
303.15	0.209	0.001943	5.9e-05
303.15	0.313	0.001631	5e-05
303.15	0.395	0.001452	4.5e-05
303.15	0.49	0.001289	4e-05
303.15	0.59	0.001158	3.7e-05
303.15	0.69	0.001064	3.4e-05
303.15	0.797	0.001004	3.2e-05
303.15	0.898	0.000936	3e-05
303.15	1	0.000919	3e-05
308.15	0	0.002347	7e-05
308.15	0.103	0.002068	6.2e-05
308.15	0.209	0.001755	5.3e-05
308.15	0.313	0.001485	4.6e-05
308.15	0.395	0.00132	4.1e-05
308.15	0.49	0.00116	3.7e-05
308.15	0.59	0.001046	3.4e-05
308.15	0.69	0.000972	3.1e-05
308.15	0.797	0.000921	3e-05
308.15	0.898	0.000865	2.8e-05
308.15	1	0.000853	2.8e-05

System: anisole + 1-chloro-2-hydroxyethane; phases: Liquid
Fixed: Pressure, kPa = 101
Property: Refractive index (Na D-line) (Liquid); method: ABBE:UFactor:6
Temperature, K	Mole fraction of anisole	Refractive index (Na D-line)	uncertainty
298.15	0	1.4411	0.0024
298.15	0.103	1.4495	0.0024
298.15	0.209	1.461	0.0024
298.15	0.313	1.4712	0.0024
298.15	0.395	1.4767	0.0024
298.15	0.49	1.4836	0.0024
298.15	0.59	1.4899	0.0024
298.15	0.69	1.4978	0.0024
298.15	0.797	1.5034	0.0024
298.15	0.898	1.5094	0.0024
298.15	1	1.5148	0.0024
303.15	0	1.438	0.0024
303.15	0.103	1.4793	0.04
303.15	0.209	1.4586	0.0024
303.15	0.313	1.4684	0.0024
303.15	0.395	1.4745	0.0024
303.15	0.49	1.4807	0.0024
303.15	0.59	1.4879	0.0024
303.15	0.69	1.4951	0.0024
303.15	0.797	1.5011	0.0024
303.15	0.898	1.5067	0.0024
303.15	1	1.5124	0.0024
308.15	0	1.4326	0.0024
308.15	0.103	1.4468	0.0024
308.15	0.209	1.4564	0.0024
308.15	0.313	1.4652	0.0024
308.15	0.395	1.4723	0.0024
308.15	0.49	1.4778	0.0024
308.15	0.59	1.4859	0.0024
308.15	0.69	1.4923	0.0024
308.15	0.797	1.4999	0.0024
308.15	0.898	1.5041	0.0024
308.15	1	1.5092	0.0024

System: anisole + 1-chloro-2-hydroxyethane; phases: Liquid
Fixed: Pressure, kPa = 101
Property: Mass density, kg/m3 (Liquid); method: PYCNOM:UFactor:8
Temperature, K	Mole fraction of anisole	Mass density, kg/m3	uncertainty
298.15	0	1200.9	2.5
298.15	0.103	1165.8	2.4
298.15	0.209	1134.5	2.4
298.15	0.313	1107.6	2.3
298.15	0.395	1088.7	2.2
298.15	0.49	1068.8	2.2
298.15	0.59	1049.8	2.1
298.15	0.69	1032.5	2.1
298.15	0.797	1015.9	2.1
298.15	0.898	1001.9	2
298.15	1	988.9	2
303.15	0	1192.5	2.6
303.15	0.103	1158.6	2.5
303.15	0.209	1129	2.4
303.15	0.313	1102.5	2.4
303.15	0.395	1083.9	2.3
303.15	0.49	1064.3	2.3
303.15	0.59	1044.8	2.2
303.15	0.69	1027.5	2.2
303.15	0.797	1010	2.1
303.15	0.898	996.1	2.1
303.15	1	984.1	2.1
308.15	0	1187.1	2.7
308.15	0.103	1153.9	2.6
308.15	0.209	1123.7	2.5
308.15	0.313	1097.5	2.4
308.15	0.395	1078.8	2.4
308.15	0.49	1058.9	2.4
308.15	0.59	1040.1	2.3
308.15	0.69	1023	2.3
308.15	0.797	1006.6	2.2
308.15	0.898	992.5	2.2
308.15	1	979.4	2.1

System: anisole + 1,4-dioxane; phases: Liquid
Fixed: Pressure, kPa = 101
Fixed: Temperature, K = 298.15
Property: Speed of sound, m/s (Liquid); method: LVPAI:UFactor:4
Mole fraction of anisole	Speed of sound, m/s	uncertainty
0	1345	7
0.0982	1355	8
0.199	1364	8
0.296	1371	8
0.398	1378	8
0.5046	1385	8
0.6044	1390	8
0.7057	1396	8
0.8028	1401	8
0.9005	1405	8
1	1410	8

System: anisole + 1,4-dioxane; phases: Liquid
Fixed: Pressure, kPa = 101
Property: Viscosity, Pa*s (Liquid); method: CAPTUB:UFactor:4
Temperature, K	Mole fraction of anisole	Viscosity, Pa*s	uncertainty
298.15	0	0.001415	4.4e-05
298.15	0.0982	0.001342	4.2e-05
298.15	0.199	0.001267	4e-05
298.15	0.296	0.00119	3.8e-05
298.15	0.398	0.00112	3.6e-05
298.15	0.5046	0.001072	3.4e-05
298.15	0.6044	0.001048	3.4e-05
298.15	0.7057	0.001042	3.3e-05
298.15	0.8028	0.001032	3.3e-05
298.15	0.9005	0.001011	3.3e-05
298.15	1	0.000992	3.2e-05
303.15	0	0.001171	0.0001
303.15	0.0982	0.001185	3.7e-05
303.15	0.199	0.001128	3.6e-05
303.15	0.296	0.001074	3.4e-05
303.15	0.398	0.001028	3.3e-05
303.15	0.5046	0.000994	3.2e-05
303.15	0.6044	0.000976	3.2e-05
303.15	0.7057	0.000969	3.1e-05
303.15	0.8028	0.000957	3.1e-05
303.15	0.9005	0.000941	3.1e-05
303.15	1	0.000919	3e-05
308.15	0	0.001068	3.4e-05
308.15	0.0982	0.001028	3.3e-05
308.15	0.199	0.00099	3.2e-05
308.15	0.296	0.000957	3.1e-05
308.15	0.398	0.000936	3e-05
308.15	0.5046	0.000917	3e-05
308.15	0.6044	0.000904	3e-05
308.15	0.7057	0.000897	2.9e-05
308.15	0.8028	0.000883	2.9e-05
308.15	0.9005	0.00087	2.9e-05
308.15	1	0.000853	2.8e-05

System: anisole + 1,4-dioxane; phases: Liquid
Fixed: Pressure, kPa = 101
Property: Refractive index (Na D-line) (Liquid); method: ABBE:UFactor:6
Temperature, K	Mole fraction of anisole	Refractive index (Na D-line)	uncertainty
298.15	0	1.4181	0.0024
298.15	0.0982	1.432	0.0024
298.15	0.199	1.4434	0.0024
298.15	0.296	1.4538	0.0024
298.15	0.398	1.4647	0.0024
298.15	0.5046	1.475	0.0024
298.15	0.6044	1.484	0.0024
298.15	0.7057	1.4925	0.0024
298.15	0.8028	1.5009	0.0024
298.15	0.9005	1.5084	0.0024
298.15	1	1.5148	0.0024
303.15	0	1.4176	0.0024
303.15	0.0982	1.4295	0.0024
303.15	0.199	1.4408	0.0024
303.15	0.296	1.4514	0.0024
303.15	0.398	1.4628	0.0024
303.15	0.5046	1.472	0.0024
303.15	0.6044	1.4814	0.0024
303.15	0.7057	1.4899	0.0024
303.15	0.8028	1.4982	0.0024
303.15	0.9005	1.5054	0.0024
303.15	1	1.5124	0.0024
308.15	0	1.4141	0.0024
308.15	0.0982	1.427	0.0024
308.15	0.199	1.4383	0.0024
308.15	0.296	1.4496	0.0024
308.15	0.398	1.4603	0.0024
308.15	0.5046	1.47	0.0024
308.15	0.6044	1.4789	0.0024
308.15	0.7057	1.4872	0.0024
308.15	0.8028	1.4956	0.0024
308.15	0.9005	1.5025	0.0024
308.15	1	1.5092	0.0024

System: anisole + 1,4-dioxane; phases: Liquid
Fixed: Pressure, kPa = 101
Property: Mass density, kg/m3 (Liquid); method: PYCNOM:UFactor:8
Temperature, K	Mole fraction of anisole	Mass density, kg/m3	uncertainty
298.15	0	1028.3	2.1
298.15	0.0982	1023.3	2.1
298.15	0.199	1018.4	2.1
298.15	0.296	1014	2.1
298.15	0.398	1009.7	2
298.15	0.5046	1005.5	2
298.15	0.6044	1001.8	2
298.15	0.7057	998.3	2
298.15	0.8028	995.1	2
298.15	0.9005	991.9	2
298.15	1	988.9	2
303.15	0	1023.1	2.2
303.15	0.0982	1017.9	2.2
303.15	0.199	1013.2	2.1
303.15	0.296	1008.6	2.1
303.15	0.398	1004.6	2.1
303.15	0.5046	1000.6	2.1
303.15	0.6044	996.9	2.1
303.15	0.7057	993.5	2.1
303.15	0.8028	990.5	2.1
303.15	0.9005	987.4	2.1
303.15	1	984.1	2.1
308.15	0	1017.8	2.2
308.15	0.0982	1012.9	2.2
308.15	0.199	1008.2	2.2
308.15	0.296	1003.9	2.2
308.15	0.398	999.8	2.2
308.15	0.5046	995.7	2.2
308.15	0.6044	992.1	2.2
308.15	0.7057	988.6	2.2
308.15	0.8028	985.4	2.2
308.15	0.9005	982.4	2.2
308.15	1	979.4	2.1

System: anisole + tetrachloroethene; phases: Liquid
Fixed: Pressure, kPa = 101
Fixed: Temperature, K = 298.15
Property: Speed of sound, m/s (Liquid); method: LVPAI:UFactor:4
Mole fraction of anisole	Speed of sound, m/s	uncertainty
0	1038	6
0.0979	1065	6
0.1962	1094	6
0.3035	1127	7
0.4024	1159	7
0.5044	1195	7
0.6045	1232	7
0.7033	1271	7
0.8036	1314	7
0.8974	1359	8
1	1410	8

System: anisole + tetrachloroethene; phases: Liquid
Fixed: Pressure, kPa = 101
Property: Viscosity, Pa*s (Liquid); method: CAPTUB:UFactor:4
Temperature, K	Mole fraction of anisole	Viscosity, Pa*s	uncertainty
298.15	0	0.000861	2.8e-05
298.15	0.0979	0.000859	2.8e-05
298.15	0.1962	0.000854	2.8e-05
298.15	0.3035	0.000854	2.8e-05
298.15	0.4024	0.000861	2.8e-05
298.15	0.5044	0.000874	2.8e-05
298.15	0.6045	0.000892	2.9e-05
298.15	0.7033	0.000909	3e-05
298.15	0.8036	0.000935	3e-05
298.15	0.8974	0.000961	3.1e-05
298.15	1	0.000992	3.2e-05
303.15	0	0.000817	2.7e-05
303.15	0.0979	0.000818	2.7e-05
303.15	0.1962	0.000813	2.7e-05
303.15	0.3035	0.000811	2.7e-05
303.15	0.4024	0.000815	2.7e-05
303.15	0.5044	0.000825	2.7e-05
303.15	0.6045	0.000839	2.8e-05
303.15	0.7033	0.000855	2.8e-05
303.15	0.8036	0.000877	2.9e-05
303.15	0.8974	0.000898	2.9e-05
303.15	1	0.000919	3e-05
308.15	0	0.000782	2.6e-05
308.15	0.0979	0.000776	2.6e-05
308.15	0.1962	0.00077	2.5e-05
308.15	0.3035	0.000767	2.5e-05
308.15	0.4024	0.00077	2.6e-05
308.15	0.5044	0.000776	2.6e-05
308.15	0.6045	0.000787	2.6e-05
308.15	0.7033	0.000799	2.6e-05
308.15	0.8036	0.000817	2.7e-05
308.15	0.8974	0.000835	2.8e-05
308.15	1	0.000853	2.8e-05

System: anisole + tetrachloroethene; phases: Liquid
Fixed: Pressure, kPa = 101
Property: Refractive index (Na D-line) (Liquid); method: ABBE:UFactor:6
Temperature, K	Mole fraction of anisole	Refractive index (Na D-line)	uncertainty
298.15	0	1.5036	0.0024
298.15	0.0979	1.5044	0.0024
298.15	0.1962	1.5053	0.0024
298.15	0.3035	1.5065	0.0024
298.15	0.4024	1.5075	0.0024
298.15	0.5044	1.5086	0.0024
298.15	0.6045	1.5099	0.0024
298.15	0.7033	1.5111	0.0024
298.15	0.8036	1.5124	0.0024
298.15	0.8974	1.5135	0.0024
298.15	1	1.5148	0.0024
303.15	0	1.501	0.0024
303.15	0.0979	1.5015	0.0024
303.15	0.1962	1.5023	0.0024
303.15	0.3035	1.5034	0.0024
303.15	0.4024	1.5044	0.0024
303.15	0.5044	1.5056	0.0024
303.15	0.6045	1.5069	0.0024
303.15	0.7033	1.5083	0.0024
303.15	0.8036	1.5096	0.0024
303.15	0.8974	1.5101	0.0024
303.15	1	1.5124	0.0024
308.15	0	1.498	0.0024
308.15	0.0979	1.4986	0.0024
308.15	0.1962	1.4993	0.0024
308.15	0.3035	1.5004	0.0024
308.15	0.4024	1.5014	0.0024
308.15	0.5044	1.5026	0.0024
308.15	0.6045	1.504	0.0024
308.15	0.7033	1.5054	0.0024
308.15	0.8036	1.5068	0.0024
308.15	0.8974	1.508	0.0024
308.15	1	1.5092	0.0024

System: anisole + tetrachloroethene; phases: Liquid
Fixed: Pressure, kPa = 101
Property: Mass density, kg/m3 (Liquid); method: PYCNOM:UFactor:8
Temperature, K	Mole fraction of anisole	Mass density, kg/m3	uncertainty
298.15	0	1614.7	3.5
298.15	0.0979	1548.6	3.3
298.15	0.1962	1483.4	3.2
298.15	0.3035	1413.9	3
298.15	0.4024	1350.9	2.9
298.15	0.5044	1286.9	2.7
298.15	0.6045	1225.3	2.6
298.15	0.7033	1165.1	2.4
298.15	0.8036	1105	2.3
298.15	0.8974	1049.2	2.1
298.15	1	988.9	2
303.15	0	1606.9	3.6
303.15	0.0979	1540.9	3.4
303.15	0.1962	1476.1	3.2
303.15	0.3035	1407	3.1
303.15	0.4024	1343.5	2.9
303.15	0.5044	1280.5	2.8
303.15	0.6045	1219.3	2.6
303.15	0.7033	1159.6	2.5
303.15	0.8036	1099.6	2.4
303.15	0.8974	1044.8	2.2
303.15	1	984.1	2.1
308.15	0	1599	3.6
308.15	0.0979	1533.6	3.5
308.15	0.1962	1469	3.3
308.15	0.3035	1400.4	3.2
308.15	0.4024	1337.9	3
308.15	0.5044	1274.6	2.9
308.15	0.6045	1213.5	2.7
308.15	0.7033	1154.1	2.6
308.15	0.8036	1094.5	2.4
308.15	0.8974	1039.2	2.3
308.15	1	979.4	2.1

System: 1,1,2,2-tetrachloroethane + anisole; phases: Liquid
Fixed: Pressure, kPa = 101
Fixed: Temperature, K = 298.15
Property: Speed of sound, m/s (Liquid); method: LVPAI:UFactor:4
Mole fraction of anisole	Speed of sound, m/s	uncertainty
0	1153	7
0.1003	1172	7
0.2021	1193	7
0.303	1214	7
0.3939	1235	7
0.4986	1262	7
0.5975	1289	7
0.6972	1317	7
0.7983	1347	7
0.9012	1379	8
1	1410	8

System: 1,1,2,2-tetrachloroethane + anisole; phases: Liquid
Fixed: Pressure, kPa = 101
Property: Viscosity, Pa*s (Liquid); method: CAPTUB:UFactor:4
Temperature, K	Mole fraction of anisole	Viscosity, Pa*s	uncertainty
298.15	0	0.001591	4.9e-05
298.15	0.1003	0.001555	4.8e-05
298.15	0.2021	0.001518	4.7e-05
298.15	0.303	0.00147	4.5e-05
298.15	0.3939	0.001419	4.4e-05
298.15	0.4986	0.001355	4.2e-05
298.15	0.5975	0.001292	4e-05
298.15	0.6972	0.001224	3.9e-05
298.15	0.7983	0.001149	3.6e-05
298.15	0.9012	0.001074	3.4e-05
298.15	1	0.000992	3.2e-05
303.15	0	0.001471	4.5e-05
303.15	0.1003	0.001439	4.5e-05
303.15	0.2021	0.001404	4.4e-05
303.15	0.303	0.001362	4.2e-05
303.15	0.3939	0.001315	4.1e-05
303.15	0.4986	0.001255	3.9e-05
303.15	0.5975	0.001196	3.8e-05
303.15	0.6972	0.001131	3.6e-05
303.15	0.7983	0.001064	3.4e-05
303.15	0.9012	0.000994	3.2e-05
303.15	1	0.000919	3e-05
308.15	0	0.001361	4.2e-05
308.15	0.1003	0.001323	4.1e-05
308.15	0.2021	0.00129	4e-05
308.15	0.303	0.001253	3.9e-05
308.15	0.3939	0.00121	3.8e-05
308.15	0.4986	0.001155	3.7e-05
308.15	0.5975	0.0011	3.5e-05
308.15	0.6972	0.001038	3.3e-05
308.15	0.7983	0.000979	3.2e-05
308.15	0.9012	0.000914	3e-05
308.15	1	0.000853	2.8e-05

System: 1,1,2,2-tetrachloroethane + anisole; phases: Liquid
Fixed: Pressure, kPa = 101
Property: Refractive index (Na D-line) (Liquid); method: ABBE:UFactor:6
Temperature, K	Mole fraction of anisole	Refractive index (Na D-line)	uncertainty
298.15	0	1.4922	0.0024
298.15	0.1003	1.4943	0.0024
298.15	0.2021	1.4966	0.0024
298.15	0.303	1.4989	0.0024
298.15	0.3939	1.5009	0.0024
298.15	0.4986	1.5032	0.0024
298.15	0.5975	1.5055	0.0024
298.15	0.6972	1.508	0.0024
298.15	0.7983	1.5105	0.0024
298.15	0.9012	1.5129	0.0024
298.15	1	1.5148	0.0024
303.15	0	1.4894	0.0024
303.15	0.1003	1.4915	0.0024
303.15	0.2021	1.4937	0.0024
303.15	0.303	1.496	0.0024
303.15	0.3939	1.498	0.0024
303.15	0.4986	1.5005	0.0024
303.15	0.5975	1.5028	0.0024
303.15	0.6972	1.5052	0.0024
303.15	0.7983	1.5076	0.0024
303.15	0.9012	1.51	0.0024
303.15	1	1.5124	0.0024
308.15	0	1.4865	0.0024
308.15	0.1003	1.4887	0.0024
308.15	0.2021	1.4909	0.0024
308.15	0.303	1.4931	0.0024
308.15	0.3939	1.4952	0.0024
308.15	0.4986	1.4977	0.0024
308.15	0.5975	1.5	0.0024
308.15	0.6972	1.5023	0.0024
308.15	0.7983	1.505	0.0024
308.15	0.9012	1.5072	0.0024
308.15	1	1.5092	0.0024

System: 1,1,2,2-tetrachloroethane + anisole; phases: Liquid
Fixed: Pressure, kPa = 101
Property: Mass density, kg/m3 (Liquid); method: PYCNOM:UFactor:8
Temperature, K	Mole fraction of anisole	Mass density, kg/m3	uncertainty
298.15	0	1587.8	3.5
298.15	0.1003	1526.3	3.4
298.15	0.2021	1464.3	3.2
298.15	0.303	1403.1	3
298.15	0.3939	1348.3	2.9
298.15	0.4986	1285.5	2.8
298.15	0.5975	1226.5	2.6
298.15	0.6972	1167.2	2.5
298.15	0.7983	1107.6	2.3
298.15	0.9012	1047	2.2
298.15	1	988.9	2
303.15	0	1580.6	3.6
303.15	0.1003	1519.4	3.4
303.15	0.2021	1457.7	3.3
303.15	0.303	1396.9	3.1
303.15	0.3939	1342.2	3
303.15	0.4986	1279.9	2.8
303.15	0.5975	1221.1	2.7
303.15	0.6972	1162.1	2.5
303.15	0.7983	1102.7	2.4
303.15	0.9012	1042.8	2.2
303.15	1	984.1	2.1
308.15	0	1573.3	3.6
308.15	0.1003	1512.6	3.5
308.15	0.2021	1451.2	3.3
308.15	0.303	1390.6	3.2
308.15	0.3939	1336.2	3.1
308.15	0.4986	1274	2.9
308.15	0.5975	1215.6	2.8
308.15	0.6972	1156.9	2.6
308.15	0.7983	1097.7	2.5
308.15	0.9012	1037.4	2.3
308.15	1	979.4	2.1

System: dimethylformamide + anisole; phases: Liquid
Fixed: Pressure, kPa = 101
Fixed: Temperature, K = 298.15
Property: Speed of sound, m/s (Liquid); method: LVPAI:UFactor:4
Mole fraction of anisole	Speed of sound, m/s	uncertainty
0	1462	8
0.1004	1456	8
0.196	1451	8
0.2939	1445	8
0.3966	1438	8
0.4975	1432	8
0.5983	1427	8
0.6953	1422	8
0.7984	1418	8
0.9042	1413	8
1	1410	8

System: dimethylformamide + anisole; phases: Liquid
Fixed: Pressure, kPa = 101
Property: Viscosity, Pa*s (Liquid); method: CAPTUB:UFactor:4
Temperature, K	Mole fraction of anisole	Viscosity, Pa*s	uncertainty
298.15	0	0.000801	2.6e-05
298.15	0.1004	0.000833	2.7e-05
298.15	0.196	0.000859	2.8e-05
298.15	0.2939	0.000886	2.9e-05
298.15	0.3966	0.000912	3e-05
298.15	0.4975	0.000937	3e-05
298.15	0.5983	0.000957	3.1e-05
298.15	0.6953	0.000977	3.1e-05
298.15	0.7984	0.000994	3.2e-05
298.15	0.9042	0.001006	3.2e-05
298.15	1	0.000992	3.2e-05
303.15	0	0.000754	2.5e-05
303.15	0.1004	0.000787	2.6e-05
303.15	0.196	0.00081	2.7e-05
303.15	0.2939	0.000833	2.7e-05
303.15	0.3966	0.000856	2.8e-05
303.15	0.4975	0.000878	2.9e-05
303.15	0.5983	0.000897	2.9e-05
303.15	0.6953	0.000913	3e-05
303.15	0.7984	0.000928	3e-05
303.15	0.9042	0.000938	3e-05
303.15	1	0.000919	3e-05
308.15	0	0.000711	2.4e-05
308.15	0.1004	0.000739	2.5e-05
308.15	0.196	0.00076	2.5e-05
308.15	0.2939	0.00078	2.6e-05
308.15	0.3966	0.000799	2.6e-05
308.15	0.4975	0.000819	2.7e-05
308.15	0.5983	0.000836	2.8e-05
308.15	0.6953	0.000851	2.8e-05
308.15	0.7984	0.000863	2.8e-05
308.15	0.9042	0.000871	2.9e-05
308.15	1	0.000853	2.8e-05

System: dimethylformamide + anisole; phases: Liquid
Fixed: Pressure, kPa = 101
Property: Refractive index (Na D-line) (Liquid); method: ABBE:UFactor:6
Temperature, K	Mole fraction of anisole	Refractive index (Na D-line)	uncertainty
298.15	0	1.4288	0.0024
298.15	0.1004	1.4407	0.0024
298.15	0.196	1.4513	0.0024
298.15	0.2939	1.4614	0.0024
298.15	0.3966	1.4708	0.0024
298.15	0.4975	1.4798	0.0024
298.15	0.5983	1.4878	0.0024
298.15	0.6953	1.4953	0.0024
298.15	0.7984	1.5024	0.0024
298.15	0.9042	1.5099	0.0024
298.15	1	1.5148	0.0024
303.15	0	1.4264	0.0024
303.15	0.1004	1.4381	0.0024
303.15	0.196	1.4487	0.0024
303.15	0.2939	1.4587	0.0024
303.15	0.3966	1.4683	0.0024
303.15	0.4975	1.4771	0.0024
303.15	0.5983	1.4852	0.0024
303.15	0.6953	1.4928	0.0024
303.15	0.7984	1.5	0.0024
303.15	0.9042	1.5071	0.0024
303.15	1	1.5124	0.0024
308.15	0	1.4238	0.0024
308.15	0.1004	1.4356	0.0024
308.15	0.196	1.4462	0.0024
308.15	0.2939	1.4558	0.0024
308.15	0.3966	1.4656	0.0024
308.15	0.4975	1.4744	0.0024
308.15	0.5983	1.4825	0.0024
308.15	0.6953	1.4902	0.0024
308.15	0.7984	1.4973	0.0024
308.15	0.9042	1.5043	0.0024
308.15	1	1.5092	0.0024

System: dimethylformamide + anisole; phases: Liquid
Fixed: Pressure, kPa = 101
Property: Mass density, kg/m3 (Liquid); method: PYCNOM:UFactor:8
Temperature, K	Mole fraction of anisole	Mass density, kg/m3	uncertainty
298.15	0	943.9	1.8
298.15	0.1004	951	1.9
298.15	0.196	957	1.9
298.15	0.2939	962.9	1.9
298.15	0.3966	968.5	1.9
298.15	0.4975	973.4	1.9
298.15	0.5983	977.6	1.9
298.15	0.6953	981.2	2
298.15	0.7984	984.7	2
298.15	0.9042	987.7	2
298.15	1	988.9	2
303.15	0	939.5	1.9
303.15	0.1004	946.6	1.9
303.15	0.196	952.7	2
303.15	0.2939	958.2	2
303.15	0.3966	964.1	2
303.15	0.4975	968.8	2
303.15	0.5983	973.2	2
303.15	0.6953	976.9	2
303.15	0.7984	980.3	2
303.15	0.9042	983.3	2.1
303.15	1	984.1	2.1
308.15	0	935	2
308.15	0.1004	942.3	2
308.15	0.196	948.2	2
308.15	0.2939	953.9	2.1
308.15	0.3966	959.7	2.1
308.15	0.4975	964.4	2.1
308.15	0.5983	968.7	2.1
308.15	0.6953	972.4	2.1
308.15	0.7984	975.9	2.1
308.15	0.9042	978.5	2.1
308.15	1	979.4	2.1

System: dimethyl sulfoxide + anisole; phases: Liquid
Fixed: Pressure, kPa = 101
Fixed: Temperature, K = 298.15
Property: Speed of sound, m/s (Liquid); method: LVPAI:UFactor:4
Mole fraction of anisole	Speed of sound, m/s	uncertainty
0	1493	8
0.0938	1487	8
0.2016	1477	8
0.3025	1468	8
0.3987	1462	8
0.5074	1454	8
0.594	1445	8
0.6956	1437	8
0.7988	1428	8
0.8933	1421	8
1	1410	8

System: dimethyl sulfoxide + anisole; phases: Liquid
Fixed: Pressure, kPa = 101
Property: Viscosity, Pa*s (Liquid); method: CAPTUB:UFactor:4
Temperature, K	Mole fraction of anisole	Viscosity, Pa*s	uncertainty
298.15	0	0.001984	6e-05
298.15	0.0938	0.001836	5.6e-05
298.15	0.2016	0.001691	5.2e-05
298.15	0.3025	0.001565	4.8e-05
298.15	0.3987	0.001466	4.5e-05
298.15	0.5074	0.001369	4.3e-05
298.15	0.594	0.001318	4.1e-05
298.15	0.6956	0.001249	3.9e-05
298.15	0.7988	0.001157	3.7e-05
298.15	0.8933	0.001077	3.4e-05
298.15	1	0.000992	3.2e-05
303.15	0	0.001801	5.5e-05
303.15	0.0938	0.001683	5.1e-05
303.15	0.2016	0.001549	4.8e-05
303.15	0.3025	0.001438	4.5e-05
303.15	0.3987	0.001347	4.2e-05
303.15	0.5074	0.001268	4e-05
303.15	0.594	0.001219	3.8e-05
303.15	0.6956	0.001152	3.7e-05
303.15	0.7988	0.001073	3.4e-05
303.15	0.8933	0.001004	3.2e-05
303.15	1	0.000919	3e-05
308.15	0	0.001651	5e-05
308.15	0.0938	0.001529	4.7e-05
308.15	0.2016	0.001407	4.4e-05
308.15	0.3025	0.00131	4.1e-05
308.15	0.3987	0.001228	3.9e-05
308.15	0.5074	0.001166	3.7e-05
308.15	0.594	0.001119	3.6e-05
308.15	0.6956	0.001054	3.4e-05
308.15	0.7988	0.000989	3.2e-05
308.15	0.8933	0.000931	3e-05
308.15	1	0.000853	2.8e-05

System: dimethyl sulfoxide + anisole; phases: Liquid
Fixed: Pressure, kPa = 101
Property: Refractive index (Na D-line) (Liquid); method: ABBE:UFactor:16
Temperature, K	Mole fraction of anisole	Refractive index (Na D-line)	uncertainty
298.15	0	1.4768	0.0064
298.15	0.0938	1.4817	0.0064
298.15	0.2016	1.4878	0.0064
298.15	0.3025	1.4929	0.0064
298.15	0.3987	1.4962	0.0064
298.15	0.5074	1.4996	0.0064
298.15	0.594	1.5031	0.0064
298.15	0.6956	1.5069	0.0064
298.15	0.7988	1.5105	0.0064
298.15	0.8933	1.5124	0.0064
298.15	1	1.5148	0.0064
303.15	0	1.4594	0.0064
303.15	0.0938	1.4772	0.0064
303.15	0.2016	1.4853	0.0064
303.15	0.3025	1.4901	0.0064
303.15	0.3987	1.4935	0.0064
303.15	0.5074	1.4974	0.0064
303.15	0.594	1.5006	0.0064
303.15	0.6956	1.5043	0.0064
303.15	0.7988	1.5075	0.0064
303.15	0.8933	1.5096	0.0064
303.15	1	1.5124	0.0064
308.15	0	1.4547	0.0064
308.15	0.0938	1.4727	0.0064
308.15	0.2016	1.4828	0.0064
308.15	0.3025	1.4873	0.0064
308.15	0.3987	1.4906	0.0064
308.15	0.5074	1.4952	0.0064
308.15	0.594	1.498	0.0064
308.15	0.6956	1.5017	0.0064
308.15	0.7988	1.5046	0.0064
308.15	0.8933	1.5069	0.0064
308.15	1	1.5092	0.0064

System: dimethyl sulfoxide + anisole; phases: Liquid
Fixed: Pressure, kPa = 101
Property: Mass density, kg/m3 (Liquid); method: PYCNOM:UFactor:8
Temperature, K	Mole fraction of anisole	Mass density, kg/m3	uncertainty
298.15	0	1095.4	2.3
298.15	0.0938	1081.5	2.2
298.15	0.2016	1066.7	2.2
298.15	0.3025	1054.4	2.2
298.15	0.3987	1043.6	2.1
298.15	0.5074	1032.5	2.1
298.15	0.594	1024.1	2.1
298.15	0.6956	1014.7	2.1
298.15	0.7988	1005.5	2
298.15	0.8933	997.4	2
298.15	1	988.9	2
303.15	0	1090.8	2.3
303.15	0.0938	1077	2.3
303.15	0.2016	1062.1	2.3
303.15	0.3025	1049.9	2.2
303.15	0.3987	1039.2	2.2
303.15	0.5074	1027.9	2.2
303.15	0.594	1019.7	2.2
303.15	0.6956	1010.3	2.1
303.15	0.7988	1001.4	2.1
303.15	0.8933	992.8	2.1
303.15	1	984.1	2.1
308.15	0	1086.2	2.4
308.15	0.0938	1072.3	2.4
308.15	0.2016	1057.6	2.3
308.15	0.3025	1045.3	2.3
308.15	0.3987	1034.7	2.3
308.15	0.5074	1023.6	2.3
308.15	0.594	1015.1	2.2
308.15	0.6956	1005.7	2.2
308.15	0.7988	996.7	2.2
308.15	0.8933	988.5	2.2
308.15	1	979.4	2.1

System: diethyl ethanedioate + anisole; phases: Liquid
Fixed: Pressure, kPa = 101
Fixed: Temperature, K = 298.15
Property: Speed of sound, m/s (Liquid); method: LVPAI:UFactor:4
Mole fraction of anisole	Speed of sound, m/s	uncertainty
0	1267	7
0.1017	1280	7
0.1976	1293	7
0.2978	1307	7
0.3621	1316	7
0.4971	1334	7
0.5975	1348	7
0.6977	1362	8
0.8016	1377	8
0.9007	1393	8
1	1410	8

System: diethyl ethanedioate + anisole; phases: Liquid
Fixed: Pressure, kPa = 101
Property: Viscosity, Pa*s (Liquid); method: CAPTUB:UFactor:4
Temperature, K	Mole fraction of anisole	Viscosity, Pa*s	uncertainty
298.15	0	0.001844	5.6e-05
298.15	0.1017	0.001732	5.3e-05
298.15	0.1976	0.00164	5e-05
298.15	0.2978	0.00155	4.8e-05
298.15	0.3621	0.001495	4.6e-05
298.15	0.4971	0.00138	4.3e-05
298.15	0.5975	0.001301	4.1e-05
298.15	0.6977	0.001223	3.9e-05
298.15	0.8016	0.00114	3.6e-05
298.15	0.9007	0.001061	3.4e-05
298.15	1	0.000992	3.2e-05
303.15	0	0.001659	5.1e-05
303.15	0.1017	0.001578	4.8e-05
303.15	0.1976	0.001497	4.6e-05
303.15	0.2978	0.001416	4.4e-05
303.15	0.3621	0.001367	4.3e-05
303.15	0.4971	0.001265	4e-05
303.15	0.5975	0.001195	3.8e-05
303.15	0.6977	0.001126	3.6e-05
303.15	0.8016	0.001054	3.4e-05
303.15	0.9007	0.000985	3.2e-05
303.15	1	0.000918	3e-05
308.15	0	0.001508	4.6e-05
308.15	0.1017	0.001424	4.4e-05
308.15	0.1976	0.001354	4.2e-05
308.15	0.2978	0.001282	4e-05
308.15	0.3621	0.001239	3.9e-05
308.15	0.4971	0.001149	3.6e-05
308.15	0.5975	0.001089	3.5e-05
308.15	0.6977	0.00103	3.3e-05
308.15	0.8016	0.000968	3.1e-05
308.15	0.9007	0.00091	3e-05
308.15	1	0.000853	2.8e-05

System: diethyl ethanedioate + anisole; phases: Liquid
Fixed: Pressure, kPa = 101
Property: Refractive index (Na D-line) (Liquid); method: ABBE:UFactor:6
Temperature, K	Mole fraction of anisole	Refractive index (Na D-line)	uncertainty
298.15	0	1.4084	0.0024
298.15	0.1017	1.4171	0.0024
298.15	0.1976	1.4257	0.0024
298.15	0.2978	1.435	0.0024
298.15	0.3621	1.4412	0.0024
298.15	0.4971	1.4551	0.0024
298.15	0.5975	1.466	0.0024
298.15	0.6977	1.4773	0.0024
298.15	0.8016	1.4896	0.0024
298.15	0.9007	1.5021	0.0024
298.15	1	1.5148	0.0024
303.15	0	1.4061	0.0024
303.15	0.1017	1.4148	0.0024
303.15	0.1976	1.4232	0.0024
303.15	0.2978	1.4325	0.0024
303.15	0.3621	1.4388	0.0024
303.15	0.4971	1.4525	0.0024
303.15	0.5975	1.4634	0.0024
303.15	0.6977	1.4746	0.0024
303.15	0.8016	1.4868	0.0024
303.15	0.9007	1.4991	0.0024
303.15	1	1.5124	0.0024
308.15	0	1.4039	0.0024
308.15	0.1017	1.4124	0.0024
308.15	0.1976	1.4207	0.0024
308.15	0.2978	1.43	0.0024
308.15	0.3621	1.4362	0.0024
308.15	0.4971	1.4499	0.0024
308.15	0.5975	1.4607	0.0024
308.15	0.6977	1.4718	0.0024
308.15	0.8016	1.484	0.0024
308.15	0.9007	1.4962	0.0024
308.15	1	1.5092	0.0024

System: diethyl ethanedioate + anisole; phases: Liquid
Fixed: Pressure, kPa = 101
Property: Mass density, kg/m3 (Liquid); method: PYCNOM:UFactor:8
Temperature, K	Mole fraction of anisole	Mass density, kg/m3	uncertainty
298.15	0	1072.3	2.2
298.15	0.1017	1065.8	2.2
298.15	0.1976	1059.5	2.2
298.15	0.2978	1052.6	2.2
298.15	0.3621	1047.7	2.1
298.15	0.4971	1037.4	2.1
298.15	0.5975	1029.1	2.1
298.15	0.6977	1020.1	2.1
298.15	0.8016	1010.1	2
298.15	0.9007	999.9	2
298.15	1	988.9	2
303.15	0	1066.6	2.3
303.15	0.1017	1060.1	2.3
303.15	0.1976	1053.8	2.2
303.15	0.2978	1047.1	2.2
303.15	0.3621	1042.3	2.2
303.15	0.4971	1031.9	2.2
303.15	0.5975	1023.8	2.2
303.15	0.6977	1014.9	2.1
303.15	0.8016	1005.3	2.1
303.15	0.9007	995.4	2.1
303.15	1	984.1	2.1
308.15	0	1060.7	2.4
308.15	0.1017	1054.3	2.3
308.15	0.1976	1048.1	2.3
308.15	0.2978	1041.4	2.3
308.15	0.3621	1036.7	2.3
308.15	0.4971	1026.5	2.3
308.15	0.5975	1018.5	2.2
308.15	0.6977	1009.7	2.2
308.15	0.8016	1000	2.2
308.15	0.9007	990.2	2.2
308.15	1	979.4	2.1
