Measured thermophysical data. Solubility of Aspirin in Supercritical Carbon Dioxide with and without Acetone
Source: J. Chem. Eng. Data, 2004, 10.1021/je0499465
Compound 1: acetone, C3H6O, InChI=1S/C3H6O/c1-3(2)4/h1-2H3, purity 99.97%
Compound 2: carbon dioxide, CO2, InChI=1S/CO2/c2-1-3, purity 99.8%
Compound 3: 2-acetoxybenzoic acid, C9H8O4, InChI=1S/C9H8O4/c1-6(10)13-8-5-3-2-4-7(8)9(11)12/h2-5H,1H3,(H,11,12), purity 99.5%

System: 2-acetoxybenzoic acid + carbon dioxide; phases: Fluid (supercritical or subcritical phases), Crystal
Property: Mole fraction of 2-acetoxybenzoic acid (Fluid (supercritical or subcritical phases)); method: OTHER
Temperature, K	Pressure, kPa	Mole fraction of 2-acetoxybenzoic acid	uncertainty
308.15	12000	8.9e-05	9e-06
308.15	15000	0.000112	1.2e-05
308.15	17200	0.000122	1.3e-05
308.15	18500	0.000129	1.3e-05
308.15	20000	0.000133	1.4e-05
308.15	21500	0.000142	1.5e-05
308.15	23000	0.000145	1.5e-05
308.15	25000	0.000151	1.6e-05
318.15	12000	7.2e-05	7e-06
318.15	15000	0.000139	1.4e-05
318.15	17200	0.000175	1.8e-05
318.15	18500	0.000195	2e-05
318.15	20000	0.000212	2.2e-05
318.15	21500	0.000228	2.4e-05
318.15	23000	0.000234	2.4e-05
318.15	25000	0.000258	2.7e-05
328.15	12000	6.3e-05	7e-06
328.15	15000	0.000137	1.4e-05
328.15	17200	0.000182	1.9e-05
328.15	18500	0.000234	2.4e-05
328.15	20000	0.000277	2.9e-05
328.15	21500	0.000286	3e-05
328.15	23000	0.000303	3.1e-05
328.15	25000	0.000347	3.6e-05

System: 2-acetoxybenzoic acid + acetone + carbon dioxide; phases: Fluid (supercritical or subcritical phases), Crystal
Fixed: Solvent: Mole fraction of acetone = 0.03
Property: Mole fraction of 2-acetoxybenzoic acid (Fluid (supercritical or subcritical phases)); method: OTHER
Temperature, K	Pressure, kPa	Mole fraction of 2-acetoxybenzoic acid	uncertainty
318.15	10000	0.000218	2.3e-05
318.15	12000	0.000337	3.5e-05
318.15	15000	0.000428	4.4e-05
318.15	17200	0.000525	5.4e-05
318.15	20000	0.000615	6.3e-05
328.15	10000	0.000113	1.2e-05
328.15	12000	0.000321	3.3e-05
328.15	15000	0.000498	5.1e-05
328.15	17200	0.000612	6.3e-05
328.15	20000	0.000757	7.8e-05
