Measured thermophysical data. Liquid-Liquid Equilibrium and Excess Enthalpies in the Binary System 2-Methylpentane + N,N-Dimethylformamide
Source: J. Chem. Eng. Data, 2004, 10.1021/je049953t
Compound 1: 2-methylpentane, C6H14, InChI=1S/C6H14/c1-4-5-6(2)3/h6H,4-5H2,1-3H3
Compound 2: dimethylformamide, C3H7NO, InChI=1S/C3H7NO/c1-4(2)3-5/h3H,1-2H3, purity 99.96%

System: 2-methylpentane; phases: Liquid
Property: Mass density, kg/m3 (Liquid); method: VIBTUB:UFactor:2
Temperature, K	Pressure, kPa	Mass density, kg/m3	uncertainty
298.15	101.325	648.45	0.44

System: dimethylformamide; phases: Liquid
Property: Mass density, kg/m3 (Liquid); method: VIBTUB:UFactor:2
Temperature, K	Pressure, kPa	Mass density, kg/m3	uncertainty
298.15	101.325	943.81	0.15

System: dimethylformamide + 2-methylpentane; phases: Liquid mixture 1, Liquid mixture 2
Fixed: Pressure, kPa = 101.325
Property: Liquid-liquid equilibrium temperature, K (Liquid mixture 1); method: VISOBS
Mole fraction of 2-methylpentane	Liquid-liquid equilibrium temperature, K	uncertainty
0.2483	328.72	0.16
0.2749	331.42	0.16
0.3134	334.21	0.16
0.3518	335.9	0.16
0.3763	336.7	0.16
0.4107	337.32	0.16
0.423	337.29	0.16
0.459	337.62	0.16
0.5016	337.69	0.16
0.5523	337.66	0.16
0.6154	337.21	0.16
0.662	336.25	0.16
0.7118	334.23	0.16
0.7924	328.28	0.16
0.8063	326.91	0.16

System: dimethylformamide + 2-methylpentane; phases: Liquid mixture 1, Liquid mixture 2
Fixed: Pressure, kPa = 101.325
Property: Mole fraction of 2-methylpentane (Liquid mixture 1); method: CHROM:UFactor:16
Temperature, K	Mole fraction of 2-methylpentane	uncertainty
283.15	0.07	0.009
288.15	0.081	0.01
293.15	0.096	0.012
298.15	0.102	0.013
303.15	0.119	0.015
308.15	0.142	0.018
313.15	0.154	0.019

System: dimethylformamide + 2-methylpentane; phases: Liquid mixture 2, Liquid mixture 1
Fixed: Pressure, kPa = 101.325
Property: Mole fraction of 2-methylpentane (Liquid mixture 2); method: CHROM:UFactor:16
Temperature, K	Mole fraction of 2-methylpentane	uncertainty
283.15	0.959	0.006
288.15	0.959	0.006
293.15	0.941	0.008
298.15	0.932	0.009
303.15	0.921	0.01
308.15	0.9	0.012
313.15	0.885	0.014

System: dimethylformamide + 2-methylpentane; phases: Liquid mixture 1, Liquid mixture 2
Fixed: Pressure, kPa = 101.325
Property: Mole fraction of 2-methylpentane (Liquid mixture 1); method: OTHER
Temperature, K	Mole fraction of 2-methylpentane	uncertainty
293.15	0.098	0.01
298.15	0.104	0.01
303.15	0.123	0.01
308.15	0.142	0.01
313.15	0.158	0.01
318.15	0.178	0.01
323.15	0.204	0.01

System: dimethylformamide + 2-methylpentane; phases: Liquid mixture 2, Liquid mixture 1
Fixed: Pressure, kPa = 101.325
Property: Mole fraction of 2-methylpentane (Liquid mixture 2); method: OTHER
Temperature, K	Mole fraction of 2-methylpentane	uncertainty
293.15	0.945	0.01
298.15	0.935	0.01
303.15	0.913	0.01
308.15	0.906	0.01
313.15	0.888	0.01
318.15	0.869	0.01
323.15	0.838	0.01

System: dimethylformamide + 2-methylpentane; phases: Liquid
Fixed: Pressure, kPa = 101.325
Property: Excess molar enthalpy (molar enthalpy of mixing), kJ/mol (Liquid); method: Flow calorimetry
Temperature, K	Mole fraction of 2-methylpentane	Excess molar enthalpy (molar enthalpy of mixing), kJ/mol	uncertainty
298.15	0.03	0.2304	0.0062
298.15	0.0611	0.4386	0.0101
298.15	0.0613	0.441	0.0101
298.15	0.094	0.6452	0.0143
298.15	0.9462	0.4672	0.0102
313.15	0.03	0.2307	0.0062
313.15	0.0611	0.4485	0.0103
313.15	0.0613	0.4513	0.0104
313.15	0.094	0.6565	0.0145
313.15	0.1281	0.8458	0.0184
313.15	0.9178	0.7285	0.0163
313.15	0.9462	0.473	0.0112
313.15	0.9469	0.4614	0.011
