Measured thermophysical data. Phase Equilibria for the Ternary Liquid Systems of (Water + Tetrahydrofurfuryl Alcohol + Cyclic Solvent) at 298.2 K
Source: J. Chem. Eng. Data, 2005, 10.1021/je049605r
Compound 1: 2-tetrahydrofurylmethanol, C5H10O2, InChI=1S/C5H10O2/c6-4-5-2-1-3-7-5/h5-6H,1-4H2
Compound 2: cyclohexane, C6H12, InChI=1S/C6H12/c1-2-4-6-5-3-1/h1-6H2
Compound 3: cyclohexanol, C6H12O, InChI=1S/C6H12O/c7-6-4-2-1-3-5-6/h6-7H,1-5H2
Compound 4: cyclohexyl ethanoate, C8H14O2, InChI=1S/C8H14O2/c1-7(9)10-8-5-3-2-4-6-8/h8H,2-6H2,1H3
Compound 5: chlorobenzene, C6H5Cl, InChI=1S/C6H5Cl/c7-6-4-2-1-3-5-6/h1-5H
Compound 6: water, H2O, InChI=1S/H2O/h1H2

System: 2-tetrahydrofurylmethanol; phases: Liquid
Property: Refractive index (Na D-line) (Liquid); method: Standard Abbe refractometry
Temperature, K	Pressure, kPa	Refractive index (Na D-line)	uncertainty
293.2	101.325	1.4525	0.0007

System: 2-tetrahydrofurylmethanol; phases: Liquid
Property: Mass density, kg/m3 (Liquid); method: VIBTUB:UFactor:8
Temperature, K	Pressure, kPa	Mass density, kg/m3	uncertainty
293.2	101.325	1055.1	0.6

System: cyclohexane; phases: Liquid
Property: Refractive index (Na D-line) (Liquid); method: Standard Abbe refractometry
Temperature, K	Pressure, kPa	Refractive index (Na D-line)	uncertainty
293.2	101.325	1.4269	0.0007

System: cyclohexane; phases: Liquid
Property: Mass density, kg/m3 (Liquid); method: VIBTUB:UFactor:4
Temperature, K	Pressure, kPa	Mass density, kg/m3	uncertainty
293.2	101.325	779.3	0.6

System: cyclohexanol; phases: Liquid
Property: Refractive index (Na D-line) (Liquid); method: Standard Abbe refractometry
Temperature, K	Pressure, kPa	Refractive index (Na D-line)	uncertainty
293.2	101.325	1.4648	0.0007

System: cyclohexanol; phases: Liquid
Property: Mass density, kg/m3 (Liquid); method: VIBTUB:UFactor:4
Temperature, K	Pressure, kPa	Mass density, kg/m3	uncertainty
293.2	101.325	963.5	9.6

System: cyclohexyl ethanoate; phases: Liquid
Property: Refractive index (Na D-line) (Liquid); method: Standard Abbe refractometry
Temperature, K	Pressure, kPa	Refractive index (Na D-line)	uncertainty
293.2	101.325	1.441	0.0007

System: cyclohexyl ethanoate; phases: Liquid
Property: Mass density, kg/m3 (Liquid); method: VIBTUB:UFactor:4
Temperature, K	Pressure, kPa	Mass density, kg/m3	uncertainty
293.2	101.325	970.3	0.3

System: chlorobenzene; phases: Liquid
Property: Refractive index (Na D-line) (Liquid); method: Standard Abbe refractometry
Temperature, K	Pressure, kPa	Refractive index (Na D-line)	uncertainty
293.2	101.325	1.5244	0.0007

System: chlorobenzene; phases: Liquid
Property: Mass density, kg/m3 (Liquid); method: VIBTUB:UFactor:4
Temperature, K	Pressure, kPa	Mass density, kg/m3	uncertainty
293.2	101.325	1106.2	0.4

System: water; phases: Liquid
Property: Refractive index (Na D-line) (Liquid); method: Standard Abbe refractometry
Temperature, K	Pressure, kPa	Refractive index (Na D-line)	uncertainty
293.2	101.325	1.3326	0.0007

System: cyclohexanol + water; phases: Liquid mixture 2, Liquid mixture 1
Property: Mass fraction of water (Liquid mixture 2); method: Chromatography
Temperature, K	Pressure, kPa	Mass fraction of water	uncertainty
298.2	101.3	0.08	0.01

System: cyclohexanol + water; phases: Liquid mixture 1, Liquid mixture 2
Property: Mass fraction of water (Liquid mixture 1); method: Chromatography
Temperature, K	Pressure, kPa	Mass fraction of water	uncertainty
298.2	101.3	0.9784	0.01

System: cyclohexyl ethanoate + water; phases: Liquid mixture 1, Liquid mixture 2
Property: Mass fraction of water (Liquid mixture 1); method: Chromatography
Temperature, K	Pressure, kPa	Mass fraction of water	uncertainty
298.2	101.3	0.9995	0.0005

System: cyclohexyl ethanoate + water; phases: Liquid mixture 2, Liquid mixture 1
Property: Mass fraction of water (Liquid mixture 2); method: Chromatography
Temperature, K	Pressure, kPa	Mass fraction of water	uncertainty
298.2	101.3	0.0056	0.0056

System: chlorobenzene + water; phases: Liquid mixture 1, Liquid mixture 2
Property: Mass fraction of water (Liquid mixture 1); method: Chromatography
Temperature, K	Pressure, kPa	Mass fraction of water	uncertainty
298.2	101.3	0.9995	0.0005

System: chlorobenzene + water; phases: Liquid mixture 2, Liquid mixture 1
Property: Mass fraction of water (Liquid mixture 2); method: Chromatography
Temperature, K	Pressure, kPa	Mass fraction of water	uncertainty
298.2	101.3	0.0007	0.0007

System: cyclohexane + water; phases: Liquid mixture 2, Liquid mixture 1
Property: Mass fraction of water (Liquid mixture 2); method: Chromatography
Temperature, K	Pressure, kPa	Mass fraction of water	uncertainty
298.2	101.3	0.0006	0.0006

System: cyclohexane + water; phases: Liquid mixture 1, Liquid mixture 2
Property: Mass fraction of water (Liquid mixture 1); method: Chromatography
Pressure, kPa	Temperature, K	Mass fraction of water	uncertainty
101.3	298.2	0.9998	0.0002

System: 2-tetrahydrofurylmethanol + cyclohexane + water; phases: Liquid mixture 2, Liquid mixture 1
Fixed: Temperature, K = 298.2
Fixed: Pressure, kPa = 101.3
Property: Mass fraction of 2-tetrahydrofurylmethanol (Liquid mixture 2); method: Chromatography
Property: Mass fraction of 2-tetrahydrofurylmethanol (Liquid mixture 1); method: Chromatography
Property: Mass fraction of water (Liquid mixture 1); method: Chromatography
Mass fraction of water	Mass fraction of 2-tetrahydrofurylmethanol	uncertainty	Mass fraction of 2-tetrahydrofurylmethanol	uncertainty	Mass fraction of water	uncertainty
0.0073	0.0028	0.0028	0.1238	0.014	0.8761	
0.009	0.0035	0.0035	0.1305	0.014	0.8692	
0.0093	0.0063	0.0063	0.2192	0.0141	0.7804	
0.0103	0.0082	0.0082	0.2524	0.0137	0.744	
0.012	0.0135	0.0135	0.412	0.0145	0.5873	
0.0128	0.0163	0.0163	0.4567	0.0145	0.5423	
0.0157	0.0206	0.0182	0.559	0.0143	0.4396	
0.0183	0.0247	0.0181	0.6406	0.0141	0.353	
0.0212	0.0289	0.0176	0.7209	0.0142	0.2722	
0.0006	0	0.0001	0	0.0001	0.9998	

System: 2-tetrahydrofurylmethanol + cyclohexanol + water; phases: Liquid mixture 2, Liquid mixture 1
Fixed: Temperature, K = 298.2
Fixed: Pressure, kPa = 101.3
Property: Mass fraction of 2-tetrahydrofurylmethanol (Liquid mixture 2); method: Chromatography
Property: Mass fraction of 2-tetrahydrofurylmethanol (Liquid mixture 1); method: Chromatography
Property: Mass fraction of water (Liquid mixture 1); method: Chromatography
Mass fraction of water	Mass fraction of 2-tetrahydrofurylmethanol	uncertainty	Mass fraction of 2-tetrahydrofurylmethanol	uncertainty	Mass fraction of water	uncertainty
0.1546	0.0395	0.0118	0.0491	0.012	0.8948	
0.2057	0.0803	0.0139	0.0967	0.0132	0.8348	
0.2426	0.1252	0.0112	0.1474	0.0117	0.7814	
0.3393	0.1545	0.0105	0.1713	0.0106	0.7122	
0.08	0	0.0001	0	0.0001	0.9784	

System: 2-tetrahydrofurylmethanol + cyclohexyl ethanoate + water; phases: Liquid mixture 1, Liquid mixture 2
Fixed: Pressure, kPa = 101.3
Fixed: Temperature, K = 298.2
Property: Mass fraction of 2-tetrahydrofurylmethanol (Liquid mixture 1); method: Chromatography
Property: Mass fraction of water (Liquid mixture 2); method: Chromatography
Property: Mass fraction of 2-tetrahydrofurylmethanol (Liquid mixture 2); method: Chromatography
Mass fraction of water	Mass fraction of 2-tetrahydrofurylmethanol	uncertainty	Mass fraction of water	uncertainty	Mass fraction of 2-tetrahydrofurylmethanol	uncertainty
0.9217	0.0761	0.0138	0.0102	0.0102	0.014	
0.8444	0.1481	0.014	0.0109	0.01	0.028	
0.7389	0.2538	0.0142	0.0127	0.0101	0.0493	
0.7078	0.284	0.0137	0.0176	0.0103	0.0703	
0.6225	0.3606	0.0136	0.0203	0.0103	0.0807	
0.5337	0.4378	0.0126	0.0275	0.0102	0.127	
0.45	0.48	0.0116	0.0355	0.0104	0.1544	
0.3599	0.5196	0.0106	0.0568	0.011	0.235	
0.2539	0.4949	0.0108	0.1214	0.0115	0.3494	
0.9995	0	0.0001	0.0056	0.0056	0	

System: 2-tetrahydrofurylmethanol + chlorobenzene + water; phases: Liquid mixture 1, Liquid mixture 2
Fixed: Pressure, kPa = 101.3
Fixed: Temperature, K = 298.2
Property: Mass fraction of 2-tetrahydrofurylmethanol (Liquid mixture 1); method: Chromatography
Property: Mass fraction of water (Liquid mixture 2); method: Chromatography
Property: Mass fraction of 2-tetrahydrofurylmethanol (Liquid mixture 2); method: Chromatography
Mass fraction of water	Mass fraction of 2-tetrahydrofurylmethanol	uncertainty	Mass fraction of water	uncertainty	Mass fraction of 2-tetrahydrofurylmethanol	uncertainty
0.8988	0.1011	0.0142	0.0014	0.0014	0.0123	
0.819	0.1807	0.0142	0.0016	0.0016	0.0252	
0.7491	0.2505	0.0142	0.0017	0.0017	0.0363	
0.687	0.3121	0.0142	0.0027	0.0027	0.0622	
0.5913	0.4056	0.0121	0.0038	0.0038	0.0991	
0.5253	0.4085	0.014	0.0104	0.0101	0.1523	
0.4454	0.5386	0.0157	0.0163	0.0102	0.2164	
0.384	0.5696	0.0116	0.0407	0.0103	0.3215	
0.9995	0	0.0001	0.0007	0.0007	0	
