Measured thermophysical data. Density, Viscosity, and Speed of Sound of Dialkyl Carbonates with Cyclopentane and Methyl Cyclohexane at Several Temperatures
Source: J. Chem. Eng. Data, 2004, 10.1021/je049895b
Compound 1: dimethyl carbonate, C3H6O3, InChI=1S/C3H6O3/c1-5-3(4)6-2/h1-2H3
Compound 2: cyclopentane, C5H10, InChI=1S/C5H10/c1-2-4-5-3-1/h1-5H2
Compound 3: diethyl carbonate, C5H10O3, InChI=1S/C5H10O3/c1-3-7-5(6)8-4-2/h3-4H2,1-2H3
Compound 4: methylcyclohexane, C7H14, InChI=1S/C7H14/c1-7-5-3-2-4-6-7/h7H,2-6H2,1H3

System: dimethyl carbonate; phases: Liquid
Fixed: Pressure, kPa = 101.325
Property: Viscosity, Pa*s (Liquid); method: Capillary tube (Ostwald; Ubbelohde) method
Temperature, K	Viscosity, Pa*s	uncertainty
293.15	0.000623	2.1e-05
298.15	0.000584	2.1e-05
303.15	0.000549	2e-05
308.15	0.000517	2e-05
313.15	0.000488	2e-05

System: dimethyl carbonate; phases: Liquid
Fixed: Pressure, kPa = 101.325
Property: Speed of sound, m/s (Liquid); method: FPINT:UFactor:2
Temperature, K	Speed of sound, m/s	uncertainty
293.15	1220	2
298.15	1198	2
303.15	1177	2
308.15	1155	2
313.15	1134	2

System: dimethyl carbonate; phases: Liquid
Fixed: Pressure, kPa = 101.325
Property: Mass density, kg/m3 (Liquid); method: VIBTUB:UFactor:2
Temperature, K	Mass density, kg/m3	uncertainty
293.15	1069.9	0.56
298.15	1063.33	0.56
303.15	1056.71	0.55
308.15	1050.07	0.55
313.15	1043.39	0.54

System: cyclopentane; phases: Liquid
Fixed: Pressure, kPa = 101.325
Property: Viscosity, Pa*s (Liquid); method: Capillary tube (Ostwald; Ubbelohde) method
Temperature, K	Viscosity, Pa*s	uncertainty
293.15	0.000438	2e-05
298.15	0.000415	2e-05
303.15	0.000394	2e-05
308.15	0.000374	2e-05
313.15	0.000355	2e-05

System: cyclopentane; phases: Liquid
Fixed: Pressure, kPa = 101.325
Property: Speed of sound, m/s (Liquid); method: FPINT::UFactor:2
Temperature, K	Speed of sound, m/s	uncertainty
293.15	1232	2
298.15	1206	2
303.15	1180	2
308.15	1154	2
313.15	1129	2

System: cyclopentane; phases: Liquid
Fixed: Pressure, kPa = 101.325
Property: Mass density, kg/m3 (Liquid); method: VIBTUB::UFactor:2
Temperature, K	Mass density, kg/m3	uncertainty
293.15	744.43	0.51
298.15	739.47	0.51
303.15	734.47	0.51
308.15	729.42	0.51
313.15	724.32	0.51

System: diethyl carbonate; phases: Liquid
Fixed: Pressure, kPa = 101.325
Property: Viscosity, Pa*s (Liquid); method: Capillary tube (Ostwald; Ubbelohde) method
Temperature, K	Viscosity, Pa*s	uncertainty
293.15	0.000809	2.1e-05
298.15	0.00075	2.1e-05
303.15	0.000702	2.1e-05
308.15	0.000658	2e-05
313.15	0.000618	2e-05

System: diethyl carbonate; phases: Liquid
Fixed: Pressure, kPa = 101.325
Property: Speed of sound, m/s (Liquid); method: FPINT::UFactor:2
Temperature, K	Speed of sound, m/s	uncertainty
293.15	1197	2
293.15	1198	2
298.15	1177	2
303.15	1156	2
303.15	1157	2
308.15	1136	2
313.15	1116	2

System: diethyl carbonate; phases: Liquid
Fixed: Pressure, kPa = 101.325
Property: Mass density, kg/m3 (Liquid); method: VIBTUB::UFactor:2
Temperature, K	Mass density, kg/m3	uncertainty
293.15	974.8	0.27
298.15	969.21	0.27
303.15	963.58	0.27
308.15	957.93	0.28
313.15	952.26	0.28

System: methylcyclohexane; phases: Liquid
Fixed: Pressure, kPa = 101.325
Property: Viscosity, Pa*s (Liquid); method: Capillary tube (Ostwald; Ubbelohde) method
Temperature, K	Viscosity, Pa*s	uncertainty
293.15	0.000729	2.1e-05
298.15	0.000681	2.1e-05
303.15	0.000637	2.1e-05
308.15	0.000598	2.1e-05
313.15	0.000562	2.1e-05

System: methylcyclohexane; phases: Liquid
Fixed: Pressure, kPa = 101.325
Property: Speed of sound, m/s (Liquid); method: FPINT::UFactor:2
Temperature, K	Speed of sound, m/s	uncertainty
293.15	1237	2
298.15	1215	2
303.15	1193	2
308.15	1172	2
313.15	1150	2

System: cyclopentane + dimethyl carbonate; phases: Liquid
Fixed: Pressure, kPa = 101.325
Property: Viscosity, Pa*s (Liquid); method: Capillary tube (Ostwald; Ubbelohde) method
Temperature, K	Mole fraction of dimethyl carbonate	Viscosity, Pa*s	uncertainty
293.15	0	0.000438	2e-05
293.15	0.0453	0.000429	2e-05
293.15	0.0871	0.000419	2e-05
293.15	0.1847	0.000417	2e-05
293.15	0.2915	0.000421	2e-05
293.15	0.3937	0.000432	2e-05
293.15	0.4904	0.000449	2e-05
293.15	0.5988	0.000472	2e-05
293.15	0.6963	0.000497	2e-05
293.15	0.8033	0.000531	2e-05
293.15	0.9028	0.000573	2.1e-05
293.15	0.9532	0.000601	2.1e-05
293.15	1	0.000623	2.1e-05
298.15	0	0.000415	2e-05
298.15	0.0453	0.000406	2e-05
298.15	0.0871	0.000397	2e-05
298.15	0.1847	0.000396	2e-05
298.15	0.2915	0.000398	2e-05
298.15	0.3937	0.000408	2e-05
298.15	0.4904	0.000422	2e-05
298.15	0.5988	0.000444	2e-05
298.15	0.6963	0.000468	2e-05
298.15	0.8033	0.0005	2e-05
298.15	0.9028	0.000538	2e-05
298.15	0.9532	0.000565	2.1e-05
298.15	1	0.000584	2.1e-05
303.15	0	0.000394	2e-05
303.15	0.0453	0.000385	2e-05
303.15	0.0871	0.000377	2e-05
303.15	0.1847	0.000374	2e-05
303.15	0.2915	0.000377	2e-05
303.15	0.3937	0.000386	2e-05
303.15	0.4904	0.0004	2e-05
303.15	0.5988	0.000419	2e-05
303.15	0.6963	0.000441	2e-05
303.15	0.8033	0.000472	2e-05
303.15	0.9028	0.000507	2e-05
303.15	0.9532	0.000528	2e-05
303.15	1	0.000549	2e-05
308.15	0	0.000374	2e-05
308.15	0.0453	0.000366	2e-05
308.15	0.0871	0.000358	2e-05
308.15	0.1847	0.000355	2e-05
308.15	0.2915	0.000357	2e-05
308.15	0.3937	0.000366	2e-05
308.15	0.4904	0.000379	2e-05
308.15	0.5988	0.000397	2e-05
308.15	0.6963	0.000418	2e-05
308.15	0.8033	0.000446	2e-05
308.15	0.9028	0.000478	2e-05
308.15	0.9532	0.000501	2e-05
308.15	1	0.000517	2e-05
313.15	0	0.000355	2e-05
313.15	0.0453	0.000348	2e-05
313.15	0.0871	0.000341	2e-05
313.15	0.1847	0.000338	2e-05
313.15	0.2915	0.000338	2e-05
313.15	0.3937	0.000346	2e-05
313.15	0.4904	0.000358	2e-05
313.15	0.5988	0.000377	2e-05
313.15	0.6963	0.000397	2e-05
313.15	0.8033	0.000424	2e-05
313.15	0.9028	0.000454	2e-05
313.15	0.9532	0.000472	2e-05
313.15	1	0.000488	2e-05

System: cyclopentane + dimethyl carbonate; phases: Liquid
Fixed: Pressure, kPa = 101.325
Property: Speed of sound, m/s (Liquid); method: FPINT:UFactor:2
Temperature, K	Mole fraction of dimethyl carbonate	Speed of sound, m/s	uncertainty
293.15	0	1232	2
293.15	0.0453	1219	2
293.15	0.0871	1209	2
293.15	0.1847	1192	2
293.15	0.2915	1180	2
293.15	0.3937	1174	2
293.15	0.4904	1172	2
293.15	0.5988	1174	2
293.15	0.6963	1180	2
293.15	0.8033	1190	2
293.15	0.9028	1204	2
293.15	0.9532	1212	2
293.15	1	1220	2
298.15	0	1206	2
298.15	0.0453	1193	2
298.15	0.0871	1184	2
298.15	0.1847	1168	2
298.15	0.2915	1156	2
298.15	0.3937	1150	2
298.15	0.4904	1148	2
298.15	0.5988	1151	2
298.15	0.6963	1157	2
298.15	0.8033	1168	2
298.15	0.9028	1182	2
298.15	0.9532	1190	2
298.15	1	1198	2
303.15	0	1180	2
303.15	0.0453	1168	2
303.15	0.0871	1158	2
303.15	0.1847	1143	2
303.15	0.2915	1131	2
303.15	0.3937	1125	2
303.15	0.4904	1124	2
303.15	0.5988	1127	2
303.15	0.6963	1134	2
303.15	0.8033	1145	2
303.15	0.9028	1160	2
303.15	0.9532	1168	2
303.15	1	1177	2
308.15	0	1154	2
308.15	0.0453	1142	2
308.15	0.0871	1133	2
308.15	0.1847	1118	2
308.15	0.2915	1107	2
308.15	0.3937	1102	2
308.15	0.4904	1101	2
308.15	0.5988	1105	2
308.15	0.6963	1111	2
308.15	0.8033	1123	2
308.15	0.9028	1138	2
308.15	0.9532	1146	2
308.15	1	1155	2
313.15	0	1129	2
313.15	0.0453	1117	2
313.15	0.0871	1108	2
313.15	0.1847	1093	2
313.15	0.2915	1083	2
313.15	0.3937	1078	2
313.15	0.4904	1078	2
313.15	0.5988	1082	2
313.15	0.6963	1089	2
313.15	0.8033	1101	2
313.15	0.9028	1116	2
313.15	0.9532	1125	2
313.15	1	1134	2

System: cyclopentane + dimethyl carbonate; phases: Liquid
Fixed: Pressure, kPa = 101.325
Property: Mass density, kg/m3 (Liquid); method: VIBTUB:UFactor:2
Temperature, K	Mole fraction of dimethyl carbonate	Mass density, kg/m3	uncertainty
293.15	0	744.43	0.51
293.15	0.0453	755.75	0.5
293.15	0.0871	766.47	0.5
293.15	0.1847	792.72	0.5
293.15	0.2915	823.38	0.5
293.15	0.3937	854.33	0.51
293.15	0.4904	884.96	0.52
293.15	0.5988	920.84	0.51
293.15	0.6963	954.64	0.51
293.15	0.8033	993.39	0.52
293.15	0.9028	1031.4	0.54
293.15	0.9532	1051.09	0.55
293.15	1	1069.9	0.56
298.15	0	739.47	0.51
298.15	0.0453	750.69	0.51
298.15	0.0871	761.31	0.5
298.15	0.1847	787.29	0.5
298.15	0.2915	817.76	0.5
298.15	0.3937	848.47	0.51
298.15	0.4904	878.98	0.52
298.15	0.5988	914.7	0.51
298.15	0.6963	948.41	0.51
298.15	0.8033	987.01	0.52
298.15	0.9028	1024.85	0.53
298.15	0.9532	1044.57	0.55
298.15	1	1063.33	0.56
303.15	0	734.47	0.51
303.15	0.0453	745.58	0.51
303.15	0.0871	756.09	0.51
303.15	0.1847	781.98	0.5
303.15	0.2915	812.07	0.5
303.15	0.3937	842.65	0.51
303.15	0.4904	872.96	0.52
303.15	0.5988	908.54	0.51
303.15	0.6963	942.13	0.51
303.15	0.8033	980.64	0.51
303.15	0.9028	1018.17	0.53
303.15	0.9532	1038.01	0.54
303.15	1	1056.71	0.55
308.15	0	729.42	0.51
308.15	0.0453	740.41	0.51
308.15	0.0871	750.83	0.51
308.15	0.1847	776.38	0.5
308.15	0.2915	806.36	0.5
308.15	0.3937	836.73	0.51
308.15	0.4904	866.91	0.52
308.15	0.5988	902.34	0.51
308.15	0.6963	935.82	0.51
308.15	0.8033	974.2	0.51
308.15	0.9028	1011.88	0.52
308.15	0.9532	1031.41	0.54
308.15	1	1050.07	0.55
313.15	0	724.32	0.51
313.15	0.0453	735.2	0.51
313.15	0.0871	745.51	0.51
313.15	0.1847	770.82	0.5
313.15	0.2915	800.54	0.5
313.15	0.3937	830.73	0.51
313.15	0.4904	860.7	0.51
313.15	0.5988	896.1	0.51
313.15	0.6963	929.45	0.51
313.15	0.8033	967.7	0.51
313.15	0.9028	1005.28	0.52
313.15	0.9532	1024.79	0.53
313.15	1	1043.39	0.54

System: diethyl carbonate + cyclopentane; phases: Liquid
Fixed: Pressure, kPa = 101.325
Property: Viscosity, Pa*s (Liquid); method: Capillary tube (Ostwald; Ubbelohde) method
Temperature, K	Mole fraction of diethyl carbonate	Viscosity, Pa*s	uncertainty
293.15	0	0.000438	2e-05
293.15	0.0491	0.00044	2e-05
293.15	0.0999	0.000445	2e-05
293.15	0.1898	0.000462	2e-05
293.15	0.2872	0.000486	2e-05
293.15	0.3894	0.000518	2e-05
293.15	0.5009	0.000559	2e-05
293.15	0.6023	0.000601	2e-05
293.15	0.7021	0.000646	2e-05
293.15	0.8053	0.000696	2.1e-05
293.15	0.9032	0.000748	2.1e-05
293.15	0.952	0.000778	2.1e-05
293.15	1	0.000809	2.1e-05
298.15	0	0.000415	2e-05
298.15	0.0491	0.000416	2e-05
298.15	0.0999	0.000421	2e-05
298.15	0.1898	0.000437	2e-05
298.15	0.2872	0.000459	2e-05
298.15	0.3894	0.000489	2e-05
298.15	0.5009	0.000527	2e-05
298.15	0.6023	0.000564	2e-05
298.15	0.7021	0.000606	2e-05
298.15	0.8053	0.000654	2e-05
298.15	0.9032	0.000699	2.1e-05
298.15	0.952	0.000726	2.1e-05
298.15	1	0.00075	2.1e-05
303.15	0	0.000394	2e-05
303.15	0.0491	0.000396	2e-05
303.15	0.0999	0.000399	2e-05
303.15	0.1898	0.000414	2e-05
303.15	0.2872	0.000435	2e-05
303.15	0.3894	0.000461	2e-05
303.15	0.5009	0.000496	2e-05
303.15	0.6023	0.000532	2e-05
303.15	0.7021	0.00057	2e-05
303.15	0.8053	0.000615	2e-05
303.15	0.9032	0.000655	2e-05
303.15	0.952	0.00068	2e-05
303.15	1	0.000702	2.1e-05
308.15	0	0.000374	2e-05
308.15	0.0491	0.000375	2e-05
308.15	0.0999	0.000379	2e-05
308.15	0.1898	0.000393	2e-05
308.15	0.2872	0.000412	2e-05
308.15	0.3894	0.000436	2e-05
308.15	0.5009	0.00047	2e-05
308.15	0.6023	0.000502	2e-05
308.15	0.7021	0.000537	2e-05
308.15	0.8053	0.000578	2e-05
308.15	0.9032	0.000616	2e-05
308.15	0.952	0.000638	2e-05
308.15	1	0.000658	2e-05
313.15	0	0.000355	2e-05
313.15	0.0491	0.000356	2e-05
313.15	0.0999	0.00036	2e-05
313.15	0.1898	0.000373	2e-05
313.15	0.2872	0.000391	2e-05
313.15	0.3894	0.000414	2e-05
313.15	0.5009	0.000444	2e-05
313.15	0.6023	0.000475	2e-05
313.15	0.7021	0.000508	2e-05
313.15	0.8053	0.000545	2e-05
313.15	0.9032	0.00058	2e-05
313.15	0.952	0.0006	2e-05
313.15	1	0.000618	2e-05

System: diethyl carbonate + cyclopentane; phases: Liquid
Fixed: Pressure, kPa = 101.325
Property: Speed of sound, m/s (Liquid); method: FPINT:UFactor:2
Temperature, K	Mole fraction of diethyl carbonate	Speed of sound, m/s	uncertainty
293.15	0	1232	2
293.15	0.0491	1219	2
293.15	0.0999	1209	2
293.15	0.1898	1196	2
293.15	0.2872	1186	2
293.15	0.3894	1180	2
293.15	0.5009	1178	2
293.15	0.6023	1179	2
293.15	0.7021	1181	2
293.15	0.8053	1186	2
293.15	0.9032	1191	2
293.15	0.952	1194	2
293.15	1	1197	2
298.15	0	1206	2
298.15	0.0491	1194	2
298.15	0.0999	1184	2
298.15	0.1898	1172	2
298.15	0.2872	1163	2
298.15	0.3894	1157	2
298.15	0.5009	1156	2
298.15	0.6023	1157	2
298.15	0.7021	1160	2
298.15	0.8053	1165	2
298.15	0.9032	1170	2
298.15	0.952	1174	2
298.15	1	1177	2
303.15	0	1180	2
303.15	0.0491	1169	2
303.15	0.0999	1159	2
303.15	0.1898	1147	2
303.15	0.2872	1139	2
303.15	0.3894	1134	2
303.15	0.5009	1133	2
303.15	0.6023	1135	2
303.15	0.7021	1138	2
303.15	0.8053	1144	2
303.15	0.9032	1150	2
303.15	0.952	1153	2
303.15	1	1156	2
308.15	0	1154	2
308.15	0.0491	1144	2
308.15	0.0999	1134	2
308.15	0.1898	1123	2
308.15	0.2872	1115	2
308.15	0.3894	1112	2
308.15	0.5009	1111	2
308.15	0.6023	1113	2
308.15	0.7021	1117	2
308.15	0.8053	1123	2
308.15	0.9032	1129	2
308.15	0.952	1133	2
308.15	1	1136	2
313.15	0	1129	2
313.15	0.0491	1119	2
313.15	0.0999	1110	2
313.15	0.1898	1099	2
313.15	0.2872	1092	2
313.15	0.3894	1089	2
313.15	0.5009	1089	2
313.15	0.6023	1091	2
313.15	0.7021	1096	2
313.15	0.8053	1102	2
313.15	0.9032	1109	2
313.15	0.952	1112	2
313.15	1	1116	2

System: diethyl carbonate + cyclopentane; phases: Liquid
Fixed: Pressure, kPa = 101.325
Property: Mass density, kg/m3 (Liquid); method: VIBTUB:UFactor:2
Temperature, K	Mole fraction of diethyl carbonate	Mass density, kg/m3	uncertainty
293.15	0	744.43	0.51
293.15	0.0491	757.21	0.5
293.15	0.0999	770.43	0.49
293.15	0.1898	793.45	0.47
293.15	0.2872	817.88	0.45
293.15	0.3894	842.77	0.43
293.15	0.5009	868.92	0.41
293.15	0.6023	891.92	0.38
293.15	0.7021	913.9	0.35
293.15	0.8053	935.69	0.32
293.15	0.9032	955.62	0.3
293.15	0.952	965.36	0.28
293.15	1	974.8	0.27
298.15	0	739.47	0.51
298.15	0.0491	752.18	0.5
298.15	0.0999	765.34	0.49
298.15	0.1898	788.24	0.47
298.15	0.2872	812.58	0.45
298.15	0.3894	837.37	0.43
298.15	0.5009	863.47	0.41
298.15	0.6023	886.43	0.38
298.15	0.7021	908.38	0.35
298.15	0.8053	930.14	0.32
298.15	0.9032	950.04	0.3
298.15	0.952	959.78	0.28
298.15	1	969.21	0.27
303.15	0	734.47	0.51
303.15	0.0491	747.11	0.5
303.15	0.0999	760.19	0.49
303.15	0.1898	782.99	0.47
303.15	0.2872	807.23	0.45
303.15	0.3894	831.95	0.43
303.15	0.5009	857.97	0.41
303.15	0.6023	880.91	0.38
303.15	0.7021	902.82	0.35
303.15	0.8053	924.56	0.33
303.15	0.9032	944.44	0.3
303.15	0.952	954.16	0.29
303.15	1	963.58	0.27
308.15	0	729.42	0.51
308.15	0.0491	741.99	0.5
308.15	0.0999	755	0.49
308.15	0.1898	777.7	0.47
308.15	0.2872	801.84	0.45
308.15	0.3894	826.49	0.43
308.15	0.5009	852.45	0.41
308.15	0.6023	875.35	0.38
308.15	0.7021	897.23	0.36
308.15	0.8053	918.94	0.33
308.15	0.9032	938.8	0.3
308.15	0.952	948.52	0.29
308.15	1	957.93	0.28
313.15	0	724.32	0.51
313.15	0.0491	736.82	0.5
313.15	0.0999	749.76	0.49
313.15	0.1898	772.35	0.47
313.15	0.2872	796.39	0.46
313.15	0.3894	820.95	0.44
313.15	0.5009	846.9	0.42
313.15	0.6023	869.75	0.39
313.15	0.7021	891.61	0.36
313.15	0.8053	913.29	0.33
313.15	0.9032	933.14	0.3
313.15	0.952	942.85	0.29
313.15	1	952.26	0.28

System: diethyl carbonate + methylcyclohexane; phases: Liquid
Fixed: Pressure, kPa = 101.325
Property: Viscosity, Pa*s (Liquid); method: Capillary tube (Ostwald; Ubbelohde) method
Temperature, K	Mole fraction of diethyl carbonate	Viscosity, Pa*s	uncertainty
293.15	0	0.000729	2.1e-05
293.15	0.0473	0.000709	2.1e-05
293.15	0.0978	0.000692	2.1e-05
293.15	0.1985	0.000678	2.1e-05
293.15	0.2968	0.00067	2.1e-05
293.15	0.3924	0.000672	2.1e-05
293.15	0.4993	0.00068	2.1e-05
293.15	0.5999	0.000695	2.1e-05
293.15	0.6985	0.000709	2.1e-05
293.15	0.7988	0.000732	2.1e-05
293.15	0.8996	0.000762	2.1e-05
293.15	0.9509	0.000787	2.1e-05
293.15	1	0.000809	2.1e-05
298.15	0	0.000681	2.1e-05
298.15	0.0473	0.000662	2.1e-05
298.15	0.0978	0.000647	2.1e-05
298.15	0.1985	0.000633	2.1e-05
298.15	0.2968	0.000627	2.1e-05
298.15	0.3924	0.000628	2.1e-05
298.15	0.4993	0.000635	2.1e-05
298.15	0.5999	0.000649	2.1e-05
298.15	0.6985	0.000663	2.1e-05
298.15	0.7988	0.000684	2.1e-05
298.15	0.8996	0.000711	2.1e-05
298.15	0.9509	0.000735	2.1e-05
298.15	1	0.00075	2.1e-05
303.15	0	0.000637	2.1e-05
303.15	0.0473	0.000621	2.1e-05
303.15	0.0978	0.000607	2.1e-05
303.15	0.1985	0.000593	2.1e-05
303.15	0.2968	0.000588	2e-05
303.15	0.3924	0.000589	2e-05
303.15	0.4993	0.000596	2e-05
303.15	0.5999	0.000609	2e-05
303.15	0.6985	0.000622	2e-05
303.15	0.7988	0.000642	2e-05
303.15	0.8996	0.000666	2e-05
303.15	0.9509	0.000687	2.1e-05
303.15	1	0.000702	2.1e-05
308.15	0	0.000598	2.1e-05
308.15	0.0473	0.000583	2.1e-05
308.15	0.0978	0.00057	2e-05
308.15	0.1985	0.000558	2e-05
308.15	0.2968	0.000553	2e-05
308.15	0.3924	0.000554	2e-05
308.15	0.4993	0.000561	2e-05
308.15	0.5999	0.000572	2e-05
308.15	0.6985	0.000584	2e-05
308.15	0.7988	0.000603	2e-05
308.15	0.8996	0.000625	2e-05
308.15	0.9509	0.000645	2e-05
308.15	1	0.000658	2e-05
313.15	0	0.000562	2.1e-05
313.15	0.0473	0.000548	2e-05
313.15	0.0978	0.000537	2e-05
313.15	0.1985	0.000525	2e-05
313.15	0.2968	0.000521	2e-05
313.15	0.3924	0.000522	2e-05
313.15	0.4993	0.000529	2e-05
313.15	0.5999	0.000539	2e-05
313.15	0.6985	0.00055	2e-05
313.15	0.7988	0.000568	2e-05
313.15	0.8996	0.000588	2e-05
313.15	0.9509	0.000607	2e-05
313.15	1	0.000618	2e-05

System: diethyl carbonate + methylcyclohexane; phases: Liquid
Fixed: Pressure, kPa = 101.325
Property: Speed of sound, m/s (Liquid); method: FPINT:UFactor:2
Temperature, K	Mole fraction of diethyl carbonate	Speed of sound, m/s	uncertainty
293.15	0	1237	2
293.15	0.0473	1229	2
293.15	0.0978	1222	2
293.15	0.1985	1211	2
293.15	0.2968	1203	2
293.15	0.3924	1196	2
293.15	0.4993	1192	2
293.15	0.5999	1189	2
293.15	0.6985	1189	2
293.15	0.7988	1191	2
293.15	0.8996	1194	2
293.15	0.9509	1196	2
293.15	1	1198	2
298.15	0	1215	2
298.15	0.0473	1207	2
298.15	0.0978	1201	2
298.15	0.1985	1189	2
298.15	0.2968	1181	2
298.15	0.3924	1175	2
298.15	0.4993	1171	2
298.15	0.5999	1168	2
298.15	0.6985	1168	2
298.15	0.7988	1170	2
298.15	0.8996	1173	2
298.15	0.9509	1175	2
298.15	1	1177	2
303.15	0	1193	2
303.15	0.0473	1185	2
303.15	0.0978	1179	2
303.15	0.1985	1168	2
303.15	0.2968	1160	2
303.15	0.3924	1154	2
303.15	0.4993	1149	2
303.15	0.5999	1147	2
303.15	0.6985	1147	2
303.15	0.7988	1149	2
303.15	0.8996	1152	2
303.15	0.9509	1155	2
303.15	1	1157	2
308.15	0	1172	2
308.15	0.0473	1164	2
308.15	0.0978	1157	2
308.15	0.1985	1146	2
308.15	0.2968	1138	2
308.15	0.3924	1132	2
308.15	0.4993	1128	2
308.15	0.5999	1126	2
308.15	0.6985	1126	2
308.15	0.7988	1128	2
308.15	0.8996	1132	2
308.15	0.9509	1134	2
308.15	1	1136	2
313.15	0	1150	2
313.15	0.0473	1142	2
313.15	0.0978	1136	2
313.15	0.1985	1125	2
313.15	0.2968	1117	2
313.15	0.3924	1111	2
313.15	0.4993	1107	2
313.15	0.5999	1105	2
313.15	0.6985	1106	2
313.15	0.7988	1108	2
313.15	0.8996	1112	2
313.15	0.9509	1114	2
313.15	1	1116	2
