Measured thermophysical data. Water Content Measurement and Modeling in the Nitrogen + Water System
Source: J. Chem. Eng. Data, 2005, 10.1021/je049676q
Compound 1: nitrogen, N2, InChI=1S/N2/c1-2
Compound 2: water, H2O, InChI=1S/H2O/h1H2

System: nitrogen + water; phases: Gas, Liquid
Property: Mole fraction of water (Gas); method: Chromatography
Temperature, K	Pressure, kPa	Mole fraction of water	uncertainty
282.86	607	0.00204	0.000124
282.99	1799	0.000714	4.3e-05
282.99	3036	0.000446	2.7e-05
283.03	4408	0.000317	1.9e-05
293.1	558	0.00425	0.000258
293.1	2991	0.000844	5.1e-05
293.1	4810	0.000558	3.4e-05
293.19	1828	0.00136	8.2e-05
304.02	578	0.00793	0.000481
304.36	1257	0.0037	0.000224
304.51	2539	0.00188	0.000114
304.61	4638	0.00112	6.8e-05
313.15	1246	0.00609	0.000369
313.16	4781	0.00175	0.000106
313.26	2836	0.00278	0.000169
313.3	498	0.0153	0.000928
322.88	499	0.024	0.001455
322.93	3397	0.00396	0.00024
322.93	4841	0.00292	0.000177
323.1	1420	0.00872	0.000528
332.45	1448	0.0134	0.000812
332.52	461	0.0427	0.002591
332.52	2454	0.00855	0.000518
332.52	4358	0.00488	0.000296
342.31	425	0.0719	0.004371
342.31	462	0.0658	0.003999
342.31	4962	0.00666	0.000404
342.39	1466	0.0219	0.001328
342.42	2899	0.0103	0.000624
351.87	540	0.0849	0.005167
351.92	2957	0.0162	0.000982
351.95	4797	0.0111	0.000673
352.12	1480	0.0335	0.002032
363	555	0.126	0.007699
363.08	4874	0.0161	0.000976
