Measured thermophysical data. Isobaric Vapor-Liquid Equilibria of the Ternary System Methylbutyl Ketone + Nonane + Cyclohexanol
Source: J. Chem. Eng. Data, 2005, 10.1021/je040002p
Compound 1: 2-hexanone, C6H12O, InChI=1S/C6H12O/c1-3-4-5-6(2)7/h3-5H2,1-2H3
Compound 2: nonane, C9H20, InChI=1S/C9H20/c1-3-5-7-9-8-6-4-2/h3-9H2,1-2H3
Compound 3: cyclohexanol, C6H12O, InChI=1S/C6H12O/c7-6-4-2-1-3-5-6/h6-7H,1-5H2

System: 2-hexanone; phases: Liquid, Gas
Property: Normal boiling temperature, K (Liquid); method: EBULLIO:UFactor:32:FP
Normal boiling temperature, K	uncertainty
400.69	0.13

System: 2-hexanone; phases: Liquid
Property: Refractive index (Na D-line) (Liquid); method: Standard Abbe refractometry
Temperature, K	Pressure, kPa	Refractive index (Na D-line)	uncertainty
293.15	101.325	1.4008	0.0007

System: 2-hexanone; phases: Liquid
Property: Mass density, kg/m3 (Liquid); method: Pycnometric method
Temperature, K	Pressure, kPa	Mass density, kg/m3	uncertainty
293.15	101.325	811.2	0.8

System: nonane; phases: Liquid, Gas
Property: Normal boiling temperature, K (Liquid); method: EBULLIO:UFactor:32:FP
Normal boiling temperature, K	uncertainty
423.97	0.14

System: nonane; phases: Liquid
Property: Refractive index (Na D-line) (Liquid); method: Standard Abbe refractometry
Temperature, K	Pressure, kPa	Refractive index (Na D-line)	uncertainty
293.15	101.325	1.4055	0.0007

System: nonane; phases: Liquid
Property: Mass density, kg/m3 (Liquid); method: Pycnometric method
Temperature, K	Pressure, kPa	Mass density, kg/m3	uncertainty
293.15	101.325	717.6	0.7

System: cyclohexanol; phases: Liquid, Gas
Property: Normal boiling temperature, K (Liquid); method: EBULLIO:UFactor:32:FP
Normal boiling temperature, K	uncertainty
433.89	0.14

System: cyclohexanol; phases: Liquid
Property: Refractive index (Na D-line) (Liquid); method: Standard Abbe refractometry
Temperature, K	Pressure, kPa	Refractive index (Na D-line)	uncertainty
303.15	101.325	1.4621	0.0007

System: cyclohexanol; phases: Liquid
Property: Mass density, kg/m3 (Liquid); method: Pycnometric method
Temperature, K	Pressure, kPa	Mass density, kg/m3	uncertainty
303.15	101.325	941.6	0.9

System: cyclohexanol + 2-hexanone; phases: Liquid, Gas
Property: Boiling temperature at pressure P, K (Liquid); method: EBULLIO:UFactor:4
Pressure, kPa	Mole fraction of 2-hexanone	Boiling temperature at pressure P, K	uncertainty
26.66	0	394.86	0.28
26.66	0.153	384.27	0.3
26.66	0.227	380.48	0.31
26.66	0.357	374.48	0.3
26.66	0.508	369.84	0.3
26.66	0.625	367.1	0.3
26.66	0.795	363.45	0.29
26.66	0.899	361.51	0.3
26.66	1	359.51	0.3
53.33	0	413.79	0.28
53.33	0.153	404.77	0.31
53.33	0.227	401.21	0.31
53.33	0.357	395.33	0.31
53.33	0.508	390.48	0.31
53.33	0.625	387.5	0.3
53.33	0.795	383.45	0.3
53.33	0.899	381.4	0.3
53.33	1	379.52	0.3
79.99	0	426.16	0.26
79.99	0.153	417.9	0.29
79.99	0.227	414.56	0.29
79.99	0.357	408.76	0.3
79.99	0.508	404.09	0.29
79.99	0.625	400.97	0.29
79.99	0.795	396.74	0.29
79.99	0.899	394.58	0.28
79.99	1	392.57	0.28

System: cyclohexanol + nonane + 2-hexanone; phases: Liquid, Gas
Property: Boiling temperature at pressure P, K (Liquid); method: EBULLIO:UFactor:4
Pressure, kPa	Mole fraction of 2-hexanone	Mole fraction of nonane	Boiling temperature at pressure P, K	uncertainty
26.66	0.128	0.256	374.83	0.31
26.66	0.128	0.744	371.14	0.31
26.66	0.154	0.564	371.13	0.3
26.66	0.184	0.368	371.62	0.3
26.66	0.225	0.225	372.28	0.3
26.66	0.284	0.569	367.16	0.31
26.66	0.334	0.167	370	0.31
26.66	0.345	0.344	367.52	0.3
26.66	0.425	0.424	364.67	0.3
26.66	0.452	0.226	365.91	0.3
26.66	0.58	0.28	362.85	0.3
26.66	0.753	0.165	361.42	0.29
53.33	0.128	0.256	395.48	0.31
53.33	0.128	0.744	392.12	0.31
53.33	0.154	0.564	391.58	0.31
53.33	0.184	0.368	392.19	0.31
53.33	0.225	0.225	392.84	0.31
53.33	0.284	0.569	387.68	0.31
53.33	0.334	0.167	390.67	0.31
53.33	0.345	0.344	387.95	0.31
53.33	0.425	0.424	385.05	0.31
53.33	0.452	0.226	386.4	0.31
53.33	0.58	0.28	383.01	0.3
53.33	0.753	0.165	381.14	0.3
79.99	0.128	0.256	408.88	0.29
79.99	0.128	0.744	405.83	0.29
79.99	0.154	0.564	405.04	0.3
79.99	0.184	0.368	405.73	0.29
79.99	0.225	0.225	406.3	0.29
79.99	0.284	0.569	401.32	0.29
79.99	0.334	0.167	404.2	0.29
79.99	0.345	0.344	401.32	0.28
79.99	0.425	0.424	398.51	0.29
79.99	0.452	0.226	399.85	0.29
79.99	0.58	0.28	396.29	0.28
79.99	0.753	0.165	394.24	0.28
