Measured thermophysical data. Determination of Viscosity and Density of Di-(2-ethylhexyl) Phosphoric Acid + Aliphatic Kerosene
Source: J. Chem. Eng. Data, 2005, 10.1021/je0496645
Compound 1: bis(2-ethylhexyl) hydrogen phosphate, C16H35O4P, InChI=1S/C16H35O4P/c1-5-9-11-15(7-3)13-19-21(17,18)20-14-16(8-4)12-10-6-2/h15-16H,5-14H2,1-4H3,(H,17,18), purity 97%

System: bis(2-ethylhexyl) hydrogen phosphate; phases: Liquid
Fixed: Pressure, kPa = 101.325
Property: Mass density, kg/m3 (Liquid); method: Vibrating tube method
Temperature, K	Mass density, kg/m3	uncertainty
303.15	964	1.9
313.15	957	1.9
323.15	949.5	1.9
333.15	942	1.9
343.15	934.5	1.9

System: bis(2-ethylhexyl) hydrogen phosphate; phases: Liquid
Fixed: Pressure, kPa = 101.325
Property: Viscosity, Pa*s (Liquid); method: Capillary tube (Ostwald; Ubbelohde) method
Temperature, K	Viscosity, Pa*s	uncertainty
303.15	0.02122	0.000557
313.15	0.013315	0.000414
323.15	0.008559	0.000251
333.15	0.00583	0.000158
343.15	0.004089	0.000119
