Measured thermophysical data. Liquid-Phase Thermodynamic Properties for the Binary and Ternary Systems of Propane (1), n-Butane (2), and Isobutane (3)
Source: J. Chem. Eng. Data, 2005, 10.1021/je049671t
Compound 1: propane, C3H8, InChI=1S/C3H8/c1-3-2/h3H2,1-2H3, purity 99.99%
Compound 2: butane, C4H10, InChI=1S/C4H10/c1-3-4-2/h3-4H2,1-2H3, purity 99.99%
Compound 3: 2-methylpropane, C4H10, InChI=1S/C4H10/c1-4(2)3/h4H,1-3H3, purity 99.99%

System: propane + butane; phases: Liquid
Property: Mass density, kg/m3 (Liquid); method: Vibrating tube method
Mole fraction of propane	Temperature, K	Pressure, kPa	Mass density, kg/m3	uncertainty
0.25	239.039	463.7	622.82	0.26
0.25	239.039	943.7	623.31	0.27
0.25	239.039	1507.7	623.9	0.27
0.25	239.039	1962.4	624.35	0.27
0.25	239.039	2486.4	624.89	0.28
0.25	239.039	3058.3	625.46	0.28
0.25	239.039	3473.7	625.88	0.29
0.25	239.039	3994	626.39	0.29
0.25	239.039	4514.6	626.9	0.3
0.25	239.039	4950	627.33	0.3
0.25	239.039	5524.3	627.9	0.31
0.25	239.039	6029.4	628.39	0.31
0.25	239.039	6518	628.86	0.32
0.25	239.039	6930.6	629.26	0.32
0.25	260	524.1	600.69	0.27
0.25	260	1004.9	601.3	0.27
0.25	260	1482.5	601.91	0.28
0.25	260	1989.9	602.54	0.28
0.25	260	2521.3	603.2	0.29
0.25	260	3004	603.79	0.29
0.25	260	3449.6	604.34	0.3
0.25	260	4007	605.01	0.3
0.25	260	4511.7	605.63	0.31
0.25	260	5017.7	606.24	0.31
0.25	260	5512.4	606.82	0.32
0.25	260	6034.1	607.43	0.32
0.25	260	6503.8	607.98	0.33
0.25	260	7011.2	608.56	0.33
0.25	280	524.1	578.3	0.27
0.25	280	994.1	579.05	0.28
0.25	280	1496.7	579.83	0.28
0.25	280	2015.5	580.63	0.29
0.25	280	2503.9	581.38	0.29
0.25	280	3000.3	582.13	0.3
0.25	280	3502.3	582.88	0.3
0.25	280	4015	583.63	0.31
0.25	280	4505.3	584.35	0.31
0.25	280	5019.7	585.09	0.32
0.25	280	5502.7	585.78	0.32
0.25	280	6005.9	586.49	0.33
0.25	280	6517.1	587.21	0.34
0.25	280	7009.3	587.89	0.34
0.25	300	1005.5	555.26	0.28
0.25	300	1504.4	556.28	0.29
0.25	300	2002.5	557.25	0.3
0.25	300	2497.9	558.21	0.3
0.25	300	3012.5	559.2	0.31
0.25	300	3507.9	560.13	0.31
0.25	300	3998.7	561.02	0.32
0.25	300	4511.3	561.97	0.32
0.25	300	5031	562.9	0.33
0.25	300	5451.1	563.65	0.33
0.25	300	5929.8	564.5	0.34
0.25	300	6488.8	565.48	0.35
0.25	300	7074.7	566.49	0.35
0.25	320	997.4	529.12	0.29
0.25	320	1482.2	530.41	0.3
0.25	320	1996.7	531.76	0.3
0.25	320	2502.8	533.06	0.31
0.25	320	3012.6	534.34	0.32
0.25	320	3516.7	535.58	0.32
0.25	320	4012.1	536.73	0.33
0.25	320	4472	537.8	0.33
0.25	320	4989.7	539	0.34
0.25	320	5501	540.19	0.35
0.25	320	6013.9	541.36	0.35
0.25	320	6524.6	542.42	0.36
0.25	320	7003.8	543.49	0.36
0.25	340	1485.3	500.98	0.31
0.25	340	1990.9	502.87	0.31
0.25	340	2454.3	504.54	0.32
0.25	340	2997.6	506.44	0.33
0.25	340	3488	508.09	0.33
0.25	340	3984.5	509.71	0.34
0.25	340	4514.8	511.39	0.34
0.25	340	4981.8	512.84	0.35
0.25	340	5479.2	514.33	0.36
0.25	340	5958.5	515.74	0.36
0.25	340	6477.8	517.22	0.37
0.25	340	6991.8	518.67	0.38
0.25	360	1968.3	468.3	0.3
0.25	360	2483.2	471.24	0.31
0.25	360	3030.5	474.17	0.32
0.25	360	3479.5	476.45	0.33
0.25	360	4004.6	478.98	0.33
0.25	360	4494.7	481.23	0.34
0.25	360	5018.1	483.52	0.35
0.25	360	5492.3	485.53	0.36
0.25	360	5999.9	487.58	0.37
0.25	360	6472.2	489.44	0.37
0.25	360	6966.9	491.3	0.38
0.25	380	2507.8	426.44	0.3
0.25	380	3006.4	431.76	0.31
0.25	380	3508.7	436.48	0.31
0.25	380	3998.7	440.67	0.32
0.25	380	4501.1	444.52	0.33
0.25	380	4998.7	448.08	0.34
0.25	380	5497.5	451.38	0.34
0.25	380	5995.5	454.49	0.35
0.25	380	6502.4	457.46	0.36
0.25	380	6952.8	459.99	0.37
0.5	240	478.5	606.78	0.27
0.5	240	996.7	607.38	0.27
0.5	240	1479	607.88	0.28
0.5	240	1962.4	608.42	0.28
0.5	240	2491.6	609	0.29
0.5	240	2956	609.51	0.29
0.5	240	3501.4	610.09	0.3
0.5	240	3952.5	610.58	0.3
0.5	240	4493.1	611.14	0.3
0.5	240	4972.1	611.66	0.31
0.5	240	5472.1	612.19	0.31
0.5	240	6000.1	612.74	0.32
0.5	240	6502.7	613.25	0.33
0.5	240	6973.1	613.74	0.33
0.5	260	495.8	585.02	0.27
0.5	260	1001.1	585.74	0.28
0.5	260	1506.4	586.42	0.28
0.5	260	2004.6	587.1	0.29
0.5	260	2517.2	587.78	0.29
0.5	260	3014.9	588.45	0.3
0.5	260	3506	589.1	0.3
0.5	260	4004.5	589.73	0.31
0.5	260	4525.9	590.39	0.31
0.5	260	5017.4	591.03	0.32
0.5	260	5513.7	591.66	0.32
0.5	260	6015.4	592.29	0.33
0.5	260	6512.1	592.9	0.33
0.5	260	6986.6	593.49	0.34
0.5	280	533.2	561.24	0.28
0.5	280	996.1	562.05	0.28
0.5	280	1503.2	562.93	0.29
0.5	280	2004.1	563.79	0.29
0.5	280	2501.9	564.62	0.3
0.5	280	3006.4	565.46	0.31
0.5	280	3504.2	566.28	0.31
0.5	280	4016.7	567.11	0.32
0.5	280	4524.6	567.93	0.32
0.5	280	4998.7	568.69	0.33
0.5	280	5506.3	569.47	0.33
0.5	280	6009.4	570.25	0.34
0.5	280	6507.4	571.01	0.34
0.5	280	6972.3	571.72	0.35
0.5	300	990	536.26	0.29
0.5	300	1541.4	537.52	0.3
0.5	300	1950.9	538.44	0.3
0.5	300	2461.4	539.56	0.31
0.5	300	2946.2	540.6	0.31
0.5	300	3505.6	541.79	0.32
0.5	300	4015.9	542.85	0.33
0.5	300	4514.7	543.88	0.33
0.5	300	4953.2	544.76	0.34
0.5	300	5508.8	545.86	0.34
0.5	300	5953	546.73	0.35
0.5	300	6466.1	547.72	0.36
0.5	300	6959.9	548.68	0.36
0.5	320	1496.3	509.2	0.31
0.5	320	2010.3	510.79	0.31
0.5	320	2516.5	512.32	0.32
0.5	320	2999.8	513.74	0.32
0.5	320	3509.2	515.19	0.33
0.5	320	4017.1	516.6	0.34
0.5	320	4497.4	517.9	0.34
0.5	320	4988.6	519.21	0.35
0.5	320	5490.6	520.51	0.36
0.5	320	5989.8	521.77	0.36
0.5	320	6479.5	522.98	0.37
0.5	320	7116.4	524.52	0.38
0.5	340	2013.6	478.5	0.31
0.5	340	2508.8	480.75	0.32
0.5	340	3013.6	482.96	0.33
0.5	340	3515.5	485.04	0.33
0.5	340	4016.2	487.04	0.34
0.5	340	4496.8	488.89	0.35
0.5	340	5012.2	490.8	0.35
0.5	340	5511.6	492.6	0.36
0.5	340	6031.2	494.4	0.37
0.5	340	6534.4	496.09	0.38
0.5	340	7014.4	497.66	0.39
0.5	360	2528	441.58	0.31
0.5	360	3014.4	445.35	0.32
0.5	360	3530.7	449	0.32
0.5	360	4023.8	452.26	0.33
0.5	360	4529.2	455.37	0.34
0.5	360	5025.4	458.22	0.34
0.5	360	5525	460.95	0.35
0.5	360	6017.8	463.52	0.36
0.5	360	6530.6	466.12	0.37
0.5	360	6972.7	468.36	0.37
0.5	380	3523.1	395.46	0.31
0.5	380	4001.1	402.87	0.32
0.5	380	4476.5	409.03	0.33
0.5	380	5019	415.08	0.33
0.5	380	5494.5	419.73	0.34
0.5	380	5962.5	423.89	0.34
0.5	380	6480.6	428.09	0.35
0.5	380	6908.8	431.3	0.36
0.75	240	514.9	589.83	0.27
0.75	240	1006.3	590.44	0.28
0.75	240	1505.4	591.03	0.28
0.75	240	2024.2	591.63	0.29
0.75	240	2519.5	592.21	0.29
0.75	240	3022.7	592.8	0.3
0.75	240	3519.4	593.39	0.3
0.75	240	4031.2	593.97	0.31
0.75	240	4526.8	594.51	0.31
0.75	240	4946.9	594.99	0.31
0.75	240	5521.6	595.64	0.32
0.75	240	6044.8	596.2	0.33
0.75	240	6539.6	596.77	0.33
0.75	240	7045.6	597.3	0.34
0.75	260	489.6	566.44	0.28
0.75	260	996.9	567.21	0.28
0.75	260	1504.2	567.97	0.29
0.75	260	2003.6	568.71	0.29
0.75	260	2508.4	569.45	0.3
0.75	260	3015.6	570.19	0.3
0.75	260	3495.5	570.88	0.31
0.75	260	4006.2	571.62	0.31
0.75	260	4494.5	572.27	0.32
0.75	260	5022.8	573.01	0.32
0.75	260	5508.1	573.69	0.33
0.75	260	6049.2	574.41	0.34
0.75	260	6498.8	575.04	0.34
0.75	260	6943	575.6	0.35
0.75	280	1506.3	543.19	0.29
0.75	280	2012.9	544.18	0.3
0.75	280	2509.6	545.11	0.31
0.75	280	3018.4	546.06	0.31
0.75	280	3513.7	546.96	0.32
0.75	280	4015	547.86	0.32
0.75	280	4508.2	548.75	0.33
0.75	280	4984.9	549.59	0.33
0.75	280	5508.8	550.5	0.34
0.75	280	6043.7	551.39	0.35
0.75	280	6530.4	552.22	0.35
0.75	280	7012.2	553.04	0.36
0.75	300	1002.3	514.75	0.3
0.75	300	1504.7	516.09	0.3
0.75	300	1972.1	517.33	0.31
0.75	300	2507.7	518.69	0.31
0.75	300	3009.2	519.95	0.32
0.75	300	3511.5	521.18	0.33
0.75	300	4017.5	522.39	0.33
0.75	300	4513.8	523.55	0.34
0.75	300	5016.7	524.69	0.35
0.75	300	5474.7	525.74	0.35
0.75	300	5950	526.78	0.36
0.75	300	6473.6	527.92	0.36
0.75	300	7015.2	529.08	0.37
0.75	320	1509.8	484.66	0.3
0.75	320	2020.7	486.64	0.31
0.75	320	2497.1	488.41	0.32
0.75	320	3011.6	490.26	0.32
0.75	320	3459.5	491.82	0.33
0.75	320	4013.7	493.68	0.34
0.75	320	4512.7	495.29	0.35
0.75	320	5019.1	496.89	0.36
0.75	320	5520.4	498.43	0.36
0.75	320	6001.7	499.85	0.37
0.75	320	6522.9	501.37	0.38
0.75	320	7020.7	502.78	0.38
0.75	340	1994.9	448.06	0.3
0.75	340	2527.2	451.44	0.31
0.75	340	3018	454.37	0.31
0.75	340	3542.6	457.27	0.32
0.75	340	4021.6	459.81	0.33
0.75	340	4469.1	462.01	0.33
0.75	340	4991.2	464.48	0.34
0.75	340	5517	466.87	0.35
0.75	340	5990.2	468.91	0.36
0.75	340	6495	471.01	0.36
0.75	340	6953.2	472.85	0.37
0.75	360	2981.1	400.91	0.3
0.75	360	3504.1	407.74	0.3
0.75	360	4034.2	413.59	0.31
0.75	360	4499.5	418.08	0.32
0.75	360	4959.4	422.1	0.32
0.75	360	5477.4	426.13	0.33
0.75	360	5965.8	429.75	0.34
0.75	360	6494	433.3	0.35
0.75	360	6960.2	436.27	0.35
0.75	380	4538.7	349.07	0.3
0.75	380	5025.3	362.3	0.31
0.75	380	5491.2	371.58	0.31
0.75	380	5986.2	379.48	0.32
0.75	380	6503.9	386.32	0.33
0.75	380	6897.6	390.75	0.33

System: propane + butane; phases: Liquid, Gas
Property: Vapor or sublimation pressure, kPa (Liquid); method: CCELL:UFactor:16
Mole fraction of propane	Temperature, K	Vapor or sublimation pressure, kPa	uncertainty
0.25	260	120.8	6.2
0.25	280	238.2	12.1
0.25	300	425	21.3
0.25	320	706.9	35.3
0.25	340	1107.1	55.1
0.25	360	1651.1	82.1
0.25	380	2372.7	117.9
0.5	240	84.5	4.4
0.5	260	181.8	9.3
0.5	280	347	17.5
0.5	300	604	30.2
0.5	320	978.3	48.7
0.5	340	1494.8	74.4
0.5	380	3100.2	153.9
0.75	240	115.5	6
0.75	260	245	12.4
0.75	280	461.9	23.1
0.75	300	793.1	39.6
0.75	320	1270.5	63.2
0.75	340	1928.1	95.8
0.75	360	2802.7	139.2

System: propane + butane; phases: Liquid, Gas
Property: Mass density, kg/m3 (Liquid); method: Vibrating tube method
Mole fraction of propane	Temperature, K	Mass density, kg/m3	uncertainty
0.25	260	600.21	0.26
0.25	280	577.86	0.27
0.25	300	554.07	0.27
0.25	320	528.42	0.28
0.25	340	499.52	0.29
0.25	360	466.36	0.28
0.25	380	424.79	0.27
0.5	240	606.37	0.26
0.5	260	584.58	0.27
0.5	280	560.91	0.27
0.5	300	535.4	0.28
0.5	320	507.52	0.29
0.5	340	475.99	0.28
0.5	380	387.07	0.27
0.75	240	589.36	0.27
0.75	260	566.05	0.27
0.75	280	541.14	0.28
0.75	300	514.2	0.28
0.75	320	483.71	0.28
0.75	340	447.59	0.28
0.75	360	398.44	0.26

System: propane + 2-methylpropane; phases: Liquid
Property: Mass density, kg/m3 (Liquid); method: Vibrating tube method
Mole fraction of propane	Temperature, K	Pressure, kPa	Mass density, kg/m3	uncertainty
0.25	240	398.2	608.19	0.26
0.25	240	475.1	608.27	0.27
0.25	240	1000.1	608.87	0.27
0.25	240	1505.9	609.45	0.27
0.25	240	2004.5	610.02	0.28
0.25	240	2533	610.61	0.28
0.25	240	3028.4	611.15	0.29
0.25	240	3537.9	611.73	0.29
0.25	240	4027.7	612.28	0.3
0.25	240	4519.1	612.81	0.3
0.25	240	5030.4	613.37	0.31
0.25	240	5533.4	613.91	0.31
0.25	240	6033	614.45	0.32
0.25	240	6541.5	615	0.32
0.25	240	6987.7	615.48	0.33
0.25	260	521.1	586.55	0.27
0.25	260	990.2	587.2	0.28
0.25	260	1481.6	587.88	0.28
0.25	260	2004.4	588.63	0.29
0.25	260	2504.8	589.32	0.29
0.25	260	2995	589.98	0.3
0.25	260	3517.2	590.65	0.3
0.25	260	3986.7	591.2	0.31
0.25	260	4476.3	591.87	0.31
0.25	260	4976.3	592.53	0.32
0.25	260	5550.8	593.3	0.32
0.25	260	6051.9	593.96	0.33
0.25	260	6474.3	594.47	0.33
0.25	260	7006.2	595.15	0.34
0.25	280	500.3	562.94	0.28
0.25	280	1004.7	563.86	0.28
0.25	280	1462.8	564.67	0.29
0.25	280	2007.8	565.62	0.29
0.25	280	2513.6	566.51	0.3
0.25	280	2999.1	567.36	0.3
0.25	280	3488.8	568.19	0.31
0.25	280	3992.4	569.03	0.31
0.25	280	4516.8	569.91	0.32
0.25	280	4979.1	570.66	0.33
0.25	280	5485	571.47	0.33
0.25	280	5989.4	572.28	0.34
0.25	280	6532.5	573.13	0.34
0.25	280	6965.6	573.82	0.35
0.25	280	6968.2	573.78	0.35
0.25	300	1001.6	538.53	0.29
0.25	300	1503.7	539.71	0.29
0.25	300	2006.6	540.87	0.3
0.25	300	2510.6	542.01	0.31
0.25	300	3014.6	543.13	0.31
0.25	300	3488.8	544.16	0.32
0.25	300	4012	545.28	0.32
0.25	300	4483.4	546.25	0.33
0.25	300	5016.4	547.38	0.34
0.25	300	5511.8	548.38	0.34
0.25	300	6025.1	549.47	0.35
0.25	300	6516	550.41	0.35
0.25	300	6957	551.23	0.36
0.25	320	1020.5	509.69	0.3
0.25	320	1500	511.28	0.3
0.25	320	2023.3	512.94	0.31
0.25	320	2522.2	514.49	0.32
0.25	320	3007.6	515.95	0.32
0.25	320	3508.1	517.4	0.33
0.25	320	4022.9	518.87	0.33
0.25	320	4522.1	520.26	0.34
0.25	320	4990.1	521.53	0.35
0.25	320	5517.3	522.93	0.35
0.25	320	6001.8	524.19	0.36
0.25	320	6479.8	525.39	0.37
0.25	320	6964.1	526.6	0.37
0.25	340	1514.2	479.11	0.3
0.25	340	2028	481.6	0.31
0.25	340	2523.8	483.92	0.32
0.25	340	3027.2	486.13	0.32
0.25	340	3532.9	488.26	0.33
0.25	340	4015.7	490.21	0.34
0.25	340	4503	492.08	0.35
0.25	340	4964.9	493.81	0.35
0.25	340	5522.3	495.84	0.36
0.25	340	6022.3	497.59	0.37
0.25	340	6527.5	499.31	0.38
0.25	340	6963	500.75	0.38
0.25	360	2023.3	441.34	0.3
0.25	360	2532.9	445.56	0.3
0.25	360	3022.3	449.26	0.31
0.25	360	3519.8	452.71	0.32
0.25	360	4022.3	455.95	0.32
0.25	360	4520.2	458.95	0.33
0.25	360	4983.9	461.58	0.34
0.25	360	5515.2	464.45	0.35
0.25	360	5982.9	466.86	0.36
0.25	360	6444.6	469.09	0.36
0.25	360	6956.4	471.48	0.37
0.25	380	2977.2	394.6	0.29
0.25	380	3495.5	403.43	0.3
0.25	380	3969.5	409.99	0.31
0.25	380	4453.9	415.7	0.32
0.25	380	5019.6	421.52	0.32
0.25	380	5488.5	425.84	0.33
0.25	380	5972.1	429.89	0.34
0.25	380	6471.8	433.74	0.35
0.25	380	7060.8	437.93	0.36
0.499	250	515.5	584.94	0.27
0.499	250	1014.4	585.61	0.28
0.499	250	1511.1	586.26	0.28
0.499	250	2027.5	586.95	0.29
0.499	250	2489.8	587.55	0.29
0.499	250	3012.9	588.23	0.3
0.499	250	3492.5	588.84	0.3
0.499	250	3995.9	589.47	0.31
0.499	250	4532.5	590.12	0.31
0.499	250	5042.2	590.74	0.32
0.499	250	5484.6	591.29	0.32
0.499	250	5996.5	591.9	0.33
0.499	250	6509.5	592.48	0.33
0.499	250	6818.8	592.84	0.34
0.499	280	467.2	549.36	0.28
0.499	280	952.8	550.3	0.29
0.499	280	1514	551.39	0.29
0.499	280	2007.8	552.34	0.3
0.499	280	2489.1	553.22	0.3
0.499	280	3022.9	554.21	0.31
0.499	280	3519.6	555.1	0.31
0.499	280	3992	555.95	0.32
0.499	280	4518.6	556.87	0.33
0.499	280	5014	557.72	0.33
0.499	280	5482.8	558.54	0.34
0.499	280	6027	559.46	0.34
0.499	280	6525.9	560.31	0.35
0.499	280	6938.9	560.98	0.35
0.499	300	996.8	523.82	0.29
0.499	300	1519.6	525.17	0.3
0.499	300	2026.1	526.45	0.31
0.499	300	2530.4	527.7	0.31
0.499	300	3043.4	528.93	0.32
0.499	300	3486.8	529.95	0.32
0.499	300	3995.5	531.16	0.33
0.499	300	4503.6	532.34	0.34
0.499	300	4958.9	533.34	0.34
0.499	300	5458.6	534.46	0.35
0.499	300	5975.7	535.56	0.35
0.499	300	6517.3	536.72	0.36
0.499	300	6984.7	537.69	0.37
0.499	320	1461.2	494.61	0.31
0.499	320	2041.5	496.75	0.31
0.499	320	2488.7	498.31	0.32
0.499	320	3023.9	500.12	0.33
0.499	320	3550	501.84	0.34
0.499	320	4037.4	503.38	0.34
0.499	320	4530.4	504.9	0.35
0.499	320	4954.2	506.17	0.35
0.499	320	5545.8	507.9	0.36
0.499	320	5997.3	509.24	0.37
0.499	320	6524.9	510.74	0.37
0.499	320	6930.3	511.85	0.38
0.499	340	2002.6	459.37	0.3
0.499	340	2456	461.99	0.31
0.499	340	2981.6	464.85	0.32
0.499	340	3485.7	467.47	0.32
0.499	340	4012.5	470.04	0.33
0.499	340	4508.4	472.34	0.34
0.499	340	4990.6	474.5	0.35
0.499	340	5450.5	476.5	0.35
0.499	340	5982	478.68	0.36
0.499	340	6513	480.75	0.37
0.499	340	7045.5	482.76	0.38
0.499	360	2495.4	418.03	0.3
0.499	360	2996.3	423.54	0.31
0.499	360	3496.3	428.34	0.31
0.499	360	3988.8	432.58	0.32
0.499	360	4488.6	436.48	0.33
0.499	360	5000.3	440.17	0.33
0.499	360	5436.6	443.06	0.34
0.499	360	5992.3	446.54	0.35
0.499	360	6487.4	449.41	0.36
0.499	360	6977	452.14	0.36
0.499	380	3540.7	358.66	0.3
0.499	380	4047.9	373.76	0.31
0.499	380	4501.9	383.09	0.31
0.499	380	5016	391.43	0.32
0.499	380	5506.7	398.06	0.32
0.499	380	5943.1	403.16	0.33
0.499	380	6422.5	408.17	0.34
0.499	380	6885.8	412.58	0.34
0.75	240	529.1	584.35	0.27
0.75	240	1024.1	584.98	0.28
0.75	240	1473.4	585.53	0.28
0.75	240	2000.7	586.19	0.29
0.75	240	2531.8	586.84	0.29
0.75	240	3006.4	587.4	0.3
0.75	240	3545.4	588.06	0.3
0.75	240	4012.9	588.63	0.31
0.75	240	4515.3	589.21	0.31
0.75	240	4996.8	589.79	0.32
0.75	240	5496.4	590.37	0.32
0.75	240	6009	590.98	0.33
0.75	240	6541	591.59	0.33
0.75	240	6969.5	592.1	0.34
0.75	260	251.9	560.57	0.27
0.75	260	527	561.44	0.28
0.75	260	1026.1	562.22	0.28
0.75	260	1524.1	563.04	0.29
0.75	260	2030.6	563.8	0.29
0.75	260	2508.8	564.52	0.3
0.75	260	3035.5	565.31	0.3
0.75	260	3494.1	566	0.31
0.75	260	4039.9	566.81	0.32
0.75	260	4527.2	567.5	0.32
0.75	260	4968.6	568.07	0.33
0.75	260	5537.1	568.72	0.33
0.75	260	6513.6	570.1	0.34
0.75	260	6922.9	570.57	0.35
0.75	280	478.7	535.35	0.28
0.75	280	990.6	536.42	0.29
0.75	280	1517.2	537.51	0.3
0.75	280	2029.6	538.54	0.3
0.75	280	2510.3	539.5	0.31
0.75	280	3019.4	540.5	0.31
0.75	280	3522.3	541.47	0.32
0.75	280	4026.3	542.43	0.32
0.75	280	4544.4	543.38	0.33
0.75	280	4965.2	544.17	0.34
0.75	280	5530.9	545.19	0.34
0.75	280	6012.9	546.05	0.35
0.75	280	6488.2	546.89	0.35
0.75	280	6931.1	547.66	0.36
0.75	300	824.3	507.35	0.3
0.75	300	1534	509.38	0.3
0.75	300	2028.3	510.77	0.31
0.75	300	2493.2	512.04	0.32
0.75	300	3028.7	513.47	0.32
0.75	300	3519.2	514.75	0.33
0.75	300	3996.7	515.97	0.33
0.75	300	4467.1	517.17	0.34
0.75	300	4994.5	518.46	0.35
0.75	300	5458.9	519.57	0.35
0.75	300	5960.9	520.74	0.36
0.75	300	6473	521.92	0.37
0.75	300	6954.6	522.99	0.37
0.75	320	1325.3	475.52	0.3
0.75	320	1505.3	476.31	0.3
0.75	320	2021.1	478.51	0.31
0.75	320	2517.7	480.54	0.31
0.75	320	3025.6	482.53	0.32
0.75	320	3506.4	484.35	0.33
0.75	320	3994.2	486.12	0.34
0.75	320	4507.7	487.92	0.34
0.75	320	4968	489.5	0.35
0.75	320	5527.2	491.33	0.36
0.75	320	6003.6	492.85	0.37
0.75	320	6495	494.38	0.38
0.75	320	7044.7	496.03	0.38
0.75	340	2489.8	441.74	0.3
0.75	340	3027.4	445.39	0.31
0.75	340	3510.1	448.46	0.32
0.75	340	3969	451.17	0.32
0.75	340	4498.6	454.09	0.33
0.75	340	4963.1	456.51	0.34
0.75	340	5511.1	459.22	0.35
0.75	340	5960.4	461.33	0.35
0.75	340	6506.1	463.79	0.36
0.75	340	7081.1	466.25	0.37
0.75	360	3518.2	399.53	0.3
0.75	360	3960	405.21	0.31
0.75	360	3971.4	405.35	0.31
0.75	360	4484.8	411.08	0.31
0.75	360	4923.7	415.42	0.32
0.75	360	5456.3	420.47	0.33
0.75	360	5932	424.33	0.34
0.75	360	6509.8	428.41	0.34
0.75	360	6932.1	431.05	0.35

System: propane + 2-methylpropane; phases: Liquid, Gas
Property: Vapor or sublimation pressure, kPa (Liquid); method: CCELL:UFactor:16
Mole fraction of propane	Temperature, K	Vapor or sublimation pressure, kPa	uncertainty
0.25	240	67.2	3.6
0.25	260	147	7.5
0.25	280	281.4	14.2
0.25	300	518.6	26
0.25	320	862.1	43
0.25	340	1338.8	66.6
0.25	360	1968.9	97.9
0.25	380	2798.3	139
0.499	250	136	7
0.499	280	383.3	19.2
0.499	300	665.2	33.2
0.499	320	1077.7	53.7
0.499	340	1641.5	81.6
0.499	360	2403	119.4
0.499	380	3362.9	167
0.75	240	119.8	6.2
0.75	260	250	12.6
0.75	280	473.2	23.7
0.75	300	820.8	40.9
0.75	320	1322.1	65.8
0.75	340	2011.3	100
0.75	360	2910.6	144.5

System: propane + 2-methylpropane; phases: Liquid, Gas
Property: Mass density, kg/m3 (Liquid); method: Vibrating tube method
Mole fraction of propane	Temperature, K	Mass density, kg/m3	uncertainty
0.25	240	607.81	0.26
0.25	260	585.98	0.27
0.25	280	562.49	0.27
0.25	300	537.31	0.28
0.25	320	509.12	0.28
0.25	340	478.17	0.28
0.25	360	440.78	0.27
0.25	380	390.71	0.27
0.499	250	584.44	0.27
0.499	280	549.15	0.28
0.499	300	522.96	0.28
0.499	320	491.75	0.29
0.499	340	457.03	0.28
0.499	360	416.83	0.27
0.499	380	346.9	0.27
0.75	240	583.82	0.27
0.75	260	560.96	0.27
0.75	280	535.32	0.28
0.75	300	507.33	0.29
0.75	320	475.51	0.28
0.75	340	436.07	0.27
0.75	360	388.35	0.26

System: 2-methylpropane + butane; phases: Liquid
Property: Mass density, kg/m3 (Liquid); method: Vibrating tube method
Mole fraction of butane	Temperature, K	Pressure, kPa	Mass density, kg/m3	uncertainty
0.25	240	481.6	621.79	0.26
0.25	240	999.5	622.36	0.27
0.25	240	1503.1	622.9	0.27
0.25	240	2001.8	623.43	0.27
0.25	240	2493.8	623.95	0.28
0.25	240	2987.3	624.47	0.28
0.25	240	3481.8	624.99	0.29
0.25	240	3970.1	625.5	0.29
0.25	240	4485.6	626.03	0.3
0.25	240	5024.9	626.58	0.3
0.25	240	5519.2	627.11	0.31
0.25	240	6067.5	627.64	0.31
0.25	240	6517.4	628.1	0.32
0.25	240	6977	628.56	0.32
0.25	260	503.7	600.66	0.27
0.25	260	979.3	601.29	0.27
0.25	260	1490.8	601.97	0.28
0.25	260	2003.1	602.64	0.28
0.25	260	2511.6	603.29	0.29
0.25	260	2999.7	603.92	0.29
0.25	260	3505.2	604.56	0.3
0.25	260	4014.1	605.19	0.3
0.25	260	4521	605.82	0.31
0.25	260	5023.4	606.44	0.31
0.25	260	5506.4	607.02	0.32
0.25	260	6028.5	607.65	0.32
0.25	260	6519.2	608.25	0.33
0.25	260	7000.3	608.81	0.33
0.25	280	491.4	578.14	0.27
0.25	280	997.5	578.99	0.28
0.25	280	1496	579.79	0.28
0.25	280	2009.2	580.63	0.29
0.25	280	2512.7	581.42	0.29
0.25	280	3023	582.23	0.3
0.25	280	3506.9	582.98	0.3
0.25	280	4008	583.74	0.31
0.25	280	4504.4	584.53	0.31
0.25	280	5006.3	585.27	0.32
0.25	280	5523.8	586.04	0.32
0.25	280	6024.7	586.78	0.33
0.25	280	6510.8	587.5	0.34
0.25	280	6984.1	588.18	0.34
0.25	300	502.9	554.17	0.28
0.25	300	999.4	555.23	0.28
0.25	300	1497.1	556.26	0.29
0.25	300	1997.4	557.29	0.29
0.25	300	2498.6	558.33	0.3
0.25	300	3014	559.36	0.31
0.25	300	3510.6	560.33	0.31
0.25	300	4007.7	561.28	0.32
0.25	300	4513.9	562.25	0.32
0.25	300	5016.3	563.17	0.33
0.25	300	5514.6	564.1	0.33
0.25	300	6036.6	565.05	0.34
0.25	300	6498	565.9	0.35
0.25	300	7001.6	566.76	0.35
0.25	320	1010.3	529.04	0.29
0.25	320	1496.2	530.4	0.3
0.25	320	2013.6	531.82	0.3
0.25	320	2511	533.15	0.31
0.25	320	2989.3	534.4	0.31
0.25	320	3504.2	535.74	0.32
0.25	320	4006.4	537	0.33
0.25	320	4485.3	538.17	0.33
0.25	320	4998.1	539.39	0.34
0.25	320	5506.3	540.6	0.34
0.25	320	5970.9	541.67	0.35
0.25	320	6514.9	542.91	0.36
0.25	320	7034.9	544.07	0.36
0.25	340	1510	501.39	0.31
0.25	340	2003.4	503.24	0.31
0.25	340	2495.8	505.08	0.32
0.25	340	3009.8	506.91	0.32
0.25	340	3512.9	508.67	0.33
0.25	340	4004.8	510.31	0.34
0.25	340	4508.6	511.95	0.34
0.25	340	4981.3	513.47	0.35
0.25	340	5500.3	515.08	0.36
0.25	340	5999.1	516.58	0.36
0.25	340	6508.8	518.07	0.37
0.25	340	7019.9	519.55	0.38
0.25	360	1523.6	466.34	0.3
0.25	360	1975.7	469.15	0.3
0.25	360	2482.6	472.1	0.31
0.25	360	3010.1	474.99	0.32
0.25	360	3507.7	477.58	0.33
0.25	360	4007.3	480.03	0.33
0.25	360	4493	482.35	0.34
0.25	360	5010.2	484.66	0.35
0.25	360	5503.6	486.78	0.36
0.25	360	6002.5	488.86	0.37
0.25	360	6497.2	490.83	0.37
0.25	360	7041	492.93	0.38
0.25	380	2496.5	428.54	0.3
0.25	380	3007.8	433.95	0.3
0.25	380	3498.2	438.53	0.31
0.25	380	4000	442.76	0.32
0.25	380	4463.2	446.33	0.33
0.25	380	5004.6	450.19	0.33
0.25	380	5481.2	453.35	0.34
0.25	380	5986.7	456.5	0.35
0.25	380	6476.8	459.36	0.36
0.25	380	7003.2	462.28	0.37
0.5	240	468.1	626.35	0.26
0.5	240	989.5	626.9	0.27
0.5	240	1472.5	627.41	0.27
0.5	240	1962.6	627.92	0.27
0.5	240	2468.8	628.43	0.28
0.5	240	2976.4	628.95	0.28
0.5	240	3446	629.43	0.29
0.5	240	3982.7	629.98	0.29
0.5	240	4467.2	630.47	0.3
0.5	240	4983.6	630.99	0.3
0.5	240	5486.4	631.5	0.31
0.5	240	5981.2	631.99	0.31
0.5	240	6486.1	632.5	0.31
0.5	240	6981	632.99	0.32
0.5	260	503.9	605.31	0.27
0.5	260	1011.2	605.96	0.27
0.5	260	1508.9	606.59	0.28
0.5	260	2010.9	607.22	0.28
0.5	260	2507.6	607.84	0.28
0.5	260	2993.6	608.43	0.29
0.5	260	3514	609.08	0.29
0.5	260	3991.1	609.66	0.3
0.5	260	4508.9	610.27	0.3
0.5	260	5026.4	610.89	0.31
0.5	260	5517.9	611.47	0.31
0.5	260	6023	612.08	0.32
0.5	260	6531.1	612.67	0.32
0.5	260	6987.3	613.2	0.33
0.5	280	514.1	583.32	0.27
0.5	280	997.4	584.09	0.28
0.5	280	1515.6	584.89	0.28
0.5	280	1990.8	585.62	0.29
0.5	280	2510.6	586.43	0.29
0.5	280	3016.2	587.2	0.3
0.5	280	3532.6	587.97	0.3
0.5	280	4012.8	588.67	0.31
0.5	280	4508.3	589.4	0.31
0.5	280	5025.7	590.15	0.32
0.5	280	5479.3	590.82	0.32
0.5	280	5993.3	591.55	0.33
0.5	280	6528.5	592.3	0.33
0.5	280	6953.9	592.89	0.34
0.5	300	312	559.4	0.28
0.5	300	510.2	559.82	0.28
0.5	300	983.9	560.78	0.28
0.5	300	1509.8	561.83	0.29
0.5	300	1992.8	562.77	0.29
0.5	300	2513.9	563.78	0.3
0.5	300	3011.4	564.72	0.3
0.5	300	3476.1	565.59	0.31
0.5	300	3988.4	566.54	0.31
0.5	300	4453.4	567.4	0.32
0.5	300	5026.1	568.4	0.33
0.5	300	5472.7	569.19	0.33
0.5	300	5960.3	570.04	0.34
0.5	300	6511.5	571.01	0.34
0.5	300	7003.6	571.85	0.35
0.5	320	978.9	535.28	0.29
0.5	320	1594.1	536.89	0.3
0.5	320	2007.9	537.95	0.3
0.5	320	2513.8	539.22	0.31
0.5	320	3020.8	540.47	0.31
0.5	320	3465.4	541.53	0.32
0.5	320	3972.8	542.72	0.32
0.5	320	4492.1	543.94	0.33
0.5	320	4992.4	545.07	0.34
0.5	320	5465.3	546.12	0.34
0.5	320	5971.8	547.22	0.35
0.5	320	6462.7	548.28	0.35
0.5	320	7093.8	549.62	0.36
0.5	340	998.6	506.59	0.3
0.5	340	1561.3	508.67	0.3
0.5	340	2008.5	510.27	0.31
0.5	340	2527.9	512.06	0.32
0.5	340	3001.4	513.65	0.32
0.5	340	3521.9	515.35	0.33
0.5	340	4042.3	516.97	0.33
0.5	340	4526.2	518.46	0.34
0.5	340	4988.5	519.84	0.35
0.5	340	5502	521.34	0.35
0.5	340	6016.6	522.8	0.36
0.5	340	6476.8	524.07	0.37
0.5	340	7084.7	525.72	0.37
0.5	360	1517.3	475.07	0.3
0.5	360	2018.5	477.84	0.31
0.5	360	2525	480.5	0.31
0.5	360	3005.9	482.91	0.32
0.5	360	3511.2	485.28	0.33
0.5	360	4019.1	487.57	0.34
0.5	360	4510.2	489.71	0.34
0.5	360	5018.9	491.8	0.35
0.5	360	5508.6	493.77	0.36
0.5	360	6019.4	495.75	0.37
0.5	360	6511.4	497.56	0.38
0.5	360	7022.1	499.47	0.39
0.5	380	2506.6	440.41	0.3
0.5	380	3005	444.82	0.31
0.5	380	3519	448.92	0.32
0.5	380	4015.3	452.56	0.32
0.5	380	4521.7	456	0.33
0.5	380	5001.3	459.04	0.34
0.5	380	5511.6	462.08	0.35
0.5	380	6010.6	464.88	0.35
0.5	380	6505.2	467.52	0.36
0.5	380	6981.4	469.94	0.37
0.75	240	499	631.33	0.26
0.75	240	1001	631.85	0.26
0.75	240	1500.2	632.38	0.27
0.75	240	2011.4	632.88	0.27
0.75	240	2505.1	633.43	0.28
0.75	240	3003.9	633.91	0.28
0.75	240	3507.2	634.38	0.29
0.75	240	4015.3	634.92	0.29
0.75	240	4509.6	635.35	0.29
0.75	240	5011.3	635.85	0.3
0.75	240	5515.8	636.31	0.3
0.75	240	6023.5	636.82	0.31
0.75	240	6492.4	637.29	0.31
0.75	240	6991.5	637.75	0.32
0.75	260	496.3	610.36	0.26
0.75	260	993.2	610.92	0.27
0.75	260	1489.5	611.52	0.27
0.75	260	2002.5	612.18	0.28
0.75	260	2510.1	612.77	0.28
0.75	260	3016.5	613.4	0.29
0.75	260	3495.3	613.93	0.29
0.75	260	4009.7	614.5	0.3
0.75	260	4519.2	615.15	0.3
0.75	260	5018.2	615.65	0.31
0.75	260	5512.2	616.21	0.31
0.75	260	6004.4	616.79	0.32
0.75	260	6526.2	617.32	0.32
0.75	260	7024.3	617.88	0.33
0.75	280	494.5	588.49	0.27
0.75	280	997.9	589.24	0.27
0.75	280	1499.8	590.03	0.28
0.75	280	1991.8	590.76	0.28
0.75	280	2501	591.51	0.29
0.75	280	3001.9	592.24	0.29
0.75	280	3511.3	592.97	0.3
0.75	280	4010.5	593.64	0.3
0.75	280	4502.1	594.34	0.31
0.75	280	4994.2	595.02	0.31
0.75	280	5525.5	595.77	0.32
0.75	280	5942.8	596.37	0.32
0.75	280	6475.5	597.09	0.33
0.75	280	7039.4	597.8	0.34
0.75	300	505.7	565.16	0.28
0.75	300	1002.4	566.11	0.28
0.75	300	1493	567.04	0.29
0.75	300	2007.5	568	0.29
0.75	300	2510.2	568.9	0.3
0.75	300	2995.9	569.79	0.3
0.75	300	3483.6	570.68	0.31
0.75	300	4013.5	571.62	0.31
0.75	300	4467	572.38	0.32
0.75	300	4997.8	573.31	0.32
0.75	300	5473.2	574.11	0.33
0.75	300	5950.5	574.92	0.33
0.75	300	6473.1	575.78	0.34
0.75	300	7005.5	576.66	0.35
0.75	320	1008.4	541.4	0.29
0.75	320	1506.1	542.64	0.29
0.75	320	2006	543.82	0.3
0.75	320	2503.8	545.03	0.3
0.75	320	2990.8	546.14	0.31
0.75	320	3510.6	547.3	0.32
0.75	320	3986.7	548.41	0.32
0.75	320	4515.1	549.56	0.33
0.75	320	4997.8	550.6	0.33
0.75	320	5508.2	551.69	0.34
0.75	320	6015.9	552.74	0.35
0.75	320	6488.4	553.71	0.35
0.75	320	7065.7	554.85	0.36
0.75	340	1008.5	513.55	0.3
0.75	340	1505.9	515.25	0.3
0.75	340	2020.5	516.97	0.31
0.75	340	2500.9	518.54	0.31
0.75	340	3005.7	520.07	0.32
0.75	340	3499.6	521.61	0.33
0.75	340	4004.8	523.11	0.33
0.75	340	4496.4	524.53	0.34
0.75	340	4990.6	525.87	0.34
0.75	340	5515.9	527.37	0.35
0.75	340	5973.6	528.61	0.36
0.75	340	6496.3	529.99	0.36
0.75	340	7019.3	531.33	0.37
0.75	360	1517.1	483.05	0.3
0.75	360	1976.3	485.36	0.31
0.75	360	2496	487.85	0.32
0.75	360	2961.3	489.97	0.32
0.75	360	3489.3	492.24	0.33
0.75	360	3977.2	494.26	0.34
0.75	360	4443.6	496.16	0.35
0.75	360	4948.8	498.12	0.35
0.75	360	5499.8	500.18	0.36
0.75	360	5964.2	501.91	0.37
0.75	360	6484.4	503.73	0.38
0.75	360	7073.3	505.68	0.38
0.75	380	1992.3	445.43	0.3
0.75	380	2519.3	449.94	0.3
0.75	380	3014.5	453.77	0.31
0.75	380	3482.8	457.09	0.32
0.75	380	4022	460.64	0.33
0.75	380	4476.8	463.44	0.33
0.75	380	4994	466.44	0.34
0.75	380	5504.5	469.24	0.35
0.75	380	5998.4	471.8	0.36
0.75	380	6475.4	474.16	0.37
0.75	380	6967.5	476.48	0.37

System: 2-methylpropane + butane; phases: Liquid, Gas
Property: Vapor or sublimation pressure, kPa (Liquid); method: CCELL:UFactor:16
Mole fraction of butane	Temperature, K	Vapor or sublimation pressure, kPa	uncertainty
0.25	240	59.3	20
0.25	260	100.9	5.3
0.25	280	190.7	9.7
0.25	300	360.6	18.1
0.25	320	602.2	30.1
0.25	340	963.7	48
0.25	380	2136.4	106.2
0.5	240	32.9	1.9
0.5	260	78.4	4.1
0.5	280	166	8.5
0.5	300	313.6	15.8
0.5	320	543.5	27.2
0.5	340	880.6	43.9
0.5	360	1351	67.2
0.5	380	1985.6	98.7
0.75	240	26.1	1.5
0.75	260	68.6	3.6
0.75	280	148.9	7.6
0.75	300	284.8	14.4
0.75	320	498.8	25
0.75	340	814.9	40.6
0.75	360	1258.4	62.6
0.75	380	1955.8	97.2

System: 2-methylpropane + butane; phases: Liquid, Gas
Property: Mass density, kg/m3 (Liquid); method: Vibrating tube method
Mole fraction of butane	Temperature, K	Mass density, kg/m3	uncertainty
0.25	240	621.33	0.26
0.25	260	600.04	0.26
0.25	280	577.61	0.27
0.25	300	553.87	0.27
0.25	320	527.89	0.28
0.25	340	499.35	0.29
0.25	380	424.73	0.27
0.5	240	625.96	0.26
0.5	260	604.76	0.26
0.5	280	582.79	0.27
0.5	300	559.44	0.27
0.5	320	534.14	0.28
0.5	340	506.18	0.29
0.5	360	474.18	0.28
0.5	380	435.21	0.27
0.75	240	630.89	0.26
0.75	260	609.84	0.26
0.75	280	588.07	0.27
0.75	300	564.78	0.27
0.75	320	540.17	0.28
0.75	340	512.91	0.28
0.75	360	481.73	0.28
0.75	380	445.14	0.27

System: propane + 2-methylpropane + butane; phases: Liquid, Gas
Property: Vapor or sublimation pressure, kPa (Liquid); method: CCELL:UFactor:16
Mole fraction of propane	Mole fraction of butane	Temperature, K	Vapor or sublimation pressure, kPa	uncertainty
0	0.25	240	59.3	20
0	0.25	260	100.9	5.3
0	0.25	280	190.7	9.7
0	0.25	300	360.6	18.1
0	0.25	320	602.2	30.1
0	0.25	340	963.7	48
0	0.25	380	2136.4	106.2
0	0.5	240	32.9	1.9
0	0.5	260	78.4	4.1
0	0.5	280	166	8.5
0	0.5	300	313.6	15.8
0	0.5	320	543.5	27.2
0	0.5	340	880.6	43.9
0	0.5	360	1351	67.2
0	0.5	380	1985.6	98.7
0	0.75	240	26.1	1.5
0	0.75	260	68.6	3.6
0	0.75	280	148.9	7.6
0	0.75	300	284.8	14.4
0	0.75	320	498.8	25
0	0.75	340	814.9	40.6
0	0.75	360	1258.4	62.6
0	0.75	380	1955.8	97.2
0.2	0.6	240	52.2	2.8
0.2	0.6	260	116.3	6
0.2	0.6	280	231.3	11.7
0.2	0.6	300	415.6	20.9
0.2	0.6	320	694.1	34.7
0.2	0.6	340	1090	54.3
0.2	0.6	360	1631.7	81.1
0.2	0.6	380	2349.7	116.7
0.25	0	240	67.2	3.6
0.25	0	260	147	7.5
0.25	0	280	281.4	14.2
0.25	0	300	518.6	26
0.25	0	320	862.1	43
0.25	0	340	1338.8	66.6
0.25	0	360	1968.9	97.9
0.25	0	380	2798.3	139
0.25	0.75	260	120.8	6.2
0.25	0.75	280	238.2	12.1
0.25	0.75	300	425	21.3
0.25	0.75	320	706.9	35.3
0.25	0.75	340	1107.1	55.1
0.25	0.75	360	1651.1	82.1
0.25	0.75	380	2372.7	117.9
0.34	0.33	240	71	3.8
0.34	0.33	260	153.6	7.9
0.34	0.33	280	299.5	15.1
0.34	0.33	300	527.2	26.4
0.34	0.33	320	864.4	43.1
0.34	0.33	340	1336.9	66.5
0.34	0.33	360	1976.4	98.2
0.34	0.33	380	2810.3	139.6
0.499	0	250	136	7
0.499	0	280	383.3	19.2
0.499	0	300	665.2	33.2
0.499	0	320	1077.7	53.7
0.499	0	340	1641.5	81.6
0.499	0	360	2403	119.4
0.499	0	380	3362.9	167
0.5	0.5	240	84.5	4.4
0.5	0.5	260	181.8	9.3
0.5	0.5	280	347	17.5
0.5	0.5	300	604	30.2
0.5	0.5	320	978.3	48.7
0.5	0.5	340	1494.8	74.4
0.5	0.5	380	3100.2	153.9
0.6	0.2	240	101.3	5.3
0.6	0.2	260	214.9	10.9
0.6	0.2	280	406.8	20.4
0.6	0.2	300	703.1	35.1
0.6	0.2	320	1131.6	56.3
0.6	0.2	340	1726.2	85.8
0.6	0.2	360	2518.4	125.1
0.6	0.2	380	3545.7	176
0.75	0	240	119.8	6.2
0.75	0	260	250	12.6
0.75	0	280	473.2	23.7
0.75	0	300	820.8	40.9
0.75	0	320	1322.1	65.8
0.75	0	340	2011.3	100
0.75	0	360	2910.6	144.5
0.75	0.25	240	115.5	6
0.75	0.25	260	245	12.4
0.75	0.25	280	461.9	23.1
0.75	0.25	300	793.1	39.6
0.75	0.25	320	1270.5	63.2
0.75	0.25	340	1928.1	95.8
0.75	0.25	360	2802.7	139.2

System: propane + 2-methylpropane + butane; phases: Liquid
Fixed: Mole fraction of 2-methylpropane = 0.2
Property: Mass density, kg/m3 (Liquid); method: Vibrating tube method
Mole fraction of propane	Temperature, K	Pressure, kPa	Mass density, kg/m3	uncertainty
0.2	240	497.3	621.89	0.3
0.2	240	1005.8	622.43	0.31
0.2	240	1509.1	622.96	0.31
0.2	240	1983.6	623.45	0.31
0.2	240	2511.9	623.99	0.32
0.2	240	3023.1	624.53	0.32
0.2	240	3535.2	625.05	0.33
0.2	240	4018.7	625.56	0.33
0.2	240	4526.1	626.06	0.33
0.2	240	5013.9	626.56	0.34
0.2	240	5507	627.05	0.34
0.2	240	6030.7	627.57	0.35
0.2	240	6523.4	628.06	0.35
0.2	240	6983.2	628.52	0.36
0.2	260	507.6	600.5	0.3
0.2	260	1010.6	601.15	0.3
0.2	260	1503.4	601.78	0.31
0.2	260	1994.4	602.41	0.31
0.2	260	2502.2	603.04	0.32
0.2	260	3020.3	603.68	0.32
0.2	260	3511.7	604.29	0.33
0.2	260	4021.5	604.9	0.34
0.2	260	4516.2	605.5	0.34
0.2	260	5034.2	606.11	0.35
0.2	260	5515.7	606.69	0.35
0.2	260	6021.4	607.28	0.35
0.2	260	6514.4	607.85	0.36
0.2	260	7034.3	608.44	0.36
0.2	280	512.8	578.05	0.3
0.2	280	992.8	578.83	0.31
0.2	280	1502.9	579.64	0.31
0.2	280	1988.8	580.4	0.32
0.2	280	2481	581.17	0.32
0.2	280	2997.9	581.96	0.33
0.2	280	3498.1	582.73	0.33
0.2	280	3980.5	583.46	0.34
0.2	280	4514.7	584.25	0.34
0.2	280	5003.6	584.97	0.35
0.2	280	5517.8	585.71	0.35
0.2	280	6002.3	586.41	0.36
0.2	280	6511.5	587.13	0.36
0.2	280	7006.6	587.83	0.37
0.2	300	1009.3	554.9	0.31
0.2	300	1506.1	555.86	0.31
0.2	300	2002.8	556.96	0.32
0.2	300	2507.5	557.84	0.32
0.2	300	2991.7	558.81	0.33
0.2	300	3512.7	559.79	0.33
0.2	300	4020	560.84	0.34
0.2	300	4518.8	561.78	0.34
0.2	300	5008.6	562.58	0.35
0.2	300	5509	563.5	0.36
0.2	300	5993	564.33	0.37
0.2	300	6489.7	565.31	0.37
0.2	300	7057.6	566.21	0.38
0.2	320	1003	528.68	0.31
0.2	320	1500.6	530.04	0.32
0.2	320	1997.7	531.37	0.32
0.2	320	2505.3	532.69	0.33
0.2	320	2991.7	533.93	0.33
0.2	320	3494.8	535.18	0.34
0.2	320	3993.8	536.4	0.35
0.2	320	4515.1	537.65	0.35
0.2	320	5024.5	538.84	0.36
0.2	320	5529	539.99	0.36
0.2	320	6025.4	541.11	0.37
0.2	320	6499.8	542.16	0.38
0.2	320	7009	543.27	0.38
0.2	340	1509.2	500.72	0.32
0.2	340	2003.1	502.58	0.33
0.2	340	2500.3	504.41	0.33
0.2	340	2977.2	506.1	0.34
0.2	340	3493.5	507.88	0.34
0.2	340	3997.4	509.56	0.35
0.2	340	4511.6	511.21	0.36
0.2	340	5000.3	512.74	0.36
0.2	340	5513.6	514.31	0.37
0.2	340	6005.9	515.77	0.37
0.2	340	6507.2	517.22	0.38
0.2	340	7062.3	518.79	0.39
0.2	360	2002.9	467.72	0.31
0.2	360	2503.6	470.65	0.32
0.2	360	2995.9	473.35	0.32
0.2	360	3505.4	475.99	0.33
0.2	360	3993.4	478.4	0.34
0.2	360	4503.7	480.8	0.35
0.2	360	5012	483.08	0.36
0.2	360	5490.1	485.13	0.37
0.2	360	6014.2	487.29	0.38
0.2	360	6497.8	489.21	0.38
0.2	360	7000.9	491.15	0.39
0.2	380	2511.3	425	0.3
0.2	380	3018	430.51	0.3
0.2	380	3514.2	435.32	0.31
0.2	380	4019.3	439.62	0.33
0.2	380	4532.8	443.64	0.33
0.2	380	4978.4	446.88	0.34
0.2	380	5490.2	450.28	0.35
0.2	380	5967.1	453.33	0.35
0.2	380	6474.7	456.31	0.36
0.2	380	7037.5	459.56	0.37
0.6	240	154.1	596.18	0.3
0.6	240	482.9	596.6	0.3
0.6	240	970	597.1	0.3
0.6	240	1503.3	597.73	0.31
0.6	240	1989.6	598.34	0.31
0.6	240	2469.6	598.85	0.32
0.6	240	2985.5	599.5	0.32
0.6	240	3519.7	600.08	0.33
0.6	240	3982.4	600.64	0.33
0.6	240	4509.3	601.26	0.34
0.6	240	4979.3	601.73	0.34
0.6	240	5423.3	602.28	0.34
0.6	240	5962.3	602.86	0.35
0.6	240	6514.7	603.43	0.36
0.6	240	7061.2	604.03	0.36
0.6	260	500	573.28	0.3
0.6	260	1019.2	574.05	0.31
0.6	260	1477.1	574.72	0.31
0.6	260	1985	575.46	0.32
0.6	260	2474.4	576.16	0.32
0.6	260	2999.4	576.91	0.33
0.6	260	3469.7	577.57	0.33
0.6	260	4028.9	578.35	0.34
0.6	260	4490.3	578.98	0.34
0.6	260	4938	579.6	0.35
0.6	260	5480.6	580.32	0.35
0.6	260	5994.9	581.01	0.36
0.6	260	6455	581.62	0.36
0.6	260	7087.8	582.45	0.37
0.6	280	509.3	548.79	0.3
0.6	280	1001.1	549.74	0.31
0.6	280	1515.2	550.71	0.31
0.6	280	2021	551.65	0.32
0.6	280	2491.3	552.51	0.32
0.6	280	3011.2	553.45	0.33
0.6	280	3519.6	554.35	0.33
0.6	280	4018.6	555.22	0.34
0.6	280	4516.4	556.08	0.35
0.6	280	5000.1	556.91	0.35
0.6	280	5474.9	557.71	0.36
0.6	280	5989.6	558.56	0.36
0.6	280	6432.5	559.29	0.37
0.6	280	7065.6	560.33	0.37
0.6	300	1004.8	522.92	0.32
0.6	300	1509.3	524.21	0.32
0.6	300	1992.9	525.42	0.33
0.6	300	2511.3	526.69	0.33
0.6	300	3001.8	527.86	0.34
0.6	300	3513.5	529.07	0.34
0.6	300	4012.7	530.21	0.35
0.6	300	4509.3	531.34	0.35
0.6	300	5017.8	532.46	0.36
0.6	300	5491.9	533.49	0.37
0.6	300	6014	534.61	0.37
0.6	300	6512.1	535.66	0.38
0.6	300	6988.1	536.64	0.38
0.6	320	1521.7	494.11	0.32
0.6	320	1998.1	495.84	0.33
0.6	320	2509.3	497.61	0.33
0.6	320	3005.8	499.28	0.34
0.6	320	3509.9	500.92	0.35
0.6	320	4019.6	502.54	0.35
0.6	320	4502.1	504.02	0.36
0.6	320	4978.4	505.45	0.36
0.6	320	5509.4	506.99	0.37
0.6	320	6017.5	508.43	0.38
0.6	320	6499.2	509.75	0.39
0.6	320	6980.1	511.05	0.39
0.6	340	1972.5	459.9	0.31
0.6	340	2506.6	462.92	0.32
0.6	340	2985.2	465.45	0.33
0.6	340	3467.9	467.89	0.33
0.6	340	4004.6	470.46	0.34
0.6	340	4516.4	472.78	0.35
0.6	340	5025.7	475	0.35
0.6	340	5508.8	477.01	0.36
0.6	340	6023.3	479.09	0.37
0.6	340	6487.2	480.88	0.38
0.6	340	7017.5	482.83	0.39
0.6	360	2975.8	418.89	0.32
0.6	360	3460.8	423.85	0.32
0.6	360	3925.9	428.1	0.34
0.6	360	4459.8	432.5	0.34
0.6	360	4933.6	436.08	0.34
0.6	360	6007.7	443.33	0.36
0.6	360	6421.8	445.88	0.36
0.6	360	6924.7	448.88	0.37
0.6	380	4020.1	363.44	0.3
0.6	380	4508.9	375.46	0.37
0.6	380	5010	384.67	0.35
0.6	380	5518.3	392.25	0.33
0.6	380	6008.8	398.44	0.34
0.6	380	6484.9	403.74	0.34
0.6	380	7015.4	409.01	0.35

System: propane + 2-methylpropane + butane; phases: Liquid
Fixed: Mole fraction of propane = 0.34
Fixed: Mole fraction of 2-methylpropane = 0.33
Property: Mass density, kg/m3 (Liquid); method: Vibrating tube method
Temperature, K	Pressure, kPa	Mass density, kg/m3	uncertainty
240	488.4	610.05	0.31
240	1020.6	610.66	0.31
240	1537.4	611.25	0.31
240	2001.4	611.77	0.32
240	2511.3	612.32	0.32
240	3017.6	612.85	0.33
240	3481.2	613.35	0.33
240	3949.1	613.87	0.33
240	4485.4	614.44	0.34
240	4961.7	614.94	0.34
240	5555.2	615.56	0.35
240	5996.3	616.03	0.35
240	6492.8	616.7	0.36
240	7075.5	617.31	0.36
260	497.8	588.25	0.3
260	1002.5	588.93	0.31
260	1537.5	589.66	0.31
260	1999.3	590.3	0.32
260	2526.5	591.01	0.32
260	3021.3	591.67	0.32
260	3484.6	592.27	0.33
260	3996	592.94	0.33
260	4524	593.61	0.34
260	4983.9	594.21	0.34
260	5496.6	594.86	0.35
260	5976.9	595.44	0.35
260	6464.9	596.04	0.36
260	7019.4	596.73	0.36
280	504.1	564.91	0.31
280	1014.3	565.8	0.31
280	1513.6	566.66	0.32
280	1990.7	567.47	0.32
280	2615.2	568.51	0.33
280	2986.1	569.13	0.33
280	3509.8	569.99	0.34
280	4003.6	570.79	0.34
280	4481	571.55	0.35
280	4982.6	572.35	0.35
280	5517.7	573.18	0.36
280	5967.2	573.88	0.36
280	6478.7	574.66	0.37
280	6993.6	575.44	0.37
300	538.4	539.75	0.31
300	1019.8	540.85	0.31
300	1504.5	541.95	0.32
300	1952.5	542.95	0.32
300	2443.3	544.02	0.33
300	3023.2	545.27	0.33
300	3482.4	546.23	0.34
300	3950.3	547.17	0.34
300	4420.2	548.13	0.35
300	4947.7	549.19	0.35
300	5489.4	550.25	0.36
300	5966.4	551.19	0.36
300	6514	552.24	0.37
300	7076.5	553.3	0.38
320	1007.9	512.84	0.31
320	1502.5	514.39	0.32
320	1972.6	515.82	0.32
320	2441.7	517.21	0.33
320	2973.2	518.74	0.33
320	3499.4	520.22	0.34
320	3970.2	521.51	0.35
320	4463	522.83	0.36
320	4926.5	524.04	0.36
320	5435.5	525.35	0.37
320	5939.9	526.61	0.38
320	6531.1	528.06	0.38
320	7000.7	529.19	0.39
340	1481.6	481.96	0.32
340	2007.6	484.38	0.32
340	2508.9	486.57	0.33
340	3000.1	488.64	0.34
340	3432.2	490.38	0.34
340	3985.1	492.53	0.35
340	4489.6	494.42	0.36
340	4991.2	496.23	0.37
340	5450.2	497.86	0.37
340	5950.2	499.56	0.38
340	6464.2	501.25	0.39
340	7080.6	503.22	0.4
360	2513.4	448.73	0.31
360	3014.4	452.3	0.32
360	3509	455.54	0.32
360	4025.5	458.72	0.33
360	4514.2	461.53	0.34
360	5013.2	464.24	0.35
360	5513.8	466.82	0.35
360	6015.5	469.27	0.36
360	6510.1	471.55	0.37
360	6995.7	473.74	0.38
380	3042.5	398.57	0.29
380	3551.6	406.51	0.3
380	4024.3	412.54	0.31
380	4498.4	417.88	0.32
380	5029.3	423.11	0.32
380	5505.9	427.32	0.33
380	6025.5	431.52	0.34
380	6507.8	435.17	0.35
380	7007.4	438.68	0.36

System: propane + 2-methylpropane + butane; phases: Liquid, Gas
Property: Mass density, kg/m3 (Liquid); method: Vibrating tube method
Mole fraction of propane	Mole fraction of butane	Temperature, K	Mass density, kg/m3	uncertainty
0	0.25	240	621.33	0.26
0	0.25	260	600.04	0.26
0	0.25	280	577.61	0.27
0	0.25	300	553.87	0.27
0	0.25	320	527.89	0.28
0	0.25	340	499.35	0.29
0	0.25	380	424.73	0.27
0	0.5	240	625.96	0.26
0	0.5	260	604.76	0.26
0	0.5	280	582.79	0.27
0	0.5	300	559.44	0.27
0	0.5	320	534.14	0.28
0	0.5	340	506.18	0.29
0	0.5	360	474.18	0.28
0	0.5	380	435.21	0.27
0	0.75	240	630.89	0.26
0	0.75	260	609.84	0.26
0	0.75	280	588.07	0.27
0	0.75	300	564.78	0.27
0	0.75	320	540.17	0.28
0	0.75	340	512.91	0.28
0	0.75	360	481.73	0.28
0	0.75	380	445.14	0.27
0.2	0.6	240	621.44	0.26
0.2	0.6	260	599.87	0.26
0.2	0.6	280	577.64	0.27
0.2	0.6	300	553.78	0.27
0.2	0.6	320	527.78	0.28
0.2	0.6	340	499.07	0.29
0.2	0.6	360	465.41	0.28
0.2	0.6	380	423.25	0.27
0.25	0	240	607.81	0.26
0.25	0	260	585.98	0.27
0.25	0	280	562.49	0.27
0.25	0	300	537.31	0.28
0.25	0	320	509.12	0.28
0.25	0	340	478.17	0.28
0.25	0	360	440.78	0.27
0.25	0	380	390.71	0.27
0.25	0.75	260	600.21	0.26
0.25	0.75	280	577.86	0.27
0.25	0.75	300	554.07	0.27
0.25	0.75	320	528.42	0.28
0.25	0.75	340	499.52	0.29
0.25	0.75	360	466.36	0.28
0.25	0.75	380	424.79	0.27
0.34	0.33	240	609.76	0.26
0.34	0.33	260	587.73	0.27
0.34	0.33	280	564.58	0.27
0.34	0.33	300	539.77	0.28
0.34	0.33	320	512.41	0.28
0.34	0.33	340	481.32	0.28
0.34	0.33	360	444.57	0.28
0.34	0.33	380	394.93	0.26
0.499	0	250	584.44	0.27
0.499	0	280	549.15	0.28
0.499	0	300	522.96	0.28
0.499	0	320	491.75	0.29
0.499	0	340	457.03	0.28
0.499	0	360	416.83	0.27
0.499	0	380	346.9	0.27
0.5	0.5	240	606.37	0.26
0.5	0.5	260	584.58	0.27
0.5	0.5	280	560.91	0.27
0.5	0.5	300	535.4	0.28
0.5	0.5	320	507.52	0.29
0.5	0.5	340	475.99	0.28
0.5	0.5	380	387.07	0.27
0.6	0.2	240	596.11	0.26
0.6	0.2	260	572.86	0.27
0.6	0.2	280	548.59	0.28
0.6	0.2	300	522.16	0.28
0.6	0.2	320	492.73	0.29
0.6	0.2	340	458.47	0.28
0.6	0.2	360	414.22	0.27
0.6	0.2	380	351.78	0.26
0.75	0	240	583.82	0.27
0.75	0	260	560.96	0.27
0.75	0	280	535.32	0.28
0.75	0	300	507.33	0.29
0.75	0	320	475.51	0.28
0.75	0	340	436.07	0.27
0.75	0	360	388.35	0.26
0.75	0.25	240	589.36	0.27
0.75	0.25	260	566.05	0.27
0.75	0.25	280	541.14	0.28
0.75	0.25	300	514.2	0.28
0.75	0.25	320	483.71	0.28
0.75	0.25	340	447.59	0.28
0.75	0.25	360	398.44	0.26
