Measured thermophysical data. High-Pressure Vapor-Liquid Equilbria of Some Carbon Dioxide + Organic Binary Systems
Source: J. Chem. Eng. Data, 2005, 10.1021/je0498560
Compound 1: propan-2-ol, C3H8O, InChI=1S/C3H8O/c1-3(2)4/h3-4H,1-2H3
Compound 2: acetone, C3H6O, InChI=1S/C3H6O/c1-3(2)4/h1-2H3
Compound 3: acetonitrile, C2H3N, InChI=1S/C2H3N/c1-2-3/h1H3
Compound 4: dichloromethane, CH2Cl2, InChI=1S/CH2Cl2/c2-1-3/h1H2
Compound 5: nitromethane, CH3NO2, InChI=1S/CH3NO2/c1-2(3)4/h1H3
Compound 6: N-methylpyrrolidone, C5H9NO, InChI=1S/C5H9NO/c1-6-4-2-3-5(6)7/h2-4H2,1H3
Compound 7: tetrahydrofuran, C4H8O, InChI=1S/C4H8O/c1-2-4-5-3-1/h1-4H2
Compound 8: toluene, C7H8, InChI=1S/C7H8/c1-7-5-3-2-4-6-7/h2-6H,1H3
Compound 9: 2,2,2-trifluoroethanol, C2H3F3O, InChI=1S/C2H3F3O/c3-2(4,5)1-6/h6H,1H2
Compound 10: perfluorohexane, C6F14, InChI=1S/C6F14/c7-1(8,3(11,12)5(15,16)17)2(9,10)4(13,14)6(18,19)20
Compound 11: carbon dioxide, CO2, InChI=1S/CO2/c2-1-3

System: propan-2-ol + carbon dioxide; phases: Liquid, Gas
Fixed: Temperature, K = 313
Property: Vapor or sublimation pressure, kPa (Liquid); method: CCELL:UFactor:4
Mole fraction of carbon dioxide	Vapor or sublimation pressure, kPa	uncertainty
0.018	720	30
0.065	1650	40
0.133	2660	60
0.21	3690	90
0.3	4720	110
0.401	5670	130
0.51	6260	150
0.639	6940	160
0.725	7300	170
0.788	7580	180

System: propan-2-ol + carbon dioxide; phases: Liquid, Gas
Fixed: Temperature, K = 313
Property: Molar volume, m3/mol (Liquid); method: PYCNOM:UFactor:32
Mole fraction of carbon dioxide	Molar volume, m3/mol	uncertainty
0.018	7.97e-05	9e-07
0.065	7.88e-05	9e-07
0.133	7.62e-05	9e-07
0.21	7.45e-05	8e-07
0.3	7.17e-05	8e-07
0.401	6.85e-05	8e-07
0.51	6.4e-05	7e-07
0.639	6.06e-05	7e-07
0.725	5.99e-05	7e-07
0.788	6.01e-05	7e-07

System: acetonitrile + carbon dioxide; phases: Liquid, Gas
Fixed: Temperature, K = 313
Property: Vapor or sublimation pressure, kPa (Liquid); method: CCELL:UFactor:4
Mole fraction of carbon dioxide	Vapor or sublimation pressure, kPa	uncertainty
0.044	210	20
0.073	460	20
0.093	620	30
0.168	1310	40
0.241	2010	50
0.312	2700	70
0.381	3380	80
0.449	4080	100
0.523	4770	110
0.598	5430	130
0.688	6150	140
0.77	6760	160
0.834	7250	170

System: acetonitrile + carbon dioxide; phases: Liquid, Gas
Fixed: Temperature, K = 313
Property: Molar volume, m3/mol (Liquid); method: PYCNOM:UFactor:64
Mole fraction of carbon dioxide	Molar volume, m3/mol	uncertainty
0.044	5.19e-05	1.2e-06
0.073	5.25e-05	1.2e-06
0.093	5.33e-05	1.2e-06
0.168	5.24e-05	1.2e-06
0.241	5.11e-05	1.2e-06
0.312	5.1e-05	1.1e-06
0.381	5.18e-05	1.2e-06
0.449	5.07e-05	1.1e-06
0.523	4.98e-05	1.1e-06
0.598	4.96e-05	1.1e-06
0.688	4.9e-05	1.1e-06
0.77	4.87e-05	1.1e-06
0.834	5.08e-05	1.2e-06

System: dichloromethane + carbon dioxide; phases: Liquid, Gas
Fixed: Temperature, K = 313
Property: Vapor or sublimation pressure, kPa (Liquid); method: CCELL:UFactor:4
Mole fraction of carbon dioxide	Vapor or sublimation pressure, kPa	uncertainty
0.044	550	20
0.114	1240	40
0.188	1920	50
0.269	2630	60
0.444	4010	90
0.533	4660	110
0.644	5340	130
0.738	6020	140
0.83	6680	160
0.859	6950	160

System: dichloromethane + carbon dioxide; phases: Liquid, Gas
Fixed: Temperature, K = 313
Property: Molar volume, m3/mol (Liquid); method: PYCNOM:UFactor:64
Mole fraction of carbon dioxide	Molar volume, m3/mol	uncertainty
0.044	6.51e-05	1.5e-06
0.114	6.32e-05	1.5e-06
0.188	6.24e-05	1.5e-06
0.269	6.13e-05	1.4e-06
0.444	5.87e-05	1.4e-06
0.533	5.74e-05	1.3e-06
0.644	5.64e-05	1.3e-06
0.738	5.32e-05	1.2e-06
0.83	5.42e-05	1.2e-06
0.859	5.82e-05	1.3e-06

System: nitromethane + carbon dioxide; phases: Liquid, Gas
Property: Vapor or sublimation pressure, kPa (Liquid); method: CCELL:UFactor:4
Temperature, K	Mole fraction of carbon dioxide	Vapor or sublimation pressure, kPa	uncertainty
298	0.12	890	30
298	0.238	1850	50
298	0.346	2690	70
298	0.457	3520	80
298	0.552	4140	100
298	0.678	4830	110
298	0.747	5140	120
298	0.81	5430	130
298	0.855	5570	130
298	0.876	5660	130
313	0.048	500	20
313	0.119	1240	30
313	0.183	1920	30
313	0.254	2680	40
313	0.32	3320	40
313	0.385	3990	50
313	0.479	4900	60
313	0.546	5520	70
313	0.627	6160	90
313	0.727	6790	100
313	0.791	7170	110

System: nitromethane + carbon dioxide; phases: Liquid, Gas
Property: Molar volume, m3/mol (Liquid); method: PYCNOM:UFactor:64
Temperature, K	Mole fraction of carbon dioxide	Molar volume, m3/mol	uncertainty
298	0.12	4.93e-05	1e-06
298	0.238	4.83e-05	1e-06
298	0.346	4.76e-05	1e-06
298	0.457	4.74e-05	1e-06
298	0.552	4.74e-05	1e-06
298	0.678	4.71e-05	1e-06
298	0.747	4.77e-05	1e-06
298	0.81	4.78e-05	1e-06
298	0.855	4.87e-05	1e-06
298	0.876	4.91e-05	1e-06
313	0.048	5.88e-05	1.4e-06
313	0.119	5.71e-05	1.3e-06
313	0.183	5.56e-05	1.3e-06
313	0.254	5.51e-05	1.3e-06
313	0.32	5.45e-05	1.3e-06
313	0.385	5.37e-05	1.2e-06
313	0.479	5.32e-05	1.2e-06
313	0.546	5.23e-05	1.2e-06
313	0.627	5.09e-05	1.2e-06
313	0.727	4.99e-05	1.1e-06
313	0.791	5.08e-05	1.2e-06

System: carbon dioxide + N-methylpyrrolidone; phases: Liquid, Gas
Fixed: Temperature, K = 313
Property: Vapor or sublimation pressure, kPa (Liquid); method: CCELL:UFactor:4
Mole fraction of carbon dioxide	Vapor or sublimation pressure, kPa	uncertainty
0.104	720	30
0.19	1540	40
0.242	2060	50
0.311	2810	70
0.374	3520	80
0.437	4190	100
0.499	4890	120
0.565	5600	130
0.629	6250	150
0.725	6940	160
0.816	7780	180

System: carbon dioxide + N-methylpyrrolidone; phases: Liquid, Gas
Fixed: Temperature, K = 313
Property: Molar volume, m3/mol (Liquid); method: PYCNOM:UFactor:64
Mole fraction of carbon dioxide	Molar volume, m3/mol	uncertainty
0.104	8.91e-05	2.1e-06
0.19	8.48e-05	2e-06
0.242	8.26e-05	1.9e-06
0.311	7.9e-05	1.8e-06
0.374	7.57e-05	1.8e-06
0.437	7.32e-05	1.7e-06
0.499	6.98e-05	1.6e-06
0.565	6.66e-05	1.5e-06
0.629	6.23e-05	1.4e-06
0.725	5.67e-05	1.3e-06
0.816	5.34e-05	1.2e-06

System: tetrahydrofuran + carbon dioxide; phases: Liquid, Gas
Property: Vapor or sublimation pressure, kPa (Liquid); method: CCELL:UFactor:4
Temperature, K	Mole fraction of carbon dioxide	Vapor or sublimation pressure, kPa	uncertainty
298	0.132	660	20
298	0.228	1170	30
298	0.333	1760	30
298	0.451	2500	40
298	0.518	2940	50
298	0.624	3610	60
298	0.736	4280	70
298	0.83	4920	70
298	0.899	5380	80
313	0.098	710	20
313	0.313	2320	40
313	0.398	2970	40
313	0.489	3680	50
313	0.576	4420	60
313	0.655	5070	70
313	0.733	5750	80
313	0.832	6520	90
313	0.89	7140	100
333	0.165	1600	30
333	0.26	2500	40
333	0.404	4010	50
333	0.539	5500	70
333	0.696	6990	90
333	0.808	8470	110
333	0.85	9010	120
333	0.893	9540	130

System: tetrahydrofuran + carbon dioxide; phases: Liquid, Gas
Property: Molar volume, m3/mol (Liquid); method: PYCNOM:UFactor:64
Temperature, K	Mole fraction of carbon dioxide	Molar volume, m3/mol	uncertainty
298	0.132	7.08e-05	1.4e-06
298	0.228	6.55e-05	1.3e-06
298	0.333	6.46e-05	1.3e-06
298	0.451	6.2e-05	1.2e-06
298	0.518	6.08e-05	1.2e-06
298	0.624	5.86e-05	1.2e-06
298	0.736	5.64e-05	1.1e-06
298	0.83	5.49e-05	1.1e-06
298	0.899	5.43e-05	1e-06
313	0.098	7.75e-05	1.8e-06
313	0.313	7.09e-05	1.6e-06
313	0.398	6.82e-05	1.6e-06
313	0.489	6.53e-05	1.5e-06
313	0.576	6.29e-05	1.4e-06
313	0.655	6.23e-05	1.4e-06
313	0.733	6.02e-05	1.4e-06
313	0.832	5.72e-05	1.3e-06
313	0.89	6.02e-05	1.3e-06
333	0.165	7.45e-05	2e-06
333	0.26	7.34e-05	2e-06
333	0.404	6.87e-05	1.9e-06
333	0.539	6.6e-05	1.8e-06
333	0.696	5.84e-05	1.6e-06
333	0.808	6.04e-05	1.6e-06
333	0.85	6.29e-05	1.7e-06
333	0.893	7.05e-05	1.9e-06

System: 2,2,2-trifluoroethanol + carbon dioxide; phases: Liquid, Gas
Property: Vapor or sublimation pressure, kPa (Liquid); method: CCELL:UFactor:4
Temperature, K	Mole fraction of carbon dioxide	Vapor or sublimation pressure, kPa	uncertainty
298	0.132	1130	30
298	0.225	2050	50
298	0.358	3120	70
298	0.48	4060	100
298	0.599	4740	110
298	0.704	5180	120
298	0.749	5340	130
298	0.795	5510	130
298	0.842	5660	130
298	0.888	5790	140
298	0.927	5950	140
313	0.16	1820	30
313	0.23	2590	40
313	0.337	3770	50
313	0.424	4660	60
313	0.517	5500	80
313	0.628	6280	90
313	0.715	6730	110
313	0.773	7090	110
313	0.849	7500	120
313	0.901	7750	120

System: 2,2,2-trifluoroethanol + carbon dioxide; phases: Liquid, Gas
Property: Molar volume, m3/mol (Liquid); method: PYCNOM:UFactor:64
Temperature, K	Mole fraction of carbon dioxide	Molar volume, m3/mol	uncertainty
298	0.132	6.39e-05	1.4e-06
298	0.225	6.3e-05	1.4e-06
298	0.358	5.95e-05	1.3e-06
298	0.48	5.81e-05	1.2e-06
298	0.599	5.71e-05	1.2e-06
298	0.704	5.51e-05	1.1e-06
298	0.749	5.51e-05	1.1e-06
298	0.795	5.43e-05	1.1e-06
298	0.842	5.49e-05	1.1e-06
298	0.888	5.48e-05	1.1e-06
298	0.927	5.5e-05	1.1e-06
313	0.16	6.1e-05	1.5e-06
313	0.23	6.13e-05	1.5e-06
313	0.337	6.06e-05	1.4e-06
313	0.424	5.94e-05	1.4e-06
313	0.517	5.84e-05	1.4e-06
313	0.628	5.51e-05	1.3e-06
313	0.715	5.3e-05	1.2e-06
313	0.773	5.34e-05	1.2e-06
313	0.849	5.65e-05	1.3e-06
313	0.901	5.98e-05	1.3e-06

System: carbon dioxide + perfluorohexane; phases: Liquid, Gas
Fixed: Temperature, K = 313
Property: Vapor or sublimation pressure, kPa (Liquid); method: CCELL:UFactor:32
Mole fraction of carbon dioxide	Vapor or sublimation pressure, kPa	uncertainty
0.146	690	70
0.163	1210	120
0.262	1720	170
0.27	1450	150
0.339	2250	230
0.424	2770	280
0.474	3280	330
0.547	3790	380
0.615	4320	440
0.665	4860	490
0.721	5330	540
0.765	5590	570
0.776	5860	590
0.811	6200	630
0.836	6420	650

System: carbon dioxide + perfluorohexane; phases: Liquid, Gas
Fixed: Temperature, K = 313
Property: Molar volume, m3/mol (Liquid); method: PYCNOM:UFactor:64
Mole fraction of carbon dioxide	Molar volume, m3/mol	uncertainty
0.146	0.0001867	4.5e-06
0.163	0.000187	4.5e-06
0.262	0.0001742	4.2e-06
0.27	0.0001732	4.1e-06
0.339	0.0001655	3.9e-06
0.424	0.0001511	3.6e-06
0.474	0.0001448	3.4e-06
0.547	0.0001324	3.1e-06
0.615	0.0001235	2.9e-06
0.665	0.0001165	2.7e-06
0.721	0.0001062	2.5e-06
0.765	9.7e-05	2.3e-06
0.776	9.49e-05	2.2e-06
0.811	9.03e-05	2.1e-06
0.836	9.17e-05	2.1e-06

System: acetone + carbon dioxide; phases: Liquid, Gas
Fixed: Temperature, K = 323
Property: Vapor or sublimation pressure, kPa (Liquid); method: CCELL:UFactor:4
Mole fraction of carbon dioxide	Vapor or sublimation pressure, kPa	uncertainty
0.056	490	20
0.14	1110	30
0.251	2000	50
0.335	2740	70
0.432	3630	90
0.53	4590	110
0.603	5360	130
0.648	5810	140
0.695	6300	150
0.73	6520	150
0.76	6780	160
0.787	7110	170

System: acetone + carbon dioxide; phases: Liquid, Gas
Fixed: Temperature, K = 323
Property: Molar volume, m3/mol (Liquid); method: PYCNOM:UFactor:64
Mole fraction of carbon dioxide	Molar volume, m3/mol	uncertainty
0.056	7.37e-05	1.8e-06
0.14	7.18e-05	1.8e-06
0.251	6.75e-05	1.7e-06
0.335	6.67e-05	1.7e-06
0.432	6.42e-05	1.6e-06
0.53	6.23e-05	1.5e-06
0.603	6.1e-05	1.5e-06
0.648	6.01e-05	1.5e-06
0.695	5.71e-05	1.4e-06
0.73	5.66e-05	1.4e-06
0.76	5.74e-05	1.4e-06
0.787	5.81e-05	1.4e-06

System: toluene + carbon dioxide; phases: Liquid, Gas
Fixed: Temperature, K = 323
Property: Vapor or sublimation pressure, kPa (Liquid); method: CCELL:UFactor:8
Mole fraction of carbon dioxide	Vapor or sublimation pressure, kPa	uncertainty
0.091	1200	40
0.175	2120	70
0.26	3150	100
0.335	4010	130
0.408	4810	150
0.48	5540	180
0.524	5960	190
0.583	6310	200
0.644	6720	210
0.715	7380	240
0.764	7800	250
0.821	8210	260
0.865	8500	270
0.883	8660	280

System: toluene + carbon dioxide; phases: Liquid, Gas
Fixed: Temperature, K = 323
Property: Molar volume, m3/mol (Liquid); method: PYCNOM:UFactor:64
Mole fraction of carbon dioxide	Molar volume, m3/mol	uncertainty
0.091	0.0001014	2.5e-06
0.175	9.72e-05	2.4e-06
0.26	9.21e-05	2.3e-06
0.335	8.76e-05	2.2e-06
0.408	8.37e-05	2.1e-06
0.48	8.02e-05	2e-06
0.524	7.82e-05	1.9e-06
0.583	7.22e-05	1.8e-06
0.644	6.72e-05	1.7e-06
0.715	6.46e-05	1.6e-06
0.764	6.32e-05	1.6e-06
0.821	6.23e-05	1.5e-06
0.865	6.26e-05	1.6e-06
0.883	6.35e-05	1.6e-06
