Measured thermophysical data. Effect of Hydrotropes on the Solubility and Mass Transfer Coefficient of Benzyl Benzoate in Water
Source: J. Chem. Eng. Data, 2005, 10.1021/je049756u
Compound 1: benzyl benzoate, C14H12O2, InChI=1S/C14H12O2/c15-14(13-9-5-2-6-10-13)16-11-12-7-3-1-4-8-12/h1-10H,11H2, purity 99.9%
Compound 2: water, H2O, InChI=1S/H2O/h1H2
Compound 3: urea, CH4N2O, InChI=1S/CH4N2O/c2-1(3)4/h(H4,2,3,4)
Compound 4: sodium salicylate, C7H5NaO3, InChI=1S/C7H6O3.Na/c8-6-4-2-1-3-5(6)7(9)10;/h1-4,8H,(H,9,10);/q;+1/p-1
Compound 5: sodium benzoate, C7H5NaO2, InChI=1S/C7H6O2.Na/c8-7(9)6-4-2-1-3-5-6;/h1-5H,(H,8,9);/q;+1/p-1
Compound 6: trisodium citrate, C6H5Na3O7, InChI=1S/C6H8O7.3Na/c7-3(8)1-6(13,5(11)12)2-4(9)10;;;/h13H,1-2H2,(H,7,8)(H,9,10)(H,11,12);;;/q;3*+1/p-3, purity 99%

System: benzyl benzoate + water; phases: Liquid mixture 1, Liquid mixture 2
Fixed: Pressure, kPa = 101
Property: Amount concentration (molarity), mol/dm3 (Liquid mixture 1); method: titration of ester layer
Temperature, K	Amount concentration (molarity), mol/dm3	uncertainty
303	0.00696	0.00042
313	0.00702	0.00042
323	0.00715	0.00043
333	0.00723	0.00043

System: trisodium citrate + benzyl benzoate + water; phases: Liquid mixture 1, Liquid mixture 2
Fixed: Pressure, kPa = 101
Property: Amount concentration (molarity), mol/dm3 of benzyl benzoate (Liquid mixture 1); method: titration of ester layer
Temperature, K	Amount concentration (molarity), mol/dm3 of trisodium citrate	Amount concentration (molarity), mol/dm3 of benzyl benzoate	uncertainty
303	0	0.00696	0.00042
303	0.1	0.00723	0.00043
303	0.2	0.00725	0.00044
303	0.3	0.0081	0.00049
303	0.4	0.0119	0.00072
303	0.5	0.0142	0.00086
303	0.6	0.01568	0.00097
303	0.7	0.01812	0.00112
303	0.8	0.01956	0.00122
303	0.9	0.02116	0.00132
303	1	0.02452	0.00152
303	1.2	0.03016	0.00184
303	1.4	0.03789	0.00231
303	1.6	0.04356	0.00264
303	1.8	0.04869	0.00295
303	2	0.05552	0.00336
303	2.3	0.05768	0.00351
303	2.5	0.06205	0.00378
303	2.8	0.06208	0.00378
303	3	0.06118	0.00373
313	0	0.00702	0.00042
313	0.1	0.00764	0.00046
313	0.2	0.00782	0.00047
313	0.3	0.00918	0.00055
313	0.4	0.01381	0.00083
313	0.5	0.0176	0.00106
313	0.6	0.02709	0.00164
313	0.7	0.03224	0.00195
313	0.8	0.03694	0.00224
313	0.9	0.03918	0.00238
313	1	0.04323	0.00263
313	1.2	0.04845	0.00295
313	1.4	0.05758	0.0035
313	1.6	0.06174	0.00375
313	1.8	0.06806	0.00412
313	2	0.0749	0.00453
313	2.25	0.0874	0.00528
313	2.5	0.094	0.00568
313	2.75	0.0948	0.00572
313	3	0.09488	0.00573
323	0	0.00715	0.00043
323	0.1	0.00742	0.00045
323	0.2	0.00766	0.00046
323	0.3	0.01083	0.00065
323	0.4	0.01422	0.00085
323	0.5	0.02428	0.00146
323	0.6	0.03598	0.00216
323	0.7	0.0457	0.00276
323	0.8	0.0523	0.00316
323	0.9	0.0609	0.00369
323	1	0.06912	0.00419
323	1.2	0.08164	0.00496
323	1.4	0.09253	0.0056
323	1.6	0.09996	0.00605
323	1.8	0.10694	0.00646
323	2	0.11286	0.00681
323	2.25	0.12061	0.00726
323	2.5	0.12665	0.00762
323	2.75	0.12645	0.00761
323	3	0.12698	0.00764
333	0	0.00723	0.00043
333	0.1	0.00737	0.00044
333	0.2	0.00889	0.00054
333	0.3	0.01349	0.00081
333	0.4	0.01649	0.00099
333	0.5	0.02806	0.00169
333	0.6	0.04337	0.00261
333	0.7	0.06148	0.0037
333	0.8	0.07738	0.00467
333	0.9	0.09224	0.00557
333	1	0.10552	0.00637
333	1.2	0.12316	0.00743
333	1.4	0.12966	0.00782
333	1.6	0.13749	0.00828
333	1.8	0.14125	0.0085
333	2	0.14419	0.00867
333	2.25	0.14667	0.00882
333	2.5	0.15089	0.00907
333	2.75	0.15186	0.00913
333	3	0.15123	0.00909

System: urea + benzyl benzoate + water; phases: Liquid mixture 1, Liquid mixture 2
Fixed: Pressure, kPa = 101
Property: Amount concentration (molarity), mol/dm3 of benzyl benzoate (Liquid mixture 1); method: titration of ester layer
Temperature, K	Amount concentration (molarity), mol/dm3 of urea	Amount concentration (molarity), mol/dm3 of benzyl benzoate	uncertainty
303	0	0.00696	0.00042
303	0.1	0.00709	0.00043
303	0.2	0.00785	0.00047
303	0.3	0.00889	0.00053
303	0.4	0.01156	0.00069
303	0.5	0.01554	0.00093
303	0.6	0.01706	0.00104
303	0.7	0.02167	0.00132
303	0.8	0.02485	0.00151
303	0.9	0.02888	0.00176
303	1	0.03278	0.002
303	1.2	0.03872	0.00236
303	1.4	0.04387	0.00268
303	1.6	0.04738	0.00289
303	1.8	0.05072	0.00309
303	2	0.05351	0.00326
303	2.3	0.05725	0.00349
303	2.5	0.06007	0.00367
303	2.8	0.06011	0.00366
303	3	0.06023	0.00367
313	0	0.00702	0.00042
313	0.1	0.00718	0.00043
313	0.2	0.00789	0.00047
313	0.3	0.00998	0.0006
313	0.4	0.01256	0.00075
313	0.5	0.01775	0.00107
313	0.6	0.02634	0.00159
313	0.7	0.03341	0.00202
313	0.8	0.03823	0.00231
313	0.9	0.04453	0.00269
313	1	0.05051	0.00305
313	1.2	0.05965	0.00361
313	1.4	0.06762	0.00408
313	1.6	0.07303	0.00441
313	1.8	0.07815	0.00472
313	2	0.08246	0.00498
313	2.25	0.08817	0.00533
313	2.5	0.09259	0.00559
313	2.75	0.09266	0.0056
313	3	0.09285	0.00561
323	0	0.00715	0.00043
323	0.1	0.00728	0.00044
323	0.2	0.00815	0.00049
323	0.3	0.01084	0.00065
323	0.4	0.01448	0.00087
323	0.5	0.02477	0.00149
323	0.6	0.03676	0.00221
323	0.7	0.04662	0.0028
323	0.8	0.05335	0.00321
323	0.9	0.06213	0.00373
323	1	0.07049	0.00424
323	1.2	0.08324	0.005
323	1.4	0.08862	0.00533
323	1.6	0.09463	0.00569
323	1.8	0.10191	0.00613
323	2	0.10996	0.00661
323	2.25	0.11739	0.00706
323	2.5	0.12361	0.00743
323	2.75	0.12389	0.00745
323	3	0.12396	0.00745
333	0	0.00723	0.00043
333	0.1	0.00756	0.00045
333	0.2	0.00869	0.00052
333	0.3	0.01176	0.00071
333	0.4	0.01571	0.00095
333	0.5	0.02686	0.00161
333	0.6	0.03981	0.00239
333	0.7	0.05056	0.00303
333	0.8	0.05789	0.00347
333	0.9	0.06738	0.00404
333	1	0.07645	0.00459
333	1.2	0.09029	0.00542
333	1.4	0.10235	0.00615
333	1.6	0.11053	0.00664
333	1.8	0.11828	0.0071
333	2	0.12481	0.00749
333	2.25	0.13344	0.00801
333	2.5	0.14056	0.00844
333	2.75	0.14026	0.00842
333	3	0.14054	0.00844

System: sodium salicylate + benzyl benzoate + water; phases: Liquid mixture 1, Liquid mixture 2
Fixed: Pressure, kPa = 101
Property: Amount concentration (molarity), mol/dm3 of benzyl benzoate (Liquid mixture 1); method: titration of ester layer
Temperature, K	Amount concentration (molarity), mol/dm3 of sodium salicylate	Amount concentration (molarity), mol/dm3 of benzyl benzoate	uncertainty
303	0	0.00696	0.00042
303	0.1	0.00705	0.00042
303	0.2	0.00723	0.00043
303	0.3	0.00858	0.00052
303	0.4	0.00945	0.00057
303	0.5	0.01139	0.00069
303	0.6	0.01705	0.00104
303	0.7	0.02154	0.00132
303	0.8	0.02429	0.00148
303	0.9	0.02831	0.00173
303	1	0.03175	0.00194
303	1.2	0.03802	0.00232
303	1.4	0.04327	0.00264
303	1.6	0.04618	0.00281
303	1.8	0.04935	0.00301
303	2	0.05249	0.0032
303	2.3	0.05615	0.00342
303	2.5	0.05876	0.00359
303	2.8	0.05882	0.00359
303	3	0.05896	0.00359
313	0	0.00702	0.00042
313	0.1	0.00712	0.00043
313	0.2	0.00746	0.00045
313	0.3	0.00958	0.00058
313	0.4	0.01019	0.00061
313	0.5	0.01752	0.00106
313	0.6	0.02622	0.00158
313	0.7	0.03312	0.002
313	0.8	0.03735	0.00225
313	0.9	0.04353	0.00262
313	1	0.04882	0.00294
313	1.2	0.05846	0.00352
313	1.4	0.06653	0.00401
313	1.6	0.07107	0.00428
313	1.8	0.07586	0.00457
313	2	0.08071	0.00486
313	2.25	0.08632	0.0052
313	2.5	0.09036	0.00544
313	2.75	0.09044	0.00545
313	3	0.09065	0.00546
323	0	0.00715	0.00043
323	0.1	0.00738	0.00044
323	0.2	0.00751	0.00045
323	0.3	0.01025	0.00062
323	0.4	0.01209	0.00073
323	0.5	0.02076	0.00125
323	0.6	0.03108	0.00187
323	0.7	0.03924	0.00236
323	0.8	0.04429	0.00266
323	0.9	0.05165	0.0031
323	1	0.05787	0.00348
323	1.2	0.06929	0.00416
323	1.4	0.07886	0.00474
323	1.6	0.08416	0.00506
323	1.8	0.08993	0.0054
323	2	0.09567	0.00575
323	2.25	0.10232	0.00615
323	2.5	0.10725	0.00645
323	2.75	0.10721	0.00644
323	3	0.10745	0.00646
333	0	0.00723	0.00043
333	0.1	0.00742	0.00045
333	0.2	0.00768	0.00046
333	0.3	0.01085	0.00065
333	0.4	0.01435	0.00087
333	0.5	0.02465	0.00148
333	0.6	0.03689	0.00222
333	0.7	0.04658	0.0028
333	0.8	0.05256	0.00316
333	0.9	0.06125	0.00368
333	1	0.06869	0.00413
333	1.2	0.08225	0.00494
333	1.4	0.0936	0.0056
333	1.6	0.09989	0.006
333	1.8	0.10674	0.00641
333	2	0.11356	0.00682
333	2.25	0.12145	0.0073
333	2.5	0.12712	0.00764
333	2.75	0.12725	0.00765
333	3	0.12754	0.00766

System: benzyl benzoate + sodium benzoate + water; phases: Liquid mixture 1, Liquid mixture 2
Fixed: Pressure, kPa = 101
Property: Amount concentration (molarity), mol/dm3 of benzyl benzoate (Liquid mixture 1); method: titration of ester layer
Temperature, K	Amount concentration (molarity), mol/dm3 of sodium benzoate	Amount concentration (molarity), mol/dm3 of benzyl benzoate	uncertainty
303	0	0.00696	0.00056
303	0.1	0.00698	0.00056
303	0.2	0.00702	0.00056
303	0.3	0.00729	0.00058
303	0.4	0.01071	0.00086
303	0.5	0.01278	0.00103
303	0.6	0.01412	0.00114
303	0.7	0.01638	0.00132
303	0.8	0.01764	0.00142
303	0.9	0.01904	0.00153
303	1	0.02206	0.00178
303	1.2	0.02714	0.00218
303	1.4	0.03411	0.00274
303	1.6	0.03924	0.00314
303	1.8	0.04382	0.00351
303	2	0.04997	0.00401
303	2.3	0.05192	0.00418
303	2.5	0.05585	0.0045
303	2.8	0.05587	0.0045
303	3	0.05596	0.0045
313	0	0.00702	0.00056
313	0.1	0.00703	0.00056
313	0.2	0.00729	0.00058
313	0.3	0.00844	0.00068
313	0.4	0.01575	0.00126
313	0.5	0.01629	0.00131
313	0.6	0.0205	0.00164
313	0.7	0.0226	0.00181
313	0.8	0.0248	0.00199
313	0.9	0.0278	0.00223
313	1	0.032	0.00257
313	1.2	0.0372	0.00298
313	1.4	0.04412	0.00354
313	1.6	0.0474	0.0038
313	1.8	0.0547	0.00438
313	2	0.0615	0.00493
313	2.25	0.0747	0.00598
313	2.5	0.08056	0.00645
313	2.75	0.08072	0.00647
313	3	0.08076	0.00647
323	0	0.00715	0.00057
323	0.1	0.00726	0.00058
323	0.2	0.00785	0.00063
323	0.3	0.00889	0.00071
323	0.4	0.01625	0.0013
323	0.5	0.02001	0.00161
323	0.6	0.02654	0.00213
323	0.7	0.03152	0.00253
323	0.8	0.03468	0.00278
323	0.9	0.03864	0.0031
323	1	0.04225	0.00339
323	1.2	0.04758	0.00381
323	1.4	0.05658	0.00453
323	1.6	0.06125	0.00491
323	1.8	0.06557	0.00525
323	2	0.07225	0.00578
323	2.25	0.08251	0.0066
323	2.5	0.09165	0.00733
323	2.75	0.09175	0.00734
323	3	0.09188	0.00735
333	0	0.00723	0.00058
333	0.1	0.00777	0.00062
333	0.2	0.00806	0.00064
333	0.3	0.00933	0.00075
333	0.4	0.0214	0.00171
333	0.5	0.0282	0.00226
333	0.6	0.03506	0.00281
333	0.7	0.0376	0.00301
333	0.8	0.04238	0.00339
333	0.9	0.0448	0.00359
333	1	0.05041	0.00404
333	1.2	0.05776	0.00463
333	1.4	0.06535	0.00523
333	1.6	0.06962	0.00557
333	1.8	0.07649	0.00612
333	2	0.08415	0.00674
333	2.25	0.09312	0.00745
333	2.5	0.09624	0.0077
333	2.75	0.09645	0.00772
333	3	0.09647	0.00772
