Measured thermophysical data. Phase Behavior, Densities, and Isothermal Compressibility of the CO2 + Ethanol + Dichloromethane Ternary System in Different Phase Regions
Source: J. Chem. Eng. Data, 2005, 10.1021/je049616k
Compound 1: carbon dioxide, CO2, InChI=1S/CO2/c2-1-3
Compound 2: ethanol, C2H6O, InChI=1S/C2H6O/c1-2-3/h3H,2H2,1H3
Compound 3: dichloromethane, CH2Cl2, InChI=1S/CH2Cl2/c2-1-3/h1H2

System: ethanol + dichloromethane + carbon dioxide; phases: Liquid, Gas
Fixed: Solvent: Amount ratio of component to other component of binary solvent of ethanol = 1
Property: Critical temperature, K (Liquid); method: Visual observation in a stirred cell
Mole fraction of carbon dioxide	Critical temperature, K	uncertainty
0.921	328.15	0.21
0.952	318.15	0.21
0.965	313.15	0.21

System: ethanol + dichloromethane + carbon dioxide; phases: Gas, Liquid
Fixed: Solvent: Amount ratio of component to other component of binary solvent of ethanol = 1
Property: Vapor or sublimation pressure, kPa (Gas); method: CCELL:UFactor:4
Mole fraction of carbon dioxide	Temperature, K	Vapor or sublimation pressure, kPa	uncertainty
0.952	320.15	8600	140
0.952	323.15	8870	140
0.952	325.15	9020	140
0.952	328.15	9200	140
0.965	315.15	8270	140
0.965	318.15	8440	140
0.965	320.15	8470	140
0.965	323.15	8500	140
0.965	325.15	8540	140
0.965	328.15	8570	140

System: ethanol + dichloromethane + carbon dioxide; phases: Liquid, Gas
Fixed: Solvent: Amount ratio of component to other component of binary solvent of ethanol = 1
Property: Vapor or sublimation pressure, kPa (Liquid); method: CCELL:UFactor:4
Mole fraction of carbon dioxide	Temperature, K	Vapor or sublimation pressure, kPa	uncertainty
0.79	308.15	6270	120
0.79	310.15	6450	130
0.79	313.15	6840	130
0.79	315.15	7050	130
0.79	318.15	7450	130
0.79	320.15	7650	130
0.79	323.15	8050	140
0.79	325.15	8130	140
0.79	328.15	8520	140
0.871	308.15	6660	130
0.871	310.15	6850	130
0.871	313.15	7280	130
0.871	315.15	7460	130
0.871	318.15	7910	140
0.871	320.15	8230	140
0.871	323.15	8640	140
0.871	325.15	8900	140
0.871	328.15	9280	150
0.921	308.15	6930	130
0.921	310.15	7190	130
0.921	313.15	7530	130
0.921	315.15	7720	140
0.921	318.15	8220	140
0.921	320.15	8450	140
0.921	323.15	8940	140
0.921	325.15	9120	140
0.952	308.15	7150	130
0.952	310.15	7450	130
0.952	313.15	7860	140
0.952	315.15	8040	140
0.965	308.15	7550	130
0.965	310.15	7750	130

System: ethanol + dichloromethane + carbon dioxide; phases: Liquid, Gas
Fixed: Solvent: Amount ratio of component to other component of binary solvent of ethanol = 1
Property: Critical pressure, kPa (Liquid); method: Direct measurement
Mole fraction of carbon dioxide	Critical pressure, kPa	uncertainty
0.921	9150	200
0.952	8350	200
0.965	8060	200

System: ethanol + dichloromethane + carbon dioxide; phases: Fluid (supercritical or subcritical phases)
Fixed: Solvent: Amount ratio of component to other component of binary solvent of ethanol = 1
Property: Mass density, kg/m3 (Fluid (supercritical or subcritical phases)); method: OTHPVT:UFactor:2
Temperature, K	Mole fraction of carbon dioxide	Pressure, kPa	Mass density, kg/m3	uncertainty
308.15	0.79	6270	846	2
308.15	0.79	8740	869	2
308.15	0.79	12430	894	2
308.15	0.79	14000	900	2
308.15	0.79	15680	911	2
308.15	0.79	17430	920	2
308.15	0.79	18920	931	2
308.15	0.871	6660	782	4
308.15	0.871	6830	800	4
308.15	0.871	7600	817	3
308.15	0.871	8940	833	3
308.15	0.871	10550	852	3
308.15	0.871	12580	869	2
308.15	0.871	15130	887	2
308.15	0.921	6930	793	9
308.15	0.921	7430	811	4
308.15	0.921	8190	830	3
308.15	0.921	8610	839	4
308.15	0.921	9280	849	4
308.15	0.921	10220	866	3
308.15	0.921	11120	876	3
308.15	0.952	7150	714	8
308.15	0.952	7410	729	8
308.15	0.952	7780	748	6
308.15	0.952	8350	765	5
308.15	0.952	9100	786	5
308.15	0.952	10120	805	4
308.15	0.952	11400	825	4
308.15	0.965	7550	699	41
308.15	0.965	7690	721	14
308.15	0.965	7780	730	14
308.15	0.965	8000	746	12
308.15	0.965	8120	756	11
308.15	0.965	8540	780	7
308.15	0.965	9680	829	5
313.15	0.79	6840	835	2
313.15	0.79	8560	850	3
313.15	0.79	10160	869	2
313.15	0.79	11340	877	2
313.15	0.79	12510	886	2
313.15	0.79	15340	903	2
313.15	0.79	17240	913	2
313.15	0.79	18820	922	2
313.15	0.871	7280	730	3
313.15	0.871	7340	750	3
313.15	0.871	7380	765	3
313.15	0.871	7710	780	5
313.15	0.871	8460	797	3
313.15	0.871	9510	814	3
313.15	0.871	10910	832	3
313.15	0.921	7530	762	19
313.15	0.921	7720	772	3
313.15	0.921	7950	782	12
313.15	0.921	8390	800	4
313.15	0.921	8880	814	7
313.15	0.921	9640	832	3
313.15	0.921	10420	847	2
313.15	0.921	11630	868	3
313.15	0.921	13160	889	3
313.15	0.921	15040	910	2
313.15	0.952	7870	624	7
313.15	0.952	8060	650	14
313.15	0.952	8180	658	6
313.15	0.952	8410	676	11
313.15	0.952	8660	687	18
313.15	0.952	10620	754	4
313.15	0.952	12730	792	3
313.15	0.952	14270	814	3
313.15	0.965	8060	513	66
313.15	0.965	8110	535	54
313.15	0.965	8160	557	39
313.15	0.965	8190	567	44
313.15	0.965	8250	594	36
313.15	0.965	8350	621	23
313.15	0.965	8450	652	21
313.15	0.965	8700	685	13
313.15	0.965	9020	722	8
313.15	0.965	9540	761	12
318.15	0.79	7450	808	3
318.15	0.79	8280	827	3
318.15	0.79	9460	843	3
318.15	0.79	10260	852	2
318.15	0.79	11160	860	2
318.15	0.79	13250	875	2
318.15	0.79	14450	887	2
318.15	0.79	15880	893	2
318.15	0.79	17350	900	2
318.15	0.79	18940	908	2
318.15	0.871	8010	734	6
318.15	0.871	8400	752	4
318.15	0.871	8980	764	7
318.15	0.871	9440	776	4
318.15	0.871	10340	790	5
318.15	0.871	11440	807	4
318.15	0.871	12370	817	5
318.15	0.871	13200	827	5
318.15	0.871	13960	837	4
318.15	0.871	15780	852	3
318.15	0.921	8220	719	14
318.15	0.921	8390	736	16
318.15	0.921	8500	745	11
318.15	0.921	8950	772	5
318.15	0.921	9250	788	10
318.15	0.921	9710	805	7
318.15	0.921	10370	824	3
318.15	0.921	11170	843	4
318.15	0.921	12120	861	3
318.15	0.921	13370	883	4
318.15	0.952	8350	517	8
318.15	0.952	8410	484	13
318.15	0.952	8520	509	10
318.15	0.952	8780	551	17
318.15	0.952	9000	570	4
318.15	0.952	9710	617	6
318.15	0.952	10970	728	6
318.15	0.952	12070	752	3
318.15	0.952	13670	784	3
318.15	0.952	15080	802	3
318.15	0.965	8440	501	20
318.15	0.965	8510	521	18
318.15	0.965	8590	542	29
318.15	0.965	8690	569	29
318.15	0.965	8780	598	31
318.15	0.965	8870	624	23
318.15	0.965	8980	657	17
318.15	0.965	9100	692	34
318.15	0.965	9270	730	42
318.15	0.965	9350	751	5
323.15	0.79	8050	795	4
323.15	0.79	8900	817	3
323.15	0.79	10150	832	3
323.15	0.79	10860	839	3
323.15	0.79	11620	847	3
323.15	0.79	12570	856	2
323.15	0.79	13510	863	2
323.15	0.79	14650	875	2
323.15	0.79	15780	881	2
323.15	0.79	18610	897	2
323.15	0.871	8640	657	12
323.15	0.871	8910	667	8
323.15	0.871	9220	677	3
323.15	0.871	9660	687	4
323.15	0.871	10250	701	3
323.15	0.871	11000	716	4
323.15	0.871	11800	730	3
323.15	0.871	12960	744	2
323.15	0.871	14200	758	2
323.15	0.871	15300	760	4
323.15	0.921	8940	618	33
323.15	0.921	8980	630	30
323.15	0.921	9030	639	31
323.15	0.921	9210	663	12
323.15	0.921	9330	675	13
323.15	0.921	9460	688	16
323.15	0.921	9600	701	15
323.15	0.921	10000	730	6
323.15	0.921	11440	793	5
323.15	0.921	12780	830	4
323.15	0.952	8600	457	25
323.15	0.952	8720	483	5
323.15	0.952	8880	515	4
323.15	0.952	9000	538	11
323.15	0.952	9270	580	25
323.15	0.952	9460	603	4
323.15	0.952	9760	629	7
323.15	0.952	10770	686	5
323.15	0.952	13180	756	4
323.15	0.952	14180	775	3
323.15	0.965	8500	419	12
323.15	0.965	8580	432	9
323.15	0.965	8660	446	19
323.15	0.965	8750	461	18
323.15	0.965	8830	476	20
323.15	0.965	9080	527	23
323.15	0.965	9220	559	25
323.15	0.965	9420	603	22
323.15	0.965	9600	653	20
323.15	0.965	9980	720	19
328.15	0.79	8520	771	5
328.15	0.79	8730	780	4
328.15	0.79	9330	794	3
328.15	0.79	10380	809	3
328.15	0.79	11300	823	3
328.15	0.79	12700	839	3
328.15	0.79	13620	848	2
328.15	0.79	14440	855	2
328.15	0.79	15550	864	2
328.15	0.79	16570	872	2
328.15	0.871	9280	671	3
328.15	0.871	9450	683	5
328.15	0.871	9690	696	3
328.15	0.871	9980	709	6
328.15	0.871	10340	722	4
328.15	0.871	10830	736	3
328.15	0.871	11440	749	4
328.15	0.871	12180	764	3
328.15	0.871	13100	779	3
328.15	0.871	14220	795	6
328.15	0.921	9150	598	23
328.15	0.921	9260	619	29
328.15	0.921	9490	652	19
328.15	0.921	9590	664	8
328.15	0.921	9960	701	11
328.15	0.921	10340	730	11
328.15	0.921	10910	761	7
328.15	0.921	11730	794	5
328.15	0.921	12960	830	4
328.15	0.921	14860	870	3
328.15	0.952	9200	398	6
328.15	0.952	9380	428	12
328.15	0.952	9680	473	10
328.15	0.952	9890	505	11
328.15	0.952	10170	541	12
328.15	0.952	10510	585	13
328.15	0.952	10670	602	10
328.15	0.952	10820	615	9
328.15	0.952	11940	653	6
328.15	0.952	13000	698	5
328.15	0.952	14240	734	4
328.15	0.965	8570	370	11
328.15	0.965	8680	381	12
328.15	0.965	8910	410	13
328.15	0.965	9030	426	15
328.15	0.965	9310	467	15
328.15	0.965	9560	503	17
328.15	0.965	9830	551	17
328.15	0.965	10060	581	15
328.15	0.965	12350	734	6
328.15	0.965	13640	782	5
