Measured thermophysical data. Vapor Pressures of Morpholine, Diethyl Methylmalonate, and Five Glycol Ethers at Temperatures up to 473.15 K
Source: J. Chem. Eng. Data, 2005, 10.1021/je049627d
Compound 1: tetrahydro-1,4-oxazine, C4H9NO, InChI=1S/C4H9NO/c1-3-6-4-2-5-1/h5H,1-4H2, purity 99%
Compound 2: diethyl methylpropanedioate, C8H14O4, InChI=1S/C8H14O4/c1-4-11-7(9)6(3)8(10)12-5-2/h6H,4-5H2,1-3H3, purity 99%
Compound 3: diethylene glycol diethyl ether, C8H18O3, InChI=1S/C8H18O3/c1-3-9-5-7-11-8-6-10-4-2/h3-8H2,1-2H3, purity 99%
Compound 4: 2-(2-hexyloxyethoxy)ethanol, C10H22O3, InChI=1S/C10H22O3/c1-2-3-4-5-7-12-9-10-13-8-6-11/h11H,2-10H2,1H3, purity 98%
Compound 5: 5,8,11-trioxapentadecane, C12H26O3, InChI=1S/C12H26O3/c1-3-5-7-13-9-11-15-12-10-14-8-6-4-2/h3-12H2,1-2H3, purity 98%
Compound 6: 2-butoxyethyl acetate, C8H16O3, InChI=1S/C8H16O3/c1-3-4-5-10-6-7-11-8(2)9/h3-7H2,1-2H3, purity 98%
Compound 7: 2-(2-ethoxyethoxy)ethyl acetate, C8H16O4, InChI=1S/C8H16O4/c1-3-10-4-5-11-6-7-12-8(2)9/h3-7H2,1-2H3, purity 99%

System: tetrahydro-1,4-oxazine; phases: Liquid, Gas
Property: Vapor or sublimation pressure, kPa (Liquid); method: CCELL:UFactor:2
Temperature, K	Vapor or sublimation pressure, kPa	uncertainty
308.15	2.33	0.2
313.15	3.13	0.2
323.15	5.17	0.2
328.15	6.59	0.2
333.15	8.28	0.2
343.15	12.93	0.21
348.15	15.93	0.21
353.15	19.49	0.22
363.15	28.71	0.23
368.15	34.5	0.24
373.15	41.04	0.25
383.15	57.6	0.28
393.15	79.04	0.33

System: diethyl methylpropanedioate; phases: Liquid, Gas
Property: Vapor or sublimation pressure, kPa (Liquid); method: CCELL:UFactor:2
Temperature, K	Vapor or sublimation pressure, kPa	uncertainty
373.15	3.15	0.2
383.15	5.02	0.2
393.15	7.94	0.2
403.15	11.84	0.21
413.15	17.4	0.21
423.15	24.82	0.22
433.15	34.43	0.24
443.15	46.74	0.26
453.15	62.44	0.29
458.15	71.52	0.31
463.15	81.75	0.34
468.15	92.85	0.36

System: diethylene glycol diethyl ether; phases: Liquid, Gas
Property: Vapor or sublimation pressure, kPa (Liquid); method: CCELL:UFactor:2
Temperature, K	Vapor or sublimation pressure, kPa	uncertainty
363.15	2.61	0.2
373.15	4.29	0.2
383.15	6.69	0.2
393.15	10.08	0.21
403.15	15.08	0.21
413.15	22.08	0.22
423.15	31.51	0.23
428.15	37.58	0.24
433.15	44.45	0.26
438.15	52.47	0.27
443.15	61.68	0.29
448.15	72.21	0.32
453.15	84.21	0.35

System: 2-(2-hexyloxyethoxy)ethanol; phases: Liquid, Gas
Property: Vapor or sublimation pressure, kPa (Liquid); method: CCELL:UFactor:2
Temperature, K	Vapor or sublimation pressure, kPa	uncertainty
413.15	1.97	0.2
423.15	3.09	0.2
433.15	4.58	0.2
443.15	6.79	0.2
453.15	9.86	0.21
458.15	11.71	0.21
463.15	13.89	0.21
468.15	16.36	0.21
473.15	19.26	0.21

System: 5,8,11-trioxapentadecane; phases: Liquid, Gas
Property: Vapor or sublimation pressure, kPa (Liquid); method: CCELL:UFactor:2
Temperature, K	Vapor or sublimation pressure, kPa	uncertainty
403.15	2.5	0.2
413.15	3.61	0.2
423.15	5.26	0.2
433.15	7.39	0.2
443.15	10.43	0.21
453.15	14.23	0.21
458.15	16.61	0.21
463.15	19.19	0.21
468.15	22.18	0.22
473.15	25.58	0.22

System: 2-butoxyethyl acetate; phases: Liquid, Gas
Property: Vapor or sublimation pressure, kPa (Liquid); method: CCELL:UFactor:2
Temperature, K	Vapor or sublimation pressure, kPa	uncertainty
363.15	2.92	0.2
373.15	4.57	0.2
383.15	6.72	0.2
393.15	9.96	0.21
403.15	14.42	0.21
413.15	20.44	0.22
423.15	28.85	0.23
428.15	33.94	0.24
433.15	39.87	0.25
438.15	46.8	0.26
443.15	54.64	0.28
448.15	63.48	0.3
458.15	85.24	0.35
463.15	98.36	0.38

System: 2-(2-ethoxyethoxy)ethyl acetate; phases: Liquid, Gas
Property: Vapor or sublimation pressure, kPa (Liquid); method: CCELL:UFactor:2
Temperature, K	Vapor or sublimation pressure, kPa	uncertainty
363.15	2.02	0.2
373.15	2.95	0.2
383.15	4.29	0.2
393.15	6.04	0.2
403.15	8.53	0.2
413.15	11.91	0.21
423.15	16.24	0.21
433.15	21.85	0.22
443.15	29.01	0.23
453.15	38.36	0.24
463.15	49.87	0.26
468.15	56.75	0.28
473.15	64.24	0.29
