Measured thermophysical data. Solubility of Acenaphthene, Anthracene, and Pyrene in Water At 50 C to 300 C
Source: J. Chem. Eng. Data, 2005, 10.1021/je0495886
Compound 1: acenaphthene, C12H10, InChI=1S/C12H10/c1-3-9-4-2-6-11-8-7-10(5-1)12(9)11/h1-6H,7-8H2, purity 99%
Compound 2: anthracene, C14H10, InChI=1S/C14H10/c1-2-6-12-10-14-8-4-3-7-13(14)9-11(12)5-1/h1-10H, purity 99%
Compound 3: pyrene, C16H10, InChI=1S/C16H10/c1-3-11-7-9-13-5-2-6-14-10-8-12(4-1)15(11)16(13)14/h1-10H, purity 97%
Compound 4: water, H2O, InChI=1S/H2O/h1H2

System: acenaphthene + water; phases: Liquid mixture 1, Liquid mixture 2
Property: Mole fraction of acenaphthene (Liquid mixture 1); method: Dynamic saturation method and analysis by gas chromatography-mass spectrometry
Temperature, K	Pressure, kPa	Mole fraction of acenaphthene	uncertainty
523.15	5000	0.00125	0.00019

System: anthracene + water; phases: Liquid mixture 1, Liquid mixture 2
Property: Mole fraction of anthracene (Liquid mixture 1); method: Dynamic saturation method and analysis by gas chromatography-mass spectrometry
Pressure, kPa	Temperature, K	Mole fraction of anthracene	uncertainty
5000	523.15	0.000497	0.000178
10000	573.15	0.00378	0.00026

System: anthracene + water; phases: Liquid, Crystal
Fixed: Pressure, kPa = 5000
Property: Mole fraction of anthracene (Liquid); method: Dynamic saturation method and analysis by gas chromatography-mass spectrometry
Temperature, K	Mole fraction of anthracene	uncertainty
373.1	3.25e-07	1.2e-07
423.15	1.02e-05	2.7e-06
473.15	0.000138	3.8e-05

System: pyrene + water; phases: Liquid mixture 1, Liquid mixture 2
Property: Mole fraction of pyrene (Liquid mixture 1); method: Dynamic saturation method and analysis by gas chromatography-mass spectrometry
Pressure, kPa	Temperature, K	Mole fraction of pyrene	uncertainty
5000	473.15	4.92e-05	4.54e-05
5000	523.15	0.000205	4.6e-05
10000	573.15	0.00141	0.00034

System: pyrene + water; phases: Liquid, Crystal
Fixed: Pressure, kPa = 5000
Property: Mole fraction of pyrene (Liquid); method: Dynamic saturation method and analysis by gas chromatography-mass spectrometry
Temperature, K	Mole fraction of pyrene	uncertainty
323.15	6.87e-08	3.23e-08
373.1	6.37e-07	6e-08
413.15	5.4e-06	3.14e-06
