Measured thermophysical data. Measurement of Activity Coefficients at Infinite Dilution of Benzene, Toluene, Ethanol, Esters, Ketones, and Ethers at Various Temperatures in Water Using the Dilutor Technique
Source: J. Chem. Eng. Data, 2004, 10.1021/je049875+
Compound 1: ethanol, C2H6O, InChI=1S/C2H6O/c1-2-3/h3H,2H2,1H3
Compound 2: water, H2O, InChI=1S/H2O/h1H2
Compound 3: acetone, C3H6O, InChI=1S/C3H6O/c1-3(2)4/h1-2H3
Compound 4: butanone, C4H8O, InChI=1S/C4H8O/c1-3-4(2)5/h3H2,1-2H3
Compound 5: pentan-2-one, C5H10O, InChI=1S/C5H10O/c1-3-4-5(2)6/h3-4H2,1-2H3
Compound 6: diethyl ether, C4H10O, InChI=1S/C4H10O/c1-3-5-4-2/h3-4H2,1-2H3
Compound 7: diisopropyl ether, C6H14O, InChI=1S/C6H14O/c1-5(2)7-6(3)4/h5-6H,1-4H3
Compound 8: dipropyl ether, C6H14O, InChI=1S/C6H14O/c1-3-5-7-6-4-2/h3-6H2,1-2H3
Compound 9: 2-methoxy-2-methylpropane, C5H12O, InChI=1S/C5H12O/c1-5(2,3)6-4/h1-4H3
Compound 10: 2-methoxy-2-methylbutane, C6H14O, InChI=1S/C6H14O/c1-5-6(2,3)7-4/h5H2,1-4H3
Compound 11: methyl ethanoate, C3H6O2, InChI=1S/C3H6O2/c1-3(4)5-2/h1-2H3
Compound 12: ethyl acetate, C4H8O2, InChI=1S/C4H8O2/c1-3-6-4(2)5/h3H2,1-2H3
Compound 13: propyl ethanoate, C5H10O2, InChI=1S/C5H10O2/c1-3-4-7-5(2)6/h3-4H2,1-2H3
Compound 14: methyl methanoate, C2H4O2, InChI=1S/C2H4O2/c1-4-2-3/h2H,1H3
Compound 15: ethyl methanoate, C3H6O2, InChI=1S/C3H6O2/c1-2-5-3-4/h3H,2H2,1H3
Compound 16: benzene, C6H6, InChI=1S/C6H6/c1-2-4-6-5-3-1/h1-6H
Compound 17: toluene, C7H8, InChI=1S/C7H8/c1-7-5-3-2-4-6-7/h2-6H,1H3

System: ethanol + water; phases: Liquid
Fixed: Pressure, kPa = 101.325
Fixed: Mole fraction of ethanol = 0
Property: Activity coefficient of ethanol (Liquid); method: Chromatography
Temperature, K	Activity coefficient of ethanol	uncertainty
303.25	5.03	0.3
313.25	5.33	0.32
323.25	5.54	0.33
333.25	5.76	0.34
343.25	5.96	0.35

System: acetone + water; phases: Liquid
Fixed: Pressure, kPa = 101.325
Fixed: Mole fraction of acetone = 0
Property: Activity coefficient of acetone (Liquid); method: Chromatography
Temperature, K	Activity coefficient of acetone	uncertainty
303.25	8.02	0.48
313.25	9.2	0.6
323.25	9.81	0.58
333.25	10.3	0.6

System: butanone + water; phases: Liquid
Fixed: Pressure, kPa = 101.325
Fixed: Mole fraction of butanone = 0
Property: Activity coefficient of butanone (Liquid); method: Chromatography
Temperature, K	Activity coefficient of butanone	uncertainty
303.25	29.5	1.8
313.25	33.8	2
323.25	35.9	2.1
333.25	38.9	2.3

System: pentan-2-one + water; phases: Liquid
Fixed: Pressure, kPa = 101.325
Fixed: Mole fraction of pentan-2-one = 0
Property: Activity coefficient of pentan-2-one (Liquid); method: Chromatography
Temperature, K	Activity coefficient of pentan-2-one	uncertainty
303.25	105	6
313.25	120	7
323.25	128	8
333.25	135	8

System: diethyl ether + water; phases: Liquid
Fixed: Pressure, kPa = 101.325
Fixed: Mole fraction of diethyl ether = 0
Property: Activity coefficient of diethyl ether (Liquid); method: Chromatography
Temperature, K	Activity coefficient of diethyl ether	uncertainty
303.25	90.1	5.4
313.25	113	7
323.25	135	8
333.25	158	10

System: diisopropyl ether + water; phases: Liquid
Fixed: Pressure, kPa = 101.325
Fixed: Mole fraction of diisopropyl ether = 0
Property: Activity coefficient of diisopropyl ether (Liquid); method: Chromatography
Temperature, K	Activity coefficient of diisopropyl ether	uncertainty
303.25	737	44
313.25	965	58
323.25	1140	69
333.25	1310	79

System: dipropyl ether + water; phases: Liquid
Fixed: Pressure, kPa = 101.325
Fixed: Mole fraction of dipropyl ether = 0
Property: Activity coefficient of dipropyl ether (Liquid); method: Chromatography
Temperature, K	Activity coefficient of dipropyl ether	uncertainty
303.25	2520	153
313.25	2880	175
323.25	3230	196
333.25	3230	196

System: 2-methoxy-2-methylpropane + water; phases: Liquid
Fixed: Pressure, kPa = 101.325
Fixed: Mole fraction of 2-methoxy-2-methylpropane = 0
Property: Activity coefficient of 2-methoxy-2-methylpropane (Liquid); method: Chromatography
Temperature, K	Activity coefficient of 2-methoxy-2-methylpropane	uncertainty
303.25	153	9
313.25	195	12
323.25	235	14
333.25	278	17

System: 2-methoxy-2-methylbutane + water; phases: Liquid
Fixed: Pressure, kPa = 101.325
Fixed: Mole fraction of 2-methoxy-2-methylbutane = 0
Property: Activity coefficient of 2-methoxy-2-methylbutane (Liquid); method: Chromatography
Temperature, K	Activity coefficient of 2-methoxy-2-methylbutane	uncertainty
303.25	643	39
313.25	796	48
323.25	942	57
333.25	1080	65

System: methyl ethanoate + water; phases: Liquid
Fixed: Pressure, kPa = 101.325
Fixed: Mole fraction of methyl ethanoate = 0
Property: Activity coefficient of methyl ethanoate (Liquid); method: Chromatography
Temperature, K	Activity coefficient of methyl ethanoate	uncertainty
303.25	26.2	1.6
313.25	28.4	1.7
323.25	29.8	1.8
333.25	31.2	1.9
343.25	31.6	1.9

System: ethyl acetate + water; phases: Liquid
Fixed: Pressure, kPa = 101.325
Fixed: Mole fraction of ethyl acetate = 0
Property: Activity coefficient of ethyl acetate (Liquid); method: Chromatography
Temperature, K	Activity coefficient of ethyl acetate	uncertainty
303.25	76.5	4.6
313.25	85	5
323.25	90.1	5.4
333.25	94.7	5.7
343.25	96.2	5.8

System: propyl ethanoate + water; phases: Liquid
Fixed: Pressure, kPa = 101.325
Fixed: Mole fraction of propyl ethanoate = 0
Property: Activity coefficient of propyl ethanoate (Liquid); method: Chromatography
Temperature, K	Activity coefficient of propyl ethanoate	uncertainty
303.25	297	18
313.25	325	20
323.25	341	21
333.25	351	21
343.25	348	21

System: methyl methanoate + water; phases: Liquid
Fixed: Pressure, kPa = 101.325
Fixed: Mole fraction of methyl methanoate = 0
Property: Activity coefficient of methyl methanoate (Liquid); method: Chromatography
Temperature, K	Activity coefficient of methyl methanoate	uncertainty
303.25	18.7	1.1
313.25	19.1	1.1
323.25	19.5	1.2
333.25	19.8	1.2

System: ethyl methanoate + water; phases: Liquid
Fixed: Pressure, kPa = 101.325
Fixed: Mole fraction of ethyl methanoate = 0
Property: Activity coefficient of ethyl methanoate (Liquid); method: Chromatography
Temperature, K	Activity coefficient of ethyl methanoate	uncertainty
303.25	53.79	3.22
313.25	55.7	3.3
323.25	57.1	3.4
333.25	57.7	3.5

System: benzene + water; phases: Liquid
Fixed: Pressure, kPa = 101.325
Fixed: Mole fraction of benzene = 0
Property: Activity coefficient of benzene (Liquid); method: Chromatography
Temperature, K	Activity coefficient of benzene	uncertainty
308.95	2470	150
313.25	2370	144
318.25	2250	136
323.15	2140	130

System: toluene + water; phases: Liquid
Fixed: Pressure, kPa = 101.325
Fixed: Mole fraction of toluene = 0
Property: Activity coefficient of toluene (Liquid); method: Chromatography
Temperature, K	Activity coefficient of toluene	uncertainty
308.95	8570	521
313.25	8090	492
318.25	7720	469
323.15	7110	432
