Measured thermophysical data. Thermodynamic Properties of dodecane + 1-butanol and + 2-butanol systems
Source: J. Chem. Eng. Data, 2004, 10.1021/je0497810
Compound 1: butan-1-ol, C4H10O, InChI=1S/C4H10O/c1-2-3-4-5/h5H,2-4H2,1H3, purity 99.6%
Compound 2: butan-2-ol, C4H10O, InChI=1S/C4H10O/c1-3-4(2)5/h4-5H,3H2,1-2H3, purity 99.3%
Compound 3: dodecane, C12H26, InChI=1S/C12H26/c1-3-5-7-9-11-12-10-8-6-4-2/h3-12H2,1-2H3, purity 99.1%

System: butan-1-ol; phases: Liquid
Fixed: Pressure, kPa = 101.325
Property: Speed of sound, m/s (Liquid); method: Pulse-echo method
Temperature, K	Speed of sound, m/s	uncertainty
278.15	1308.19	0.69
288.15	1273.51	0.68
298.15	1239.29	0.67
308.15	1205.5	0.65
318.15	1172.12	0.64

System: butan-1-ol; phases: Liquid
Fixed: Pressure, kPa = 101.325
Property: Mass density, kg/m3 (Liquid); method: VIBTUB:UFactor:2
Temperature, K	Mass density, kg/m3	uncertainty
278.15	821.11	0.23
288.15	813.49	0.23
298.15	805.86	0.24
308.15	798.04	0.24
318.15	790.07	0.25

System: butan-2-ol; phases: Liquid
Fixed: Pressure, kPa = 101.325
Property: Molar heat capacity at constant pressure, J/K/mol (Liquid); method: SDSC:UFactor:0.5
Temperature, K	Molar heat capacity at constant pressure, J/K/mol	uncertainty
288.15	186.96	1.45
298.15	197.23	1.53
308.15	207.51	1.61
318.15	217.75	1.69

System: butan-2-ol; phases: Liquid
Fixed: Pressure, kPa = 101.325
Property: Speed of sound, m/s (Liquid); method: Pulse-echo method
Temperature, K	Speed of sound, m/s	uncertainty
278.15	1282.95	0.85
288.15	1247.03	0.84
298.15	1210.98	0.83
308.15	1174.53	0.82
318.15	1137.61	0.81

System: butan-2-ol; phases: Liquid
Fixed: Pressure, kPa = 101.325
Property: Mass density, kg/m3 (Liquid); method: VIBTUB:UFactor:2
Temperature, K	Mass density, kg/m3	uncertainty
278.15	818.03	0.31
288.15	810.25	0.31
298.15	802.19	0.32
308.15	793.75	0.32
318.15	784.86	0.32

System: dodecane; phases: Liquid
Fixed: Pressure, kPa = 101.325
Property: Molar heat capacity at constant pressure, J/K/mol (Liquid); method: SDSC:UFactor:0.5
Temperature, K	Molar heat capacity at constant pressure, J/K/mol	uncertainty
288.15	371.38	2.88
298.15	375.94	2.91
308.15	380.92	2.95
318.15	386.31	2.99

System: dodecane; phases: Liquid
Fixed: Pressure, kPa = 101.325
Property: Speed of sound, m/s (Liquid); method: Pulse-echo method
Temperature, K	Speed of sound, m/s	uncertainty
278.15	1357.14	1.05
288.15	1317.27	1.04
298.15	1278.2	1.03
308.15	1239.82	1.02
318.15	1201.88	1.01

System: dodecane; phases: Liquid
Fixed: Pressure, kPa = 101.325
Property: Mass density, kg/m3 (Liquid); method: VIBTUB:UFactor:2
Temperature, K	Mass density, kg/m3	uncertainty
278.15	759.55	0.4
288.15	752.36	0.4
298.15	745.17	0.4
308.15	737.95	0.4
318.15	730.69	0.4

System: butan-1-ol + dodecane; phases: Liquid
Fixed: Pressure, kPa = 101
Property: Molar heat capacity at constant pressure, J/K/mol (Liquid); method: SDSC:UFactor:0.5
Temperature, K	Mole fraction of butan-1-ol	Molar heat capacity at constant pressure, J/K/mol	uncertainty
283.15	0.08048	361.08	2.8
283.15	0.19017	340.76	2.64
283.15	0.28812	321.63	2.49
283.15	0.38654	301.93	2.34
283.15	0.44097	290.92	2.25
283.15	0.4835	282.09	2.19
283.15	0.54061	269.83	2.09
283.15	0.58849	259.76	2.01
283.15	0.61515	253.75	1.97
283.15	0.69605	236.27	1.83
283.15	0.79594	213.74	1.66
283.15	0.90295	189.46	1.47
283.15	0.95231	178.05	1.38
288.15	0.08048	364.22	2.82
288.15	0.19017	344.32	2.67
288.15	0.28812	325.39	2.52
288.15	0.38654	305.76	2.37
288.15	0.44097	294.85	2.28
288.15	0.4835	286.04	2.22
288.15	0.54061	273.71	2.12
288.15	0.58849	263.8	2.04
288.15	0.61515	257.68	2
288.15	0.69605	240.13	1.86
288.15	0.79594	217.56	1.69
288.15	0.90295	192.97	1.49
288.15	0.95231	181.36	1.4
298.15	0.08048	370.79	2.87
298.15	0.19017	351.89	2.73
298.15	0.28812	333.33	2.58
298.15	0.38654	313.86	2.43
298.15	0.44097	303.08	2.35
298.15	0.4835	294.28	2.28
298.15	0.54061	281.93	2.18
298.15	0.58849	272.13	2.11
298.15	0.61515	265.84	2.06
298.15	0.69605	248.35	1.92
298.15	0.79594	225.46	1.75
298.15	0.90295	200.34	1.55
298.15	0.95231	188.36	1.46
308.15	0.08048	376.59	2.92
308.15	0.19017	359.8	2.79
308.15	0.28812	341.79	2.65
308.15	0.38654	322.51	2.5
308.15	0.44097	311.79	2.42
308.15	0.4835	303.09	2.35
308.15	0.54061	290.73	2.25
308.15	0.58849	281	2.18
308.15	0.61515	274.56	2.13
308.15	0.69605	257.05	1.99
308.15	0.79594	233.92	1.81
308.15	0.90295	208.32	1.61
308.15	0.95231	195.95	1.52
313.15	0.08048	379.38	2.94
313.15	0.19017	363.77	2.82
313.15	0.28812	346.13	2.68
313.15	0.38654	327	2.53
313.15	0.44097	316.36	2.45
313.15	0.4835	307.67	2.38
313.15	0.54061	295.36	2.29
313.15	0.58849	285.53	2.21
313.15	0.61515	279.13	2.16
313.15	0.69605	261.55	2.03
313.15	0.79594	238.39	1.85
313.15	0.90295	212.48	1.65
313.15	0.95231	200.02	1.55
318.15	0.08048	382.63	2.96
318.15	0.19017	367.77	2.85
318.15	0.28812	350.48	2.71
318.15	0.38654	331.46	2.57
318.15	0.44097	320.93	2.49
318.15	0.4835	312.27	2.42
318.15	0.54061	300.02	2.32
318.15	0.58849	290.2	2.25
318.15	0.61515	283.62	2.2
318.15	0.69605	266.23	2.06
318.15	0.79594	242.97	1.88
318.15	0.90295	216.75	1.68
318.15	0.95231	204.16	1.58

System: butan-1-ol + dodecane; phases: Liquid
Fixed: Pressure, kPa = 101
Property: Speed of sound, m/s (Liquid); method: Pulse-echo method
Temperature, K	Mole fraction of butan-1-ol	Speed of sound, m/s	uncertainty
278.15	0.02749	1354.43	1.04
278.15	0.08048	1351.65	1.02
278.15	0.19017	1346.36	0.97
278.15	0.28812	1341.97	0.92
278.15	0.38654	1337.56	0.88
278.15	0.44097	1335.22	0.86
278.15	0.4835	1333.14	0.85
278.15	0.58849	1328.39	0.81
278.15	0.61515	1327	0.8
278.15	0.69605	1323.29	0.77
278.15	0.79594	1318.02	0.74
278.15	0.90295	1312.42	0.72
278.15	0.95231	1310.21	0.7
283.15	0.02749	1334.52	1.04
283.15	0.08048	1331.73	1.01
283.15	0.19017	1326.51	0.96
283.15	0.28812	1322.13	0.92
283.15	0.38654	1317.8	0.88
283.15	0.44097	1315.38	0.86
283.15	0.4835	1313.58	0.84
283.15	0.58849	1309.07	0.8
283.15	0.61515	1307.93	0.79
283.15	0.69605	1304.43	0.77
283.15	0.79594	1299.42	0.74
283.15	0.90295	1294.4	0.71
283.15	0.95231	1292.36	0.7
288.15	0.02749	1314.74	1.03
288.15	0.08048	1311.88	1.01
288.15	0.19017	1306.67	0.96
288.15	0.28812	1302.34	0.91
288.15	0.38654	1298.07	0.87
288.15	0.44097	1295.76	0.85
288.15	0.4835	1293.98	0.83
288.15	0.58849	1289.78	0.8
288.15	0.61515	1288.69	0.79
288.15	0.69605	1285.21	0.76
288.15	0.79594	1280.87	0.73
288.15	0.90295	1276.41	0.7
288.15	0.95231	1274.76	0.69
298.15	0.02749	1275.72	1.02
298.15	0.08048	1272.6	1
298.15	0.19017	1267.38	0.95
298.15	0.28812	1263.17	0.9
298.15	0.38654	1259.03	0.86
298.15	0.44097	1256.85	0.84
298.15	0.4835	1255.23	0.82
298.15	0.58849	1251.4	0.78
298.15	0.61515	1250.47	0.77
298.15	0.69605	1247.52	0.75
298.15	0.79594	1244.06	0.72
298.15	0.90295	1240.79	0.69
298.15	0.95231	1239.77	0.68
308.15	0.02749	1237.32	1.01
308.15	0.08048	1234	0.99
308.15	0.19017	1228.68	0.94
308.15	0.28812	1224.6	0.89
308.15	0.38654	1220.59	0.85
308.15	0.44097	1218.52	0.83
308.15	0.4835	1217.02	0.81
308.15	0.58849	1213.58	0.77
308.15	0.61515	1212.77	0.76
308.15	0.69605	1210.28	0.74
308.15	0.79594	1207.63	0.7
308.15	0.90295	1205.58	0.68
308.15	0.95231	1205.26	0.67
313.15	0.02749	1218.43	1.01
313.15	0.08048	1214.93	0.98
313.15	0.19017	1209.61	0.93
313.15	0.28812	1205.57	0.89
313.15	0.38654	1201.58	0.84
313.15	0.44097	1199.59	0.82
313.15	0.4835	1198.11	0.81
313.15	0.58849	1194.84	0.77
313.15	0.61515	1194.12	0.76
313.15	0.69605	1191.8	0.73
313.15	0.79594	1189.59	0.7
313.15	0.90295	1188.12	0.67
313.15	0.95231	1188.14	0.66
318.15	0.02749	1199.74	1
318.15	0.08048	1196.12	0.98
318.15	0.19017	1190.76	0.93
318.15	0.28812	1186.7	0.88
318.15	0.38654	1182.73	0.84
318.15	0.44097	1180.76	0.82
318.15	0.4835	1179.44	0.8
318.15	0.58849	1176.25	0.76
318.15	0.61515	1175.56	0.75
318.15	0.69605	1173.49	0.72
318.15	0.79594	1171.64	0.69
318.15	0.90295	1170.77	0.66
318.15	0.95231	1171.1	0.65

System: butan-1-ol + dodecane; phases: Liquid
Fixed: Pressure, kPa = 101
Property: Mass density, kg/m3 (Liquid); method: Vibrating tube method
Temperature, K	Mole fraction of butan-1-ol	Mass density, kg/m3	uncertainty
278.15	0.02749	760	0.38
278.15	0.08048	761.12	0.37
278.15	0.19017	763.86	0.35
278.15	0.28812	766.84	0.33
278.15	0.38654	770.41	0.32
278.15	0.44097	772.69	0.31
278.15	0.4835	774.61	0.3
278.15	0.58849	780.11	0.29
278.15	0.61515	781.74	0.28
278.15	0.69605	787.13	0.27
278.15	0.79594	795.27	0.26
278.15	0.90295	806.6	0.25
278.15	0.95231	813.2	0.24
283.15	0.02749	756.37	0.38
283.15	0.08048	757.47	0.37
283.15	0.19017	760.19	0.35
283.15	0.28812	763.16	0.33
283.15	0.38654	766.72	0.32
283.15	0.44097	768.97	0.31
283.15	0.4835	770.89	0.3
283.15	0.58849	776.38	0.29
283.15	0.61515	778.04	0.28
283.15	0.69605	783.43	0.27
283.15	0.79594	791.53	0.26
283.15	0.90295	802.88	0.25
283.15	0.95231	809.45	0.24
288.15	0.02749	752.75	0.38
288.15	0.08048	753.82	0.37
288.15	0.19017	756.5	0.35
288.15	0.28812	759.47	0.33
288.15	0.38654	762.98	0.32
288.15	0.44097	765.23	0.31
288.15	0.4835	767.14	0.3
288.15	0.58849	772.65	0.29
288.15	0.61515	774.27	0.28
288.15	0.69605	779.63	0.27
288.15	0.79594	787.76	0.26
288.15	0.90295	799.12	0.25
288.15	0.95231	805.7	0.24
298.15	0.02749	745.49	0.38
298.15	0.08048	746.51	0.37
298.15	0.19017	749.12	0.35
298.15	0.28812	752.04	0.33
298.15	0.38654	755.51	0.32
298.15	0.44097	757.73	0.31
298.15	0.4835	759.62	0.3
298.15	0.58849	765.09	0.29
298.15	0.61515	766.72	0.28
298.15	0.69605	772.04	0.27
298.15	0.79594	780.2	0.26
298.15	0.90295	791.57	0.25
298.15	0.95231	798.15	0.24
308.15	0.02749	738.18	0.37
308.15	0.08048	739.13	0.37
308.15	0.19017	741.67	0.35
308.15	0.28812	744.51	0.33
308.15	0.38654	747.93	0.32
308.15	0.44097	750.12	0.31
308.15	0.4835	752	0.3
308.15	0.58849	757.4	0.29
308.15	0.61515	759.03	0.28
308.15	0.69605	764.36	0.27
308.15	0.79594	772.5	0.26
308.15	0.90295	783.88	0.25
308.15	0.95231	790.48	0.24
313.15	0.02749	734.51	0.37
313.15	0.08048	735.41	0.36
313.15	0.19017	737.9	0.35
313.15	0.28812	740.71	0.33
313.15	0.38654	744.09	0.32
313.15	0.44097	746.27	0.31
313.15	0.4835	748.13	0.3
313.15	0.58849	753.51	0.29
313.15	0.61515	755.13	0.28
313.15	0.69605	760.44	0.27
313.15	0.79594	768.57	0.26
313.15	0.90295	779.97	0.25
313.15	0.95231	786.57	0.25
318.15	0.02749	730.8	0.37
318.15	0.08048	731.65	0.36
318.15	0.19017	734.12	0.35
318.15	0.28812	736.86	0.33
318.15	0.38654	740.2	0.32
318.15	0.44097	742.36	0.31
318.15	0.4835	744.23	0.3
318.15	0.58849	749.54	0.29
318.15	0.61515	751.18	0.28
318.15	0.69605	756.46	0.27
318.15	0.79594	764.59	0.26
318.15	0.90295	775.98	0.25
318.15	0.95231	782.6	0.25

System: butan-2-ol + dodecane; phases: Liquid
Fixed: Pressure, kPa = 101
Property: Molar heat capacity at constant pressure, J/K/mol (Liquid); method: SDSC:UFactor:0.5
Temperature, K	Mole fraction of butan-2-ol	Molar heat capacity at constant pressure, J/K/mol	uncertainty
283.15	0.04602	368.81	2.86
283.15	0.0507	368.27	2.85
283.15	0.09287	362.22	2.81
283.15	0.18128	347.53	2.69
283.15	0.24985	335.43	2.6
283.15	0.30044	326.19	2.53
283.15	0.33974	319.07	2.47
283.15	0.38271	310.89	2.41
283.15	0.48939	291.24	2.26
283.15	0.59429	271.63	2.1
283.15	0.69831	250.8	1.94
283.15	0.80469	228.1	1.77
283.15	0.90245	205.58	1.59
283.15	0.95177	193.81	1.5
288.15	0.04602	371.2	2.88
288.15	0.0507	370.87	2.87
288.15	0.09287	365.51	2.83
288.15	0.18128	351.44	2.72
288.15	0.24985	339.54	2.63
288.15	0.30044	330.4	2.56
288.15	0.33974	323.35	2.5
288.15	0.38271	315.22	2.44
288.15	0.48939	295.51	2.29
288.15	0.59429	276.16	2.14
288.15	0.69831	255.61	1.98
288.15	0.80469	233.26	1.81
288.15	0.90245	210.78	1.63
288.15	0.95177	198.92	1.54
298.15	0.04602	375.87	2.91
298.15	0.0507	375.91	2.91
298.15	0.09287	371.99	2.88
298.15	0.18128	359.44	2.78
298.15	0.24985	348.04	2.7
298.15	0.30044	339.21	2.63
298.15	0.33974	332.29	2.57
298.15	0.38271	324.42	2.51
298.15	0.48939	304.59	2.36
298.15	0.59429	285.33	2.21
298.15	0.69831	265.16	2.05
298.15	0.80469	243.52	1.89
298.15	0.90245	221.25	1.71
298.15	0.95177	209.36	1.62
308.15	0.04602	380.02	2.94
308.15	0.0507	380.01	2.94
308.15	0.09287	377.88	2.93
308.15	0.18128	367.12	2.84
308.15	0.24985	356.53	2.76
308.15	0.30044	348.12	2.7
308.15	0.33974	341.43	2.64
308.15	0.38271	333.69	2.58
308.15	0.48939	313.86	2.43
308.15	0.59429	294.46	2.28
308.15	0.69831	274.5	2.13
308.15	0.80469	253.41	1.96
308.15	0.90245	231.68	1.79
308.15	0.95177	219.79	1.7
313.15	0.04602	381.77	2.96
313.15	0.0507	381.76	2.96
313.15	0.09287	380.52	2.95
313.15	0.18128	370.85	2.87
313.15	0.24985	360.66	2.79
313.15	0.30044	352.5	2.73
313.15	0.33974	345.94	2.68
313.15	0.38271	338.16	2.62
313.15	0.48939	318.5	2.47
313.15	0.59429	299.14	2.32
313.15	0.69831	279.14	2.16
313.15	0.80469	258.32	2
313.15	0.90245	236.78	1.83
313.15	0.95177	225	1.74
318.15	0.04602	383.08	2.97
318.15	0.0507	383.28	2.97
318.15	0.09287	382.79	2.97
318.15	0.18128	374.26	2.9
318.15	0.24985	364.7	2.82
318.15	0.30044	356.68	2.76
318.15	0.33974	350.35	2.71
318.15	0.38271	342.58	2.65
318.15	0.48939	323.17	2.5
318.15	0.59429	303.75	2.35
318.15	0.69831	284	2.2
318.15	0.80469	263.01	2.04
318.15	0.90245	241.63	1.87
318.15	0.95177	230.03	1.78

System: butan-2-ol + dodecane; phases: Liquid
Fixed: Pressure, kPa = 101
Property: Speed of sound, m/s (Liquid); method: Pulse-echo method
Temperature, K	Mole fraction of butan-2-ol	Speed of sound, m/s	uncertainty
278.15	0.04602	1352.71	1.04
278.15	0.0507	1352.23	1.04
278.15	0.09287	1349.11	1.03
278.15	0.18128	1342.7	1.02
278.15	0.24985	1337.8	1
278.15	0.30044	1333.96	0.99
278.15	0.33974	1331.15	0.98
278.15	0.38271	1327.93	0.98
278.15	0.48939	1320.58	0.95
278.15	0.59429	1313.68	0.93
278.15	0.69831	1306.65	0.91
278.15	0.80469	1298.97	0.89
278.15	0.90245	1291.01	0.87
278.15	0.95177	1286.96	0.87
283.15	0.04602	1332.55	1.04
283.15	0.0507	1332.16	1.04
283.15	0.09287	1329.1	1.03
283.15	0.18128	1322.72	1.01
283.15	0.24985	1317.72	1
283.15	0.30044	1313.93	0.99
283.15	0.33974	1311.08	0.98
283.15	0.38271	1307.94	0.97
283.15	0.48939	1300.59	0.95
283.15	0.59429	1293.66	0.93
283.15	0.69831	1286.88	0.91
283.15	0.80469	1279.62	0.89
283.15	0.90245	1272.34	0.87
283.15	0.95177	1268.68	0.86
288.15	0.04602	1312.74	1.03
288.15	0.0507	1312.32	1.03
288.15	0.09287	1309.26	1.02
288.15	0.18128	1302.82	1.01
288.15	0.24985	1297.76	0.99
288.15	0.30044	1294.05	0.98
288.15	0.33974	1291.23	0.97
288.15	0.38271	1288.14	0.96
288.15	0.48939	1280.62	0.94
288.15	0.59429	1273.68	0.92
288.15	0.69831	1267.06	0.9
288.15	0.80469	1260.19	0.88
288.15	0.90245	1253.5	0.86
288.15	0.95177	1250.22	0.85
298.15	0.04602	1273.46	1.02
298.15	0.0507	1273.1	1.02
298.15	0.09287	1269.82	1.01
298.15	0.18128	1263.38	1
298.15	0.24985	1258.36	0.98
298.15	0.30044	1254.67	0.97
298.15	0.33974	1251.84	0.96
298.15	0.38271	1248.76	0.95
298.15	0.48939	1241.13	0.93
298.15	0.59429	1234.11	0.91
298.15	0.69831	1227.66	0.89
298.15	0.80469	1221.36	0.87
298.15	0.90245	1215.73	0.85
298.15	0.95177	1213.24	0.84
308.15	0.04602	1234.92	1.01
308.15	0.0507	1234.48	1.01
308.15	0.09287	1231.07	1
308.15	0.18128	1224.51	0.99
308.15	0.24985	1219.48	0.97
308.15	0.30044	1215.85	0.96
308.15	0.33974	1213.01	0.95
308.15	0.38271	1209.91	0.94
308.15	0.48939	1202.2	0.92
308.15	0.59429	1195.02	0.9
308.15	0.69831	1188.52	0.88
308.15	0.80469	1182.58	0.86
308.15	0.90245	1177.79	0.84
308.15	0.95177	1175.92	0.83
313.15	0.04602	1215.9	1.01
313.15	0.0507	1215.47	1.01
313.15	0.09287	1211.97	1
313.15	0.18128	1205.33	0.98
313.15	0.24985	1200.26	0.97
313.15	0.30044	1196.6	0.96
313.15	0.33974	1193.81	0.95
313.15	0.38271	1190.64	0.94
313.15	0.48939	1182.95	0.92
313.15	0.59429	1175.58	0.9
313.15	0.69831	1169.12	0.88
313.15	0.80469	1163.24	0.86
313.15	0.90245	1158.73	0.84
313.15	0.95177	1157.14	0.83
318.15	0.04602	1197.08	1.01
318.15	0.0507	1196.62	1
318.15	0.09287	1193.03	0.99
318.15	0.18128	1186.25	0.98
318.15	0.24985	1181.2	0.96
318.15	0.30044	1177.53	0.95
318.15	0.33974	1174.71	0.94
318.15	0.38271	1171.59	0.93
318.15	0.48939	1163.8	0.91
318.15	0.59429	1156.43	0.89
318.15	0.69831	1149.84	0.87
318.15	0.80469	1143.97	0.85
318.15	0.90245	1139.65	0.83
318.15	0.95177	1138.24	0.82

System: butan-2-ol + dodecane; phases: Liquid
Fixed: Pressure, kPa = 101
Property: Mass density, kg/m3 (Liquid); method: Vibrating tube method
Temperature, K	Mole fraction of butan-2-ol	Mass density, kg/m3	uncertainty
278.15	0.04602	760.12	0.38
278.15	0.0507	760.17	0.38
278.15	0.09287	760.95	0.38
278.15	0.18128	762.89	0.37
278.15	0.24985	764.65	0.37
278.15	0.28364	765.59	0.36
278.15	0.30044	766.1	0.36
278.15	0.33974	767.36	0.36
278.15	0.38271	768.8	0.36
278.15	0.48939	773.14	0.35
278.15	0.59429	778.5	0.34
278.15	0.69831	785.13	0.34
278.15	0.80469	793.85	0.33
278.15	0.90245	804.21	0.32
278.15	0.95177	810.69	0.32
283.15	0.04602	756.43	0.38
283.15	0.0507	756.5	0.38
283.15	0.09287	757.29	0.38
283.15	0.18128	759.18	0.37
283.15	0.24985	760.89	0.36
283.15	0.28364	761.85	0.36
283.15	0.30044	762.33	0.36
283.15	0.33974	763.57	0.36
283.15	0.38271	765.02	0.36
283.15	0.48939	769.3	0.35
283.15	0.59429	774.61	0.34
283.15	0.69831	781.24	0.34
283.15	0.80469	789.92	0.33
283.15	0.90245	800.31	0.32
283.15	0.95177	806.8	0.32
288.15	0.04602	752.79	0.38
288.15	0.0507	752.85	0.38
288.15	0.09287	753.61	0.38
288.15	0.18128	755.47	0.37
288.15	0.24985	757.15	0.36
288.15	0.28364	758.09	0.36
288.15	0.30044	758.57	0.36
288.15	0.33974	759.79	0.36
288.15	0.38271	761.21	0.36
288.15	0.48939	765.43	0.35
288.15	0.59429	770.68	0.34
288.15	0.69831	777.27	0.33
288.15	0.80469	785.96	0.33
288.15	0.90245	796.36	0.32
288.15	0.95177	802.84	0.32
298.15	0.04602	745.46	0.38
298.15	0.0507	745.51	0.38
298.15	0.09287	746.19	0.37
298.15	0.18128	747.97	0.37
298.15	0.24985	749.59	0.36
298.15	0.28364	750.5	0.36
298.15	0.30044	750.94	0.36
298.15	0.33974	752.15	0.36
298.15	0.38271	753.51	0.35
298.15	0.48939	757.62	0.35
298.15	0.59429	762.72	0.34
298.15	0.69831	769.2	0.33
298.15	0.80469	777.8	0.33
298.15	0.90245	788.21	0.32
298.15	0.95177	794.74	0.32
308.15	0.04602	738.06	0.38
308.15	0.0507	738.11	0.38
308.15	0.09287	738.72	0.37
308.15	0.18128	740.36	0.37
308.15	0.24985	741.9	0.36
308.15	0.28364	742.77	0.36
308.15	0.30044	743.22	0.36
308.15	0.33974	744.36	0.36
308.15	0.38271	745.69	0.35
308.15	0.48939	749.62	0.35
308.15	0.59429	754.56	0.34
308.15	0.69831	760.88	0.33
308.15	0.80469	769.39	0.33
308.15	0.90245	779.73	0.32
308.15	0.95177	786.27	0.32
313.15	0.04602	734.35	0.37
313.15	0.0507	734.39	0.37
313.15	0.09287	734.95	0.37
313.15	0.18128	736.52	0.37
313.15	0.24985	738.02	0.36
313.15	0.28364	738.86	0.36
313.15	0.30044	739.3	0.36
313.15	0.33974	740.42	0.36
313.15	0.38271	741.71	0.35
313.15	0.48939	745.57	0.35
313.15	0.59429	750.42	0.34
313.15	0.69831	756.65	0.33
313.15	0.80469	765.06	0.33
313.15	0.90245	775.36	0.32
313.15	0.95177	781.89	0.32
318.15	0.04602	730.61	0.37
318.15	0.0507	730.64	0.37
318.15	0.09287	731.15	0.37
318.15	0.18128	732.63	0.36
318.15	0.24985	734.07	0.36
318.15	0.28364	734.9	0.36
318.15	0.30044	735.32	0.36
318.15	0.33974	736.4	0.35
318.15	0.38271	737.68	0.35
318.15	0.48939	741.45	0.34
318.15	0.59429	746.23	0.34
318.15	0.69831	752.33	0.33
318.15	0.80469	760.64	0.33
318.15	0.90245	770.88	0.32
318.15	0.95177	777.38	0.32
