Measured thermophysical data. Vapor-Liquid Equilibria of the Carbon Dioxide + Acetone System at Pressures from (2.36 to 11.77) MPa and Temperatures from (333.15 to 393.15) K
Source: J. Chem. Eng. Data, 2005, 10.1021/je049887v
Compound 1: carbon dioxide, CO2, InChI=1S/CO2/c2-1-3, purity 99.99%
Compound 2: acetone, C3H6O, InChI=1S/C3H6O/c1-3(2)4/h1-2H3, purity 99.5%

System: acetone + carbon dioxide; phases: Liquid, Gas
Property: Vapor or sublimation pressure, kPa (Liquid); method: CCELL:UFactor:8
Temperature, K	Mole fraction of carbon dioxide	Vapor or sublimation pressure, kPa	uncertainty
333.15	0.3254	2360	60
333.15	0.4724	3460	90
333.15	0.5499	4460	110
333.15	0.6097	5460	140
333.15	0.6592	6470	160
333.15	0.7299	7470	190
333.15	0.8349	8470	210
333.15	0.9266	8850	220
353.15	0.4857	3960	100
353.15	0.5624	4960	120
353.15	0.597	5960	150
353.15	0.6379	6970	170
353.15	0.6729	7970	200
353.15	0.7035	8970	220
353.15	0.7401	9270	230
353.15	0.8854	9740	240
373.15	0.3919	2960	70
373.15	0.575	5970	150
373.15	0.6097	7380	180
373.15	0.6279	8470	210
373.15	0.6787	9970	250
373.15	0.7196	10470	260
373.15	0.8377	10950	270
393.15	0.478	5360	130
393.15	0.5283	6360	160
393.15	0.5592	7970	200
393.15	0.5861	8970	220
393.15	0.6318	10470	260
393.15	0.6865	11770	290
393.15	0.7833	12370	310
