Measured thermophysical data. Dynamic Viscosities of KI or NH4I in Methanol and NH4I in Ethanol at Several Temperatures and 0.1 MPa
Source: J. Chem. Eng. Data, 2005, 10.1021/je049808f
Compound 1: ammonium iodide, H4IN, InChI=1S/HI.H3N/h1H;1H3
Compound 2: potassium iodide, IK, InChI=1S/HI.K/h1H;/q;+1/p-1
Compound 3: methanol, CH4O, InChI=1S/CH4O/c1-2/h2H,1H3
Compound 4: ethanol, C2H6O, InChI=1S/C2H6O/c1-2-3/h3H,2H2,1H3

System: methanol; phases: Liquid
Property: Mass density, kg/m3 (Liquid); method: VIBTUB:UFactor:8
Temperature, K	Pressure, kPa	Mass density, kg/m3	uncertainty
298.15	101.325	786.2	1.2

System: methanol; phases: Liquid
Property: Viscosity, Pa*s (Liquid); method: CAPTUB:UFactor:4
Temperature, K	Pressure, kPa	Viscosity, Pa*s	uncertainty
298.15	100	0.000545	1.9e-05

System: ethanol; phases: Liquid
Property: Mass density, kg/m3 (Liquid); method: VIBTUB:UFactor:8
Temperature, K	Pressure, kPa	Mass density, kg/m3	uncertainty
298.15	101.325	785.2	1.2

System: ethanol; phases: Liquid
Property: Viscosity, Pa*s (Liquid); method: CAPTUB:UFactor:4
Temperature, K	Pressure, kPa	Viscosity, Pa*s	uncertainty
298.15	100	0.001082	3.4e-05

System: methanol + potassium iodide; phases: Liquid
Fixed: Pressure, kPa = 100
Property: Viscosity, Pa*s (Liquid); method: CAPTUB:UFactor:4
Temperature, K	Amount concentration (molarity), mol/dm3 of potassium iodide	Viscosity, Pa*s	uncertainty
298.15	0.0906	0.000578	2e-05
298.15	0.1458	0.000598	2.1e-05
298.15	0.1806	0.000609	2.1e-05
298.15	0.2451	0.000628	2.2e-05
298.15	0.3767	0.000665	2.3e-05
298.15	0.4151	0.000677	2.3e-05
298.15	0.4787	0.000695	2.3e-05
298.15	0.5381	0.000724	2.4e-05
298.15	0.614	0.000737	2.5e-05
298.15	0.6541	0.00075	2.5e-05
303.15	0.0901	0.000539	1.9e-05
303.15	0.1449	0.000558	2e-05
303.15	0.1795	0.000568	2e-05
303.15	0.2437	0.000587	2e-05
303.15	0.3745	0.00062	2.1e-05
303.15	0.4127	0.000631	2.2e-05
303.15	0.476	0.000653	2.2e-05
303.15	0.535	0.000664	2.3e-05
303.15	0.6106	0.000685	2.3e-05
303.15	0.6505	0.000697	2.4e-05
308.15	0.0895	0.000504	1.8e-05
308.15	0.1441	0.000522	1.9e-05
308.15	0.1785	0.000532	1.9e-05
308.15	0.2423	0.000548	1.9e-05
308.15	0.3724	0.00058	2e-05
308.15	0.4104	0.00059	2.1e-05
308.15	0.4733	0.000615	2.1e-05
308.15	0.5321	0.000623	2.1e-05
308.15	0.6073	0.000639	2.2e-05
308.15	0.647	0.000651	2.2e-05
313.15	0.1432	0.000489	1.8e-05
313.15	0.1774	0.000498	1.8e-05
313.15	0.2409	0.000513	1.8e-05
313.15	0.3704	0.000543	1.9e-05
313.15	0.4081	0.000552	1.9e-05
313.15	0.4707	0.000572	2e-05
313.15	0.5291	0.00058	2e-05
313.15	0.604	0.000598	2.1e-05
313.15	0.6435	0.000608	2.1e-05

System: methanol + potassium iodide; phases: Liquid
Fixed: Pressure, kPa = 100
Property: Mass density, kg/m3 (Liquid); method: VIBTUB:UFactor:8
Temperature, K	Amount concentration (molarity), mol/dm3 of potassium iodide	Mass density, kg/m3	uncertainty
298.15	0.0906	800.8	1.1
298.15	0.1458	809	1.1
298.15	0.1806	814.3	1.1
298.15	0.2451	824.3	1
298.15	0.3767	845.3	1
298.15	0.4151	851.6	0.9
298.15	0.4787	862.2	0.9
298.15	0.5381	872.4	0.9
298.15	0.614	885.4	0.8
298.15	0.6541	892.7	0.8
303.15	0.0901	796.1	1.2
303.15	0.1449	804.3	1.1
303.15	0.1795	809.6	1.1
303.15	0.2437	819.5	1.1
303.15	0.3745	840.6	1
303.15	0.4127	846.8	1
303.15	0.476	857.5	0.9
303.15	0.535	867.6	0.9
303.15	0.6106	880.5	0.8
303.15	0.6505	887.8	0.8
308.15	0.0895	791.3	1.2
308.15	0.1441	799.6	1.1
308.15	0.1785	804.9	1.1
308.15	0.2423	814.8	1.1
308.15	0.3724	835.8	1
308.15	0.4104	842	1
308.15	0.4733	852.7	0.9
308.15	0.5321	862.8	0.9
308.15	0.6073	875.7	0.8
308.15	0.647	883	0.8
313.15	0.1432	794.8	1.2
313.15	0.1774	800.1	1.1
313.15	0.2409	810	1.1
313.15	0.3704	831.1	1
313.15	0.4081	837.2	1
313.15	0.4707	847.8	1
313.15	0.5291	858	0.9
313.15	0.604	870.8	0.9
313.15	0.6435	878.1	0.8

System: methanol + ammonium iodide; phases: Liquid
Fixed: Pressure, kPa = 100
Property: Viscosity, Pa*s (Liquid); method: CAPTUB:UFactor:4
Temperature, K	Amount concentration (molarity), mol/dm3 of ammonium iodide	Viscosity, Pa*s	uncertainty
298.15	0.1696	0.000597	2.1e-05
298.15	0.3281	0.000628	2.2e-05
298.15	0.4765	0.000674	2.3e-05
298.15	0.5841	0.000692	2.3e-05
298.15	0.5862	0.000688	2.3e-05
298.15	0.7482	0.000737	2.5e-05
298.15	0.8737	0.000771	2.6e-05
298.15	0.9947	0.000802	2.6e-05
298.15	1.1047	0.000836	2.7e-05
298.15	1.2089	0.000865	2.8e-05
298.15	1.3337	0.000903	2.9e-05
298.15	1.4165	0.00093	3e-05
298.15	1.5069	0.00096	3.1e-05
303.15	0.1686	0.000557	2e-05
303.15	0.3262	0.000586	2e-05
303.15	0.4739	0.000628	2.2e-05
303.15	0.581	0.000648	2.2e-05
303.15	0.7443	0.000688	2.3e-05
303.15	0.8692	0.000719	2.4e-05
303.15	0.9897	0.000749	2.5e-05
303.15	1.0993	0.000781	2.6e-05
303.15	1.2031	0.000809	2.7e-05
303.15	1.3273	0.000847	2.8e-05
303.15	1.4099	0.000868	2.8e-05
303.15	1.5	0.000898	2.9e-05
308.15	0.1676	0.000522	1.9e-05
308.15	0.3018	0.00054	1.9e-05
308.15	0.4712	0.000587	2e-05
308.15	0.5799	0.0006	2.1e-05
308.15	0.7404	0.000644	2.2e-05
308.15	0.8647	0.000682	2.3e-05
308.15	0.9847	0.000701	2.4e-05
308.15	1.0939	0.000729	2.4e-05
308.15	1.1972	0.000756	2.5e-05
308.15	1.321	0.000789	2.6e-05
308.15	1.4032	0.000813	2.7e-05
308.15	1.493	0.00084	2.8e-05
313.15	0.1667	0.00049	1.8e-05
313.15	0.3001	0.000506	1.8e-05
313.15	0.4686	0.000551	1.9e-05
313.15	0.5767	0.000563	2e-05
313.15	0.7364	0.000604	2.1e-05
313.15	0.8602	0.000631	2.2e-05
313.15	0.9797	0.000658	2.2e-05
313.15	1.0889	0.000685	2.3e-05
313.15	1.1913	0.00071	2.4e-05
313.15	1.3147	0.000741	2.5e-05
313.15	1.3966	0.000763	2.5e-05
313.15	1.4861	0.000788	2.6e-05

System: methanol + ammonium iodide; phases: Liquid
Fixed: Pressure, kPa = 100
Property: Mass density, kg/m3 (Liquid); method: VIBTUB:UFactor:8
Temperature, K	Amount concentration (molarity), mol/dm3 of ammonium iodide	Mass density, kg/m3	uncertainty
298.15	0.1696	807.2	1.1
298.15	0.3281	826.3	1
298.15	0.4765	845.4	1
298.15	0.5841	859.1	0.9
298.15	0.5862	859.4	0.9
298.15	0.7482	881.8	0.8
298.15	0.8737	899.4	0.8
298.15	0.9947	916.9	0.7
298.15	1.1047	933.34	0.62
298.15	1.2089	949.2	0.6
298.15	1.3337	968.4	0.5
298.15	1.4165	981.5	0.4
298.15	1.5069	996.2	0.4
303.15	0.1686	802.6	1.1
303.15	0.3262	821.6	1.1
303.15	0.4739	840.8	1
303.15	0.581	854.5	0.9
303.15	0.7443	877.2	0.8
303.15	0.8692	894.8	0.8
303.15	0.9897	912.3	0.7
303.15	1.0993	928.8	0.6
303.15	1.2031	944.6	0.6
303.15	1.3273	963.8	0.5
303.15	1.4099	976.9	0.5
303.15	1.5	991.6	0.4
308.15	0.1676	797.9	1.1
308.15	0.3018	813.9	1.1
308.15	0.4712	836.1	1
308.15	0.5799	850.1	0.9
308.15	0.7404	872.6	0.9
308.15	0.8647	890.2	0.8
308.15	0.9847	907.6	0.7
308.15	1.0939	924.3	0.7
308.15	1.1972	940	0.6
308.15	1.321	959.2	0.5
308.15	1.4032	972.3	0.5
308.15	1.493	987	0.4
313.15	0.1667	793.1	1.2
313.15	0.3001	809.2	1.1
313.15	0.4686	831.4	1
313.15	0.5767	845.4	1
313.15	0.7364	867.9	0.9
313.15	0.8602	885.5	0.8
313.15	0.9797	903	0.7
313.15	1.0889	920	0.7
313.15	1.1913	935.4	0.6
313.15	1.3147	954.6	0.7
313.15	1.3966	967.7	0.6
313.15	1.4861	982.4	0.4

System: ethanol + ammonium iodide; phases: Liquid
Fixed: Pressure, kPa = 100
Property: Viscosity, Pa*s (Liquid); method: CAPTUB:UFactor:4
Temperature, K	Amount concentration (molarity), mol/dm3 of ammonium iodide	Viscosity, Pa*s	uncertainty
298.15	0.1638	0.001229	3.8e-05
298.15	0.2289	0.001275	4e-05
298.15	0.3302	0.00135	4.2e-05
298.15	0.4015	0.001414	4.4e-05
298.15	0.4696	0.001495	4.6e-05
298.15	0.6094	0.001557	4.8e-05
298.15	0.6694	0.001598	4.9e-05
298.15	0.7343	0.001663	5.1e-05
298.15	0.8676	0.00177	5.3e-05
298.15	0.972	0.001839	5.5e-05
303.15	0.1629	0.00112	3.5e-05
303.15	0.2276	0.001161	3.7e-05
303.15	0.3285	0.001225	3.8e-05
303.15	0.3994	0.001284	4e-05
303.15	0.4673	0.001359	4.2e-05
303.15	0.6064	0.001413	4.4e-05
303.15	0.6661	0.001454	4.5e-05
303.15	0.7307	0.001499	4.6e-05
303.15	0.8635	0.001599	4.9e-05
303.15	0.9674	0.001674	5.1e-05
308.15	0.162	0.001048	3.3e-05
308.15	0.2264	0.001059	3.4e-05
308.15	0.3268	0.001117	3.5e-05
308.15	0.3974	0.001165	3.7e-05
308.15	0.4658	0.001241	3.9e-05
308.15	0.6033	0.001287	4e-05
308.15	0.6628	0.001327	4.1e-05
308.15	0.7271	0.001365	4.2e-05
308.15	0.8593	0.001459	4.5e-05
308.15	0.9628	0.001544	4.7e-05
313.15	0.1611	0.000935	3e-05
313.15	0.2252	0.000968	3.1e-05
313.15	0.3251	0.00102	3.3e-05
313.15	0.3952	0.001062	3.4e-05
313.15	0.4634	0.0011	3.5e-05
313.15	0.6003	0.001175	3.7e-05
313.15	0.6595	0.001226	3.8e-05
313.15	0.7235	0.001246	3.9e-05
313.15	0.8551	0.001324	4.1e-05
313.15	0.9582	0.001388	4.3e-05

System: ethanol + ammonium iodide; phases: Liquid
Fixed: Pressure, kPa = 100
Property: Mass density, kg/m3 (Liquid); method: VIBTUB:UFactor:8
Temperature, K	Amount concentration (molarity), mol/dm3 of ammonium iodide	Mass density, kg/m3	uncertainty
298.15	0.1638	804.1	1.1
298.15	0.2289	811.7	1.1
298.15	0.3302	823.9	1
298.15	0.4015	832.7	1
298.15	0.4696	841.1	1
298.15	0.6094	859.4	0.9
298.15	0.6694	867	0.9
298.15	0.7343	875.8	0.8
298.15	0.8676	894.5	0.8
298.15	0.972	908.9	0.7
303.15	0.1629	799.8	1.1
303.15	0.2276	807.4	1.1
303.15	0.3285	819.6	1.1
303.15	0.3994	828.4	1
303.15	0.4673	836.9	1
303.15	0.6064	855.1	0.9
303.15	0.6661	862.7	0.9
303.15	0.7307	871.6	0.9
303.15	0.8635	890.2	0.8
303.15	0.9674	904.7	0.7
308.15	0.162	795.5	1.2
308.15	0.2264	803.1	1.1
308.15	0.3268	815.3	1.1
308.15	0.3974	824.1	1
308.15	0.4658	834.2	3
308.15	0.6033	850.8	0.9
308.15	0.6628	858.4	0.9
308.15	0.7271	867.3	0.9
308.15	0.8593	885.9	0.8
308.15	0.9628	900.4	0.7
313.15	0.1611	791.1	1.2
313.15	0.2252	798.8	1.1
313.15	0.3251	811	1.1
313.15	0.3952	819.7	1.1
313.15	0.4634	829.3	1
313.15	0.6003	846.5	1
313.15	0.6595	854.1	0.9
313.15	0.7235	863	0.9
313.15	0.8551	881.6	0.8
313.15	0.9582	896.1	0.8
