Measured thermophysical data. Liquid-Liquid Equilibria for the Ternary Systems of (Water + Tetrahydrofuran + Polar Solvent) at 298.15 K
Source: J. Chem. Eng. Data, 2004, 10.1021/je049747l
Compound 1: water, H2O, InChI=1S/H2O/h1H2
Compound 2: tetrahydrofuran, C4H8O, InChI=1S/C4H8O/c1-2-4-5-3-1/h1-4H2
Compound 3: trichloroethene, C2HCl3, InChI=1S/C2HCl3/c3-1-2(4)5/h1H
Compound 4: hexan-1-ol, C6H14O, InChI=1S/C6H14O/c1-2-3-4-5-6-7/h7H,2-6H2,1H3
Compound 5: 3-methylbutyl ethanoate, C7H14O2, InChI=1S/C7H14O2/c1-6(2)4-5-9-7(3)8/h6H,4-5H2,1-3H3

System: trichloroethene + water; phases: Liquid mixture 1, Liquid mixture 2
Property: Mass fraction of water (Liquid mixture 1); method: CHROM:UFactor:4
Pressure, kPa	Temperature, K	Mass fraction of water	uncertainty
101.3	298.15	0.9982	0.0001

System: trichloroethene + water; phases: Liquid mixture 2, Liquid mixture 1
Property: Mass fraction of water (Liquid mixture 2); method: CHROM:UFactor:4
Temperature, K	Pressure, kPa	Mass fraction of water	uncertainty
298.15	101.3	0.0032	0.0001

System: hexan-1-ol + water; phases: Liquid mixture 1, Liquid mixture 2
Property: Mass fraction of water (Liquid mixture 1); method: CHROM:UFactor:4
Pressure, kPa	Temperature, K	Mass fraction of water	uncertainty
101.3	298.15	0.9914	0.0003

System: hexan-1-ol + water; phases: Liquid mixture 2, Liquid mixture 1
Property: Mass fraction of water (Liquid mixture 2); method: CHROM:UFactor:4
Temperature, K	Pressure, kPa	Mass fraction of water	uncertainty
298.15	101.3	0.0347	0.0014

System: 3-methylbutyl ethanoate + water; phases: Liquid mixture 1, Liquid mixture 2
Property: Mass fraction of water (Liquid mixture 1); method: CHROM:UFactor:4
Pressure, kPa	Temperature, K	Mass fraction of water	uncertainty
101.3	298.15	0.9935	0.0003

System: 3-methylbutyl ethanoate + water; phases: Liquid mixture 2, Liquid mixture 1
Property: Mass fraction of water (Liquid mixture 2); method: CHROM:UFactor:4
Temperature, K	Pressure, kPa	Mass fraction of water	uncertainty
298.15	101.3	0.0197	0.0008

System: trichloroethene + tetrahydrofuran + water; phases: Liquid mixture 1, Liquid mixture 2
Fixed: Pressure, kPa = 101.3
Fixed: Temperature, K = 298.15
Property: Mass fraction of tetrahydrofuran (Liquid mixture 1); method: CHROM:UFactor:4
Property: Mass fraction of water (Liquid mixture 2); method: CHROM:UFactor:4
Property: Mass fraction of tetrahydrofuran (Liquid mixture 2); method: CHROM:UFactor:4
Mass fraction of water	Mass fraction of tetrahydrofuran	uncertainty	Mass fraction of water	uncertainty	Mass fraction of tetrahydrofuran	uncertainty
0.9982	0	0.0001	0.0032	0.0001	0	
0.9483	0.0492	0.002	0.0193	0.0008	0.0714	
0.893	0.1025	0.0041	0.0247	0.001	0.1603	
0.8203	0.1726	0.0069	0.0315	0.0013	0.2865	
0.7288	0.261	0.0104	0.0504	0.002	0.4658	
0.6839	0.3018	0.0121	0.0798	0.0032	0.5861	

System: tetrahydrofuran + hexan-1-ol + water; phases: Liquid mixture 1, Liquid mixture 2
Fixed: Pressure, kPa = 101.3
Fixed: Temperature, K = 298.15
Property: Mass fraction of tetrahydrofuran (Liquid mixture 1); method: CHROM:UFactor:4
Property: Mass fraction of water (Liquid mixture 2); method: CHROM:UFactor:4
Property: Mass fraction of tetrahydrofuran (Liquid mixture 2); method: CHROM:UFactor:4
Mass fraction of water	Mass fraction of tetrahydrofuran	uncertainty	Mass fraction of water	uncertainty	Mass fraction of tetrahydrofuran	uncertainty
0.9914	0	0.0001	0.0347	0.0014	0	
0.9611	0.0294	0.0012	0.0275	0.0011	0.0742	
0.9172	0.0718	0.0029	0.0482	0.0019	0.2006	
0.8787	0.108	0.0043	0.0736	0.0029	0.3225	
0.8548	0.1305	0.0052	0.1007	0.004	0.4158	
0.8342	0.1503	0.006	0.1374	0.0055	0.4996	

System: tetrahydrofuran + 3-methylbutyl ethanoate + water; phases: Liquid mixture 1, Liquid mixture 2
Fixed: Pressure, kPa = 101.3
Fixed: Temperature, K = 298.15
Property: Mass fraction of tetrahydrofuran (Liquid mixture 1); method: CHROM:UFactor:4
Property: Mass fraction of water (Liquid mixture 2); method: CHROM:UFactor:4
Property: Mass fraction of tetrahydrofuran (Liquid mixture 2); method: CHROM:UFactor:4
Mass fraction of water	Mass fraction of tetrahydrofuran	uncertainty	Mass fraction of water	uncertainty	Mass fraction of tetrahydrofuran	uncertainty
0.9935	0	0.0001	0.0197	0.0008	0	
0.9419	0.0511	0.002	0.0223	0.0009	0.1384	
0.8846	0.1052	0.0042	0.0348	0.0014	0.3136	
0.852	0.1347	0.0054	0.0505	0.002	0.4351	
0.8295	0.155	0.0062	0.0722	0.0029	0.5363	
0.8166	0.1663	0.0067	0.1137	0.0045	0.6065	
