Measured thermophysical data. Liquid-Phase Thermodynamic Properties for Propane (1), n-Butane (2), and Isobutane (3)
Source: J. Chem. Eng. Data, 2005, 10.1021/je049672l
Compound 1: propane, C3H8, InChI=1S/C3H8/c1-3-2/h3H2,1-2H3, purity 99.99%
Compound 2: butane, C4H10, InChI=1S/C4H10/c1-3-4-2/h3-4H2,1-2H3, purity 99.99%
Compound 3: 2-methylpropane, C4H10, InChI=1S/C4H10/c1-4(2)3/h4H,1-3H3, purity 99.99%

System: propane; phases: Liquid, Gas
Property: Vapor or sublimation pressure, kPa (Liquid); method: Closed cell (Static) method
Temperature, K	Vapor or sublimation pressure, kPa	uncertainty
240	147.9	0.6
240	147.9	0.6
250	217.7	0.6
260	310.3	0.7
270	429.6	0.8
290	768.6	1.2
300	997.6	1.6
310	1272.1	2
320	1600.7	2.5
330	1988.8	3.1
340	2429.7	3.8
350	2948	4.6
360	3552.2	5.5

System: propane; phases: Liquid, Gas
Property: Mass density, kg/m3 (Liquid); method: Vibrating tube method
Temperature, K	Mass density, kg/m3	uncertainty
240	570.28	0.27
240	570.28	0.27
250	558.29	0.27
260	545.77	0.28
270	532.67	0.28
290	504.75	0.29
300	489.48	0.29
310	472.96	0.28
320	455	0.28
330	434.9	0.27
340	411.92	0.27
350	384.39	0.26
360	347.97	0.25

System: propane; phases: Fluid (supercritical or subcritical phases)
Property: Mass density, kg/m3 (Fluid (supercritical or subcritical phases)); method: Vibrating tube method
Temperature, K	Pressure, kPa	Mass density, kg/m3	uncertainty
240	527.3	570.78	0.27
240	1044.8	571.46	0.28
240	1522.4	572.08	0.29
240	1978.3	572.68	0.29
240	2477.9	573.32	0.3
240	2999.9	573.98	0.3
240	3513	574.62	0.31
240	4045.7	575.29	0.31
240	4504.5	575.85	0.32
240	4957.8	576.41	0.32
240	5475.7	577.04	0.33
240	6018.3	577.69	0.33
240	6523.2	578.3	0.34
240	7043.3	578.91	0.35
250	513.8	558.73	0.28
250	1008.1	559.47	0.28
250	1508.3	560.2	0.29
250	2008.3	560.93	0.29
250	2524.1	561.67	0.3
250	3016.9	562.38	0.3
250	3503.7	563.05	0.31
250	3993.1	563.74	0.32
250	4478.5	564.4	0.32
250	5045.1	565.17	0.33
250	5495.4	565.78	0.33
250	5999.9	566.46	0.34
250	6543.5	567.17	0.35
250	7010.3	567.78	0.35
260	506.6	546.1	0.28
260	1013.8	546.96	0.29
260	1503.5	547.77	0.29
260	1999.7	548.6	0.3
260	2504.5	549.42	0.3
260	3012.1	550.24	0.31
260	3513.3	551.04	0.31
260	4020	551.84	0.32
260	4498.9	552.58	0.33
260	5014.5	553.38	0.33
260	5513.9	554.12	0.34
260	6028.2	554.89	0.34
260	6522.8	555.62	0.35
260	7048.9	556.4	0.36
270	504.7	532.93	0.28
270	1012.9	533.91	0.29
270	1510.4	534.87	0.3
270	2005.4	535.83	0.3
270	2499.6	536.75	0.31
270	3017.5	537.7	0.31
270	3497.1	538.57	0.32
270	4018.8	539.5	0.33
270	4488.2	540.32	0.33
270	5023.8	541.26	0.34
270	5504.7	542.05	0.34
270	6021.1	542.91	0.35
270	6525.8	543.74	0.36
270	7024.1	544.55	0.36
280	1000	520.1	0.29
280	1466.1	521.15	0.3
280	1964.2	522.28	0.31
280	2513	523.49	0.31
280	3032.9	524.61	0.32
280	3519.3	525.6	0.32
280	4049.7	526.68	0.33
280	4527.5	527.65	0.34
280	4963.1	528.5	0.34
280	5443.4	529.45	0.35
280	5982.8	530.51	0.36
280	6522.6	531.56	0.36
280	7034.7	532.51	0.37
290	1499.4	506.71	0.3
290	2004.4	508.04	0.31
290	2510	509.33	0.32
290	2998.9	510.56	0.32
290	3484	511.74	0.33
290	4018.1	513.03	0.34
290	4476.9	514.12	0.34
290	5036.3	515.41	0.35
290	5531.4	516.52	0.36
290	5957.4	517.46	0.36
290	6525.4	518.7	0.37
290	7049.2	519.81	0.38
300	1517.7	491.19	0.3
300	2015.2	492.77	0.31
300	2519.2	494.32	0.32
300	3032.3	495.86	0.33
300	3486.3	497.18	0.33
300	4036.8	498.73	0.34
300	4462.1	499.91	0.35
300	4937	501.23	0.35
300	5518.9	502.75	0.36
300	6063.5	504.2	0.37
300	6496.7	505.29	0.37
300	7004.4	506.54	0.38
310	1514.4	473.96	0.3
310	2018.8	475.98	0.31
310	2491.2	477.78	0.31
310	3012.9	479.7	0.32
310	3515	481.48	0.33
310	4040.6	483.29	0.33
310	4528.9	484.91	0.34
310	5029.4	486.52	0.35
310	5529.3	488.08	0.36
310	6046.3	489.64	0.37
310	6510.1	491.02	0.37
310	6991.8	492.41	0.38
320	2011.4	457.17	0.3
320	2513.8	459.66	0.31
320	3002.1	461.96	0.31
320	3495.1	464.17	0.32
320	4025.8	466.44	0.33
320	4519.6	468.46	0.34
320	5017.9	470.44	0.34
320	5536.8	472.4	0.35
320	6024.8	474.19	0.36
320	6523.4	475.95	0.37
320	7008.9	477.63	0.37
330	2033.9	435.23	0.3
330	2537.4	438.74	0.3
330	3032	441.91	0.31
330	3546.3	445	0.31
330	3909.1	447.05	0.32
330	3995.4	447.53	0.32
330	4495.8	450.17	0.33
330	4996.1	452.66	0.33
330	5488.6	455.01	0.34
330	6010.6	457.38	0.35
330	6499.8	459.5	0.36
330	6985.1	461.52	0.37
340	3024.2	417.87	0.3
340	3507.8	422.07	0.31
340	4014	426.05	0.31
340	4501.8	429.56	0.32
340	5027.1	433.06	0.33
340	5516.7	436.1	0.33
340	5985	438.83	0.34
340	6494.7	441.64	0.35
340	6964.1	444.1	0.36
350	3541.2	393.49	0.31
350	4011.9	399.51	0.3
350	4505.9	404.94	0.31
350	5024.8	409.94	0.32
350	5521.6	414.24	0.33
350	6027.1	418.22	0.33
350	6491.4	421.59	0.34
350	6978.1	424.88	0.35
360	4043.5	362.08	0.31
360	4527.8	372.52	0.3
360	5043	380.99	0.31
360	5524.7	387.51	0.31
360	6048.5	393.63	0.32
360	6529.9	398.56	0.33
360	6953.8	402.5	0.34
370	779.8	11.91	0.2
370	1089.1	17.21	0.2
370	1515.9	25.15	0.2
370	2081.6	37.08	0.21
370	2783.7	55.36	0.22
370	4325.4	287.46	0.3
370	4521.7	312.65	0.3
370	4996.9	336.94	0.29
370	5527.4	352.01	0.3
370	5998	361.65	0.31
370	6504.8	369.98	0.32
370	7066.4	377.66	0.33
380	813.8	12.27	0.2
380	1223.8	19.12	0.2
380	1564.3	25.22	0.2
380	2032	34.39	0.21
380	2630.4	47.9	0.21
380	3340.1	67.96	0.22
380	4059	97.16	0.24
380	4059.9	97.18	0.24
380	4060.6	97.22	0.24
380	4556.5	131.82	0.29
380	5335.4	273.87	0.34
380	5530.3	291.64	0.29
380	6044.5	318.37	0.3
380	6541.5	333.99	0.3
380	7012.1	344.89	0.31

System: butane; phases: Liquid, Gas
Property: Vapor or sublimation pressure, kPa (Liquid); method: Closed cell (Static) method
Temperature, K	Vapor or sublimation pressure, kPa	uncertainty
240	26.2	2
240	23.9	0.5
260	59.9	0.5
280	131.5	0.6
300	256.4	0.6
320	454.8	0.8
340	750.5	1.2
340	751	1.2
360	1168.5	1.8
360	1168.1	1.8
380	1737.4	2.7

System: butane; phases: Liquid, Gas
Property: Mass density, kg/m3 (Liquid); method: Vibrating tube method
Temperature, K	Mass density, kg/m3	uncertainty
240	634.72	0.26
240	634.79	0.26
260	615.48	0.26
280	593.89	0.27
300	571.03	0.27
320	546.56	0.28
340	520.07	0.29
340	519.84	0.29
360	490.27	0.29
360	490.24	0.29
380	455	0.28

System: butane; phases: Fluid (supercritical or subcritical phases)
Property: Mass density, kg/m3 (Fluid (supercritical or subcritical phases)); method: Vibrating tube method
Temperature, K	Pressure, kPa	Mass density, kg/m3	uncertainty
240	486	635.96	0.26
240	1007.3	636.47	0.26
240	1510.1	636.95	0.27
240	2000.1	637.42	0.27
240	2570.2	637.97	0.28
240	3029.5	638.41	0.28
240	3512.2	638.87	0.28
240	4001.2	639.35	0.29
240	4487.8	639.8	0.29
240	5029	640.31	0.3
240	5540.8	640.78	0.3
240	5990.8	641.21	0.31
240	6517.3	641.67	0.31
240	7115.6	642.22	0.32
260	481	615.74	0.26
260	998.4	616.36	0.27
260	1521.8	616.98	0.27
260	2020.3	617.55	0.28
260	2488.3	618.09	0.28
260	3039.4	618.72	0.29
260	3506.9	619.26	0.29
260	3997	619.8	0.29
260	4494.6	620.36	0.3
260	5004.2	620.91	0.3
260	5503.1	621.46	0.31
260	6003.3	622.01	0.31
260	6478.7	622.54	0.32
260	6989.2	623.08	0.32
280	144.7	593.92	0.27
280	173.2	593.97	0.27
280	493.9	594.44	0.27
280	992	595.16	0.27
280	1472.7	595.86	0.28
280	1987.6	596.59	0.28
280	2465.8	597.26	0.29
280	2985.5	597.98	0.29
280	3516.7	598.71	0.3
280	3974.9	599.34	0.3
280	4513.6	600.07	0.31
280	4975	600.69	0.31
280	5428.9	601.3	0.32
280	5929.2	601.98	0.32
280	6499.1	602.71	0.33
280	7020	603.37	0.33
300	268.9	571.14	0.27
300	315.1	571.23	0.27
300	493.4	571.55	0.27
300	992.8	572.45	0.28
300	1491.3	573.35	0.28
300	2013.4	574.26	0.29
300	2499.1	575.12	0.29
300	2964	575.92	0.3
300	3499.9	576.83	0.31
300	3992.8	577.66	0.31
300	4525.1	578.55	0.32
300	4990.4	579.31	0.32
300	5543.6	580.23	0.33
300	5951.1	580.88	0.33
300	6459.3	581.65	0.34
300	7089.3	582.62	0.34
320	515.9	546.74	0.28
320	1002.9	547.89	0.29
320	1502.7	549.06	0.29
320	2011.8	550.22	0.3
320	2517.1	551.36	0.3
320	3010.6	552.45	0.31
320	3523.1	553.55	0.31
320	4015.6	554.6	0.32
320	4017.2	554.6	0.32
320	4513.3	555.64	0.33
320	4992.8	556.63	0.33
320	5473.8	557.6	0.34
320	6031	558.74	0.34
320	6510.5	559.67	0.35
320	6982.1	560.62	0.35
340	761.5	519.87	0.29
340	791.7	519.97	0.29
340	989.9	520.64	0.29
340	1519.5	522.33	0.3
340	1975.7	523.74	0.31
340	2514.4	525.36	0.31
340	3012.7	526.82	0.32
340	3504.4	528.23	0.32
340	4034.7	529.7	0.33
340	4437.7	530.79	0.33
340	4964.4	532.19	0.34
340	5471	533.51	0.35
340	5975.4	534.78	0.35
340	6451.2	535.97	0.36
340	7014.5	537.36	0.37
360	1181.7	490.31	0.3
360	1215.8	490.48	0.3
360	1507.5	491.85	0.3
360	2006.4	494.12	0.31
360	2493.7	496.23	0.32
360	2995.1	498.32	0.33
360	3489.7	500.29	0.33
360	3993.1	502.23	0.34
360	4488.7	504.06	0.35
360	4984.1	505.83	0.35
360	5504.8	507.65	0.36
360	5979.4	509.32	0.37
360	6486.7	510.96	0.37
360	7012.4	512.64	0.38
380	1845.2	455.88	0.3
380	1925.7	456.51	0.3
380	2007.2	457.14	0.3
380	2503.7	460.77	0.31
380	3010.6	464.17	0.31
380	3502	467.25	0.32
380	3999.9	470.18	0.33
380	4508.9	473	0.34
380	5015.7	475.66	0.35
380	5511.1	478.12	0.35
380	6013.8	480.51	0.36
380	6534.9	482.88	0.37
380	6978	484.82	0.38

System: 2-methylpropane; phases: Liquid, Gas
Property: Vapor or sublimation pressure, kPa (Liquid); method: Closed cell (Static) method
Temperature, K	Vapor or sublimation pressure, kPa	uncertainty
240	40.1	0.5
260	94.6	0.5
280	197.8	0.6
300	368.6	0.7
320	632.5	1
340	1013.7	1.6
360	1541.6	2.4
380	2250.4	3.5

System: 2-methylpropane; phases: Liquid, Gas
Property: Mass density, kg/m3 (Liquid); method: Vibrating tube method
Temperature, K	Mass density, kg/m3	uncertainty
240	617.17	0.26
260	595.32	0.27
280	572.74	0.27
300	548.27	0.28
320	521.48	0.29
340	491.87	0.29
360	457.33	0.28
380	413.34	0.27

System: 2-methylpropane; phases: Fluid (supercritical or subcritical phases)
Property: Mass density, kg/m3 (Fluid (supercritical or subcritical phases)); method: Vibrating tube method
Temperature, K	Pressure, kPa	Mass density, kg/m3	uncertainty
240	484.1	617.68	0.26
240	1027.4	618.3	0.27
240	1538.4	618.86	0.27
240	2037.8	619.41	0.28
240	2522.8	619.95	0.28
240	3029.3	620.49	0.29
240	3501.9	621	0.29
240	4038.4	621.58	0.29
240	4542.1	622.1	0.3
240	5022.8	622.62	0.3
240	5522.1	623.14	0.31
240	5987.3	623.62	0.31
240	6540.8	624.19	0.32
240	7010.9	624.66	0.32
260	517.1	595.93	0.27
260	947.4	596.52	0.27
260	1503.8	597.28	0.28
260	1984.7	597.94	0.28
260	2532	598.66	0.29
260	3005.3	599.28	0.29
260	3472.2	599.9	0.3
260	4015.9	600.6	0.3
260	4464.7	601.16	0.31
260	4915.7	601.73	0.31
260	5481.6	602.44	0.32
260	5953.7	603.05	0.32
260	6532	603.75	0.33
260	7031.7	604.37	0.33
280	512.2	573.26	0.27
280	996	574.1	0.28
280	1532.9	575.01	0.28
280	2000.6	575.8	0.29
280	2508.1	576.64	0.29
280	2999.4	577.44	0.3
280	3506	578.27	0.3
280	4015.2	579.09	0.31
280	4460.5	579.8	0.31
280	4938.8	580.54	0.32
280	5494.5	581.39	0.33
280	5986.9	582.16	0.33
280	6507.2	582.93	0.34
280	6980.4	583.64	0.34
300	476.5	548.51	0.28
300	1017.6	549.71	0.29
300	1462.4	550.7	0.29
300	1999.9	551.86	0.3
300	2533.3	552.99	0.3
300	3021.3	554.01	0.31
300	3526.2	555.05	0.31
300	3965.8	555.93	0.32
300	4482.8	556.96	0.32
300	4980.2	557.93	0.33
300	5467.8	558.87	0.34
300	5953.2	559.79	0.34
300	6460.3	560.72	0.35
300	7025.2	561.79	0.35
320	1063	522.78	0.29
320	1503.5	524.1	0.3
320	2072.9	525.74	0.31
320	2548.7	527.08	0.31
320	3037.4	528.43	0.32
320	3521.6	529.72	0.32
320	4027.5	531.05	0.33
320	4496.4	532.26	0.33
320	4946.7	533.39	0.34
320	5450.3	534.62	0.35
320	5960.5	535.86	0.35
320	6511.5	537.15	0.36
320	6995.3	538.27	0.37
340	1494.6	493.98	0.3
340	2007.1	496.16	0.31
340	2499.6	498.13	0.32
340	3002.8	500.07	0.33
340	3503.8	501.94	0.33
340	4023.8	503.83	0.34
340	4507.3	505.51	0.35
340	5017.1	507.23	0.35
340	5520.7	508.89	0.36
340	5998.3	510.42	0.37
340	6512.9	512.03	0.37
340	6962.7	513.39	0.38
360	2008.5	460.57	0.3
360	2503.6	463.81	0.31
360	2997.5	466.82	0.32
360	3502.9	469.71	0.32
360	4027.6	472.55	0.33
360	4532.2	475.11	0.34
360	5024.7	477.51	0.35
360	5482.2	479.63	0.35
360	6006.8	481.96	0.36
360	6485.4	484.01	0.37
360	6987.7	486.08	0.38
380	2517.9	417.11	0.29
380	3027.5	423.54	0.3
380	3511	428.79	0.31
380	4014.9	433.63	0.32
380	4487.2	437.71	0.32
380	4990.6	441.69	0.33
380	5519.1	445.53	0.34
380	6019.7	448.91	0.35
380	6503.3	451.96	0.35
380	6952.1	454.64	0.36
