Measured thermophysical data. Liquid Thermal Conductivities of Acetonitrile, Diethyl Sulfide, Hexamethyleneimine, Tetrahydrothiophene, and Tetramethylethylenediamine
Source: J. Chem. Eng. Data, 2004, 10.1021/je0498661
Compound 1: acetonitrile, C2H3N, InChI=1S/C2H3N/c1-2-3/h1H3
Compound 2: 3-thiapentane, C4H10S, InChI=1S/C4H10S/c1-3-5-4-2/h3-4H2,1-2H3
Compound 3: azacycloheptane, C6H13N, InChI=1S/C6H13N/c1-2-4-6-7-5-3-1/h7H,1-6H2
Compound 4: tetrahydrothiophene, C4H8S, InChI=1S/C4H8S/c1-2-4-5-3-1/h1-4H2
Compound 5: N,N,N',N'-tetramethyl-1,2-diaminoethane, C6H16N2, InChI=1S/C6H16N2/c1-7(2)5-6-8(3)4/h5-6H2,1-4H3

System: acetonitrile; phases: Liquid
Fixed: Pressure, kPa = 101.325
Property: Thermal conductivity, W/m/K (Liquid); method: Hot wire method
Temperature, K	Thermal conductivity, W/m/K	uncertainty
273.15	0.207	0.004
293.15	0.195	0.004
313.15	0.183	0.004

System: 3-thiapentane; phases: Liquid
Fixed: Pressure, kPa = 101.325
Property: Thermal conductivity, W/m/K (Liquid); method: Hot wire method
Temperature, K	Thermal conductivity, W/m/K	uncertainty
273.15	0.145	0.003
293.15	0.14	0.003
313.15	0.137	0.003
333.15	0.13	0.003

System: azacycloheptane; phases: Liquid
Fixed: Pressure, kPa = 101.325
Property: Thermal conductivity, W/m/K (Liquid); method: Hot wire method
Temperature, K	Thermal conductivity, W/m/K	uncertainty
273.15	0.141	0.003
293.15	0.137	0.003
313.15	0.131	0.003
333.15	0.126	0.003

System: tetrahydrothiophene; phases: Liquid
Fixed: Pressure, kPa = 101.325
Property: Thermal conductivity, W/m/K (Liquid); method: Hot wire method
Temperature, K	Thermal conductivity, W/m/K	uncertainty
273.15	0.12	0.003
288.15	0.117	0.002
303.15	0.115	0.002
318.15	0.112	0.002
333.15	0.11	0.002

System: N,N,N',N'-tetramethyl-1,2-diaminoethane; phases: Liquid
Fixed: Pressure, kPa = 101.325
Property: Thermal conductivity, W/m/K (Liquid); method: Hot wire method
Temperature, K	Thermal conductivity, W/m/K	uncertainty
273.15	0.154	0.003
293.15	0.15	0.003
313.15	0.144	0.003
333.15	0.135	0.003
