Measured thermophysical data. Viscosities, Densities, and Speeds of Sound of Binary Mixtures of o-Xylene, m-Xylene, p-Xylene, and Isopropylbenzene with 4-Methylpentan-2-one at 298.15 K
Source: J. Chem. Eng. Data, 2004, 10.1021/je049899g
Compound 1: 1,2-dimethylbenzene, C8H10, InChI=1S/C8H10/c1-7-5-3-4-6-8(7)2/h3-6H,1-2H3
Compound 2: 1,3-dimethylbenzene, C8H10, InChI=1S/C8H10/c1-7-4-3-5-8(2)6-7/h3-6H,1-2H3
Compound 3: 1,4-dimethylbenzene, C8H10, InChI=1S/C8H10/c1-7-3-5-8(2)6-4-7/h3-6H,1-2H3
Compound 4: isopropylbenzene, C9H12, InChI=1S/C9H12/c1-8(2)9-6-4-3-5-7-9/h3-8H,1-2H3
Compound 5: 4-methylpentan-2-one, C6H12O, InChI=1S/C6H12O/c1-5(2)4-6(3)7/h5H,4H2,1-3H3

System: 1,2-dimethylbenzene; phases: Liquid
Property: Viscosity, Pa*s (Liquid); method: Capillary tube (Ostwald; Ubbelohde) method
Temperature, K	Pressure, kPa	Viscosity, Pa*s	uncertainty
298.15	101.325	0.000769	2e-05

System: 1,2-dimethylbenzene; phases: Liquid
Property: Speed of sound, m/s (Liquid); method: Sing-around technique in a fixed-path interferometer
Temperature, K	Pressure, kPa	Speed of sound, m/s	uncertainty
298.15	101.325	1349	5

System: 1,2-dimethylbenzene; phases: Liquid
Property: Mass density, kg/m3 (Liquid); method: Vibrating tube method
Temperature, K	Pressure, kPa	Mass density, kg/m3	uncertainty
298.15	101.325	875.2	2.3

System: 1,3-dimethylbenzene; phases: Liquid
Property: Viscosity, Pa*s (Liquid); method: Capillary tube (Ostwald; Ubbelohde) method
Temperature, K	Pressure, kPa	Viscosity, Pa*s	uncertainty
298.15	101.325	0.000587	1.6e-05

System: 1,3-dimethylbenzene; phases: Liquid
Property: Speed of sound, m/s (Liquid); method: Sing-around technique in a fixed-path interferometer
Temperature, K	Pressure, kPa	Speed of sound, m/s	uncertainty
298.15	101.325	1323	5

System: 1,3-dimethylbenzene; phases: Liquid
Property: Mass density, kg/m3 (Liquid); method: Vibrating tube method
Temperature, K	Pressure, kPa	Mass density, kg/m3	uncertainty
298.15	101.325	859.4	2.3

System: 1,4-dimethylbenzene; phases: Liquid
Property: Viscosity, Pa*s (Liquid); method: Capillary tube (Ostwald; Ubbelohde) method
Temperature, K	Pressure, kPa	Viscosity, Pa*s	uncertainty
298.15	101.325	0.000609	1.6e-05

System: 1,4-dimethylbenzene; phases: Liquid
Property: Speed of sound, m/s (Liquid); method: Sing-around technique in a fixed-path interferometer
Temperature, K	Pressure, kPa	Speed of sound, m/s	uncertainty
298.15	101.325	1316	5

System: 1,4-dimethylbenzene; phases: Liquid
Property: Mass density, kg/m3 (Liquid); method: Vibrating tube method
Temperature, K	Pressure, kPa	Mass density, kg/m3	uncertainty
298.15	101.325	856.1	2.3

System: isopropylbenzene; phases: Liquid
Property: Viscosity, Pa*s (Liquid); method: Capillary tube (Ostwald; Ubbelohde) method
Temperature, K	Pressure, kPa	Viscosity, Pa*s	uncertainty
298.15	101.325	0.000739	2e-05

System: isopropylbenzene; phases: Liquid
Property: Speed of sound, m/s (Liquid); method: Sing-around technique in a fixed-path interferometer
Temperature, K	Pressure, kPa	Speed of sound, m/s	uncertainty
298.15	101.325	1338	5

System: isopropylbenzene; phases: Liquid
Property: Mass density, kg/m3 (Liquid); method: Vibrating tube method
Temperature, K	Pressure, kPa	Mass density, kg/m3	uncertainty
298.15	101.325	857.1	2.3

System: 4-methylpentan-2-one; phases: Liquid
Property: Viscosity, Pa*s (Liquid); method: Capillary tube (Ostwald; Ubbelohde) method
Temperature, K	Pressure, kPa	Viscosity, Pa*s	uncertainty
298.15	101.325	0.00055	1.5e-05

System: 4-methylpentan-2-one; phases: Liquid
Property: Speed of sound, m/s (Liquid); method: Sing-around technique in a fixed-path interferometer
Temperature, K	Pressure, kPa	Speed of sound, m/s	uncertainty
298.15	101.325	1215	5

System: 4-methylpentan-2-one; phases: Liquid
Property: Mass density, kg/m3 (Liquid); method: Vibrating tube method
Temperature, K	Pressure, kPa	Mass density, kg/m3	uncertainty
298.15	101.325	796	2.1

System: 1,2-dimethylbenzene + 4-methylpentan-2-one; phases: Liquid
Fixed: Temperature, K = 298.15
Fixed: Pressure, kPa = 101.325
Property: Viscosity, Pa*s (Liquid); method: Capillary tube (Ostwald; Ubbelohde) method
Mole fraction of 1,2-dimethylbenzene	Viscosity, Pa*s	uncertainty
0	0.00055	1.5e-05
0.0598	0.000562	1.5e-05
0.1483	0.000577	1.5e-05
0.2932	0.000605	1.6e-05
0.4368	0.000631	1.7e-05
0.582	0.000662	1.8e-05
0.7227	0.000694	1.8e-05
0.8635	0.00073	1.9e-05
0.9457	0.000751	2e-05
1	0.000769	2e-05

System: 1,2-dimethylbenzene + 4-methylpentan-2-one; phases: Liquid
Fixed: Temperature, K = 298.15
Fixed: Pressure, kPa = 101.325
Property: Speed of sound, m/s (Liquid); method: Sing-around technique in a fixed-path interferometer
Mole fraction of 1,2-dimethylbenzene	Speed of sound, m/s	uncertainty
0	1215	5
0.0598	1214	5
0.1483	1220	5
0.2932	1237	5
0.4368	1263	5
0.582	1294	5
0.7227	1318	5
0.8635	1336	5
0.9457	1345	5
1	1349	5

System: 1,2-dimethylbenzene + 4-methylpentan-2-one; phases: Liquid
Fixed: Temperature, K = 298.15
Fixed: Pressure, kPa = 101.325
Property: Mass density, kg/m3 (Liquid); method: Vibrating tube method
Mole fraction of 1,2-dimethylbenzene	Mass density, kg/m3	uncertainty
0	796	2.1
0.0598	801.3	2.1
0.1483	808.9	2.1
0.2932	820.7	2.2
0.4368	832.2	2.2
0.582	843.4	2.2
0.7227	854.5	2.3
0.8635	865.1	2.3
0.9457	871.2	2.3
1	875.2	2.3

System: 4-methylpentan-2-one + 1,3-dimethylbenzene; phases: Liquid
Fixed: Temperature, K = 298.15
Fixed: Pressure, kPa = 101.325
Property: Viscosity, Pa*s (Liquid); method: Capillary tube (Ostwald; Ubbelohde) method
Mole fraction of 1,3-dimethylbenzene	Viscosity, Pa*s	uncertainty
0	0.00055	1.5e-05
0.0586	0.000554	1.5e-05
0.1483	0.000558	1.5e-05
0.2898	0.000564	1.5e-05
0.4312	0.000567	1.5e-05
0.5762	0.000569	1.5e-05
0.7187	0.000572	1.5e-05
0.8591	0.000577	1.5e-05
0.9429	0.000582	1.5e-05
1	0.000587	1.6e-05

System: 4-methylpentan-2-one + 1,3-dimethylbenzene; phases: Liquid
Fixed: Temperature, K = 298.15
Fixed: Pressure, kPa = 101.325
Property: Speed of sound, m/s (Liquid); method: Sing-around technique in a fixed-path interferometer
Mole fraction of 1,3-dimethylbenzene	Speed of sound, m/s	uncertainty
0	1215	5
0.0586	1207	5
0.1483	1212	5
0.2898	1233	5
0.4312	1257	5
0.5762	1280	5
0.7187	1299	5
0.8591	1314	5
0.9429	1321	5
1	1323	5

System: 4-methylpentan-2-one + 1,3-dimethylbenzene; phases: Liquid
Fixed: Temperature, K = 298.15
Fixed: Pressure, kPa = 101.325
Property: Mass density, kg/m3 (Liquid); method: Vibrating tube method
Mole fraction of 1,3-dimethylbenzene	Mass density, kg/m3	uncertainty
0	796	2.1
0.0586	801.4	2.1
0.1483	809.5	2.1
0.2898	821.2	2.2
0.4312	830.5	2.2
0.5762	837.4	2.2
0.7187	842.8	2.2
0.8591	849	2.2
0.9429	854.4	2.3
1	859.4	2.3

System: 1,4-dimethylbenzene + 4-methylpentan-2-one; phases: Liquid
Fixed: Temperature, K = 298.15
Fixed: Pressure, kPa = 101.325
Property: Viscosity, Pa*s (Liquid); method: Capillary tube (Ostwald; Ubbelohde) method
Mole fraction of 1,4-dimethylbenzene	Viscosity, Pa*s	uncertainty
0	0.00055	1.5e-05
0.059	0.000553	1.5e-05
0.1454	0.000556	1.5e-05
0.2887	0.000562	1.5e-05
0.4325	0.000567	1.5e-05
0.5735	0.000572	1.5e-05
0.7166	0.000579	1.5e-05
0.8587	0.000591	1.6e-05
0.9419	0.0006	1.6e-05
1	0.000609	1.6e-05

System: 1,4-dimethylbenzene + 4-methylpentan-2-one; phases: Liquid
Fixed: Temperature, K = 298.15
Fixed: Pressure, kPa = 101.325
Property: Speed of sound, m/s (Liquid); method: Sing-around technique in a fixed-path interferometer
Mole fraction of 1,4-dimethylbenzene	Speed of sound, m/s	uncertainty
0	1215	5
0.059	1215	5
0.1454	1226	5
0.2887	1248	5
0.4325	1267	5
0.5735	1284	5
0.7166	1300	5
0.8587	1311	5
0.9419	1315	5
1	1316	5

System: 1,4-dimethylbenzene + 4-methylpentan-2-one; phases: Liquid
Fixed: Temperature, K = 298.15
Fixed: Pressure, kPa = 101.325
Property: Mass density, kg/m3 (Liquid); method: Vibrating tube method
Mole fraction of 1,4-dimethylbenzene	Mass density, kg/m3	uncertainty
0	796	2.1
0.059	800.1	2.1
0.1454	805.8	2.1
0.2887	814.9	2.1
0.4325	823.6	2.2
0.5735	832.2	2.2
0.7166	840.5	2.2
0.8587	848.4	2.2
0.9419	853	2.2
1	856.1	2.3

System: isopropylbenzene + 4-methylpentan-2-one; phases: Liquid
Fixed: Temperature, K = 298.15
Fixed: Pressure, kPa = 101.325
Property: Viscosity, Pa*s (Liquid); method: Capillary tube (Ostwald; Ubbelohde) method
Mole fraction of isopropylbenzene	Viscosity, Pa*s	uncertainty
0	0.00055	1.5e-05
0.0518	0.000563	1.5e-05
0.1305	0.000579	1.5e-05
0.2631	0.0006	1.6e-05
0.4022	0.000621	1.6e-05
0.5439	0.000645	1.7e-05
0.6917	0.000672	1.8e-05
0.842	0.000704	1.9e-05
0.9355	0.000725	1.9e-05
1	0.000739	2e-05

System: isopropylbenzene + 4-methylpentan-2-one; phases: Liquid
Fixed: Temperature, K = 298.15
Fixed: Pressure, kPa = 101.325
Property: Speed of sound, m/s (Liquid); method: Sing-around technique in a fixed-path interferometer
Mole fraction of isopropylbenzene	Speed of sound, m/s	uncertainty
0	1215	5
0.0518	1227	5
0.1305	1231	5
0.2631	1234	5
0.4022	1246	5
0.5439	1262	5
0.6917	1282	5
0.842	1309	5
0.9355	1325	5
1	1338	5

System: isopropylbenzene + 4-methylpentan-2-one; phases: Liquid
Fixed: Temperature, K = 298.15
Fixed: Pressure, kPa = 101.325
Property: Mass density, kg/m3 (Liquid); method: Vibrating tube method
Mole fraction of isopropylbenzene	Mass density, kg/m3	uncertainty
0	796	2.1
0.0518	799.4	2.1
0.1305	804.6	2.1
0.2631	813.4	2.1
0.4022	822.6	2.2
0.5439	831.5	2.2
0.6917	840.3	2.2
0.842	848.7	2.2
0.9355	853.7	2.3
1	857.1	2.3
