Measured thermophysical data. Phase Behavior of the Binary Mixture of Cyclohexyl Acrylate and Cyclohexyl Methacrylate in Supercritical Carbon Dioxide
Source: J. Chem. Eng. Data, 2005, 10.1021/je0497707
Compound 1: 2-propenoic acid, cyclohexyl ester, C9H14O2, InChI=1S/C9H14O2/c1-2-9(10)11-8-6-4-3-5-7-8/h2,8H,1,3-7H2, purity 85%
Compound 2: 2-propenoic acid, 2-methyl-, cyclohexyl ester, C10H16O2, InChI=1S/C10H16O2/c1-8(2)10(11)12-9-6-4-3-5-7-9/h9H,1,3-7H2,2H3, purity 98%
Compound 3: carbon dioxide, CO2, InChI=1S/CO2/c2-1-3

System: carbon dioxide + 2-propenoic acid, cyclohexyl ester; phases: Liquid, Gas
Property: Critical pressure, kPa (Liquid); method: DIRECT:UFactor:128
Mole fraction of 2-propenoic acid, cyclohexyl ester	Critical pressure, kPa	uncertainty
0.017	8740	510
0.03	11760	510
0.051	14930	510

System: carbon dioxide + 2-propenoic acid, cyclohexyl ester; phases: Liquid, Gas
Property: Critical temperature, K (Liquid); method: Visual observation in an unstirred cell
Mole fraction of 2-propenoic acid, cyclohexyl ester	Critical temperature, K	uncertainty
0.017	313.2	0.4
0.03	333.2	0.4
0.051	353.2	0.4

System: carbon dioxide + 2-propenoic acid, cyclohexyl ester; phases: Liquid, Gas
Property: Vapor or sublimation pressure, kPa (Liquid); method: CCELL:UFactor:16
Temperature, K	Mole fraction of 2-propenoic acid, cyclohexyl ester	Vapor or sublimation pressure, kPa	uncertainty
313.2	0.03	8720	560
313.2	0.051	8140	530
313.2	0.086	7860	510
313.2	0.133	7780	500
313.2	0.237	7070	460
313.2	0.297	6550	430
313.2	0.355	5890	380
313.2	0.363	5930	390
313.2	0.405	5410	360
313.2	0.458	4660	310
313.2	0.564	4030	270
313.2	0.67	2780	190
313.2	0.764	1690	120
333.2	0.051	11430	730
333.2	0.086	11410	730
333.2	0.133	11130	720
333.2	0.237	9640	620
333.2	0.297	8850	570
333.2	0.355	7860	510
333.2	0.363	7850	510
333.2	0.405	7310	480
333.2	0.458	6020	400
333.2	0.564	5030	330
333.2	0.67	3330	220
333.2	0.764	2260	150
353.2	0.086	14720	950
353.2	0.133	14470	930
353.2	0.237	12590	810
353.2	0.297	11350	740
353.2	0.355	9910	650
353.2	0.363	9860	640
353.2	0.405	9100	590
353.2	0.458	7740	510
353.2	0.564	6140	410
353.2	0.67	4050	270
353.2	0.764	2590	180
373.2	0.133	17670	1130
373.2	0.237	15470	1000
373.2	0.297	13810	890
373.2	0.355	12280	800
373.2	0.363	11950	780
373.2	0.405	11020	720
373.2	0.458	9070	590
373.2	0.564	7290	480
373.2	0.67	4690	320
373.2	0.764	2950	200
393.2	0.133	19980	1280
393.2	0.237	17850	1150
393.2	0.297	16090	1040
393.2	0.355	14350	930
393.2	0.363	13850	900
393.2	0.405	12900	840
393.2	0.458	10410	680
393.2	0.564	8310	550
393.2	0.67	5400	360
393.2	0.764	3350	230

System: carbon dioxide + 2-propenoic acid, cyclohexyl ester; phases: Gas, Liquid
Property: Vapor or sublimation pressure, kPa (Gas); method: CCELL:UFactor:8
Temperature, K	Mole fraction of 2-propenoic acid, cyclohexyl ester	Vapor or sublimation pressure, kPa	uncertainty
313.2	0.002	8350	300
333.2	0.002	10470	370
333.2	0.017	11430	410
353.2	0.002	11900	420
353.2	0.017	13830	490
353.2	0.03	14350	510
373.2	0.017	15430	550
373.2	0.03	16550	590
373.2	0.051	17500	620
373.2	0.086	17640	630
393.2	0.017	15790	560
393.2	0.03	17930	630
393.2	0.051	19460	690
393.2	0.086	19950	710

System: 2-propenoic acid, 2-methyl-, cyclohexyl ester + carbon dioxide; phases: Liquid, Gas
Property: Critical pressure, kPa (Liquid); method: DIRECT:UFactor:256
Mole fraction of 2-propenoic acid, 2-methyl-, cyclohexyl ester	Critical pressure, kPa	uncertainty
0.034	8640	2050
0.05	12210	2050
0.05	15450	2050
0.071	18210	2050
0.071	20590	2050

System: 2-propenoic acid, 2-methyl-, cyclohexyl ester + carbon dioxide; phases: Liquid, Gas
Property: Critical temperature, K (Liquid); method: Visual observation in an unstirred cell
Mole fraction of 2-propenoic acid, 2-methyl-, cyclohexyl ester	Critical temperature, K	uncertainty
0.034	313.2	0.3
0.05	333.2	0.3
0.05	353.2	0.3
0.071	373.2	0.3
0.071	393.2	0.3

System: 2-propenoic acid, 2-methyl-, cyclohexyl ester + carbon dioxide; phases: Liquid, Gas
Property: Vapor or sublimation pressure, kPa (Liquid); method: CCELL:UFactor:16
Temperature, K	Mole fraction of 2-propenoic acid, 2-methyl-, cyclohexyl ester	Vapor or sublimation pressure, kPa	uncertainty
313.2	0.05	8620	560
313.2	0.071	7970	520
313.2	0.085	8140	530
313.2	0.114	7970	520
313.2	0.162	7620	490
313.2	0.206	7400	480
313.2	0.317	6070	390
313.2	0.399	5520	360
313.2	0.518	4280	280
313.2	0.609	3520	230
313.2	0.793	2030	130
333.2	0.071	11780	760
333.2	0.085	11790	760
333.2	0.114	11570	740
333.2	0.162	10860	700
333.2	0.206	10240	660
333.2	0.317	8520	550
333.2	0.399	7310	470
333.2	0.518	5500	350
333.2	0.609	4400	280
333.2	0.793	2520	160
353.2	0.071	15280	980
353.2	0.085	15310	980
353.2	0.114	15190	970
353.2	0.162	14170	910
353.2	0.206	13240	850
353.2	0.317	10880	700
353.2	0.399	9260	590
353.2	0.518	6930	440
353.2	0.609	5310	340
353.2	0.793	2900	190
373.2	0.085	18070	1160
373.2	0.114	18050	1160
373.2	0.162	17530	1120
373.2	0.206	16050	1030
373.2	0.317	13120	840
373.2	0.399	11170	720
373.2	0.518	8170	520
373.2	0.609	6470	420
373.2	0.793	3360	220
393.2	0.085	20590	1320
393.2	0.114	20410	1310
393.2	0.162	19790	1270
393.2	0.206	18450	1180
393.2	0.317	15030	960
393.2	0.399	12980	830
393.2	0.518	9290	600
393.2	0.609	7330	470
393.2	0.793	3850	250

System: 2-propenoic acid, 2-methyl-, cyclohexyl ester + carbon dioxide; phases: Gas, Liquid
Property: Vapor or sublimation pressure, kPa (Gas); method: CCELL:UFactor:8
Temperature, K	Mole fraction of 2-propenoic acid, 2-methyl-, cyclohexyl ester	Vapor or sublimation pressure, kPa	uncertainty
313.2	0.012	8520	280
333.2	0.012	11170	360
333.2	0.034	11620	380
353.2	0.012	13860	450
353.2	0.034	14880	480
373.2	0.012	15210	490
373.2	0.034	17330	560
373.2	0.05	18100	580
393.2	0.012	15660	500
393.2	0.034	19190	610
393.2	0.05	20260	650
