Measured thermophysical data. Vapor-Liquid Equilibrium for the Difluoromethane (R32) + n-Butane (R600) System
Source: J. Chem. Eng. Data, 2005, 10.1021/je049874h
Compound 1: difluoromethane, CH2F2, InChI=1S/CH2F2/c2-1-3/h1H2, purity 99.99%
Compound 2: butane, C4H10, InChI=1S/C4H10/c1-3-4-2/h3-4H2,1-2H3, purity 99%

System: difluoromethane; phases: Liquid, Gas
Property: Vapor or sublimation pressure, kPa (Liquid); method: CCELL:UFactor:2
Temperature, K	Vapor or sublimation pressure, kPa	uncertainty
263.15	580.2	2.8
278.15	949.6	3.6
293.15	1473.2	4.8

System: butane; phases: Liquid, Gas
Property: Vapor or sublimation pressure, kPa (Liquid); method: CCELL:UFactor:2
Temperature, K	Vapor or sublimation pressure, kPa	uncertainty
263.15	69.6	2
278.15	125.1	2
293.15	209.4	2.1

System: difluoromethane + butane; phases: Liquid, Gas
Fixed: Temperature, K = 263.15
Property: Vapor or sublimation pressure, kPa (Liquid); method: CCELL:UFactor:2
Mole fraction of difluoromethane	Vapor or sublimation pressure, kPa	uncertainty
0.652	207.3	6.5
0.7895	345.1	6.7

System: difluoromethane + butane; phases: Liquid, Gas
Property: Azeotropic composition: mole fraction of difluoromethane (Liquid); method: By X=Y
Temperature, K	Azeotropic composition: mole fraction of difluoromethane	uncertainty
263.15	0.941	0.006
278.15	0.95	0.006
293.15	0.971	0.006

System: difluoromethane + butane; phases: Liquid, Gas
Property: Azeotropic composition: mole fraction of difluoromethane (Liquid); method: By X=Y
Pressure, kPa	Azeotropic composition: mole fraction of difluoromethane	uncertainty
591	0.941	0.006
960	0.95	0.006
1480	0.971	0.006

System: difluoromethane + butane; phases: Liquid, Gas
Property: Vapor or sublimation pressure, kPa (Liquid); method: CCELL:UFactor:2
Mole fraction of difluoromethane	Temperature, K	Vapor or sublimation pressure, kPa	uncertainty
0	263.15	69.6	2.1
0	278.15	125.1	2.2
0	293.15	209.4	2.4
0.0267	278.15	278.5	26.5
0.0353	293.15	441	33.8
0.0609	278.15	410.8	17
0.073	293.15	619	26.3
0.0903	263.15	346.3	13.2
0.1114	293.15	770.9	19.6
0.1452	278.15	614.8	12.1
0.1766	293.15	951.6	14.1
0.1847	263.15	468.4	5.5
0.2553	278.15	760.1	7.6
0.2649	293.15	1098.1	10.7
0.3451	278.15	826.6	6
0.3499	263.15	539.2	4.5
0.3942	293.15	1246	9.3
0.4223	263.15	556.6	4
0.5286	263.15	568.7	4
0.5287	278.15	893.7	6
0.5867	293.15	1360.4	9.2
0.7009	263.15	579	4.4
0.7045	278.15	927.9	6
0.7144	263.15	574.8	4.4
0.7149	293.15	1412.5	9.2
0.7909	263.15	585.6	4.1
0.8286	293.15	1452.7	9.4
0.834	278.15	948.3	6.1
0.8509	293.15	1460.2	9.4
0.8858	263.15	591.7	4.1
0.9115	278.15	960.4	28.1
0.9174	293.15	1480.2	9.4
0.9197	278.15	961.2	6.4
0.9409	263.15	593.8	4.1
0.9496	278.15	963	6.2
0.9526	293.15	1484.8	9.3
0.9643	263.15	592.5	4.2
0.9803	278.15	961.2	6.9
0.9844	293.15	1480.8	9.4
0.9931	263.15	585.4	4
1	263.15	580.2	4
1	278.15	949.6	6
1	293.15	1473.2	9.3

System: difluoromethane + butane; phases: Gas, Liquid
Property: Mole fraction of difluoromethane (Gas); method: Chromatography
Mole fraction of difluoromethane	Temperature, K	Mole fraction of difluoromethane	uncertainty
0	263.15	0	
0	278.15	0	
0	293.15	0	
0.0267	278.15	0.54	0.0676
0.0353	293.15	0.5124	0.054
0.0609	278.15	0.6903	0.0138
0.073	293.15	0.6546	0.0179
0.0903	263.15	0.7936	0.0284
0.1114	293.15	0.7232	0.0096
0.1452	278.15	0.7969	0.0079
0.1766	293.15	0.7803	0.0072
0.1847	263.15	0.8579	0.0064
0.2553	278.15	0.8424	0.0064
0.2649	293.15	0.8153	0.0065
0.3451	278.15	0.8594	0.0062
0.3499	263.15	0.8821	0.0061
0.3942	293.15	0.8445	0.0062
0.4223	263.15	0.8883	0.0061
0.5286	263.15	0.8906	0.0061
0.5287	278.15	0.8779	0.0061
0.5867	293.15	0.8674	0.0061
0.7009	263.15	0.8967	0.0061
0.7045	278.15	0.8914	0.0061
0.7144	263.15	0.8979	0.0061
0.7149	293.15	0.8822	0.0061
0.7909	263.15	0.9022	0.0061
0.8286	293.15	0.9016	0.0062
0.834	278.15	0.9054	0.0062
0.8509	293.15	0.907	0.0064
0.8858	263.15	0.9164	0.0062
0.9115	278.15	0.9302	0.0065
0.9174	293.15	0.9326	0.0067
0.9197	278.15	0.9311	0.0068
0.9409	263.15	0.9407	0.0067
0.9496	278.15	0.9497	0.0075
0.9526	293.15	0.9559	0.0074
0.9643	263.15	0.9565	0.0083
0.9803	278.15	0.9753	0.0084
0.9844	293.15	0.9817	0.0081
0.9931	263.15	0.9898	0.006
1	263.15	1	
1	278.15	1	
1	293.15	1	
