Measured thermophysical data. Experimental and predicted viscosities of the ternary mixture (hexane + 1,3-dioxolane + 2-butanol) at 298.15 and 313.15 K
Source: J. Chem. Eng. Data, 2005, 10.1021/je049576k
Compound 1: hexane, C6H14, InChI=1S/C6H14/c1-3-5-6-4-2/h3-6H2,1-2H3, purity 99%
Compound 2: 1,3-dioxolane, C3H6O2, InChI=1S/C3H6O2/c1-2-5-3-4-1/h1-3H2, purity 99%
Compound 3: butan-2-ol, C4H10O, InChI=1S/C4H10O/c1-3-4(2)5/h4-5H,3H2,1-2H3, purity 99%

System: hexane; phases: Liquid
Property: Mass density, kg/m3 (Liquid); method: VIBTUB:UFactor:4
Temperature, K	Pressure, kPa	Mass density, kg/m3	uncertainty
298.15	101.325	655.07	0.75

System: hexane; phases: Liquid
Property: Mass density, kg/m3 (Liquid); method: VIBTUB:UFactor:4
Temperature, K	Pressure, kPa	Mass density, kg/m3	uncertainty
313.15	101.325	641.27	0.77

System: hexane; phases: Liquid
Fixed: Pressure, kPa = 101.325
Property: Viscosity, Pa*s (Liquid); method: CAPTUB:UFactor:2
Temperature, K	Viscosity, Pa*s	uncertainty
298.15	0.0002951	5e-06
313.15	0.0002552	4.5e-06

System: 1,3-dioxolane; phases: Liquid
Property: Mass density, kg/m3 (Liquid); method: VIBTUB:UFactor:4
Temperature, K	Pressure, kPa	Mass density, kg/m3	uncertainty
298.15	101.325	1058.62	0.58

System: 1,3-dioxolane; phases: Liquid
Property: Mass density, kg/m3 (Liquid); method: VIBTUB:UFactor:4
Temperature, K	Pressure, kPa	Mass density, kg/m3	uncertainty
313.15	101.325	1039.97	0.56

System: 1,3-dioxolane; phases: Liquid
Fixed: Pressure, kPa = 101.325
Property: Viscosity, Pa*s (Liquid); method: CAPTUB:UFactor:2
Temperature, K	Viscosity, Pa*s	uncertainty
298.15	0.0005886	8.4e-06
313.15	0.0004985	7.4e-06

System: butan-2-ol; phases: Liquid
Property: Mass density, kg/m3 (Liquid); method: VIBTUB:UFactor:4
Temperature, K	Pressure, kPa	Mass density, kg/m3	uncertainty
298.15	101.325	802.2	0.6

System: butan-2-ol; phases: Liquid
Property: Mass density, kg/m3 (Liquid); method: VIBTUB:UFactor:4
Temperature, K	Pressure, kPa	Mass density, kg/m3	uncertainty
313.15	101.325	789.59	0.61

System: butan-2-ol; phases: Liquid
Fixed: Pressure, kPa = 101.325
Property: Viscosity, Pa*s (Liquid); method: CAPTUB:UFactor:2
Temperature, K	Viscosity, Pa*s	uncertainty
298.15	0.0030427	3.72e-05
313.15	0.0017913	2.26e-05

System: butan-2-ol + hexane + 1,3-dioxolane; phases: Liquid, Air at 1 atmosphere
Property: Kinematic viscosity, m2/s (Liquid); method: CAPTUB:UFactor:2
Temperature, K	Mole fraction of hexane	Mole fraction of 1,3-dioxolane	Kinematic viscosity, m2/s	uncertainty
298.15	0.0481	0.8526	5.743e-07	8.3e-09
298.15	0.0491	0.0985	1.957e-06	2.46e-08
298.15	0.05	0.9015	5.698e-07	8.2e-09
298.15	0.051	0.049	2.3805e-06	2.96e-08
298.15	0.0975	0.6045	6.571e-07	9.3e-09
298.15	0.0982	0.851	5.451e-07	7.9e-09
298.15	0.0987	0.4033	8.494e-07	1.15e-08
298.15	0.0989	0.6998	5.987e-07	8.6e-09
298.15	0.0991	0.5003	7.404e-07	1.02e-08
298.15	0.0992	0.0969	1.612e-06	2.05e-08
298.15	0.1002	0.292	1.036e-06	1.37e-08
298.15	0.1003	0.051	1.911e-06	2.41e-08
298.15	0.1013	0.1993	1.202e-06	1.57e-08
298.15	0.1016	0.8015	5.515e-07	8e-09
298.15	0.1978	0.3019	8.143e-07	1.11e-08
298.15	0.198	0.7021	5.318e-07	7.8e-09
298.15	0.1997	0.0955	1.189e-06	1.55e-08
298.15	0.1997	0.4027	7.056e-07	9.8e-09
298.15	0.2001	0.6002	5.734e-07	8.3e-09
298.15	0.2005	0.5029	6.337e-07	9e-09
298.15	0.2019	0.1978	9.687e-07	1.29e-08
298.15	0.2969	0.4044	6.077e-07	8.7e-09
298.15	0.2995	0.5026	5.608e-07	8.1e-09
298.15	0.2998	0.3005	6.839e-07	9.6e-09
298.15	0.3003	0.5983	5.135e-07	7.6e-09
298.15	0.3018	0.1992	7.846e-07	1.08e-08
298.15	0.3027	0.0956	9.465e-07	1.27e-08
298.15	0.3991	0.5007	5.002e-07	7.4e-09
298.15	0.3998	0.4012	5.374e-07	7.8e-09
298.15	0.4017	0.0978	7.681e-07	1.06e-08
298.15	0.4027	0.1974	6.722e-07	9.4e-09
298.15	0.4058	0.2949	5.916e-07	8.5e-09
298.15	0.4968	0.4008	4.889e-07	7.3e-09
298.15	0.4982	0.3017	5.25e-07	7.7e-09
298.15	0.5016	0.0971	6.502e-07	9.2e-09
298.15	0.5016	0.1974	5.782e-07	8.3e-09
298.15	0.601	0.202	5.14e-07	7.6e-09
298.15	0.6042	0.0956	5.703e-07	8.2e-09
298.15	0.6081	0.2952	4.761e-07	7.1e-09
298.15	0.7003	0.0984	5.104e-07	7.5e-09
298.15	0.7043	0.1986	4.702e-07	7e-09
298.15	0.8029	0.1023	4.674e-07	7e-09
298.15	0.8472	0.1021	4.543e-07	6.9e-09
298.15	0.8511	0.0523	4.702e-07	7e-09
298.15	0.8964	0.0556	4.548e-07	6.9e-09
313.15	0.0481	0.8526	4.929e-07	7.3e-09
313.15	0.0491	0.0985	1.358e-06	1.75e-08
313.15	0.05	0.9015	4.928e-07	7.3e-09
313.15	0.051	0.049	1.575e-06	2.01e-08
313.15	0.0975	0.6045	5.51e-07	8e-09
313.15	0.0982	0.851	4.688e-07	7e-09
313.15	0.0987	0.4033	6.853e-07	9.6e-09
313.15	0.0989	0.6998	5.096e-07	7.5e-09
313.15	0.0991	0.5003	6.103e-07	8.7e-09
313.15	0.0992	0.0969	1.161e-06	1.52e-08
313.15	0.1002	0.292	8.119e-07	1.11e-08
313.15	0.1003	0.051	1.321e-06	1.71e-08
313.15	0.1013	0.1993	9.262e-07	1.24e-08
313.15	0.1016	0.8015	4.829e-07	7.2e-09
313.15	0.1978	0.3019	6.591e-07	9.3e-09
313.15	0.198	0.7021	4.599e-07	6.9e-09
313.15	0.1997	0.0955	9.01e-07	1.21e-08
313.15	0.1997	0.4027	5.856e-07	8.4e-09
313.15	0.2001	0.6002	4.893e-07	7.3e-09
313.15	0.2005	0.5029	5.281e-07	7.7e-09
313.15	0.2019	0.1978	7.598e-07	1.05e-08
313.15	0.2969	0.4044	5.122e-07	7.5e-09
313.15	0.2995	0.5026	5.042e-07	7.4e-09
313.15	0.2998	0.3005	5.66e-07	8.2e-09
313.15	0.3003	0.5983	4.447e-07	6.7e-09
313.15	0.3018	0.1992	6.358e-07	9e-09
313.15	0.3027	0.0956	7.398e-07	1.02e-08
313.15	0.3991	0.5007	4.34e-07	6.6e-09
313.15	0.3998	0.4012	4.615e-07	6.9e-09
313.15	0.4017	0.0978	6.278e-07	8.9e-09
313.15	0.4027	0.1974	5.516e-07	8e-09
313.15	0.4058	0.2949	4.993e-07	7.4e-09
313.15	0.4968	0.4008	4.248e-07	6.5e-09
313.15	0.4982	0.3017	4.522e-07	6.8e-09
313.15	0.5016	0.0971	5.42e-07	7.9e-09
313.15	0.5016	0.1974	4.971e-07	7.4e-09
313.15	0.601	0.202	4.445e-07	6.7e-09
313.15	0.6042	0.0956	4.84e-07	7.2e-09
313.15	0.6081	0.2952	4.147e-07	6.4e-09
313.15	0.7003	0.0984	4.434e-07	6.7e-09
313.15	0.7043	0.1986	4.109e-07	6.3e-09
313.15	0.8029	0.1023	4.106e-07	6.3e-09
313.15	0.8472	0.1021	3.988e-07	6.2e-09
313.15	0.8511	0.0523	4.115e-07	6.3e-09
313.15	0.8964	0.0556	3.997e-07	6.2e-09

System: butan-2-ol + hexane + 1,3-dioxolane; phases: Liquid, Air at 1 atmosphere
Property: Mass density, kg/m3 (Liquid); method: VIBTUB:UFactor:4
Temperature, K	Mole fraction of hexane	Mole fraction of 1,3-dioxolane	Mass density, kg/m3	uncertainty
298.15	0.0481	0.8526	991.53	0.52
298.15	0.0491	0.0985	809.16	0.59
298.15	0.05	0.9015	1006.63	0.53
298.15	0.051	0.049	799.89	0.59
298.15	0.0975	0.6045	906.02	0.53
298.15	0.0982	0.851	974.57	0.52
298.15	0.0987	0.4033	858.53	0.55
298.15	0.0989	0.6998	930.56	0.53
298.15	0.0991	0.5003	880.29	0.54
298.15	0.0992	0.0969	798.24	0.59
298.15	0.1002	0.292	834.84	0.57
298.15	0.1003	0.051	790.04	0.6
298.15	0.1013	0.1993	816.5	0.58
298.15	0.1016	0.8015	958.55	0.52
298.15	0.1978	0.3019	814.71	0.58
298.15	0.198	0.7021	903.09	0.53
298.15	0.1997	0.0955	777.81	0.61
298.15	0.1997	0.4027	834.07	0.57
298.15	0.2001	0.6002	877.29	0.54
298.15	0.2005	0.5029	855.02	0.56
298.15	0.2019	0.1978	794.82	0.6
298.15	0.2969	0.4044	812.97	0.58
298.15	0.2995	0.5026	831.99	0.57
298.15	0.2998	0.3005	793.19	0.6
298.15	0.3003	0.5983	852.48	0.56
298.15	0.3018	0.1992	775.42	0.61
298.15	0.3027	0.0956	758.64	0.63
298.15	0.3991	0.5007	810.65	0.59
298.15	0.3998	0.4012	791.71	0.6
298.15	0.4017	0.0978	741.96	0.64
298.15	0.4027	0.1974	756.91	0.63
298.15	0.4058	0.2949	772.12	0.62
298.15	0.4968	0.4008	773.93	0.62
298.15	0.4982	0.3017	757.21	0.63
298.15	0.5016	0.0971	726.11	0.66
298.15	0.5016	0.1974	740.58	0.65
298.15	0.601	0.202	726.19	0.66
298.15	0.6042	0.0956	711.1	0.68
298.15	0.6081	0.2952	738.83	0.65
298.15	0.7003	0.0984	698.75	0.69
298.15	0.7043	0.1986	711.45	0.67
298.15	0.8029	0.1023	686.82	0.7
298.15	0.8472	0.1021	681.87	0.71
298.15	0.8511	0.0523	675.39	0.71
298.15	0.8964	0.0556	671.09	0.72
313.15	0.0481	0.8526	973.8	0.52
313.15	0.0491	0.0985	795.62	0.6
313.15	0.05	0.9015	988.58	0.52
313.15	0.051	0.049	786.74	0.6
313.15	0.0975	0.6045	889.76	0.54
313.15	0.0982	0.851	956.62	0.52
313.15	0.0987	0.4033	843.33	0.56
313.15	0.0989	0.6998	913.67	0.53
313.15	0.0991	0.5003	864.62	0.55
313.15	0.0992	0.0969	784.63	0.61
313.15	0.1002	0.292	820.14	0.58
313.15	0.1003	0.051	776.78	0.61
313.15	0.1013	0.1993	802.25	0.59
313.15	0.1016	0.8015	940.91	0.52
313.15	0.1978	0.3019	799.8	0.59
313.15	0.198	0.7021	885.71	0.54
313.15	0.1997	0.0955	763.98	0.62
313.15	0.1997	0.4027	818.66	0.58
313.15	0.2001	0.6002	860.67	0.55
313.15	0.2005	0.5029	839.05	0.57
313.15	0.2019	0.1978	780.41	0.61
313.15	0.2969	0.4044	797.44	0.6
313.15	0.2995	0.5026	815.88	0.58
313.15	0.2998	0.3005	778.16	0.61
313.15	0.3003	0.5983	835.69	0.57
313.15	0.3018	0.1992	760.84	0.63
313.15	0.3027	0.0956	744.57	0.64
313.15	0.3991	0.5007	794.57	0.6
313.15	0.3998	0.4012	776.17	0.61
313.15	0.4017	0.0978	727.71	0.66
313.15	0.4027	0.1974	742.24	0.64
313.15	0.4058	0.2949	757.06	0.63
313.15	0.4968	0.4008	758.48	0.63
313.15	0.4982	0.3017	742.11	0.64
313.15	0.5016	0.0971	711.74	0.67
313.15	0.5016	0.1974	725.83	0.66
313.15	0.601	0.202	711.34	0.68
313.15	0.6042	0.0956	696.64	0.69
313.15	0.6081	0.2952	723.76	0.66
313.15	0.7003	0.0984	684.13	0.7
313.15	0.7043	0.1986	696.5	0.69
313.15	0.8029	0.1023	672.03	0.72
313.15	0.8472	0.1021	667.05	0.72
313.15	0.8511	0.0523	660.84	0.73
313.15	0.8964	0.0556	656.52	0.74
