Measured thermophysical data. Solubilities of 4-Carboxybenzaldehyde and 1,4-Benzenedicarboxylic Acid in N-Methyl-2-pyrrolidone in the Temperature Range from (343.2 to 468.2) K
Source: J. Chem. Eng. Data, 2005, 10.1021/je049706p
Compound 1: 4-carboxybenzaldehyde, C8H6O3, InChI=1S/C8H6O3/c9-5-6-1-3-7(4-2-6)8(10)11/h1-5H,(H,10,11), purity 98%
Compound 2: 1,4-benzenedicarboxylic acid, C8H6O4, InChI=1S/C8H6O4/c9-7(10)5-1-2-6(4-3-5)8(11)12/h1-4H,(H,9,10)(H,11,12), purity 99.5%
Compound 3: N-methylpyrrolidone, C5H9NO, InChI=1S/C5H9NO/c1-6-4-2-3-5(6)7/h2-4H2,1H3

System: N-methylpyrrolidone; phases: Liquid
Property: Refractive index (Na D-line) (Liquid); method: Standard Abbe refractometry
Temperature, K	Pressure, kPa	Refractive index (Na D-line)	uncertainty
293.1	101.325	1.4686	0.0012

System: 4-carboxybenzaldehyde + N-methylpyrrolidone; phases: Liquid, Crystal
Fixed: Pressure, kPa = 1600
Property: Mass ratio of solute to solvent (Liquid); method: gravimetric
Temperature, K	Mass ratio of solute to solvent	uncertainty
353.2	0.652	0.013
357.2	0.692	0.014
361.2	0.741	0.015
365.2	0.78	0.016
369.2	0.84	0.017
373.2	0.896	0.018
377.2	0.952	0.019
381.2	1.031	0.021
385.2	1.1	0.022
389.2	1.166	0.024
393.2	1.255	0.025
397.2	1.324	0.027
401.2	1.429	0.029
405.2	1.525	0.031
409.2	1.623	0.033
413.2	1.74	0.035
417.2	1.87	0.038
421.2	1.997	0.04

System: 1,4-benzenedicarboxylic acid + N-methylpyrrolidone; phases: Liquid, Crystal
Fixed: Pressure, kPa = 1600
Property: Mass ratio of solute to solvent (Liquid); method: gravimetric
Temperature, K	Mass ratio of solute to solvent	uncertainty
343.2	0.109	0.004
348.2	0.124	0.005
353.2	0.133	0.005
358.2	0.15	0.006
363.2	0.159	0.006
368.2	0.171	0.007
373.2	0.178	0.007
378.2	0.195	0.008
383.2	0.214	0.009
388.2	0.231	0.009
393.2	0.26	0.01
398.2	0.272	0.011
403.2	0.302	0.012
408.2	0.337	0.014
413.2	0.353	0.014
418.2	0.395	0.016
423.2	0.427	0.017
428.2	0.468	0.019
433.2	0.494	0.02
438.2	0.556	0.022
443.2	0.614	0.025
448.2	0.66	0.027
453.2	0.731	0.029
458.2	0.826	0.033
463.2	0.922	0.037
468.2	1.036	0.042
