Measured thermophysical data. Thermodynamic Investigation of Uracil and Its Halo Derivatives. Enthalpies of Solution and Solvation in Methanol
Source: J. Chem. Eng. Data, 2005, 10.1021/je049656o
Compound 1: 2,4(1H,3H)-pyrimidinedione, C4H4N2O2, InChI=1S/C4H4N2O2/c7-3-1-2-5-4(8)6-3/h1-2H,(H2,5,6,7,8)
Compound 2: 5-fluoro-2,4(1H,3H)-pyrimidinedione, C4H3FN2O2, InChI=1S/C4H3FN2O2/c5-2-1-6-4(9)7-3(2)8/h1H,(H2,6,7,8,9)
Compound 3: 5-chloro-2,4-pyrimidinedione, C4H3ClN2O2, InChI=1S/C4H3ClN2O2/c5-2-1-6-4(9)7-3(2)8/h1H,(H2,6,7,8,9)
Compound 4: 5-bromouracil, C4H3BrN2O2, InChI=1S/C4H3BrN2O2/c5-2-1-6-4(9)7-3(2)8/h1H,(H2,6,7,8,9)
Compound 5: 6-chlorouracil, C4H3ClN2O2, InChI=1S/C4H3ClN2O2/c5-2-1-3(8)7-4(9)6-2/h1H,(H2,6,7,8,9)
Compound 6: 5-iodouracil, C4H3IN2O2, InChI=1S/C4H3IN2O2/c5-2-1-6-4(9)7-3(2)8/h1H,(H2,6,7,8,9)
Compound 7: 5-(trifluoromethyl)uracil, C5H3F3N2O2, InChI=1S/C5H3F3N2O2/c6-5(7,8)2-1-9-4(12)10-3(2)11/h1H,(H2,9,10,11,12)
Compound 8: methanol, CH4O, InChI=1S/CH4O/c1-2/h2H,1H3, purity 99.8%

System: 2,4(1H,3H)-pyrimidinedione + methanol; phases: Liquid
Fixed: Temperature, K = 298.15
Fixed: Pressure, kPa = 101.325
Property: Molar enthalpy of solution, kJ/mol (Liquid); method: CALVET:UFactor:4
Molality, mol/kg of 2,4(1H,3H)-pyrimidinedione	Molar enthalpy of solution, kJ/mol	uncertainty
0.000848	14.95	0.6
0.000858	15.06	0.6
0.00105	13.99	0.56
0.00109	13.99	0.56
0.001223	13.67	0.55
0.001317	13.69	0.55

System: 5-fluoro-2,4(1H,3H)-pyrimidinedione + methanol; phases: Liquid
Fixed: Temperature, K = 298.15
Fixed: Pressure, kPa = 101.325
Property: Molar enthalpy of solution, kJ/mol (Liquid); method: CALVET:UFactor:4
Molality, mol/kg of 5-fluoro-2,4(1H,3H)-pyrimidinedione	Molar enthalpy of solution, kJ/mol	uncertainty
0.000844	14.48	0.58
0.000963	14.4	0.58
0.001039	14.28	0.57
0.00126	14.34	0.57
0.001578	14.33	0.57
0.001848	14.53	0.58

System: methanol + 5-chloro-2,4-pyrimidinedione; phases: Liquid
Fixed: Temperature, K = 298.15
Fixed: Pressure, kPa = 101.325
Property: Molar enthalpy of solution, kJ/mol (Liquid); method: CALVET:UFactor:8
Molality, mol/kg of 5-chloro-2,4-pyrimidinedione	Molar enthalpy of solution, kJ/mol	uncertainty
0.000652	8.85	0.71
0.000899	9.62	0.77
0.000901	9.58	0.77
0.000954	9.31	0.74
0.000982	8.83	0.71
0.001245	8.85	0.71

System: 5-bromouracil + methanol; phases: Liquid
Fixed: Temperature, K = 298.15
Fixed: Pressure, kPa = 101.325
Property: Molar enthalpy of solution, kJ/mol (Liquid); method: CALVET:UFactor:8
Molality, mol/kg of 5-bromouracil	Molar enthalpy of solution, kJ/mol	uncertainty
0.000472	14.77	1.18
0.000548	14.01	1.12
0.000563	15.61	1.25
0.00102	15	1.2
0.001023	15.1	1.21
0.00125	14.56	1.16

System: methanol + 6-chlorouracil; phases: Liquid
Fixed: Temperature, K = 298.15
Fixed: Pressure, kPa = 101.325
Property: Molar enthalpy of solution, kJ/mol (Liquid); method: CALVET:UFactor:4
Molality, mol/kg of 6-chlorouracil	Molar enthalpy of solution, kJ/mol	uncertainty
0.000624	16.84	0.67
0.000862	16.98	0.68
0.000948	17.27	0.69
0.001116	16.9	0.68
0.001609	17.9	0.72
0.00168	17.38	0.7

System: methanol + 5-iodouracil; phases: Liquid
Fixed: Temperature, K = 298.15
Fixed: Pressure, kPa = 101.325
Property: Molar enthalpy of solution, kJ/mol (Liquid); method: CALVET:UFactor:4
Molality, mol/kg of 5-iodouracil	Molar enthalpy of solution, kJ/mol	uncertainty
0.000481	18.3	0.73
0.000487	18.22	0.73
0.000551	17.65	0.71
0.000618	18.27	0.73
0.000626	18.02	0.72
0.000769	17.58	0.7

System: 5-(trifluoromethyl)uracil + methanol; phases: Liquid
Fixed: Temperature, K = 298.15
Fixed: Pressure, kPa = 101.325
Property: Molar enthalpy of solution, kJ/mol (Liquid); method: CALVET:UFactor:4
Molality, mol/kg of 5-(trifluoromethyl)uracil	Molar enthalpy of solution, kJ/mol	uncertainty
0.000648	16.01	0.64
0.000687	16.52	0.66
0.000724	15.7	0.63
0.00076	15.08	0.6
0.000813	15.01	0.6
0.000845	15.8	0.63
