Measured thermophysical data. Gas Solubility Measurement and Modeling for the Nitrogen + Water System from 274.18 K to 363.02 K
Source: J. Chem. Eng. Data, 2004, 10.1021/je049869d
Compound 1: nitrogen, N2, InChI=1S/N2/c1-2, purity 99.995%
Compound 2: water, H2O, InChI=1S/H2O/h1H2

System: nitrogen + water; phases: Liquid, Gas
Property: Mole fraction of nitrogen (Liquid); method: Chromatography
Temperature, K	Pressure, kPa	Mole fraction of nitrogen	uncertainty
274.18	3006	0.000511	1.6e-05
274.18	3837	0.000636	2e-05
274.19	979	0.000176	5e-06
274.19	1900	0.000325	1e-05
274.19	4868	0.000795	2.5e-05
274.21	5993	0.000963	3e-05
274.26	6775	0.001073	3.3e-05
278.05	5900	0.000871	2.7e-05
278.15	971	0.000155	5e-06
278.16	4934	0.000739	2.3e-05
278.17	6916	0.001015	3.1e-05
278.19	2990	0.000468	1.4e-05
278.19	3990	0.000613	1.9e-05
278.21	1763	0.000286	9e-06
283.12	1012	0.000144	4e-06
283.13	2413	0.000344	1.1e-05
283.13	4877	0.000668	2.1e-05
283.16	7160	0.000954	2.9e-05
283.18	5825	0.000797	2.5e-05
288.09	2395	0.000316	1e-05
288.11	966	0.000132	4e-06
288.11	4042	0.000517	1.6e-05
288.11	5444	0.000683	2.1e-05
288.11	7003	0.000861	2.7e-05
293.08	2511	0.000302	9e-06
293.09	3964	0.00047	1.5e-05
293.09	5655	0.000657	2e-05
293.09	6945	0.000788	2.4e-05
293.12	984	0.000119	4e-06
298.04	6967	0.000746	2.3e-05
298.07	1004	0.000114	4e-06
298.08	4745	0.000521	1.6e-05
298.1	2233	0.000259	8e-06
298.1	3717	0.000411	1.3e-05
308.18	2196	0.000215	7e-06
308.18	4180	0.0004	1.2e-05
308.19	7032	0.000655	2e-05
308.23	1040	0.000103	3e-06
323.13	915	8.4e-05	3e-06
323.13	2031	0.000185	6e-06
323.13	3542	0.000303	9e-06
323.13	4957	0.000417	1.3e-05
323.14	7043	0.000593	1.8e-05
342.92	2424	0.000193	6e-06
342.98	4956	0.00039	1.2e-05
342.98	6941	0.000535	1.6e-05
342.99	992	7.7e-05	2e-06
362.9	1001	7.4e-05	2e-06
362.9	1900	0.000146	5e-06
362.92	4776	0.000358	1.1e-05
363	3396	0.000252	8e-06
363.02	6842	0.000515	1.6e-05
