Measured thermophysical data. Solubilities of p-Aminophenol in Sulfuric acid + Water from (286.15 to 362.80) K
Source: J. Chem. Eng. Data, 2005, 10.1021/je049552d
Compound 1: 4-hydroxybenzenamine, C6H7NO, InChI=1S/C6H7NO/c7-5-1-3-6(8)4-2-5/h1-4,8H,7H2
Compound 2: sulfuric acid, H2O4S, InChI=1S/H2O4S/c1-5(2,3)4/h(H2,1,2,3,4), purity 99%
Compound 3: water, H2O, InChI=1S/H2O/h1H2

System: 4-hydroxybenzenamine + water; phases: Liquid, Crystal
Fixed: Pressure, kPa = 101.325
Property: Mole fraction of 4-hydroxybenzenamine (Liquid); method: laser monitoring observation
Temperature, K	Mole fraction of 4-hydroxybenzenamine	uncertainty
286.15	0.000639	2e-05
298.2	0.001048	3.2e-05
303.25	0.001303	4.1e-05
313.55	0.001844	5.7e-05
317.1	0.002099	6.5e-05
323.15	0.002563	8e-05
331.25	0.003463	0.000107
337.65	0.004387	0.000136
345.1	0.005593	0.000172
348.9	0.006254	0.000192
353.15	0.007215	0.000222

System: 4-hydroxybenzenamine + sulfuric acid + water; phases: Liquid, Crystal
Fixed: Pressure, kPa = 101.325
Property: Mole fraction of 4-hydroxybenzenamine (Liquid); method: laser monitoring observation
Solvent: Mass fraction of sulfuric acid	Temperature, K	Mole fraction of 4-hydroxybenzenamine	uncertainty
0	286.15	0.000639	2e-05
0	298.2	0.001048	3.2e-05
0	303.25	0.001303	4.1e-05
0	313.55	0.001844	5.7e-05
0	317.1	0.002099	6.5e-05
0	323.15	0.002563	8e-05
0	331.25	0.003463	0.000107
0	337.65	0.004387	0.000136
0	345.1	0.005593	0.000172
0	348.9	0.006254	0.000192
0	353.15	0.007215	0.000222
0.05	289.1	0.01073	0.00033
0.05	292.65	0.01166	0.00035
0.05	296.55	0.01249	0.00038
0.05	307.05	0.01459	0.00044
0.05	317.75	0.01621	0.00049
0.05	323.05	0.01712	0.00052
0.05	328.95	0.01804	0.00054
0.05	336.65	0.01924	0.00058
0.1	288.25	0.01231	0.00038
0.1	291.95	0.01356	0.00041
0.1	297.25	0.01531	0.00047
0.1	304.65	0.01756	0.00053
0.1	311.55	0.01961	0.00059
0.1	318.35	0.02162	0.00065
0.1	324.83	0.02331	0.0007
0.1	332.25	0.02516	0.00076
0.1	338.65	0.02686	0.00081
0.1	344.11	0.02795	0.00084
0.1	350.18	0.02943	0.00089
0.1	355.86	0.03079	0.00093
0.15	286.65	0.01252	0.00038
0.15	289.35	0.01359	0.00042
0.15	291.95	0.01483	0.00046
0.15	294.63	0.01595	0.00049
0.15	304.75	0.02075	0.00065
0.15	306.35	0.02152	0.00066
0.15	311.55	0.02393	0.00073
0.15	316.05	0.02607	0.00079
0.15	321.75	0.02844	0.00086
0.15	334.65	0.03336	0.00101
0.15	344.65	0.03671	0.00111
0.15	357.45	0.03995	0.0012
0.15	362.35	0.0411	0.00124
0.2	292.35	0.01585	0.00049
0.2	297.36	0.01869	0.00058
0.2	302.5	0.02199	0.00067
0.2	309.05	0.02609	0.0008
0.2	315.35	0.03005	0.00091
0.2	322.25	0.03413	0.00103
0.2	326.85	0.0369	0.00112
0.2	335.8	0.04107	0.00124
0.2	342.45	0.04423	0.00133
0.2	344.25	0.04534	0.00137
0.2	351.75	0.04797	0.00145
0.2	358.57	0.05044	0.00152
0.25	290.15	0.01492	0.00046
0.25	293.3	0.01656	0.00051
0.25	298.75	0.0203	0.00063
0.25	302.75	0.02302	0.00071
0.25	304.96	0.02448	0.00075
0.25	307.05	0.02587	0.00079
0.25	310.85	0.02912	0.00089
0.25	316.05	0.03321	0.00101
0.25	321.1	0.03721	0.00113
0.25	326.9	0.04176	0.00127
0.25	333.05	0.04589	0.00139
0.25	340.45	0.05033	0.00152
0.25	344.9	0.05373	0.00162
0.25	353.35	0.05789	0.00174
0.25	362.8	0.06141	0.00185
0.3	289.05	0.01389	0.00044
0.3	293.75	0.01673	0.00052
0.3	298.95	0.02053	0.00064
0.3	302.85	0.02401	0.00075
0.3	304.25	0.02538	0.00079
0.3	306.95	0.02775	0.00086
0.3	311.35	0.03193	0.00098
0.3	315.2	0.0359	0.0011
0.3	319.05	0.04002	0.00122
0.3	323.65	0.04422	0.00135
0.3	328.95	0.04968	0.00151
0.3	329.65	0.05048	0.00154
0.3	334.1	0.05559	0.00169
0.3	339.35	0.06039	0.00183
