Measured thermophysical data. Solubility of Ferulic Acid and Tetramethylpyrazine in Supercritical Carbon Dioxide
Source: J. Chem. Eng. Data, 2005, 10.1021/je049715y
Compound 1: carbon dioxide, CO2, InChI=1S/CO2/c2-1-3, purity 99.9%
Compound 2: 4-hydroxy-3-methoxycinnamic acid, C10H10O4, InChI=1S/C10H10O4/c1-14-9-6-7(2-4-8(9)11)3-5-10(12)13/h2-6,11H,1H3,(H,12,13), purity 99%
Compound 3: tetramethylpyrazine, C8H12N2, InChI=1S/C8H12N2/c1-5-6(2)10-8(4)7(3)9-5/h1-4H3, purity 98%

System: carbon dioxide + 4-hydroxy-3-methoxycinnamic acid; phases: Fluid (supercritical or subcritical phases), Crystal
Property: Mole fraction of 4-hydroxy-3-methoxycinnamic acid (Fluid (supercritical or subcritical phases)); method: UV spectrophotometer analysis of solute and gas volume
Temperature, K	Pressure, kPa	Mole fraction of 4-hydroxy-3-methoxycinnamic acid	uncertainty
308	10000	6.936e-07	1.389e-07
308	15000	8.299e-07	1.662e-07
308	20000	9.292e-07	1.861e-07
308	25000	1.0279e-06	2.059e-07
308	30000	1.1791e-06	2.363e-07
308	35000	1.3617e-06	2.73e-07
318	10000	4.574e-07	9.21e-08
318	15000	9.245e-07	1.854e-07
318	20000	1.1378e-06	2.28e-07
318	25000	1.3781e-06	2.762e-07
318	30000	1.6596e-06	3.326e-07
318	35000	1.8299e-06	3.665e-07
328	10000	2.551e-07	5.29e-08
328	15000	9.966e-07	2.001e-07
328	20000	1.2619e-06	2.529e-07
328	25000	1.6014e-06	3.21e-07
328	30000	1.8841e-06	3.776e-07
328	35000	2.1323e-06	4.275e-07
338	10000	2.195e-07	4.63e-08
338	15000	9.509e-07	1.911e-07
338	20000	1.3475e-06	2.703e-07
338	25000	1.8046e-06	3.621e-07
338	30000	2.2799e-06	4.572e-07
338	35000	2.6527e-06	5.318e-07

System: carbon dioxide + tetramethylpyrazine; phases: Fluid (supercritical or subcritical phases), Crystal
Property: Mole fraction of tetramethylpyrazine (Fluid (supercritical or subcritical phases)); method: UV spectrophotometer analysis of solute and gas volume
Temperature, K	Pressure, kPa	Mole fraction of tetramethylpyrazine	uncertainty
318	10000	0.01	0.002
318	15000	0.015	0.003
318	20000	0.018	0.004
318	25000	0.02	0.004
318	30000	0.022	0.004
328	10000	0.015	0.003
328	15000	0.035	0.007
328	20000	0.044	0.009
328	25000	0.046	0.009
328	30000	0.053	0.011
338	10000	0.03	0.006
338	15000	0.077	0.015
338	20000	0.102	0.02
338	25000	0.123	0.025
338	30000	0.131	0.026
