Measured thermophysical data. Excess Molar Volumes and Surface Tensions of 1,2,4-Trimethylbenzene and 1,3,5-Trimethylbenzene with 1-Butanol, 2-Methyl-1-propanol, 2-Butanol, and 2-Methyl-2-propanol at 298.15 K
Source: J. Chem. Eng. Data, 2004, 10.1021/je049807n
Compound 1: 1,2,4-trimethylbenzene, C9H12, InChI=1S/C9H12/c1-7-4-5-8(2)9(3)6-7/h4-6H,1-3H3
Compound 2: 1,3,5-trimethylbenzene, C9H12, InChI=1S/C9H12/c1-7-4-8(2)6-9(3)5-7/h4-6H,1-3H3
Compound 3: butan-1-ol, C4H10O, InChI=1S/C4H10O/c1-2-3-4-5/h5H,2-4H2,1H3
Compound 4: 2-methyl-1-propanol, C4H10O, InChI=1S/C4H10O/c1-4(2)3-5/h4-5H,3H2,1-2H3
Compound 5: butan-2-ol, C4H10O, InChI=1S/C4H10O/c1-3-4(2)5/h4-5H,3H2,1-2H3
Compound 6: 2-methylpropan-2-ol, C4H10O, InChI=1S/C4H10O/c1-4(2,3)5/h5H,1-3H3

System: 1,2,4-trimethylbenzene; phases: Liquid
Property: Mass density, kg/m3 (Liquid); method: VIBTUB:UFactor:2
Temperature, K	Pressure, kPa	Mass density, kg/m3	uncertainty
298.15	101.325	871.64	0.39

System: 1,2,4-trimethylbenzene; phases: Liquid, Air at 1 atmosphere
Property: Surface tension liquid-gas, N/m (Liquid); method: Pendant drop shape
Temperature, K	Surface tension liquid-gas, N/m	uncertainty
298.15	0.02925	0.00033

System: 1,3,5-trimethylbenzene; phases: Liquid
Property: Mass density, kg/m3 (Liquid); method: VIBTUB:UFactor:2
Temperature, K	Pressure, kPa	Mass density, kg/m3	uncertainty
298.15	101.325	861.03	0.35

System: 1,3,5-trimethylbenzene; phases: Liquid, Air at 1 atmosphere
Property: Surface tension liquid-gas, N/m (Liquid); method: Pendant drop shape
Temperature, K	Surface tension liquid-gas, N/m	uncertainty
298.15	0.02809	0.00031

System: butan-1-ol; phases: Liquid
Property: Mass density, kg/m3 (Liquid); method: VIBTUB:UFactor:2
Temperature, K	Pressure, kPa	Mass density, kg/m3	uncertainty
298.15	101.325	805.8	0.22

System: butan-1-ol; phases: Liquid, Air at 1 atmosphere
Property: Surface tension liquid-gas, N/m (Liquid); method: Pendant drop shape
Temperature, K	Surface tension liquid-gas, N/m	uncertainty
298.15	0.02418	0.00027

System: 2-methyl-1-propanol; phases: Liquid
Property: Mass density, kg/m3 (Liquid); method: VIBTUB:UFactor:2
Temperature, K	Pressure, kPa	Mass density, kg/m3	uncertainty
298.15	101.325	797.83	0.23

System: 2-methyl-1-propanol; phases: Liquid, Air at 1 atmosphere
Property: Surface tension liquid-gas, N/m (Liquid); method: Pendant drop shape
Temperature, K	Surface tension liquid-gas, N/m	uncertainty
298.15	0.0223	0.00025

System: butan-2-ol; phases: Liquid
Property: Mass density, kg/m3 (Liquid); method: VIBTUB:UFactor:2
Temperature, K	Pressure, kPa	Mass density, kg/m3	uncertainty
298.15	101.325	802.34	0.22

System: butan-2-ol; phases: Liquid, Air at 1 atmosphere
Property: Surface tension liquid-gas, N/m (Liquid); method: Pendant drop shape
Temperature, K	Surface tension liquid-gas, N/m	uncertainty
298.15	0.02346	0.00026
303.15	0.02214	0.00025

System: 2-methylpropan-2-ol; phases: Liquid
Property: Mass density, kg/m3 (Liquid); method: VIBTUB:UFactor:2
Temperature, K	Pressure, kPa	Mass density, kg/m3	uncertainty
298.15	101.325	780.85	0.25

System: 2-methylpropan-2-ol; phases: Liquid, Air at 1 atmosphere
Property: Surface tension liquid-gas, N/m (Liquid); method: Pendant drop shape
Temperature, K	Surface tension liquid-gas, N/m	uncertainty
298.15	0.02013	0.00023

System: butan-1-ol + 1,2,4-trimethylbenzene; phases: Liquid, Air at 1 atmosphere
Fixed: Temperature, K = 298.15
Property: Surface tension liquid-gas, N/m (Liquid); method: Pendant drop shape
Mole fraction of butan-1-ol	Surface tension liquid-gas, N/m	uncertainty
0.1013	0.02881	0.00032
0.2002	0.02842	0.00031
0.2992	0.02804	0.00031
0.4009	0.02761	0.0003
0.5012	0.02715	0.00029
0.5985	0.02665	0.00029
0.6987	0.02608	0.00028
0.8001	0.02549	0.00028
0.9002	0.02486	0.00027

System: butan-1-ol + 1,2,4-trimethylbenzene; phases: Liquid
Fixed: Temperature, K = 298.15
Fixed: Pressure, kPa = 101.3
Property: Mass density, kg/m3 (Liquid); method: VIBTUB:UFactor:2
Mole fraction of butan-1-ol	Mass density, kg/m3	uncertainty
0.0499	869.1	0.37
0.1013	866.38	0.36
0.1492	863.89	0.35
0.2002	861.22	0.34
0.2499	858.58	0.32
0.2992	855.92	0.31
0.3503	853.09	0.3
0.4009	850.22	0.29
0.4491	847.4	0.28
0.5012	844.25	0.27
0.5498	841.19	0.26
0.5985	838.02	0.26
0.6501	834.53	0.25
0.6987	831.1	0.24
0.7499	827.34	0.24
0.8001	823.46	0.23
0.8501	819.4	0.23
0.9002	815.1	0.22
0.9503	810.56	0.22

System: 2-methyl-1-propanol + 1,2,4-trimethylbenzene; phases: Liquid, Air at 1 atmosphere
Fixed: Temperature, K = 298.15
Property: Surface tension liquid-gas, N/m (Liquid); method: Pendant drop shape
Mole fraction of 2-methyl-1-propanol	Surface tension liquid-gas, N/m	uncertainty
0.1004	0.02842	0.00032
0.2018	0.02754	0.0003
0.3002	0.0267	0.0003
0.3996	0.02595	0.00029
0.4995	0.02529	0.00028
0.6002	0.02472	0.00027
0.6989	0.02416	0.00027
0.8002	0.0236	0.00026
0.8984	0.02298	0.00026

System: 2-methyl-1-propanol + 1,2,4-trimethylbenzene; phases: Liquid
Fixed: Temperature, K = 298.15
Fixed: Pressure, kPa = 101.3
Property: Mass density, kg/m3 (Liquid); method: VIBTUB:UFactor:2
Mole fraction of 2-methyl-1-propanol	Mass density, kg/m3	uncertainty
0.0509	868.47	0.37
0.1004	865.43	0.36
0.153	862.28	0.35
0.2018	859.33	0.33
0.249	856.45	0.32
0.3002	853.23	0.31
0.3487	850.09	0.3
0.3996	846.71	0.29
0.4494	843.33	0.28
0.4995	839.86	0.27
0.5488	836.34	0.26
0.6002	832.59	0.26
0.6508	828.75	0.25
0.6989	824.99	0.24
0.7484	820.99	0.24
0.8002	816.62	0.23
0.8506	812.2	0.23
0.8984	807.85	0.23
0.9496	802.94	0.23

System: butan-2-ol + 1,2,4-trimethylbenzene; phases: Liquid, Air at 1 atmosphere
Fixed: Temperature, K = 298.15
Property: Surface tension liquid-gas, N/m (Liquid); method: Pendant drop shape
Mole fraction of butan-2-ol	Surface tension liquid-gas, N/m	uncertainty
0.1008	0.02858	0.00032
0.201	0.02794	0.00031
0.2985	0.02732	0.0003
0.4008	0.02671	0.00029
0.4997	0.02615	0.00029
0.6008	0.02559	0.00028
0.6994	0.02507	0.00027
0.7999	0.02456	0.00027
0.9002	0.02402	0.00026

System: butan-2-ol + 1,2,4-trimethylbenzene; phases: Liquid
Fixed: Temperature, K = 298.15
Fixed: Pressure, kPa = 101.3
Property: Mass density, kg/m3 (Liquid); method: VIBTUB:UFactor:2
Mole fraction of butan-2-ol	Mass density, kg/m3	uncertainty
0.0497	868.48	0.37
0.1008	865.35	0.36
0.1486	862.53	0.35
0.201	859.43	0.33
0.2507	856.46	0.32
0.2985	853.6	0.31
0.3492	850.47	0.3
0.4008	847.25	0.29
0.4506	844.12	0.28
0.4997	840.93	0.27
0.5486	837.68	0.26
0.6008	834.12	0.25
0.6505	830.64	0.24
0.6994	827.12	0.24
0.7503	823.25	0.23
0.7999	819.39	0.23
0.8496	815.42	0.22
0.9002	811.21	0.22
0.9489	806.96	0.22

System: 2-methylpropan-2-ol + 1,2,4-trimethylbenzene; phases: Liquid, Air at 1 atmosphere
Fixed: Temperature, K = 298.15
Property: Surface tension liquid-gas, N/m (Liquid); method: Pendant drop shape
Mole fraction of 2-methylpropan-2-ol	Surface tension liquid-gas, N/m	uncertainty
0.1	0.02812	0.00031
0.2007	0.027	0.0003
0.3001	0.02592	0.00029
0.4002	0.02493	0.00028
0.5005	0.02406	0.00027
0.6006	0.02323	0.00026
0.6991	0.02246	0.00026
0.7993	0.0217	0.00025
0.9003	0.02096	0.00024

System: 2-methylpropan-2-ol + 1,2,4-trimethylbenzene; phases: Liquid
Fixed: Temperature, K = 298.15
Fixed: Pressure, kPa = 101.3
Property: Mass density, kg/m3 (Liquid); method: VIBTUB:UFactor:4
Mole fraction of 2-methylpropan-2-ol	Mass density, kg/m3	uncertainty
0.0498	867.42	0.47
0.1	863.45	0.47
0.1496	859.56	0.46
0.2007	855.56	0.46
0.2495	851.7	0.45
0.3001	847.58	0.45
0.351	843.33	0.45
0.4002	839.16	0.45
0.4496	834.81	0.44
0.5005	830.25	0.44
0.5494	825.78	0.44
0.6006	821.1	0.44
0.6502	816.48	0.45
0.6991	811.94	0.45
0.7491	807.12	0.45
0.7993	802.21	0.45
0.85	797.46	0.46
0.9003	791.86	0.46
0.9499	786.65	0.47

System: butan-1-ol + 1,3,5-trimethylbenzene; phases: Liquid, Air at 1 atmosphere
Fixed: Temperature, K = 298.15
Property: Surface tension liquid-gas, N/m (Liquid); method: Pendant drop shape
Mole fraction of butan-1-ol	Surface tension liquid-gas, N/m	uncertainty
0.1006	0.02792	0.00031
0.1006	0.02792	0.00031
0.2011	0.02765	0.0003
0.2011	0.02765	0.0003
0.3002	0.02733	0.0003
0.3002	0.02733	0.0003
0.4003	0.02691	0.00029
0.4003	0.02691	0.00029
0.5001	0.02646	0.00029
0.5001	0.02646	0.00029
0.6005	0.02599	0.00028
0.6993	0.02553	0.00028
0.7999	0.02505	0.00027
0.901	0.02458	0.00027

System: butan-1-ol + 1,3,5-trimethylbenzene; phases: Liquid
Fixed: Temperature, K = 298.15
Fixed: Pressure, kPa = 101.3
Property: Mass density, kg/m3 (Liquid); method: VIBTUB:UFactor:2
Mole fraction of butan-1-ol	Mass density, kg/m3	uncertainty
0.0493	858.72	0.34
0.1006	856.4	0.33
0.1512	854.14	0.32
0.2011	851.93	0.31
0.2514	849.67	0.3
0.3002	847.43	0.29
0.3487	845.16	0.28
0.4003	842.68	0.27
0.4535	840.04	0.27
0.5001	837.66	0.26
0.5484	835.11	0.25
0.6005	832.26	0.25
0.65	829.43	0.24
0.6993	826.54	0.24
0.7497	823.44	0.23
0.7999	820.23	0.23
0.85	816.86	0.23
0.901	813.3	0.22
0.9506	809.67	0.22

System: 2-methyl-1-propanol + 1,3,5-trimethylbenzene; phases: Liquid, Air at 1 atmosphere
Fixed: Temperature, K = 298.15
Property: Surface tension liquid-gas, N/m (Liquid); method: Pendant drop shape
Mole fraction of 2-methyl-1-propanol	Surface tension liquid-gas, N/m	uncertainty
0.1028	0.02765	0.0003
0.1994	0.02721	0.0003
0.3006	0.02667	0.00029
0.4019	0.02609	0.00029
0.4995	0.02551	0.00028
0.6002	0.02488	0.00027
0.699	0.02425	0.00027
0.7998	0.02361	0.00026
0.9006	0.02297	0.00026

System: 2-methyl-1-propanol + 1,3,5-trimethylbenzene; phases: Liquid
Fixed: Temperature, K = 298.15
Fixed: Pressure, kPa = 101.3
Property: Mass density, kg/m3 (Liquid); method: VIBTUB:UFactor:2
Mole fraction of 2-methyl-1-propanol	Mass density, kg/m3	uncertainty
0.0512	858.13	0.34
0.1028	855.39	0.33
0.1517	852.81	0.32
0.1994	850.26	0.31
0.2514	847.49	0.3
0.3006	844.78	0.29
0.3529	841.86	0.28
0.4019	839.03	0.27
0.4494	836.25	0.27
0.4995	833.24	0.26
0.548	830.3	0.25
0.6002	827.02	0.25
0.6495	823.78	0.24
0.699	820.47	0.24
0.7501	816.96	0.23
0.7998	813.38	0.23
0.8504	809.65	0.23
0.9006	805.81	0.23
0.9485	802.06	0.23

System: butan-2-ol + 1,3,5-trimethylbenzene; phases: Liquid, Air at 1 atmosphere
Fixed: Temperature, K = 298.15
Property: Surface tension liquid-gas, N/m (Liquid); method: Pendant drop shape
Mole fraction of butan-2-ol	Surface tension liquid-gas, N/m	uncertainty
0.101	0.02777	0.00031
0.2007	0.02736	0.0003
0.2986	0.02694	0.00029
0.4007	0.02647	0.00029
0.5017	0.02599	0.00028
0.6004	0.02549	0.00028
0.6991	0.02498	0.00027
0.8009	0.02445	0.00027
0.9002	0.02394	0.00026

System: butan-2-ol + 1,3,5-trimethylbenzene; phases: Liquid
Fixed: Temperature, K = 298.15
Fixed: Pressure, kPa = 101.3
Property: Mass density, kg/m3 (Liquid); method: VIBTUB:UFactor:2
Mole fraction of butan-2-ol	Mass density, kg/m3	uncertainty
0.0508	858.12	0.34
0.101	855.38	0.33
0.1511	852.75	0.32
0.2007	850.14	0.31
0.25	847.61	0.3
0.2986	845.03	0.29
0.3488	842.36	0.28
0.4007	839.55	0.27
0.4495	836.88	0.26
0.5017	833.96	0.26
0.5484	831.33	0.25
0.6004	828.33	0.24
0.6508	825.34	0.24
0.6991	822.4	0.23
0.7496	819.25	0.23
0.8009	816.01	0.23
0.8504	812.75	0.22
0.9002	809.42	0.22
0.9505	805.99	0.22

System: 2-methylpropan-2-ol + 1,3,5-trimethylbenzene; phases: Liquid, Air at 1 atmosphere
Fixed: Temperature, K = 298.15
Property: Surface tension liquid-gas, N/m (Liquid); method: Pendant drop shape
Mole fraction of 2-methylpropan-2-ol	Surface tension liquid-gas, N/m	uncertainty
0.1015	0.02718	0.0003
0.2007	0.02624	0.00029
0.2995	0.02535	0.00028
0.3995	0.02451	0.00027
0.4992	0.02375	0.00027
0.6005	0.02302	0.00026
0.6987	0.02232	0.00025
0.7995	0.02161	0.00025
0.9002	0.02086	0.00024

System: 2-methylpropan-2-ol + 1,3,5-trimethylbenzene; phases: Liquid
Fixed: Temperature, K = 298.15
Fixed: Pressure, kPa = 101.3
Property: Mass density, kg/m3 (Liquid); method: VIBTUB:UFactor:2
Mole fraction of 2-methylpropan-2-ol	Mass density, kg/m3	uncertainty
0.0502	857.2	0.34
0.1015	853.43	0.33
0.1482	850.08	0.32
0.2007	846.28	0.31
0.2509	842.63	0.31
0.2995	839.02	0.3
0.3484	835.31	0.29
0.3995	831.37	0.29
0.449	827.48	0.28
0.4992	823.4	0.28
0.5483	819.43	0.27
0.6005	815.1	0.27
0.6502	810.91	0.26
0.6987	806.81	0.26
0.75	802.48	0.25
0.7995	798.32	0.25
0.8501	793.99	0.25
0.9002	789.58	0.25
0.9509	785.25	0.25
