Measured thermophysical data. Measurement and Prediction of Solubility of Four Arylamine Molecules in Benzene, Hexane, and Methanol
Source: J. Chem. Eng. Data, 2005, 10.1021/je0495785
Compound 1: tri-tolylamine, C21H21N, InChI=1S/C21H21N/c1-16-4-10-19(11-5-16)22(20-12-6-17(2)7-13-20)21-14-8-18(3)9-15-21/h4-15H,1-3H3
Compound 2: 3-methyl-N,N-bis(4-methylphenyl)benzenamine, C21H21N, InChI=1S/C21H21N/c1-16-7-11-19(12-8-16)22(20-13-9-17(2)10-14-20)21-6-4-5-18(3)15-21/h4-15H,1-3H3
Compound 3: 3-methyl-N-(3-methylphenyl)-N-(4-methylphenyl)benzenamine, C21H21N, InChI=1S/C21H21N/c1-16-10-12-19(13-11-16)22(20-8-4-6-17(2)14-20)21-9-5-7-18(3)15-21/h4-15H,1-3H3
Compound 4: 3-methyl-N,N-bis(3-methylphenyl)benzenamine, C21H21N, InChI=1S/C21H21N/c1-16-7-4-10-19(13-16)22(20-11-5-8-17(2)14-20)21-12-6-9-18(3)15-21/h4-15H,1-3H3
Compound 5: hexane, C6H14, InChI=1S/C6H14/c1-3-5-6-4-2/h3-6H2,1-2H3, purity 99%
Compound 6: methanol, CH4O, InChI=1S/CH4O/c1-2/h2H,1H3, purity 99%
Compound 7: benzene, C6H6, InChI=1S/C6H6/c1-2-4-6-5-3-1/h1-6H, purity 99%

System: tri-tolylamine; phases: Crystal, Liquid, Air at 1 atmosphere
Property: Normal melting temperature, K (Crystal); method: DTA
Normal melting temperature, K	uncertainty
388.74	2.03

System: tri-tolylamine; phases: Crystal, Liquid, Air at 1 atmosphere
Property: Molar enthalpy of transition or fusion, kJ/mol (Crystal); method: DSC
Molar enthalpy of transition or fusion, kJ/mol	uncertainty
19.9540556374	2.0434010598

System: tri-tolylamine; phases: Liquid, Gas
Property: Normal boiling temperature, K (Liquid); method: not specified, probably DSC
Normal boiling temperature, K	uncertainty
574.04	100.01

System: tri-tolylamine; phases: Liquid, Gas
Property: Molar enthalpy of vaporization or sublimation, kJ/mol (Liquid); method: DSC
Temperature, K	Molar enthalpy of vaporization or sublimation, kJ/mol	uncertainty
574.04	72.56804045	15.720680446

System: 3-methyl-N,N-bis(4-methylphenyl)benzenamine; phases: Crystal, Liquid, Air at 1 atmosphere
Property: Normal melting temperature, K (Crystal); method: DTA
Normal melting temperature, K	uncertainty
329.85	2.03

System: 3-methyl-N,N-bis(4-methylphenyl)benzenamine; phases: Crystal, Liquid, Air at 1 atmosphere
Property: Molar enthalpy of transition or fusion, kJ/mol (Crystal); method: DSC
Molar enthalpy of transition or fusion, kJ/mol	uncertainty
21.7071845354	2.2187139496

System: 3-methyl-N,N-bis(4-methylphenyl)benzenamine; phases: Liquid, Gas
Property: Normal boiling temperature, K (Liquid); method: not specified, probably DSC
Normal boiling temperature, K	uncertainty
589.09	100.01

System: 3-methyl-N,N-bis(4-methylphenyl)benzenamine; phases: Liquid, Gas
Property: Molar enthalpy of vaporization or sublimation, kJ/mol (Liquid); method: DSC
Temperature, K	Molar enthalpy of vaporization or sublimation, kJ/mol	uncertainty
589.09	75.930599156	16.439175896

System: 3-methyl-N,N-bis(4-methylphenyl)benzenamine; phases: Crystal
Fixed: Pressure, kPa = 101.325
Property: Molar heat capacity at constant pressure, J/K/mol (Crystal); method: Small sample (50 mg) DSC
Temperature, K	Molar heat capacity at constant pressure, J/K/mol	uncertainty
298	417.01475918	42.10383337
303	369.249181664	37.304283764
308	351.516713958	35.49367523
313	363.759876426	36.729487404
318	406.007408886	41.011720286
323	478.259311338	48.311634058
325	515.563595102	52.076550216

System: 3-methyl-N,N-bis(4-methylphenyl)benzenamine; phases: Liquid
Fixed: Pressure, kPa = 101.325
Property: Molar heat capacity at constant pressure, J/K/mol (Liquid); method: Small sample (50 mg) DSC
Temperature, K	Molar heat capacity at constant pressure, J/K/mol	uncertainty
339	442.708156472	44.719156808
343	440.926287756	44.517978082
348	438.627102316	44.288059538
353	436.241697422	44.058140994
358	433.798812892	43.799482632
363	431.298448726	43.569564088
368	428.711865106	43.310905726
373	426.06780185	43.023507546
378	423.33751914	42.764849184
383	420.549756794	42.477451004
388	417.675774994	42.190052824
393	414.744313558	41.873914826

System: 3-methyl-N-(3-methylphenyl)-N-(4-methylphenyl)benzenamine; phases: Crystal, Liquid, Air at 1 atmosphere
Property: Normal melting temperature, K (Crystal); method: DTA
Normal melting temperature, K	uncertainty
362.65	2

System: 3-methyl-N-(3-methylphenyl)-N-(4-methylphenyl)benzenamine; phases: Crystal, Liquid, Air at 1 atmosphere
Property: Molar enthalpy of transition or fusion, kJ/mol (Crystal); method: DSC
Molar enthalpy of transition or fusion, kJ/mol	uncertainty
26.3917748694	2.6957949284

System: 3-methyl-N-(3-methylphenyl)-N-(4-methylphenyl)benzenamine; phases: Liquid, Gas
Property: Normal boiling temperature, K (Liquid); method: not specified, probably DSC
Normal boiling temperature, K	uncertainty
547.3	100.01

System: 3-methyl-N-(3-methylphenyl)-N-(4-methylphenyl)benzenamine; phases: Liquid, Gas
Property: Molar enthalpy of vaporization or sublimation, kJ/mol (Liquid); method: DSC
Temperature, K	Molar enthalpy of vaporization or sublimation, kJ/mol	uncertainty
547.3	69.291701198	15.002184996

System: 3-methyl-N-(3-methylphenyl)-N-(4-methylphenyl)benzenamine; phases: Crystal
Fixed: Pressure, kPa = 101.325
Property: Molar heat capacity at constant pressure, J/K/mol (Crystal); method: Small sample (50 mg) DSC
Temperature, K	Molar heat capacity at constant pressure, J/K/mol	uncertainty
330	114.183296914	11.524667018
335	117.344676894	11.840805016
340	98.117738652	9.91523721

System: 3-methyl-N-(3-methylphenyl)-N-(4-methylphenyl)benzenamine; phases: Liquid
Fixed: Pressure, kPa = 101.325
Property: Molar heat capacity at constant pressure, J/K/mol (Liquid); method: Small sample (50 mg) DSC
Temperature, K	Molar heat capacity at constant pressure, J/K/mol	uncertainty
365	143.69909	14.51360809
369	141.055026744	14.254949728
372	137.864906946	13.910071912

System: 3-methyl-N,N-bis(3-methylphenyl)benzenamine; phases: Crystal, Liquid, Air at 1 atmosphere
Property: Normal melting temperature, K (Crystal); method: DTA
Normal melting temperature, K	uncertainty
312.96	2.03

System: 3-methyl-N,N-bis(3-methylphenyl)benzenamine; phases: Crystal, Liquid, Air at 1 atmosphere
Property: Molar enthalpy of transition or fusion, kJ/mol (Crystal); method: DSC
Molar enthalpy of transition or fusion, kJ/mol	uncertainty
13.0708692264	1.3450234824

System: 3-methyl-N,N-bis(3-methylphenyl)benzenamine; phases: Liquid, Gas
Property: Normal boiling temperature, K (Liquid); method: not specified, probably DSC
Normal boiling temperature, K	uncertainty
567.99	100.01

System: 3-methyl-N,N-bis(3-methylphenyl)benzenamine; phases: Liquid, Gas
Property: Molar enthalpy of vaporization or sublimation, kJ/mol (Liquid); method: DSC
Temperature, K	Molar enthalpy of vaporization or sublimation, kJ/mol	uncertainty
567.99	37.591681944	3.966094884

System: 3-methyl-N,N-bis(3-methylphenyl)benzenamine; phases: Crystal
Fixed: Pressure, kPa = 101.325
Property: Molar heat capacity at constant pressure, J/K/mol (Crystal); method: Small sample (50 mg) DSC
Temperature, K	Molar heat capacity at constant pressure, J/K/mol	uncertainty
240	1455.38438352	146.975429252
245	1383.017521796	139.67551548
250	1322.75012345	133.582674064
255	1274.639668118	128.725644822
260	1238.628676164	125.104427754
265	1214.774627224	122.690283042
270	1203.04878148	121.511950504
275	1203.422399114	121.540690322
280	1215.952959762	122.805242314
285	1240.611723606	125.30560648
290	1277.427430464	129.013043002
295	1326.3426007	133.956291698
300	1387.385974132	140.10661275
306	1476.65184884	149.130915602

System: 3-methyl-N,N-bis(3-methylphenyl)benzenamine; phases: Liquid
Fixed: Pressure, kPa = 101.325
Property: Molar heat capacity at constant pressure, J/K/mol (Liquid); method: Small sample (50 mg) DSC
Temperature, K	Molar heat capacity at constant pressure, J/K/mol	uncertainty
336	1250.843098814	126.340239928
341	1249.722245912	126.225280656
346	1249.46358755	126.196540838
351	1250.067123728	126.254020474
356	1251.504114628	126.397719564
361	1253.803300068	126.627638108
366	1256.964680048	126.943776106
371	1260.95951475	127.346133558
376	1265.816543992	127.834710464
381	1271.535767774	128.409506824

System: hexane + 3-methyl-N,N-bis(4-methylphenyl)benzenamine; phases: Liquid, Crystal
Fixed: Pressure, kPa = 101.325
Property: Solid-liquid equilibrium temperature, K (Liquid); method: VISOBS
Mass ratio of solute to solvent of 3-methyl-N,N-bis(4-methylphenyl)benzenamine	Solid-liquid equilibrium temperature, K	uncertainty
0.0004	296.65	2
0.0008	302.15	2
0.0033	319.65	2

System: hexane + 3-methyl-N-(3-methylphenyl)-N-(4-methylphenyl)benzenamine; phases: Liquid, Crystal
Fixed: Pressure, kPa = 101.325
Property: Solid-liquid equilibrium temperature, K (Liquid); method: VISOBS
Mass ratio of solute to solvent of 3-methyl-N-(3-methylphenyl)-N-(4-methylphenyl)benzenamine	Solid-liquid equilibrium temperature, K	uncertainty
0.087	292.15	2
0.0931	292.65	2
0.0937	295.65	2
0.1225	300.15	2
0.1296	303.15	2

System: hexane + 3-methyl-N,N-bis(3-methylphenyl)benzenamine; phases: Liquid, Crystal
Fixed: Pressure, kPa = 101.325
Property: Solid-liquid equilibrium temperature, K (Liquid); method: VISOBS
Mass ratio of solute to solvent of 3-methyl-N,N-bis(3-methylphenyl)benzenamine	Solid-liquid equilibrium temperature, K	uncertainty
0.2381	293.65	2
0.2828	294.85	2
0.4439	298.65	2
0.7108	302.45	2
0.9428	306.15	2

System: methanol + 3-methyl-N-(3-methylphenyl)-N-(4-methylphenyl)benzenamine; phases: Liquid, Crystal
Fixed: Pressure, kPa = 101.325
Property: Solid-liquid equilibrium temperature, K (Liquid); method: VISOBS
Mass ratio of solute to solvent of 3-methyl-N-(3-methylphenyl)-N-(4-methylphenyl)benzenamine	Solid-liquid equilibrium temperature, K	uncertainty
0.43	288.65	2
0.49	292.15	2
0.63	299.15	2
0.84	303.85	2
1.18	313.65	2

System: benzene + 3-methyl-N,N-bis(4-methylphenyl)benzenamine; phases: Liquid, Crystal
Fixed: Pressure, kPa = 101.325
Property: Solid-liquid equilibrium temperature, K (Liquid); method: VISOBS
Mass ratio of solute to solvent of 3-methyl-N,N-bis(4-methylphenyl)benzenamine	Solid-liquid equilibrium temperature, K	uncertainty
0.1644	278.15	2
0.1923	289.15	2
0.3036	316.15	2
0.3405	327.65	2

System: benzene + 3-methyl-N-(3-methylphenyl)-N-(4-methylphenyl)benzenamine; phases: Liquid, Crystal
Fixed: Pressure, kPa = 101.325
Property: Solid-liquid equilibrium temperature, K (Liquid); method: VISOBS
Mass ratio of solute to solvent of 3-methyl-N-(3-methylphenyl)-N-(4-methylphenyl)benzenamine	Solid-liquid equilibrium temperature, K	uncertainty
0.5617	278.15	2
0.6055	280.05	2
0.6675	282.15	2
0.8697	289.05	2
0.8966	290.15	2

System: benzene + 3-methyl-N,N-bis(3-methylphenyl)benzenamine; phases: Liquid, Crystal
Fixed: Pressure, kPa = 101.325
Property: Solid-liquid equilibrium temperature, K (Liquid); method: VISOBS
Mass ratio of solute to solvent of 3-methyl-N,N-bis(3-methylphenyl)benzenamine	Solid-liquid equilibrium temperature, K	uncertainty
1.2318	285.15	2
1.8509	289.65	2
2.3825	292.15	2
3.3312	297.15	2
