Measured thermophysical data. Solubilities of Proxetine Hydrochloride Hemihydrate between 286 K and 363 K
Source: J. Chem. Eng. Data, 2004, 10.1021/je0498762
Compound 1: paroxetine hydrochloride hemihydrate, C38H44Cl2F2N2O7, InChI=1S/2C19H20FNO3.2ClH.H2O/c2*20-15-3-1-13(2-4-15)17-7-8-21-10-14(17)11-22-16-5-6-18-19(9-16)24-12-23-18;;;/h2*1-6,9,14,17,21H,7-8,10-12H2;2*1H;1H2/t2*14-,17-;;;/m00.../s1
Compound 2: dimethylformamide, C3H7NO, InChI=1S/C3H7NO/c1-4(2)3-5/h3H,1-2H3
Compound 3: butanone, C4H8O, InChI=1S/C4H8O/c1-3-4(2)5/h3H2,1-2H3
Compound 4: tetrahydrofuran, C4H8O, InChI=1S/C4H8O/c1-2-4-5-3-1/h1-4H2
Compound 5: ethyl acetate, C4H8O2, InChI=1S/C4H8O2/c1-3-6-4(2)5/h3H2,1-2H3
Compound 6: ethanol, C2H6O, InChI=1S/C2H6O/c1-2-3/h3H,2H2,1H3
Compound 7: propan-1-ol, C3H8O, InChI=1S/C3H8O/c1-2-3-4/h4H,2-3H2,1H3
Compound 8: butan-2-ol, C4H10O, InChI=1S/C4H10O/c1-3-4(2)5/h4-5H,3H2,1-2H3
Compound 9: methanol, CH4O, InChI=1S/CH4O/c1-2/h2H,1H3
Compound 10: butan-1-ol, C4H10O, InChI=1S/C4H10O/c1-2-3-4-5/h5H,2-4H2,1H3

System: dimethylformamide + paroxetine hydrochloride hemihydrate; phases: Liquid, Crystal
Fixed: Pressure, kPa = 101.3
Property: Mole fraction of paroxetine hydrochloride hemihydrate (Liquid); method: OTHER
Temperature, K	Mole fraction of paroxetine hydrochloride hemihydrate	uncertainty
295.5	0.001235391	7.5456e-05
298.55	0.001365925	8.3412e-05
302.05	0.0015244	9.3062e-05
306.15	0.001697362	0.000103691
310.15	0.002023759	0.000123673
314.05	0.002330703	0.000142297
317.85	0.002549656	0.000155614
322.25	0.002847027	0.000173775
326.15	0.003154883	0.000192559
330.15	0.003468482	0.000211666
334.2	0.003776325	0.000230428
338.35	0.004094701	0.000249847
342.15	0.004410725	0.000269115
346.2	0.004721952	0.000288083
350.45	0.005050563	0.000308109
355.15	0.005370729	0.000327625

System: butanone + paroxetine hydrochloride hemihydrate; phases: Liquid, Crystal
Fixed: Pressure, kPa = 101.3
Property: Mole fraction of paroxetine hydrochloride hemihydrate (Liquid); method: OTHER
Temperature, K	Mole fraction of paroxetine hydrochloride hemihydrate	uncertainty
300.95	9.06e-06	5.57e-07
303.35	1.0809e-05	6.66e-07
306.6	1.421e-05	8.74e-07
310.65	1.88e-05	1.156e-06
312.65	2.3464e-05	1.446e-06
316.7	3.1412e-05	1.944e-06
323.75	5.865e-05	3.606e-06
328.9	8.629e-05	5.306e-06
331.35	0.000111199	6.887e-06
333.35	0.000139348	8.6e-06
336.6	0.000179885	1.105e-05
339.05	0.000213143	1.3083e-05
341.7	0.00025357	1.5594e-05
343	0.000293879	1.8194e-05

System: tetrahydrofuran + paroxetine hydrochloride hemihydrate; phases: Liquid, Crystal
Fixed: Pressure, kPa = 101.3
Property: Mole fraction of paroxetine hydrochloride hemihydrate (Liquid); method: OTHER
Temperature, K	Mole fraction of paroxetine hydrochloride hemihydrate	uncertainty
294.75	8.8e-08	6e-09
297.15	1.16e-07	7e-09
300	1.58e-07	1e-08
303.15	2.22e-07	1.4e-08
306.7	3.14e-07	1.9e-08
310.05	4.13e-07	2.5e-08
312.65	5.29e-07	3.3e-08
316.15	6.6e-07	4e-08
319.45	8.07e-07	4.9e-08
323.05	9.77e-07	6e-08
326.95	1.185e-06	7.2e-08
330.55	1.384e-06	8.5e-08
334.15	1.602e-06	9.8e-08

System: ethyl acetate + paroxetine hydrochloride hemihydrate; phases: Liquid, Crystal
Fixed: Pressure, kPa = 101.3
Property: Mole fraction of paroxetine hydrochloride hemihydrate (Liquid); method: OTHER
Temperature, K	Mole fraction of paroxetine hydrochloride hemihydrate	uncertainty
293.65	4.407e-06	2.78e-07
296.6	6.632e-06	4.12e-07
300.05	1.0134e-05	6.28e-07
303.55	1.5383e-05	9.46e-07
307.15	2.114e-05	1.299e-06
310.85	3.0339e-05	1.864e-06
314.05	4.1467e-05	2.546e-06
317	5.4427e-05	3.333e-06
320.2	6.938e-05	4.246e-06
323.15	8.8742e-05	5.425e-06
326	0.000107844	6.572e-06
329.8	0.000129277	7.874e-06
332.1	0.000150593	9.178e-06
335.2	0.000176042	1.0717e-05
338.2	0.0002039	1.2409e-05
341.15	0.000233391	1.4197e-05
344.2	0.000264244	1.6065e-05

System: ethanol + paroxetine hydrochloride hemihydrate; phases: Liquid, Crystal
Fixed: Pressure, kPa = 101.3
Property: Mole fraction of paroxetine hydrochloride hemihydrate (Liquid); method: OTHER
Temperature, K	Mole fraction of paroxetine hydrochloride hemihydrate	uncertainty
300.15	0.003259752	0.00020391
303.2	0.003620106	0.000226347
306.1	0.003916185	0.000244701
310	0.004163748	0.000260101
313.1	0.004310254	0.000269229
316.15	0.004435845	0.000277059
319.05	0.004511534	0.00028179
322.05	0.004644011	0.000290076
325.25	0.004778698	0.000298494
328	0.004914636	0.000306964
331.3	0.004940851	0.000308603
334.3	0.005088866	0.000317872
337.1	0.005208837	0.000325365
340.2	0.005350948	0.000334244
343.2	0.005478234	0.000342195

System: propan-1-ol + paroxetine hydrochloride hemihydrate; phases: Liquid, Crystal
Fixed: Pressure, kPa = 101.3
Property: Mole fraction of paroxetine hydrochloride hemihydrate (Liquid); method: OTHER
Temperature, K	Mole fraction of paroxetine hydrochloride hemihydrate	uncertainty
299.15	0.000270896	1.6673e-05
303.45	0.000312966	1.9247e-05
307.25	0.000337187	2.073e-05
311.25	0.000369525	2.2717e-05
315.15	0.000395699	2.4321e-05
319.15	0.000420544	2.5846e-05
323.15	0.00044246	2.7192e-05
327.25	0.000467401	2.8728e-05
331.15	0.000503052	3.0917e-05
335.15	0.000523415	3.2168e-05
339.25	0.000558473	3.4322e-05
343.15	0.000581654	3.575e-05
347.35	0.000629327	3.8683e-05
351.15	0.000666931	4.1001e-05
355.1	0.000734519	4.5164e-05

System: butan-2-ol + paroxetine hydrochloride hemihydrate; phases: Liquid, Crystal
Fixed: Pressure, kPa = 101.3
Property: Mole fraction of paroxetine hydrochloride hemihydrate (Liquid); method: OTHER
Temperature, K	Mole fraction of paroxetine hydrochloride hemihydrate	uncertainty
286.9	0.000377937	2.3037e-05
291.4	0.000385123	2.3476e-05
295.75	0.000405425	2.4718e-05
299.15	0.000430514	2.6249e-05
303.2	0.000455747	2.7793e-05
307.35	0.000503587	3.0722e-05
311.3	0.000560093	3.4168e-05
315.15	0.000612691	3.7381e-05
319.4	0.000692674	4.2265e-05
323	0.000765173	4.6696e-05
327.2	0.000871948	5.3223e-05
331.15	0.000995268	6.0751e-05
335.55	0.00114214	6.9707e-05
339.45	0.001288859	7.8672e-05
343.65	0.00148075	9.0383e-05
347.4	0.001666737	0.000101733
351.3	0.001884768	0.000115022

System: methanol + paroxetine hydrochloride hemihydrate; phases: Liquid, Crystal
Fixed: Pressure, kPa = 101.3
Property: Mole fraction of paroxetine hydrochloride hemihydrate (Liquid); method: OTHER
Temperature, K	Mole fraction of paroxetine hydrochloride hemihydrate	uncertainty
287.5	0.00069127	4.5054e-05
290.6	0.000811099	5.2851e-05
293.6	0.00095807	6.2388e-05
296.55	0.00108678	7.0718e-05
300.8	0.00128066	8.3273e-05
303.7	0.00138324	8.9896e-05
306.4	0.001472623	9.5749e-05
310.35	0.001686472	0.000109635
313.25	0.001801494	0.000117058
316.05	0.00189524	0.000123152
318.1	0.001991462	0.000129406
321	0.002097673	0.000136287
323.25	0.002170587	0.000141032
327.7	0.002353588	0.000152922
331.2	0.002487266	0.000161598
335.3	0.002635253	0.000171209

System: butan-1-ol + paroxetine hydrochloride hemihydrate; phases: Liquid, Crystal
Fixed: Pressure, kPa = 101.3
Property: Mole fraction of paroxetine hydrochloride hemihydrate (Liquid); method: OTHER
Temperature, K	Mole fraction of paroxetine hydrochloride hemihydrate	uncertainty
295.25	0.001267003	7.7257e-05
299.15	0.001348743	8.2237e-05
303.4	0.001435576	8.7524e-05
307.25	0.001499764	9.1436e-05
311	0.001578048	9.6216e-05
315.15	0.001679472	0.000102411
319.15	0.001809486	0.000110333
323	0.001900663	0.00011587
327.2	0.001960368	0.000119536
331.15	0.002160196	0.000131717
335.25	0.002227167	0.00013578
339.25	0.00235799	0.000143761
343.15	0.002448081	0.000149242
347.4	0.002540897	0.000154896
351.15	0.002603367	0.0001587
355.1	0.002663191	0.000162344
358.9	0.002704159	0.000164841
363.15	0.002761772	0.000168354
