Measured thermophysical data. High-Pressure Phase Behavior of CO2 + N-Vinyl Caprolactam and CO2 + N-Methyl Caprolactam Systems
Source: J. Chem. Eng. Data, 2005, 10.1021/je0495334
Compound 1: carbon dioxide, CO2, InChI=1S/CO2/c2-1-3, purity 99.99%
Compound 2: N-vinyl caprolactam, C8H13NO, InChI=1S/C8H13NO/c1-2-9-7-5-3-4-6-8(9)10/h2H,1,3-7H2, purity 98%
Compound 3: 1-methylazacycloheptan-2-one, C7H13NO, InChI=1S/C7H13NO/c1-8-6-4-2-3-5-7(8)9/h2-6H2,1H3, purity 98%

System: carbon dioxide + 1-methylazacycloheptan-2-one; phases: Gas, Liquid
Property: Vapor or sublimation pressure, kPa (Gas); method: CCELL:UFactor:24
Temperature, K	Mole fraction of carbon dioxide	Vapor or sublimation pressure, kPa	uncertainty
323.15	0.904	11920	887
323.15	0.915	11810	879
333.15	0.904	14710	1095
333.15	0.915	14370	1069
343.15	0.904	17230	1282
343.15	0.915	17010	1265
353.15	0.904	19500	1451
353.15	0.915	19340	1439

System: carbon dioxide + 1-methylazacycloheptan-2-one; phases: Liquid, Gas
Property: Vapor or sublimation pressure, kPa (Liquid); method: CCELL:UFactor:24
Temperature, K	Mole fraction of carbon dioxide	Vapor or sublimation pressure, kPa	uncertainty
323.15	0.364	5690	424
323.15	0.473	7330	546
323.15	0.528	7590	565
323.15	0.567	8290	617
323.15	0.586	8410	626
323.15	0.63	9040	673
323.15	0.705	9550	711
323.15	0.762	10620	790
323.15	0.812	11440	851
323.15	0.822	11580	862
323.15	0.847	11840	881
323.15	0.871	11950	889
323.15	0.872	11990	892
323.15	0.88	12120	902
333.15	0.364	6180	460
333.15	0.473	8160	607
333.15	0.523	8590	639
333.15	0.528	8720	649
333.15	0.567	9450	703
333.15	0.586	9710	723
333.15	0.63	10530	784
333.15	0.705	11480	854
333.15	0.762	12980	966
333.15	0.812	14130	1051
333.15	0.822	14330	1066
333.15	0.847	14620	1088
333.15	0.871	14750	1097
333.15	0.88	14980	1115
343.15	0.364	6940	517
343.15	0.473	9040	673
343.15	0.523	9660	719
343.15	0.528	9710	723
343.15	0.586	11050	822
343.15	0.63	11780	877
343.15	0.705	13500	1005
343.15	0.762	15370	1144
343.15	0.812	16740	1245
343.15	0.822	16950	1261
343.15	0.871	17330	1289
343.15	0.88	17460	1299
353.15	0.364	7350	547
353.15	0.473	9700	722
353.15	0.523	10480	780
353.15	0.528	10710	797
353.15	0.586	12340	918
353.15	0.63	13350	993
353.15	0.705	15550	1157
353.15	0.762	17660	1314
353.15	0.812	19160	1425
353.15	0.822	19240	1431
353.15	0.871	19510	1451
353.15	0.88	19630	1460

System: carbon dioxide + N-vinyl caprolactam; phases: Liquid, Gas
Property: Critical pressure, kPa (Liquid); method: Direct measurement
Mole fraction of carbon dioxide	Critical pressure, kPa	uncertainty
0.915	18300	915
0.915	20640	1033
0.925	15690	785

System: carbon dioxide + N-vinyl caprolactam; phases: Liquid, Gas
Property: Critical temperature, K (Liquid); method: Visual observation in a stirred cell
Pressure, kPa	Critical temperature, K	uncertainty
15690	333.15	0.26
18300	343.15	0.27
20640	353.15	0.28

System: carbon dioxide + N-vinyl caprolactam; phases: Liquid, Gas
Property: Vapor or sublimation pressure, kPa (Liquid); method: CCELL:UFactor:24
Temperature, K	Mole fraction of carbon dioxide	Vapor or sublimation pressure, kPa	uncertainty
323.15	0.314	3820	285
323.15	0.415	5130	382
323.15	0.451	5390	401
323.15	0.506	6550	488
323.15	0.586	7860	585
323.15	0.686	9740	725
323.15	0.748	10530	784
323.15	0.794	12200	908
323.15	0.869	12850	956
323.15	0.925	12900	960
333.15	0.314	4400	328
333.15	0.415	5850	436
333.15	0.451	6540	487
333.15	0.506	7370	549
333.15	0.586	9100	677
333.15	0.686	11280	839
333.15	0.733	11990	892
333.15	0.748	12760	950
333.15	0.794	14440	1074
333.15	0.869	15550	1157
343.15	0.314	4850	361
343.15	0.415	6960	518
343.15	0.451	7390	550
343.15	0.506	8550	636
343.15	0.586	10640	792
343.15	0.686	13430	999
343.15	0.733	14640	1089
343.15	0.748	15210	1132
343.15	0.794	17090	1271
343.15	0.869	18120	1348
353.15	0.314	5440	405
353.15	0.415	7630	568
353.15	0.451	8310	619
353.15	0.506	9740	725
353.15	0.586	12260	912
353.15	0.686	15540	1156
353.15	0.733	16970	1263
353.15	0.748	17800	1324
353.15	0.794	19580	1457
353.15	0.869	20480	1523

System: carbon dioxide + N-vinyl caprolactam; phases: Gas, Liquid
Property: Vapor or sublimation pressure, kPa (Gas); method: CCELL:UFactor:24
Temperature, K	Mole fraction of carbon dioxide	Vapor or sublimation pressure, kPa	uncertainty
323.15	0.948	12540	933
333.15	0.948	15270	1136
343.15	0.925	18260	1358
343.15	0.948	17790	1323
353.15	0.925	20640	1535
353.15	0.938	20130	1497
353.15	0.948	19890	1480
