Measured thermophysical data. Enthalpy of Fusion of Bismuth: A Certified Reference Material for Differential Scanning Calorimetry
Source: J. Chem. Eng. Data, 2004, 10.1021/je049913p
Compound 1: bismuth, Bi, InChI=1S/Bi

System: bismuth; phases: Crystal, Liquid, Gas
Property: Molar enthalpy of transition or fusion, kJ/mol (Crystal); method: Adiabatic calorimetry
Molar enthalpy of transition or fusion, kJ/mol	uncertainty
11.1064691856762	0.01692741078

System: bismuth; phases: Crystal, Liquid, Gas
Property: Triple point temperature, K (Crystal); method: Adiabatic calorimetry
Triple point temperature, K	uncertainty
544.556	0.005
