Measured thermophysical data. Vaporization Study of YbCl3, YbBr3, YbI2, LuCl3, LuBr3, and LuI3 and a New Assessment of Sublimation Enthalpies of Rare Earth Trichlorides
Source: J. Chem. Eng. Data, 2005, 10.1021/je049579x
Compound 1: ytterbium trichloride, Cl3Yb, InChI=1S/3ClH.Yb/h3*1H;/q;;;+3/p-3
Compound 2: ytterbium tribromide, Br3Yb, InChI=1S/3BrH.Yb/h3*1H;/q;;;+3/p-3
Compound 3: ytterbium(II) iodide, I2Yb, InChI=1S/2HI.Yb/h2*1H;/q;;+2/p-2
Compound 4: lutetium trichloride, Cl3Lu, InChI=1S/3ClH.Lu/h3*1H;/q;;;+3/p-3
Compound 5: lutetium tribromide, Br3Lu, InChI=1S/3BrH.Lu/h3*1H;/q;;;+3/p-3
Compound 6: lutetium triiodide, I3Lu, InChI=1S/3HI.Lu/h3*1H;/q;;;+3/p-3

System: ytterbium trichloride; phases: Crystal, Gas
Property: Vapor or sublimation pressure, kPa (Crystal); method: Torsion effusion method
Temperature, K	Vapor or sublimation pressure, kPa	uncertainty
944	0.000158	2.1e-05
950	0.000126	1e-06
952	0.000126	1e-06
953	0.000158	3.2e-05
958	0.000158	3e-05
958	0.000282	2.5e-05
961	0.000219	2.9e-05
962	0.000191	2.2e-05
962	0.000191	2.2e-05
966	0.000251	1.1e-05
966	0.000191	1.3e-05
970	0.000251	3.8e-05
970	0.000251	3.8e-05
972	0.000251	3.8e-05
974	0.000347	3.7e-05
974	0.000316	3.7e-05
975	0.000316	5.2e-05
975	0.000501	5.2e-05
976	0.000282	4.6e-05
980	0.00038	3.3e-05
981	0.00038	5e-05
982	0.000437	9.1e-05
982	0.00038	9.3e-05
983	0.000437	9.2e-05
986	0.000407	6.7e-05
990	0.000603	6.1e-05
990	0.000468	5.9e-05
990	0.000537	6e-05
992	0.000562	0.000108
993	0.000871	0.000113
994	0.000631	0.000109
996	0.000631	4.3e-05
999	0.000759	7.9e-05
999	0.000692	8.1e-05
1000	0.000794	8.1e-05
1000	0.000759	8e-05
1001	0.000724	0.000136
1005	0.000851	7.3e-05
1005	0.001349	7.3e-05
1007	0.001	0.000127
1008	0.000912	0.000129
1010	0.000977	0.00013
1010	0.001	0.00013
1015	0.001175	0.000149
1015	0.00123	0.000149
1016	0.001413	0.000162
1017	0.00123	0.000165
1017	0.001905	0.000175
1019	0.001318	0.000161
1020	0.001349	0.000163
1020	0.001549	0.000159
1023	0.001514	0.000156
1026	0.001622	0.000226
1029	0.001698	0.000225
1029	0.001698	0.000225
1030	0.002884	0.000261
1035	0.002188	2.2e-05
1036	0.002089	3.6e-05
1036	0.002344	4.2e-05
1036	0.002239	4e-05
1038	0.002239	6.9e-05
1038	0.002188	7.1e-05
1044	0.002692	0.000383
1044	0.00302	0.000383
1044	0.004571	0.000383
1046	0.002884	0.00044
1048	0.00302	0.000402
1050	0.003388	0.000406
1052	0.003802	0.000439
1053	0.003802	0.000601
1054	0.003981	0.000601
1055	0.003802	0.000592
1055	0.006761	0.000483
1057	0.004074	0.000531
1062	0.005129	0.000497
1062	0.005012	0.000503
1063	0.004677	0.000523
1063	0.004898	0.000517
1063	0.005012	0.000514
1064	0.004898	0.000518
1071	0.005888	0.000919
1071	0.006761	0.000909
1071	0.006918	0.000907
1072	0.00631	0.000907
1072	0.006918	0.000914
1072	0.006457	0.000909
1079	0.008318	0.000981
1079	0.008318	0.000981
1081	0.008913	0.000998
1081	0.00912	0.001005
1082	0.00871	0.000981
1087	0.01	0.001388
1088	0.012023	0.001332
1088	0.011482	0.001346
1090	0.012023	0.001381
1096	0.01349	0.000978

System: ytterbium tribromide; phases: Crystal, Gas
Property: Vapor or sublimation pressure, kPa (Crystal); method: Torsion effusion method
Temperature, K	Vapor or sublimation pressure, kPa	uncertainty
891	4.7e-05	2.1e-05
897	7.9e-05	1.3e-05
897	6.3e-05	1.3e-05
905	9.3e-05	1e-06
905	6.3e-05	1e-06
906	0.000126	2e-06
909	0.00011	1.7e-05
912	7.9e-05	1e-06
913	0.00011	2.2e-05
915	0.000158	7e-06
916	0.000158	1.4e-05
916	0.000158	1.4e-05
920	0.000126	2.4e-05
923	0.000158	1e-05
923	0.000219	1.3e-05
923	0.000219	1.3e-05
924	0.000219	3e-06
926	0.000219	6.3e-05
928	0.000191	6.3e-05
929	0.000158	5.1e-05
932	0.000316	4.7e-05
933	0.000316	3.6e-05
934	0.000347	9.6e-05
936	0.000251	8.5e-05
936	0.000219	8.4e-05
937	0.000347	4.8e-05
938	0.000282	6.1e-05
940	0.000427	4.4e-05
942	0.000437	1.3e-05
943	0.000468	0.000112
945	0.000468	7e-05
945	0.000331	7.5e-05
946	0.000347	6.8e-05
947	0.00038	7.8e-05
948	0.000562	9e-05
952	0.000631	0.000149
953	0.000692	9.3e-05
954	0.000631	7.9e-05
955	0.000525	7.9e-05
956	0.000537	7.5e-05
956	0.000501	7.5e-05
958	0.000794	6.4e-05
963	0.000851	0.000121
964	0.000933	0.000118
965	0.000759	0.000109
965	0.000692	0.000109
965	0.001	0.000109
965	0.000724	0.000109
969	0.001122	0.000224
972	0.001175	0.000254
973	0.000977	0.000241
973	0.001259	0.000254
974	0.000933	0.000187
974	0.00138	0.000276
975	0.000977	0.00016
978	0.001585	0.000161
979	0.001122	0.000166
980	0.001585	0.000407
982	0.001698	0.00033
983	0.00138	0.000183
984	0.001349	0.000393
985	0.001995	0.000241
988	0.002042	0.000476
990	0.002188	0.000304
991	0.001622	0.000232
992	0.001905	0.000214
993	0.00257	0.000105
994	0.001905	0.000119
995	0.002754	8.4e-05
997	0.002692	0.000243
1000	0.002399	0.000274
1002	0.002512	0.000556
1003	0.003631	0.00054
1006	0.003467	0.00033
1008	0.004169	0.000418
1009	0.003162	0.000115
1012	0.003388	0.000171
1013	0.004677	7.5e-05
1018	0.003981	0.000141
1021	0.004365	7.9e-05
1021	0.00631	0.000169
1022	0.006457	0.000217
1026	0.005012	0.000505
1032	0.005754	0.000495

System: ytterbium(II) iodide; phases: Crystal, Gas
Property: Vapor or sublimation pressure, kPa (Crystal); method: Torsion effusion method
Temperature, K	Vapor or sublimation pressure, kPa	uncertainty
968	1.9e-05	5e-06
975	2.8e-05	5e-06
976	2.8e-05	5e-06
978	3.8e-05	4e-06
982	3.8e-05	4e-06
982	3.8e-05	4e-06
987	3.8e-05	6e-06
989	3.8e-05	5e-06
989	4.8e-05	5e-06
989	5.6e-05	5e-06
991	4.8e-05	5e-06
996	5.6e-05	5e-06
996	6.6e-05	5e-06
997	6.3e-05	5e-06
998	5.6e-05	5e-06
999	5.6e-05	1e-05
999	5.6e-05	1e-05
1003	6.3e-05	3e-06
1005	8.5e-05	1e-05
1006	7.6e-05	1e-05
1006	7.9e-05	1e-05
1008	6.3e-05	6e-06
1008	7.6e-05	6e-06
1008	7.6e-05	6e-06
1011	8.5e-05	7e-06
1013	7.9e-05	1.1e-05
1013	0.000115	1e-05
1014	9.3e-05	1.1e-05
1015	9.5e-05	1.7e-05
1017	9.5e-05	1.5e-05
1017	9.5e-05	1.5e-05
1019	9.3e-05	1.5e-05
1020	0.000115	1.5e-05
1021	0.000141	1.4e-05
1022	0.000126	1e-05
1023	0.00011	1e-05
1025	0.000132	1.7e-05
1025	0.000132	1.7e-05
1026	0.000132	1e-05
1029	0.000126	2.1e-05
1030	0.000158	1e-05
1030	0.000151	1e-05
1030	0.000182	1e-05
1034	0.00017	1.9e-05
1035	0.000158	2e-05
1035	0.00017	2e-05
1035	0.000182	2e-05
1038	0.000219	1.6e-05
1039	0.000174	3.9e-05
1039	0.000204	3.8e-05
1040	0.000209	4.5e-05
1043	0.000204	6e-06
1043	0.000234	5e-06
1043	0.000209	6e-06
1043	0.000229	5e-06
1046	0.000282	4.9e-05
1049	0.000234	2e-05
1049	0.000282	5.2e-05

System: ytterbium(II) iodide; phases: Liquid, Gas
Property: Vapor or sublimation pressure, kPa (Liquid); method: Torsion effusion method
Temperature, K	Vapor or sublimation pressure, kPa	uncertainty
1068	0.000468	2.6e-05
1073	0.000501	6.5e-05
1078	0.000631	7.2e-05
1082	0.000631	7.2e-05
1087	0.000759	7.3e-05
1092	0.000813	8.9e-05
1098	0.001	0.000141
1101	0.001	0.000139
1103	0.001202	0.000152
1108	0.00138	0.000142
1111	0.001259	0.000136
1112	0.001445	0.000138
1117	0.001698	0.000167
1119	0.001585	0.000187
1122	0.001862	0.000176
1127	0.002138	0.000151
1128	0.001995	0.000246
1132	0.002239	0.000246
1137	0.002754	0.000255
1138	0.002512	0.000256
1143	0.002951	0.00035
1148	0.003388	0.000379
1148	0.00309	0.000396
1152	0.003548	0.000368
1158	0.004365	0.000552
1158	0.003981	0.000568
1162	0.004786	0.000546
1168	0.005754	0.000457
1168	0.005129	0.000444
1173	0.006026	0.000429
1179	0.006918	0.000676
1179	0.006761	0.000682
1183	0.007586	0.000666
1189	0.00871	0.000749
1192	0.008913	0.00059

System: lutetium trichloride; phases: Crystal, Gas
Property: Vapor or sublimation pressure, kPa (Crystal); method: Torsion effusion method
Temperature, K	Vapor or sublimation pressure, kPa	uncertainty
942	6.3e-05	6e-06
945	7.9e-05	1.6e-05
945	7.9e-05	1.6e-05
946	7.9e-05	1.6e-05
953	7.9e-05	1e-05
955	0.000126	1.5e-05
958	0.00011	2.5e-05
959	0.000126	2.1e-05
963	0.000141	1.9e-05
968	0.000158	2.5e-05
969	0.000191	2.4e-05
969	0.000191	2.4e-05
970	0.000158	2.4e-05
976	0.000219	3.4e-05
976	0.000219	3.4e-05
978	0.000251	5.4e-05
981	0.000251	4.4e-05
982	0.000316	4.2e-05
984	0.000347	3.9e-05
991	0.00038	3.5e-05
991	0.000407	3.5e-05
992	0.00038	3.4e-05
998	0.000468	7.9e-05
998	0.00055	7.9e-05
1001	0.000603	8.2e-05
1002	0.000562	8.3e-05
1004	0.000617	9.3e-05
1004	0.000575	9.4e-05
1005	0.000631	9.3e-05
1005	0.000631	9.3e-05
1012	0.000794	0.000121
1013	0.000912	0.00011
1016	0.000933	0.000125
1017	0.001	0.000144
1017	0.000912	0.000148
1018	0.000977	0.000117
1024	0.00123	0.00017
1024	0.00123	0.00017
1024	0.00123	0.00017
1029	0.001445	0.000228
1030	0.001445	0.00023
1031	0.001622	0.000224
1032	0.001622	0.000225
1033	0.00166	0.000224
1033	0.001778	0.000224
1042	0.002239	0.00029
1042	0.002188	0.000288
1042	0.002138	0.000285
1046	0.00263	0.000289
1047	0.002692	0.000335
1048	0.002818	0.000337
1050	0.002951	0.000348
1051	0.002951	0.000337
1053	0.003162	0.000325
1058	0.003631	0.000403
1059	0.003548	0.000405
1060	0.003715	0.000399
1060	0.003981	0.000403
1062	0.00389	0.000491
1066	0.004467	0.000599
1071	0.00537	0.000722
1071	0.004898	0.000345
1075	0.005495	0.000457
1075	0.00537	0.000401

System: lutetium tribromide; phases: Crystal, Gas
Property: Vapor or sublimation pressure, kPa (Crystal); method: Torsion effusion method
Temperature, K	Vapor or sublimation pressure, kPa	uncertainty
903	6.3e-05	1.3e-05
908	7.9e-05	1.1e-05
909	9.3e-05	1.1e-05
910	6.3e-05	9e-06
910	6.3e-05	9e-06
910	9.3e-05	9e-06
914	9.3e-05	1.3e-05
917	9.3e-05	2.2e-05
918	0.000141	2.3e-05
918	0.000126	2.3e-05
919	0.000126	1.9e-05
920	0.00011	1.1e-05
921	9.3e-05	1e-05
921	0.00011	1.1e-05
924	0.000141	3.1e-05
926	0.000126	2.6e-05
926	0.000191	2.6e-05
927	0.000191	2.6e-05
929	0.000204	1.7e-05
929	0.000204	1.7e-05
930	0.000158	1.8e-05
930	0.000126	1.7e-05
931	0.000158	4.3e-05
935	0.000191	1.3e-05
936	0.000234	4.1e-05
937	0.000282	4e-05
938	0.000251	4.2e-05
938	0.000219	4.2e-05
938	0.000282	4.2e-05
938	0.000282	4.2e-05
939	0.000282	4.3e-05
940	0.000191	4.7e-05
946	0.000316	5.8e-05
947	0.00038	5.7e-05
948	0.000347	5.9e-05
948	0.000437	5.9e-05
948	0.000316	5.9e-05
948	0.00038	5.9e-05
950	0.000407	6.2e-05
950	0.000282	5.7e-05
956	0.000427	7.5e-05
956	0.000437	7.4e-05
956	0.000501	7.2e-05
957	0.000562	7.1e-05
957	0.000562	7.1e-05
958	0.00049	7.1e-05
958	0.000468	7.1e-05
960	0.000603	7.3e-05
960	0.000427	6.3e-05
965	0.000676	9.7e-05
966	0.000617	9.7e-05
966	0.000794	9.4e-05
966	0.000724	9.5e-05
967	0.000661	9.3e-05
967	0.000794	9.5e-05
968	0.000661	8.9e-05
969	0.000794	5.8e-05
969	0.000617	5.2e-05
973	0.000912	0.0001
975	0.000813	0.000127
976	0.001096	0.00013
976	0.001047	0.000128
977	0.001072	0.000173
978	0.000912	0.000199
978	0.000933	0.000199
979	0.001096	0.000191
979	0.000912	0.000187
981	0.001175	4.2e-05
984	0.001445	0.000167
986	0.001202	0.000235
986	0.001413	0.000223
986	0.001445	0.000222
987	0.001318	0.000227
988	0.001288	0.000221
989	0.001514	0.000187
989	0.00123	0.000193
989	0.001585	0.000186
995	0.00195	0.000281
995	0.001778	0.000287
996	0.001585	0.000287
996	0.00195	0.000282
997	0.00195	0.00028
997	0.001778	0.000278
998	0.001778	0.000269
998	0.001622	0.000263
999	0.002089	0.000274
1004	0.00257	0.000292
1004	0.002399	0.000292
1006	0.002512	0.000349
1006	0.002089	0.000349
1006	0.00257	0.000349
1007	0.002188	0.000333
1007	0.002399	0.000339
1008	0.002399	0.000324
1009	0.002818	0.000197
1013	0.003311	0.000335
1013	0.00309	0.000335
1016	0.003162	0.000359
1017	0.002951	0.000343
1017	0.003388	0.000355
1018	0.003236	0.000305
1018	0.00302	0.000305
1018	0.003548	0.000305
1023	0.004074	0.000262
1026	0.004074	0.000822
1027	0.003981	0.000816
1027	0.003802	0.000818
1027	0.005012	0.000802
1028	0.00389	0.000916
1038	0.007244	0.001342

System: lutetium triiodide; phases: Crystal, Gas
Property: Vapor or sublimation pressure, kPa (Crystal); method: Torsion effusion method
Temperature, K	Vapor or sublimation pressure, kPa	uncertainty
862	3e-05	9e-06
875	6e-05	9e-06
883	7.6e-05	9e-06
888	8.9e-05	1.2e-05
892	7.6e-05	1.1e-05
893	0.000105	2.5e-05
894	0.00012	2.2e-05
895	0.00012	6e-06
896	0.000151	1.2e-05
897	0.00012	2.5e-05
898	0.000151	1.6e-05
899	0.000151	1.2e-05
900	0.000105	2.5e-05
901	0.00012	2.9e-05
904	0.000151	2.3e-05
904	0.000182	2.3e-05
905	0.000182	4.9e-05
906	0.000224	4.8e-05
906	0.000166	4.8e-05
909	0.000209	4.3e-05
909	0.000151	4.4e-05
909	0.000166	4.4e-05
911	0.00024	3.1e-05
911	0.000195	3.1e-05
912	0.000209	4.3e-05
913	0.00024	6e-06
915	0.000269	2.2e-05
916	0.000302	3.6e-05
916	0.00024	3.6e-05
917	0.000347	5.8e-05
918	0.00024	5.3e-05
919	0.000209	4.3e-05
920	0.000269	5.4e-05
920	0.000288	1e-06
921	0.000331	1.3e-05
923	0.000372	0.000109
924	0.000363	7.2e-05
926	0.000269	7.3e-05
926	0.000447	7.3e-05
927	0.000347	6e-05
928	0.000513	8.1e-05
928	0.000363	8.1e-05
928	0.000389	8.1e-05
929	0.000389	6.4e-05
931	0.000513	9.8e-05
932	0.000501	6.6e-05
933	0.000575	9.8e-05
935	0.000537	0.00011
936	0.000513	9.2e-05
937	0.000513	0.000103
938	0.000759	7.4e-05
938	0.000537	7.4e-05
938	0.000417	7.4e-05
938	0.000724	7.4e-05
940	0.000692	6.2e-05
942	0.000759	0.000194
943	0.000759	0.000115
943	0.000692	0.000115
945	0.000692	0.000132
945	0.000575	0.000132
945	0.000724	0.000132
948	0.001047	7e-05
948	0.000776	7e-05
949	0.000933	8.9e-05
950	0.001023	5.6e-05
951	0.001072	0.000221
951	0.000891	0.000224
952	0.001122	0.000223
953	0.000933	0.000146
954	0.001	0.000205
955	0.000832	0.000196
958	0.001413	0.000192
958	0.001445	0.000192
958	0.001148	0.000192
959	0.001445	9.2e-05
959	0.00123	9.2e-05
960	0.001514	0.000365
961	0.001479	0.000373
962	0.001349	0.000368
963	0.001413	0.00033
964	0.00123	7.1e-05
967	0.00195	0.000222
967	0.001622	0.000222
968	0.002239	0.000103
968	0.001995	0.000109
969	0.001622	0.000203
970	0.002138	0.000339
972	0.001905	0.000374
972	0.002239	0.000374
972	0.00182	0.000374
974	0.001738	0.000532
975	0.002138	0.000265
975	0.002138	0.000265
976	0.002951	0.000243
976	0.00257	0.000249
977	0.002884	0.000369
977	0.002884	0.000369
977	0.002138	0.000386
978	0.002455	0.00038
979	0.002951	0.000681
979	0.002291	0.000695
983	0.002951	0.000567
983	0.002399	0.000592
985	0.003631	0.000438
985	0.003162	0.000438
985	0.003631	0.000438
985	0.003236	0.000438
986	0.003981	0.000448
986	0.003715	0.000438
987	0.00302	0.000468
991	0.004266	0.000412
993	0.004677	0.000752
993	0.00389	0.000787
994	0.004074	0.000782
994	0.003388	0.000801
994	0.004169	0.00078
995	0.005012	0.00077
995	0.003631	0.000783
996	0.005012	0.000631
1004	0.00631	0.000649
1004	0.005623	0.000306
