Measured thermophysical data. Solid-Liquid Equilibria for Benzoic Acid + p-Toluic Acid + Chloroform, Benzoic Acid + p-Toluic Acid + Acetic Acid, and Terephthalic Acid + Isophthalic Acid + N,N-Dimethylformamide
Source: J. Chem. Eng. Data, 2005, 10.1021/je049801y
Compound 1: benzoic acid, C7H6O2, InChI=1S/C7H6O2/c8-7(9)6-4-2-1-3-5-6/h1-5H,(H,8,9), purity 99.5%
Compound 2: 1,4-benzenedicarboxylic acid, C8H6O4, InChI=1S/C8H6O4/c9-7(10)5-1-2-6(4-3-5)8(11)12/h1-4H,(H,9,10)(H,11,12), purity 99.5%
Compound 3: 1,3-benzenedicarboxylic acid, C8H6O4, InChI=1S/C8H6O4/c9-7(10)5-2-1-3-6(4-5)8(11)12/h1-4H,(H,9,10)(H,11,12), purity 99.5%
Compound 4: trichloromethane, CHCl3, InChI=1S/CHCl3/c2-1(3)4/h1H, purity 99%
Compound 5: acetic acid, C2H4O2, InChI=1S/C2H4O2/c1-2(3)4/h1H3,(H,3,4), purity 99.5%
Compound 6: dimethylformamide, C3H7NO, InChI=1S/C3H7NO/c1-4(2)3-5/h3H,1-2H3, purity 99%
Compound 7: 4-methylbenzoic acid, C8H8O2, InChI=1S/C8H8O2/c1-6-2-4-7(5-3-6)8(9)10/h2-5H,1H3,(H,9,10)

System: benzoic acid; phases: Crystal, Liquid, Air at 1 atmosphere
Property: Normal melting temperature, K (Crystal); method: VISOBS:UFactor:2:FP
Normal melting temperature, K	uncertainty
395.5	1

System: 1,4-benzenedicarboxylic acid; phases: Crystal, Liquid, Air at 1 atmosphere
Property: Normal melting temperature, K (Crystal); method: VISOBS:UFactor:2:FP
Normal melting temperature, K	uncertainty
703.1	1

System: 1,3-benzenedicarboxylic acid; phases: Crystal, Liquid, Air at 1 atmosphere
Property: Normal melting temperature, K (Crystal); method: VISOBS:UFactor:2:FP
Normal melting temperature, K	uncertainty
621.2	1

System: 4-methylbenzoic acid; phases: Crystal, Liquid, Air at 1 atmosphere
Property: Normal melting temperature, K (Crystal); method: VISOBS:UFactor:2:FP
Normal melting temperature, K	uncertainty
455.1	1

System: benzoic acid + trichloromethane + 4-methylbenzoic acid; phases: Liquid, Crystal
Fixed: Pressure, kPa = 101
Fixed: Temperature, K = 303.15
Property: Mole fraction of benzoic acid (Liquid); method: laser beam used to measure dissolution process
Mole fraction of trichloromethane	Mole fraction of benzoic acid	uncertainty
0.7679	0.1688	0.0011
0.7717	0.1688	0.0011
0.7729	0.1604	0.0011
0.7862	0.1633	0.0011
0.7891	0.1471	0.0011
0.8035	0.1595	0.0011
0.8044	0.1567	0.0011
0.8153	0.1237	0.001
0.825	0.1164	0.001
0.8251	0.1524	0.0011
0.8417	0.1464	0.0011
0.8464	0.0965	0.001
0.8472	0.0961	0.001
0.8609	0.1391	0.0011
0.8676	0.0788	0.001
0.8875	0.0625	0.001
0.9159	0.04	0.001
0.9498	0.0173	0.001
0.974	0	0.0001

System: acetic acid + benzoic acid + 4-methylbenzoic acid; phases: Liquid, Crystal
Fixed: Pressure, kPa = 101
Fixed: Temperature, K = 343.15
Property: Mole fraction of benzoic acid (Liquid); method: laser beam used to measure dissolution process
Mole fraction of acetic acid	Mole fraction of benzoic acid	uncertainty
0.4121	0.4352	0.0027
0.4216	0.4344	0.0027
0.4633	0.4283	0.0029
0.4686	0.3752	0.0022
0.5024	0.4267	0.003
0.5147	0.329	0.0019
0.5452	0.4219	0.0032
0.5661	0.2827	0.0017
0.5791	0.2684	0.0016
0.5861	0.4139	0.0033
0.6303	0.2221	0.0014
0.6871	0.1732	0.0012
0.7291	0.1351	0.0011
0.764	0.105	0.0011
0.779	0.0922	0.0011
0.8164	0.0604	0.001
0.8464	0.0358	0.001
0.8874	0	0.0001

System: dimethylformamide + 1,4-benzenedicarboxylic acid + 1,3-benzenedicarboxylic acid; phases: Liquid, Crystal
Fixed: Pressure, kPa = 101
Fixed: Temperature, K = 343.15
Property: Mole fraction of 1,4-benzenedicarboxylic acid (Liquid); method: laser beam used to measure dissolution process
Mole fraction of dimethylformamide	Mole fraction of 1,4-benzenedicarboxylic acid	uncertainty
0.8345	0.0098	0.001
0.8348	0.0096	0.001
0.8363	0.0054	0.001
0.8371	0.0105	0.001
0.8372	0.0086	0.001
0.8377	0	0.0001
0.8378	0.0104	0.001
0.843	0.0118	0.001
0.8487	0.01	0.001
0.8498	0.0128	0.001
0.8554	0.0115	0.001
0.8621	0.015	0.001
0.8713	0.0173	0.001
0.8845	0.0191	0.001
0.8963	0.0217	0.001
0.9119	0.025	0.001
0.9304	0.0314	0.001
0.9443	0.037	0.001
0.9603	0.0397	0.001
