Measured thermophysical data. Thermodynamic Properties of Binary Mixtures of p-Xylene with Cyclohexane, Heptane, Octane, and N-Methyl-2-pyrrolidone at Several Temperatures
Source: J. Chem. Eng. Data, 2004, 10.1021/je049776w
Compound 1: 1,4-dimethylbenzene, C8H10, InChI=1S/C8H10/c1-7-3-5-8(2)6-4-7/h3-6H,1-2H3
Compound 2: cyclohexane, C6H12, InChI=1S/C6H12/c1-2-4-6-5-3-1/h1-6H2
Compound 3: heptane, C7H16, InChI=1S/C7H16/c1-3-5-7-6-4-2/h3-7H2,1-2H3
Compound 4: octane, C8H18, InChI=1S/C8H18/c1-3-5-7-8-6-4-2/h3-8H2,1-2H3
Compound 5: N-methylpyrrolidone, C5H9NO, InChI=1S/C5H9NO/c1-6-4-2-3-5(6)7/h2-4H2,1H3

System: 1,4-dimethylbenzene; phases: Liquid
Fixed: Pressure, kPa = 101.3
Property: Viscosity, Pa*s (Liquid); method: CAPTUB:UFactor:4
Temperature, K	Viscosity, Pa*s	uncertainty
298.15	0.0006162	1.65e-05
303.15	0.0005715	1.55e-05
313.15	0.000508	1.42e-05
323.15	0.0004599	1.34e-05
333.15	0.0004298	1.28e-05
343.15	0.0003783	1.2e-05
353.15	0.0003382	1.13e-05

System: 1,4-dimethylbenzene; phases: Liquid
Fixed: Pressure, kPa = 101.3
Property: Mass density, kg/m3 (Liquid); method: VIBTUB:UFactor:8
Temperature, K	Mass density, kg/m3	uncertainty
298.15	856.7	0.7
303.15	852.35	0.72
313.15	843.64	0.74
323.15	834.9	0.77
333.15	826.09	0.8
343.15	817.17	0.83
353.15	808.22	0.85

System: cyclohexane; phases: Liquid
Fixed: Pressure, kPa = 101.3
Property: Viscosity, Pa*s (Liquid); method: CAPTUB::UFactor:4
Temperature, K	Viscosity, Pa*s	uncertainty
298.15	0.0009027	2.28e-05
303.15	0.0008205	2.1e-05
313.15	0.0006963	1.83e-05
323.15	0.0005984	1.61e-05
333.15	0.0005195	1.45e-05

System: cyclohexane; phases: Liquid
Fixed: Pressure, kPa = 101.3
Property: Mass density, kg/m3 (Liquid); method: VIBTUB::UFactor:8
Temperature, K	Mass density, kg/m3	uncertainty
298.15	773.82	0.96
303.15	769.1	0.97
313.15	759.61	1
323.15	749.98	1.03
333.15	740.23	1.06

System: heptane; phases: Liquid
Fixed: Pressure, kPa = 101.3
Property: Viscosity, Pa*s (Liquid); method: CAPTUB::UFactor:4
Temperature, K	Viscosity, Pa*s	uncertainty
298.15	0.0004009	1.24e-05
303.15	0.000375	1.19e-05
313.15	0.0003373	1.13e-05
323.15	0.0003074	1.08e-05
333.15	0.0002793	1.03e-05
343.15	0.0002541	9.9e-06

System: heptane; phases: Liquid
Fixed: Pressure, kPa = 101.3
Property: Mass density, kg/m3 (Liquid); method: VIBTUB::UFactor:8
Temperature, K	Mass density, kg/m3	uncertainty
298.15	679.9	1.26
303.15	675.65	1.27
313.15	667.08	1.3
323.15	658.37	1.33
333.15	649.53	1.36
343.15	640.47	1.38

System: octane; phases: Liquid
Fixed: Pressure, kPa = 101.3
Property: Viscosity, Pa*s (Liquid); method: CAPTUB::UFactor:4
Temperature, K	Viscosity, Pa*s	uncertainty
298.15	0.0005206	1.46e-05
303.15	0.0004837	1.39e-05
313.15	0.0004306	1.29e-05
323.15	0.0003864	1.22e-05
333.15	0.0003495	1.15e-05
343.15	0.0003139	1.09e-05
353.15	0.000284	1.04e-05

System: octane; phases: Liquid
Fixed: Pressure, kPa = 101.3
Property: Mass density, kg/m3 (Liquid); method: VIBTUB::UFactor:8
Temperature, K	Mass density, kg/m3	uncertainty
298.15	699.9	1.21
303.15	695.72	1.23
313.15	687.5	1.25
323.15	679.37	1.27
333.15	671.02	1.3
343.15	662.54	1.33
353.15	653.8	1.35

System: N-methylpyrrolidone; phases: Liquid
Fixed: Pressure, kPa = 101.3
Property: Viscosity, Pa*s (Liquid); method: CAPTUB::UFactor:4
Temperature, K	Viscosity, Pa*s	uncertainty
303.15	0.0015544	5.35e-05
313.15	0.0013321	4.62e-05
323.15	0.0011602	4.05e-05
333.15	0.0010222	3.59e-05
343.15	0.0009084	3.22e-05
353.15	0.0008127	2.9e-05

System: N-methylpyrrolidone; phases: Liquid
Fixed: Pressure, kPa = 101.3
Property: Mass density, kg/m3 (Liquid); method: VIBTUB::UFactor:8
Temperature, K	Mass density, kg/m3	uncertainty
303.15	1023.47	2.71
313.15	1014.55	2.69
323.15	1005.66	2.66
333.15	996.71	2.64
343.15	987.75	2.62
353.15	978.76	2.6

System: 1,4-dimethylbenzene + cyclohexane; phases: Liquid
Fixed: Pressure, kPa = 101.3
Property: Viscosity, Pa*s (Liquid); method: CAPTUB:UFactor:4
Temperature, K	Mole fraction of 1,4-dimethylbenzene	Viscosity, Pa*s	uncertainty
298.15	0	0.0009027	2.28e-05
298.15	0.0809	0.0008232	2.11e-05
298.15	0.1655	0.000757	1.96e-05
298.15	0.2537	0.0007177	1.88e-05
298.15	0.3457	0.0006773	1.79e-05
298.15	0.4422	0.0006575	1.74e-05
298.15	0.5431	0.0006326	1.69e-05
298.15	0.6491	0.0006219	1.66e-05
298.15	0.7603	0.0006175	1.66e-05
298.15	0.8771	0.0006139	1.65e-05
298.15	1	0.0006162	1.65e-05
303.15	0	0.0008205	2.1e-05
303.15	0.0809	0.0007475	1.94e-05
303.15	0.1655	0.0006992	1.83e-05
303.15	0.2537	0.0006524	1.73e-05
303.15	0.3457	0.0006311	1.68e-05
303.15	0.4422	0.0006059	1.63e-05
303.15	0.5431	0.0005868	1.59e-05
303.15	0.6491	0.0005787	1.57e-05
303.15	0.7603	0.0005726	1.55e-05
303.15	0.8771	0.0005701	1.55e-05
303.15	1	0.0005715	1.55e-05
313.15	0	0.0006963	1.83e-05
313.15	0.0809	0.0006401	1.7e-05
313.15	0.1655	0.0005981	1.61e-05
313.15	0.2537	0.0005739	1.56e-05
313.15	0.3457	0.0005481	1.5e-05
313.15	0.4422	0.0005313	1.47e-05
313.15	0.5431	0.0005185	1.44e-05
313.15	0.6491	0.0005108	1.43e-05
313.15	0.7603	0.000511	1.43e-05
313.15	0.8771	0.0005052	1.42e-05
313.15	1	0.000508	1.42e-05
323.15	0	0.0005984	1.61e-05
323.15	0.0809	0.0005594	1.53e-05
323.15	0.1655	0.000526	1.46e-05
323.15	0.2537	0.0005037	1.42e-05
323.15	0.3457	0.0004861	1.39e-05
323.15	0.4422	0.0004722	1.36e-05
323.15	0.5431	0.0004638	1.34e-05
323.15	0.6491	0.000458	1.33e-05
323.15	0.7603	0.0004569	1.33e-05
323.15	0.8771	0.0004567	1.33e-05
323.15	1	0.0004599	1.34e-05
333.15	0	0.0005195	1.45e-05
333.15	0.0809	0.0004874	1.39e-05
333.15	0.1655	0.0004646	1.35e-05
333.15	0.2537	0.000452	1.32e-05
333.15	0.3457	0.0004338	1.29e-05
333.15	0.4422	0.000423	1.27e-05
333.15	0.5431	0.0004186	1.27e-05
333.15	0.6491	0.0004131	1.26e-05
333.15	0.7603	0.0004109	1.25e-05
333.15	0.8771	0.0004124	1.25e-05
333.15	1	0.0004298	1.28e-05

System: 1,4-dimethylbenzene + cyclohexane; phases: Liquid
Fixed: Pressure, kPa = 101.3
Property: Mass density, kg/m3 (Liquid); method: VIBTUB:UFactor:8
Temperature, K	Mole fraction of 1,4-dimethylbenzene	Mass density, kg/m3	uncertainty
298.15	0	773.82	0.96
298.15	0.0809	779.58	0.94
298.15	0.1655	786.02	0.92
298.15	0.2537	792.96	0.9
298.15	0.3457	800.58	0.88
298.15	0.4422	808.68	0.85
298.15	0.5431	817.38	0.82
298.15	0.6491	826.54	0.8
298.15	0.7603	836.16	0.77
298.15	0.8771	846.17	0.73
298.15	1	856.7	0.7
303.15	0	769.1	0.97
303.15	0.0809	774.92	0.95
303.15	0.1655	781.39	0.93
303.15	0.2537	788.36	0.91
303.15	0.3457	796.02	0.89
303.15	0.4422	804.15	0.86
303.15	0.5431	812.89	0.84
303.15	0.6491	822.09	0.81
303.15	0.7603	831.71	0.78
303.15	0.8771	841.79	0.75
303.15	1	852.35	0.72
313.15	0	759.61	1
313.15	0.0809	765.5	0.98
313.15	0.1655	772.07	0.96
313.15	0.2537	779.14	0.94
313.15	0.3457	786.88	0.92
313.15	0.4422	795.1	0.89
313.15	0.5431	803.91	0.87
313.15	0.6491	813.16	0.84
313.15	0.7603	822.86	0.81
313.15	0.8771	833	0.78
313.15	1	843.64	0.74
323.15	0	749.98	1.03
323.15	0.0809	755.99	1.01
323.15	0.1655	762.67	0.99
323.15	0.2537	769.83	0.97
323.15	0.3457	777.65	0.95
323.15	0.4422	785.98	0.92
323.15	0.5431	794.86	0.89
323.15	0.6491	804.19	0.86
323.15	0.7603	813.98	0.83
323.15	0.8771	824.18	0.8
323.15	1	834.9	0.77
333.15	0	740.23	1.06
333.15	0.0809	746.36	1.04
333.15	0.1655	753.14	1.02
333.15	0.2537	760.42	1
333.15	0.3457	768.33	0.98
333.15	0.4422	776.74	0.95
333.15	0.5431	785.72	0.92
333.15	0.6491	795.14	0.89
333.15	0.7603	805	0.86
333.15	0.8771	815.3	0.83
333.15	1	826.09	0.8

System: 1,4-dimethylbenzene + heptane; phases: Liquid
Fixed: Pressure, kPa = 101.3
Property: Viscosity, Pa*s (Liquid); method: CAPTUB:UFactor:4
Temperature, K	Mole fraction of 1,4-dimethylbenzene	Viscosity, Pa*s	uncertainty
298.15	0	0.0004009	1.24e-05
298.15	0.0948	0.0004074	1.25e-05
298.15	0.1911	0.0004176	1.27e-05
298.15	0.288	0.0004295	1.29e-05
298.15	0.3865	0.0004436	1.31e-05
298.15	0.4856	0.0004598	1.34e-05
298.15	0.5861	0.0004807	1.38e-05
298.15	0.6877	0.0005047	1.42e-05
298.15	0.7906	0.0005331	1.47e-05
298.15	0.8949	0.0005714	1.56e-05
298.15	1	0.0006162	1.65e-05
303.15	0	0.000375	1.19e-05
303.15	0.0948	0.000382	1.2e-05
303.15	0.1911	0.0003912	1.22e-05
303.15	0.288	0.0004019	1.24e-05
303.15	0.3865	0.0004154	1.26e-05
303.15	0.4856	0.0004304	1.29e-05
303.15	0.5861	0.0004496	1.32e-05
303.15	0.6877	0.0004716	1.36e-05
303.15	0.7906	0.0004979	1.41e-05
303.15	0.8949	0.0005308	1.47e-05
303.15	1	0.0005715	1.55e-05
313.15	0	0.0003373	1.13e-05
313.15	0.0948	0.000344	1.14e-05
313.15	0.1911	0.0003523	1.15e-05
313.15	0.288	0.0003623	1.17e-05
313.15	0.3865	0.000374	1.19e-05
313.15	0.4856	0.0003865	1.21e-05
313.15	0.5861	0.0004034	1.24e-05
313.15	0.6877	0.0004234	1.27e-05
313.15	0.7906	0.000444	1.31e-05
313.15	0.8949	0.0004729	1.36e-05
313.15	1	0.000508	1.42e-05
323.15	0	0.0003074	1.08e-05
323.15	0.0948	0.0003136	1.09e-05
323.15	0.1911	0.0003211	1.1e-05
323.15	0.288	0.0003304	1.12e-05
323.15	0.3865	0.0003408	1.13e-05
323.15	0.4856	0.0003529	1.15e-05
323.15	0.5861	0.0003683	1.18e-05
323.15	0.6877	0.0003835	1.2e-05
323.15	0.7906	0.0004041	1.24e-05
323.15	0.8949	0.0004285	1.28e-05
323.15	1	0.0004599	1.34e-05
333.15	0	0.0002793	1.03e-05
333.15	0.0948	0.0002848	1.04e-05
333.15	0.1911	0.0002922	1.05e-05
333.15	0.288	0.0002997	1.06e-05
333.15	0.3865	0.0003097	1.08e-05
333.15	0.4856	0.0003201	1.1e-05
333.15	0.5861	0.0003345	1.12e-05
333.15	0.6877	0.0003537	1.15e-05
333.15	0.7906	0.0003712	1.18e-05
333.15	0.8949	0.0003973	1.23e-05
333.15	1	0.0004298	1.28e-05
343.15	0	0.0002541	9.9e-06
343.15	0.0948	0.0002612	1e-05
343.15	0.1911	0.0002658	1.01e-05
343.15	0.288	0.000273	1.02e-05
343.15	0.3865	0.0002818	1.04e-05
343.15	0.4856	0.0002915	1.05e-05
343.15	0.5861	0.000303	1.07e-05
343.15	0.6877	0.0003166	1.09e-05
343.15	0.7906	0.0003317	1.12e-05
343.15	0.8949	0.0003498	1.15e-05
343.15	1	0.0003783	1.2e-05

System: 1,4-dimethylbenzene + heptane; phases: Liquid
Fixed: Pressure, kPa = 101.3
Property: Mass density, kg/m3 (Liquid); method: VIBTUB:UFactor:8
Temperature, K	Mole fraction of 1,4-dimethylbenzene	Mass density, kg/m3	uncertainty
298.15	0	679.9	1.26
298.15	0.0948	694.32	1.22
298.15	0.1911	709.39	1.17
298.15	0.288	725.04	1.12
298.15	0.3865	741.5	1.07
298.15	0.4856	758.54	1.02
298.15	0.5861	776.51	0.96
298.15	0.6877	795.16	0.9
298.15	0.7906	814.74	0.84
298.15	0.8949	835.24	0.77
298.15	1	856.7	0.7
303.15	0	675.65	1.27
303.15	0.0948	690.05	1.23
303.15	0.1911	705.12	1.18
303.15	0.288	720.75	1.13
303.15	0.3865	737.2	1.08
303.15	0.4856	754.24	1.03
303.15	0.5861	772.19	0.97
303.15	0.6877	790.83	0.91
303.15	0.7906	810.42	0.85
303.15	0.8949	830.91	0.78
303.15	1	852.35	0.72
313.15	0	667.08	1.3
313.15	0.0948	681.45	1.26
313.15	0.1911	696.52	1.21
313.15	0.288	712.12	1.16
313.15	0.3865	728.57	1.11
313.15	0.4856	745.57	1.06
313.15	0.5861	763.52	1
313.15	0.6877	782.15	0.94
313.15	0.7906	801.71	0.88
313.15	0.8949	822.21	0.81
313.15	1	843.64	0.74
323.15	0	658.37	1.33
323.15	0.0948	672.73	1.28
323.15	0.1911	687.79	1.24
323.15	0.288	703.38	1.19
323.15	0.3865	719.83	1.14
323.15	0.4856	736.82	1.08
323.15	0.5861	754.77	1.03
323.15	0.6877	773.41	0.97
323.15	0.7906	792.97	0.9
323.15	0.8949	813.45	0.84
323.15	1	834.9	0.77
333.15	0	649.53	1.36
333.15	0.0948	663.88	1.31
333.15	0.1911	678.95	1.26
333.15	0.288	694.52	1.21
333.15	0.3865	710.98	1.16
333.15	0.4856	727.97	1.11
333.15	0.5861	745.92	1.05
333.15	0.6877	764.57	0.99
333.15	0.7906	784.15	0.93
333.15	0.8949	804.64	0.87
333.15	1	826.09	0.8
343.15	0	640.47	1.38
343.15	0.0948	654.83	1.34
343.15	0.1911	669.89	1.29
343.15	0.288	685.48	1.24
343.15	0.3865	701.94	1.19
343.15	0.4856	718.94	1.14
343.15	0.5861	736.91	1.08
343.15	0.6877	755.57	1.02
343.15	0.7906	775.17	0.96
343.15	0.8949	795.69	0.89
343.15	1	817.17	0.83

System: 1,4-dimethylbenzene + octane; phases: Liquid
Fixed: Pressure, kPa = 101.3
Property: Viscosity, Pa*s (Liquid); method: CAPTUB:UFactor:4
Temperature, K	Mole fraction of 1,4-dimethylbenzene	Viscosity, Pa*s	uncertainty
298.15	0	0.0005206	1.46e-05
298.15	0.1068	0.0005185	1.45e-05
298.15	0.2121	0.0005172	1.45e-05
298.15	0.3156	0.0005216	1.46e-05
298.15	0.4178	0.0005273	1.47e-05
298.15	0.5184	0.0005297	1.47e-05
298.15	0.6174	0.0005393	1.49e-05
298.15	0.7152	0.0005515	1.51e-05
298.15	0.8113	0.0005678	1.55e-05
298.15	0.9065	0.0005905	1.6e-05
298.15	1	0.0006162	1.65e-05
303.15	0	0.0004837	1.39e-05
303.15	0.1068	0.0004829	1.39e-05
303.15	0.2121	0.0004825	1.39e-05
303.15	0.3156	0.0004833	1.39e-05
303.15	0.4178	0.0004919	1.4e-05
303.15	0.5184	0.000493	1.4e-05
303.15	0.6174	0.000502	1.42e-05
303.15	0.7152	0.0005139	1.44e-05
303.15	0.8113	0.0005299	1.47e-05
303.15	0.9065	0.0005489	1.5e-05
303.15	1	0.0005715	1.55e-05
313.15	0	0.0004306	1.29e-05
313.15	0.1068	0.0004298	1.29e-05
313.15	0.2121	0.0004298	1.29e-05
313.15	0.3156	0.0004331	1.3e-05
313.15	0.4178	0.0004373	1.3e-05
313.15	0.5184	0.0004418	1.31e-05
313.15	0.6174	0.0004483	1.32e-05
313.15	0.7152	0.0004586	1.34e-05
313.15	0.8113	0.0004722	1.36e-05
313.15	0.9065	0.0004895	1.39e-05
313.15	1	0.000508	1.42e-05
323.15	0	0.0003864	1.22e-05
323.15	0.1068	0.0003877	1.22e-05
323.15	0.2121	0.0003903	1.22e-05
323.15	0.3156	0.0003901	1.22e-05
323.15	0.4178	0.0003952	1.23e-05
323.15	0.5184	0.0003997	1.23e-05
323.15	0.6174	0.0004057	1.24e-05
323.15	0.7152	0.0004143	1.26e-05
323.15	0.8113	0.0004269	1.28e-05
323.15	0.9065	0.0004409	1.3e-05
323.15	1	0.0004599	1.34e-05
333.15	0	0.0003495	1.15e-05
333.15	0.1068	0.0003528	1.16e-05
333.15	0.2121	0.0003552	1.16e-05
333.15	0.3156	0.0003571	1.16e-05
333.15	0.4178	0.0003617	1.17e-05
333.15	0.5184	0.0003671	1.18e-05
333.15	0.6174	0.0003753	1.19e-05
333.15	0.7152	0.0003858	1.21e-05
333.15	0.8113	0.0003961	1.23e-05
333.15	0.9065	0.0004138	1.26e-05
333.15	1	0.0004298	1.28e-05
343.15	0	0.0003139	1.09e-05
343.15	0.1068	0.0003167	1.1e-05
343.15	0.2121	0.0003164	1.09e-05
343.15	0.3156	0.0003185	1.1e-05
343.15	0.4178	0.0003223	1.1e-05
343.15	0.5184	0.0003271	1.11e-05
343.15	0.6174	0.0003329	1.12e-05
343.15	0.7152	0.000341	1.13e-05
343.15	0.8113	0.0003481	1.15e-05
343.15	0.9065	0.0003588	1.16e-05
343.15	1	0.0003783	1.2e-05
353.15	0	0.000284	1.04e-05
353.15	0.1068	0.0002856	1.04e-05
353.15	0.2121	0.0002877	1.05e-05
353.15	0.3156	0.0002897	1.05e-05
353.15	0.4178	0.0002939	1.06e-05
353.15	0.5184	0.0002984	1.06e-05
353.15	0.6174	0.0003016	1.07e-05
353.15	0.7152	0.0003113	1.08e-05
353.15	0.8113	0.0003174	1.09e-05
353.15	0.9065	0.0003264	1.11e-05
353.15	1	0.0003382	1.13e-05

System: 1,4-dimethylbenzene + octane; phases: Liquid
Fixed: Pressure, kPa = 101.3
Property: Mass density, kg/m3 (Liquid); method: VIBTUB:UFactor:8
Temperature, K	Mole fraction of 1,4-dimethylbenzene	Mass density, kg/m3	uncertainty
298.15	0	699.9	1.21
298.15	0.1068	712.9	1.17
298.15	0.2121	726.39	1.13
298.15	0.3156	740.39	1.08
298.15	0.4178	755.01	1.03
298.15	0.5184	770.21	0.99
298.15	0.6174	786.05	0.93
298.15	0.7152	802.61	0.88
298.15	0.8113	819.83	0.82
298.15	0.9065	837.91	0.76
298.15	1	856.7	0.7
303.15	0	695.72	1.23
303.15	0.1068	708.71	1.18
303.15	0.2121	722.17	1.14
303.15	0.3156	736.15	1.09
303.15	0.4178	750.77	1.05
303.15	0.5184	765.93	1
303.15	0.6174	781.76	0.95
303.15	0.7152	798.3	0.89
303.15	0.8113	815.51	0.84
303.15	0.9065	833.52	0.78
303.15	1	852.35	0.72
313.15	0	687.5	1.25
313.15	0.1068	700.44	1.21
313.15	0.2121	713.85	1.16
313.15	0.3156	727.78	1.12
313.15	0.4178	742.31	1.07
313.15	0.5184	757.45	1.02
313.15	0.6174	773.23	0.97
313.15	0.7152	789.72	0.92
313.15	0.8113	806.89	0.86
313.15	0.9065	824.89	0.8
313.15	1	843.64	0.74
323.15	0	679.37	1.27
323.15	0.1068	692.26	1.23
323.15	0.2121	705.6	1.19
323.15	0.3156	719.47	1.14
323.15	0.4178	733.93	1.1
323.15	0.5184	749.01	1.05
323.15	0.6174	764.73	1
323.15	0.7152	781.17	0.94
323.15	0.8113	798.31	0.89
323.15	0.9065	816.2	0.83
323.15	1	834.9	0.77
333.15	0	671.02	1.3
333.15	0.1068	683.83	1.26
333.15	0.2121	697.15	1.21
333.15	0.3156	710.96	1.17
333.15	0.4178	725.38	1.12
333.15	0.5184	740.41	1.08
333.15	0.6174	756.08	1.03
333.15	0.7152	772.47	0.97
333.15	0.8113	789.52	0.92
333.15	0.9065	807.43	0.86
333.15	1	826.09	0.8
343.15	0	662.54	1.33
343.15	0.1068	675.29	1.28
343.15	0.2121	688.57	1.24
343.15	0.3156	702.32	1.2
343.15	0.4178	716.69	1.15
343.15	0.5184	731.68	1.1
343.15	0.6174	747.3	1.05
343.15	0.7152	763.64	1
343.15	0.8113	780.65	0.94
343.15	0.9065	798.53	0.89
343.15	1	817.17	0.83
353.15	0	653.8	1.35
353.15	0.1068	666.51	1.31
353.15	0.2121	679.75	1.27
353.15	0.3156	693.48	1.22
353.15	0.4178	707.82	1.18
353.15	0.5184	722.78	1.13
353.15	0.6174	738.37	1.08
353.15	0.7152	754.7	1.03
353.15	0.8113	771.7	0.97
353.15	0.9065	789.57	0.91
353.15	1	808.22	0.85

System: 1,4-dimethylbenzene + N-methylpyrrolidone; phases: Liquid
Fixed: Pressure, kPa = 101.3
Property: Viscosity, Pa*s (Liquid); method: CAPTUB:UFactor:4
Temperature, K	Mole fraction of 1,4-dimethylbenzene	Viscosity, Pa*s	uncertainty
303.15	0	0.0015544	5.35e-05
303.15	0.0947	0.0013594	4.49e-05
303.15	0.1893	0.0012386	3.92e-05
303.15	0.2858	0.001129	3.44e-05
303.15	0.3838	0.0010195	2.99e-05
303.15	0.483	0.0009203	2.62e-05
303.15	0.5836	0.0008327	2.31e-05
303.15	0.6854	0.0007753	2.1e-05
303.15	0.7888	0.0007001	1.88e-05
303.15	0.8937	0.0006291	1.69e-05
303.15	1	0.0005715	1.55e-05
313.15	0	0.0013321	4.62e-05
313.15	0.0947	0.0011732	3.91e-05
313.15	0.1893	0.0010701	3.42e-05
313.15	0.2858	0.0009754	3.01e-05
313.15	0.3838	0.0008894	2.65e-05
313.15	0.483	0.000807	2.33e-05
313.15	0.5836	0.0007296	2.06e-05
313.15	0.6854	0.0006862	1.89e-05
313.15	0.7888	0.000619	1.7e-05
313.15	0.8937	0.0005579	1.53e-05
313.15	1	0.000508	1.42e-05
323.15	0	0.0011602	4.05e-05
323.15	0.0947	0.0010234	3.44e-05
323.15	0.1893	0.0009373	3.03e-05
323.15	0.2858	0.0008571	2.67e-05
323.15	0.3838	0.0007795	2.35e-05
323.15	0.483	0.0007084	2.08e-05
323.15	0.5836	0.0006521	1.87e-05
323.15	0.6854	0.0006084	1.71e-05
323.15	0.7888	0.0005517	1.54e-05
323.15	0.8937	0.0004998	1.42e-05
323.15	1	0.0004599	1.34e-05
333.15	0	0.0010222	3.59e-05
333.15	0.0947	0.0009019	3.06e-05
333.15	0.1893	0.0008316	2.71e-05
333.15	0.2858	0.0007602	2.4e-05
333.15	0.3838	0.000694	2.12e-05
333.15	0.483	0.0006321	1.88e-05
333.15	0.5836	0.0005828	1.7e-05
333.15	0.6854	0.0005437	1.56e-05
333.15	0.7888	0.0004947	1.43e-05
333.15	0.8937	0.0004504	1.33e-05
333.15	1	0.0004298	1.28e-05
343.15	0	0.0009084	3.22e-05
343.15	0.0947	0.0008009	2.74e-05
343.15	0.1893	0.0007371	2.43e-05
343.15	0.2858	0.000681	2.17e-05
343.15	0.3838	0.0006209	1.93e-05
343.15	0.483	0.0005686	1.72e-05
343.15	0.5836	0.0005173	1.55e-05
343.15	0.6854	0.0004921	1.46e-05
343.15	0.7888	0.0004476	1.34e-05
343.15	0.8937	0.0004081	1.25e-05
343.15	1	0.0003783	1.2e-05
353.15	0	0.0008127	2.9e-05
353.15	0.0947	0.0007219	2.49e-05
353.15	0.1893	0.0006637	2.21e-05
353.15	0.2858	0.0006119	1.98e-05
353.15	0.3838	0.000561	1.77e-05
353.15	0.483	0.0005127	1.59e-05
353.15	0.5836	0.0004761	1.46e-05
353.15	0.6854	0.0004466	1.37e-05
353.15	0.7888	0.0004072	1.27e-05
353.15	0.8937	0.0003726	1.19e-05
353.15	1	0.0003382	1.13e-05

System: 1,4-dimethylbenzene + N-methylpyrrolidone; phases: Liquid
Fixed: Pressure, kPa = 101.3
Property: Mass density, kg/m3 (Liquid); method: VIBTUB:UFactor:8
Temperature, K	Mole fraction of 1,4-dimethylbenzene	Mass density, kg/m3	uncertainty
303.15	0	1023.47	2.71
303.15	0.0947	1005.71	2.41
303.15	0.1893	988.37	2.13
303.15	0.2858	971.07	1.86
303.15	0.3838	953.82	1.61
303.15	0.483	936.56	1.37
303.15	0.5836	919.47	1.15
303.15	0.6854	902.73	0.96
303.15	0.7888	885.85	0.82
303.15	0.8937	869.04	0.73
303.15	1	852.35	0.72
313.15	0	1014.55	2.69
313.15	0.0947	996.79	2.39
313.15	0.1893	979.45	2.11
313.15	0.2858	962.14	1.85
313.15	0.3838	944.9	1.6
313.15	0.483	927.68	1.37
313.15	0.5836	910.56	1.15
313.15	0.6854	893.86	0.97
313.15	0.7888	877.02	0.83
313.15	0.8937	860.27	0.75
313.15	1	843.64	0.74
323.15	0	1005.66	2.66
323.15	0.0947	987.88	2.37
323.15	0.1893	970.53	2.1
323.15	0.2858	953.21	1.84
323.15	0.3838	935.97	1.59
323.15	0.483	918.77	1.36
323.15	0.5836	901.68	1.16
323.15	0.6854	884.99	0.98
323.15	0.7888	868.16	0.85
323.15	0.8937	851.46	0.78
323.15	1	834.9	0.77
333.15	0	996.71	2.64
333.15	0.0947	978.93	2.35
333.15	0.1893	961.55	2.08
333.15	0.2858	944.23	1.83
333.15	0.3838	926.99	1.59
333.15	0.483	909.8	1.36
333.15	0.5836	892.71	1.16
333.15	0.6854	876.03	0.99
333.15	0.7888	859.21	0.87
333.15	0.8937	842.56	0.8
333.15	1	826.09	0.8
343.15	0	987.75	2.62
343.15	0.0947	969.95	2.34
343.15	0.1893	952.56	2.07
343.15	0.2858	935.23	1.82
343.15	0.3838	917.98	1.58
343.15	0.483	900.82	1.36
343.15	0.5836	883.72	1.17
343.15	0.6854	867.04	1.01
343.15	0.7888	850.22	0.89
343.15	0.8937	833.61	0.83
343.15	1	817.17	0.83
353.15	0	978.76	2.6
353.15	0.0947	960.94	2.32
353.15	0.1893	943.54	2.06
353.15	0.2858	926.19	1.81
353.15	0.3838	908.93	1.58
353.15	0.483	891.78	1.37
353.15	0.5836	874.66	1.18
353.15	0.6854	857.97	1.02
353.15	0.7888	841.16	0.91
353.15	0.8937	824.56	0.85
353.15	1	808.22	0.85
