Measured thermophysical data. Solid - Liquid Phase Equilibrium of Some Aliphatic Alcohols + Cesium Sulfate + Water
Source: J. Chem. Eng. Data, 2004, 10.1021/je049914h
Compound 1: methanol, CH4O, InChI=1S/CH4O/c1-2/h2H,1H3, purity 99.5%
Compound 2: water, H2O, InChI=1S/H2O/h1H2
Compound 3: cesium sulfate, Cs2O4S, InChI=1S/2Cs.H2O4S/c;;1-5(2,3)4/h;;(H2,1,2,3,4)/q2*+1;/p-2, purity 99.5%
Compound 4: ethanol, C2H6O, InChI=1S/C2H6O/c1-2-3/h3H,2H2,1H3, purity 99.5%
Compound 5: propan-1-ol, C3H8O, InChI=1S/C3H8O/c1-2-3-4/h4H,2-3H2,1H3, purity 99.5%
Compound 6: propan-2-ol, C3H8O, InChI=1S/C3H8O/c1-3(2)4/h3-4H,1-2H3, purity 99.5%

System: methanol + water + cesium sulfate; phases: Liquid, Crystal
Fixed: Pressure, kPa = 101.325
Fixed: Temperature, K = 298.15
Property: Mass fraction of cesium sulfate (Liquid); method: Titration method
Mass fraction of methanol	Mass fraction of cesium sulfate	uncertainty
0	0.646	0.005
0.03076	0.6261	0.0047
0.1731	0.43	0.0029
0.2685	0.313	0.0023
0.4399	0.1487	0.0022
0.5025	0.1017	0.0011
0.7149	0.04154	0.00084
0.8866	0.01524	0.00057
0.9933	0.006755	0.000397

System: ethanol + water + cesium sulfate; phases: Liquid mixture 1, Liquid mixture 2
Fixed: Temperature, K = 298.15
Fixed: Pressure, kPa = 101.325
Property: Mass fraction of cesium sulfate (Liquid mixture 1); method: TITR:UFactor:32
Mass fraction of ethanol	Mass fraction of cesium sulfate	uncertainty
0.01515	0.6117	0.1171
0.02141	0.6121	0.1173
0.02165	0.6087	0.1157
0.02218	0.6121	0.1173
0.02515	0.5985	0.1108
0.02708	0.5846	0.1047
0.04019	0.5387	0.0868
0.04594	0.5645	0.0964
0.05257	0.5082	0.0769
0.0848	0.4287	0.0558
0.09902	0.4213	0.0541
0.2049	0.2819	0.0292
0.2417	0.2448	0.0241
0.2608	0.2275	0.0219
0.3137	0.174	0.0157
0.3324	0.1682	0.0169
0.3347	0.1575	0.0159
0.349	0.1497	0.0131
0.4105	0.1042	0.0088
0.4314	0.09871	0.0082
0.4775	0.0742	0.00612
0.4895	0.06356	0.00519
0.5179	0.05313	0.00454
0.5227	0.04979	0.0043
0.654	0.01545	0.00118
0.6559	0.01537	0.00211
0.6575	0.01352	0.00394
0.6686	0.01371	0.00104

System: ethanol + water + cesium sulfate; phases: Liquid
Fixed: Pressure, kPa = 101.3
Fixed: Temperature, K = 298.15
Property: Refractive index (Na D-line) (Liquid); method: ABBE:UFactor:2
Mass fraction of ethanol	Mass fraction of cesium sulfate	Refractive index (Na D-line)	uncertainty
0.0208	0.6121	1.4058	0.001
0.03016	0.5707	1.3989	0.0009
0.03802	0.5667	1.3984	0.0009
0.04099	0.5178	1.3911	0.0009
0.07321	0.4654	1.3857	0.0011
0.4073	0.1164	1.3651	0.0008
0.4912	0.06548	1.3634	0.0008
0.5679	0.0338	1.3629	0.0008
0.5777	0.02921	1.3636	0.0008
0.6614	0.0179	1.3626	0.0007

System: ethanol + water + cesium sulfate; phases: Liquid mixture 2, Liquid mixture 1
Fixed: Temperature, K = 298.15
Fixed: Pressure, kPa = 101
Property: Mass fraction of ethanol (Liquid mixture 2); method: TITR:UFactor:8
Property: Mass fraction of cesium sulfate (Liquid mixture 1); method: TITR:UFactor:8
Property: Mass fraction of ethanol (Liquid mixture 1); method: TITR:UFactor:8
Mass fraction of cesium sulfate	Mass fraction of ethanol	uncertainty	Mass fraction of cesium sulfate	uncertainty	Mass fraction of ethanol	uncertainty
0.6121	0.0208	0.00534	0.0179	0.00453	0.6614	
0.5707	0.03016	0.01348	0.02921	0.00773	0.5777	
0.5667	0.03802	0.01459	0.0338	0.00879	0.5679	
0.5178	0.04099	0.01032	0.06548	0.01643	0.4912	
0.4654	0.07321	0.01837	0.1164	0.02896	0.4073	

System: propan-1-ol + water + cesium sulfate; phases: Liquid mixture 2, Liquid mixture 1
Fixed: Pressure, kPa = 101.3
Property: Mass fraction of propan-1-ol (Liquid mixture 2); method: TITR:UFactor:8
Property: Mass fraction of cesium sulfate (Liquid mixture 1); method: TITR:UFactor:8
Property: Mass fraction of propan-1-ol (Liquid mixture 1); method: TITR:UFactor:8
Temperature, K	Mass fraction of cesium sulfate	Mass fraction of propan-1-ol	uncertainty	Mass fraction of cesium sulfate	uncertainty	Mass fraction of propan-1-ol	uncertainty
308.15	0.6458	0.004124	0.001023	0.0006054	0.0001749	0.9342	
308.15	0.6499	0.003292	0.000817	0.0008734	0.0002192	0.9063	
308.15	0.6065	0.005815	0.001545	0.0003942	9.82e-05	0.8791	
308.15	0.5364	0.01364	0.003579	0.001353	0.000475	0.8193	
308.15	0.2723	0.07628	0.01892	0.01053	0.00263	0.6211	
318.15	0.6621	0.003996	0.003996	0.000418	0.000239	0.9422	
318.15	0.6591	0.00213	0.00213	0.00203	0.000504	0.8717	
318.15	0.6049	0.005981	0.001544	0.0001934	0.0001934	0.8471	
318.15	0.3584	0.04057	0.010116	0.005833	0.001504	0.718	
318.15	0.299	0.05851	0.014532	0.010702	0.002766	0.6754	
298.15	0.5989	0.005772	0.001485	0.001781	0.001781	0.9033	
298.15	0.6237	0.004818	0.001218	0.0005418	0.0005418	0.9047	
298.15	0.5469	0.009759	0.002475	0.002026	0.000514	0.8461	
298.15	0.5112	0.014297	0.003593	0.001898	0.000483	0.8364	
298.15	0.4674	0.01901	0.004739	0.002908	0.000729	0.7635	

System: propan-1-ol + water + cesium sulfate; phases: Liquid mixture 1, Liquid mixture 2
Fixed: Pressure, kPa = 101.325
Property: Mass fraction of cesium sulfate (Liquid mixture 1); method: TITR:UFactor:64
Temperature, K	Mass fraction of propan-1-ol	Mass fraction of cesium sulfate	uncertainty
298.15	0.003134	0.6419	0.2666
298.15	0.004347	0.6411	0.2657
298.15	0.005772	0.5998	0.2229
298.15	0.02897	0.4171	0.1064
298.15	0.0576	0.3029	0.0646
298.15	0.06538	0.3118	0.0674
298.15	0.08365	0.2636	0.0533
298.15	0.1233	0.209	0.0399
298.15	0.1245	0.2022	0.0383
298.15	0.1371	0.1878	0.0344
298.15	0.1739	0.1592	0.0282
298.15	0.1854	0.1526	0.0268
298.15	0.1956	0.1412	0.0245
298.15	0.2124	0.132	0.0226
298.15	0.2593	0.1168	0.0197
298.15	0.26	0.1235	0.021
298.15	0.28	0.1131	0.019
298.15	0.3191	0.1011	0.0168
298.15	0.3473	0.08026	0.01323
298.15	0.5044	0.04532	0.00713
298.15	0.7635	0.002908	0.001125
298.15	0.8461	0.002026	0.000316
308.15	0.0041	0.6458	0.2712
308.15	0.0171	0.5808	0.2061
308.15	0.0172	0.4883	0.1419
308.15	0.023	0.4394	0.1166
308.15	0.0763	0.2723	0.0557
308.15	0.09054	0.2287	0.0441
308.15	0.121	0.1961	0.0363
308.15	0.127	0.1965	0.0364
308.15	0.1573	0.1623	0.0288
308.15	0.1587	0.1619	0.0288
308.15	0.1665	0.1612	0.0286
308.15	0.1833	0.1449	0.0252
308.15	0.2171	0.127	0.0217
308.15	0.2353	0.1152	0.0194
308.15	0.2584	0.1129	0.0189
308.15	0.2726	0.1018	0.0169
308.15	0.2922	0.09736	0.01607
308.15	0.3185	0.09099	0.01493
308.15	0.335	0.08141	0.01321
308.15	0.3518	0.08206	0.01332
308.15	0.3755	0.075	0.0121
308.15	0.4014	0.06564	0.01049
308.15	0.4201	0.06041	0.00964
308.15	0.4418	0.04742	0.00741
308.15	0.4457	0.05481	0.00863
308.15	0.4737	0.03372	0.0054
308.15	0.6211	0.01053	0.0017
308.15	0.7395	0.008271	0.001288
308.15	0.8193	0.001353	0.000412
308.15	0.9063	0.0008734	0.0001402
318.15	0.004385	0.6581	0.2863
318.15	0.009677	0.5435	0.1771
318.15	0.03121	0.3948	0.097
318.15	0.07361	0.2759	0.0567
318.15	0.09036	0.2424	0.0476
318.15	0.1002	0.2277	0.0439
318.15	0.1095	0.2159	0.041
318.15	0.1481	0.1622	0.0288
318.15	0.1684	0.147	0.0257
318.15	0.2081	0.126	0.0215
318.15	0.2312	0.1154	0.0194
318.15	0.2638	0.1096	0.0183
318.15	0.2897	0.09706	0.01604
318.15	0.3206	0.08501	0.01386
318.15	0.3749	0.0671	0.01077
318.15	0.4019	0.05869	0.00931
318.15	0.4505	0.05141	0.00812
318.15	0.517	0.03304	0.00519
318.15	0.5679	0.02903	0.00448
318.15	0.7766	0.004416	0.000702
318.15	0.8011	0.003683	0.000601

System: propan-1-ol + water + cesium sulfate; phases: Liquid
Fixed: Pressure, kPa = 101.3
Property: Refractive index (Na D-line) (Liquid); method: ABBE:UFactor:2
Temperature, K	Mass fraction of propan-1-ol	Mass fraction of cesium sulfate	Refractive index (Na D-line)	uncertainty
298.15	0.004818	0.6237	1.4074	0.0038
298.15	0.005772	0.5989	1.402	0.0013
298.15	0.009759	0.5469	1.3924	0.0022
298.15	0.014297	0.5112	1.39	0.0015
298.15	0.01901	0.4674	1.381	0.0009
298.15	0.7635	0.002908	1.3695	0.001
298.15	0.8364	0.001898	1.3794	0.0007
298.15	0.8461	0.002026	1.38	0.0007
298.15	0.9033	0.001781	1.3812	0.0007
298.15	0.9047	0.0005418	1.381	0.0007
308.15	0.003292	0.6499	1.4096	0.0016
308.15	0.004124	0.6458	1.4087	0.0016
308.15	0.005815	0.6065	1.4019	0.0013
308.15	0.01364	0.5364	1.3909	0.0013
308.15	0.07628	0.2723	1.3624	0.001
308.15	0.6211	0.01053	1.362	0.0008
308.15	0.8193	0.001353	1.3766	0.0007
308.15	0.8791	0.0003942	1.3776	0.0009
308.15	0.9063	0.0008734	1.3777	0.0008
308.15	0.9342	0.0006054	1.3775	0.0016
318.15	0.00213	0.6591	1.4081	0.0021
318.15	0.003996	0.6621	1.4098	0.0007
318.15	0.005981	0.6049	1.4004	0.0015
318.15	0.04057	0.3584	1.3756	0.0009
318.15	0.05851	0.299	1.3624	0.0012
318.15	0.6754	0.010702	1.3689	0.0008
318.15	0.718	0.005833	1.367	0.0008
318.15	0.8471	0.0001934	1.3734	0.0058
318.15	0.8717	0.00203	1.41	0.0016
318.15	0.9422	0.000418	1.4206	0.0008

System: propan-2-ol + water + cesium sulfate; phases: Liquid mixture 2, Liquid mixture 1
Fixed: Temperature, K = 298.15
Fixed: Pressure, kPa = 101.3
Property: Mass fraction of propan-2-ol (Liquid mixture 2); method: TITR:UFactor:8
Property: Mass fraction of cesium sulfate (Liquid mixture 1); method: TITR:UFactor:8
Property: Mass fraction of propan-2-ol (Liquid mixture 1); method: TITR:UFactor:8
Mass fraction of cesium sulfate	Mass fraction of propan-2-ol	uncertainty	Mass fraction of cesium sulfate	uncertainty	Mass fraction of propan-2-ol	uncertainty
0.6401	0.007233	0.00189	0.0008024	0.0003922	0.8628	
0.5302	0.01751	0.00438	0.003796	0.001047	0.7864	
0.4895	0.02501	0.00627	0.008271	0.002056	0.7395	
0.4741	0.02821	0.00706	0.008143	0.002024	0.7332	

System: propan-2-ol + water + cesium sulfate; phases: Liquid mixture 1, Liquid mixture 2
Fixed: Temperature, K = 298.15
Fixed: Pressure, kPa = 101.325
Property: Mass fraction of cesium sulfate (Liquid mixture 1); method: TITR:UFactor:64
Mass fraction of propan-2-ol	Mass fraction of cesium sulfate	uncertainty
0.007233	0.6401	0.2645
0.007516	0.6394	0.2637
0.01036	0.6049	0.2277
0.01321	0.5656	0.1936
0.03635	0.446	0.1197
0.05419	0.4014	0.0997
0.06994	0.3529	0.0811
0.07517	0.3427	0.0776
0.1224	0.2804	0.058
0.146	0.2636	0.0532
0.1671	0.2436	0.0479
0.1841	0.232	0.045
0.2231	0.1891	0.0347
0.2456	0.1826	0.0332
0.2718	0.1652	0.0295
0.3133	0.1347	0.0232
0.3218	0.134	0.023
0.3656	0.1046	0.0175
0.386	0.09717	0.01615
0.4377	0.06567	0.01076
0.4869	0.0383	0.00627
0.5169	0.03336	0.00524
0.5476	0.02589	0.00416
0.5578	0.02376	0.00388
0.581	0.01768	0.00308
0.8137	0.001331	0.000217
0.8628	0.0008024	0.0001513

System: propan-2-ol + water + cesium sulfate; phases: Liquid
Fixed: Pressure, kPa = 101.3
Fixed: Temperature, K = 298.15
Property: Refractive index (Na D-line) (Liquid); method: ABBE:UFactor:2
Mass fraction of propan-2-ol	Mass fraction of cesium sulfate	Refractive index (Na D-line)	uncertainty
0.007233	0.6401	1.4095	0.0009
0.01751	0.5302	1.391	0.001
0.02501	0.4895	1.3861	0.0017
0.02821	0.4741	1.4035	0.0049
0.7332	0.008143	1.3751	0.0011
0.7395	0.008271	1.3731	0.0011
0.7864	0.003796	1.3739	0.0007
0.8628	0.0008024	1.3752	0.0007
