Measured thermophysical data. Thermophysical and Thermodynamic Properties of 1-Butyl-3-methylimidazolium Tetrafluoroborate and 1-Butyl-3-methylimidazolium Hexafluorophosphate over an Extended Pressure Range
Source: J. Chem. Eng. Data, 2005, 10.1021/je049534w
Compound 1: 1-butyl-3-methylimidazolium tetrafluoroborate, C8H15BF4N2, InChI=1S/C8H15N2.BF4/c1-3-4-5-10-7-6-9(2)8-10;2-1(3,4)5/h6-8H,3-5H2,1-2H3;/q+1;-1, purity 98%
Compound 2: 1-butyl-3-methylimidazolium hexafluorophosphate, C8H15F6N2P, InChI=1S/C8H15N2.F6P/c1-3-4-5-10-7-6-9(2)8-10;1-7(2,3,4,5)6/h6-8H,3-5H2,1-2H3;/q+1;-1

System: 1-butyl-3-methylimidazolium tetrafluoroborate; phases: Liquid
Property: Speed of sound, m/s (Liquid); method: Linear variable-path acoustic interferometer
Temperature, K	Pressure, kPa	Speed of sound, m/s	uncertainty
283.15	100	1599.51	6.87
283.15	4956	1612.54	6.92
283.15	9954	1626.2	6.97
283.15	20130	1653.13	7.07
283.15	30003	1678.26	7.17
283.15	44948	1714.66	7.31
283.15	59705	1749.05	7.45
283.15	79788	1793.04	7.62
283.15	99235	1833.62	7.78
283.15	124380	1882.86	7.98
283.15	151416	1932.2	8.17
293.15	100	1570.23	6.75
293.15	5094	1583.99	6.81
293.15	10075	1597.7	6.86
293.15	20080	1624.43	6.96
293.15	59673	1721.05	7.34
293.15	98994	1806.08	7.67
293.15	151068	1907.3	8.07
303.15	100	1544.88	6.65
303.15	5080	1558.6	6.71
303.15	10091	1572.45	6.76
303.15	20063	1599.53	6.87
303.15	59767	1697	7.25
303.15	99007	1782.61	7.58
303.15	124609	1834.02	7.79
313.15	100	1525.22	6.58
313.15	5091	1539.35	6.63
313.15	10185	1554.04	6.69
313.15	20070	1580.96	6.79
313.15	59719	1679.35	7.18
313.15	99014	1765.79	7.52
313.15	123975	1816.59	7.72
313.15	151204	1869.96	7.93
323.15	100	1503.36	6.49
323.15	4999	1517.83	6.55
323.15	10202	1533.4	6.61
323.15	20046	1561.37	6.72
323.15	59977	1662.08	7.11
323.15	99014	1748.81	7.45
323.15	123945	1798.92	7.65
323.15	151374	1853.24	7.86

System: 1-butyl-3-methylimidazolium tetrafluoroborate; phases: Liquid
Property: Mass density, kg/m3 (Liquid); method: VIBTUB:UFactor:4
Temperature, K	Pressure, kPa	Mass density, kg/m3	uncertainty
298.34	100	1205.03	1.38
298.34	700	1205.32	1.39
298.34	5280	1207.44	1.44
298.34	10600	1209.87	1.51
298.34	15920	1212.24	1.6
298.34	20540	1214.26	1.69
298.34	25000	1216.18	1.79
298.34	30710	1218.62	1.95
298.34	35190	1220.47	2.08
298.34	40660	1222.73	2.25
298.34	44370	1224.21	2.37
298.34	49660	1226.32	2.54
298.34	54340	1228.16	2.71
298.34	59230	1230.05	2.88
303.23	100	1201.29	1.38
303.23	8780	1205.3	1.48
303.23	11170	1206.4	1.51
303.23	15230	1208.22	1.58
303.23	20270	1210.43	1.67
303.23	24890	1212.44	1.77
303.23	30670	1214.92	1.93
303.23	34770	1216.66	2.05
303.23	40020	1218.85	2.2
303.23	44310	1220.61	2.34
303.23	49500	1222.73	2.51
303.23	54490	1224.75	2.68
303.23	59820	1226.85	2.87
313.01	100	1194.59	1.37
313.01	4130	1196.19	1.41
313.01	10180	1198.82	1.48
313.01	15650	1201.26	1.56
313.01	21300	1203.75	1.66
313.01	24580	1205.19	1.73
313.01	30110	1207.62	1.88
313.01	35390	1209.88	2.02
313.01	44700	1213.84	2.3
313.01	49720	1215.92	2.46
313.01	54430	1217.91	2.61
313.01	59450	1219.95	2.78
322.85	100	1187.85	1.36
322.85	3730	1189.5	1.39
322.85	6220	1190.68	1.42
322.85	10020	1192.47	1.46
322.85	14870	1194.68	1.53
322.85	20450	1197.2	1.63
322.85	25400	1199.38	1.73
322.85	31090	1201.87	1.87
322.85	34850	1203.51	1.97
322.85	41130	1206.23	2.15
322.85	44880	1207.85	2.26
322.85	49830	1209.95	2.41
322.85	54520	1211.91	2.56
322.85	59920	1214.2	2.74
332.73	100	1181.05	1.35
332.73	4130	1182.92	1.38
332.73	6350	1183.98	1.41
332.73	11210	1186.3	1.46
332.73	15220	1188.15	1.52
332.73	20540	1190.55	1.61
332.73	25280	1192.7	1.69
332.73	30760	1195.16	1.82
332.73	35080	1197.05	1.93
332.73	40110	1199.23	2.07
332.73	44860	1201.24	2.21
332.73	49840	1203.35	2.35
332.73	54760	1205.7	2.51
332.73	59130	1207.2	2.65

System: 1-butyl-3-methylimidazolium hexafluorophosphate; phases: Crystal, Liquid
Property: Solid-liquid equilibrium temperature, K (Crystal); method: Speed of sound
Pressure, kPa	Solid-liquid equilibrium temperature, K	uncertainty
100	285	0.44
34000	291.15	0.72
40200	293.15	0.77
42500	294.16	0.94
55000	296.15	0.51
88900	303.15	0.54

System: 1-butyl-3-methylimidazolium hexafluorophosphate; phases: Liquid
Property: Speed of sound, m/s (Liquid); method: Linear variable-path acoustic interferometer
Temperature, K	Pressure, kPa	Speed of sound, m/s	uncertainty
283.16	100	1455.52	7.8
283.16	5088	1468.58	7.84
283.16	5131	1470.64	7.85
283.16	10263	1481.79	7.88
283.16	20249	1506.72	7.96
283.16	29954	1529.87	8.03
283.16	29995	1532.46	8.04
283.16	44961	1564.25	8.14
283.16	59682	1596.68	8.25
283.16	59829	1599.61	8.26
283.16	79904	1638.64	8.38
283.16	99077	1677.06	8.51
283.16	124179	1724.36	8.67
283.16	150925	1772.61	8.83
283.16	100	1457.6	7.8
291.15	100	1440.19	7.75
291.15	5069	1453.26	7.79
291.15	10166	1466.63	7.83
291.15	20400	1492.36	7.91
291.15	30019	1515.72	7.99
291.15	44920	1549.95	8.1
291.15	59912	1583.22	8.2
293.16	100	1432.85	7.73
293.16	5157	1446.45	7.77
293.16	10195	1459.01	7.81
293.16	20215	1484.18	7.89
293.16	29959	1507.92	7.96
293.16	44757	1542.2	8.07
293.16	59732	1574.7	8.18
293.16	78627	1613.77	8.3
293.16	99149	1654.46	8.44
293.16	100	1431.59	7.72
294.16	5125	1444.54	7.76
294.16	10105	1457.17	7.8
294.16	20357	1483.23	7.88
294.16	29785	1506.04	7.96
303.16	100	1410.27	7.66
303.16	5078	1423.48	7.7
303.16	10204	1437.13	7.74
303.16	20225	1462.82	7.82
303.16	44714	1521.26	8.01
303.16	59773	1554.58	8.11
303.16	98921	1634.38	8.37
313.16	100	1389.49	7.59
313.16	5010	1402.83	7.64
313.16	10043	1416.43	7.68
313.16	20319	1443.3	7.76
313.16	41702	1495.14	7.92
313.16	44866	1502.87	7.95
313.16	59754	1536.27	8.05
313.16	79721	1578.64	8.19
313.16	99097	1617.38	8.31
313.16	125283	1662.16	8.46
323.25	100	1367.98	7.53
323.25	5061	1381.82	7.57
323.25	9942	1395.37	7.61
323.25	20234	1422.72	7.7
323.25	29721	1446.75	7.77
323.25	44935	1482.19	7.88
323.25	59711	1515.95	7.99
323.25	79553	1557.89	8.12
323.25	98901	1592.52	8.23
