Measured thermophysical data. Solubility and Salting Behavior of Several ?-Adrenergic Blocking Agents in Liquid and Supercritical Carbon Dioxide
Source: J. Chem. Eng. Data, 2005, 10.1021/je0497202
Compound 1: carbon dioxide, CO2, InChI=1S/CO2/c2-1-3
Compound 2: pindolol, C14H20N2O2, InChI=1S/C14H20N2O2/c1-10(2)16-8-11(17)9-18-14-5-3-4-13-12(14)6-7-15-13/h3-7,10-11,15-17H,8-9H2,1-2H3

System: carbon dioxide + pindolol; phases: Gas, Crystal
Property: Mole fraction of pindolol (Gas); method: Visual observation while adjusting pressure
Temperature, K	Pressure, kPa	Mole fraction of pindolol	uncertainty
298	8000	6.6e-05	9.9e-06
298	9000	7.62e-05	1.14e-05
298	10000	8.42e-05	1.26e-05
298	12500	0.000103	1.55e-05
298	15000	0.000133	2e-05
298	17500	0.000144	2.16e-05
298	20000	0.000158	2.37e-05
298	22500	0.000189	2.84e-05
298	25000	0.00021	3.15e-05
298	27500	0.000224	3.36e-05
308	8000	3.08e-05	4.6e-06
308	9000	3.15e-05	4.7e-06
308	10000	3.8e-05	5.7e-06
308	12500	7.02e-05	1.05e-05
308	15000	9.38e-05	1.41e-05
308	17500	0.000128	1.92e-05
308	20000	0.000141	2.12e-05
308	22500	0.000176	2.64e-05
308	25000	0.0002	3e-05
308	27500	0.000211	3.17e-05
318	8000	3.37e-05	5.1e-06
318	9000	2.7e-05	4.1e-06
318	10000	2.82e-05	4.2e-06
318	12500	6.95e-05	1.04e-05
318	15000	8.75e-05	1.31e-05
318	17500	0.000108	1.62e-05
318	20000	0.000121	1.82e-05
318	22500	0.000155	2.33e-05
318	25000	0.000178	2.67e-05
318	27500	0.000192	2.88e-05
