Measured thermophysical data. Surface Properties of Pure Liquids and Binary Liquid Mixtures of Ethylene Glycol + Methylcyclohexanols
Source: J. Chem. Eng. Data, 2004, 10.1021/je049919e
Compound 1: 1,2-ethanediol, C2H6O2, InChI=1S/C2H6O2/c3-1-2-4/h3-4H,1-2H2, purity 99.5%
Compound 2: 2-methylcyclohexanol, C7H14O, InChI=1S/C7H14O/c1-6-4-2-3-5-7(6)8/h6-8H,2-5H2,1H3, purity 98%
Compound 3: 3-methyl-1-cyclohexanol, (cis+trans), C7H14O, InChI=1S/C7H14O/c1-6-3-2-4-7(8)5-6/h6-8H,2-5H2,1H3, purity 98%
Compound 4: 4-methylcyclohexanol, C7H14O, InChI=1S/C7H14O/c1-6-2-4-7(8)5-3-6/h6-8H,2-5H2,1H3, purity 98%

System: 1,2-ethanediol; phases: Liquid, Air at 1 atmosphere
Property: Surface tension liquid-gas, N/m (Liquid); method: Ring tensiometer
Temperature, K	Surface tension liquid-gas, N/m	uncertainty
293.15	0.04855	0.00071
298.15	0.04811	0.00071
303.15	0.04758	0.0007
308.15	0.04714	0.00069
313.15	0.04679	0.00069
318.15	0.04629	0.00068
323.15	0.04599	0.00068

System: 2-methylcyclohexanol; phases: Liquid, Air at 1 atmosphere
Property: Surface tension liquid-gas, N/m (Liquid); method: Ring tensiometer
Temperature, K	Surface tension liquid-gas, N/m	uncertainty
293.15	0.03101	0.00056
298.15	0.03057	0.00056
303.15	0.03019	0.00055
308.15	0.02981	0.00054
313.15	0.02937	0.00054
318.15	0.02898	0.00053
323.15	0.02857	0.00052

System: 3-methyl-1-cyclohexanol, (cis+trans); phases: Liquid, Air at 1 atmosphere
Property: Surface tension liquid-gas, N/m (Liquid); method: Ring tensiometer
Temperature, K	Surface tension liquid-gas, N/m	uncertainty
293.15	0.02782	0.00051
298.15	0.02748	0.00051
303.15	0.02712	0.0005
308.15	0.02676	0.00049
313.15	0.0264	0.00049
318.15	0.02606	0.00048
323.15	0.0257	0.0005

System: 4-methylcyclohexanol; phases: Liquid, Air at 1 atmosphere
Property: Surface tension liquid-gas, N/m (Liquid); method: Ring tensiometer
Temperature, K	Surface tension liquid-gas, N/m	uncertainty
293.15	0.02763	0.00051
298.15	0.0273	0.0005
303.15	0.02698	0.0005
308.15	0.02661	0.00049
313.15	0.02631	0.00049
318.15	0.02596	0.00048
323.15	0.02563	0.00047

System: 1,2-ethanediol + 2-methylcyclohexanol; phases: Liquid, Air at 1 atmosphere
Property: Surface tension liquid-gas, N/m (Liquid); method: Ring tensiometer
Temperature, K	Mole fraction of 2-methylcyclohexanol	Surface tension liquid-gas, N/m	uncertainty
293.15	0	0.04855	0.00071
293.15	0.04	0.04061	0.00062
293.15	0.105	0.03613	0.00055
293.15	0.2	0.03446	0.00053
293.15	0.307	0.03349	0.00053
293.15	0.399	0.03294	0.00053
293.15	0.514	0.03238	0.00053
293.15	0.553	0.03222	0.00053
293.15	0.76	0.03172	0.00055
293.15	0.791	0.03151	0.00055
293.15	0.892	0.0312	0.00055
293.15	1	0.03101	0.00056
298.15	0	0.04811	0.00071
298.15	0.04	0.0403	0.00061
298.15	0.105	0.03589	0.00055
298.15	0.2	0.03417	0.00053
298.15	0.307	0.0332	0.00052
298.15	0.399	0.03261	0.00052
298.15	0.514	0.03203	0.00053
298.15	0.553	0.03187	0.00053
298.15	0.76	0.03136	0.00054
298.15	0.791	0.0311	0.00054
298.15	0.892	0.03078	0.00055
298.15	1	0.03057	0.00056
303.15	0	0.04758	0.0007
303.15	0.04	0.03994	0.00061
303.15	0.105	0.03562	0.00055
303.15	0.2	0.03385	0.00053
303.15	0.307	0.03288	0.00052
303.15	0.399	0.03226	0.00052
303.15	0.514	0.03168	0.00052
303.15	0.553	0.03154	0.00052
303.15	0.76	0.03097	0.00053
303.15	0.791	0.03073	0.00053
303.15	0.892	0.03039	0.00054
303.15	1	0.03019	0.00055
308.15	0	0.04714	0.00069
308.15	0.04	0.03967	0.0006
308.15	0.105	0.03532	0.00054
308.15	0.2	0.03355	0.00052
308.15	0.307	0.03258	0.00052
308.15	0.399	0.03196	0.00051
308.15	0.514	0.03133	0.00051
308.15	0.553	0.03119	0.00052
308.15	0.76	0.03061	0.00053
308.15	0.791	0.03038	0.00053
308.15	0.892	0.03005	0.00053
308.15	1	0.02981	0.00054
313.15	0	0.04679	0.00069
313.15	0.04	0.0394	0.0006
313.15	0.105	0.03507	0.00054
313.15	0.2	0.03326	0.00052
313.15	0.307	0.03222	0.00051
313.15	0.399	0.03162	0.00051
313.15	0.514	0.03098	0.00051
313.15	0.553	0.03081	0.00051
313.15	0.76	0.03029	0.00052
313.15	0.791	0.03	0.00052
313.15	0.892	0.02967	0.00053
313.15	1	0.02937	0.00054
318.15	0	0.04629	0.00068
318.15	0.04	0.03913	0.0006
318.15	0.105	0.03481	0.00053
318.15	0.2	0.03298	0.00051
318.15	0.307	0.03194	0.00051
318.15	0.399	0.03131	0.0005
318.15	0.514	0.03069	0.00051
318.15	0.553	0.03049	0.00051
318.15	0.76	0.02991	0.00052
318.15	0.791	0.02959	0.00052
318.15	0.892	0.02927	0.00052
318.15	1	0.02898	0.00053
323.15	0	0.04599	0.00068
323.15	0.04	0.03889	0.0006
323.15	0.105	0.03456	0.00053
323.15	0.2	0.03268	0.00051
323.15	0.307	0.03163	0.0005
323.15	0.399	0.03097	0.0005
323.15	0.514	0.03036	0.0005
323.15	0.553	0.03013	0.0005
323.15	0.76	0.02952	0.00051
323.15	0.791	0.02924	0.00051
323.15	0.892	0.02887	0.00052
323.15	1	0.02857	0.00052

System: 1,2-ethanediol + 3-methyl-1-cyclohexanol, (cis+trans); phases: Liquid, Air at 1 atmosphere
Property: Surface tension liquid-gas, N/m (Liquid); method: Ring tensiometer
Temperature, K	Mole fraction of 3-methyl-1-cyclohexanol, (cis+trans)	Surface tension liquid-gas, N/m	uncertainty
293.15	0	0.04855	0.00071
293.15	0.05	0.03672	0.00058
293.15	0.097	0.03408	0.00052
293.15	0.258	0.03157	0.0005
293.15	0.329	0.03094	0.00049
293.15	0.389	0.03057	0.00049
293.15	0.535	0.02984	0.00049
293.15	0.623	0.02939	0.0005
293.15	0.768	0.02885	0.0005
293.15	0.864	0.02843	0.00051
293.15	0.899	0.02824	0.00051
293.15	1	0.02782	0.00051
298.15	0	0.04811	0.00071
298.15	0.05	0.03651	0.00057
298.15	0.097	0.03387	0.00052
298.15	0.258	0.03125	0.00049
298.15	0.329	0.0306	0.00049
298.15	0.389	0.03023	0.00049
298.15	0.535	0.02951	0.00049
298.15	0.623	0.02905	0.00049
298.15	0.768	0.02847	0.0005
298.15	0.864	0.02802	0.0005
298.15	0.899	0.0279	0.0005
298.15	1	0.02748	0.00051
303.15	0	0.04758	0.0007
303.15	0.05	0.03629	0.00057
303.15	0.097	0.03367	0.00052
303.15	0.258	0.03097	0.00049
303.15	0.329	0.03032	0.00049
303.15	0.389	0.02998	0.00048
303.15	0.535	0.02919	0.00049
303.15	0.623	0.02875	0.00049
303.15	0.768	0.02816	0.00049
303.15	0.864	0.02768	0.00049
303.15	0.899	0.02756	0.0005
303.15	1	0.02712	0.0005
308.15	0	0.04714	0.00069
308.15	0.05	0.03607	0.00057
308.15	0.097	0.03346	0.00051
308.15	0.258	0.0307	0.00049
308.15	0.329	0.03001	0.00048
308.15	0.389	0.02965	0.00048
308.15	0.535	0.02886	0.00048
308.15	0.623	0.02843	0.00048
308.15	0.768	0.0278	0.00049
308.15	0.864	0.02734	0.00049
308.15	0.899	0.02724	0.00049
308.15	1	0.02676	0.00049
313.15	0	0.04679	0.00069
313.15	0.05	0.03588	0.00056
313.15	0.097	0.03326	0.00051
313.15	0.258	0.03042	0.00048
313.15	0.329	0.02975	0.00048
313.15	0.389	0.02938	0.00048
313.15	0.535	0.02857	0.00048
313.15	0.623	0.02814	0.00048
313.15	0.768	0.02746	0.00048
313.15	0.864	0.02703	0.00048
313.15	0.899	0.02685	0.00048
313.15	1	0.0264	0.00049
318.15	0	0.04629	0.00068
318.15	0.05	0.03566	0.00056
318.15	0.097	0.03308	0.00051
318.15	0.258	0.03015	0.00048
318.15	0.329	0.02948	0.00047
318.15	0.389	0.02909	0.00047
318.15	0.535	0.02828	0.00047
318.15	0.623	0.02782	0.00047
318.15	0.768	0.02718	0.00048
318.15	0.864	0.02669	0.00048
318.15	0.899	0.0265	0.00048
318.15	1	0.02606	0.00048
323.15	0	0.04599	0.00068
323.15	0.05	0.03544	0.00056
323.15	0.097	0.03289	0.00051
323.15	0.258	0.02991	0.00048
323.15	0.329	0.02917	0.00047
323.15	0.389	0.02876	0.00047
323.15	0.535	0.02796	0.00047
323.15	0.623	0.02742	0.00047
323.15	0.768	0.02684	0.00047
323.15	0.864	0.02633	0.00047
323.15	0.899	0.02618	0.00047
323.15	1	0.0257	0.0005

System: 1,2-ethanediol + 4-methylcyclohexanol; phases: Liquid, Air at 1 atmosphere
Property: Surface tension liquid-gas, N/m (Liquid); method: Ring tensiometer
Temperature, K	Mole fraction of 4-methylcyclohexanol	Surface tension liquid-gas, N/m	uncertainty
293.15	0	0.04855	0.00071
293.15	0.05	0.0381	0.0006
293.15	0.097	0.03438	0.00053
293.15	0.258	0.03247	0.00051
293.15	0.329	0.03148	0.0005
293.15	0.389	0.03064	0.00049
293.15	0.535	0.03035	0.0005
293.15	0.623	0.02963	0.0005
293.15	0.768	0.02921	0.00051
293.15	0.864	0.02871	0.00051
293.15	0.899	0.02807	0.0005
293.15	1	0.02763	0.00051
298.15	0	0.04811	0.00071
298.15	0.05	0.03785	0.00059
298.15	0.097	0.03418	0.00052
298.15	0.258	0.03224	0.00051
298.15	0.329	0.03124	0.0005
298.15	0.389	0.03037	0.00049
298.15	0.535	0.03005	0.0005
298.15	0.623	0.02934	0.0005
298.15	0.768	0.02892	0.0005
298.15	0.864	0.02841	0.00051
298.15	0.899	0.02775	0.0005
298.15	1	0.0273	0.0005
303.15	0	0.04758	0.0007
303.15	0.05	0.03764	0.00059
303.15	0.097	0.03398	0.00052
303.15	0.258	0.03203	0.0005
303.15	0.329	0.03099	0.00049
303.15	0.389	0.03008	0.00049
303.15	0.535	0.02977	0.00049
303.15	0.623	0.02902	0.00049
303.15	0.768	0.0286	0.0005
303.15	0.864	0.02807	0.0005
303.15	0.899	0.02743	0.00049
303.15	1	0.02698	0.0005
308.15	0	0.04714	0.00069
308.15	0.05	0.03739	0.00058
308.15	0.097	0.03378	0.00052
308.15	0.258	0.03179	0.0005
308.15	0.329	0.03074	0.00049
308.15	0.389	0.02981	0.00048
308.15	0.535	0.02948	0.00049
308.15	0.623	0.02874	0.00049
308.15	0.768	0.02829	0.00049
308.15	0.864	0.02776	0.00049
308.15	0.899	0.02711	0.00049
308.15	1	0.02661	0.00049
313.15	0	0.04679	0.00069
313.15	0.05	0.03715	0.00058
313.15	0.097	0.0336	0.00052
313.15	0.258	0.03157	0.0005
313.15	0.329	0.03048	0.00049
313.15	0.389	0.02955	0.00048
313.15	0.535	0.02923	0.00049
313.15	0.623	0.02848	0.00048
313.15	0.768	0.02802	0.00049
313.15	0.864	0.02747	0.00049
313.15	0.899	0.02677	0.00048
313.15	1	0.02631	0.00049
318.15	0	0.04629	0.00068
318.15	0.05	0.0369	0.00057
318.15	0.097	0.0334	0.00051
318.15	0.258	0.03134	0.00049
318.15	0.329	0.03026	0.00048
318.15	0.389	0.02932	0.00048
318.15	0.535	0.02896	0.00048
318.15	0.623	0.02818	0.00048
318.15	0.768	0.02773	0.00048
318.15	0.864	0.02718	0.00049
318.15	0.899	0.02645	0.00048
318.15	1	0.02596	0.00048
323.15	0	0.04599	0.00068
323.15	0.05	0.03669	0.00057
323.15	0.097	0.03321	0.00051
323.15	0.258	0.0311	0.00049
323.15	0.329	0.03001	0.00048
323.15	0.389	0.02904	0.00047
323.15	0.535	0.02868	0.00048
323.15	0.623	0.02788	0.00047
323.15	0.768	0.0274	0.00048
323.15	0.864	0.02684	0.00048
323.15	0.899	0.02615	0.00047
323.15	1	0.02563	0.00047
