Measured thermophysical data. Thermodynamics of Mixtures Containing Ethers. Part III. Liquid-Liquid Equilibria for 2,5,8,11-Tetraoxadodecane or 2,5,8,11,14-Pentaoxapentadecane + Selected N-Alkanes
Source: J. Chem. Eng. Data, 2004, 10.1021/je049903o
Compound 1: 2,5,8,11,14-pentaoxapentadecane, C10H22O5, InChI=1S/C10H22O5/c1-11-3-5-13-7-9-15-10-8-14-6-4-12-2/h3-10H2,1-2H3, purity 99%
Compound 2: heptane, C7H16, InChI=1S/C7H16/c1-3-5-7-6-4-2/h3-7H2,1-2H3, purity 99.5%
Compound 3: octane, C8H18, InChI=1S/C8H18/c1-3-5-7-8-6-4-2/h3-8H2,1-2H3, purity 99%
Compound 4: decane, C10H22, InChI=1S/C10H22/c1-3-5-7-9-10-8-6-4-2/h3-10H2,1-2H3, purity 98%
Compound 5: tetradecane, C14H30, InChI=1S/C14H30/c1-3-5-7-9-11-13-14-12-10-8-6-4-2/h3-14H2,1-2H3, purity 99%
Compound 6: 2,5,8,11-tetraoxadodecane, C8H18O4, InChI=1S/C8H18O4/c1-9-3-5-11-7-8-12-6-4-10-2/h3-8H2,1-2H3, purity 99%

System: 2,5,8,11,14-pentaoxapentadecane; phases: Liquid
Property: Mass density, kg/m3 (Liquid); method: VIBTUB:UFactor:2
Temperature, K	Pressure, kPa	Mass density, kg/m3	uncertainty
298.15	101.325	1007.115	0.53

System: heptane; phases: Liquid
Property: Mass density, kg/m3 (Liquid); method: VIBTUB:UFactor:2
Temperature, K	Pressure, kPa	Mass density, kg/m3	uncertainty
298.15	101.325	679.542	0.452

System: octane; phases: Liquid
Property: Mass density, kg/m3 (Liquid); method: VIBTUB:UFactor:2
Temperature, K	Pressure, kPa	Mass density, kg/m3	uncertainty
298.15	101.325	698.548	0.533

System: decane; phases: Liquid
Property: Mass density, kg/m3 (Liquid); method: VIBTUB:UFactor:2
Temperature, K	Pressure, kPa	Mass density, kg/m3	uncertainty
298.15	101.325	726.357	0.829

System: tetradecane; phases: Liquid
Property: Mass density, kg/m3 (Liquid); method: VIBTUB:UFactor:2
Temperature, K	Pressure, kPa	Mass density, kg/m3	uncertainty
298.15	101.325	759.274	0.513

System: 2,5,8,11-tetraoxadodecane; phases: Liquid
Property: Mass density, kg/m3 (Liquid); method: VIBTUB:UFactor:2
Temperature, K	Pressure, kPa	Mass density, kg/m3	uncertainty
298.15	101.325	980.625	0.519

System: 2,5,8,11-tetraoxadodecane + decane; phases: Liquid mixture 1, Liquid mixture 2
Fixed: Pressure, kPa = 101
Property: Liquid-liquid equilibrium temperature, K (Liquid mixture 1); method: VISOBS
Mole fraction of 2,5,8,11-tetraoxadodecane	Liquid-liquid equilibrium temperature, K	uncertainty
0.2483	267.55	0.18
0.2541	267.76	0.18
0.2711	268.37	0.18
0.2986	269.31	0.18
0.3205	269.59	0.21
0.3216	269.72	0.21
0.3476	269.92	0.17
0.3732	270.13	0.17
0.3756	270.15	0.17
0.3994	270.28	0.17
0.4254	270.19	0.18
0.4266	270.22	0.18
0.4483	270.28	0.17
0.4754	270.22	0.17
0.4983	270.2	0.17
0.5233	270.13	0.17
0.5465	270.07	0.17
0.5736	270.01	0.19
0.5752	269.87	0.17
0.5758	270.01	0.17
0.6038	269.64	0.17
0.6221	269.31	0.17
0.6241	269.32	0.17
0.651	268.81	0.18
0.7017	267.04	0.17
0.7023	267.05	0.17
0.7509	264.85	0.18

System: 2,5,8,11-tetraoxadodecane + tetradecane; phases: Liquid mixture 1, Liquid mixture 2
Fixed: Pressure, kPa = 101
Property: Liquid-liquid equilibrium temperature, K (Liquid mixture 1); method: VISOBS
Mole fraction of 2,5,8,11-tetraoxadodecane	Liquid-liquid equilibrium temperature, K	uncertainty
0.2732	283.08	0.18
0.3262	286.09	0.18
0.3506	287.09	0.18
0.3522	286.99	0.18
0.3777	287.9	0.18
0.4017	288.48	0.17
0.428	289.11	0.17
0.4751	289.68	0.17
0.5227	289.79	0.17
0.5466	289.89	0.17
0.5749	289.8	0.17
0.5773	289.8	0.17
0.5996	289.91	0.17
0.6475	289.89	0.18
0.6498	289.77	0.18
0.676	289.69	0.17
0.7004	289.28	0.17
0.7241	288.94	0.17
0.7378	288.69	0.18
0.7525	288.21	0.18
0.7754	287.41	0.18
0.8255	284.2	0.19
0.8519	281.53	0.2

System: heptane + 2,5,8,11,14-pentaoxapentadecane; phases: Liquid mixture 1, Liquid mixture 2
Fixed: Pressure, kPa = 101
Property: Liquid-liquid equilibrium temperature, K (Liquid mixture 1); method: VISOBS
Mole fraction of 2,5,8,11,14-pentaoxapentadecane	Liquid-liquid equilibrium temperature, K	uncertainty
0.1512	274.02	0.18
0.1747	275	0.18
0.2202	275.81	0.17
0.222	275.81	0.17
0.2249	275.84	0.17
0.2447	275.92	0.17
0.2726	275.98	0.17
0.2727	275.9	0.19
0.2738	275.99	0.17
0.3003	275.98	0.17
0.3215	275.93	0.18
0.3227	275.97	0.17
0.3249	275.95	0.17
0.3453	275.9	0.17
0.3713	275.76	0.17
0.3954	275.59	0.17
0.4235	275.28	0.17
0.4474	274.99	0.17
0.4507	275.01	0.17
0.4724	274.66	0.18
0.4735	274.61	0.18
0.4979	274.12	0.17
0.5229	273.56	0.17

System: octane + 2,5,8,11,14-pentaoxapentadecane; phases: Liquid mixture 1, Liquid mixture 2
Fixed: Pressure, kPa = 101
Property: Liquid-liquid equilibrium temperature, K (Liquid mixture 1); method: VISOBS
Mole fraction of 2,5,8,11,14-pentaoxapentadecane	Liquid-liquid equilibrium temperature, K	uncertainty
0.1772	280.19	0.18
0.2006	281.1	0.17
0.2046	281.1	0.17
0.2247	281.4	0.17
0.2495	281.73	0.17
0.2749	281.79	0.18
0.2772	281.89	0.18
0.2994	281.89	0.17
0.3241	281.77	0.17
0.3516	281.83	0.18
0.3527	281.78	0.18
0.3661	281.87	0.17
0.3717	281.77	0.17
0.3973	281.67	0.17
0.4003	281.68	0.17
0.4238	281.7	0.17
0.4266	281.69	0.18
0.4274	281.57	0.23
0.4494	281.4	0.17
0.475	281.09	0.17
0.4753	281.19	0.17
0.4992	280.78	0.17
0.4995	280.87	0.17
0.5263	280.29	0.17
0.5534	279.73	0.17
0.5767	279.09	0.18
0.6056	278.09	0.18

System: 2,5,8,11,14-pentaoxapentadecane + tetradecane; phases: Liquid mixture 1, Liquid mixture 2
Fixed: Pressure, kPa = 101
Property: Liquid-liquid equilibrium temperature, K (Liquid mixture 1); method: VISOBS
Mole fraction of 2,5,8,11,14-pentaoxapentadecane	Liquid-liquid equilibrium temperature, K	uncertainty
0.1957	302.47	0.2
0.2472	307.17	0.19
0.2676	308.76	0.18
0.2948	310.16	0.18
0.3197	311.13	0.18
0.3428	311.66	0.18
0.371	312.5	0.17
0.3962	312.7	0.17
0.4165	313.1	0.17
0.4455	313.2	0.17
0.4679	313.09	0.17
0.4981	313.29	0.17
0.516	313.09	0.18
0.5188	313.25	0.17
0.527	313.11	0.17
0.547	313.15	0.17
0.5614	312.96	0.17
0.6181	312.53	0.17
0.6706	311.71	0.17
0.7029	310.7	0.18
0.7443	308.75	0.18
0.7732	306.81	0.19
0.8005	304.8	0.19
