Measured thermophysical data. Critical Properties of the Reacting Mixture in the Esterification of Acetic Acid with Ethanol
Source: J. Chem. Eng. Data, 2004, 10.1021/je049771z
Compound 1: carbon dioxide, CO2, InChI=1S/CO2/c2-1-3, purity 99.95%
Compound 2: ethanol, C2H6O, InChI=1S/C2H6O/c1-2-3/h3H,2H2,1H3, purity 99.7%
Compound 3: ethyl acetate, C4H8O2, InChI=1S/C4H8O2/c1-3-6-4(2)5/h3H2,1-2H3, purity 99.5%
Compound 4: acetic acid, C2H4O2, InChI=1S/C2H4O2/c1-2(3)4/h1H3,(H,3,4), purity 99.5%
Compound 5: water, H2O, InChI=1S/H2O/h1H2, purity 99.95%

System: carbon dioxide; phases: Liquid, Gas
Property: Critical pressure, kPa (Liquid); method: Direct measurement
Critical pressure, kPa	uncertainty
7420	60

System: carbon dioxide; phases: Liquid, Gas
Property: Critical temperature, K (Liquid); method: Visual observation in a stirred cell
Critical temperature, K	uncertainty
304.5	0.6

System: ethanol; phases: Liquid, Gas
Property: Critical pressure, kPa (Liquid); method: Direct measurement
Critical pressure, kPa	uncertainty
6270	60

System: ethanol; phases: Liquid, Gas
Property: Critical temperature, K (Liquid); method: Visual observation in a stirred cell
Critical temperature, K	uncertainty
516.7	0.6

System: ethyl acetate; phases: Liquid, Gas
Property: Critical pressure, kPa (Liquid); method: Direct measurement
Critical pressure, kPa	uncertainty
3900	60

System: ethyl acetate; phases: Liquid, Gas
Property: Critical temperature, K (Liquid); method: Visual observation in a stirred cell
Critical temperature, K	uncertainty
523.8	0.6

System: ethanol + acetic acid; phases: Liquid, Gas
Property: Critical pressure, kPa (Liquid); method: Direct measurement
Mole fraction of ethanol	Critical pressure, kPa	uncertainty
0.2	7190	60
0.3	7510	60
0.4	7490	60
0.5	7410	60
0.6	7200	60
0.8	6690	60

System: ethanol + acetic acid; phases: Liquid, Gas
Property: Critical temperature, K (Liquid); method: Visual observation in a stirred cell
Mole fraction of ethanol	Critical temperature, K	uncertainty
0.2	575.1	0.9
0.3	565.1	0.8
0.4	556.5	0.8
0.5	547.7	0.8
0.6	540.6	0.7
0.8	527.7	0.7

System: ethyl acetate + water; phases: Liquid, Gas
Property: Critical pressure, kPa (Liquid); method: Direct measurement
Mole fraction of ethyl acetate	Critical pressure, kPa	uncertainty
0.21	13710	180
0.38	8840	140
0.58	6170	80
0.81	4730	70

System: ethyl acetate + water; phases: Liquid, Gas
Property: Critical temperature, K (Liquid); method: Visual observation in a stirred cell
Mole fraction of ethyl acetate	Critical temperature, K	uncertainty
0.21	592.5	1.3
0.38	558.5	1.1
0.58	538.4	0.7
0.81	529.8	0.6

System: ethanol + ethyl acetate; phases: Liquid, Gas
Property: Critical pressure, kPa (Liquid); method: Direct measurement
Mole fraction of ethanol	Critical pressure, kPa	uncertainty
0.2	4320	60
0.4	4770	60
0.59	5170	60
0.68	5350	60
0.75	5520	60
0.85	5780	60

System: ethanol + ethyl acetate; phases: Liquid, Gas
Property: Critical temperature, K (Liquid); method: Visual observation in a stirred cell
Mole fraction of ethanol	Critical temperature, K	uncertainty
0.2	521.6	0.6
0.4	519.2	0.6
0.59	516.8	0.6
0.68	515.9	0.6
0.75	515.3	0.6
0.85	515.4	0.6

System: ethanol + acetic acid + carbon dioxide; phases: Liquid, Gas
Property: Critical pressure, kPa (Liquid); method: Direct measurement
Mole fraction of acetic acid	Mole fraction of ethanol	Critical pressure, kPa	uncertainty
0.095	0.095	16380	110
0.16	0.16	17360	110
0.235	0.235	15860	130
0.325	0.325	13260	180
0.42	0.42	10340	230
0.5	0.5	7430	230

System: ethanol + acetic acid + carbon dioxide; phases: Liquid, Gas
Property: Critical temperature, K (Liquid); method: Visual observation in a stirred cell
Mole fraction of acetic acid	Mole fraction of ethanol	Critical temperature, K	uncertainty
0.095	0.095	390.8	4
0.16	0.16	433.2	4
0.235	0.235	474.8	3.4
0.325	0.325	495.8	1.5
0.42	0.42	524	1.9
0.5	0.5	547.7	1.9

System: carbon dioxide + ethyl acetate + water; phases: Liquid, Gas
Property: Critical pressure, kPa (Liquid); method: Direct measurement
Mole fraction of water	Mole fraction of ethyl acetate	Critical pressure, kPa	uncertainty
0.095	0.095	12500	200
0.16	0.16	14600	80
0.2	0.2	14900	80
0.3	0.3	13200	160
0.39	0.39	10900	160
0.5	0.5	7100	220

System: carbon dioxide + ethyl acetate + water; phases: Liquid, Gas
Property: Critical temperature, K (Liquid); method: Visual observation in a stirred cell
Mole fraction of water	Mole fraction of ethyl acetate	Critical temperature, K	uncertainty
0.095	0.095	378.5	4.9
0.16	0.16	431.6	3.3
0.2	0.2	453.2	3.3
0.3	0.3	495.2	1.9
0.39	0.39	521.5	1.9
0.5	0.5	546.2	1.5
