Measured thermophysical data. Experimental Dynamic Viscosities of 2,3-Dimethylpentane up to 60 MPa and from (303.15 to 353.15) K Using a Rolling-Ball Viscometer
Source: J. Chem. Eng. Data, 2005, 10.1021/je049662k
Compound 1: heptane, C7H16, InChI=1S/C7H16/c1-3-5-7-6-4-2/h3-7H2,1-2H3, purity 99.5%
Compound 2: toluene, C7H8, InChI=1S/C7H8/c1-7-5-3-2-4-6-7/h2-6H,1H3, purity 99.8%
Compound 3: 2,3-dimethylpentane, C7H16, InChI=1S/C7H16/c1-5-7(4)6(2)3/h6-7H,5H2,1-4H3, purity 99%

System: heptane; phases: Liquid
Property: Viscosity, Pa*s (Liquid); method: Falling or rolling sphere viscometry
Temperature, K	Pressure, kPa	Viscosity, Pa*s	uncertainty
303.15	100	0.000368	1.5e-05
303.15	1000	0.000371	1.5e-05
303.15	5000	0.000387	1.6e-05
303.15	10000	0.000408	1.7e-05
303.15	15000	0.000429	1.8e-05
303.15	20000	0.00045	1.8e-05
303.15	25000	0.000471	1.9e-05
303.15	30000	0.000492	2e-05
303.15	35000	0.000514	2.1e-05
303.15	40000	0.000535	2.2e-05
303.15	45000	0.000556	2.3e-05
303.15	50000	0.000578	2.4e-05
303.15	55000	0.0006	2.4e-05
303.15	60000	0.000622	2.5e-05
313.15	100	0.00033	1.3e-05
313.15	1000	0.000334	1.4e-05
313.15	5000	0.000348	1.4e-05
313.15	10000	0.000368	1.5e-05
313.15	15000	0.000388	1.6e-05
313.15	20000	0.000407	1.7e-05
313.15	25000	0.000427	1.7e-05
313.15	30000	0.000446	1.8e-05
313.15	35000	0.000465	1.9e-05
313.15	40000	0.000484	2e-05
313.15	45000	0.000503	2.1e-05
313.15	50000	0.000522	2.1e-05
313.15	55000	0.000542	2.2e-05
313.15	60000	0.000562	2.3e-05
323.15	100	0.000303	1.2e-05
323.15	1000	0.000306	1.2e-05
323.15	5000	0.000319	1.3e-05
323.15	10000	0.000336	1.4e-05
323.15	15000	0.000354	1.4e-05
323.15	20000	0.000371	1.5e-05
323.15	25000	0.000389	1.6e-05
323.15	30000	0.000406	1.7e-05
323.15	35000	0.000424	1.7e-05
323.15	40000	0.000442	1.8e-05
323.15	45000	0.000461	1.9e-05
323.15	50000	0.000479	2e-05
323.15	55000	0.000498	2e-05
323.15	60000	0.000517	2.1e-05
333.15	100	0.000273	1.1e-05
333.15	1000	0.000276	1.1e-05
333.15	5000	0.000289	1.2e-05
333.15	10000	0.000306	1.3e-05
333.15	15000	0.000323	1.3e-05
333.15	20000	0.00034	1.4e-05
333.15	25000	0.000357	1.5e-05
333.15	30000	0.000374	1.5e-05
333.15	35000	0.00039	1.6e-05
333.15	40000	0.000407	1.7e-05
333.15	45000	0.000423	1.7e-05
333.15	50000	0.000439	1.8e-05
333.15	55000	0.000456	1.9e-05
333.15	60000	0.000472	1.9e-05
343.15	100	0.000245	1e-05
343.15	1000	0.000247	1e-05
343.15	5000	0.00026	1.1e-05
343.15	10000	0.000277	1.1e-05
343.15	15000	0.000294	1.2e-05
343.15	20000	0.00031	1.3e-05
343.15	25000	0.000326	1.3e-05
343.15	30000	0.000341	1.4e-05
343.15	35000	0.000357	1.5e-05
343.15	40000	0.000372	1.5e-05
343.15	45000	0.000387	1.6e-05
343.15	50000	0.000402	1.6e-05
343.15	55000	0.000416	1.7e-05
343.15	60000	0.000431	1.8e-05
353.15	100	0.000231	9e-06
353.15	1000	0.000233	1e-05
353.15	5000	0.000246	1e-05
353.15	10000	0.000262	1.1e-05
353.15	15000	0.000278	1.1e-05
353.15	20000	0.000293	1.2e-05
353.15	25000	0.000307	1.3e-05
353.15	30000	0.000322	1.3e-05
353.15	35000	0.000336	1.4e-05
353.15	40000	0.000349	1.4e-05
353.15	45000	0.000361	1.5e-05
353.15	50000	0.000374	1.5e-05
353.15	55000	0.000386	1.6e-05
353.15	60000	0.000397	1.6e-05

System: toluene; phases: Liquid
Property: Viscosity, Pa*s (Liquid); method: Falling or rolling sphere viscometry
Temperature, K	Pressure, kPa	Viscosity, Pa*s	uncertainty
303.15	100	0.000525	2.1e-05
303.15	1000	0.000526	2.1e-05
303.15	5000	0.000544	2.2e-05
303.15	10000	0.000568	2.3e-05
303.15	15000	0.000593	2.4e-05
303.15	20000	0.000617	2.5e-05
303.15	25000	0.00064	2.6e-05
303.15	30000	0.000662	2.7e-05
303.15	35000	0.000685	2.8e-05
303.15	40000	0.000707	2.9e-05
303.15	45000	0.000729	3e-05
303.15	50000	0.000752	3.1e-05
303.15	55000	0.000774	3.2e-05
303.15	60000	0.000797	3.2e-05
313.15	100	0.000469	1.9e-05
313.15	1000	0.000474	1.9e-05
313.15	5000	0.000487	2e-05
313.15	10000	0.000509	2.1e-05
313.15	15000	0.000529	2.2e-05
313.15	20000	0.00055	2.2e-05
313.15	25000	0.00057	2.3e-05
313.15	30000	0.00059	2.4e-05
313.15	35000	0.00061	2.5e-05
313.15	40000	0.00063	2.6e-05
313.15	45000	0.000651	2.7e-05
313.15	50000	0.000671	2.7e-05
313.15	55000	0.000693	2.8e-05
313.15	60000	0.000715	2.9e-05
323.15	100	0.000422	1.7e-05
323.15	1000	0.000427	1.7e-05
323.15	5000	0.000439	1.8e-05
323.15	10000	0.000458	1.9e-05
323.15	15000	0.000476	1.9e-05
323.15	20000	0.000495	2e-05
323.15	25000	0.000514	2.1e-05
323.15	30000	0.000533	2.2e-05
323.15	35000	0.000552	2.2e-05
323.15	40000	0.000572	2.3e-05
323.15	45000	0.000592	2.4e-05
323.15	50000	0.000612	2.5e-05
323.15	55000	0.000633	2.6e-05
323.15	60000	0.000654	2.7e-05
333.15	100	0.000382	1.6e-05
333.15	1000	0.000386	1.6e-05
333.15	5000	0.000397	1.6e-05
333.15	10000	0.000413	1.7e-05
333.15	15000	0.00043	1.8e-05
333.15	20000	0.000446	1.8e-05
333.15	25000	0.000463	1.9e-05
333.15	30000	0.00048	2e-05
333.15	35000	0.000497	2e-05
333.15	40000	0.000515	2.1e-05
333.15	45000	0.000533	2.2e-05
333.15	50000	0.000551	2.2e-05
333.15	55000	0.000571	2.3e-05
333.15	60000	0.00059	2.4e-05
343.15	100	0.000349	1.4e-05
343.15	1000	0.000351	1.4e-05
343.15	5000	0.000362	1.5e-05
343.15	10000	0.000376	1.5e-05
343.15	15000	0.000391	1.6e-05
343.15	20000	0.000406	1.7e-05
343.15	25000	0.000421	1.7e-05
343.15	30000	0.000437	1.8e-05
343.15	35000	0.000453	1.8e-05
343.15	40000	0.000469	1.9e-05
343.15	45000	0.000485	2e-05
343.15	50000	0.000502	2e-05
343.15	55000	0.00052	2.1e-05
343.15	60000	0.000537	2.2e-05
353.15	100	0.00032	1.3e-05
353.15	1000	0.00032	1.3e-05
353.15	5000	0.000331	1.3e-05
353.15	10000	0.000344	1.4e-05
353.15	15000	0.000359	1.5e-05
353.15	20000	0.000373	1.5e-05
353.15	25000	0.000387	1.6e-05
353.15	30000	0.000401	1.6e-05
353.15	35000	0.000415	1.7e-05
353.15	40000	0.000429	1.7e-05
353.15	45000	0.000443	1.8e-05
353.15	50000	0.000458	1.9e-05
353.15	55000	0.000473	1.9e-05
353.15	60000	0.000488	2e-05

System: 2,3-dimethylpentane; phases: Liquid
Property: Viscosity, Pa*s (Liquid); method: Falling or rolling sphere viscometry
Temperature, K	Pressure, kPa	Viscosity, Pa*s	uncertainty
303.15	100	0.000356	1.5e-05
303.15	1000	0.00036	1.5e-05
303.15	5000	0.000377	1.5e-05
303.15	10000	0.000398	1.6e-05
303.15	15000	0.000419	1.7e-05
303.15	20000	0.000441	1.8e-05
303.15	25000	0.000462	1.9e-05
303.15	30000	0.000485	2e-05
303.15	35000	0.000507	2.1e-05
303.15	40000	0.00053	2.2e-05
303.15	45000	0.000553	2.3e-05
303.15	50000	0.000576	2.4e-05
303.15	55000	0.0006	2.5e-05
303.15	60000	0.000624	2.6e-05
313.15	100	0.000324	1.3e-05
313.15	1000	0.000328	1.3e-05
313.15	5000	0.000343	1.4e-05
313.15	10000	0.000361	1.5e-05
313.15	15000	0.00038	1.6e-05
313.15	20000	0.000399	1.6e-05
313.15	25000	0.000418	1.7e-05
313.15	30000	0.000438	1.8e-05
313.15	35000	0.000458	1.9e-05
313.15	40000	0.000479	2e-05
313.15	45000	0.0005	2.1e-05
313.15	50000	0.000522	2.1e-05
313.15	55000	0.000544	2.2e-05
313.15	60000	0.000566	2.3e-05
323.15	100	0.00029	1.2e-05
323.15	1000	0.000294	1.2e-05
323.15	5000	0.000308	1.3e-05
323.15	10000	0.000326	1.3e-05
323.15	15000	0.000344	1.4e-05
323.15	20000	0.000362	1.5e-05
323.15	25000	0.000381	1.6e-05
323.15	30000	0.000399	1.6e-05
323.15	35000	0.000418	1.7e-05
323.15	40000	0.000437	1.8e-05
323.15	45000	0.000457	1.9e-05
323.15	50000	0.000476	2e-05
323.15	55000	0.000496	2e-05
323.15	60000	0.000517	2.1e-05
333.15	100	0.000262	1.1e-05
333.15	1000	0.000266	1.1e-05
333.15	5000	0.00028	1.2e-05
333.15	10000	0.000298	1.2e-05
333.15	15000	0.000316	1.3e-05
333.15	20000	0.000334	1.4e-05
333.15	25000	0.000352	1.4e-05
333.15	30000	0.000369	1.5e-05
333.15	35000	0.000387	1.6e-05
333.15	40000	0.000404	1.7e-05
333.15	45000	0.000422	1.7e-05
333.15	50000	0.000439	1.8e-05
333.15	55000	0.000457	1.9e-05
333.15	60000	0.000474	1.9e-05
343.15	100	0.000244	1e-05
343.15	1000	0.000247	1e-05
343.15	5000	0.00026	1.1e-05
343.15	10000	0.000276	1.1e-05
343.15	15000	0.000292	1.2e-05
343.15	20000	0.000309	1.3e-05
343.15	25000	0.000325	1.3e-05
343.15	30000	0.000342	1.4e-05
343.15	35000	0.000359	1.5e-05
343.15	40000	0.000376	1.5e-05
343.15	45000	0.000393	1.6e-05
343.15	50000	0.00041	1.7e-05
343.15	55000	0.000428	1.8e-05
343.15	60000	0.000445	1.8e-05
353.15	100	0.000232	1e-05
353.15	1000	0.000234	1e-05
353.15	5000	0.000246	1e-05
353.15	10000	0.000261	1.1e-05
353.15	15000	0.000276	1.1e-05
353.15	20000	0.000291	1.2e-05
353.15	25000	0.000306	1.3e-05
353.15	30000	0.000321	1.3e-05
353.15	35000	0.000336	1.4e-05
353.15	40000	0.00035	1.4e-05
353.15	45000	0.000365	1.5e-05
353.15	50000	0.000381	1.6e-05
353.15	55000	0.000395	1.6e-05
353.15	60000	0.000411	1.7e-05

System: 2,3-dimethylpentane; phases: Liquid
Property: Mass density, kg/m3 (Liquid); method: ISOCHOR
Temperature, K	Pressure, kPa	Mass density, kg/m3	uncertainty
278.15	100	707.6	0.4
278.15	1000	708.3	0.4
278.15	5000	711.6	0.4
278.15	10000	715.5	0.4
278.15	15000	719.1	0.4
278.15	20000	722.7	0.4
278.15	25000	726	0.4
278.15	30000	729.2	0.5
278.15	35000	732.2	0.5
278.15	40000	735.2	0.5
278.15	45000	738	0.5
283.15	100	703.2	0.4
283.15	1000	704	0.4
283.15	5000	707.4	0.4
283.15	10000	711.5	0.4
283.15	15000	715.3	0.4
283.15	20000	718.9	0.4
283.15	25000	722.3	0.4
283.15	30000	725.6	0.4
283.15	35000	728.7	0.5
283.15	40000	731.7	0.5
283.15	45000	734.6	0.5
293.15	100	694.9	0.4
293.15	1000	695.7	0.4
293.15	5000	699.3	0.4
293.15	10000	703.6	0.4
293.15	15000	707.7	0.4
293.15	20000	711.5	0.4
293.15	25000	715.1	0.4
293.15	30000	718.6	0.4
293.15	35000	721.9	0.4
293.15	40000	725	0.4
293.15	45000	728	0.5
303.15	100	686.3	0.4
303.15	1000	687.2	0.4
303.15	5000	691.1	0.4
303.15	10000	695.7	0.4
303.15	15000	700	0.4
303.15	20000	704.1	0.4
303.15	25000	707.9	0.4
303.15	30000	711.6	0.4
303.15	35000	715	0.4
303.15	40000	718.3	0.4
303.15	45000	721.5	0.4
313.15	100	677.6	0.4
313.15	1000	678.6	0.4
313.15	5000	682.8	0.4
313.15	10000	687.7	0.4
313.15	15000	692.3	0.4
313.15	20000	696.6	0.4
313.15	25000	700.7	0.4
313.15	30000	704.5	0.4
313.15	35000	708.2	0.4
313.15	40000	711.6	0.4
313.15	45000	715	0.4
323.15	100	668.7	0.4
323.15	1000	669.8	0.4
323.15	5000	674.3	0.4
323.15	10000	679.6	0.4
323.15	15000	684.5	0.4
323.15	20000	689.1	0.4
323.15	25000	693.4	0.4
323.15	30000	697.5	0.4
323.15	35000	701.3	0.4
323.15	40000	705	0.4
323.15	45000	708.4	0.4
333.15	100	659.7	0.4
333.15	1000	660.9	0.4
333.15	5000	665.8	0.4
333.15	10000	671.5	0.4
333.15	15000	676.7	0.4
333.15	20000	681.6	0.4
333.15	25000	686.2	0.4
333.15	30000	690.5	0.4
333.15	35000	694.5	0.4
333.15	40000	698.3	0.4
333.15	45000	702	0.4
343.15	100	650.6	0.4
343.15	1000	651.9	0.4
343.15	5000	657.2	0.4
343.15	10000	663.3	0.4
343.15	15000	668.9	0.4
343.15	20000	674.1	0.4
343.15	25000	678.9	0.4
343.15	30000	683.5	0.4
343.15	35000	687.7	0.4
343.15	40000	691.7	0.4
343.15	45000	695.5	0.4
353.15	100	641.3	0.4
353.15	1000	642.7	0.4
353.15	5000	648.5	0.4
353.15	10000	655.1	0.4
353.15	15000	661.1	0.4
353.15	20000	666.6	0.4
353.15	25000	671.7	0.4
353.15	30000	676.5	0.4
353.15	35000	680.9	0.4
353.15	40000	685.1	0.4
353.15	45000	689.1	0.4
