Measured thermophysical data. Ionic Liquids/Water Distribution Ratios of Some Polycyclic Aromatic Hydrocarbons
Source: J. Chem. Eng. Data, 2004, 10.1021/je049879e
Compound 1: naphthalene, C10H8, InChI=1S/C10H8/c1-2-6-10-8-4-3-7-9(10)5-1/h1-8H
Compound 2: acenaphthene, C12H10, InChI=1S/C12H10/c1-3-9-4-2-6-11-8-7-10(5-1)12(9)11/h1-6H,7-8H2
Compound 3: fluorene, C13H10, InChI=1S/C13H10/c1-3-7-12-10(5-1)9-11-6-2-4-8-13(11)12/h1-8H,9H2
Compound 4: phenanthrene, C14H10, InChI=1S/C14H10/c1-3-7-13-11(5-1)9-10-12-6-2-4-8-14(12)13/h1-10H
Compound 5: anthracene, C14H10, InChI=1S/C14H10/c1-2-6-12-10-14-8-4-3-7-13(14)9-11(12)5-1/h1-10H
Compound 6: fluoranthene, C16H10, InChI=1S/C16H10/c1-2-8-13-12(7-1)14-9-3-5-11-6-4-10-15(13)16(11)14/h1-10H
Compound 7: pyrene, C16H10, InChI=1S/C16H10/c1-3-11-7-9-13-5-2-6-14-10-8-12(4-1)15(11)16(13)14/h1-10H
Compound 8: benz[a]anthracene, C18H12, InChI=1S/C18H12/c1-2-7-15-12-18-16(11-14(15)6-1)10-9-13-5-3-4-8-17(13)18/h1-12H
Compound 9: chrysene, C18H12, InChI=1S/C18H12/c1-3-7-15-13(5-1)9-11-18-16-8-4-2-6-14(16)10-12-17(15)18/h1-12H
Compound 10: benz[e]acephenanthrylene, C20H12, InChI=1S/C20H12/c1-2-7-14-13(6-1)12-19-16-9-4-3-8-15(16)18-11-5-10-17(14)20(18)19/h1-12H
Compound 11: benzo[k]fluoranthene, C20H12, InChI=1S/C20H12/c1-2-6-15-12-19-17-10-4-8-13-7-3-9-16(20(13)17)18(19)11-14(15)5-1/h1-12H
Compound 12: benzo[a]pyrene, C20H12, InChI=1S/C20H12/c1-2-7-17-15(4-1)12-16-9-8-13-5-3-6-14-10-11-18(17)20(16)19(13)14/h1-12H
Compound 13: dibenz[a,h]anthracene, C22H14, InChI=1S/C22H14/c1-3-7-19-15(5-1)9-11-17-14-22-18(13-21(17)19)12-10-16-6-2-4-8-20(16)22/h1-14H
Compound 14: benzo[ghi]perylene, C22H12, InChI=1S/C22H12/c1-3-13-7-9-15-11-12-16-10-8-14-4-2-6-18-17(5-1)19(13)21(15)22(16)20(14)18/h1-12H
Compound 15: water, H2O, InChI=1S/H2O/h1H2
Compound 16: 1-butyl-3-methylimidazolium hexafluorophosphate, C8H15F6N2P, InChI=1S/C8H15N2.F6P/c1-3-4-5-10-7-6-9(2)8-10;1-7(2,3,4,5)6/h6-8H,3-5H2,1-2H3;/q+1;-1
Compound 17: 1-octyl-3-methylimidazolium hexafluorophosphate, C12H23F6N2P, InChI=1S/C12H23N2.F6P/c1-3-4-5-6-7-8-9-14-11-10-13(2)12-14;1-7(2,3,4,5)6/h10-12H,3-9H2,1-2H3;/q+1;-1
Compound 18: indeno[1,2,3-cd]pyrene, C22H12, InChI=1S/C22H12/c1-2-7-17-16(6-1)18-11-10-14-9-8-13-4-3-5-15-12-19(17)22(18)21(14)20(13)15/h1-12H

System: naphthalene + water + 1-butyl-3-methylimidazolium hexafluorophosphate; phases: Liquid mixture 1, Liquid mixture 2
Property: Mass concentration, kg/m3 of naphthalene (Liquid mixture 1); method: Chromatography
Temperature, K	Pressure, kPa	Mole fraction of naphthalene	Mass concentration, kg/m3 of naphthalene	uncertainty
298.15	101.3	0	2188	324

System: acenaphthene + water + 1-butyl-3-methylimidazolium hexafluorophosphate; phases: Liquid mixture 1, Liquid mixture 2
Property: Mass concentration, kg/m3 of acenaphthene (Liquid mixture 1); method: Chromatography
Temperature, K	Mole fraction of acenaphthene	Pressure, kPa	Mass concentration, kg/m3 of acenaphthene	uncertainty
298.1	0	101.3	5129	897

System: fluorene + water + 1-butyl-3-methylimidazolium hexafluorophosphate; phases: Liquid mixture 1, Liquid mixture 2
Property: Mass concentration, kg/m3 of fluorene (Liquid mixture 1); method: Chromatography
Temperature, K	Pressure, kPa	Mole fraction of fluorene	Mass concentration, kg/m3 of fluorene	uncertainty
298.1	101.3	0	6607	2726

System: phenanthrene + water + 1-butyl-3-methylimidazolium hexafluorophosphate; phases: Liquid mixture 1, Liquid mixture 2
Property: Mass concentration, kg/m3 of phenanthrene (Liquid mixture 1); method: Chromatography
Temperature, K	Pressure, kPa	Mole fraction of phenanthrene	Mass concentration, kg/m3 of phenanthrene	uncertainty
298.1	101.3	0	11482	3654

System: anthracene + water + 1-butyl-3-methylimidazolium hexafluorophosphate; phases: Liquid mixture 1, Liquid mixture 2
Property: Mass concentration, kg/m3 of anthracene (Liquid mixture 1); method: Chromatography
Temperature, K	Pressure, kPa	Mole fraction of anthracene	Mass concentration, kg/m3 of anthracene	uncertainty
298.1	101.3	0	14125	3657

System: fluoranthene + water + 1-butyl-3-methylimidazolium hexafluorophosphate; phases: Liquid mixture 1, Liquid mixture 2
Property: Mass concentration, kg/m3 of fluoranthene (Liquid mixture 1); method: Chromatography
Temperature, K	Pressure, kPa	Mole fraction of fluoranthene	Mass concentration, kg/m3 of fluoranthene	uncertainty
298.1	101.3	0	15849	5531

System: pyrene + water + 1-butyl-3-methylimidazolium hexafluorophosphate; phases: Liquid mixture 1, Liquid mixture 2
Property: Mass concentration, kg/m3 of pyrene (Liquid mixture 1); method: Chromatography
Temperature, K	Pressure, kPa	Mole fraction of pyrene	Mass concentration, kg/m3 of pyrene	uncertainty
298.1	101.3	0	16218	4675

System: benz[a]anthracene + water + 1-butyl-3-methylimidazolium hexafluorophosphate; phases: Liquid mixture 1, Liquid mixture 2
Property: Mass concentration, kg/m3 of benz[a]anthracene (Liquid mixture 1); method: Chromatography
Temperature, K	Pressure, kPa	Mole fraction of benz[a]anthracene	Mass concentration, kg/m3 of benz[a]anthracene	uncertainty
298.1	101.3	0	16596	6846

System: chrysene + water + 1-butyl-3-methylimidazolium hexafluorophosphate; phases: Liquid mixture 1, Liquid mixture 2
Property: Mass concentration, kg/m3 of chrysene (Liquid mixture 1); method: Chromatography
Temperature, K	Pressure, kPa	Mole fraction of chrysene	Mass concentration, kg/m3 of chrysene	uncertainty
298.1	101.3	0	16596	6313

System: benz[e]acephenanthrylene + water + 1-butyl-3-methylimidazolium hexafluorophosphate; phases: Liquid mixture 1, Liquid mixture 2
Property: Mass concentration, kg/m3 of benz[e]acephenanthrylene (Liquid mixture 1); method: Chromatography
Temperature, K	Pressure, kPa	Mole fraction of benz[e]acephenanthrylene	Mass concentration, kg/m3 of benz[e]acephenanthrylene	uncertainty
298.1	101.3	0	20417	9782

System: benzo[k]fluoranthene + water + 1-butyl-3-methylimidazolium hexafluorophosphate; phases: Liquid mixture 1, Liquid mixture 2
Property: Mass concentration, kg/m3 of benzo[k]fluoranthene (Liquid mixture 1); method: Chromatography
Temperature, K	Pressure, kPa	Mole fraction of benzo[k]fluoranthene	Mass concentration, kg/m3 of benzo[k]fluoranthene	uncertainty
298.1	101.3	0	19953	11670

System: benzo[a]pyrene + water + 1-butyl-3-methylimidazolium hexafluorophosphate; phases: Liquid mixture 1, Liquid mixture 2
Property: Mass concentration, kg/m3 of benzo[a]pyrene (Liquid mixture 1); method: Chromatography
Temperature, K	Pressure, kPa	Mole fraction of benzo[a]pyrene	Mass concentration, kg/m3 of benzo[a]pyrene	uncertainty
298.1	101.3	0	20893	10730

System: dibenz[a,h]anthracene + water + 1-butyl-3-methylimidazolium hexafluorophosphate; phases: Liquid mixture 1, Liquid mixture 2
Property: Mass concentration, kg/m3 of dibenz[a,h]anthracene (Liquid mixture 1); method: Chromatography
Temperature, K	Pressure, kPa	Mole fraction of dibenz[a,h]anthracene	Mass concentration, kg/m3 of dibenz[a,h]anthracene	uncertainty
298.1	101.3	0	19953	12410

System: benzo[ghi]perylene + water + 1-butyl-3-methylimidazolium hexafluorophosphate; phases: Liquid mixture 1, Liquid mixture 2
Property: Mass concentration, kg/m3 of benzo[ghi]perylene (Liquid mixture 1); method: Chromatography
Temperature, K	Pressure, kPa	Mole fraction of benzo[ghi]perylene	Mass concentration, kg/m3 of benzo[ghi]perylene	uncertainty
298.1	101.3	0	20417	13470

System: naphthalene + water + 1-octyl-3-methylimidazolium hexafluorophosphate; phases: Liquid mixture 1, Liquid mixture 2
Property: Mass concentration, kg/m3 of naphthalene (Liquid mixture 1); method: Chromatography
Temperature, K	Pressure, kPa	Mole fraction of naphthalene	Mass concentration, kg/m3 of naphthalene	uncertainty
298.1	101.3	0	3236	566

System: acenaphthene + water + 1-octyl-3-methylimidazolium hexafluorophosphate; phases: Liquid mixture 1, Liquid mixture 2
Property: Mass concentration, kg/m3 of acenaphthene (Liquid mixture 1); method: Chromatography
Temperature, K	Pressure, kPa	Mole fraction of acenaphthene	Mass concentration, kg/m3 of acenaphthene	uncertainty
298.1	101.3	0	7244	3227

System: fluorene + water + 1-octyl-3-methylimidazolium hexafluorophosphate; phases: Liquid mixture 1, Liquid mixture 2
Property: Mass concentration, kg/m3 of fluorene (Liquid mixture 1); method: Chromatography
Temperature, K	Pressure, kPa	Mole fraction of fluorene	Mass concentration, kg/m3 of fluorene	uncertainty
298.1	101.3	0	9333	5122

System: phenanthrene + water + 1-octyl-3-methylimidazolium hexafluorophosphate; phases: Liquid mixture 1, Liquid mixture 2
Property: Mass concentration, kg/m3 of phenanthrene (Liquid mixture 1); method: Chromatography
Temperature, K	Pressure, kPa	Mole fraction of phenanthrene	Mass concentration, kg/m3 of phenanthrene	uncertainty
298.1	101.3	0	13804	2414

System: anthracene + water + 1-octyl-3-methylimidazolium hexafluorophosphate; phases: Liquid mixture 1, Liquid mixture 2
Property: Mass concentration, kg/m3 of anthracene (Liquid mixture 1); method: Chromatography
Temperature, K	Pressure, kPa	Mole fraction of anthracene	Mass concentration, kg/m3 of anthracene	uncertainty
298.1	101.3	0	13183	13180

System: fluoranthene + water + 1-octyl-3-methylimidazolium hexafluorophosphate; phases: Liquid mixture 1, Liquid mixture 2
Property: Mass concentration, kg/m3 of fluoranthene (Liquid mixture 1); method: Chromatography
Temperature, K	Pressure, kPa	Mole fraction of fluoranthene	Mass concentration, kg/m3 of fluoranthene	uncertainty
298.1	101.3	0	16982	8136

System: pyrene + water + 1-octyl-3-methylimidazolium hexafluorophosphate; phases: Liquid mixture 1, Liquid mixture 2
Property: Mass concentration, kg/m3 of pyrene (Liquid mixture 1); method: Chromatography
Temperature, K	Pressure, kPa	Mole fraction of pyrene	Mass concentration, kg/m3 of pyrene	uncertainty
298.1	101.3	0	16218	9486

System: benz[a]anthracene + water + 1-octyl-3-methylimidazolium hexafluorophosphate; phases: Liquid mixture 1, Liquid mixture 2
Property: Mass concentration, kg/m3 of benz[a]anthracene (Liquid mixture 1); method: Chromatography
Temperature, K	Pressure, kPa	Mole fraction of benz[a]anthracene	Mass concentration, kg/m3 of benz[a]anthracene	uncertainty
298.1	101.3	0	14791	5626

System: chrysene + water + 1-octyl-3-methylimidazolium hexafluorophosphate; phases: Liquid mixture 1, Liquid mixture 2
Property: Mass concentration, kg/m3 of chrysene (Liquid mixture 1); method: Chromatography
Temperature, K	Pressure, kPa	Mole fraction of chrysene	Mass concentration, kg/m3 of chrysene	uncertainty
298.1	101.3	0	16982	8722

System: benz[e]acephenanthrylene + water + 1-octyl-3-methylimidazolium hexafluorophosphate; phases: Liquid mixture 1, Liquid mixture 2
Property: Mass concentration, kg/m3 of benz[e]acephenanthrylene (Liquid mixture 1); method: Chromatography
Temperature, K	Pressure, kPa	Mole fraction of benz[e]acephenanthrylene	Mass concentration, kg/m3 of benz[e]acephenanthrylene	uncertainty
298.1	101.3	0	18197	9345

System: benzo[k]fluoranthene + water + 1-octyl-3-methylimidazolium hexafluorophosphate; phases: Liquid mixture 1, Liquid mixture 2
Property: Mass concentration, kg/m3 of benzo[k]fluoranthene (Liquid mixture 1); method: Chromatography
Temperature, K	Pressure, kPa	Mole fraction of benzo[k]fluoranthene	Mass concentration, kg/m3 of benzo[k]fluoranthene	uncertainty
298.1	101.3	0	16596	9108

System: benzo[a]pyrene + water + 1-octyl-3-methylimidazolium hexafluorophosphate; phases: Liquid mixture 1, Liquid mixture 2
Property: Mass concentration, kg/m3 of benzo[a]pyrene (Liquid mixture 1); method: Chromatography
Temperature, K	Pressure, kPa	Mole fraction of benzo[a]pyrene	Mass concentration, kg/m3 of benzo[a]pyrene	uncertainty
298.1	101.3	0	20893	9307

System: dibenz[a,h]anthracene + water + 1-octyl-3-methylimidazolium hexafluorophosphate; phases: Liquid mixture 1, Liquid mixture 2
Property: Mass concentration, kg/m3 of dibenz[a,h]anthracene (Liquid mixture 1); method: Chromatography
Temperature, K	Pressure, kPa	Mole fraction of dibenz[a,h]anthracene	Mass concentration, kg/m3 of dibenz[a,h]anthracene	uncertainty
298.1	101.3	0	16982	8722

System: benzo[ghi]perylene + water + 1-octyl-3-methylimidazolium hexafluorophosphate; phases: Liquid mixture 1, Liquid mixture 2
Property: Mass concentration, kg/m3 of benzo[ghi]perylene (Liquid mixture 1); method: Chromatography
Temperature, K	Pressure, kPa	Mole fraction of benzo[ghi]perylene	Mass concentration, kg/m3 of benzo[ghi]perylene	uncertainty
298.1	101.3	0	19953	10250

System: indeno[1,2,3-cd]pyrene + water + 1-butyl-3-methylimidazolium hexafluorophosphate; phases: Liquid mixture 1, Liquid mixture 2
Property: Mass concentration, kg/m3 of indeno[1,2,3-cd]pyrene (Liquid mixture 1); method: Chromatography
Temperature, K	Mole fraction of indeno[1,2,3-cd]pyrene	Pressure, kPa	Mass concentration, kg/m3 of indeno[1,2,3-cd]pyrene	uncertainty
298.1	0	101.3	22909	10980

System: indeno[1,2,3-cd]pyrene + water + 1-octyl-3-methylimidazolium hexafluorophosphate; phases: Liquid mixture 1, Liquid mixture 2
Property: Mass concentration, kg/m3 of indeno[1,2,3-cd]pyrene (Liquid mixture 1); method: Chromatography
Temperature, K	Mole fraction of indeno[1,2,3-cd]pyrene	Pressure, kPa	Mass concentration, kg/m3 of indeno[1,2,3-cd]pyrene	uncertainty
298.1	0	101.3	20417	10490
