Measured thermophysical data. Vapor-Liquid Equilibria and Excess Enthalpies for Binary Systems of Dimethoxymethane with Hydrocarbons
Source: J. Chem. Eng. Data, 2006, 10.1021/je049681u
Compound 1: dimethoxymethane, C3H8O2, InChI=1S/C3H8O2/c1-4-3-5-2/h3H2,1-2H3, purity 99%
Compound 2: hexane, C6H14, InChI=1S/C6H14/c1-3-5-6-4-2/h3-6H2,1-2H3, purity 99.5%
Compound 3: cyclohexane, C6H12, InChI=1S/C6H12/c1-2-4-6-5-3-1/h1-6H2, purity 99.5%
Compound 4: benzene, C6H6, InChI=1S/C6H6/c1-2-4-6-5-3-1/h1-6H, purity 99.5%

System: dimethoxymethane; phases: Liquid
Property: Mass density, kg/m3 (Liquid); method: Pycnometric method
Temperature, K	Pressure, kPa	Mass density, kg/m3	uncertainty
298.15	101.325	847.51	0.61

System: dimethoxymethane; phases: Liquid, Gas
Property: Vapor or sublimation pressure, kPa (Liquid); method: EBULLIO:UFactor:16
Temperature, K	Vapor or sublimation pressure, kPa	uncertainty
313.75	95.96	1.02
315.25	101.3	1.02

System: hexane; phases: Liquid
Property: Mass density, kg/m3 (Liquid); method: Pycnometric method
Temperature, K	Pressure, kPa	Mass density, kg/m3	uncertainty
298.15	101.325	654.9	0.72

System: hexane; phases: Liquid, Gas
Property: Vapor or sublimation pressure, kPa (Liquid); method: EBULLIO:UFactor:16
Temperature, K	Vapor or sublimation pressure, kPa	uncertainty
340.15	95.96	1.02
341.85	101.3	1.02

System: cyclohexane; phases: Liquid
Property: Mass density, kg/m3 (Liquid); method: Pycnometric method
Temperature, K	Pressure, kPa	Mass density, kg/m3	uncertainty
298.15	101.325	773.98	0.82

System: cyclohexane; phases: Liquid, Gas
Property: Vapor or sublimation pressure, kPa (Liquid); method: EBULLIO:UFactor:16
Temperature, K	Vapor or sublimation pressure, kPa	uncertainty
352.05	95.96	1.02
353.95	101.3	1.02

System: benzene; phases: Liquid
Property: Mass density, kg/m3 (Liquid); method: Pycnometric method
Temperature, K	Pressure, kPa	Mass density, kg/m3	uncertainty
298.15	101.325	873.64	0.82

System: benzene; phases: Liquid, Gas
Property: Vapor or sublimation pressure, kPa (Liquid); method: EBULLIO:UFactor:16
Temperature, K	Vapor or sublimation pressure, kPa	uncertainty
350.85	95.96	1.02
353.15	101.3	1.02

System: dimethoxymethane + hexane; phases: Liquid
Fixed: Temperature, K = 298.15
Fixed: Pressure, kPa = 95.96
Property: Excess molar enthalpy (molar enthalpy of mixing), kJ/mol (Liquid); method: CALVET:UFactor:16
Mole fraction of dimethoxymethane	Excess molar enthalpy (molar enthalpy of mixing), kJ/mol	uncertainty
0.0576	0.277	0.047
0.1238	0.538	0.079
0.1942	0.757	0.106
0.3159	1.033	0.14
0.39	1.128	0.152
0.5076	1.205	0.162
0.5787	1.196	0.161
0.6973	0.935	0.128
0.7374	0.863	0.119
0.8112	0.695	0.099
0.8393	0.607	0.088
0.8788	0.475	0.071
0.9522	0.21	0.038

System: dimethoxymethane + hexane; phases: Liquid, Gas
Fixed: Pressure, kPa = 95.96
Property: Boiling temperature at pressure P, K (Liquid); method: EBULLIO:UFactor:16
Mole fraction of dimethoxymethane	Boiling temperature at pressure P, K	uncertainty
0	340.15	0.51
0.1128	328.55	0.51
0.2457	321.95	0.51
0.3372	319.35	0.51
0.412	317.75	0.51
0.5043	316.35	0.51
0.5964	315.45	0.51
0.6959	314.45	0.51
0.7855	313.95	0.51
0.9015	313.55	0.51
1	313.75	0.51

System: dimethoxymethane + cyclohexane; phases: Liquid
Fixed: Temperature, K = 298.15
Fixed: Pressure, kPa = 95.96
Property: Excess molar enthalpy (molar enthalpy of mixing), kJ/mol (Liquid); method: CALVET:UFactor:16
Mole fraction of dimethoxymethane	Excess molar enthalpy (molar enthalpy of mixing), kJ/mol	uncertainty
0.0659	0.341	0.055
0.1321	0.63	0.09
0.2046	0.87	0.12
0.2797	1.068	0.145
0.3488	1.191	0.16
0.4173	1.279	0.171
0.4784	1.322	0.176
0.5335	1.325	0.177
0.5851	1.303	0.174
0.6481	1.101	0.149
0.736	0.943	0.129
0.7727	0.852	0.118
0.8132	0.744	0.105
0.8538	0.615	0.089
0.9008	0.428	0.065
0.9471	0.235	0.042

System: dimethoxymethane + cyclohexane; phases: Liquid, Gas
Fixed: Pressure, kPa = 95.96
Property: Boiling temperature at pressure P, K (Liquid); method: EBULLIO:UFactor:16
Mole fraction of dimethoxymethane	Boiling temperature at pressure P, K	uncertainty
0	352.05	0.51
0.0782	340.35	0.51
0.1736	331.55	0.51
0.2508	326.85	0.51
0.3444	322.95	0.51
0.4567	319.45	0.51
0.5517	317.55	0.51
0.6511	316.25	0.51
0.7516	315.15	0.51
0.8832	314.15	0.51
0.9298	313.85	0.51
1	313.75	0.51

System: benzene + dimethoxymethane; phases: Liquid
Fixed: Temperature, K = 298.15
Fixed: Pressure, kPa = 95.96
Property: Excess molar enthalpy (molar enthalpy of mixing), kJ/mol (Liquid); method: CALVET:UFactor:8
Mole fraction of dimethoxymethane	Excess molar enthalpy (molar enthalpy of mixing), kJ/mol	uncertainty
0.0561	0.042	0.009
0.114	0.07	0.011
0.1671	0.088	0.012
0.27	0.113	0.013
0.3228	0.118	0.014
0.3836	0.119	0.014
0.4404	0.117	0.013
0.619	0.104	0.013
0.6685	0.097	0.012
0.7134	0.088	0.012
0.755	0.078	0.011
0.8018	0.061	0.01
0.9471	0.015	0.007

System: benzene + dimethoxymethane; phases: Liquid, Gas
Fixed: Pressure, kPa = 95.96
Property: Boiling temperature at pressure P, K (Liquid); method: EBULLIO:UFactor:16
Mole fraction of dimethoxymethane	Boiling temperature at pressure P, K	uncertainty
0	350.85	0.51
0.0615	339.75	0.51
0.1456	331.75	0.51
0.2135	327.95	0.51
0.3003	324.75	0.51
0.4071	322.05	0.51
0.4785	320.65	0.51
0.5617	319.25	0.51
0.6384	318.15	0.51
0.7555	316.65	0.51
0.8607	315.25	0.51
1	313.75	0.51
