Measured thermophysical data. Thermophysical Properties of Binary Mixtures of Cyclohexane + Nitrobenzene, Cyclohexanone + Nitrobenzene, and Cyclohexane + Cyclohexanone at (298.15, 303.15, and 308.15) K
Source: J. Chem. Eng. Data, 2005, 10.1021/je049661s
Compound 1: nitrobenzene, C6H5NO2, InChI=1S/C6H5NO2/c8-7(9)6-4-2-1-3-5-6/h1-5H
Compound 2: cyclohexanone, C6H10O, InChI=1S/C6H10O/c7-6-4-2-1-3-5-6/h1-5H2
Compound 3: cyclohexane, C6H12, InChI=1S/C6H12/c1-2-4-6-5-3-1/h1-6H2

System: nitrobenzene; phases: Liquid
Fixed: Pressure, kPa = 101.3
Property: Viscosity, Pa*s (Liquid); method: CAPTUB::UFactor:2
Temperature, K	Viscosity, Pa*s	uncertainty
298.15	0.001686	2.59e-05
303.15	0.0016187	2.49e-05
308.15	0.0015543	2.4e-05

System: nitrobenzene; phases: Liquid
Fixed: Pressure, kPa = 101.3
Property: Speed of sound, m/s (Liquid); method: OTHER::UFactor:4:sMethod:ultrasonic time intervalometer
Temperature, K	Speed of sound, m/s	uncertainty
298.15	1648.4	824.2
303.15	1806	903
308.15	1960	980
308.15	1961	980.5

System: nitrobenzene; phases: Liquid
Fixed: Pressure, kPa = 101.3
Property: Mass density, kg/m3 (Liquid); method: PYCNOM:UFactor:8
Temperature, K	Mass density, kg/m3	uncertainty
298.15	1198.5	2.7
303.15	1193.6	2.8
308.15	1191.1	2.9

System: cyclohexanone; phases: Liquid
Fixed: Pressure, kPa = 101.3
Property: Viscosity, Pa*s (Liquid); method: CAPTUB::UFactor:2
Temperature, K	Viscosity, Pa*s	uncertainty
298.15	0.0020212	3.08e-05
303.15	0.0018057	2.77e-05
308.15	0.0015849	2.45e-05

System: cyclohexanone; phases: Liquid
Fixed: Pressure, kPa = 101.3
Property: Speed of sound, m/s (Liquid); method: OTHER::UFactor:4:sMethod:ultrasonic time intervalometer
Temperature, K	Speed of sound, m/s	uncertainty
298.15	1847.7	923.9
303.15	1970.1	985.1
308.15	2090	1045

System: cyclohexanone; phases: Liquid
Fixed: Pressure, kPa = 101.3
Property: Mass density, kg/m3 (Liquid); method: PYCNOM::UFactor:8
Temperature, K	Mass density, kg/m3	uncertainty
298.15	941	2
303.15	937.4	2.1
308.15	936.5	2.2

System: cyclohexane; phases: Liquid
Fixed: Pressure, kPa = 101.3
Property: Viscosity, Pa*s (Liquid); method: CAPTUB::UFactor:2
Temperature, K	Viscosity, Pa*s	uncertainty
298.15	0.0008945	1.49e-05
303.15	0.0008284	1.4e-05
308.15	0.0007637	1.32e-05

System: cyclohexane; phases: Liquid
Fixed: Pressure, kPa = 101.3
Property: Speed of sound, m/s (Liquid); method: OTHER::UFactor:4:sMethod:ultrasonic time intervalometer
Temperature, K	Speed of sound, m/s	uncertainty
298.15	1871	935.5
303.15	1993	996.5
308.15	2092	1046

System: cyclohexane; phases: Liquid
Fixed: Pressure, kPa = 101.3
Property: Mass density, kg/m3 (Liquid); method: PYCNOM::UFactor:8
Temperature, K	Mass density, kg/m3	uncertainty
298.15	773.9	1.6
303.15	768.6	1.7
308.15	761.2	1.7

System: nitrobenzene + cyclohexane; phases: Liquid
Fixed: Pressure, kPa = 101.3
Property: Viscosity, Pa*s (Liquid); method: CAPTUB:UFactor:2
Temperature, K	Mole fraction of cyclohexane	Viscosity, Pa*s	uncertainty
298.15	0	0.001686	2.59e-05
298.15	0.0951	0.0015885	2.45e-05
298.15	0.1908	0.0014824	2.29e-05
298.15	0.2875	0.0013687	2.13e-05
298.15	0.3866	0.0012604	1.97e-05
298.15	0.4828	0.001167	1.84e-05
298.15	0.5865	0.0010831	1.73e-05
298.15	0.685	0.0010224	1.65e-05
298.15	0.7901	0.0009712	1.58e-05
298.15	0.896	0.0009338	1.54e-05
298.15	1	0.0008945	1.49e-05
303.15	0	0.0016187	2.49e-05
303.15	0.0951	0.001527	2.36e-05
303.15	0.1908	0.001423	2.21e-05
303.15	0.2875	0.0013132	2.05e-05
303.15	0.3866	0.0012101	1.9e-05
303.15	0.4828	0.0011171	1.77e-05
303.15	0.5865	0.0010325	1.66e-05
303.15	0.685	0.000968	1.58e-05
303.15	0.7901	0.0009142	1.51e-05
303.15	0.896	0.000874	1.46e-05
303.15	1	0.0008284	1.4e-05
308.15	0	0.0015543	2.4e-05
308.15	0.0951	0.001489	2.3e-05
308.15	0.1908	0.0013854	2.15e-05
308.15	0.2875	0.0012765	1.99e-05
308.15	0.3866	0.001168	1.84e-05
308.15	0.4828	0.0010739	1.72e-05
308.15	0.5865	0.0009873	1.6e-05
308.15	0.685	0.0009182	1.52e-05
308.15	0.7901	0.0008626	1.44e-05
308.15	0.896	0.0008182	1.39e-05
308.15	1	0.0007637	1.32e-05

System: nitrobenzene + cyclohexane; phases: Liquid
Fixed: Pressure, kPa = 101.3
Property: Speed of sound, m/s (Liquid); method: OTHER:UFactor:4:sMethod:ultrasonic time intervalometer
Temperature, K	Mole fraction of cyclohexane	Speed of sound, m/s	uncertainty
298.15	0	1648.4	824.2
298.15	0.0951	1675.9	838
298.15	0.1908	1698.6	849.3
298.15	0.2875	1717.6	858.8
298.15	0.3866	1735.7	867.9
298.15	0.4828	1754.2	877.1
298.15	0.5865	1776.2	888.1
298.15	0.685	1797.9	899
298.15	0.7901	1823	911.5
298.15	0.896	1849	924.5
298.15	1	1871	935.5
303.15	0	1806	903
303.15	0.0951	1826.9	913.5
303.15	0.1908	1845.3	922.7
303.15	0.2875	1863.4	931.7
303.15	0.3866	1879.2	939.6
303.15	0.4828	1893.5	946.8
303.15	0.5865	1910.2	955.1
303.15	0.685	1927	963.5
303.15	0.7901	1945.2	972.6
303.15	0.896	1967.2	983.6
303.15	1	1993	996.5
308.15	0	1960	980
308.15	0.0951	1963.3	981.7
308.15	0.1908	1973.2	986.6
308.15	0.2875	1985	992.5
308.15	0.3866	1998.6	999.3
308.15	0.4828	2009.6	1005
308.15	0.5865	2018.8	1009
308.15	0.685	2027.8	1014
308.15	0.7901	2041.5	1021
308.15	0.896	2061.3	1031
308.15	1	2092	1046

System: nitrobenzene + cyclohexane; phases: Liquid
Fixed: Pressure, kPa = 101.3
Property: Mass density, kg/m3 (Liquid); method: PYCNOM:UFactor:8
Temperature, K	Mole fraction of cyclohexane	Mass density, kg/m3	uncertainty
298.15	0	1198.5	2.7
298.15	0.0951	1160.4	2.6
298.15	0.1908	1121.8	2.5
298.15	0.2875	1080.5	2.4
298.15	0.3866	1037.9	2.3
298.15	0.4828	996	2.2
298.15	0.5865	950.4	2.1
298.15	0.685	907.2	2
298.15	0.7901	861.6	1.8
298.15	0.896	816.9	1.7
298.15	1	773.9	1.6
303.15	0	1193.6	2.8
303.15	0.0951	1158	2.7
303.15	0.1908	1119.7	2.6
303.15	0.2875	1078	2.5
303.15	0.3866	1035	2.4
303.15	0.4828	993	2.3
303.15	0.5865	947.6	2.2
303.15	0.685	905	2
303.15	0.7901	860	1.9
303.15	0.896	814.4	1.8
303.15	1	768.6	1.7
308.15	0	1191.1	2.9
308.15	0.0951	1156	2.8
308.15	0.1908	1117.6	2.7
308.15	0.2875	1075.5	2.6
308.15	0.3866	1031.9	2.5
308.15	0.4828	990	2.3
308.15	0.5865	945	2.2
308.15	0.685	902.3	2.1
308.15	0.7901	856.6	2
308.15	0.896	809.1	1.9
308.15	1	761.2	1.7

System: nitrobenzene + cyclohexanone; phases: Liquid
Fixed: Pressure, kPa = 101.3
Property: Viscosity, Pa*s (Liquid); method: CAPTUB:UFactor:2
Temperature, K	Mole fraction of cyclohexanone	Viscosity, Pa*s	uncertainty
298.15	0	0.001686	2.59e-05
298.15	0.098	0.0017518	2.69e-05
298.15	0.1946	0.0017852	2.74e-05
298.15	0.2933	0.0018023	2.76e-05
298.15	0.3938	0.001812	2.78e-05
298.15	0.495	0.0018269	2.8e-05
298.15	0.592	0.0018484	2.83e-05
298.15	0.6945	0.0018791	2.87e-05
298.15	0.7966	0.0019215	2.94e-05
298.15	0.8973	0.0019705	3.01e-05
298.15	1	0.0020212	3.08e-05
303.15	0	0.0016187	2.49e-05
303.15	0.098	0.001645	2.53e-05
303.15	0.1946	0.0016661	2.56e-05
303.15	0.2933	0.0016781	2.58e-05
303.15	0.3938	0.0016849	2.59e-05
303.15	0.495	0.0016945	2.6e-05
303.15	0.592	0.0017042	2.62e-05
303.15	0.6945	0.0017206	2.64e-05
303.15	0.7966	0.0017494	2.69e-05
303.15	0.8973	0.0017778	2.73e-05
303.15	1	0.0018057	2.77e-05
308.15	0	0.0015543	2.4e-05
308.15	0.098	0.0015556	2.4e-05
308.15	0.1946	0.0015572	2.4e-05
308.15	0.2933	0.0015586	2.41e-05
308.15	0.3938	0.0015611	2.41e-05
308.15	0.495	0.0015622	2.41e-05
308.15	0.592	0.0015648	2.42e-05
308.15	0.6945	0.001567	2.42e-05
308.15	0.7966	0.001571	2.43e-05
308.15	0.8973	0.001577	2.44e-05
308.15	1	0.0015849	2.45e-05

System: nitrobenzene + cyclohexanone; phases: Liquid
Fixed: Pressure, kPa = 101.3
Property: Speed of sound, m/s (Liquid); method: OTHER:UFactor:4:sMethod:ultrasonic time intervalometer
Temperature, K	Mole fraction of cyclohexanone	Speed of sound, m/s	uncertainty
298.15	0	1648.4	824.2
298.15	0.098	1696	848
298.15	0.1946	1733	866.5
298.15	0.2933	1764.1	882.1
298.15	0.3938	1790	895
298.15	0.495	1811.2	905.6
298.15	0.592	1825.7	912.9
298.15	0.6945	1839.8	919.9
298.15	0.7966	1848.3	924.2
298.15	0.8973	1853.5	926.8
298.15	1	1847.7	923.9
303.15	0	1806	903
303.15	0.098	1842.8	921.4
303.15	0.1946	1873	936.5
303.15	0.2933	1901.5	950.8
303.15	0.3938	1927.7	963.9
303.15	0.495	1945	972.5
303.15	0.592	1957	978.5
303.15	0.6945	1962	981
303.15	0.7966	1963	981.5
303.15	0.8973	1964.1	982.1
303.15	1	1970.1	985.1
308.15	0	1961	980.5
308.15	0.098	1991	995.5
308.15	0.1946	2019.9	1010
308.15	0.2933	2041.5	1021
308.15	0.3938	2058.6	1029
308.15	0.495	2069.7	1035
308.15	0.592	2076.4	1038
308.15	0.6945	2080.5	1040
308.15	0.7966	2080	1040
308.15	0.8973	2081.5	1041
308.15	1	2090	1045

System: nitrobenzene + cyclohexanone; phases: Liquid
Fixed: Pressure, kPa = 101.3
Property: Mass density, kg/m3 (Liquid); method: PYCNOM:UFactor:8
Temperature, K	Mole fraction of cyclohexanone	Mass density, kg/m3	uncertainty
298.15	0	1198.5	2.7
298.15	0.098	1169.6	2.7
298.15	0.1946	1141.8	2.6
298.15	0.2933	1114.5	2.5
298.15	0.3938	1087.5	2.4
298.15	0.495	1061.3	2.4
298.15	0.592	1036.9	2.3
298.15	0.6945	1011.6	2.2
298.15	0.7966	987.5	2.2
298.15	0.8973	963.4	2.1
298.15	1	941	2
303.15	0	1193.6	2.8
303.15	0.098	1167.6	2.7
303.15	0.1946	1140.8	2.7
303.15	0.2933	1113.4	2.6
303.15	0.3938	1085.6	2.5
303.15	0.495	1058.9	2.4
303.15	0.592	1034.5	2.4
303.15	0.6945	1009.6	2.3
303.15	0.7966	985.7	2.3
303.15	0.8973	961.9	2.2
303.15	1	937.4	2.1
308.15	0	1191.1	2.9
308.15	0.098	1166.8	2.8
308.15	0.1946	1140.3	2.7
308.15	0.2933	1112.9	2.7
308.15	0.3938	1084.9	2.6
308.15	0.495	1057.9	2.5
308.15	0.592	1033.4	2.5
308.15	0.6945	1008.6	2.4
308.15	0.7966	985	2.3
308.15	0.8973	961.4	2.3
308.15	1	936.5	2.2

System: cyclohexanone + cyclohexane; phases: Liquid
Fixed: Pressure, kPa = 101.3
Property: Viscosity, Pa*s (Liquid); method: CAPTUB:UFactor:2
Temperature, K	Mole fraction of cyclohexane	Viscosity, Pa*s	uncertainty
298.15	0	0.0020212	3.08e-05
298.15	0.0964	0.0018524	2.84e-05
298.15	0.2003	0.0016823	2.59e-05
298.15	0.2916	0.0015406	2.38e-05
298.15	0.3895	0.0014029	2.18e-05
298.15	0.4895	0.0012749	1.99e-05
298.15	0.5887	0.001163	1.84e-05
298.15	0.6957	0.0010634	1.7e-05
298.15	0.7951	0.0009917	1.61e-05
298.15	0.8969	0.0009386	1.54e-05
298.15	1	0.0008945	1.49e-05
303.15	0	0.0018057	2.77e-05
303.15	0.0964	0.0016614	2.56e-05
303.15	0.2003	0.0015219	2.35e-05
303.15	0.2916	0.0014056	2.18e-05
303.15	0.3895	0.0012941	2.02e-05
303.15	0.4894	0.0011837	1.86e-05
303.15	0.5886	0.0010836	1.73e-05
303.15	0.6957	0.0009925	1.61e-05
303.15	0.7951	0.0009237	1.52e-05
303.15	0.8968	0.0008707	1.46e-05
303.15	1	0.0008284	1.4e-05
308.15	0	0.0015849	2.45e-05
308.15	0.0964	0.0014849	2.3e-05
308.15	0.2003	0.0013842	2.15e-05
308.15	0.2916	0.0012958	2.02e-05
308.15	0.3895	0.0012034	1.89e-05
308.15	0.4894	0.0011122	1.77e-05
308.15	0.5886	0.0010255	1.65e-05
308.15	0.6957	0.0009408	1.54e-05
308.15	0.7951	0.0008704	1.45e-05
308.15	0.8968	0.0008101	1.38e-05
308.15	1	0.0007637	1.32e-05

System: cyclohexanone + cyclohexane; phases: Liquid
Fixed: Pressure, kPa = 101.3
Property: Speed of sound, m/s (Liquid); method: OTHER:UFactor:4:sMethod:ultrasonic time intervalometer
Temperature, K	Mole fraction of cyclohexane	Speed of sound, m/s	uncertainty
298.15	0	1847.7	923.9
298.15	0.0964	1849.5	924.8
298.15	0.2003	1851.9	926
298.15	0.2916	1854.4	927.2
298.15	0.3895	1857	928.5
298.15	0.4895	1859.3	929.7
298.15	0.5887	1861.7	930.9
298.15	0.6957	1864.5	932.3
298.15	0.7951	1867	933.5
298.15	0.8969	1869	934.5
298.15	1	1871	935.5
303.15	0	1970.1	985.1
303.15	0.0964	1972.3	986.2
303.15	0.2003	1974.2	987.1
303.15	0.2916	1976.2	988.1
303.15	0.3895	1978	989
303.15	0.4894	1980.1	990.1
303.15	0.5886	1982.7	991.4
303.15	0.6957	1985.4	992.7
303.15	0.7951	1988.1	994.1
303.15	0.8968	1990.8	995.4
303.15	1	1993	996.5
308.15	0	2090	1045
308.15	0.0964	2090.2	1045
308.15	0.2003	2090.5	1045
308.15	0.2916	2090.7	1045
308.15	0.3895	2090.8	1045
308.15	0.4894	2090.9	1046
308.15	0.5886	2091	1046
308.15	0.6957	2091.2	1046
308.15	0.7951	2091.4	1046
308.15	0.8968	2091.8	1046
308.15	1	2092	1046

System: cyclohexanone + cyclohexane; phases: Liquid
Fixed: Pressure, kPa = 101.3
Property: Mass density, kg/m3 (Liquid); method: PYCNOM:UFactor:8
Temperature, K	Mole fraction of cyclohexane	Mass density, kg/m3	uncertainty
298.15	0	941	2
298.15	0.0964	921.6	2
298.15	0.2003	901.3	1.9
298.15	0.2916	883.8	1.9
298.15	0.3895	866	1.8
298.15	0.4895	848.9	1.8
298.15	0.5887	832.5	1.8
298.15	0.6957	815.4	1.7
298.15	0.7951	800.3	1.7
298.15	0.8969	786.5	1.6
298.15	1	773.9	1.6
303.15	0	937.4	2.1
303.15	0.0964	917.9	2.1
303.15	0.2003	897.6	2
303.15	0.2916	880.2	2
303.15	0.3895	862.8	1.9
303.15	0.4894	845.5	1.9
303.15	0.5886	828.7	1.8
303.15	0.6957	811.6	1.8
303.15	0.7951	796.3	1.7
303.15	0.8968	781.8	1.7
303.15	1	768.6	1.7
308.15	0	936.5	2.2
308.15	0.0964	916.6	2.1
308.15	0.2003	895.7	2.1
308.15	0.2916	878.3	2
308.15	0.3895	860.3	2
308.15	0.4894	842.6	2
308.15	0.5886	825.6	1.9
308.15	0.6957	807.5	1.9
308.15	0.7951	791.3	1.8
308.15	0.8968	775.5	1.8
308.15	1	761.2	1.7
