Measured thermophysical data. Thermochemical and Theoretical Studies of Dimethylpyridine-2,6-dicarboxylate and Pyridine-2,3-, Pyridine-2,5-, and Pyridine-2,6-dicarboxylic Acids
Source: J. Chem. Eng. Data, 2005, 10.1021/je049586l
Compound 1: carbon dioxide, CO2, InChI=1S/CO2/c2-1-3
Compound 2: nitrogen, N2, InChI=1S/N2/c1-2
Compound 3: water, H2O, InChI=1S/H2O/h1H2
Compound 4: oxygen, O2, InChI=1S/O2/c1-2
Compound 5: 2,6-pyridinedicarboxylic acid, dimethyl ester, C9H9NO4, InChI=1S/C9H9NO4/c1-13-8(11)6-4-3-5-7(10-6)9(12)14-2/h3-5H,1-2H3
Compound 6: 2,3-pyridinedicarboxylic acid, C7H5NO4, InChI=1S/C7H5NO4/c9-6(10)4-2-1-3-8-5(4)7(11)12/h1-3H,(H,9,10)(H,11,12)
Compound 7: 2,5-pyridinedicarboxylic acid, C7H5NO4, InChI=1S/C7H5NO4/c9-6(10)4-1-2-5(7(11)12)8-3-4/h1-3H,(H,9,10)(H,11,12)
Compound 8: pyridine-2,6-dicarboxylic acid, C7H5NO4, InChI=1S/C7H5NO4/c9-6(10)4-2-1-3-5(8-4)7(11)12/h1-3H,(H,9,10)(H,11,12)

System: 2,6-pyridinedicarboxylic acid, dimethyl ester; phases: Crystal, Gas
Property: Molar enthalpy of vaporization or sublimation, kJ/mol (Crystal); method: Static calorimetry
Temperature, K	Molar enthalpy of vaporization or sublimation, kJ/mol	uncertainty
385	130	7.6

System: 2,5-pyridinedicarboxylic acid; phases: Crystal, Gas
Property: Molar enthalpy of vaporization or sublimation, kJ/mol (Crystal); method: Static calorimetry
Temperature, K	Molar enthalpy of vaporization or sublimation, kJ/mol	uncertainty
492	194.4	5.4

System: pyridine-2,6-dicarboxylic acid; phases: Crystal, Gas
Property: Molar enthalpy of vaporization or sublimation, kJ/mol (Crystal); method: Static calorimetry
Temperature, K	Molar enthalpy of vaporization or sublimation, kJ/mol	uncertainty
494	168.2	11.4

Reaction: -1 2,6-pyridinedicarboxylic acid, dimethyl ester + 9 carbon dioxide + .5 nitrogen + 4.5 water + -9.25 oxygen
Property: Specific internal energy of reaction at constant volume, J/g
-21278.3

Reaction: -1 2,3-pyridinedicarboxylic acid + 7 carbon dioxide + .5 nitrogen + 2.5 water + -6.25 oxygen
Property: Specific internal energy of reaction at constant volume, J/g
-16389.9

Reaction: -1 2,5-pyridinedicarboxylic acid + 7 carbon dioxide + .5 nitrogen + 2.5 water + -6.25 oxygen
Property: Specific internal energy of reaction at constant volume, J/g
-16323.6

Reaction: -1 pyridine-2,6-dicarboxylic acid + 7 carbon dioxide + .5 nitrogen + 2.5 water + -6.25 oxygen
Property: Specific internal energy of reaction at constant volume, J/g
-16318.2
