Measured thermophysical data. Vapor Pressures and Vaporization Enthalpies of a Series of Ethanolamines
Source: J. Chem. Eng. Data, 2005, 10.1021/je049761y
Compound 1: 2-aminoethan-1-ol, C2H7NO, InChI=1S/C2H7NO/c3-1-2-4/h4H,1-3H2, purity 99.5%
Compound 2: 2-(methylamino)ethanol, C3H9NO, InChI=1S/C3H9NO/c1-4-2-3-5/h4-5H,2-3H2,1H3, purity 99%
Compound 3: 2-(ethylamino)ethanol, C4H11NO, InChI=1S/C4H11NO/c1-2-5-3-4-6/h5-6H,2-4H2,1H3, purity 98%
Compound 4: 2-(N,N-dimethylamino)ethanol, C4H11NO, InChI=1S/C4H11NO/c1-5(2)3-4-6/h6H,3-4H2,1-2H3, purity 99.5%
Compound 5: (diethylamino)ethanol, C6H15NO, InChI=1S/C6H15NO/c1-3-7(4-2)5-6-8/h8H,3-6H2,1-2H3, purity 99.5%

System: 2-aminoethan-1-ol; phases: Liquid, Gas
Property: Vapor or sublimation pressure, kPa (Liquid); method: TRANSPIR:UFactor:2
Temperature, K	Vapor or sublimation pressure, kPa	uncertainty
279	0.00848	0.00087
281.1	0.01055	0.00107
294	0.03221	0.00327
297.2	0.0409	0.00414
300.2	0.05303	0.00536
303.2	0.0633	0.00641
306.3	0.08366	0.00848
309.4	0.1056	0.0107
312.4	0.1337	0.0135
315.4	0.1689	0.017
318.4	0.2027	0.0205
321.4	0.2559	0.0258
324.5	0.3134	0.0316

System: 2-(methylamino)ethanol; phases: Liquid, Gas
Property: Vapor or sublimation pressure, kPa (Liquid); method: TRANSPIR:UFactor:2
Temperature, K	Vapor or sublimation pressure, kPa	uncertainty
274.9	0.01394	0.00143
277.9	0.01889	0.00193
282.1	0.0276	0.0028
285.1	0.03599	0.00365
288.2	0.04663	0.00474
291.1	0.06098	0.00617
291.2	0.06003	0.00608
293.2	0.07077	0.00719
296.3	0.09212	0.00933
299.2	0.11492	0.01162
302.3	0.14404	0.01462
308.4	0.22706	0.0229
311.4	0.27989	0.02828
314.3	0.34676	0.035
317.2	0.4172	0.04211
320.2	0.5146	0.05187

System: 2-(ethylamino)ethanol; phases: Liquid, Gas
Property: Vapor or sublimation pressure, kPa (Liquid); method: TRANSPIR:UFactor:2
Temperature, K	Vapor or sublimation pressure, kPa	uncertainty
282.5	0.01625	0.00167
284.5	0.02009	0.00205
287.3	0.02612	0.00266
290.3	0.03403	0.00345
293.2	0.043	0.00437
296.3	0.05671	0.00577
299.3	0.07586	0.00768
302.3	0.09331	0.00944
305.5	0.12037	0.01205
306.2	0.11862	0.0121
308.5	0.15281	0.01555
309.2	0.16115	0.01629
311.5	0.1884	0.01905
312.2	0.20517	0.02107
315.3	0.24917	0.02511
318.3	0.30021	0.03031
321.3	0.37395	0.03772

System: 2-(N,N-dimethylamino)ethanol; phases: Liquid, Gas
Property: Vapor or sublimation pressure, kPa (Liquid); method: TRANSPIR:UFactor:2
Temperature, K	Vapor or sublimation pressure, kPa	uncertainty
277.9	0.18928	0.01904
278.3	0.19341	0.01935
278.6	0.18698	0.01918
280.2	0.22168	0.02254
280.7	0.22907	0.02298
281.8	0.23735	0.02406
283.2	0.2772	0.02791
284.3	0.27706	0.02811
286.2	0.34379	0.03738
286.5	0.32179	0.03536
289.2	0.41995	0.04236
289.4	0.39674	0.04003
290.6	0.43081	0.04377
292.2	0.50385	0.05084
292.4	0.48171	0.04865
294.1	0.55021	0.05553
295	0.57798	0.05824
295.2	0.61282	0.06165
298	0.68827	0.06922
298.2	0.73649	0.07401
301.1	0.82809	0.0835
301.2	0.88445	0.08909
304.2	1.05643	0.10641
304.2	1.01927	0.10272
307.2	1.26671	0.12766
307.2	1.2434	0.12535
310.2	1.53184	0.15448
313.3	1.8747	0.18877
316.3	2.20722	0.22183

System: (diethylamino)ethanol; phases: Liquid, Gas
Property: Vapor or sublimation pressure, kPa (Liquid); method: TRANSPIR:UFactor:2
Temperature, K	Vapor or sublimation pressure, kPa	uncertainty
278.2	0.05147	0.00516
278.6	0.05086	0.00512
279.8	0.05544	0.00563
281.2	0.06347	0.00642
282.7	0.06973	0.00707
284.2	0.08126	0.0083
285.1	0.09024	0.0091
285.3	0.08681	0.00877
287.3	0.10081	0.0102
288	0.1089	0.01117
288.3	0.11348	0.01175
290.2	0.1274	0.01286
291	0.13738	0.01392
292.3	0.15134	0.0153
293.3	0.16291	0.01648
295.3	0.18811	0.01904
296	0.20413	0.02059
296.3	0.19938	0.02018
296.3	0.19978	0.02021
297.3	0.22133	0.02242
298.2	0.23289	0.02344
299.2	0.24638	0.02493
301.2	0.28873	0.02913
302.2	0.30299	0.03059
302.2	0.30703	0.03099
304.2	0.35091	0.03544
307.2	0.42667	0.04303
310.2	0.51799	0.05225
313.2	0.63221	0.06375
316.3	0.76766	0.07735
318.3	0.87655	0.08833
