Measured thermophysical data. Mutual Diffusion Coefficients of Some Aqueous Alkanolamines Solutions
Source: J. Chem. Eng. Data, 2005, 10.1021/je049828h
Compound 1: 2-(2-hydroxyethyl)piperidine, C7H15NO, InChI=1S/C7H15NO/c9-6-4-7-3-1-2-5-8-7/h7-9H,1-6H2
Compound 2: triethanolamine, C6H15NO3, InChI=1S/C6H15NO3/c8-4-1-7(2-5-9)3-6-10/h8-10H,1-6H2
Compound 3: 2-amino-2-methylpropan-1-ol, C4H11NO, InChI=1S/C4H11NO/c1-4(2,5)3-6/h6H,3,5H2,1-2H3
Compound 4: 2-(2-aminoethoxy)ethanol, C4H11NO2, InChI=1S/C4H11NO2/c5-1-3-7-4-2-6/h6H,1-5H2
Compound 5: methanol, CH4O, InChI=1S/CH4O/c1-2/h2H,1H3
Compound 6: water, H2O, InChI=1S/H2O/h1H2

System: methanol + water; phases: Liquid
Fixed: Temperature, K = 298.15
Fixed: Pressure, kPa = 101.3
Property: Binary diffusion coefficient, m2/s (Liquid); method: Taylor dispersion method
Mole fraction of methanol	Binary diffusion coefficient, m2/s	uncertainty
0	1.556e-09	0.069
0.05	1.347e-09	0.06
0.1	1.237e-09	0.055
0.2	1.096e-09	0.049
0.4	9.81e-10	0.044
0.6	1.195e-09	0.053
0.8	1.613e-09	0.071

System: 2-(2-aminoethoxy)ethanol + water; phases: Liquid
Fixed: Pressure, kPa = 101.3
Fixed: Mole fraction of 2-(2-aminoethoxy)ethanol = 0
Property: Binary diffusion coefficient, m2/s (Liquid); method: Taylor dispersion method
Temperature, K	Binary diffusion coefficient, m2/s	uncertainty
303.15	9.58e-10	0.048
313.15	1.172e-09	0.065
323.15	1.426e-09	0.069
333.15	1.718e-09	0.081
343.15	2.034e-09	0.094

System: 2-(2-aminoethoxy)ethanol + water; phases: Liquid
Fixed: Pressure, kPa = 101.3
Property: Binary diffusion coefficient, m2/s (Liquid); method: Taylor dispersion method
Temperature, K	Amount concentration (molarity), mol/dm3 of 2-(2-aminoethoxy)ethanol	Binary diffusion coefficient, m2/s	uncertainty
303.15	0.5	8.79e-10	0.047
303.15	1	8.06e-10	0.042
303.15	2	7.2e-10	0.039
303.15	3	6.41e-10	0.035
303.15	4	5.58e-10	0.032
313.15	0.5	1.13e-09	0.056
313.15	1	1.011e-09	0.051
313.15	2	9.18e-10	0.047
313.15	3	8.23e-10	0.043
313.15	4	7.33e-10	0.039
323.15	0.5	1.339e-09	0.065
323.15	1	1.265e-09	0.062
323.15	2	1.14e-09	0.056
323.15	3	1.028e-09	0.051
323.15	4	9.39e-10	0.048
333.15	0.5	1.637e-09	0.078
333.15	1	1.527e-09	0.073
333.15	2	1.376e-09	0.066
333.15	3	1.231e-09	0.06
333.15	4	1.152e-09	0.056
343.15	0.5	1.911e-09	0.088
343.15	1	1.825e-09	0.085
343.15	2	1.652e-09	0.078
343.15	3	1.501e-09	0.072
343.15	4	1.389e-09	0.066

System: triethanolamine + water; phases: Liquid
Fixed: Pressure, kPa = 101.3
Fixed: Mole fraction of triethanolamine = 0
Property: Binary diffusion coefficient, m2/s (Liquid); method: Taylor dispersion method
Temperature, K	Binary diffusion coefficient, m2/s	uncertainty
303.15	7.96e-10	0.042
313.15	1e-09	0.05
323.15	1.234e-09	0.06
333.15	1.484e-09	0.07
343.15	1.745e-09	0.081

System: triethanolamine + water; phases: Liquid
Fixed: Pressure, kPa = 101.3
Property: Binary diffusion coefficient, m2/s (Liquid); method: Taylor dispersion method
Temperature, K	Amount concentration (molarity), mol/dm3 of triethanolamine	Binary diffusion coefficient, m2/s	uncertainty
303.15	0.5	6.91e-10	0.037
303.15	1	6.01e-10	0.033
303.15	2	4.47e-10	0.025
303.15	3	3.33e-10	0.023
313.15	0.5	8.73e-10	0.044
313.15	1	7.63e-10	0.039
313.15	2	5.8e-10	0.031
313.15	3	4.74e-10	0.026
323.15	0.5	1.079e-09	0.053
323.15	1	9.44e-10	0.047
323.15	2	7.16e-10	0.037
323.15	3	5.79e-10	0.03
333.15	0.5	1.299e-09	0.062
333.15	1	1.139e-09	0.055
333.15	2	8.84e-10	0.044
333.15	3	7.23e-10	0.036
343.15	0.5	1.542e-09	0.072
343.15	1	1.36e-09	0.065
343.15	2	1.073e-09	0.053
343.15	3	8.59e-10	0.042

System: 2-amino-2-methylpropan-1-ol + water; phases: Liquid
Fixed: Pressure, kPa = 101.3
Fixed: Mole fraction of 2-amino-2-methylpropan-1-ol = 0
Property: Binary diffusion coefficient, m2/s (Liquid); method: Taylor dispersion method
Temperature, K	Binary diffusion coefficient, m2/s	uncertainty
303.15	9.76e-10	0.05
313.15	1.214e-09	0.065
323.15	1.502e-09	0.072
333.15	1.751e-09	0.083
343.15	2.13e-09	0.1

System: 2-amino-2-methylpropan-1-ol + water; phases: Liquid
Fixed: Pressure, kPa = 101.3
Property: Binary diffusion coefficient, m2/s (Liquid); method: Taylor dispersion method
Temperature, K	Amount concentration (molarity), mol/dm3 of 2-amino-2-methylpropan-1-ol	Binary diffusion coefficient, m2/s	uncertainty
303.15	0.5	8.16e-10	0.044
303.15	1	7.17e-10	0.039
303.15	2	5.67e-10	0.032
303.15	3	4.46e-10	0.026
303.15	4	3.42e-10	0.022
313.15	0.5	1.039e-09	0.053
313.15	1	9.2e-10	0.047
313.15	2	7.4e-10	0.039
313.15	3	5.89e-10	0.032
313.15	4	4.67e-10	0.027
323.15	0.5	1.291e-09	0.063
323.15	1	1.149e-09	0.057
323.15	2	9.3e-10	0.047
323.15	3	7.53e-10	0.039
323.15	4	6.11e-10	0.032
333.15	0.5	1.567e-09	0.075
333.15	1	1.398e-09	0.067
333.15	2	1.145e-09	0.056
333.15	3	9.31e-10	0.046
333.15	4	7.58e-10	0.039
343.15	0.5	1.864e-09	0.087
343.15	1	1.68e-09	0.08
343.15	2	1.364e-09	0.065
343.15	3	1.127e-09	0.055
343.15	4	9.48e-10	0.047

System: 2-(2-hydroxyethyl)piperidine + water; phases: Liquid
Fixed: Pressure, kPa = 101.3
Fixed: Mole fraction of 2-(2-hydroxyethyl)piperidine = 0
Property: Binary diffusion coefficient, m2/s (Liquid); method: Taylor dispersion method
Temperature, K	Binary diffusion coefficient, m2/s	uncertainty
303.15	8.26e-10	0.044
313.15	1.047e-09	0.053
323.15	1.289e-09	0.063
333.15	1.568e-09	0.075
343.15	1.843e-09	0.085

System: 2-(2-hydroxyethyl)piperidine + water; phases: Liquid
Fixed: Pressure, kPa = 101.3
Property: Binary diffusion coefficient, m2/s (Liquid); method: Taylor dispersion method
Temperature, K	Amount concentration (molarity), mol/dm3 of 2-(2-hydroxyethyl)piperidine	Binary diffusion coefficient, m2/s	uncertainty
303.15	0.5	5.82e-10	0.033
303.15	1	4.44e-10	0.024
303.15	2	2.43e-10	0.015
303.15	3	1.61e-10	0.013
313.15	0.5	7.53e-10	0.039
313.15	1	5.53e-10	0.031
313.15	2	3.24e-10	0.019
313.15	3	2.17e-10	0.015
323.15	0.5	9.39e-10	0.047
323.15	1	7.51e-10	0.04
323.15	2	4.14e-10	0.024
323.15	3	2.99e-10	0.018
333.15	0.5	1.148e-09	0.056
333.15	1	9.52e-10	0.047
333.15	2	5.59e-10	0.031
333.15	3	3.65e-10	0.02
343.15	0.5	1.381e-09	0.066
343.15	1	1.113e-09	0.053
343.15	2	7.02e-10	0.038
343.15	3	4.48e-10	0.024
