Measured thermophysical data. Vapor-Liquid Equilibrium (VLE) Properties for the Binary Systems Propane (1) + n-Butane (2) and Propane (1) + Isobutane (3)
Source: J. Chem. Eng. Data, 2005, 10.1021/je0496701
Compound 1: propane, C3H8, InChI=1S/C3H8/c1-3-2/h3H2,1-2H3, purity 99.99%
Compound 2: butane, C4H10, InChI=1S/C4H10/c1-3-4-2/h3-4H2,1-2H3, purity 99.99%
Compound 3: 2-methylpropane, C4H10, InChI=1S/C4H10/c1-4(2)3/h4H,1-3H3, purity 99.99%

System: propane + butane; phases: Liquid, Gas
Property: Vapor or sublimation pressure, kPa (Liquid); method: EBULLIO:UFactor:32
Mole fraction of propane	Temperature, K	Vapor or sublimation pressure, kPa	uncertainty
0.1692	310	471.1	14.2
0.1734	280	197.9	7.4
0.1744	270	142.6	6
0.309	300	449.5	13.6
0.3294	290	371.7	11.7
0.3878	300	532.8	15.7
0.4226	270	231.8	8.2
0.4327	280	319.7	10.4
0.4804	300	593.2	17.2
0.5906	280	394.4	12.3
0.5947	290	525.5	15.5
0.6488	300	720.6	20.3
0.6662	270	317	10.3
0.6934	290	586.2	17
0.8039	290	675.1	19.2
0.8702	270	388.2	12.1
0.8704	280	521.8	15.4

System: propane + butane; phases: Gas, Liquid
Property: Mole fraction of propane (Gas); method: CHROM:UFactor:8
Mole fraction of propane	Temperature, K	Mole fraction of propane	uncertainty
0.1692	310	0.355	0.0264
0.1734	280	0.4585	0.0341
0.1744	270	0.4616	0.0343
0.309	300	0.5339	0.0347
0.3294	290	0.6425	0.0266
0.3878	300	0.6703	0.0245
0.4226	270	0.7558	0.0182
0.4327	280	0.7427	0.0191
0.4804	300	0.7433	0.0191
0.5906	280	0.8484	0.0113
0.5947	290	0.836	0.0122
0.6488	300	0.8492	0.0112
0.6662	270	0.8935	0.0079
0.6934	290	0.8848	0.0086
0.8702	270	0.9658	0.0026
0.8704	280	0.9603	0.003

System: propane + 2-methylpropane; phases: Liquid, Gas
Property: Vapor or sublimation pressure, kPa (Liquid); method: EBULLIO:UFactor:16
Mole fraction of propane	Temperature, K	Vapor or sublimation pressure, kPa	uncertainty
0.1834	280	252.3	4.5
0.2169	270	195.1	3.9
0.2383	270	200.1	4
0.2727	320	855.8	11.8
0.2833	300	520.4	7.7
0.3357	270	227.4	4.3
0.341	260	161.2	3.6
0.3441	280	315.5	5.2
0.3665	320	930.9	12.8
0.3947	270	245.5	4.4
0.3989	300	589.8	8.6
0.4249	290	462.7	7
0.4405	280	350.9	5.6
0.477	260	190.6	3.9
0.49	290	499.8	7.4
0.531	300	671.8	9.6
0.5311	270	280.8	4.8
0.5506	320	1103.1	14.9
0.5686	280	398.7	6.2
0.5838	290	546.6	8
0.6035	270	305.2	5.1
0.6078	260	218.1	4.2
0.6131	270	306.5	5.1
0.6369	300	737.8	10.4
0.6407	320	1194.7	16.1
0.6749	280	440.7	6.7
0.7047	270	333.5	5.4
0.75	300	813.3	11.3
0.7655	320	1318.3	17.6
0.7878	270	356.9	6.2
0.7941	270	357.4	5.8
0.803	260	259.6	4.6
0.8095	280	492.5	7.4
0.8186	300	857	11.9
0.838	270	370.8	5.8
0.8776	300	890.4	12.3
0.8778	260	276.3	4.7

System: propane + 2-methylpropane; phases: Gas, Liquid
Property: Mole fraction of propane (Gas); method: CHROM:UFactor:8
Mole fraction of propane	Temperature, K	Mole fraction of propane	uncertainty
0.1834	280	0.3508	0.0261
0.2169	270	0.4431	0.033
0.2383	270	0.4779	0.0355
0.2727	320	0.405	0.0301
0.2833	300	0.4633	0.0345
0.3357	270	0.5957	0.0301
0.341	260	0.6172	0.0285
0.3441	280	0.572	0.0318
0.3665	320	0.512	0.0363
0.3989	300	0.6101	0.029
0.4249	290	0.6484	0.0261
0.4405	280	0.6659	0.0248
0.477	260	0.744	0.019
0.49	290	0.6796	0.0238
0.531	300	0.7252	0.0204
0.5311	270	0.76	0.0179
0.5506	320	0.7102	0.0216
0.5686	280	0.7692	0.0172
0.5838	290	0.7715	0.017
0.6078	260	0.8299	0.0127
0.6131	270	0.8239	0.0131
0.6369	300	0.8027	0.0147
0.6407	320	0.7856	0.016
0.6749	280	0.8295	0.0127
0.7047	270	0.8748	0.0093
0.75	300	0.8732	0.0094
0.7655	320	0.8643	0.0101
0.7878	270	0.9143	0.0064
0.7941	270	0.8974	0.0076
0.803	260	0.9175	0.0061
0.8186	300	0.9091	0.0068
0.838	270	0.9333	0.005
0.8776	300	0.9366	0.0047
0.8778	260	0.9555	0.0033
