Measured thermophysical data. Experimental Investigation of the Influence of NaCl on the Vapor-Liquid Equilibrium of CH3OH + H2O
Source: J. Chem. Eng. Data, 2005, 10.1021/je049783k
Compound 1: methanol, CH4O, InChI=1S/CH4O/c1-2/h2H,1H3, purity 99.8%
Compound 2: water, H2O, InChI=1S/H2O/h1H2
Compound 3: sodium chloride, ClNa, InChI=1S/ClH.Na/h1H;/q;+1/p-1, purity 99.5%

System: methanol + water; phases: Liquid, Gas
Property: Vapor or sublimation pressure, kPa (Liquid); method: Closed cell (Static) method
Temperature, K	Mole fraction of methanol	Vapor or sublimation pressure, kPa	uncertainty
314.1	0.216	18	0.65
314.6	0.466	25	0.62
315.8	0.0762	13	0.92
316.4	0.0368	10	1.38
352.8	0.247	97.72	1.95
352.9	0.493	126.4	6.1
353.1	0.0317	58.54	8.2
353.2	0.078	70.66	1.17
393.9	0.0357	250.2	12
394.3	0.492	485.6	6
396.4	0.096	313.2	11.4
396.8	0.191	390.6	6.6

System: methanol + sodium chloride + water; phases: Liquid, Gas
Property: Vapor or sublimation pressure, kPa (Liquid); method: Closed cell (Static) method
Temperature, K	Solvent: Mole fraction of methanol	Molality, mol/kg of sodium chloride	Vapor or sublimation pressure, kPa	uncertainty
313	0.207	2.21	18	1.05
313.3	0.213	1.65	18	0.99
313.6	0.221	0.536	18	0.54
313.6	0.223	1.07	18	0.65
314.1	0.216	0	18	0.65
314.3	0.463	0.577	25	0.61
314.3	0.463	0.775	25	0.61
314.3	0.47	0.389	25	0.61
314.4	0.466	0.195	25	0.62
314.5	0.0763	4.35	13	1.34
314.6	0.466	0	25	0.62
314.7	0.0857	3.26	13	1.22
314.8	0.0784	2.16	13	0.94
315.3	0.0312	5.38	10	4.09
315.3	0.0314	1.42	10	1.19
315.3	0.0776	1.1	13	0.73
315.5	0.0325	2.78	10	0.91
315.6	0.0324	4.14	10	1.33
315.8	0.0762	0	13	0.92
316.4	0.0368	0	10	1.38
352.3	0.0328	2.21	55.54	3.89
352.5	0.217	2.3	102	15.3
352.5	0.224	1.73	98.32	13.31
352.6	0.0849	0.455	70.36	1.74
352.6	0.237	0.597	97.72	1.74
352.7	0.0404	1.13	58.24	1.14
352.7	0.246	1.2	98.52	1.58
352.8	0.247	0	97.72	1.95
352.8	0.488	0.394	126.3	3
352.8	0.527	0.597	126.3	1.8
352.9	0.493	0	126.4	6.1
352.9	0.509	0.203	126.3	1.8
352.9	0.512	0.778	127.2	2.3
353.1	0.0317	0	58.54	8.2
353.1	0.0892	1.67	71.06	3.43
353.2	0.078	0	70.66	1.17
353.9	0.0282	5.01	55.94	7.85
353.9	0.0395	0.552	60.94	3.41
353.9	0.0906	2.21	73.87	3.18
354.3	0.085	3.31	74.47	7.4
393.9	0.0357	0	250.2	12
394.3	0.492	0	485.6	6
395	0.235	1.74	402.3	10.2
395	0.492	0.199	498.4	3.3
395	0.517	0.59	498.4	5.8
395	0.52	0.799	498.5	6
395	0.535	0.392	498.3	2.5
395.1	0.273	1.1	402.2	6.8
395.2	0.219	2.26	404.5	10.3
395.2	0.261	0.865	404	6.7
395.9	0.0929	0.792	310.9	8.3
396.2	0.0347	2.76	252.8	11.7
396.2	0.0384	1.39	262.7	10.7
396.3	0.0323	4.84	245.6	16.5
396.4	0.096	0	313.2	11.4
396.5	0.0936	1.81	314.9	9.5
396.6	0.0339	4.1	250	16.4
396.8	0.191	0	390.6	6.6
396.9	0.0861	4.41	312	16.6
396.9	0.087	3.28	316.8	15

System: methanol + sodium chloride + water; phases: Gas, Liquid
Property: Mole fraction of methanol (Gas); method: Chromatography
Temperature, K	Solvent: Mole fraction of methanol	Molality, mol/kg of sodium chloride	Mole fraction of methanol	uncertainty
313	0.207	2.21	0.703	0.029
313.3	0.213	1.65	0.695	0.037
313.6	0.221	0.536	0.657	0.017
313.6	0.223	1.07	0.674	0.02
314.1	0.216	0	0.631	0.02
314.3	0.463	0.577	0.809	0.017
314.3	0.463	0.775	0.816	0.017
314.3	0.47	0.389	0.815	0.017
314.4	0.466	0.195	0.807	0.017
314.5	0.0763	4.35	0.539	0.068
314.6	0.466	0	0.799	0.017
314.7	0.0857	3.26	0.506	0.062
314.8	0.0784	2.16	0.469	0.03
315.3	0.0312	5.38	0.352	0.07
315.3	0.0314	1.42	0.236	0.063
315.3	0.0776	1.1	0.425	0.028
315.5	0.0325	2.78	0.278	0.038
315.6	0.0324	4.14	0.319	0.07
315.8	0.0762	0	0.383	0.034
316.4	0.0368	0	0.212	0.063
352.3	0.0328	2.21	0.275	0.042
352.5	0.217	2.3	0.651	0.029
352.5	0.224	1.73	0.647	0.028
352.6	0.0849	0.455	0.395	0.029
352.6	0.237	0.597	0.642	0.019
352.7	0.0404	1.13	0.256	0.032
352.7	0.246	1.2	0.669	0.017
352.8	0.247	0	0.617	0.019
352.8	0.488	0.394	0.76	0.016
352.8	0.527	0.597	0.772	0.014
352.9	0.493	0	0.767	0.017
352.9	0.509	0.203	0.76	0.015
352.9	0.512	0.778	0.786	0.016
353.1	0.0317	0	0.222	0.053
353.1	0.0892	1.67	0.429	0.027
353.2	0.078	0	0.376	0.028
353.9	0.0282	5.01	0.328	0.054
353.9	0.0395	0.552	0.246	0.049
353.9	0.0906	2.21	0.434	0.03
354.3	0.085	3.31	0.473	0.028
393.9	0.0357	0	0.217	0.034
394.3	0.492	0	0.728	0.017
395	0.235	1.74	0.644	0.029
395	0.492	0.199	0.738	0.015
395	0.517	0.59	0.74	0.015
395	0.52	0.799	0.742	0.015
395	0.535	0.392	0.73	0.015
395.1	0.273	1.1	0.651	0.024
395.2	0.219	2.26	0.617	0.029
395.2	0.261	0.865	0.647	0.022
395.9	0.0929	0.792	0.379	0.027
396.2	0.0347	2.76	0.204	0.032
396.2	0.0384	1.39	0.242	0.033
396.3	0.0323	4.84	0.299	0.052
396.4	0.096	0	0.351	0.03
396.5	0.0936	1.81	0.385	0.028
396.6	0.0339	4.1	0.293	0.054
396.8	0.191	0	0.512	0.019
396.9	0.0861	4.41	0.483	0.051
396.9	0.087	3.28	0.445	0.057
