Measured thermophysical data. Heat Capacities and Derived Thermodynamic Functions of 1-Propanol between 10 K and 350 K and of 1-Pentanol between 85 K and 370 K
Source: J. Chem. Eng. Data, 2004, 10.1021/je0499768
Compound 1: propan-1-ol, C3H8O, InChI=1S/C3H8O/c1-2-3-4/h4H,2-3H2,1H3, purity 99.9%
Compound 2: pentan-1-ol, C5H12O, InChI=1S/C5H12O/c1-2-3-4-5-6/h6H,2-5H2,1H3, purity 99.8%

System: propan-1-ol; phases: Crystal, Liquid, Gas
Property: Molar enthalpy of transition or fusion, kJ/mol (Crystal); method: ADIACA:UFactor:2
Molar enthalpy of transition or fusion, kJ/mol	uncertainty
5.4	0.022

System: propan-1-ol; phases: Crystal, Liquid, Gas
Property: Triple point temperature, K (Crystal); method: ADIACA:UFactor:2
Triple point temperature, K	uncertainty
148.71	0.08

System: propan-1-ol; phases: Crystal
Fixed: Pressure, kPa = 101.325
Property: Molar heat capacity at constant pressure, J/K/mol (Crystal); method: VADIAC:UFactor:2
Temperature, K	Molar heat capacity at constant pressure, J/K/mol	uncertainty
5.01	0.17	0.02
5.41	0.22	0.02
6.14	0.29	0.03
6.36	0.35	0.03
7.33	0.52	0.03
7.72	0.61	0.03
8.72	0.9	0.04
8.94	0.94	0.04
10.13	1.44	0.04
10.33	1.49	0.04
11.74	2.19	0.05
11.83	2.23	0.05
13.48	3.15	0.07
13.5	3.19	0.07
15.36	4.38	0.08
15.38	4.4	0.08
17.37	5.81	0.09
17.42	5.83	0.09
19.52	7.46	0.11
19.6	7.53	0.11
21.78	9.32	0.12
21.9	9.44	0.12
24.15	11.43	0.13
24.29	11.57	0.13
26.63	13.58	0.13
26.79	13.71	0.13
29.24	15.59	0.13
29.43	15.75	0.13
32.1	18.09	0.15
34.44	20.16	0.16
36.72	21.88	0.17
39.11	23.5	0.17
41.56	25.36	0.18
44.03	27.19	0.19
46.52	28.98	0.2
49.05	30.75	0.2
51.61	32.44	0.21
54.2	34.01	0.22
56.81	35.59	0.22
59.46	37.12	0.23
62.13	38.64	0.23
64.82	40.12	0.24
67.54	41.54	0.25
70.28	42.95	0.25
73.03	44.31	0.26
75.8	45.65	0.26
78.58	46.95	0.27
81.38	48.22	0.27
84.17	49.46	0.28
86.9	50.65	0.28
89.55	51.79	0.29
92.15	52.87	0.51
94.68	53.91	0.51
97.15	54.9	0.51
98.26	55.24	0.51
99.58	55.88	0.51
101.41	56.44	0.51
104.32	57.81	0.52
107.19	59.01	0.52
110.07	60.14	0.52
112.95	61.2	0.52
115.84	62.28	0.52
118.73	63.39	0.53
121.63	64.43	0.53
124.53	65.69	0.53
127.43	66.87	0.53
130.34	68.07	0.54
133.25	69.29	0.54
136.16	70.53	0.54
139.06	71.9	0.54
141.97	73.6	0.55
144.84	79.58	0.56

System: propan-1-ol; phases: Liquid
Fixed: Pressure, kPa = 101.325
Property: Molar heat capacity at constant pressure, J/K/mol (Liquid); method: VADIAC:UFactor:2
Temperature, K	Molar heat capacity at constant pressure, J/K/mol	uncertainty
153	106.26	0.61
155.75	106.33	0.61
158.49	106.55	0.61
161.22	106.79	0.61
163.93	107.01	0.61
166.64	107.32	0.61
169.34	107.61	0.62
172.03	107.88	0.62
174.71	108.22	0.62
177.37	108.49	0.62
180.03	108.81	0.62
182.68	109.05	0.62
185.32	109.37	0.62
187.95	109.64	0.62
190.57	109.94	0.62
193.19	110.41	0.62
195.79	110.64	0.62
198.38	110.93	0.62
200.97	111.4	0.62
203.35	111.76	0.62
205.56	112.13	0.62
208.15	112.54	0.63
211.11	113.05	0.63
214.08	113.58	0.63
217.04	114.16	0.63
219.99	114.78	0.63
222.92	115.39	0.63
225.84	116.05	0.63
228.74	116.74	0.63
231.64	117.43	0.63
234.52	118.2	0.64
237.38	118.92	0.64
240.23	119.7	0.64
243.07	120.56	0.64
245.89	121.39	0.64
248.7	122.27	0.64
251.5	123.2	0.65
254.28	123.87	0.65
257.05	124.8	0.65
259.81	125.83	0.65
262.55	126.88	0.65
265.28	127.98	0.66
267.99	129.08	0.66
270.68	130.22	0.66
273.36	131.39	0.66
276.02	132.62	0.67
278.67	133.86	0.67
281.3	135.13	0.67
283.91	136.42	0.67
286.51	137.76	0.68
289.09	139.17	0.68
291.66	140.59	0.68
294.2	141.98	0.68
296.74	143.51	0.69
299.25	144.96	0.69
301.34	146.08	0.69
303.15	147.29	0.69
305.04	148.45	0.7
306.99	149.78	0.7
308.94	151.07	0.7
310.9	152.24	0.7
312.85	153.55	0.71
314.81	155.12	0.71
316.76	156.37	0.71
318.71	157.72	0.72
320.67	159.16	0.72
322.62	160.63	0.72
324.58	162.08	0.72
326.53	163.47	0.73
328.49	165.03	0.73
330.44	166.52	0.73
332.4	168.01	0.74
334.35	169.52	0.74
336.31	171.04	0.74
338.26	172.66	0.75
340.22	174.2	0.75
342.17	175.61	0.75
344.13	177.2	0.75
346.1	178.27	0.76
348.07	180.29	0.76
350.04	181.83	0.76

System: propan-1-ol; phases: Glass, Gas
Property: Molar heat capacity at saturation pressure, J/K/mol (Glass); method: VADIAC:UFactor:2
Temperature, K	Molar heat capacity at saturation pressure, J/K/mol	uncertainty
84.71	55.24	0.3
86.52	56.57	0.31
89.38	58.64	0.32
92.19	61.1	0.52
94.96	66.41	0.53

System: propan-1-ol; phases: Crystal
Fixed: Pressure, kPa = 101.325
Property: Molar enthalpy, kJ/mol (Crystal); method: VADIAC:UFactor:2
Temperature, K	Molar enthalpy, kJ/mol	uncertainty
10	0.00345	0.00027
20	0.04683	0.00094
30	0.1687	0.0031
40	0.3722	0.0047
50	0.6508	0.0066
60	0.9956	0.0088
70	1.397	0.011
80	1.85	0.014
90	2.348	0.041
100	2.888	0.046
110	3.468	0.051
120	4.088	0.056
130	4.747	0.062
140	5.447	0.067
148.72	6.028	0.072

System: propan-1-ol; phases: Liquid
Fixed: Pressure, kPa = 101.325
Property: Molar enthalpy, kJ/mol (Liquid); method: VADIAC:UFactor:2
Temperature, K	Molar enthalpy, kJ/mol	uncertainty
148.72	11.428	0.082
150	11.564	0.083
160	12.692	0.089
170	13.763	0.096
180	14.845	0.102
190	15.939	0.108
200	17.044	0.114
210	18.165	0.12
220	19.302	0.127
230	20.461	0.133
240	21.644	0.139
250	22.856	0.146
260	24.098	0.152
270	25.377	0.159
280	26.698	0.165
290	28.068	0.172
298.15	29.225	0.178
300	29.493	0.179
310	30.978	0.186
320	32.529	0.193
330	34.152	0.2
340	35.851	0.208
350	37.628	0.215

System: propan-1-ol; phases: Crystal
Fixed: Pressure, kPa = 101.325
Property: Molar entropy, J/K/mol (Crystal); method: VADIAC:UFactor:2
Temperature, K	Molar entropy, J/K/mol	uncertainty
10	0.46	0.04
20	3.2	0.08
30	8.02	0.17
40	13.82	0.2
50	20.01	0.24
60	26.27	0.28
70	32.46	0.32
80	38.49	0.35
90	44.35	0.73
100	50.04	0.75
110	55.57	0.77
120	60.96	0.78
130	66.23	0.8
140	71.42	0.81
148.72	75.51	0.83

System: propan-1-ol; phases: Liquid
Fixed: Pressure, kPa = 101.325
Property: Molar entropy, J/K/mol (Liquid); method: Vacuum adiabatic calorimetry
Temperature, K	Molar entropy, J/K/mol	uncertainty
148.72	111.82	0.47
150	112.73	0.47
160	120.02	0.48
170	126.52	0.49
180	132.7	0.5
190	138.61	0.51
200	144.28	0.52
210	149.75	0.52
220	155.04	0.53
230	160.19	0.54
240	165.23	0.55
250	170.17	0.56
260	175.04	0.56
270	179.87	0.57
280	184.68	0.58
290	189.48	0.58
298.15	193.42	0.59
300	194.31	0.59
310	199.17	0.6
320	204.1	0.61
330	209.09	0.61
340	214.18	0.62
350	219.32	0.63

System: pentan-1-ol; phases: Crystal, Liquid, Gas
Property: Molar enthalpy of transition or fusion, kJ/mol (Crystal); method: ADIACA:UFactor:2
Molar enthalpy of transition or fusion, kJ/mol	uncertainty
10.5105	0.0277

System: pentan-1-ol; phases: Crystal, Liquid, Gas
Property: Triple point temperature, K (Crystal); method: ADIACA:UFactor:2
Triple point temperature, K	uncertainty
195.6	0.2

System: pentan-1-ol; phases: Liquid, Gas
Property: Molar heat capacity at saturation pressure, J/K/mol (Liquid); method: VADIAC:UFactor:2
Temperature, K	Molar heat capacity at saturation pressure, J/K/mol	uncertainty
198.65	163.65	0.73
199.38	163.9	0.73
200.99	163.99	0.73
201.72	164.4	0.73
203.32	164.43	0.73
204.05	164.85	0.73
205.65	164.91	0.73
206.37	165.31	0.73
207.96	165.4	0.73
208.68	165.79	0.73
210.27	165.93	0.73
210.99	166.35	0.73
212.58	166.46	0.73
213.29	166.86	0.73
214.87	167.08	0.73
215.58	167.46	0.73
217.16	167.65	0.74
217.86	168.06	0.74
219.44	168.24	0.74
220.14	168.68	0.74
221.71	168.88	0.74
222.41	169.28	0.74
223.98	169.49	0.74
224.67	169.98	0.74
226.24	170.19	0.74
226.92	170.74	0.74
228.49	170.97	0.74
229.17	171.45	0.74
230.73	171.69	0.74
231.4	172.08	0.74
232.96	172.37	0.74
233.63	172.91	0.75
235.19	173.18	0.75
235.85	173.67	0.75
237.41	174	0.75
238.06	174.45	0.75
239.61	174.8	0.75
240.27	175.24	0.75
241.81	175.57	0.75
242.46	176.08	0.75
244	176.53	0.75
244.65	177.02	0.75
246.19	177.41	0.75
246.83	177.9	0.76
248.36	178.37	0.76
249	178.81	0.76
250.53	179.33	0.76
251.16	179.81	0.76
252.69	180.35	0.76
253.31	180.73	0.76
254.84	180.78	0.76
255.46	181.29	0.76
256.98	181.89	0.76
257.6	182.33	0.76
259.12	182.97	0.77
259.72	183.42	0.77
261.25	184.11	0.77
261.84	184.56	0.77
263.36	185.17	0.77
263.95	185.84	0.77
265.47	186.38	0.77
266.05	186.93	0.77
267.57	187.55	0.78
268.14	188.12	0.78
269.66	188.85	0.78
270.23	189.24	0.78
271.74	190.03	0.78
272.3	190.52	0.78
273.81	190.93	0.78
274.36	191.79	0.78
275.87	192.5	0.79
276.41	193.06	0.79
277.92	193.85	0.79
278.46	194.4	0.79
279.97	195.18	0.79
280.49	195.74	0.79
282	196.61	0.79
282.51	197.04	0.79
284.02	197.96	0.8
284.53	198.45	0.8
286.03	199.37	0.8
286.53	199.91	0.8
288.04	200.78	0.8
288.52	201.35	0.8
290.03	202.3	0.8
290.5	202.81	0.81
292.01	203.82	0.81
292.48	204.11	0.81
293.99	205.24	0.81
294.44	205.79	0.81
295.95	206.87	0.81
296.39	207.42	0.82
297.91	208.52	0.82
298.34	208.88	0.82
299.85	210.01	0.82
300.27	210.28	0.82
300.3	209.4	0.82
300.6	209.89	0.82
300.81	210.54	0.82
301.09	210.46	0.82
301.72	211.03	0.82
302.2	211.81	0.82
303.67	212.74	0.83
304.12	213.39	0.83
305.6	214.44	0.83
306.03	215.06	0.83
307.52	216.02	0.83
307.94	216.66	0.83
309.43	217.84	0.84
309.83	218.39	0.84
311.32	219.47	0.84
311.72	219.98	0.84
313.21	221.03	0.84
313.59	221.54	0.84
315.09	222.83	0.85
315.46	223.3	0.85
316.96	224.55	0.85
317.31	224.93	0.85
318.82	226.26	0.85
319.16	226.53	0.85
320.67	228	0.86
320.99	228.31	0.86
322.52	229.67	0.86
322.82	229.96	0.86
324.36	231.42	0.86
324.65	231.73	0.86
326.19	233.09	0.87
326.46	233.41	0.87
328.01	234.81	0.87
328.27	235	0.87
329.82	236.6	0.87
330.07	236.82	0.87
331.62	238.27	0.88
331.85	238.73	0.88
333.42	239.94	0.88
333.63	240.3	0.88
335.2	241.58	0.88
335.4	241.97	0.88
336.98	243.24	0.89
337.16	243.65	0.89
338.75	244.92	0.89
338.92	245.3	0.89
340.51	246.6	0.89
340.66	246.9	0.89
342.27	248.02	0.9
342.4	248.57	0.9
344.02	249.71	0.9
344.13	250.3	0.9
345.76	251.26	0.9
345.85	252.05	0.9
347.5	252.83	0.91
347.57	253.58	0.91
349.23	254.25	0.91
349.27	255.13	0.91
350.95	255.52	0.91
350.97	256.62	0.91
352.66	258.17	0.92
352.67	256.89	0.91
354.35	259.96	0.92
354.38	259.82	0.92
356.02	261.44	0.92
356.07	261.38	0.92
357.7	262.72	0.93
357.76	262.85	0.93
359.36	264.29	0.93
359.43	264.36	0.93
361.02	265.62	0.93
361.1	265.85	0.93
362.67	266.89	0.93
362.77	267.17	0.93
364.32	268.43	0.94
364.43	268.78	0.94
365.96	269.86	0.94
366.08	270.13	0.94
367.59	270.92	0.94
367.73	271.33	0.94
369.23	271.93	0.94
369.37	272.76	0.95
370.86	272.95	0.95
371.01	274.05	0.95
372.64	275.14	0.95
374.27	276.38	0.95
375.89	277.43	0.95
377.52	278.66	0.96
379.14	279.32	0.96
380.76	280.36	0.96

System: pentan-1-ol; phases: Crystal, Gas
Property: Molar heat capacity at saturation pressure, J/K/mol (Crystal); method: VADIAC:UFactor:2
Temperature, K	Molar heat capacity at saturation pressure, J/K/mol	uncertainty
84.35	65.89	0.34
85.06	66.25	0.35
86.86	67.27	0.35
89.74	68.87	0.36
92.58	70.39	0.54
94.72	71.43	0.54
95.39	71.74	0.54
95.42	71.88	0.54
97.19	72.64	0.55
98.27	73.33	0.55
100.1	74.14	0.55
101.12	74.67	0.55
102.99	75.73	0.55
103.99	76.36	0.55
105.87	77.16	0.55
106.86	77.84	0.56
108.76	78.64	0.56
109.74	79.23	0.56
111.65	79.96	0.56
112.62	80.53	0.56
114.54	81.27	0.56
115.51	81.81	0.56
117.45	82.55	0.57
118.41	83.11	0.57
120.35	83.59	0.57
121.31	84.26	0.57
123.26	85.21	0.57
124.22	85.78	0.57
126.17	86.52	0.57
127.13	87.05	0.57
129.09	87.81	0.58
130.04	88.35	0.58
132	89.11	0.58
132.96	89.63	0.58
134.92	90.35	0.58
135.88	90.9	0.58
137.85	91.65	0.58
138.8	92.19	0.58
140.77	92.89	0.59
141.73	93.48	0.59
143.7	94.19	0.59
144.65	94.77	0.59
146.63	95.55	0.59
147.58	96.12	0.59
149.56	96.87	0.59
150.51	97.45	0.59
152.49	98.21	0.6
153.44	98.8	0.6
155.42	99.58	0.6
156.38	100.2	0.6
158.36	101.02	0.6
159.31	101.61	0.6
161.29	102.48	0.61
162.24	103.05	0.61
164.23	103.98	0.61
165.18	104.56	0.61
167.16	105.55	0.61
168.11	106.11	0.61
170.08	107.17	0.61
171.04	107.72	0.62
173.01	108.87	0.62
173.97	109.43	0.62
175.94	110.7	0.62
176.89	111.3	0.62
178.85	112.7	0.63
179.8	113.33	0.63
181.73	115.01	0.63
182.67	115.64	0.63
184.57	118.07	0.64
185.5	118.77	0.64
187.36	123.84	0.65
188.28	124.56	0.65
