Measured thermophysical data. Viscosity of the Aqueous Ca(NO3)2 Solutions at Temperatures from 298 to 573 K and at Pressures up to 40 MPa
Source: J. Chem. Eng. Data, 2004, 10.1021/je049853n
Compound 1: calcium nitrate, CaN2O6, InChI=1S/Ca.2NO3/c;2*2-1(3)4/q+2;2*-1
Compound 2: water, H2O, InChI=1S/H2O/h1H2

System: water + calcium nitrate; phases: Liquid
Property: Viscosity, Pa*s (Liquid); method: Capillary tube (Ostwald; Ubbelohde) method
Pressure, kPa	Temperature, K	Molality, mol/kg of calcium nitrate	Viscosity, Pa*s	uncertainty
100	298.15	0.321	0.000963	3e-05
100	298.15	0.6771	0.001051	3.3e-05
100	298.15	1.523	0.001384	4.3e-05
100	298.15	2.612	0.001954	6.1e-05
100	298.15	4.062	0.003256	0.000102
100	323.15	0.321	0.000599	1.9e-05
100	323.15	0.6771	0.00066	2.1e-05
100	323.15	1.523	0.000852	2.7e-05
100	323.15	2.612	0.001204	3.8e-05
100	323.15	4.062	0.001928	6e-05
100	348.15	0.321	0.000419	1.3e-05
100	348.15	0.6771	0.000466	1.5e-05
100	348.15	1.523	0.000596	1.9e-05
100	348.15	2.612	0.000837	2.6e-05
100	348.15	4.062	0.001297	4.1e-05
100	358.15	0.321	0.000371	1.2e-05
100	358.15	0.6771	0.000415	1.3e-05
100	358.15	1.523	0.00053	1.7e-05
100	358.15	2.612	0.000741	2.3e-05
100	358.15	4.062	0.001134	3.6e-05
100	368.15	0.321	0.000334	1e-05
100	368.15	0.6771	0.000374	1.2e-05
100	368.15	1.523	0.00048	1.5e-05
100	368.15	2.612	0.000664	2.1e-05
100	368.15	4.062	0.001006	3.2e-05
100	373.15	0.321	0.000314	1e-05
100	373.15	0.6771	0.00034	1.1e-05
100	373.15	1.523	0.00045	1.4e-05
100	373.15	2.612	0.000622	1.9e-05
100	373.15	4.062	0.000937	2.9e-05
5000	298.2	1.5232	0.0013835	4.3e-05
5000	298.8	2.031	0.0016075	5e-05
5000	299.2	0.3207	0.000962	2.98e-05
5000	299.2	3.2815	0.0025163	7.85e-05
5000	299.7	2.6118	0.001907	5.94e-05
5000	299.8	0.6771	0.00103	3.19e-05
5000	303.7	4.0628	0.0029479	9.21e-05
5000	308.6	0.3207	0.0008153	2.53e-05
5000	308.7	2.031	0.001347	4.19e-05
5000	309.21	2.6118	0.0016028	4.99e-05
5000	310.41	1.5232	0.0011071	3.44e-05
5000	312.41	0.6771	0.0008162	2.53e-05
5000	312.7	4.0628	0.0024341	7.61e-05
5000	314.3	3.2815	0.0018626	5.81e-05
5000	321.7	1.5232	0.0008769	2.73e-05
5000	322.41	0.3207	0.000614	1.91e-05
5000	324.5	0.6771	0.0006429	2e-05
5000	324.51	2.031	0.000982	3.06e-05
5000	325.49	2.6118	0.0011546	3.6e-05
5000	327.6	3.2815	0.0014219	4.44e-05
5000	328.38	4.0628	0.0017443	5.45e-05
5000	335.41	1.5232	0.0007034	2.19e-05
5000	338.73	0.6771	0.0005229	1.63e-05
5000	339.52	3.2815	0.0011828	3.7e-05
5000	340.8	0.3207	0.0004661	1.45e-05
5000	342.22	2.031	0.00076	2.37e-05
5000	344.7	2.6118	0.0008763	2.74e-05
5000	352.42	4.0628	0.0012148	3.8e-05
5000	354.19	0.6771	0.0004308	1.34e-05
5000	357.62	0.3207	0.0003761	1.17e-05
5000	357.62	1.5232	0.0005316	1.66e-05
5000	358.41	3.2815	0.000913	2.86e-05
5000	361.8	2.031	0.000595	1.86e-05
5000	369.32	2.6118	0.0006501	2.03e-05
5000	371.71	4.0628	0.0009653	3.02e-05
5000	373.2	1.5232	0.0004523	1.41e-05
5000	373.78	0.6771	0.0003492	1.09e-05
5000	375.81	0.3207	0.0003088	9.7e-06
5000	376.2	3.2815	0.0007465	2.34e-05
5000	377.79	2.031	0.0005015	1.57e-05
5000	383.38	2.6118	0.0004612	1.45e-05
5000	387.53	4.0628	0.0008038	2.52e-05
5000	394.5	2.031	0.0004312	1.35e-05
5000	395.23	1.5232	0.0003703	1.16e-05
5000	396.4	0.3207	0.0002562	8e-06
5000	398.72	3.2815	0.0005987	1.88e-05
5000	399.27	0.6771	0.0002794	8.8e-06
5000	400.09	2.6118	0.0004851	1.52e-05
5000	403.2	4.0628	0.0006919	2.17e-05
5000	416.8	2.031	0.0003615	1.14e-05
5000	418.2	0.3207	0.0002169	6.8e-06
5000	420.42	3.2815	0.0005	1.57e-05
5000	420.69	1.5232	0.0003062	9.6e-06
5000	423.5	0.6771	0.000232	7.3e-06
5000	423.7	2.6118	0.0004037	1.27e-05
5000	427.12	4.0628	0.0005623	1.77e-05
5000	432.52	2.031	0.000323	1.02e-05
5000	437.43	0.3207	0.0001883	6e-06
5000	441.32	1.5232	0.0002649	8.4e-06
5000	442.13	3.2815	0.0004242	1.33e-05
5000	443.8	4.0628	0.0004992	1.57e-05
5000	444.81	2.6118	0.0003483	1.1e-05
5000	446.79	0.6771	0.000199	6.3e-06
5000	459.8	2.031	0.0002703	8.5e-06
5000	461.51	3.2815	0.0003732	1.18e-05
5000	461.81	0.3207	0.0001609	5.1e-06
5000	463.48	0.6771	0.0001801	5.7e-06
5000	464.49	1.5232	0.0002319	7.3e-06
5000	467.23	4.0628	0.0004238	1.34e-05
5000	469.52	2.6118	0.0003007	9.5e-06
5000	480.23	0.3207	0.0001469	4.7e-06
5000	480.4	4.0628	0.0003939	1.24e-05
5000	481.31	3.2815	0.0003321	1.05e-05
5000	481.4	2.031	0.0002411	7.6e-06
5000	481.7	1.5232	0.0002124	6.7e-06
5000	482.72	0.6771	0.0001631	5.2e-06
5000	484.28	2.6118	0.0002786	8.8e-06
5000	502.73	3.2815	0.000304	9.6e-06
5000	503.74	0.3207	0.000132	4.2e-06
5000	504.23	2.031	0.0002198	7e-06
5000	504.92	1.5232	0.000192	6.1e-06
5000	505.8	0.6771	0.0001471	4.7e-06
5000	507.24	4.0628	0.0003439	1.09e-05
5000	519.48	2.6118	0.0002398	7.6e-06
5000	524.51	3.2815	0.0002756	8.7e-06
5000	524.82	0.3207	0.0001215	3.9e-06
5000	525.34	1.5232	0.0001773	5.7e-06
5000	526.83	2.031	0.000204	7.6e-06
5000	527.31	0.6771	0.0001363	4.4e-06
5000	530.28	4.0628	0.0003126	9.9e-06
5000	541.71	2.6118	0.0002184	6.9e-06
5000	546.54	0.3207	0.0001093	3.6e-06
5000	547.35	2.031	0.0001843	5.9e-06
5000	552.13	0.6771	0.0001227	4e-06
5000	556.21	3.2815	0.00024	7.6e-06
5000	562.72	0.3207	0.0001021	3.3e-06
5000	569.33	2.6118	0.0001939	6.2e-06
5000	570.7	1.5232	0.0001488	4.8e-06
5000	571.31	0.6771	0.0001127	3.7e-06
5000	572.31	4.0628	0.0002582	8.2e-06
5000	572.8	3.2815	0.0002255	7.2e-06
5000	574.23	2.031	0.0001711	5.5e-06
10000	298.2	1.5232	0.0013836	4.3e-05
10000	298.8	2.031	0.001608	5e-05
10000	299.2	0.3207	0.000963	2.98e-05
10000	299.2	3.2815	0.002517	7.85e-05
10000	299.7	2.6118	0.0019072	5.94e-05
10000	299.8	0.6771	0.0010303	3.2e-05
10000	303.7	4.0628	0.002949	9.21e-05
10000	308.6	0.3207	0.000816	2.53e-05
10000	308.7	2.031	0.0013475	4.19e-05
10000	309.21	2.6118	0.0016035	5e-05
10000	310.41	1.5232	0.0011083	3.45e-05
10000	312.41	0.6771	0.000817	2.54e-05
10000	312.7	4.0628	0.002436	7.61e-05
10000	314.3	3.2815	0.001865	5.82e-05
10000	321.7	1.5232	0.0008785	2.73e-05
10000	322.41	0.3207	0.000615	1.91e-05
10000	324.5	0.6771	0.0006454	2.01e-05
10000	324.51	2.031	0.000983	3.06e-05
10000	325.49	2.6118	0.001156	3.61e-05
10000	327.6	3.2815	0.001424	4.45e-05
10000	328.38	4.0628	0.001748	5.47e-05
10000	335.41	1.5232	0.0007051	2.2e-05
10000	338.73	0.6771	0.0005255	1.64e-05
10000	339.52	3.2815	0.0011875	3.71e-05
10000	340.8	0.3207	0.000467	1.45e-05
10000	342.22	2.031	0.0007615	2.38e-05
10000	344.7	2.6118	0.000878	2.74e-05
10000	352.42	4.0628	0.001219	3.82e-05
10000	354.19	0.6771	0.000433	1.35e-05
10000	357.62	0.3207	0.0003775	1.18e-05
10000	357.62	1.5232	0.0005333	1.67e-05
10000	358.41	3.2815	0.000919	2.87e-05
10000	361.8	2.031	0.0005978	1.87e-05
10000	369.32	2.6118	0.0006522	2.04e-05
10000	371.71	4.0628	0.000968	3.03e-05
10000	373.2	1.5232	0.0004539	1.42e-05
10000	373.78	0.6771	0.000351	1.1e-05
10000	375.81	0.3207	0.0003105	9.7e-06
10000	376.2	3.2815	0.0007495	2.35e-05
10000	377.79	2.031	0.0005055	1.58e-05
10000	383.38	2.6118	0.0004642	1.46e-05
10000	387.53	4.0628	0.000807	2.53e-05
10000	394.5	2.031	0.0004362	1.37e-05
10000	395.23	1.5232	0.0003728	1.17e-05
10000	396.4	0.3207	0.0002578	8.1e-06
10000	398.72	3.2815	0.000602	1.89e-05
10000	399.27	0.6771	0.0002812	8.8e-06
10000	400.09	2.6118	0.000487	1.53e-05
10000	403.2	4.0628	0.000694	2.18e-05
10000	416.8	2.031	0.0003665	1.15e-05
10000	418.2	0.3207	0.0002182	6.9e-06
10000	420.42	3.2815	0.0005018	1.58e-05
10000	420.69	1.5232	0.000308	9.7e-06
10000	423.5	0.6771	0.0002331	7.3e-06
10000	423.7	2.6118	0.000406	1.28e-05
10000	427.12	4.0628	0.000566	1.78e-05
10000	432.52	2.031	0.0003275	1.03e-05
10000	437.43	0.3207	0.0001896	6e-06
10000	441.32	1.5232	0.0002676	8.4e-06
10000	442.13	3.2815	0.000428	1.35e-05
10000	443.8	4.0628	0.000501	1.58e-05
10000	444.81	2.6118	0.0003502	1.1e-05
10000	446.79	0.6771	0.0002006	6.4e-06
10000	459.8	2.031	0.0002758	8.7e-06
10000	461.51	3.2815	0.000377	1.19e-05
10000	461.81	0.3207	0.0001632	5.2e-06
10000	463.48	0.6771	0.0001823	5.8e-06
10000	464.49	1.5232	0.0002336	7.4e-06
10000	467.23	4.0628	0.0004295	1.35e-05
10000	469.52	2.6118	0.000302	9.5e-06
10000	480.23	0.3207	0.0001484	4.7e-06
10000	480.4	4.0628	0.0003975	1.25e-05
10000	481.31	3.2815	0.000338	1.07e-05
10000	481.4	2.031	0.0002463	7.8e-06
10000	481.7	1.5232	0.0002143	6.8e-06
10000	482.72	0.6771	0.0001654	5.3e-06
10000	484.28	2.6118	0.00028	8.8e-06
10000	502.73	3.2815	0.0003085	9.7e-06
10000	503.74	0.3207	0.0001334	4.3e-06
10000	504.23	2.031	0.0002227	7.1e-06
10000	504.92	1.5232	0.0001937	6.2e-06
10000	505.8	0.6771	0.0001495	4.8e-06
10000	507.24	4.0628	0.000348	1.1e-05
10000	519.48	2.6118	0.0002415	7.7e-06
10000	524.51	3.2815	0.0002783	8.8e-06
10000	524.82	0.3207	0.0001228	4e-06
10000	525.34	1.5232	0.0001797	5.7e-06
10000	526.83	2.031	0.0002045	6.5e-06
10000	527.31	0.6771	0.0001378	4.4e-06
10000	530.28	4.0628	0.0003152	1e-05
10000	541.71	2.6118	0.0002205	7e-06
10000	546.54	0.3207	0.0001121	3.6e-06
10000	547.35	2.031	0.000188	6e-06
10000	549.71	1.5232	0.0001626	5.2e-06
10000	552.13	0.6771	0.0001244	4e-06
10000	556.21	3.2815	0.0002428	7.7e-06
10000	562.72	0.3207	0.0001043	3.4e-06
10000	569.33	2.6118	0.000196	6.2e-06
10000	570.7	1.5232	0.0001545	5e-06
10000	571.31	0.6771	0.0001143	3.7e-06
10000	572.31	4.0628	0.0002615	8.3e-06
10000	572.8	3.2815	0.0002342	7.4e-06
10000	574.23	2.031	0.0001745	5.6e-06
20000	298.2	1.5232	0.001384	4.3e-05
20000	298.8	2.031	0.00161	5.01e-05
20000	299.2	0.3207	0.0009635	2.98e-05
20000	299.2	3.2815	0.002518	7.85e-05
20000	299.7	2.6118	0.0019075	5.94e-05
20000	299.8	0.6771	0.0010305	3.2e-05
20000	303.7	4.0628	0.002952	9.22e-05
20000	308.6	0.3207	0.000817	2.53e-05
20000	308.7	2.031	0.001351	4.21e-05
20000	309.21	2.6118	0.0016065	5.01e-05
20000	310.41	1.5232	0.0011107	3.45e-05
20000	312.41	0.6771	0.0008188	2.54e-05
20000	312.7	4.0628	0.002442	7.63e-05
20000	314.3	3.2815	0.001871	5.84e-05
20000	321.7	1.5232	0.0008825	2.75e-05
20000	322.41	0.3207	0.0006183	1.92e-05
20000	324.5	0.6771	0.0006486	2.02e-05
20000	324.51	2.031	0.000987	3.08e-05
20000	325.49	2.6118	0.001162	3.62e-05
20000	327.6	3.2815	0.001432	4.47e-05
20000	328.38	4.0628	0.001757	5.49e-05
20000	335.41	1.5232	0.0007091	2.21e-05
20000	338.73	0.6771	0.0005303	1.65e-05
20000	339.52	3.2815	0.001194	3.73e-05
20000	340.8	0.3207	0.0004691	1.46e-05
20000	342.22	2.031	0.000766	2.39e-05
20000	344.7	2.6118	0.0008835	2.76e-05
20000	352.42	4.0628	0.001228	3.84e-05
20000	354.19	0.6771	0.0004384	1.37e-05
20000	357.62	0.3207	0.0003808	1.19e-05
20000	357.62	1.5232	0.0005378	1.68e-05
20000	358.41	3.2815	0.0009275	2.9e-05
20000	361.8	2.031	0.0006043	1.89e-05
20000	369.32	2.6118	0.00066	2.06e-05
20000	371.71	4.0628	0.000974	3.05e-05
20000	373.2	1.5232	0.0004592	1.44e-05
20000	373.78	0.6771	0.0003555	1.11e-05
20000	375.81	0.3207	0.0003145	9.8e-06
20000	376.2	3.2815	0.000759	2.38e-05
20000	377.79	2.031	0.0005136	1.61e-05
20000	383.38	2.6118	0.0005715	1.79e-05
20000	387.53	4.0628	0.000818	2.56e-05
20000	394.5	2.031	0.0004425	1.39e-05
20000	395.23	1.5232	0.000377	1.18e-05
20000	396.4	0.3207	0.0002608	8.2e-06
20000	398.72	3.2815	0.000608	1.91e-05
20000	399.27	0.6771	0.0002831	8.9e-06
20000	400.09	2.6118	0.0004925	1.54e-05
20000	403.2	4.0628	0.000702	2.2e-05
20000	416.8	2.031	0.000372	1.17e-05
20000	418.2	0.3207	0.0002203	6.9e-06
20000	420.42	3.2815	0.000509	1.6e-05
20000	420.69	1.5232	0.0003103	9.8e-06
20000	423.5	0.6771	0.0002364	7.5e-06
20000	423.7	2.6118	0.0004095	1.29e-05
20000	427.12	4.0628	0.0005742	1.8e-05
20000	432.52	2.031	0.0003316	1.04e-05
20000	437.43	0.3207	0.0001928	6.1e-06
20000	441.32	1.5232	0.0002713	8.5e-06
20000	442.13	3.2815	0.0004352	1.37e-05
20000	443.8	4.0628	0.0005085	1.6e-05
20000	444.81	2.6118	0.0003558	1.12e-05
20000	446.79	0.6771	0.0002037	6.4e-06
20000	459.8	2.031	0.0002811	8.9e-06
20000	461.51	3.2815	0.0003838	1.21e-05
20000	461.81	0.3207	0.0001666	5.3e-06
20000	463.48	0.6771	0.0001856	5.9e-06
20000	464.49	1.5232	0.000238	7.5e-06
20000	467.23	4.0628	0.0004375	1.38e-05
20000	469.52	2.6118	0.0003078	9.7e-06
20000	480.23	0.3207	0.0001512	4.8e-06
20000	480.4	4.0628	0.0004055	1.28e-05
20000	481.31	3.2815	0.0003425	1.08e-05
20000	481.4	2.031	0.000251	7.9e-06
20000	481.7	1.5232	0.0002186	6.9e-06
20000	482.72	0.6771	0.0001685	5.4e-06
20000	484.28	2.6118	0.0002855	9e-06
20000	502.73	3.2815	0.0003108	9.8e-06
20000	503.74	0.3207	0.000136	4.4e-06
20000	504.23	2.031	0.0002272	7.2e-06
20000	504.92	1.5232	0.0001976	6.3e-06
20000	505.8	0.6771	0.0001525	4.9e-06
20000	507.24	4.0628	0.000355	1.12e-05
20000	519.48	2.6118	0.000246	7.8e-06
20000	524.51	3.2815	0.0002832	9e-06
20000	524.82	0.3207	0.0001252	4e-06
20000	525.34	1.5232	0.000183	5.8e-06
20000	526.83	2.031	0.000209	6.6e-06
20000	527.31	0.6771	0.0001406	4.5e-06
20000	530.28	4.0628	0.0003215	1.02e-05
20000	541.71	2.6118	0.000226	7.2e-06
20000	546.54	0.3207	0.0001153	3.7e-06
20000	547.35	2.031	0.0001932	6.1e-06
20000	549.71	1.5232	0.0001675	5.3e-06
20000	552.13	0.6771	0.0001282	4.1e-06
20000	556.21	3.2815	0.00025	7.9e-06
20000	562.72	0.3207	0.0001082	3.5e-06
20000	569.33	2.6118	0.0002035	6.5e-06
20000	570.7	1.5232	0.0001596	5.1e-06
20000	571.31	0.6771	0.0001188	3.8e-06
20000	572.31	4.0628	0.000272	8.6e-06
20000	572.8	3.2815	0.0002423	7.7e-06
20000	574.23	2.031	0.0001808	5.8e-06
30000	298.2	1.5232	0.0013848	4.3e-05
30000	298.8	2.031	0.001611	5.01e-05
30000	299.2	0.3207	0.000964	2.99e-05
30000	299.2	3.2815	0.00252	7.86e-05
30000	299.7	2.6118	0.001908	5.94e-05
30000	299.8	0.6771	0.0010309	3.2e-05
30000	303.7	4.0628	0.002954	9.23e-05
30000	308.6	0.3207	0.000819	2.54e-05
30000	308.7	2.031	0.001352	4.21e-05
30000	309.21	2.6118	0.001609	5.01e-05
30000	310.41	1.5232	0.0011129	3.46e-05
30000	312.41	0.6771	0.000821	2.55e-05
30000	312.7	4.0628	0.002448	7.65e-05
30000	314.3	3.2815	0.001877	5.86e-05
30000	321.7	1.5232	0.0008861	2.76e-05
30000	322.41	0.3207	0.000621	1.93e-05
30000	324.5	0.6771	0.000652	2.03e-05
30000	324.51	2.031	0.0009922	3.09e-05
30000	325.49	2.6118	0.001168	3.64e-05
30000	327.6	3.2815	0.001439	4.49e-05
30000	328.38	4.0628	0.001767	5.52e-05
30000	335.41	1.5232	0.0007146	2.23e-05
30000	338.73	0.6771	0.0005318	1.66e-05
30000	339.52	3.2815	0.001201	3.75e-05
30000	340.8	0.3207	0.0004728	1.47e-05
30000	342.22	2.031	0.000771	2.41e-05
30000	344.7	2.6118	0.000889	2.78e-05
30000	352.42	4.0628	0.001236	3.87e-05
30000	354.19	0.6771	0.0004394	1.37e-05
30000	357.62	0.3207	0.000384	1.2e-05
30000	357.62	1.5232	0.0005431	1.7e-05
30000	358.41	3.2815	0.000934	2.92e-05
30000	361.8	2.031	0.0006102	1.91e-05
30000	369.32	2.6118	0.0006682	2.09e-05
30000	371.71	4.0628	0.000978	3.06e-05
30000	373.2	1.5232	0.000463	1.45e-05
30000	373.78	0.6771	0.0003585	1.12e-05
30000	375.81	0.3207	0.0003183	1e-05
30000	376.2	3.2815	0.0007625	2.39e-05
30000	377.79	2.031	0.0005192	1.62e-05
30000	383.38	2.6118	0.000579	1.81e-05
30000	387.53	4.0628	0.000824	2.58e-05
30000	394.5	2.031	0.0004468	1.4e-05
30000	395.23	1.5232	0.0003808	1.19e-05
30000	396.4	0.3207	0.0002635	8.3e-06
30000	398.72	3.2815	0.000616	1.93e-05
30000	399.27	0.6771	0.0002863	9e-06
30000	400.09	2.6118	0.0004975	1.56e-05
30000	403.2	4.0628	0.0007108	2.23e-05
30000	416.8	2.031	0.0003736	1.17e-05
30000	418.2	0.3207	0.000223	7e-06
30000	420.42	3.2815	0.0005168	1.62e-05
30000	420.69	1.5232	0.0003147	9.9e-06
30000	423.5	0.6771	0.0002397	7.6e-06
30000	423.7	2.6118	0.000415	1.3e-05
30000	427.12	4.0628	0.0005855	1.84e-05
30000	432.52	2.031	0.0003355	1.05e-05
30000	437.43	0.3207	0.0001952	6.2e-06
30000	441.32	1.5232	0.0002756	8.7e-06
30000	442.13	3.2815	0.0004422	1.39e-05
30000	443.8	4.0628	0.000517	1.63e-05
30000	444.81	2.6118	0.0003612	1.14e-05
30000	446.79	0.6771	0.0002072	6.6e-06
30000	459.8	2.031	0.0002865	9e-06
30000	461.51	3.2815	0.000391	1.23e-05
30000	461.81	0.3207	0.0001691	5.4e-06
30000	463.48	0.6771	0.0001887	6e-06
30000	464.49	1.5232	0.0002422	7.7e-06
30000	467.23	4.0628	0.000445	1.4e-05
30000	469.52	2.6118	0.0003137	9.9e-06
30000	480.23	0.3207	0.000154	4.9e-06
30000	480.4	4.0628	0.000413	1.3e-05
30000	481.31	3.2815	0.0003508	1.11e-05
30000	481.4	2.031	0.0002565	8.1e-06
30000	481.7	1.5232	0.0002226	7e-06
30000	482.72	0.6771	0.0001716	5.5e-06
30000	484.28	2.6118	0.0002912	9.2e-06
30000	502.73	3.2815	0.0003175	1e-05
30000	503.74	0.3207	0.0001386	4.4e-06
30000	504.23	2.031	0.0002321	7.4e-06
30000	504.92	1.5232	0.0002015	6.4e-06
30000	505.8	0.6771	0.0001555	5e-06
30000	507.24	4.0628	0.000362	1.14e-05
30000	519.48	2.6118	0.0002512	8e-06
30000	524.51	3.2815	0.0002892	9.1e-06
30000	524.82	0.3207	0.0001278	4.1e-06
30000	525.34	1.5232	0.0001869	5.9e-06
30000	526.83	2.031	0.0002131	6.8e-06
30000	527.31	0.6771	0.0001435	4.6e-06
30000	530.28	4.0628	0.000329	1.04e-05
30000	541.71	2.6118	0.000232	7.4e-06
30000	546.54	0.3207	0.0001183	3.8e-06
30000	547.35	2.031	0.0001986	6.3e-06
30000	549.71	1.5232	0.000172	5.5e-06
30000	552.13	0.6771	0.0001307	4.2e-06
30000	556.21	3.2815	0.0002578	8.2e-06
30000	562.72	0.3207	0.0001115	3.6e-06
30000	569.33	2.6118	0.00021	6.7e-06
30000	570.7	1.5232	0.000164	5.2e-06
30000	571.31	0.6771	0.0001228	4e-06
30000	572.31	4.0628	0.000281	8.9e-06
30000	572.8	3.2815	0.000249	7.9e-06
30000	574.23	2.031	0.0001859	5.9e-06
40000	298.2	1.5232	0.0013859	4.31e-05
40000	298.8	2.031	0.0016125	5.02e-05
40000	299.2	0.3207	0.0009645	2.99e-05
40000	299.2	3.2815	0.0025225	7.87e-05
40000	299.7	2.6118	0.001909	5.95e-05
40000	299.8	0.6771	0.0010311	3.2e-05
40000	303.7	4.0628	0.002956	9.23e-05
40000	308.6	0.3207	0.0008203	2.54e-05
40000	308.7	2.031	0.0013555	4.22e-05
40000	309.21	2.6118	0.001612	5.02e-05
40000	310.41	1.5232	0.0011152	3.47e-05
40000	312.41	0.6771	0.000823	2.56e-05
40000	312.7	4.0628	0.002454	7.67e-05
40000	314.3	3.2815	0.001885	5.88e-05
40000	321.7	1.5232	0.0008902	2.77e-05
40000	322.41	0.3207	0.0006225	1.93e-05
40000	324.5	0.6771	0.000655	2.04e-05
40000	324.51	2.031	0.0009972	3.11e-05
40000	325.49	2.6118	0.001174	3.66e-05
40000	327.6	3.2815	0.001449	4.52e-05
40000	328.38	4.0628	0.001777	5.56e-05
40000	335.41	1.5232	0.0007176	2.24e-05
40000	338.73	0.6771	0.000535	1.67e-05
40000	339.52	3.2815	0.00121	3.78e-05
40000	340.8	0.3207	0.000475	1.48e-05
40000	342.22	2.031	0.0007755	2.42e-05
40000	344.7	2.6118	0.000894	2.79e-05
40000	352.42	4.0628	0.001244	3.89e-05
40000	354.19	0.6771	0.0004423	1.38e-05
40000	357.62	0.3207	0.0003862	1.21e-05
40000	357.62	1.5232	0.0005454	1.7e-05
40000	358.41	3.2815	0.000938	2.93e-05
40000	361.8	2.031	0.0006135	1.92e-05
40000	369.32	2.6118	0.0006705	2.1e-05
40000	371.71	4.0628	0.000982	3.08e-05
40000	373.2	1.5232	0.0004668	1.46e-05
40000	373.78	0.6771	0.0003615	1.13e-05
40000	375.81	0.3207	0.0003198	1e-05
40000	376.2	3.2815	0.000768	2.4e-05
40000	377.79	2.031	0.0005222	1.63e-05
40000	383.38	2.6118	0.000582	1.82e-05
40000	387.53	4.0628	0.0008305	2.6e-05
40000	394.5	2.031	0.0004508	1.41e-05
40000	395.23	1.5232	0.0003849	1.21e-05
40000	396.4	0.3207	0.0002663	8.4e-06
40000	398.72	3.2815	0.0006209	1.95e-05
40000	399.27	0.6771	0.0002893	9.1e-06
40000	400.09	2.6118	0.000503	1.58e-05
40000	403.2	4.0628	0.000718	2.25e-05
40000	416.8	2.031	0.000379	1.19e-05
40000	418.2	0.3207	0.0002258	7.1e-06
40000	420.42	3.2815	0.0005208	1.63e-05
40000	420.69	1.5232	0.0003186	1e-05
40000	423.5	0.6771	0.0002428	7.6e-06
40000	423.7	2.6118	0.0004207	1.32e-05
40000	427.12	4.0628	0.000591	1.86e-05
40000	432.52	2.031	0.0003405	1.07e-05
40000	437.43	0.3207	0.000198	6.3e-06
40000	441.32	1.5232	0.0002795	8.8e-06
40000	442.13	3.2815	0.000447	1.41e-05
40000	443.8	4.0628	0.000524	1.65e-05
40000	444.81	2.6118	0.0003662	1.15e-05
40000	446.79	0.6771	0.0002102	6.6e-06
40000	459.8	2.031	0.0002908	9.2e-06
40000	461.51	3.2815	0.0003965	1.25e-05
40000	461.81	0.3207	0.0001719	5.5e-06
40000	463.48	0.6771	0.0001918	6.1e-06
40000	464.49	1.5232	0.0002461	7.8e-06
40000	467.23	4.0628	0.0004525	1.42e-05
40000	469.52	2.6118	0.000319	1.01e-05
40000	480.23	0.3207	0.0001568	5e-06
40000	480.4	4.0628	0.0004205	1.33e-05
40000	481.31	3.2815	0.000356	1.12e-05
40000	481.4	2.031	0.0002612	8.3e-06
40000	481.7	1.5232	0.0002265	7.2e-06
40000	482.72	0.6771	0.0001748	5.6e-06
40000	484.28	2.6118	0.0002965	9.4e-06
40000	502.73	3.2815	0.0003225	1.02e-05
40000	503.74	0.3207	0.0001415	4.5e-06
40000	504.23	2.031	0.0002366	7.5e-06
40000	504.92	1.5232	0.0002055	6.5e-06
40000	505.8	0.6771	0.0001586	5.1e-06
40000	507.24	4.0628	0.000369	1.16e-05
40000	519.48	2.6118	0.000256	8.1e-06
40000	524.51	3.2815	0.000295	9.3e-06
40000	524.82	0.3207	0.0001303	4.2e-06
40000	525.34	1.5232	0.0001907	6.1e-06
40000	526.83	2.031	0.0002177	6.9e-06
40000	527.31	0.6771	0.0001465	4.7e-06
40000	530.28	4.0628	0.0003355	1.06e-05
40000	541.71	2.6118	0.000237	7.5e-06
40000	546.54	0.3207	0.000121	3.9e-06
40000	547.35	2.031	0.0002031	6.5e-06
40000	549.71	1.5232	0.0001761	5.6e-06
40000	552.13	0.6771	0.0001347	4.3e-06
40000	556.21	3.2815	0.000264	8.4e-06
40000	562.72	0.3207	0.0001143	3.7e-06
40000	569.33	2.6118	0.000216	6.9e-06
40000	571.31	0.6771	0.0001263	4.1e-06
40000	572.31	4.0628	0.000289	9.2e-06

System: water + calcium nitrate; phases: Liquid
Property: Kinematic viscosity, m2/s (Liquid); method: Capillary tube (Ostwald; Ubbelohde) method
Temperature, K	Pressure, kPa	Molality, mol/kg of calcium nitrate	Kinematic viscosity, m2/s	uncertainty
298.25	100	6.0941	4.3506e-06	1.363e-07
298.25	10000	6.0941	4.352e-06	1.364e-07
298.25	20000	6.0941	4.355e-06	1.364e-07
298.25	30000	6.0941	4.357e-06	1.365e-07
298.25	40000	6.0941	4.36e-06	1.366e-07
298.55	100	4.9861	3.157e-06	9.88e-08
298.55	10000	4.9861	3.158e-06	9.88e-08
298.55	20000	4.9861	3.16e-06	9.89e-08
298.55	30000	4.9861	3.1618e-06	9.89e-08
298.55	40000	4.9861	3.165e-06	9.9e-08
309.45	100	6.0941	3.41e-06	1.069e-07
309.45	10000	6.0941	3.4105e-06	1.069e-07
309.45	20000	6.0941	3.4125e-06	1.07e-07
309.45	30000	6.0941	3.415e-06	1.07e-07
309.45	40000	6.0941	3.418e-06	1.071e-07
313.35	100	4.9861	2.304e-06	7.21e-08
313.35	10000	4.9861	2.3055e-06	7.22e-08
313.35	20000	4.9861	2.307e-06	7.22e-08
313.35	30000	4.9861	2.308e-06	7.22e-08
313.35	40000	4.9861	2.3108e-06	7.23e-08
329.35	100	6.0941	2.1118e-06	6.63e-08
329.35	10000	6.0941	2.1125e-06	6.63e-08
329.35	20000	6.0941	2.115e-06	6.64e-08
329.35	30000	6.0941	2.117e-06	6.64e-08
329.35	40000	6.0941	2.118e-06	6.64e-08
334.15	100	4.9861	1.5048e-06	4.72e-08
334.15	10000	4.9861	1.506e-06	4.72e-08
334.15	20000	4.9861	1.507e-06	4.72e-08
334.15	30000	4.9861	1.508e-06	4.73e-08
334.15	40000	4.9861	1.5125e-06	4.74e-08
342.05	100	6.0941	1.7289e-06	5.43e-08
342.05	10000	6.0941	1.73e-06	5.43e-08
342.05	20000	6.0941	1.732e-06	5.44e-08
342.05	30000	6.0941	1.734e-06	5.44e-08
342.05	40000	6.0941	1.736e-06	5.45e-08
347.95	100	4.9861	1.24e-06	3.89e-08
347.95	10000	4.9861	1.241e-06	3.89e-08
347.95	20000	4.9861	1.2418e-06	3.89e-08
347.95	30000	4.9861	1.2435e-06	3.9e-08
347.95	40000	4.9861	1.245e-06	3.9e-08
360.65	100	6.0941	1.294e-06	4.06e-08
360.65	10000	6.0941	1.2952e-06	4.07e-08
360.65	20000	6.0941	1.297e-06	4.07e-08
360.65	30000	6.0941	1.299e-06	4.08e-08
360.65	40000	6.0941	1.302e-06	4.09e-08
369.85	100	4.9861	9.05e-07	2.84e-08
369.85	10000	4.9861	9.065e-07	2.85e-08
369.85	20000	4.9861	9.09e-07	2.85e-08
369.85	30000	4.9861	9.125e-07	2.87e-08
369.85	40000	4.9861	9.143e-07	2.87e-08
378.15	10000	6.0941	1.0132e-06	3.19e-08
378.15	20000	6.0941	1.0155e-06	3.2e-08
378.15	30000	6.0941	1.0178e-06	3.2e-08
378.15	40000	6.0941	1.0195e-06	3.21e-08
386.35	10000	4.9861	7.442e-07	2.34e-08
386.35	20000	4.9861	7.452e-07	2.34e-08
386.35	30000	4.9861	7.49e-07	2.35e-08
386.35	40000	4.9861	7.505e-07	2.36e-08
398.85	10000	6.0941	7.815e-07	2.47e-08
398.85	20000	6.0941	7.835e-07	2.48e-08
398.85	30000	6.0941	7.86e-07	2.48e-08
398.85	40000	6.0941	7.9e-07	2.5e-08
407.15	10000	4.9861	6.105e-07	1.92e-08
407.15	20000	4.9861	6.125e-07	1.93e-08
407.15	30000	4.9861	6.148e-07	1.94e-08
407.15	40000	4.9861	6.162e-07	1.94e-08
419.85	10000	6.0941	6.473e-07	2.06e-08
419.85	20000	6.0941	6.495e-07	2.07e-08
419.85	30000	6.0941	6.52e-07	2.07e-08
419.85	40000	6.0941	6.546e-07	2.08e-08
429.35	10000	4.9861	5.09e-07	1.6e-08
429.35	20000	4.9861	5.118e-07	1.61e-08
429.35	30000	4.9861	5.14e-07	1.62e-08
429.35	40000	4.9861	5.16e-07	1.63e-08
442.65	10000	6.0941	5.283e-07	1.69e-08
442.65	20000	6.0941	5.298e-07	1.7e-08
442.65	30000	6.0941	5.32e-07	1.7e-08
442.65	40000	6.0941	5.358e-07	1.72e-08
445.35	10000	4.9861	4.51e-07	1.42e-08
445.35	20000	4.9861	4.532e-07	1.43e-08
445.35	30000	4.9861	4.565e-07	1.44e-08
445.35	40000	4.9861	4.59e-07	1.45e-08
462.05	10000	6.0941	4.44e-07	1.44e-08
462.05	20000	6.0941	4.475e-07	1.45e-08
462.05	30000	6.0941	4.496e-07	1.46e-08
462.05	40000	6.0941	4.545e-07	1.48e-08
466.35	10000	4.9861	3.868e-07	1.22e-08
466.35	20000	4.9861	3.893e-07	1.23e-08
466.35	30000	4.9861	3.933e-07	1.24e-08
466.35	40000	4.9861	3.945e-07	1.25e-08
480.75	10000	6.0941	3.978e-07	1.31e-08
480.75	20000	6.0941	4.023e-07	1.33e-08
480.75	30000	6.0941	4.05e-07	1.33e-08
480.75	40000	6.0941	4.095e-07	1.35e-08
485.95	10000	4.9861	3.525e-07	1.12e-08
485.95	20000	4.9861	3.555e-07	1.13e-08
485.95	30000	4.9861	3.585e-07	1.13e-08
485.95	40000	4.9861	3.6e-07	1.14e-08
497.45	10000	6.0941	3.734e-07	1.24e-08
497.45	20000	6.0941	3.776e-07	1.26e-08
497.45	30000	6.0941	3.808e-07	1.27e-08
497.45	40000	6.0941	3.845e-07	1.28e-08
502.85	10000	4.9861	3.295e-07	1.04e-08
502.85	20000	4.9861	3.33e-07	1.06e-08
502.85	30000	4.9861	3.35e-07	1.06e-08
502.85	40000	4.9861	3.372e-07	1.07e-08
517.65	10000	6.0941	3.44e-07	1.16e-08
517.65	20000	6.0941	3.475e-07	1.17e-08
517.65	30000	6.0941	3.514e-07	1.18e-08
517.65	40000	6.0941	3.54e-07	1.19e-08
524.95	10000	4.9861	3.029e-07	9.6e-09
524.95	20000	4.9861	3.061e-07	9.7e-09
524.95	30000	4.9861	3.09e-07	9.8e-09
524.95	40000	4.9861	3.116e-07	9.9e-09
545.35	10000	4.9861	2.819e-07	9e-09
545.35	20000	4.9861	2.85e-07	9.1e-09
545.35	30000	4.9861	2.908e-07	9.2e-09
545.35	40000	4.9861	2.935e-07	9.3e-09
546.65	10000	6.0941	3.092e-07	1.06e-08
546.65	20000	6.0941	3.118e-07	1.07e-08
546.65	30000	6.0941	3.155e-07	1.08e-08
546.65	40000	6.0941	3.183e-07	1.09e-08
572.55	10000	4.9861	2.566e-07	8.2e-09
572.55	20000	4.9861	2.592e-07	8.2e-09
572.55	30000	4.9861	2.7e-07	8.6e-09
572.55	40000	4.9861	2.73e-07	8.7e-09
573.05	10000	6.0941	2.856e-07	9.9e-09
573.05	20000	6.0941	2.874e-07	1e-08
573.05	30000	6.0941	2.898e-07	1.01e-08
573.05	40000	6.0941	2.943e-07	1.02e-08
