Measured thermophysical data. Vapor-Liquid Equilibrium Behavior of Tolan in Alcohol
Source: J. Chem. Eng. Data, 2005, 10.1021/je049778g
Compound 1: 1,2-diphenylethyne, C14H10, InChI=1S/C14H10/c1-3-7-13(8-4-1)11-12-14-9-5-2-6-10-14/h1-10H, purity 99%
Compound 2: methanol, CH4O, InChI=1S/CH4O/c1-2/h2H,1H3, purity 99.9%
Compound 3: ethanol, C2H6O, InChI=1S/C2H6O/c1-2-3/h3H,2H2,1H3, purity 99.9%
Compound 4: propan-2-ol, C3H8O, InChI=1S/C3H8O/c1-3(2)4/h3-4H,1-2H3, purity 99.9%
Compound 5: propan-1-ol, C3H8O, InChI=1S/C3H8O/c1-2-3-4/h4H,2-3H2,1H3, purity 99.9%

System: methanol; phases: Liquid, Gas
Property: Normal boiling temperature, K (Liquid); method: EBULLIO:UFactor:8:FP
Normal boiling temperature, K	uncertainty
337.67	0.03

System: methanol; phases: Liquid
Property: Mass density, kg/m3 (Liquid); method: VIBTUB:UFactor:2
Temperature, K	Pressure, kPa	Mass density, kg/m3	uncertainty
298.15	101.325	786.5	0.3

System: ethanol; phases: Liquid, Gas
Property: Normal boiling temperature, K (Liquid); method: EBULLIO:UFactor:8:FP
Normal boiling temperature, K	uncertainty
351.46	0.03

System: ethanol; phases: Liquid
Property: Mass density, kg/m3 (Liquid); method: VIBTUB:UFactor:2
Temperature, K	Pressure, kPa	Mass density, kg/m3	uncertainty
298.15	101.325	785.1	0.3

System: propan-2-ol; phases: Liquid, Gas
Property: Normal boiling temperature, K (Liquid); method: EBULLIO:UFactor:8:FP
Normal boiling temperature, K	uncertainty
355.41	0.03

System: propan-2-ol; phases: Liquid
Property: Mass density, kg/m3 (Liquid); method: VIBTUB:UFactor:2
Temperature, K	Pressure, kPa	Mass density, kg/m3	uncertainty
298.15	101.325	780.8	0.3

System: propan-1-ol; phases: Liquid, Gas
Property: Normal boiling temperature, K (Liquid); method: EBULLIO:UFactor:8:FP
Normal boiling temperature, K	uncertainty
370.19	0.03

System: propan-1-ol; phases: Liquid
Property: Mass density, kg/m3 (Liquid); method: VIBTUB:UFactor:2
Temperature, K	Pressure, kPa	Mass density, kg/m3	uncertainty
298.15	101.325	799.5	0.2

System: methanol + 1,2-diphenylethyne; phases: Liquid, Gas
Property: Boiling temperature at pressure P, K (Liquid); method: EBULLIO:UFactor:2
Mole fraction of 1,2-diphenylethyne	Pressure, kPa	Boiling temperature at pressure P, K	uncertainty
0.00044	98.53	336.86	0.06
0.00109	98.05	336.76	0.06

System: methanol + 1,2-diphenylethyne; phases: Gas, Liquid
Property: Mole fraction of 1,2-diphenylethyne (Gas); method: UV Spectrophotometer at 278 nm
Mole fraction of 1,2-diphenylethyne	Pressure, kPa	Mole fraction of 1,2-diphenylethyne	uncertainty
0.00044	98.53	1.6e-06	4e-07
0.00109	98.05	3.3e-06	4e-07

System: ethanol + 1,2-diphenylethyne; phases: Liquid, Gas
Property: Boiling temperature at pressure P, K (Liquid); method: EBULLIO:UFactor:2
Mole fraction of 1,2-diphenylethyne	Pressure, kPa	Boiling temperature at pressure P, K	uncertainty
0.00056	97.2	350.28	0.07
0.00094	97.85	350.47	0.07

System: ethanol + 1,2-diphenylethyne; phases: Gas, Liquid
Property: Mole fraction of 1,2-diphenylethyne (Gas); method: UV Spectrophotometer at 278 nm
Mole fraction of 1,2-diphenylethyne	Pressure, kPa	Mole fraction of 1,2-diphenylethyne	uncertainty
0.00056	97.2	1.5e-06	4e-07
0.00094	97.85	2.9e-06	4e-07

System: propan-2-ol + 1,2-diphenylethyne; phases: Liquid, Gas
Property: Boiling temperature at pressure P, K (Liquid); method: EBULLIO:UFactor:2
Mole fraction of 1,2-diphenylethyne	Pressure, kPa	Boiling temperature at pressure P, K	uncertainty
0.00113	98.25	354.5	0.06
0.00169	98.59	354.59	0.06

System: propan-2-ol + 1,2-diphenylethyne; phases: Gas, Liquid
Property: Mole fraction of 1,2-diphenylethyne (Gas); method: UV Spectrophotometer at 278 nm
Mole fraction of 1,2-diphenylethyne	Pressure, kPa	Mole fraction of 1,2-diphenylethyne	uncertainty
0.00113	98.25	3.4e-06	4e-07
0.00169	98.59	5.4e-06	4e-07

System: propan-1-ol + 1,2-diphenylethyne; phases: Liquid, Gas
Property: Boiling temperature at pressure P, K (Liquid); method: EBULLIO:UFactor:2
Mole fraction of 1,2-diphenylethyne	Pressure, kPa	Boiling temperature at pressure P, K	uncertainty
0.00054	98.83	369.37	0.06
0.00118	98.79	369.41	0.06

System: propan-1-ol + 1,2-diphenylethyne; phases: Gas, Liquid
Property: Mole fraction of 1,2-diphenylethyne (Gas); method: UV Spectrophotometer at 278 nm
Mole fraction of 1,2-diphenylethyne	Pressure, kPa	Mole fraction of 1,2-diphenylethyne	uncertainty
0.00054	98.83	3.1e-06	4e-07
0.00118	98.79	6e-06	4e-07
