Measured thermophysical data. Liquid-Liquid Equilibrium of MTBE + Ethanol + Water and MTBE + 1-Hexanol + Water over the Temperature Range of 288.15 to 308.15 K
Source: J. Chem. Eng. Data, 2005, 10.1021/je049799a
Compound 1: 2-methoxy-2-methylpropane, C5H12O, InChI=1S/C5H12O/c1-5(2,3)6-4/h1-4H3
Compound 2: ethanol, C2H6O, InChI=1S/C2H6O/c1-2-3/h3H,2H2,1H3
Compound 3: hexan-1-ol, C6H14O, InChI=1S/C6H14O/c1-2-3-4-5-6-7/h7H,2-6H2,1H3
Compound 4: water, H2O, InChI=1S/H2O/h1H2

System: 2-methoxy-2-methylpropane + water; phases: Liquid mixture 1, Liquid mixture 2
Fixed: Pressure, kPa = 101.3
Property: Mole fraction of 2-methoxy-2-methylpropane (Liquid mixture 1); method: CHROM:UFactor:16
Temperature, K	Mole fraction of 2-methoxy-2-methylpropane	uncertainty
288.15	0.9217	0.0097
288.15	0.9098	0.0112
298.15	0.9259	0.0092
298.15	0.9329	0.0083
308.15	0.918	0.0102

System: 2-methoxy-2-methylpropane + water; phases: Liquid mixture 2, Liquid mixture 1
Fixed: Pressure, kPa = 101.3
Property: Mole fraction of 2-methoxy-2-methylpropane (Liquid mixture 2); method: CHROM:UFactor:16
Temperature, K	Mole fraction of 2-methoxy-2-methylpropane	uncertainty
288.15	0.012	0.0015
288.15	0.0156	0.0019
298.15	0.0078	0.001
298.15	0.0087	0.0011
308.15	0.0072	0.0009

System: hexan-1-ol + water; phases: Liquid mixture 1, Liquid mixture 2
Fixed: Pressure, kPa = 101.3
Property: Mass density, kg/m3 (Liquid mixture 1); method: PYCNOM:UFactor:32
Temperature, K	Mass density, kg/m3	uncertainty
288.15	806	8
298.15	807	8
308.15	802	9

System: hexan-1-ol + water; phases: Liquid mixture 2, Liquid mixture 1
Fixed: Pressure, kPa = 101.3
Property: Mass density, kg/m3 (Liquid mixture 2); method: PYCNOM:UFactor:32
Temperature, K	Mass density, kg/m3	uncertainty
288.15	974	10
298.15	1000	10
308.15	991	11

System: hexan-1-ol + water; phases: Liquid mixture 2, Liquid mixture 1
Fixed: Pressure, kPa = 101.3
Property: Mole fraction of hexan-1-ol (Liquid mixture 2); method: CHROM:UFactor:16
Temperature, K	Mole fraction of hexan-1-ol	uncertainty
288.15	0.0026	0.0007
298.15	0.0012	0.0006
308.15	0.0023	0.0007

System: hexan-1-ol + water; phases: Liquid mixture 1, Liquid mixture 2
Fixed: Pressure, kPa = 101.3
Property: Mole fraction of hexan-1-ol (Liquid mixture 1); method: CHROM:UFactor:16
Temperature, K	Mole fraction of hexan-1-ol	uncertainty
288.15	0.672	0.0407
298.15	0.6763	0.0401
308.15	0.6039	0.0491

System: ethanol + 2-methoxy-2-methylpropane + water; phases: Liquid mixture 1, Liquid mixture 2
Fixed: Pressure, kPa = 101.3
Property: Mass density, kg/m3 (Liquid mixture 1); method: PYCNOM:UFactor:32
Temperature, K	Mole fraction of 2-methoxy-2-methylpropane	Mass density, kg/m3	uncertainty
288.15	0.1638	838	8
288.15	0.2657	806	8
288.15	0.3711	793	7
288.15	0.6108	770	7
288.15	0.8066	755	7
288.15	0.8812	742	7
288.15	0.9217	746	7
298.15	0.1982	822.4	9.6
298.15	0.3564	788.5	7.8
298.15	0.5997	760.4	7.1
298.15	0.7983	747.8	6.9
298.15	0.8723	741.6	6.8
298.15	0.9259	736.9	6.8

System: ethanol + 2-methoxy-2-methylpropane + water; phases: Liquid mixture 2, Liquid mixture 1
Fixed: Pressure, kPa = 101.3
Property: Mass density, kg/m3 (Liquid mixture 2); method: PYCNOM:UFactor:32
Temperature, K	Mole fraction of 2-methoxy-2-methylpropane	Mass density, kg/m3	uncertainty
288.15	0.012	979	10
288.15	0.0127	974	10
288.15	0.0137	967	10
288.15	0.0162	954	10
288.15	0.0223	898	9
288.15	0.0341	918	9
288.15	0.0582	936	9
298.15	0.0078	987	10
298.15	0.0093	974	10
298.15	0.0104	967	10
298.15	0.014	954	10
298.15	0.0204	934	9
298.15	0.0394	910	9

System: ethanol + 2-methoxy-2-methylpropane + water; phases: Liquid mixture 1, Liquid mixture 2
Fixed: Pressure, kPa = 101.3
Property: Mole fraction of ethanol (Liquid mixture 1); method: CHROM:UFactor:16
Property: Mole fraction of 2-methoxy-2-methylpropane (Liquid mixture 2); method: CHROM:UFactor:16
Property: Mole fraction of ethanol (Liquid mixture 2); method: CHROM:UFactor:16
Temperature, K	Mole fraction of 2-methoxy-2-methylpropane	Mole fraction of ethanol	uncertainty	Mole fraction of 2-methoxy-2-methylpropane	uncertainty	Mole fraction of ethanol	uncertainty
288.15	0.9217	0	0.0001	0.012	0.0015	0	
288.15	0.8812	0.0304	0.0039	0.0127	0.0016	0.0231	
288.15	0.8066	0.0744	0.0093	0.0137	0.0017	0.0466	
288.15	0.6108	0.1702	0.0211	0.0162	0.002	0.0786	
288.15	0.3711	0.2184	0.0271	0.0223	0.0028	0.1045	
288.15	0.2657	0.2243	0.0278	0.0341	0.0042	0.1224	
288.15	0.1638	0.2009	0.0249	0.0582	0.0072	0.1471	
298.15	0.9259	0	0.0001	0.0078	0.001	0	
298.15	0.8723	0.0382	0.0049	0.0093	0.0012	0.0223	
298.15	0.7983	0.0845	0.0105	0.0104	0.0013	0.0445	
298.15	0.5997	0.1849	0.0229	0.014	0.0017	0.0787	
298.15	0.3564	0.2316	0.0289	0.0204	0.0026	0.1058	
298.15	0.1982	0.2312	0.029	0.0394	0.0051	0.1331	

System: hexan-1-ol + 2-methoxy-2-methylpropane + water; phases: Liquid mixture 1, Liquid mixture 2
Fixed: Pressure, kPa = 101.3
Property: Mass density, kg/m3 (Liquid mixture 1); method: PYCNOM:UFactor:32
Temperature, K	Mole fraction of 2-methoxy-2-methylpropane	Mass density, kg/m3	uncertainty
288.15	0	806	8
288.15	0.0572	803	8
288.15	0.103	805	8
288.15	0.1518	802	8
288.15	0.1829	803	8
288.15	0.3293	790	8
288.15	0.381	795	7
288.15	0.5844	776	7
288.15	0.7105	767	7
288.15	0.8105	760	7
288.15	0.9098	742	7
298.15	0	807	8
298.15	0.0576	812	8
298.15	0.1081	816	8
298.15	0.1462	821	8
298.15	0.1948	823	8
298.15	0.4764	782	7
298.15	0.5505	775	7
298.15	0.6361	767	7
298.15	0.7529	758	7
298.15	0.8329	750	7
298.15	0.9329	744	7
308.15	0	802	9
308.15	0.0494	804	9
308.15	0.088	799	9
308.15	0.133	792	9
308.15	0.1595	786	9
308.15	0.427	785	8
308.15	0.4878	780	8
308.15	0.5832	773	8
308.15	0.6259	768	8
308.15	0.7161	761	8
308.15	0.7971	748	8
308.15	0.918	736	8

System: hexan-1-ol + 2-methoxy-2-methylpropane + water; phases: Liquid mixture 2, Liquid mixture 1
Fixed: Pressure, kPa = 101.3
Property: Mass density, kg/m3 (Liquid mixture 2); method: PYCNOM:UFactor:32
Temperature, K	Mole fraction of 2-methoxy-2-methylpropane	Mass density, kg/m3	uncertainty
288.15	0	974	10
288.15	0.0011	981	10
288.15	0.0022	985	10
288.15	0.0031	983	10
288.15	0.0038	989	10
288.15	0.0075	987	10
288.15	0.0084	986	10
288.15	0.0094	986	10
288.15	0.0106	985	10
288.15	0.0119	979	10
288.15	0.0156	976	10
298.15	0	1000	10
298.15	0.0008	998	10
298.15	0.0014	996	10
298.15	0.002	997	10
298.15	0.0023	998	10
298.15	0.0054	990	10
298.15	0.006	987	10
298.15	0.0068	986	10
298.15	0.0072	986	10
298.15	0.0079	986	10
298.15	0.0087	985	10
308.15	0	991	11
308.15	0.0006	985	11
308.15	0.0012	978	11
308.15	0.0016	976	11
308.15	0.0021	975	11
308.15	0.0042	991	11
308.15	0.0045	995	11
308.15	0.005	997	11
308.15	0.0054	995	11
308.15	0.0061	994	11
308.15	0.0065	994	11
308.15	0.0072	997	11

System: hexan-1-ol + 2-methoxy-2-methylpropane + water; phases: Liquid mixture 2, Liquid mixture 1
Fixed: Pressure, kPa = 101.3
Property: Mole fraction of hexan-1-ol (Liquid mixture 2); method: CHROM:UFactor:16
Property: Mole fraction of hexan-1-ol (Liquid mixture 1); method: CHROM:UFactor:16
Property: Mole fraction of 2-methoxy-2-methylpropane (Liquid mixture 1); method: CHROM:UFactor:16
Temperature, K	Mole fraction of 2-methoxy-2-methylpropane	Mole fraction of hexan-1-ol	uncertainty	Mole fraction of hexan-1-ol	uncertainty	Mole fraction of 2-methoxy-2-methylpropane	uncertainty
288.15	0.0156	0	0.0001	0	0.0001	0.9098	
288.15	0.0119	0.0002	0.0002	0.0728	0.0091	0.8105	
288.15	0.0106	0.0003	0.0003	0.1386	0.0172	0.7105	
288.15	0.0094	0.0006	0.0006	0.2213	0.0274	0.5844	
288.15	0.0084	0.0007	0.0006	0.4424	0.0548	0.3293	
288.15	0.0075	0.0007	0.0006	0.3805	0.0472	0.381	
288.15	0.0038	0.0021	0.0006	0.501	0.0618	0.1829	
288.15	0.0031	0.002	0.0006	0.5411	0.0569	0.1518	
288.15	0.0022	0.0023	0.0007	0.586	0.0513	0.103	
288.15	0.0011	0.0021	0.0006	0.6239	0.0466	0.0572	
288.15	0	0.0026	0.0007	0.672	0.0407	0	
298.15	0.0087	0	0.0001	0	0.0001	0.9329	
298.15	0.0079	0.0002	0.0002	0.0687	0.0086	0.8329	
298.15	0.0072	0.0003	0.0003	0.1226	0.0152	0.7529	
298.15	0.0068	0.0004	0.0004	0.2053	0.0255	0.6361	
298.15	0.006	0.0005	0.0005	0.263	0.0326	0.5505	
298.15	0.0054	0.0005	0.0005	0.3164	0.0392	0.4764	
298.15	0.0023	0.0009	0.0006	0.5066	0.0612	0.1948	
298.15	0.002	0.0009	0.0006	0.5388	0.0572	0.1462	
298.15	0.0014	0.0009	0.0006	0.5851	0.0514	0.1081	
298.15	0.0008	0.001	0.001	0.6351	0.0452	0.0576	
298.15	0	0.0012	0.0006	0.6763	0.0401	0	
308.15	0.0072	0	0.0001	0	0.0001	0.918	
308.15	0.0065	0.0003	0.0003	0.086	0.0107	0.7971	
308.15	0.0061	0.0003	0.0003	0.1465	0.0182	0.7161	
308.15	0.0054	0.0004	0.0004	0.2049	0.0254	0.6259	
308.15	0.005	0.0004	0.0004	0.2413	0.0299	0.5832	
308.15	0.0045	0.0005	0.0005	0.311	0.0385	0.4878	
308.15	0.0042	0.0007	0.0006	0.3463	0.0429	0.427	
308.15	0.0021	0.0014	0.0006	0.4426	0.0549	0.1595	
308.15	0.0016	0.0011	0.0006	0.4738	0.0587	0.133	
308.15	0.0012	0.0016	0.0006	0.5155	0.0601	0.088	
308.15	0.0006	0.0018	0.0006	0.5513	0.0556	0.0494	
308.15	0	0.0023	0.0007	0.6039	0.0491	0	
