Measured thermophysical data. Surface Behavior of Aqueous Solutions of Pyrrolidine and Piperidine
Source: J. Chem. Eng. Data, 2004, 10.1021/je049888n
Compound 1: pyrrolidine, C4H9N, InChI=1S/C4H9N/c1-2-4-5-3-1/h5H,1-4H2
Compound 2: water, H2O, InChI=1S/H2O/h1H2
Compound 3: piperidine, C5H11N, InChI=1S/C5H11N/c1-2-4-6-5-3-1/h6H,1-5H2

System: pyrrolidine; phases: Liquid, Air at 1 atmosphere
Property: Surface tension liquid-gas, N/m (Liquid); method: RINGTE::UFactor:2
Temperature, K	Surface tension liquid-gas, N/m	uncertainty
293.15	0.03027	0.00087
298.15	0.02975	0.00086
303.15	0.02902	0.00084
313.15	0.02787	0.00081
323.15	0.02675	0.00079

System: piperidine; phases: Liquid, Air at 1 atmosphere
Property: Surface tension liquid-gas, N/m (Liquid); method: RINGTE::UFactor:2
Temperature, K	Surface tension liquid-gas, N/m	uncertainty
293.15	0.03011	0.00086
298.15	0.02956	0.00085
303.15	0.02909	0.00083
313.15	0.0279	0.00081
323.15	0.027	0.00079

System: pyrrolidine + water; phases: Liquid, Air at 1 atmosphere
Property: Surface tension liquid-gas, N/m (Liquid); method: RINGTE:UFactor:2
Temperature, K	Mole fraction of pyrrolidine	Surface tension liquid-gas, N/m	uncertainty
293.15	0	0.0727	0.00184
293.15	0.0156	0.05561	0.00147
293.15	0.0564	0.04607	0.00123
293.15	0.1082	0.0417	0.00113
293.15	0.1792	0.0397	0.00108
293.15	0.3039	0.03753	0.00103
293.15	0.4212	0.03597	0.00099
293.15	0.5219	0.03487	0.00097
293.15	0.6093	0.03389	0.00095
293.15	0.6858	0.03299	0.00093
293.15	0.7844	0.0321	0.00091
293.15	0.9161	0.03107	0.00089
293.15	1	0.03027	0.00087
298.15	0	0.07205	0.00183
298.15	0.0156	0.05532	0.00144
298.15	0.0564	0.04561	0.00122
298.15	0.1082	0.04119	0.00111
298.15	0.1792	0.03974	0.00108
298.15	0.3039	0.03709	0.00102
298.15	0.4212	0.03545	0.00098
298.15	0.5219	0.0344	0.00096
298.15	0.6093	0.03354	0.00094
298.15	0.6858	0.03259	0.00092
298.15	0.7844	0.03145	0.00089
298.15	0.9161	0.03042	0.00087
298.15	1	0.02975	0.00086
303.15	0	0.07128	0.00181
303.15	0.0156	0.05498	0.00144
303.15	0.0564	0.04521	0.00121
303.15	0.1082	0.04092	0.00111
303.15	0.1792	0.039	0.00106
303.15	0.3039	0.03669	0.00101
303.15	0.4212	0.03511	0.00097
303.15	0.5219	0.03399	0.00095
303.15	0.6093	0.03307	0.00093
303.15	0.6858	0.03239	0.00092
303.15	0.7844	0.0313	0.00089
303.15	0.9161	0.03013	0.00087
303.15	1	0.02902	0.00084
313.15	0	0.06932	0.00177
313.15	0.0156	0.0541	0.00141
313.15	0.0564	0.04476	0.0012
313.15	0.1082	0.04019	0.00109
313.15	0.1792	0.03801	0.00104
313.15	0.3039	0.03568	0.00099
313.15	0.4212	0.03444	0.00096
313.15	0.5219	0.03297	0.00093
313.15	0.6093	0.03195	0.0009
313.15	0.6858	0.03111	0.00089
313.15	0.7844	0.0304	0.00087
313.15	0.9161	0.02902	0.00084
313.15	1	0.02787	0.00081
323.15	0	0.06788	0.00173
323.15	0.0156	0.05326	0.0014
323.15	0.0564	0.04389	0.00118
323.15	0.1082	0.03917	0.00107
323.15	0.1792	0.0373	0.00102
323.15	0.3039	0.03474	0.00096
323.15	0.4212	0.03315	0.00093
323.15	0.5219	0.03207	0.0009
323.15	0.6093	0.03105	0.00088
323.15	0.6858	0.03025	0.00086
323.15	0.7844	0.0292	0.00084
323.15	0.9161	0.02783	0.00081
323.15	1	0.02675	0.00079

System: piperidine + water; phases: Liquid, Air at 1 atmosphere
Property: Surface tension liquid-gas, N/m (Liquid); method: RINGTE:UFactor:2
Temperature, K	Mole fraction of piperidine	Surface tension liquid-gas, N/m	uncertainty
293.15	0	0.0727	0.00184
293.15	0.0076	0.05725	0.00155
293.15	0.013	0.04384	0.00121
293.15	0.0228	0.03856	0.00106
293.15	0.0458	0.03778	0.00103
293.15	0.092	0.03544	0.00098
293.15	0.1542	0.03434	0.00095
293.15	0.2672	0.0339	0.00094
293.15	0.378	0.03327	0.00093
293.15	0.5657	0.03138	0.00089
293.15	0.7524	0.03102	0.00088
293.15	1	0.03011	0.00086
298.15	0	0.07205	0.00183
298.15	0.0076	0.05685	0.00154
298.15	0.013	0.04358	0.00119
298.15	0.0228	0.03827	0.00104
298.15	0.0458	0.0372	0.00102
298.15	0.092	0.03499	0.00097
298.15	0.1542	0.03402	0.00095
298.15	0.2672	0.03339	0.00093
298.15	0.378	0.03275	0.00092
298.15	0.5657	0.03115	0.00088
298.15	0.7524	0.03042	0.00086
298.15	1	0.02956	0.00085
303.15	0	0.07128	0.00181
303.15	0.0076	0.05645	0.00153
303.15	0.013	0.04332	0.00118
303.15	0.0228	0.03798	0.00104
303.15	0.0458	0.03662	0.00101
303.15	0.092	0.03454	0.00096
303.15	0.1542	0.0337	0.00094
303.15	0.2672	0.03288	0.00092
303.15	0.378	0.03223	0.0009
303.15	0.5657	0.03092	0.00088
303.15	0.7524	0.02982	0.00085
303.15	1	0.02909	0.00083
313.15	0	0.06932	0.00177
313.15	0.0076	0.05556	0.00151
313.15	0.013	0.04158	0.00114
313.15	0.0228	0.03743	0.00103
313.15	0.0458	0.03576	0.00099
313.15	0.092	0.03369	0.00094
313.15	0.1542	0.03267	0.00091
313.15	0.2672	0.0321	0.0009
313.15	0.378	0.03142	0.00089
313.15	0.5657	0.03001	0.00085
313.15	0.7524	0.02901	0.00083
313.15	1	0.0279	0.00081
323.15	0	0.06788	0.00173
323.15	0.0076	0.05462	0.00148
323.15	0.013	0.04141	0.00114
323.15	0.0228	0.03718	0.00102
323.15	0.0458	0.03437	0.00095
323.15	0.092	0.03261	0.00091
323.15	0.1542	0.0318	0.00089
323.15	0.2672	0.03126	0.00088
323.15	0.378	0.0304	0.00086
323.15	0.5657	0.0292	0.00083
323.15	0.7524	0.0281	0.00081
323.15	1	0.027	0.00079
