Measured thermophysical data. Densities and Viscosities of Binary Mixtures of Ethylbenzene + N-Methyl-2-pyrrolidone, Ethylbenzene + Sulfolane, and Styrene + Octane from (303.15 to 353.15) K and Atmospheric Pressure
Source: J. Chem. Eng. Data, 2005, 10.1021/je049572f
Compound 1: ethylbenzene, C8H10, InChI=1S/C8H10/c1-2-8-6-4-3-5-7-8/h3-7H,2H2,1H3
Compound 2: styrene, C8H8, InChI=1S/C8H8/c1-2-8-6-4-3-5-7-8/h2-7H,1H2
Compound 3: octane, C8H18, InChI=1S/C8H18/c1-3-5-7-8-6-4-2/h3-8H2,1-2H3
Compound 4: N-methylpyrrolidone, C5H9NO, InChI=1S/C5H9NO/c1-6-4-2-3-5(6)7/h2-4H2,1H3
Compound 5: sulfolane, C4H8O2S, InChI=1S/C4H8O2S/c5-7(6)3-1-2-4-7/h1-4H2

System: ethylbenzene; phases: Liquid
Fixed: Pressure, kPa = 101.325
Property: Viscosity, Pa*s (Liquid); method: CAPTUB:UFactor:4
Temperature, K	Viscosity, Pa*s	uncertainty
303.15	0.000598	1.6e-05
313.15	0.000537	1.5e-05
323.15	0.000483	1.4e-05
333.15	0.000437	1.3e-05
343.15	0.000397	1.2e-05
353.15	0.000366	1.2e-05

System: ethylbenzene; phases: Liquid
Fixed: Pressure, kPa = 101.325
Property: Mass density, kg/m3 (Liquid); method: VIBTUB:UFactor:32
Temperature, K	Mass density, kg/m3	uncertainty
303.15	859.95	3.56
313.15	851.14	3.7
323.15	842.3	3.84
323.15	842.27	3.84
333.15	833.34	3.99
343.15	824.26	4.13
353.15	815.18	4.28

System: styrene; phases: Liquid
Fixed: Pressure, kPa = 101.325
Property: Viscosity, Pa*s (Liquid); method: CAPTUB::UFactor:4
Temperature, K	Viscosity, Pa*s	uncertainty
293.15	0.000749	1.9e-05
298.15	0.000699	1.8e-05
303.15	0.000654	1.7e-05
313.15	0.000577	1.6e-05
323.15	0.000513	1.4e-05
333.15	0.000462	1.3e-05
343.15	0.000419	1.3e-05
353.15	0.000381	1.2e-05
363.15	0.000349	1.1e-05

System: styrene; phases: Liquid
Fixed: Pressure, kPa = 101.325
Property: Mass density, kg/m3 (Liquid); method: VIBTUB::UFactor:16
Temperature, K	Mass density, kg/m3	uncertainty
293.15	906.29	1.42
298.15	901.86	1.45
303.15	897.45	1.49
313.15	888.53	1.56
323.15	879.62	1.63
333.15	870.64	1.7
343.15	861.72	1.77
353.15	852.68	1.85
363.15	843.99	1.92

System: octane; phases: Liquid
Fixed: Pressure, kPa = 101.325
Property: Viscosity, Pa*s (Liquid); method: CAPTUB::UFactor:4
Temperature, K	Viscosity, Pa*s	uncertainty
293.15	0.000534	1.5e-05
298.15	0.000501	1.4e-05
303.15	0.000472	1.4e-05
313.15	0.000422	1.3e-05
323.15	0.00038	1.2e-05
333.15	0.000343	1.1e-05
343.15	0.000314	1.1e-05
353.15	0.000287	1e-05
363.15	0.000261	1e-05

System: octane; phases: Liquid
Fixed: Pressure, kPa = 101.325
Property: Mass density, kg/m3 (Liquid); method: VIBTUB::UFactor:16
Temperature, K	Mass density, kg/m3	uncertainty
293.15	703.88	3.04
298.15	699.83	3.08
303.15	695.79	3.11
313.15	687.59	3.17
323.15	679.34	3.24
333.15	670.98	3.31
343.15	662.59	3.38
353.15	654.05	3.45
363.15	645.68	3.52

System: N-methylpyrrolidone; phases: Liquid
Fixed: Pressure, kPa = 101.325
Property: Viscosity, Pa*s (Liquid); method: CAPTUB::UFactor:4
Temperature, K	Viscosity, Pa*s	uncertainty
303.15	0.001554	5.3e-05
313.15	0.001332	4.6e-05
323.15	0.00116	4e-05
333.15	0.001022	3.6e-05
343.15	0.000908	3.2e-05
353.15	0.000813	2.9e-05

System: N-methylpyrrolidone; phases: Liquid
Fixed: Pressure, kPa = 101.325
Property: Mass density, kg/m3 (Liquid); method: VIBTUB::UFactor:32
Temperature, K	Mass density, kg/m3	uncertainty
303.15	1023.47	3.16
313.15	1014.55	3.07
323.15	1005.66	2.98
333.15	996.71	2.94
343.15	987.75	2.99
353.15	978.76	3.05

System: sulfolane; phases: Liquid
Fixed: Pressure, kPa = 101.325
Property: Viscosity, Pa*s (Liquid); method: CAPTUB:UFactor:4
Temperature, K	Viscosity, Pa*s	uncertainty
303.15	0.01007	0.000317
313.15	0.007808	0.00025
323.15	0.006194	0.000202
333.15	0.005009	0.000167
343.15	0.004126	0.000138
353.15	0.00344	0.000116

System: sulfolane; phases: Liquid
Fixed: Pressure, kPa = 101.325
Property: Mass density, kg/m3 (Liquid); method: VIBTUB:UFactor:32
Temperature, K	Mass density, kg/m3	uncertainty
303.15	1260.8	6.42
313.15	1251.9	6.28
323.15	1243.36	6.16
333.15	1234.62	6.02
343.15	1225.92	5.9
353.15	1216.8	5.76

System: ethylbenzene + N-methylpyrrolidone; phases: Liquid
Fixed: Pressure, kPa = 101.325
Property: Viscosity, Pa*s (Liquid); method: CAPTUB:UFactor:4
Temperature, K	Mole fraction of ethylbenzene	Viscosity, Pa*s	uncertainty
303.15	0	0.001554	5.3e-05
303.15	0.094	0.001415	4.7e-05
303.15	0.1901	0.001301	4.1e-05
303.15	0.2859	0.001188	3.7e-05
303.15	0.3839	0.001081	3.2e-05
303.15	0.4839	0.000975	2.8e-05
303.15	0.5835	0.000884	2.5e-05
303.15	0.6854	0.000796	2.2e-05
303.15	0.7888	0.000722	2e-05
303.15	0.8937	0.00066	1.8e-05
303.15	1	0.000598	1.6e-05
313.15	0	0.001332	4.6e-05
313.15	0.094	0.001216	4.1e-05
313.15	0.1901	0.001124	3.6e-05
313.15	0.2859	0.001033	3.2e-05
313.15	0.3839	0.00094	2.8e-05
313.15	0.4839	0.000846	2.5e-05
313.15	0.5835	0.000772	2.2e-05
313.15	0.6854	0.000705	2e-05
313.15	0.7888	0.000643	1.8e-05
313.15	0.8937	0.000588	1.6e-05
313.15	1	0.000537	1.5e-05
323.15	0	0.00116	4e-05
323.15	0.094	0.001057	3.6e-05
323.15	0.1901	0.000982	3.2e-05
323.15	0.2859	0.000904	2.8e-05
323.15	0.3839	0.000829	2.5e-05
323.15	0.4839	0.00075	2.2e-05
323.15	0.5835	0.000688	2e-05
323.15	0.6854	0.000629	1.8e-05
323.15	0.7888	0.000576	1.6e-05
323.15	0.8937	0.000525	1.5e-05
323.15	1	0.000483	1.4e-05
333.15	0	0.001022	3.6e-05
333.15	0.094	0.000932	3.2e-05
333.15	0.1901	0.000868	2.8e-05
333.15	0.2859	0.000801	2.5e-05
333.15	0.3839	0.000735	2.3e-05
333.15	0.4839	0.000671	2e-05
333.15	0.5835	0.000618	1.8e-05
333.15	0.6854	0.000565	1.6e-05
333.15	0.7888	0.00052	1.5e-05
333.15	0.8937	0.000474	1.4e-05
333.15	1	0.000437	1.3e-05
343.15	0	0.000908	3.2e-05
343.15	0.094	0.000833	2.9e-05
343.15	0.1901	0.000774	2.6e-05
343.15	0.2859	0.000714	2.3e-05
343.15	0.3839	0.000658	2.1e-05
343.15	0.4839	0.000603	1.8e-05
343.15	0.5835	0.000559	1.7e-05
343.15	0.6854	0.000514	1.5e-05
343.15	0.7888	0.000472	1.4e-05
343.15	0.8937	0.00043	1.3e-05
343.15	1	0.000397	1.2e-05
353.15	0	0.000813	2.9e-05
353.15	0.094	0.000746	2.6e-05
353.15	0.1901	0.000695	2.3e-05
353.15	0.2859	0.000643	2.1e-05
353.15	0.3839	0.000596	1.9e-05
353.15	0.4839	0.000547	1.7e-05
353.15	0.5835	0.000505	1.6e-05
353.15	0.6854	0.000468	1.4e-05
353.15	0.7888	0.00043	1.3e-05
353.15	0.8937	0.000391	1.2e-05
353.15	1	0.000366	1.2e-05

System: ethylbenzene + N-methylpyrrolidone; phases: Liquid
Fixed: Pressure, kPa = 101.325
Property: Mass density, kg/m3 (Liquid); method: VIBTUB:UFactor:32
Temperature, K	Mole fraction of ethylbenzene	Mass density, kg/m3	uncertainty
303.15	0	1023.47	3.16
303.15	0.094	1006.25	2.79
303.15	0.1901	989.43	2.6
303.15	0.2859	972.61	2.57
303.15	0.3839	955.98	2.59
303.15	0.4839	939.38	2.67
303.15	0.5835	923.22	2.78
303.15	0.6854	906.91	2.94
303.15	0.7888	890.73	3.13
303.15	0.8937	874.71	3.34
303.15	1	859.95	3.56
313.15	0	1014.55	3.07
313.15	0.094	997.35	2.74
313.15	0.1901	980.53	2.67
313.15	0.2859	963.71	2.66
313.15	0.3839	947.11	2.69
313.15	0.4839	930.52	2.78
313.15	0.5835	914.35	2.91
313.15	0.6854	898.04	3.08
313.15	0.7888	881.86	3.27
313.15	0.8937	865.85	3.49
313.15	1	851.14	3.7
323.15	0	1005.66	2.98
323.15	0.094	988.46	2.8
323.15	0.1901	971.63	2.74
323.15	0.2859	954.81	2.75
323.15	0.3839	938.2	2.8
323.15	0.4839	921.64	2.9
323.15	0.5835	905.4	3.04
323.15	0.6854	889.1	3.21
323.15	0.7888	873	3.41
323.15	0.8937	856.9	3.63
323.15	1	842.3	3.84
333.15	0	996.71	2.94
333.15	0.094	979.51	2.86
333.15	0.1901	962.67	2.82
333.15	0.2859	945.85	2.84
333.15	0.3839	929.24	2.91
333.15	0.4839	912.7	3.02
333.15	0.5835	896.46	3.17
333.15	0.6854	880.17	3.35
333.15	0.7888	864	3.55
333.15	0.8937	847.93	3.77
333.15	1	833.34	3.99
343.15	0	987.75	2.99
343.15	0.094	970.56	2.93
343.15	0.1901	953.71	2.91
343.15	0.2859	936.87	2.95
343.15	0.3839	920.25	3.03
343.15	0.4839	903.71	3.15
343.15	0.5835	887.45	3.3
343.15	0.6854	871.13	3.49
343.15	0.7888	854.97	3.69
343.15	0.8937	838.91	3.92
343.15	1	824.26	4.13
353.15	0	978.76	3.05
353.15	0.094	961.56	3
353.15	0.1901	944.7	3
353.15	0.2859	927.86	3.05
353.15	0.3839	911.2	3.15
353.15	0.4839	894.64	3.28
353.15	0.5835	878.35	3.44
353.15	0.6854	862.01	3.63
353.15	0.7888	845.86	3.84
353.15	0.8937	829.76	4.07
353.15	1	815.18	4.28

System: ethylbenzene + sulfolane; phases: Liquid
Fixed: Pressure, kPa = 101.325
Property: Viscosity, Pa*s (Liquid); method: CAPTUB:UFactor:4
Temperature, K	Mole fraction of ethylbenzene	Viscosity, Pa*s	uncertainty
303.15	0	0.01007	0.000317
303.15	0.1118	0.006224	0.000193
303.15	0.2205	0.004155	0.000126
303.15	0.3267	0.002942	8.5e-05
303.15	0.4301	0.002185	6.1e-05
303.15	0.5309	0.001536	4.2e-05
303.15	0.6293	0.001324	3.5e-05
303.15	0.7254	0.001057	2.8e-05
303.15	0.8194	0.000861	2.3e-05
303.15	0.9106	0.000716	1.9e-05
303.15	1	0.000598	1.6e-05
313.15	0	0.007808	0.00025
313.15	0.1118	0.004943	0.000156
313.15	0.2205	0.003385	0.000103
313.15	0.3267	0.002452	7.2e-05
313.15	0.4301	0.001835	5.2e-05
313.15	0.5309	0.001316	3.6e-05
313.15	0.6293	0.001135	3.1e-05
313.15	0.7254	0.000924	2.5e-05
313.15	0.8194	0.000757	2e-05
313.15	0.9106	0.000632	1.7e-05
313.15	1	0.000537	1.5e-05
323.15	0	0.006194	0.000202
323.15	0.1118	0.004007	0.000127
323.15	0.2205	0.002801	8.5e-05
323.15	0.3267	0.002048	6e-05
323.15	0.4301	0.001561	4.4e-05
323.15	0.5309	0.001136	3.2e-05
323.15	0.6293	0.000993	2.7e-05
323.15	0.7254	0.000813	2.2e-05
323.15	0.8194	0.00066	1.8e-05
323.15	0.9106	0.000564	1.6e-05
323.15	1	0.000483	1.4e-05
333.15	0	0.005009	0.000167
333.15	0.1118	0.00333	0.000106
333.15	0.2205	0.00235	7.2e-05
333.15	0.3267	0.001763	5.2e-05
333.15	0.4301	0.001347	3.9e-05
333.15	0.5309	0.000995	2.8e-05
333.15	0.6293	0.000876	2.4e-05
333.15	0.7254	0.000724	2e-05
333.15	0.8194	0.000597	1.7e-05
333.15	0.9106	0.000505	1.4e-05
333.15	1	0.000437	1.3e-05
343.15	0	0.004126	0.000138
343.15	0.1118	0.002796	9e-05
343.15	0.2205	0.002005	6.2e-05
343.15	0.3267	0.001541	4.6e-05
343.15	0.4301	0.001177	3.4e-05
343.15	0.5309	0.000882	2.5e-05
343.15	0.6293	0.000772	2.2e-05
343.15	0.7254	0.000646	1.8e-05
343.15	0.8194	0.000536	1.5e-05
343.15	0.9106	0.000459	1.4e-05
343.15	1	0.000397	1.2e-05
353.15	0	0.00344	0.000116
353.15	0.1118	0.002371	7.6e-05
353.15	0.2205	0.001736	5.4e-05
353.15	0.3267	0.001319	4e-05
353.15	0.4301	0.001039	3e-05
353.15	0.5309	0.000785	2.3e-05
353.15	0.6293	0.000692	2e-05
353.15	0.7254	0.000583	1.7e-05
353.15	0.8194	0.000484	1.4e-05
353.15	0.9106	0.000417	1.3e-05
353.15	1	0.000366	1.2e-05

System: ethylbenzene + sulfolane; phases: Liquid
Fixed: Pressure, kPa = 101.325
Property: Mass density, kg/m3 (Liquid); method: VIBTUB:UFactor:32
Temperature, K	Mole fraction of ethylbenzene	Mass density, kg/m3	uncertainty
303.15	0	1260.8	6.42
303.15	0.1118	1209.27	5.47
303.15	0.2205	1160.4	4.58
303.15	0.3267	1114.66	3.76
303.15	0.4301	1071.65	3
303.15	0.5309	1031.19	2.3
303.15	0.6293	993.33	1.82
303.15	0.7254	957.17	2.18
303.15	0.8194	923.09	2.62
303.15	0.9106	890.45	3.09
303.15	1	859.95	3.56
313.15	0	1251.9	6.28
313.15	0.1118	1200.44	5.34
313.15	0.2205	1151.53	4.45
313.15	0.3267	1105.77	3.63
313.15	0.4301	1062.77	2.88
313.15	0.5309	1022.32	2.18
313.15	0.6293	984.45	1.92
313.15	0.7254	948.31	2.31
313.15	0.8194	914.23	2.75
313.15	0.9106	881.6	3.23
313.15	1	851.14	3.7
323.15	0	1243.36	6.16
323.15	0.1118	1191.64	5.21
323.15	0.2205	1142.7	4.32
323.15	0.3267	1096.92	3.51
323.15	0.4301	1053.9	2.76
323.15	0.5309	1013.47	2.07
323.15	0.6293	975.58	2.03
323.15	0.7254	939.43	2.43
323.15	0.8194	905.36	2.89
323.15	0.9106	872.72	3.37
323.15	1	842.27	3.84
333.15	0	1234.62	6.02
333.15	0.1118	1182.85	5.08
333.15	0.2205	1133.86	4.2
333.15	0.3267	1088.06	3.38
333.15	0.4301	1045.02	2.64
333.15	0.5309	1004.57	1.96
333.15	0.6293	966.66	2.15
333.15	0.7254	930.5	2.57
333.15	0.8194	896.41	3.03
333.15	0.9106	863.76	3.52
333.15	1	833.34	3.99
343.15	0	1225.92	5.9
343.15	0.1118	1173.93	4.95
343.15	0.2205	1124.89	4.07
343.15	0.3267	1079.06	3.26
343.15	0.4301	1036.02	2.52
343.15	0.5309	995.54	1.95
343.15	0.6293	957.62	2.27
343.15	0.7254	921.43	2.7
343.15	0.8194	887.32	3.18
343.15	0.9106	854.67	3.66
343.15	1	824.26	4.13
353.15	0	1216.8	5.76
353.15	0.1118	1165.14	4.82
353.15	0.2205	1116.08	3.95
353.15	0.3267	1070.18	3.14
353.15	0.4301	1027.1	2.41
353.15	0.5309	986.58	2.05
353.15	0.6293	948.63	2.4
353.15	0.7254	912.4	2.84
353.15	0.8194	878.28	3.32
353.15	0.9106	845.58	3.81
353.15	1	815.18	4.28

System: styrene + octane; phases: Liquid
Fixed: Pressure, kPa = 101.325
Property: Viscosity, Pa*s (Liquid); method: CAPTUB:UFactor:4
Temperature, K	Mole fraction of styrene	Viscosity, Pa*s	uncertainty
293.15	0	0.000534	1.5e-05
293.15	0.1085	0.000537	1.5e-05
293.15	0.2151	0.000537	1.5e-05
293.15	0.3202	0.000541	1.5e-05
293.15	0.4223	0.000551	1.5e-05
293.15	0.523	0.000565	1.5e-05
293.15	0.622	0.000593	1.6e-05
293.15	0.7189	0.000619	1.7e-05
293.15	0.8145	0.000649	1.7e-05
293.15	0.9081	0.000694	1.8e-05
293.15	1	0.000749	1.9e-05
298.15	0	0.000501	1.4e-05
298.15	0.1085	0.000502	1.4e-05
298.15	0.2151	0.000508	1.4e-05
298.15	0.3202	0.00051	1.4e-05
298.15	0.4223	0.000518	1.5e-05
298.15	0.523	0.000533	1.5e-05
298.15	0.622	0.00056	1.5e-05
298.15	0.7189	0.000576	1.6e-05
298.15	0.8145	0.000608	1.6e-05
298.15	0.9081	0.000647	1.7e-05
298.15	1	0.000699	1.8e-05
303.15	0	0.000472	1.4e-05
303.15	0.1085	0.000475	1.4e-05
303.15	0.2151	0.000477	1.4e-05
303.15	0.3202	0.00048	1.4e-05
303.15	0.4223	0.000489	1.4e-05
303.15	0.523	0.000503	1.4e-05
303.15	0.622	0.000527	1.5e-05
303.15	0.7189	0.000544	1.5e-05
303.15	0.8145	0.000571	1.6e-05
303.15	0.9081	0.000609	1.6e-05
303.15	1	0.000654	1.7e-05
313.15	0	0.000422	1.3e-05
313.15	0.1085	0.000423	1.3e-05
313.15	0.2151	0.000427	1.3e-05
313.15	0.3202	0.000431	1.3e-05
313.15	0.4223	0.000439	1.3e-05
313.15	0.523	0.000451	1.3e-05
313.15	0.622	0.00048	1.4e-05
313.15	0.7189	0.000486	1.4e-05
313.15	0.8145	0.000511	1.4e-05
313.15	0.9081	0.000541	1.5e-05
313.15	1	0.000577	1.6e-05
323.15	0	0.00038	1.2e-05
323.15	0.1085	0.000381	1.2e-05
323.15	0.2151	0.000385	1.2e-05
323.15	0.3202	0.000388	1.2e-05
323.15	0.4223	0.000396	1.2e-05
323.15	0.523	0.000406	1.2e-05
323.15	0.622	0.000427	1.3e-05
323.15	0.7189	0.000437	1.3e-05
323.15	0.8145	0.00046	1.3e-05
323.15	0.9081	0.000484	1.4e-05
323.15	1	0.000513	1.4e-05
333.15	0	0.000343	1.1e-05
333.15	0.1085	0.000351	1.2e-05
333.15	0.2151	0.000351	1.2e-05
333.15	0.3202	0.000352	1.2e-05
333.15	0.4223	0.000359	1.2e-05
333.15	0.523	0.000368	1.2e-05
333.15	0.622	0.000387	1.2e-05
333.15	0.7189	0.000395	1.2e-05
333.15	0.8145	0.000413	1.3e-05
333.15	0.9081	0.000438	1.3e-05
333.15	1	0.000462	1.3e-05
343.15	0	0.000314	1.1e-05
343.15	0.1085	0.000321	1.1e-05
343.15	0.2151	0.000325	1.1e-05
343.15	0.3202	0.000322	1.1e-05
343.15	0.4223	0.000328	1.1e-05
343.15	0.523	0.000337	1.1e-05
343.15	0.622	0.000355	1.2e-05
343.15	0.7189	0.000362	1.2e-05
343.15	0.8145	0.000376	1.2e-05
343.15	0.9081	0.000398	1.2e-05
343.15	1	0.000419	1.3e-05
353.15	0	0.000287	1e-05
353.15	0.1085	0.000293	1.1e-05
353.15	0.2151	0.000295	1.1e-05
353.15	0.3202	0.000295	1.1e-05
353.15	0.4223	0.000301	1.1e-05
353.15	0.523	0.000308	1.1e-05
353.15	0.622	0.000322	1.1e-05
353.15	0.7189	0.000333	1.1e-05
353.15	0.8145	0.000349	1.1e-05
353.15	0.9081	0.000362	1.2e-05
353.15	1	0.000381	1.2e-05
363.15	0	0.000261	1e-05
363.15	0.1085	0.00027	1e-05
363.15	0.2151	0.000268	1e-05
363.15	0.3202	0.000273	1e-05
363.15	0.4223	0.000277	1e-05
363.15	0.523	0.000285	1e-05
363.15	0.622	0.000294	1.1e-05
363.15	0.7189	0.000304	1.1e-05
363.15	0.8145	0.000318	1.1e-05
363.15	0.9081	0.000333	1.1e-05
363.15	1	0.000349	1.1e-05

System: styrene + octane; phases: Liquid
Fixed: Pressure, kPa = 101.325
Property: Mass density, kg/m3 (Liquid); method: VIBTUB:UFactor:16
Temperature, K	Mole fraction of styrene	Mass density, kg/m3	uncertainty
293.15	0	703.88	3.04
293.15	0.1085	719.52	2.92
293.15	0.2151	736.18	2.78
293.15	0.3202	753.7	2.64
293.15	0.4223	772.01	2.5
293.15	0.523	791.51	2.34
293.15	0.622	812.07	2.17
293.15	0.7189	833.64	2
293.15	0.8145	856.59	1.81
293.15	0.9081	880.84	1.62
293.15	1	906.29	1.42
298.15	0	699.83	3.08
298.15	0.1085	715.45	2.95
298.15	0.2151	732.06	2.82
298.15	0.3202	749.53	2.68
298.15	0.4223	767.81	2.53
298.15	0.523	787.27	2.37
298.15	0.622	807.78	2.21
298.15	0.7189	829.3	2.03
298.15	0.8145	852.22	1.85
298.15	0.9081	876.43	1.66
298.15	1	901.86	1.45
303.15	0	695.79	3.11
303.15	0.1085	711.38	2.98
303.15	0.2151	727.94	2.85
303.15	0.3202	745.38	2.71
303.15	0.4223	763.63	2.56
303.15	0.523	783.03	2.41
303.15	0.622	803.5	2.24
303.15	0.7189	824.98	2.07
303.15	0.8145	847.87	1.88
303.15	0.9081	872.03	1.69
303.15	1	897.45	1.49
313.15	0	687.59	3.17
313.15	0.1085	703.13	3.05
313.15	0.2151	719.6	2.92
313.15	0.3202	737	2.78
313.15	0.4223	755.16	2.63
313.15	0.523	774.46	2.48
313.15	0.622	794.86	2.31
313.15	0.7189	816.28	2.14
313.15	0.8145	839.09	1.95
313.15	0.9081	863.15	1.76
313.15	1	888.53	1.56
323.15	0	679.34	3.24
323.15	0.1085	694.84	3.12
323.15	0.2151	711.23	2.98
323.15	0.3202	728.58	2.84
323.15	0.4223	746.66	2.7
323.15	0.523	765.88	2.54
323.15	0.622	786.22	2.38
323.15	0.7189	807.56	2.21
323.15	0.8145	830.31	2.02
323.15	0.9081	854.31	1.83
323.15	1	879.62	1.63
333.15	0	670.98	3.31
333.15	0.1085	686.43	3.18
333.15	0.2151	702.74	3.05
333.15	0.3202	720.06	2.91
333.15	0.4223	738.07	2.77
333.15	0.523	757.21	2.61
333.15	0.622	777.49	2.45
333.15	0.7189	798.77	2.28
333.15	0.8145	821.46	2.1
333.15	0.9081	845.37	1.9
333.15	1	870.64	1.7
343.15	0	662.59	3.38
343.15	0.1085	677.99	3.25
343.15	0.2151	694.24	3.12
343.15	0.3202	711.51	2.98
343.15	0.4223	729.46	2.84
343.15	0.523	748.55	2.69
343.15	0.622	768.75	2.52
343.15	0.7189	789.97	2.35
343.15	0.8145	812.63	2.17
343.15	0.9081	836.5	1.98
343.15	1	861.72	1.77
353.15	0	654.05	3.45
353.15	0.1085	669.39	3.32
353.15	0.2151	685.6	3.19
353.15	0.3202	702.81	3.05
353.15	0.4223	720.71	2.91
353.15	0.523	739.76	2.76
353.15	0.622	759.93	2.59
353.15	0.7189	781.11	2.42
353.15	0.8145	803.68	2.24
353.15	0.9081	827.51	2.05
353.15	1	852.68	1.85
363.15	0	645.68	3.52
363.15	0.1085	660.98	3.39
363.15	0.2151	677.15	3.26
363.15	0.3202	694.32	3.13
363.15	0.4223	712.19	2.98
363.15	0.523	731.2	2.83
363.15	0.622	751.34	2.67
363.15	0.7189	772.48	2.5
363.15	0.8145	795.04	2.31
363.15	0.9081	818.82	2.12
363.15	1	843.99	1.92
