Measured thermophysical data. Heat Capacity and Thermodynamic Functions of TbBr3
Source: J. Chem. Eng. Data, 2004, 10.1021/je049910c
Compound 1: terbium tribromide, Br3Tb, InChI=1S/3BrH.Tb/h3*1H;/q;;;+3/p-3

System: terbium tribromide; phases: Crystal, Liquid, Air at 1 atmosphere
Property: Molar enthalpy of transition or fusion, kJ/mol (Crystal); method: DSC
Molar enthalpy of transition or fusion, kJ/mol	uncertainty
37.4	1.2

System: terbium tribromide; phases: Crystal, Liquid, Air at 1 atmosphere
Property: Normal melting temperature, K (Crystal); method: DTA
Normal melting temperature, K	uncertainty
1103	2

System: terbium tribromide; phases: Liquid
Fixed: Pressure, kPa = 101.325
Property: Molar heat capacity at constant pressure, J/K/mol (Liquid); method: LDSC:UFactor:2
Temperature, K	Molar heat capacity at constant pressure, J/K/mol	uncertainty
305	95.25	3.81
310	96.04	3.84
315	96.89	3.88
320	96.99	3.88
325	97.03	3.88
330	96.84	3.87
335	97.05	3.88
340	97.06	3.88
345	98.47	3.94
350	98.03	3.92
354	96.27	3.85
359	96.56	3.86
364	95.16	3.81
369	95.49	3.82
374	95.66	3.83
379	94.73	3.79
384	96.58	3.86
389	94.78	3.79
394	96.69	3.87
399	97.48	3.9
404	97.16	3.89
409	97.43	3.9
414	96.37	3.85
419	97.26	3.89
424	96.24	3.85
429	97.6	3.9
434	98.83	3.95
439	98.92	3.96
444	98.73	3.95
449	100.77	4.03
454	101.24	4.05
459	102.68	4.11
464	101.53	4.06
469	101.69	4.07
474	101.67	4.07
479	101.42	4.06
484	102.61	4.1
489	102.5	4.1
494	101.69	4.07
499	102.17	4.09
504	102.99	4.12
509	102.18	4.09
514	100.27	4.01
519	96.88	3.88
524	98.84	3.95
529	97.84	3.91
534	99.15	3.97
539	97.79	3.91
543	97.7	3.91
548	97.62	3.9
553	98.93	3.96
558	98.58	3.94
568	98.34	3.93
573	98.95	3.96
578	98.65	3.95
583	99.14	3.97
588	98.88	3.96
593	100.12	4
598	98.39	3.94
603	99.23	3.97
608	100.21	4.01
613	99.21	3.97
618	100.47	4.02
623	100.62	4.02
628	99.41	3.98
633	99.03	3.96
638	100.94	4.04
643	100.9	4.04
648	106.81	4.27
653	99.85	3.99
653	102.18	4.09
658	101.21	4.05
663	102.1	4.08
668	99.19	3.97
673	98.9	3.96
678	101.61	4.06
683	98.15	3.93
688	99.94	4
693	98.07	3.92
698	97.98	3.92
703	96.7	3.87
708	97.79	3.91
713	99.85	3.99
717	99.17	3.97
722	99.02	3.96
727	99.08	3.96
732	99.98	4
737	99.41	3.98
742	101.93	4.08
747	100.1	4
752	104.88	4.2
757	100.82	4.03
762	101	4.04
767	101.85	4.07
772	102.41	4.1
777	103.2	4.13
782	102.71	4.11
787	101.9	4.08
792	101.02	4.04
797	101.52	4.06
802	101.51	4.06
807	99.68	3.99
812	103.05	4.12
817	103.73	4.15
822	102.94	4.12
827	103.83	4.15
832	99.83	3.99
837	98.83	3.95
842	101.98	4.08
847	103.78	4.15
852	103.32	4.13
857	99.15	3.97
862	102.98	4.12
867	101.94	4.08
872	105.24	4.21
877	101.33	4.05
882	103.27	4.13
887	97.19	3.89
892	97.82	3.91
897	98.26	3.93
902	101.94	4.08
907	97.88	3.92
911	97.43	3.9
916	100.85	4.03
921	97.21	3.89
926	100.73	4.03
931	95.04	3.8
936	99.59	3.98
941	98.67	3.95
946	99.44	3.98
951	102.23	4.09
956	103.73	4.15
961	99.7	3.99
966	98.27	3.93
971	101.79	4.07
976	102.55	4.1
981	97.92	3.92
986	104.37	4.17
991	100.42	4.02
996	107.17	4.29
1001	105.67	4.23
1006	110.34	4.41
1011	102.11	4.08
1016	100.99	4.04
1021	106.91	4.28
1026	105.87	4.23
1031	112.44	4.5
1036	99.98	4
1041	101.71	4.07
1046	101.91	4.08
1051	106.32	4.25
1056	110.86	4.43
1061	111.7	4.47
