Measured thermophysical data. High-Pressure Densities of the Binary Mixture Methyl Nonafluorobutyl Ether + Hexane
Source: J. Chem. Eng. Data, 2004, 10.1021/je049904g
Compound 1: hexane, C6H14, InChI=1S/C6H14/c1-3-5-6-4-2/h3-6H2,1-2H3, purity 99.5%
Compound 2: 1-methoxy-nonafluorobutane, C5H3F9O, InChI=1S/C5H3F9O/c1-15-5(13,14)3(8,9)2(6,7)4(10,11)12/h1H3, purity 99.8%
Compound 3: methyl nonafluoroisobutyl ether, C5H3F9O, InChI=1S/C5H3F9O/c1-15-5(13,14)2(6,3(7,8)9)4(10,11)12/h1H3

System: hexane + 1-methoxy-nonafluorobutane + methyl nonafluoroisobutyl ether; phases: Liquid
Fixed: Solvent: Mole fraction of 1-methoxy-nonafluorobutane = 0.391
Property: Mass density, kg/m3 (Liquid); method: VIBTUB:UFactor:4
Temperature, K	Pressure, kPa	Mole fraction of hexane	Mass density, kg/m3	uncertainty
283.15	100	0.051	1513.7	1
283.15	100	0.1041	1469.4	0.9
283.15	100	0.2085	1383.2	0.8
283.15	100	0.3063	1301.5	0.6
283.15	100	0.3863	1234	0.5
283.15	100	0.5072	1130.4	0.4
283.15	100	0.6105	1038.9	0.3
283.15	100	0.6799	976.3	0.3
283.15	100	0.7586	903.4	0.3
283.15	100	0.8492	817.7	0.4
283.15	100	0.9133	754.5	0.5
283.15	100	0.9531	715.1	0.6
283.15	1000	0.051	1516.1	1
283.15	1000	0.1041	1471.8	1
283.15	1000	0.2085	1385.6	0.8
283.15	1000	0.3063	1303.8	0.7
283.15	1000	0.3863	1236.1	0.6
283.15	1000	0.5072	1132.3	0.4
283.15	1000	0.6105	1040.6	0.3
283.15	1000	0.6799	978	0.3
283.15	1000	0.7586	904.8	0.3
283.15	1000	0.8492	818.9	0.5
283.15	1000	0.9133	755.5	0.6
283.15	1000	0.9531	716.1	0.6
283.15	2000	0.051	1519	1.1
283.15	2000	0.1041	1474.7	1
283.15	2000	0.2085	1388.3	0.9
283.15	2000	0.3063	1306.4	0.7
283.15	2000	0.3863	1238.6	0.6
283.15	2000	0.5072	1134.5	0.4
283.15	2000	0.6105	1042.5	0.3
283.15	2000	0.6799	979.7	0.3
283.15	2000	0.7586	906.4	0.4
283.15	2000	0.8492	820.2	0.5
283.15	2000	0.9133	756.7	0.6
283.15	2000	0.9531	717.2	0.7
283.15	3000	0.051	1521.9	1.2
283.15	3000	0.1041	1477.5	1.1
283.15	3000	0.2085	1391	0.9
283.15	3000	0.3063	1308.9	0.8
283.15	3000	0.3863	1240.9	0.7
283.15	3000	0.5072	1136.6	0.5
283.15	3000	0.6105	1044.5	0.3
283.15	3000	0.6799	981.5	0.3
283.15	3000	0.7586	908	0.4
283.15	3000	0.8492	821.6	0.5
283.15	3000	0.9133	757.9	0.6
283.15	3000	0.9531	718.3	0.7
283.15	4000	0.051	1524.5	1.3
283.15	4000	0.1041	1480	1.2
283.15	4000	0.2085	1393.4	1
283.15	4000	0.3063	1311.1	0.8
283.15	4000	0.3863	1243	0.7
283.15	4000	0.5072	1138.4	0.5
283.15	4000	0.6105	1046.1	0.3
283.15	4000	0.6799	982.9	0.3
283.15	4000	0.7586	909.2	0.4
283.15	4000	0.8492	822.7	0.5
283.15	4000	0.9133	758.8	0.7
283.15	4000	0.9531	719.1	0.8
283.15	5000	0.051	1527.5	1.4
283.15	5000	0.1041	1483	1.3
283.15	5000	0.2085	1396.2	1.1
283.15	5000	0.3063	1313.9	0.9
283.15	5000	0.3863	1245.6	0.7
283.15	5000	0.5072	1140.7	0.5
283.15	5000	0.6105	1048.2	0.3
283.15	5000	0.6799	984.9	0.3
283.15	5000	0.7586	911	0.4
283.15	5000	0.8492	824.2	0.6
283.15	5000	0.9133	760.3	0.7
283.15	5000	0.9531	720.4	0.8
283.15	7500	0.051	1534.1	1.6
283.15	7500	0.1041	1489.6	1.5
283.15	7500	0.2085	1402.3	1.2
283.15	7500	0.3063	1319.6	1
283.15	7500	0.3863	1251.1	0.8
283.15	7500	0.5072	1145.7	0.6
283.15	7500	0.6105	1052.6	0.3
283.15	7500	0.6799	988.9	0.3
283.15	7500	0.7586	914.6	0.4
283.15	7500	0.8492	827.4	0.6
283.15	7500	0.9133	762.9	0.8
283.15	7500	0.9531	722.9	0.9
283.15	10000	0.051	1540	1.8
283.15	10000	0.1041	1495.4	1.7
283.15	10000	0.2085	1407.9	1.4
283.15	10000	0.3063	1324.9	1.2
283.15	10000	0.3863	1256	0.9
283.15	10000	0.5072	1150.1	0.6
283.15	10000	0.6105	1056.5	0.4
283.15	10000	0.6799	992.5	0.3
283.15	10000	0.7586	917.7	0.4
283.15	10000	0.8492	829.9	0.7
283.15	10000	0.9133	765.3	0.9
283.15	10000	0.9531	725	1
283.15	12500	0.051	1546.4	2
283.15	12500	0.1041	1501.6	1.9
283.15	12500	0.2085	1413.8	1.6
283.15	12500	0.3063	1330.5	1.3
283.15	12500	0.3863	1261.3	1.1
283.15	12500	0.5072	1154.9	0.7
283.15	12500	0.6105	1060.8	0.4
283.15	12500	0.6799	996.5	0.3
283.15	12500	0.7586	921.3	0.4
283.15	12500	0.8492	833.1	0.7
283.15	12500	0.9133	768.1	0.9
283.15	12500	0.9531	727.5	1.1
283.15	15000	0.051	1552.3	2.3
283.15	15000	0.1041	1507.3	2.1
283.15	15000	0.2085	1419.3	1.8
283.15	15000	0.3063	1335.7	1.4
283.15	15000	0.3863	1266.2	1.2
283.15	15000	0.5072	1159.3	0.8
283.15	15000	0.6105	1064.7	0.4
283.15	15000	0.6799	1000.1	0.2
283.15	15000	0.7586	924.5	0.5
283.15	15000	0.8492	835.9	0.8
283.15	15000	0.9133	770.5	1
283.15	15000	0.9531	729.8	1.2
283.15	17500	0.051	1557.6	2.5
283.15	17500	0.1041	1512.4	2.3
283.15	17500	0.2085	1424.2	1.9
283.15	17500	0.3063	1340.3	1.6
283.15	17500	0.3863	1270.5	1.3
283.15	17500	0.5072	1163.2	0.8
283.15	17500	0.6105	1068.2	0.5
283.15	17500	0.6799	1003.2	0.3
283.15	17500	0.7586	927.3	0.5
283.15	17500	0.8492	838.3	0.8
283.15	17500	0.9133	772.6	1.1
283.15	17500	0.9531	731.7	1.3
283.15	20000	0.051	1563.3	2.8
283.15	20000	0.1041	1518.1	2.5
283.15	20000	0.2085	1429.6	2.1
283.15	20000	0.3063	1345.4	1.7
283.15	20000	0.3863	1275.3	1.4
283.15	20000	0.5072	1167.5	0.9
283.15	20000	0.6105	1072.1	0.5
283.15	20000	0.6799	1006.9	0.3
283.15	20000	0.7586	930.6	0.5
283.15	20000	0.8492	841.2	0.9
283.15	20000	0.9133	775.2	1.2
283.15	20000	0.9531	734.1	1.4
283.15	22500	0.051	1568.6	3
283.15	22500	0.1041	1523.2	2.8
283.15	22500	0.2085	1434.5	2.3
283.15	22500	0.3063	1350	1.9
283.15	22500	0.3863	1279.7	1.6
283.15	22500	0.5072	1171.6	1
283.15	22500	0.6105	1075.7	0.5
283.15	22500	0.6799	1010.2	0.3
283.15	22500	0.7586	933.6	0.5
283.15	22500	0.8492	843.7	0.9
283.15	22500	0.9133	777.5	1.3
283.15	22500	0.9531	736.2	1.5
283.15	25000	0.051	1573.4	3.2
283.15	25000	0.1041	1528	3
283.15	25000	0.2085	1439	2.5
283.15	25000	0.3063	1354.2	2.1
283.15	25000	0.3863	1283.7	1.7
283.15	25000	0.5072	1175.1	1.1
283.15	25000	0.6105	1078.8	0.6
283.15	25000	0.6799	1013.1	0.3
283.15	25000	0.7586	936.1	0.5
283.15	25000	0.8492	845.9	1
283.15	25000	0.9133	779.4	1.3
283.15	25000	0.9531	738	1.6
298.15	100	0.051	1475.4	0.9
298.15	100	0.1041	1432.2	0.8
298.15	100	0.2085	1348.4	0.7
298.15	100	0.3063	1268.8	0.6
298.15	100	0.3863	1203.2	0.5
298.15	100	0.5072	1102.6	0.4
298.15	100	0.6105	1013.9	0.3
298.15	100	0.6799	953.4	0.3
298.15	100	0.7586	882.7	0.4
298.15	100	0.8492	799.7	0.5
298.15	100	0.9133	738.4	0.6
298.15	100	0.9531	700.1	0.6
298.15	1000	0.051	1478.3	1
298.15	1000	0.1041	1435.2	0.9
298.15	1000	0.2085	1351.2	0.8
298.15	1000	0.3063	1271.5	0.6
298.15	1000	0.3863	1205.7	0.5
298.15	1000	0.5072	1104.7	0.4
298.15	1000	0.6105	1015.8	0.3
298.15	1000	0.6799	955.2	0.3
298.15	1000	0.7586	884.3	0.4
298.15	1000	0.8492	801	0.5
298.15	1000	0.9133	739.6	0.6
298.15	1000	0.9531	701.2	0.7
298.15	2000	0.051	1481.8	1.1
298.15	2000	0.1041	1438.6	1
298.15	2000	0.2085	1354.4	0.8
298.15	2000	0.3063	1274.5	0.7
298.15	2000	0.3863	1208.5	0.6
298.15	2000	0.5072	1107.3	0.4
298.15	2000	0.6105	1018.2	0.3
298.15	2000	0.6799	957.3	0.3
298.15	2000	0.7586	886.2	0.4
298.15	2000	0.8492	802.6	0.5
298.15	2000	0.9133	740.9	0.6
298.15	2000	0.9531	702.4	0.7
298.15	3000	0.051	1485.1	1.1
298.15	3000	0.1041	1441.7	1
298.15	3000	0.2085	1357.4	0.9
298.15	3000	0.3063	1277.3	0.7
298.15	3000	0.3863	1211.2	0.6
298.15	3000	0.5072	1109.7	0.4
298.15	3000	0.6105	1020.2	0.3
298.15	3000	0.6799	959.2	0.3
298.15	3000	0.7586	887.8	0.4
298.15	3000	0.8492	804.1	0.5
298.15	3000	0.9133	742.2	0.7
298.15	3000	0.9531	703.6	0.7
298.15	4000	0.051	1488.3	1.2
298.15	4000	0.1041	1444.9	1.1
298.15	4000	0.2085	1360.4	0.9
298.15	4000	0.3063	1280.2	0.8
298.15	4000	0.3863	1213.8	0.6
298.15	4000	0.5072	1112.1	0.4
298.15	4000	0.6105	1022.4	0.3
298.15	4000	0.6799	961.1	0.3
298.15	4000	0.7586	889.5	0.4
298.15	4000	0.8492	805.5	0.6
298.15	4000	0.9133	743.5	0.7
298.15	4000	0.9531	704.7	0.8
298.15	5000	0.051	1491.5	1.3
298.15	5000	0.1041	1448	1.2
298.15	5000	0.2085	1363.3	1
298.15	5000	0.3063	1282.9	0.8
298.15	5000	0.3863	1216.4	0.7
298.15	5000	0.5072	1114.4	0.4
298.15	5000	0.6105	1024.4	0.3
298.15	5000	0.6799	963	0.3
298.15	5000	0.7586	891.1	0.4
298.15	5000	0.8492	807	0.6
298.15	5000	0.9133	744.8	0.7
298.15	5000	0.9531	705.8	0.8
298.15	7500	0.051	1498.9	1.5
298.15	7500	0.1041	1455.3	1.4
298.15	7500	0.2085	1370.3	1.2
298.15	7500	0.3063	1289.5	0.9
298.15	7500	0.3863	1222.6	0.8
298.15	7500	0.5072	1119.9	0.5
298.15	7500	0.6105	1029.3	0.3
298.15	7500	0.6799	967.5	0.3
298.15	7500	0.7586	895.1	0.4
298.15	7500	0.8492	810.4	0.7
298.15	7500	0.9133	747.8	0.8
298.15	7500	0.9531	708.6	0.9
298.15	10000	0.051	1506.1	1.7
298.15	10000	0.1041	1462.4	1.6
298.15	10000	0.2085	1376.9	1.3
298.15	10000	0.3063	1295.8	1.1
298.15	10000	0.3863	1228.5	0.9
298.15	10000	0.5072	1125.2	0.6
298.15	10000	0.6105	1034	0.3
298.15	10000	0.6799	971.8	0.3
298.15	10000	0.7586	899	0.5
298.15	10000	0.8492	813.7	0.7
298.15	10000	0.9133	750.7	0.9
298.15	10000	0.9531	711.3	1
298.15	12500	0.051	1513	1.9
298.15	12500	0.1041	1469.1	1.8
298.15	12500	0.2085	1383.4	1.5
298.15	12500	0.3063	1301.8	1.2
298.15	12500	0.3863	1234.2	1
298.15	12500	0.5072	1130.3	0.6
298.15	12500	0.6105	1038.6	0.3
298.15	12500	0.6799	976	0.3
298.15	12500	0.7586	902.8	0.5
298.15	12500	0.8492	816.9	0.8
298.15	12500	0.9133	753.4	1
298.15	12500	0.9531	713.8	1.1
298.15	15000	0.051	1519.5	2.2
298.15	15000	0.1041	1475.5	2
298.15	15000	0.2085	1389.5	1.7
298.15	15000	0.3063	1307.6	1.3
298.15	15000	0.3863	1239.5	1.1
298.15	15000	0.5072	1135.2	0.7
298.15	15000	0.6105	1043	0.4
298.15	15000	0.6799	980	0.3
298.15	15000	0.7586	906.3	0.5
298.15	15000	0.8492	820	0.8
298.15	15000	0.9133	756	1.1
298.15	15000	0.9531	716.3	1.2
298.15	17500	0.051	1525.8	2.4
298.15	17500	0.1041	1481.7	2.2
298.15	17500	0.2085	1395.3	1.8
298.15	17500	0.3063	1313.1	1.5
298.15	17500	0.3863	1244.8	1.2
298.15	17500	0.5072	1139.8	0.8
298.15	17500	0.6105	1047.2	0.4
298.15	17500	0.6799	983.8	0.3
298.15	17500	0.7586	909.8	0.5
298.15	17500	0.8492	823	0.9
298.15	17500	0.9133	758.9	1.2
298.15	17500	0.9531	718.8	1.3
298.15	20000	0.051	1531.9	2.6
298.15	20000	0.1041	1487.6	2.4
298.15	20000	0.2085	1401	2
298.15	20000	0.3063	1318.5	1.6
298.15	20000	0.3863	1249.8	1.3
298.15	20000	0.5072	1144.4	0.8
298.15	20000	0.6105	1051.2	0.4
298.15	20000	0.6799	987.6	0.3
298.15	20000	0.7586	913.2	0.6
298.15	20000	0.8492	825.8	0.9
298.15	20000	0.9133	761.3	1.2
298.15	20000	0.9531	721.2	1.4
298.15	22500	0.051	1537.8	2.8
298.15	22500	0.1041	1493.4	2.6
298.15	22500	0.2085	1406.4	2.2
298.15	22500	0.3063	1323.6	1.8
298.15	22500	0.3863	1254.7	1.4
298.15	22500	0.5072	1148.9	0.9
298.15	22500	0.6105	1055.2	0.5
298.15	22500	0.6799	991.2	0.3
298.15	22500	0.7586	916.3	0.6
298.15	22500	0.8492	828.7	1
298.15	22500	0.9133	763.9	1.3
298.15	22500	0.9531	723.6	1.5
298.15	25000	0.051	1543.4	3.1
298.15	25000	0.1041	1498.9	2.8
298.15	25000	0.2085	1411.6	2.4
298.15	25000	0.3063	1328.5	1.9
298.15	25000	0.3863	1259.3	1.5
298.15	25000	0.5072	1153	1
298.15	25000	0.6105	1059	0.5
298.15	25000	0.6799	994.6	0.3
298.15	25000	0.7586	919.5	0.6
298.15	25000	0.8492	831.4	1.1
298.15	25000	0.9133	766.2	1.4
298.15	25000	0.9531	725.7	1.6
313.15	100	0.051	1435.1	0.9
313.15	100	0.1041	1393.1	0.8
313.15	100	0.2085	1311.9	0.7
313.15	100	0.3063	1234.2	0.5
313.15	100	0.3863	1170.6	0.5
313.15	100	0.5072	1073.4	0.3
313.15	100	0.6105	987.8	0.3
313.15	100	0.6799	929.4	0.3
313.15	100	0.7586	861	0.4
313.15	100	0.8492	780.8	0.5
313.15	100	0.9133	721.5	0.6
313.15	100	0.9531	684.5	0.6
313.15	1000	0.051	1439.5	0.9
313.15	1000	0.1041	1397.5	0.8
313.15	1000	0.2085	1315.5	0.7
313.15	1000	0.3063	1238.2	0.6
313.15	1000	0.3863	1174.4	0.5
313.15	1000	0.5072	1076.9	0.3
313.15	1000	0.6105	990.9	0.3
313.15	1000	0.6799	932.3	0.3
313.15	1000	0.7586	863.8	0.4
313.15	1000	0.8492	783.3	0.5
313.15	1000	0.9133	723.8	0.6
313.15	1000	0.9531	686.6	0.7
313.15	2000	0.051	1443.3	1
313.15	2000	0.1041	1401.3	0.9
313.15	2000	0.2085	1319.2	0.8
313.15	2000	0.3063	1241.7	0.6
313.15	2000	0.3863	1177.7	0.5
313.15	2000	0.5072	1079.7	0.3
313.15	2000	0.6105	993.4	0.3
313.15	2000	0.6799	934.6	0.3
313.15	2000	0.7586	865.9	0.4
313.15	2000	0.8492	785	0.6
313.15	2000	0.9133	725.2	0.7
313.15	2000	0.9531	687.9	0.7
313.15	3000	0.051	1447.2	1.1
313.15	3000	0.1041	1405	1
313.15	3000	0.2085	1322.8	0.8
313.15	3000	0.3063	1245	0.7
313.15	3000	0.3863	1180.8	0.5
313.15	3000	0.5072	1082.5	0.4
313.15	3000	0.6105	995.9	0.3
313.15	3000	0.6799	936.8	0.3
313.15	3000	0.7586	867.8	0.4
313.15	3000	0.8492	786.7	0.6
313.15	3000	0.9133	726.7	0.7
313.15	3000	0.9531	689.3	0.8
313.15	4000	0.051	1450.9	1.1
313.15	4000	0.1041	1408.7	1
313.15	4000	0.2085	1326.3	0.9
313.15	4000	0.3063	1248.2	0.7
313.15	4000	0.3863	1183.9	0.6
313.15	4000	0.5072	1085.2	0.4
313.15	4000	0.6105	998.3	0.3
313.15	4000	0.6799	939.1	0.3
313.15	4000	0.7586	869.8	0.4
313.15	4000	0.8492	788.3	0.6
313.15	4000	0.9133	728.1	0.7
313.15	4000	0.9531	690.6	0.8
313.15	5000	0.051	1454.5	1.2
313.15	5000	0.1041	1412.3	1.1
313.15	5000	0.2085	1329.6	0.9
313.15	5000	0.3063	1251.4	0.7
313.15	5000	0.3863	1186.9	0.6
313.15	5000	0.5072	1087.9	0.4
313.15	5000	0.6105	1000.7	0.3
313.15	5000	0.6799	941.1	0.3
313.15	5000	0.7586	871.7	0.5
313.15	5000	0.8492	789.9	0.6
313.15	5000	0.9133	729.5	0.8
313.15	5000	0.9531	691.8	0.9
313.15	7500	0.051	1463.2	1.4
313.15	7500	0.1041	1420.7	1.3
313.15	7500	0.2085	1337.7	1.1
313.15	7500	0.3063	1259	0.9
313.15	7500	0.3863	1194.1	0.7
313.15	7500	0.5072	1094.3	0.4
313.15	7500	0.6105	1006.4	0.3
313.15	7500	0.6799	946.3	0.3
313.15	7500	0.7586	876.2	0.5
313.15	7500	0.8492	793.9	0.7
313.15	7500	0.9133	733	0.9
313.15	7500	0.9531	695	1
313.15	10000	0.051	1471.4	1.6
313.15	10000	0.1041	1428.7	1.5
313.15	10000	0.2085	1345.3	1.2
313.15	10000	0.3063	1266.1	1
313.15	10000	0.3863	1200.7	0.8
313.15	10000	0.5072	1100.3	0.5
313.15	10000	0.6105	1011.7	0.3
313.15	10000	0.6799	951.2	0.3
313.15	10000	0.7586	880.5	0.5
313.15	10000	0.8492	797.5	0.8
313.15	10000	0.9133	736.2	1
313.15	10000	0.9531	698	1.1
313.15	12500	0.051	1479.1	1.8
313.15	12500	0.1041	1436.3	1.7
313.15	12500	0.2085	1352.6	1.4
313.15	12500	0.3063	1273	1.1
313.15	12500	0.3863	1207.2	0.9
313.15	12500	0.5072	1106	0.5
313.15	12500	0.6105	1016.8	0.3
313.15	12500	0.6799	955.9	0.3
313.15	12500	0.7586	885	0.6
313.15	12500	0.8492	801.1	0.8
313.15	12500	0.9133	739.3	1
313.15	12500	0.9531	700.8	1.2
313.15	15000	0.051	1486.5	2
313.15	15000	0.1041	1443.6	1.9
313.15	15000	0.2085	1359.5	1.5
313.15	15000	0.3063	1279.5	1.2
313.15	15000	0.3863	1213.2	1
313.15	15000	0.5072	1111.5	0.6
313.15	15000	0.6105	1021.7	0.3
313.15	15000	0.6799	960.4	0.3
313.15	15000	0.7586	888.7	0.6
313.15	15000	0.8492	804.5	0.9
313.15	15000	0.9133	742.4	1.1
313.15	15000	0.9531	703.7	1.3
313.15	17500	0.051	1493.6	2.2
313.15	17500	0.1041	1450.5	2.1
313.15	17500	0.2085	1366	1.7
313.15	17500	0.3063	1285.6	1.4
313.15	17500	0.3863	1219	1.1
313.15	17500	0.5072	1116.7	0.7
313.15	17500	0.6105	1026.4	0.3
313.15	17500	0.6799	964.7	0.3
313.15	17500	0.7586	892.5	0.6
313.15	17500	0.8492	807.8	1
313.15	17500	0.9133	745.3	1.2
313.15	17500	0.9531	706.3	1.4
313.15	20000	0.051	1500.4	2.5
313.15	20000	0.1041	1457.1	2.3
313.15	20000	0.2085	1372.2	1.9
313.15	20000	0.3063	1291.5	1.5
313.15	20000	0.3863	1224.6	1.2
313.15	20000	0.5072	1121.7	0.7
313.15	20000	0.6105	1030.8	0.3
313.15	20000	0.6799	968.7	0.3
313.15	20000	0.7586	896.2	0.6
313.15	20000	0.8492	811	1
313.15	20000	0.9133	748.1	1.3
313.15	20000	0.9531	708.9	1.5
313.15	22500	0.051	1506.8	2.7
313.15	22500	0.1041	1463.4	2.5
313.15	22500	0.2085	1378.2	2
313.15	22500	0.3063	1297.2	1.6
313.15	22500	0.3863	1229.9	1.3
313.15	22500	0.5072	1126.5	0.8
313.15	22500	0.6105	1035.1	0.4
313.15	22500	0.6799	972.7	0.3
313.15	22500	0.7586	899.7	0.7
313.15	22500	0.8492	814.1	1.1
313.15	22500	0.9133	750.8	1.4
313.15	22500	0.9531	711.3	1.6
313.15	25000	0.051	1513.1	2.9
313.15	25000	0.1041	1469.5	2.7
313.15	25000	0.2085	1384	2.2
313.15	25000	0.3063	1302.6	1.8
313.15	25000	0.3863	1235	1.4
313.15	25000	0.5072	1131.1	0.9
313.15	25000	0.6105	1039.3	0.4
313.15	25000	0.6799	976.4	0.3
313.15	25000	0.7586	903.1	0.7
313.15	25000	0.8492	817	1.1
313.15	25000	0.9133	753.4	1.5
313.15	25000	0.9531	713.8	1.7
