Measured thermophysical data. Solubility of Acetazolamide in Supercritical Carbon Dioxide in the Presence of Ethanol as a Cosolvent
Source: J. Chem. Eng. Data, 2005, 10.1021/je049722m
Compound 1: 5-acetamido-1,3,4-thiadiazole-2-sulphonamide, C4H6N4O3S2, InChI=1S/C4H6N4O3S2/c1-2(9)6-3-7-8-4(12-3)13(5,10)11/h1H3,(H2,5,10,11)(H,6,7,9)
Compound 2: ethanol, C2H6O, InChI=1S/C2H6O/c1-2-3/h3H,2H2,1H3
Compound 3: carbon dioxide, CO2, InChI=1S/CO2/c2-1-3

System: 5-acetamido-1,3,4-thiadiazole-2-sulphonamide + ethanol + carbon dioxide; phases: Fluid (supercritical or subcritical phases), Crystal
Property: Mole fraction of 5-acetamido-1,3,4-thiadiazole-2-sulphonamide (Fluid (supercritical or subcritical phases)); method: analyzed by UV spectrophotometry after capture in a trap
Temperature, K	Solvent: Mole fraction of ethanol	Pressure, kPa	Mole fraction of 5-acetamido-1,3,4-thiadiazole-2-sulphonamide	uncertainty
313	0.05	15000	5.7e-06	5.7e-07
313	0.05	17200	6.69e-06	6.7e-07
313	0.05	18100	7.26e-06	7.3e-07
313	0.05	20200	8.88e-06	8.9e-07
313	0.075	15000	8.3e-06	8.3e-07
313	0.075	17100	8.42e-06	8.4e-07
313	0.075	18200	1.011e-05	1.01e-06
313	0.1	13100	1.05e-05	1.05e-06
313	0.1	15100	1.19e-05	1.19e-06
313	0.1	17100	1.277e-05	1.28e-06
313	0.1	18100	1.266e-05	1.27e-06
313	0.1	20100	1.392e-05	1.39e-06
323	0.05	15100	7.35e-06	7.4e-07
323	0.05	17100	7.99e-06	8e-07
323	0.05	18100	8.39e-06	8.4e-07
323	0.05	20100	8.98e-06	9e-07
