Measured thermophysical data. Excess Molar Volumes and Viscosities of Binary Mixtures of Dimethyl Carbonate with Chlorobenzene, Hexane, and Heptane from (293.15 to 353.15) K and at Atmospheric Pressure
Source: J. Chem. Eng. Data, 2004, 10.1021/je049777o
Compound 1: dimethyl carbonate, C3H6O3, InChI=1S/C3H6O3/c1-5-3(4)6-2/h1-2H3
Compound 2: chlorobenzene, C6H5Cl, InChI=1S/C6H5Cl/c7-6-4-2-1-3-5-6/h1-5H
Compound 3: hexane, C6H14, InChI=1S/C6H14/c1-3-5-6-4-2/h3-6H2,1-2H3
Compound 4: heptane, C7H16, InChI=1S/C7H16/c1-3-5-7-6-4-2/h3-7H2,1-2H3

System: dimethyl carbonate; phases: Liquid
Fixed: Pressure, kPa = 101.3
Property: Viscosity, Pa*s (Liquid); method: CAPTUB:UFactor:4
Temperature, K	Viscosity, Pa*s	uncertainty
293.15	0.0006163	1.64e-05
293.15	0.0006173	9.6e-06
298.15	0.0005771	1.56e-05
298.15	0.0005734	9.3e-06
303.15	0.0005433	1.48e-05
303.15	0.0005403	9e-06
313.15	0.000482	1.4e-05
313.15	0.0004807	8.6e-06
323.15	0.0004319	1.28e-05
323.15	0.000427	8.2e-06
333.15	0.0003893	1.21e-05
343.15	0.0003527	1.15e-05

System: dimethyl carbonate; phases: Liquid
Fixed: Pressure, kPa = 101.3
Property: Mass density, kg/m3 (Liquid); method: VIBTUB:UFactor:4
Temperature, K	Mass density, kg/m3	uncertainty
293.15	1069.54	0.24
298.15	1062.95	0.23
303.15	1056.35	0.23
313.15	1043.01	0.21
323.15	1029.59	0.19
333.15	1016	0.18
343.15	1002.32	0.16

System: chlorobenzene; phases: Liquid
Fixed: Pressure, kPa = 101.3
Property: Viscosity, Pa*s (Liquid); method: CAPTUB:UFactor:4
Temperature, K	Viscosity, Pa*s	uncertainty
293.15	0.0008084	2.07e-05
298.15	0.0007422	1.92e-05
303.15	0.0007053	1.84e-05
313.15	0.000631	1.68e-05
323.15	0.0005677	1.54e-05
333.15	0.0005069	1.42e-05
343.15	0.0004658	1.35e-05

System: chlorobenzene; phases: Liquid
Fixed: Pressure, kPa = 101.3
Property: Mass density, kg/m3 (Liquid); method: VIBTUB:UFactor:4
Temperature, K	Mass density, kg/m3	uncertainty
293.15	1106.74	0.4
298.15	1101.33	0.4
303.15	1095.96	0.39
313.15	1085.06	0.38
323.15	1074.26	0.36
333.15	1063.32	0.35
343.15	1052.44	0.34

System: hexane; phases: Liquid
Fixed: Pressure, kPa = 101.3
Property: Viscosity, Pa*s (Liquid); method: CAPTUB:UFactor:2
Temperature, K	Viscosity, Pa*s	uncertainty
293.15	0.000302	7.5e-06
298.15	0.0002886	7.4e-06
303.15	0.0002774	7.3e-06
313.15	0.0002504	7.2e-06
323.15	0.0002339	7.1e-06
333.15	0.0002114	7e-06

System: hexane; phases: Liquid
Fixed: Pressure, kPa = 101.3
Property: Mass density, kg/m3 (Liquid); method: VIBTUB:UFactor:4
Temperature, K	Mass density, kg/m3	uncertainty
293.15	662	0.67
298.15	657.44	0.68
303.15	652.87	0.69
313.15	643.55	0.7
323.15	634.07	0.71
333.15	624.39	0.73

System: heptane; phases: Liquid
Fixed: Pressure, kPa = 101.3
Property: Viscosity, Pa*s (Liquid); method: CAPTUB:UFactor:2
Temperature, K	Viscosity, Pa*s	uncertainty
293.15	0.0004038	8.3e-06
298.15	0.0003831	8.2e-06
303.15	0.0003629	8e-06
313.15	0.0003274	7.8e-06
323.15	0.000298	7.6e-06
333.15	0.0002704	7.4e-06
343.15	0.0002487	7.2e-06

System: heptane; phases: Liquid
Fixed: Pressure, kPa = 101.3
Property: Mass density, kg/m3 (Liquid); method: VIBTUB:UFactor:4
Temperature, K	Mass density, kg/m3	uncertainty
293.15	687.14	0.71
298.15	682.91	0.71
303.15	678.61	0.71
313.15	669.91	0.72
323.15	661.16	0.73
333.15	652.26	0.75
343.15	643.31	0.76

System: hexane + dimethyl carbonate; phases: Liquid
Fixed: Pressure, kPa = 101.3
Property: Viscosity, Pa*s (Liquid); method: CAPTUB:UFactor:2
Temperature, K	Mole fraction of dimethyl carbonate	Viscosity, Pa*s	uncertainty
293.15	0	0.000302	7.5e-06
293.15	0.0961	0.0003032	7.5e-06
293.15	0.193	0.0003094	7.5e-06
293.15	0.2909	0.0003213	7.6e-06
293.15	0.3894	0.000341	7.7e-06
293.15	0.489	0.0003647	7.8e-06
293.15	0.5893	0.0003939	8e-06
293.15	0.6906	0.000427	8.2e-06
293.15	0.7928	0.0004715	8.5e-06
293.15	0.896	0.000542	9.1e-06
293.15	1	0.0006173	9.6e-06
298.15	0	0.0002886	7.4e-06
298.15	0.0961	0.0002901	7.4e-06
298.15	0.193	0.000294	7.4e-06
298.15	0.2909	0.000306	7.5e-06
298.15	0.3894	0.0003232	7.6e-06
298.15	0.489	0.0003449	7.7e-06
298.15	0.5893	0.0003709	7.9e-06
298.15	0.6906	0.0004024	8.1e-06
298.15	0.7928	0.0004472	8.4e-06
298.15	0.896	0.0005031	8.8e-06
298.15	1	0.0005734	9.3e-06
303.15	0	0.0002774	7.3e-06
303.15	0.0961	0.000279	7.3e-06
303.15	0.193	0.0002817	7.3e-06
303.15	0.2909	0.0002923	7.4e-06
303.15	0.3894	0.0003061	7.5e-06
303.15	0.489	0.0003252	7.6e-06
303.15	0.5893	0.0003502	7.7e-06
303.15	0.6906	0.0003808	7.9e-06
303.15	0.7928	0.0004221	8.2e-06
303.15	0.896	0.0004748	8.6e-06
303.15	1	0.0005403	9e-06
313.15	0	0.0002504	7.2e-06
313.15	0.0961	0.0002513	7.2e-06
313.15	0.193	0.0002555	7.2e-06
313.15	0.2909	0.0002645	7.2e-06
313.15	0.3894	0.000277	7.3e-06
313.15	0.489	0.0002938	7.4e-06
313.15	0.5893	0.0003163	7.5e-06
313.15	0.6906	0.0003417	7.7e-06
313.15	0.7928	0.0003763	7.9e-06
313.15	0.896	0.0004229	8.2e-06
313.15	1	0.0004807	8.6e-06
323.15	0	0.0002339	7.1e-06
323.15	0.0961	0.0002333	7.1e-06
323.15	0.193	0.0002344	7.1e-06
323.15	0.2909	0.0002423	7.1e-06
323.15	0.3894	0.0002536	7.2e-06
323.15	0.489	0.0002681	7.3e-06
323.15	0.5893	0.000288	7.4e-06
323.15	0.6906	0.0003101	7.5e-06
323.15	0.7928	0.0003404	7.7e-06
323.15	0.896	0.0003781	7.9e-06
323.15	1	0.000427	8.2e-06
333.15	0	0.0002114	7e-06
333.15	0.0961	0.000213	7e-06
333.15	0.193	0.0002167	7e-06
333.15	0.2909	0.0002239	7e-06
333.15	0.3894	0.000234	7.1e-06
333.15	0.489	0.0002466	7.1e-06
333.15	0.5893	0.0002639	7.2e-06
333.15	0.6906	0.0002842	7.3e-06
333.15	0.7928	0.0003117	7.5e-06
333.15	0.896	0.0003447	7.7e-06
333.15	1	0.0003893	8e-06

System: hexane + dimethyl carbonate; phases: Liquid
Fixed: Pressure, kPa = 101.3
Property: Mass density, kg/m3 (Liquid); method: VIBTUB:UFactor:4
Temperature, K	Mole fraction of dimethyl carbonate	Mass density, kg/m3	uncertainty
293.15	0	662	0.67
293.15	0.0961	685.68	0.64
293.15	0.193	712.34	0.6
293.15	0.2909	741.99	0.55
293.15	0.3894	774.82	0.5
293.15	0.489	811.38	0.44
293.15	0.5893	851.98	0.38
293.15	0.6906	897.34	0.32
293.15	0.7928	948.58	0.25
293.15	0.896	1006.55	0.21
293.15	1	1069.54	0.24
298.15	0	657.44	0.68
298.15	0.0961	680.92	0.65
298.15	0.193	707.38	0.6
298.15	0.2909	736.8	0.56
298.15	0.3894	769.42	0.51
298.15	0.489	805.8	0.45
298.15	0.5893	846.19	0.39
298.15	0.6906	891.45	0.33
298.15	0.7928	942.39	0.26
298.15	0.896	1000.17	0.21
298.15	1	1062.95	0.23
303.15	0	652.87	0.69
303.15	0.0961	676.14	0.65
303.15	0.193	702.37	0.61
303.15	0.2909	731.62	0.57
303.15	0.3894	764.04	0.52
303.15	0.489	800.21	0.46
303.15	0.5893	840.41	0.4
303.15	0.6906	885.48	0.33
303.15	0.7928	936.19	0.27
303.15	0.896	993.78	0.21
303.15	1	1056.35	0.23
313.15	0	643.55	0.7
313.15	0.0961	666.41	0.67
313.15	0.193	692.21	0.63
313.15	0.2909	721.04	0.58
313.15	0.3894	753.05	0.53
313.15	0.489	788.82	0.48
313.15	0.5893	828.62	0.42
313.15	0.6906	873.34	0.35
313.15	0.7928	923.65	0.28
313.15	0.896	980.84	0.22
313.15	1	1043.01	0.21
323.15	0	634.07	0.71
323.15	0.0961	656.55	0.68
323.15	0.193	681.9	0.64
323.15	0.2909	710.27	0.6
323.15	0.3894	741.92	0.55
323.15	0.489	777.28	0.49
323.15	0.5893	816.69	0.43
323.15	0.6906	861.07	0.37
323.15	0.7928	910.98	0.3
323.15	0.896	967.8	0.23
323.15	1	1029.59	0.19
333.15	0	624.39	0.73
333.15	0.0961	646.44	0.7
333.15	0.193	671.36	0.66
333.15	0.2909	699.25	0.61
333.15	0.3894	730.55	0.56
333.15	0.489	765.5	0.51
333.15	0.5893	804.52	0.45
333.15	0.6906	848.53	0.39
333.15	0.7928	898.13	0.31
333.15	0.896	954.54	0.24
333.15	1	1016	0.18

System: heptane + dimethyl carbonate; phases: Liquid
Fixed: Pressure, kPa = 101.3
Property: Viscosity, Pa*s (Liquid); method: CAPTUB:UFactor:2
Temperature, K	Mole fraction of dimethyl carbonate	Viscosity, Pa*s	uncertainty
293.15	0	0.0004038	8.3e-06
293.15	0.1099	0.0003932	8.2e-06
293.15	0.2176	0.0003924	8.2e-06
293.15	0.3229	0.0004001	8.2e-06
293.15	0.4259	0.0004139	8.2e-06
293.15	0.5266	0.0004321	8.3e-06
293.15	0.6252	0.0004541	8.5e-06
293.15	0.7218	0.0004774	8.6e-06
293.15	0.8165	0.0005078	8.8e-06
293.15	0.9092	0.0005511	9.1e-06
293.15	1	0.0006173	9.6e-06
298.15	0	0.0003831	8.2e-06
298.15	0.1099	0.0003737	8.1e-06
298.15	0.2176	0.0003723	8e-06
298.15	0.3229	0.0003796	8e-06
298.15	0.4259	0.0003911	8.1e-06
298.15	0.5266	0.0004095	8.2e-06
298.15	0.6252	0.0004261	8.3e-06
298.15	0.7218	0.00045	8.4e-06
298.15	0.8165	0.0004779	8.6e-06
298.15	0.9092	0.0005169	8.9e-06
298.15	1	0.0005734	9.3e-06
303.15	0	0.0003629	8e-06
303.15	0.1099	0.0003559	7.9e-06
303.15	0.2176	0.000353	7.9e-06
303.15	0.3229	0.0003585	7.9e-06
303.15	0.4259	0.0003719	8e-06
303.15	0.5266	0.0003855	8e-06
303.15	0.6252	0.0004015	8.1e-06
303.15	0.7218	0.000423	8.2e-06
303.15	0.8165	0.0004491	8.4e-06
303.15	0.9092	0.0004793	8.6e-06
303.15	1	0.0005403	9e-06
313.15	0	0.0003274	7.8e-06
313.15	0.1099	0.00032	7.7e-06
313.15	0.2176	0.0003195	7.7e-06
313.15	0.3229	0.0003248	7.7e-06
313.15	0.4259	0.0003316	7.7e-06
313.15	0.5266	0.0003435	7.7e-06
313.15	0.6252	0.0003588	7.8e-06
313.15	0.7218	0.0003777	7.9e-06
313.15	0.8165	0.000402	8.1e-06
313.15	0.9092	0.0004335	8.3e-06
313.15	1	0.0004807	8.6e-06
323.15	0	0.000298	7.6e-06
323.15	0.1099	0.0002905	7.5e-06
323.15	0.2176	0.000292	7.5e-06
323.15	0.3229	0.0002932	7.5e-06
323.15	0.4259	0.0002997	7.5e-06
323.15	0.5266	0.0003118	7.5e-06
323.15	0.6252	0.0003251	7.6e-06
323.15	0.7218	0.0003403	7.7e-06
323.15	0.8165	0.0003615	7.8e-06
323.15	0.9092	0.0003906	8e-06
323.15	1	0.000427	8.2e-06
333.15	0	0.0002704	7.4e-06
333.15	0.1099	0.0002666	7.3e-06
333.15	0.2176	0.0002648	7.3e-06
333.15	0.3229	0.000267	7.3e-06
333.15	0.4259	0.000273	7.3e-06
333.15	0.5266	0.0002828	7.4e-06
333.15	0.6252	0.0002946	7.4e-06
333.15	0.7218	0.0003099	7.5e-06
333.15	0.8165	0.0003291	7.6e-06
333.15	0.9092	0.0003543	7.8e-06
333.15	1	0.0003893	8e-06
343.15	0	0.0002487	7.2e-06
343.15	0.1099	0.0002437	7.2e-06
343.15	0.2176	0.0002429	7.2e-06
343.15	0.3229	0.0002462	7.2e-06
343.15	0.4259	0.0002512	7.2e-06
343.15	0.5266	0.0002603	7.2e-06
343.15	0.6252	0.0002725	7.3e-06
343.15	0.7218	0.0002851	7.4e-06
343.15	0.8165	0.0003015	7.4e-06
343.15	0.9092	0.0003252	7.6e-06
343.15	1	0.0003527	7.7e-06

System: heptane + dimethyl carbonate; phases: Liquid
Fixed: Pressure, kPa = 101.3
Property: Mass density, kg/m3 (Liquid); method: VIBTUB:UFactor:4
Temperature, K	Mole fraction of dimethyl carbonate	Mass density, kg/m3	uncertainty
293.15	0	687.14	0.71
293.15	0.1099	709.87	0.66
293.15	0.2176	735.33	0.62
293.15	0.3229	763.59	0.57
293.15	0.4259	794.8	0.51
293.15	0.5266	829.38	0.46
293.15	0.6252	867.51	0.39
293.15	0.7218	910.1	0.32
293.15	0.8165	957.71	0.26
293.15	0.9092	1011.41	0.23
293.15	1	1069.54	0.24
298.15	0	682.91	0.71
298.15	0.1099	705.39	0.67
298.15	0.2176	730.61	0.62
298.15	0.3229	758.68	0.57
298.15	0.4259	789.63	0.52
298.15	0.5266	823.98	0.46
298.15	0.6252	861.86	0.4
298.15	0.7218	904.23	0.33
298.15	0.8165	951.63	0.27
298.15	0.9092	1005.04	0.22
298.15	1	1062.95	0.23
303.15	0	678.61	0.71
303.15	0.1099	700.93	0.67
303.15	0.2176	725.89	0.63
303.15	0.3229	753.73	0.58
303.15	0.4259	784.46	0.53
303.15	0.5266	818.56	0.47
303.15	0.6252	856.24	0.41
303.15	0.7218	898.37	0.34
303.15	0.8165	945.53	0.27
303.15	0.9092	998.7	0.22
303.15	1	1056.35	0.23
313.15	0	669.91	0.72
313.15	0.1099	691.78	0.68
313.15	0.2176	716.32	0.64
313.15	0.3229	743.68	0.59
313.15	0.4259	773.95	0.54
313.15	0.5266	807.58	0.48
313.15	0.6252	844.82	0.42
313.15	0.7218	886.49	0.35
313.15	0.8165	933.18	0.28
313.15	0.9092	985.81	0.23
313.15	1	1043.01	0.21
323.15	0	661.16	0.73
323.15	0.1099	682.57	0.7
323.15	0.2176	706.62	0.65
323.15	0.3229	733.52	0.6
323.15	0.4259	763.34	0.55
323.15	0.5266	796.47	0.5
323.15	0.6252	833.28	0.43
323.15	0.7218	874.5	0.37
323.15	0.8165	920.24	0.3
323.15	0.9092	972.84	0.24
323.15	1	1029.59	0.19
333.15	0	652.26	0.75
333.15	0.1099	673.2	0.71
333.15	0.2176	696.76	0.66
333.15	0.3229	723.19	0.62
333.15	0.4259	752.53	0.57
333.15	0.5266	785.19	0.51
333.15	0.6252	821.51	0.45
333.15	0.7218	862.31	0.38
333.15	0.8165	908.07	0.31
333.15	0.9092	959.74	0.25
333.15	1	1016	0.18
343.15	0	643.31	0.76
343.15	0.1099	663.69	0.72
343.15	0.2176	686.83	0.68
343.15	0.3229	712.79	0.63
343.15	0.4259	741.63	0.58
343.15	0.5266	773.79	0.53
343.15	0.6252	809.67	0.47
343.15	0.7218	850.05	0.4
343.15	0.8165	894.95	0.33
343.15	0.9092	946.54	0.26
343.15	1	1002.32	0.16

System: chlorobenzene + dimethyl carbonate; phases: Liquid
Fixed: Pressure, kPa = 101.3
Property: Viscosity, Pa*s (Liquid); method: CAPTUB:UFactor:4
Temperature, K	Mole fraction of dimethyl carbonate	Viscosity, Pa*s	uncertainty
293.15	0	0.0008084	2.07e-05
293.15	0.1225	0.0007794	2e-05
293.15	0.238	0.0007586	1.95e-05
293.15	0.3499	0.0007315	1.89e-05
293.15	0.4545	0.0007132	1.85e-05
293.15	0.5559	0.000698	1.82e-05
293.15	0.6518	0.0006805	1.78e-05
293.15	0.7445	0.0006567	1.73e-05
293.15	0.8332	0.0006449	1.7e-05
293.15	0.9182	0.0006244	1.66e-05
293.15	1	0.0006163	1.64e-05
298.15	0	0.0007422	1.92e-05
298.15	0.1225	0.0007318	1.9e-05
298.15	0.238	0.0007193	1.87e-05
298.15	0.3499	0.0006956	1.82e-05
298.15	0.4545	0.0006864	1.8e-05
298.15	0.5559	0.0006627	1.74e-05
298.15	0.6518	0.0006427	1.7e-05
298.15	0.7445	0.0006226	1.66e-05
298.15	0.8332	0.0006017	1.61e-05
298.15	0.9182	0.0005856	1.58e-05
298.15	1	0.0005771	1.56e-05
303.15	0	0.0007053	1.84e-05
303.15	0.1225	0.0006862	1.8e-05
303.15	0.238	0.0006624	1.75e-05
303.15	0.3499	0.000646	1.71e-05
303.15	0.4545	0.0006408	1.7e-05
303.15	0.5559	0.0006134	1.64e-05
303.15	0.6518	0.0006014	1.61e-05
303.15	0.7445	0.0005781	1.56e-05
303.15	0.8332	0.0005632	1.53e-05
303.15	0.9182	0.0005487	1.5e-05
303.15	1	0.0005433	1.48e-05
313.15	0	0.000631	1.68e-05
313.15	0.1225	0.0006145	1.64e-05
313.15	0.238	0.0005875	1.58e-05
313.15	0.3499	0.0005709	1.55e-05
313.15	0.4545	0.000563	1.53e-05
313.15	0.5559	0.0005423	1.48e-05
313.15	0.6518	0.0005322	1.46e-05
313.15	0.7445	0.0005192	1.44e-05
313.15	0.8332	0.0004992	1.4e-05
313.15	0.9182	0.0004874	1.38e-05
313.15	1	0.000482	1.4e-05
323.15	0	0.0005677	1.54e-05
323.15	0.1225	0.0005546	1.51e-05
323.15	0.238	0.0005273	1.46e-05
323.15	0.3499	0.0005145	1.43e-05
323.15	0.4545	0.0005039	1.41e-05
323.15	0.5559	0.0004878	1.38e-05
323.15	0.6518	0.0004729	1.36e-05
323.15	0.7445	0.0004591	1.33e-05
323.15	0.8332	0.0004468	1.31e-05
323.15	0.9182	0.0004365	1.29e-05
323.15	1	0.0004319	1.28e-05
333.15	0	0.0005069	1.42e-05
333.15	0.1225	0.0004954	1.4e-05
333.15	0.238	0.0004791	1.37e-05
333.15	0.3499	0.0004619	1.34e-05
333.15	0.4545	0.000452	1.32e-05
333.15	0.5559	0.0004401	1.3e-05
333.15	0.6518	0.0004277	1.28e-05
333.15	0.7445	0.000415	1.26e-05
333.15	0.8332	0.0004046	1.24e-05
333.15	0.9182	0.0003949	1.22e-05
333.15	1	0.0003893	1.21e-05
343.15	0	0.0004658	1.35e-05
343.15	0.1225	0.000455	1.33e-05
343.15	0.238	0.0004326	1.29e-05
343.15	0.3499	0.0004242	1.27e-05
343.15	0.4545	0.0004142	1.26e-05
343.15	0.5559	0.0003978	1.23e-05
343.15	0.6518	0.0003879	1.21e-05
343.15	0.7445	0.000377	1.19e-05
343.15	0.8332	0.0003678	1.17e-05
343.15	0.9182	0.0003609	1.16e-05
343.15	1	0.0003527	1.15e-05

System: chlorobenzene + dimethyl carbonate; phases: Liquid
Fixed: Pressure, kPa = 101.3
Property: Mass density, kg/m3 (Liquid); method: VIBTUB:UFactor:4
Temperature, K	Mole fraction of dimethyl carbonate	Mass density, kg/m3	uncertainty
293.15	0	1106.74	0.4
293.15	0.1225	1102.19	0.38
293.15	0.238	1097.84	0.36
293.15	0.3499	1093.69	0.34
293.15	0.4545	1089.67	0.32
293.15	0.5559	1085.85	0.3
293.15	0.6518	1082.22	0.29
293.15	0.7445	1078.84	0.27
293.15	0.8332	1075.58	0.26
293.15	0.9182	1072.42	0.25
293.15	1	1069.54	0.24
298.15	0	1101.33	0.4
298.15	0.1225	1096.65	0.37
298.15	0.238	1092.16	0.35
298.15	0.3499	1087.88	0.33
298.15	0.4545	1083.72	0.31
298.15	0.5559	1079.81	0.29
298.15	0.6518	1076.05	0.28
298.15	0.7445	1072.55	0.26
298.15	0.8332	1069.17	0.25
298.15	0.9182	1065.93	0.24
298.15	1	1062.95	0.23
303.15	0	1095.96	0.39
303.15	0.1225	1091.12	0.36
303.15	0.238	1086.51	0.34
303.15	0.3499	1082.09	0.32
303.15	0.4545	1077.8	0.3
303.15	0.5559	1073.76	0.28
303.15	0.6518	1069.91	0.27
303.15	0.7445	1066.28	0.26
303.15	0.8332	1062.78	0.24
303.15	0.9182	1059.45	0.23
303.15	1	1056.35	0.23
313.15	0	1085.06	0.38
313.15	0.1225	1079.97	0.35
313.15	0.238	1075.08	0.33
313.15	0.3499	1070.36	0.31
313.15	0.4545	1065.81	0.29
313.15	0.5559	1061.54	0.27
313.15	0.6518	1057.46	0.25
313.15	0.7445	1053.56	0.24
313.15	0.8332	1049.86	0.23
313.15	0.9182	1046.32	0.22
313.15	1	1043.01	0.21
323.15	0	1074.26	0.36
323.15	0.1225	1068.8	0.34
323.15	0.238	1063.63	0.31
323.15	0.3499	1058.61	0.29
323.15	0.4545	1053.8	0.27
323.15	0.5559	1049.32	0.26
323.15	0.6518	1044.96	0.24
323.15	0.7445	1040.83	0.23
323.15	0.8332	1036.88	0.21
323.15	0.9182	1033.12	0.2
323.15	1	1029.59	0.19
333.15	0	1063.32	0.35
333.15	0.1225	1057.53	0.33
333.15	0.238	1052.07	0.3
333.15	0.3499	1046.76	0.28
333.15	0.4545	1041.66	0.26
333.15	0.5559	1036.93	0.24
333.15	0.6518	1032.33	0.23
333.15	0.7445	1027.92	0.21
333.15	0.8332	1023.72	0.2
333.15	0.9182	1019.74	0.19
333.15	1	1016	0.18
343.15	0	1052.44	0.34
343.15	0.1225	1046.33	0.31
343.15	0.238	1040.54	0.29
343.15	0.3499	1034.93	0.27
343.15	0.4545	1029.51	0.25
343.15	0.5559	1024.52	0.23
343.15	0.6518	1019.67	0.21
343.15	0.7445	1014.99	0.2
343.15	0.8332	1010.53	0.19
343.15	0.9182	1006.31	0.17
343.15	1	1002.32	0.16
