Measured thermophysical data. Excess Molar volumes and Surface Tensions of Trimethylbenzene with Tetrahydrofuran Tetrachloromethane and Dimethylsulfoxide at 298.15 K
Source: J. Chem. Eng. Data, 2004, 10.1021/je0497294
Compound 1: 1,2,4-trimethylbenzene, C9H12, InChI=1S/C9H12/c1-7-4-5-8(2)9(3)6-7/h4-6H,1-3H3, purity 99.2%
Compound 2: 1,3,5-trimethylbenzene, C9H12, InChI=1S/C9H12/c1-7-4-8(2)6-9(3)5-7/h4-6H,1-3H3, purity 99.3%
Compound 3: tetrahydrofuran, C4H8O, InChI=1S/C4H8O/c1-2-4-5-3-1/h1-4H2, purity 99.99%
Compound 4: tetrachloromethane, CCl4, InChI=1S/CCl4/c2-1(3,4)5, purity 99.6%
Compound 5: dimethyl sulfoxide, C2H6OS, InChI=1S/C2H6OS/c1-4(2)3/h1-2H3, purity 99.32%

System: 1,2,4-trimethylbenzene; phases: Liquid
Property: Mass density, kg/m3 (Liquid); method: VIBTUB:UFactor:2
Temperature, K	Pressure, kPa	Mass density, kg/m3	uncertainty
298.15	101.325	871.64	0.41

System: 1,2,4-trimethylbenzene; phases: Liquid, Gas
Property: Surface tension liquid-gas, N/m (Liquid); method: Pendant drop shape
Temperature, K	Surface tension liquid-gas, N/m	uncertainty
298.15	0.02925	0.00033

System: 1,3,5-trimethylbenzene; phases: Liquid
Property: Mass density, kg/m3 (Liquid); method: VIBTUB:UFactor:2
Temperature, K	Pressure, kPa	Mass density, kg/m3	uncertainty
298.15	101.325	861.03	0.38

System: 1,3,5-trimethylbenzene; phases: Liquid, Gas
Fixed: Temperature, K = 298.15
Property: Surface tension liquid-gas, N/m (Liquid); method: Pendant drop shape
Surface tension liquid-gas, N/m	uncertainty
0.02809	0.00031
0.02676	0.0003

System: tetrahydrofuran; phases: Liquid
Property: Mass density, kg/m3 (Liquid); method: VIBTUB:UFactor:2
Temperature, K	Pressure, kPa	Mass density, kg/m3	uncertainty
298.15	101.325	882.06	0.21

System: tetrahydrofuran; phases: Liquid, Gas
Property: Surface tension liquid-gas, N/m (Liquid); method: Pendant drop shape
Temperature, K	Surface tension liquid-gas, N/m	uncertainty
298.15	0.02704	0.00029

System: tetrachloromethane; phases: Liquid
Property: Mass density, kg/m3 (Liquid); method: VIBTUB:UFactor:2
Temperature, K	Pressure, kPa	Mass density, kg/m3	uncertainty
298.15	101.325	1583.8	0.76

System: tetrachloromethane; phases: Liquid, Gas
Fixed: Temperature, K = 298.15
Property: Surface tension liquid-gas, N/m (Liquid); method: Pendant drop shape
Surface tension liquid-gas, N/m	uncertainty
0.02776	0.0003
0.02676	0.00029
0.02809	0.0003

System: dimethyl sulfoxide; phases: Liquid
Property: Mass density, kg/m3 (Liquid); method: VIBTUB:UFactor:2
Temperature, K	Pressure, kPa	Mass density, kg/m3	uncertainty
298.15	101.325	1095.54	0.42

System: dimethyl sulfoxide; phases: Liquid, Gas
Property: Surface tension liquid-gas, N/m (Liquid); method: Pendant drop shape
Temperature, K	Surface tension liquid-gas, N/m	uncertainty
298.15	0.04209	0.00043

System: 1,2,4-trimethylbenzene + tetrahydrofuran; phases: Liquid, Air at 1 atmosphere
Fixed: Temperature, K = 298.15
Property: Surface tension liquid-gas, N/m (Liquid); method: Pendant drop shape
Mole fraction of tetrahydrofuran	Surface tension liquid-gas, N/m	uncertainty
0	0.02925	0.00033
0.0988	0.02911	0.00032
0.2018	0.029	0.00032
0.3003	0.02888	0.00031
0.3995	0.02873	0.00031
0.5002	0.02853	0.0003
0.6005	0.02829	0.0003
0.6986	0.02801	0.0003
0.7996	0.02768	0.00029
0.9006	0.02734	0.00029
1	0.02704	0.00029

System: 1,2,4-trimethylbenzene + tetrahydrofuran; phases: Liquid
Fixed: Temperature, K = 298.15
Fixed: Pressure, kPa = 101
Property: Excess molar volume, m3/mol (Liquid); method: Calculated with densities of this investigation
Mole fraction of tetrahydrofuran	Excess molar volume, m3/mol	uncertainty
0.053	-3.5e-08	1e-08
0.0988	-6.8e-08	1e-08
0.1497	-9e-08	1e-08
0.2018	-1.06e-07	1e-08
0.2489	-1.18e-07	1e-08
0.3003	-1.33e-07	1e-08
0.3502	-1.46e-07	1e-08
0.3995	-1.56e-07	1e-08
0.4484	-1.61e-07	1e-08
0.5002	-1.65e-07	1.1e-08
0.5478	-1.65e-07	1.1e-08
0.6005	-1.59e-07	1e-08
0.6504	-1.48e-07	1e-08
0.6986	-1.32e-07	1e-08
0.7487	-1.21e-07	1e-08
0.7996	-1.03e-07	1e-08
0.8497	-9e-08	1e-08
0.9006	-6.7e-08	1e-08
0.9505	-4.2e-08	1e-08

System: 1,3,5-trimethylbenzene + tetrahydrofuran; phases: Liquid, Air at 1 atmosphere
Fixed: Temperature, K = 298.15
Property: Surface tension liquid-gas, N/m (Liquid); method: Pendant drop shape
Mole fraction of tetrahydrofuran	Surface tension liquid-gas, N/m	uncertainty
0	0.02809	0.00031
0.0481	0.02788	0.00031
0.2021	0.02772	0.0003
0.3002	0.02757	0.0003
0.4	0.02744	0.0003
0.5004	0.02732	0.00029
0.601	0.02723	0.00029
0.7003	0.02715	0.00029
0.7989	0.02709	0.00029
0.9	0.02706	0.00029
1	0.02704	0.00029

System: 1,3,5-trimethylbenzene + tetrahydrofuran; phases: Liquid
Fixed: Temperature, K = 298.15
Fixed: Pressure, kPa = 101
Property: Excess molar volume, m3/mol (Liquid); method: Calculated with densities of this investigation
Mole fraction of tetrahydrofuran	Excess molar volume, m3/mol	uncertainty
0.0481	1e-09	1e-08
0.1006	3e-09	1e-08
0.1509	5e-09	1e-08
0.2021	7e-09	1e-08
0.2495	9e-09	1e-08
0.3002	1.1e-08	1e-08
0.3501	1.3e-08	1e-08
0.4	1.5e-08	1e-08
0.4489	1.7e-08	1e-08
0.5004	1.8e-08	1e-08
0.5501	1.9e-08	1e-08
0.601	2e-08	1e-08
0.6506	2e-08	1e-08
0.7003	1.9e-08	1e-08
0.7498	1.7e-08	1e-08
0.7989	1.5e-08	1e-08
0.8496	1.2e-08	1e-08
0.9	8e-09	1e-08
0.9491	4e-09	1e-08

System: tetrachloromethane + 1,2,4-trimethylbenzene; phases: Liquid, Air at 1 atmosphere
Fixed: Temperature, K = 298.15
Property: Surface tension liquid-gas, N/m (Liquid); method: Pendant drop shape
Mole fraction of tetrachloromethane	Surface tension liquid-gas, N/m	uncertainty
0	0.02925	0.00033
0.0496	0.02913	0.00032
0.0996	0.02904	0.00032
0.1986	0.02889	0.00032
0.3001	0.02872	0.00032
0.4006	0.0285	0.00031
0.5987	0.02824	0.00031
0.6986	0.02789	0.0003
0.7985	0.02754	0.0003
0.9011	0.02713	0.00029
1	0.02676	0.00029

System: tetrachloromethane + 1,2,4-trimethylbenzene; phases: Liquid
Fixed: Temperature, K = 298.15
Fixed: Pressure, kPa = 101
Property: Excess molar volume, m3/mol (Liquid); method: Calculated with densities of this investigation
Mole fraction of tetrachloromethane	Excess molar volume, m3/mol	uncertainty
0.0496	5.5e-08	1e-08
0.0996	1.04e-07	1e-08
0.1492	1.61e-07	1e-08
0.1986	2.08e-07	1.1e-08
0.2485	2.49e-07	1.1e-08
0.3001	2.89e-07	1.1e-08
0.3495	3.32e-07	1.1e-08
0.4006	3.59e-07	1.1e-08
0.4521	3.8e-07	1.1e-08
0.5007	3.86e-07	1.1e-08
0.5502	3.85e-07	1.1e-08
0.5987	3.69e-07	1.1e-08
0.6498	3.42e-07	1.1e-08
0.6986	3.09e-07	1.1e-08
0.7489	2.71e-07	1.1e-08
0.7985	2.31e-07	1.1e-08
0.8494	1.85e-07	1.1e-08
0.9011	1.21e-07	1e-08
0.9505	6.9e-08	1e-08

System: tetrachloromethane + 1,3,5-trimethylbenzene; phases: Liquid, Air at 1 atmosphere
Fixed: Temperature, K = 298.15
Property: Surface tension liquid-gas, N/m (Liquid); method: Pendant drop shape
Mole fraction of 1,3,5-trimethylbenzene	Surface tension liquid-gas, N/m	uncertainty
0	0.02809	0.0003
0.1009	0.02777	0.0003
0.2014	0.02753	0.0003
0.2994	0.02729	0.0003
0.4007	0.0271	0.0003
0.4998	0.02699	0.0003
0.5995	0.02691	0.0003
0.6988	0.02686	0.0003
0.797	0.02683	0.0003
0.9012	0.02681	0.0003
1	0.02676	0.0003

System: tetrachloromethane + 1,3,5-trimethylbenzene; phases: Liquid
Fixed: Temperature, K = 298.15
Fixed: Pressure, kPa = 101
Property: Excess molar volume, m3/mol (Liquid); method: Calculated with densities of this investigation
Mole fraction of tetrachloromethane	Excess molar volume, m3/mol	uncertainty
0.0499	8.3e-08	1e-08
0.1009	1.95e-07	1.1e-08
0.1492	2.81e-07	1.1e-08
0.2014	3.51e-07	1.1e-08
0.2504	4.14e-07	1.1e-08
0.2994	4.61e-07	1.1e-08
0.3503	4.95e-07	1.1e-08
0.4007	5.05e-07	1.2e-08
0.45	5.03e-07	1.2e-08
0.4998	4.97e-07	1.2e-08
0.5505	4.7e-07	1.1e-08
0.5995	4.41e-07	1.1e-08
0.6496	4.03e-07	1.1e-08
0.6988	3.54e-07	1.1e-08
0.7493	3.07e-07	1.1e-08
0.797	2.57e-07	1.1e-08
0.85	2.02e-07	1.1e-08
0.9012	1.45e-07	1e-08
0.9502	8e-08	1e-08

System: dimethyl sulfoxide + 1,2,4-trimethylbenzene; phases: Liquid, Air at 1 atmosphere
Fixed: Temperature, K = 298.15
Property: Surface tension liquid-gas, N/m (Liquid); method: Pendant drop shape
Mole fraction of dimethyl sulfoxide	Surface tension liquid-gas, N/m	uncertainty
0	0.02925	0.00033
0.1007	0.02848	0.00032
0.2007	0.02877	0.00032
0.3007	0.02881	0.00032
0.3995	0.0291	0.00032
0.501	0.02946	0.00032
0.6012	0.02934	0.00032
0.6992	0.02935	0.00032
0.7992	0.03004	0.00033
0.9013	0.03571	0.00038
1	0.04209	0.00043

System: dimethyl sulfoxide + 1,2,4-trimethylbenzene; phases: Liquid
Fixed: Temperature, K = 298.15
Fixed: Pressure, kPa = 101
Property: Excess molar volume, m3/mol (Liquid); method: Calculated with densities of this investigation
Mole fraction of dimethyl sulfoxide	Excess molar volume, m3/mol	uncertainty
0.0474	-2.8e-08	1e-08
0.1007	-6.6e-08	1e-08
0.1517	-9.5e-08	1e-08
0.2007	-1.28e-07	1e-08
0.2501	-1.48e-07	1e-08
0.3007	-1.63e-07	1.1e-08
0.3485	-1.73e-07	1.1e-08
0.3995	-1.84e-07	1.1e-08
0.4523	-1.87e-07	1.1e-08
0.501	-1.83e-07	1.1e-08
0.5496	-1.75e-07	1.1e-08
0.6012	-1.61e-07	1e-08
0.6504	-1.48e-07	1e-08
0.6992	-1.25e-07	1e-08
0.7506	-1.06e-07	1e-08
0.7992	-8.3e-08	1e-08
0.8477	-6.5e-08	1e-08
0.9013	-4.1e-08	1e-08
0.9499	-2e-08	1e-08

System: dimethyl sulfoxide + 1,3,5-trimethylbenzene; phases: Liquid, Air at 1 atmosphere
Fixed: Temperature, K = 298.15
Property: Surface tension liquid-gas, N/m (Liquid); method: Pendant drop shape
Mole fraction of dimethyl sulfoxide	Surface tension liquid-gas, N/m	uncertainty
0	0.02809	0.00031
0.1023	0.0273	0.0003
0.1987	0.02692	0.0003
0.3027	0.0267	0.0003
0.401	0.02741	0.0003
0.4999	0.0284	0.00031
0.6003	0.03009	0.00033
0.699	0.03205	0.00034
0.8003	0.03477	0.00037
0.8998	0.03792	0.00039
1	0.04209	0.00043

System: dimethyl sulfoxide + 1,3,5-trimethylbenzene; phases: Liquid
Fixed: Temperature, K = 298.15
Fixed: Pressure, kPa = 101
Property: Excess molar volume, m3/mol (Liquid); method: Calculated with densities of this investigation
Mole fraction of dimethyl sulfoxide	Excess molar volume, m3/mol	uncertainty
0.053	2.1e-08	1e-08
0.1023	4.7e-08	1e-08
0.1481	6.4e-08	1e-08
0.1987	8.4e-08	1e-08
0.2513	9.6e-08	1e-08
0.3027	1.08e-07	1e-08
0.3517	1.16e-07	1e-08
0.401	1.22e-07	1e-08
0.4504	1.24e-07	1e-08
0.4999	1.21e-07	1e-08
0.5497	1.16e-07	1e-08
0.6003	1.07e-07	1e-08
0.6502	9.7e-08	1e-08
0.699	8.6e-08	1e-08
0.7502	7.6e-08	1e-08
0.8003	6.3e-08	1e-08
0.8489	5.1e-08	1e-08
0.8998	3.2e-08	1e-08
0.9505	1.5e-08	1e-08
