Measured thermophysical data. Excess Molar Enthalpies of Ternary Mixtures of Ethanol + 1-Propanol + Tetrahydropyran or 1,4-Dioxane at 298.15 K
Source: J. Chem. Eng. Data, 2005, 10.1021/je049852v
Compound 1: ethanol, C2H6O, InChI=1S/C2H6O/c1-2-3/h3H,2H2,1H3, purity 99.8%
Compound 2: tetrahydropyran, C5H10O, InChI=1S/C5H10O/c1-2-4-6-5-3-1/h1-5H2, purity 99%
Compound 3: propan-1-ol, C3H8O, InChI=1S/C3H8O/c1-2-3-4/h4H,2-3H2,1H3, purity 99.7%
Compound 4: 1,4-dioxane, C4H8O2, InChI=1S/C4H8O2/c1-2-6-4-3-5-1/h1-4H2, purity 99.8%

System: ethanol + tetrahydropyran; phases: Liquid
Fixed: Temperature, K = 298.15
Fixed: Pressure, kPa = 101.3
Property: Excess molar enthalpy (molar enthalpy of mixing), kJ/mol (Liquid); method: FLOW:UFactor:2
Mole fraction of ethanol	Excess molar enthalpy (molar enthalpy of mixing), kJ/mol	uncertainty
0.05	0.23615	0.00533
0.1	0.45136	0.00902
0.15	0.59528	0.0115
0.2	0.68862	0.01311
0.25	0.75364	0.01423
0.3	0.80336	0.01509
0.35	0.84066	0.01574
0.4	0.85247	0.01594
0.45	0.85205	0.01593
0.5	0.8491	0.01588
0.55	0.82187	0.01541
0.6	0.7916	0.01489
0.65	0.7345	0.0139
0.7	0.64724	0.01239
0.75	0.57017	0.01106
0.8	0.46341	0.00922
0.85	0.33879	0.00707
0.9	0.23237	0.00525
0.95	0.13859	0.0037

System: ethanol + propan-1-ol + tetrahydropyran; phases: Liquid
Fixed: Temperature, K = 298.15
Fixed: Pressure, kPa = 101.3
Property: Excess molar enthalpy (molar enthalpy of mixing), kJ/mol (Liquid); method: Flow calorimetry
Mole fraction of ethanol	Mole fraction of propan-1-ol	Excess molar enthalpy (molar enthalpy of mixing), kJ/mol	uncertainty
0.0125	0.0375	0.24617	0.00347
0.025	0.025	0.24373	0.00344
0.025	0.075	0.4184	0.00556
0.0374	0.1126	0.56336	0.00733
0.0375	0.0125	0.24439	0.00345
0.0499	0.1501	0.67718	0.00872
0.05	0.05	0.42371	0.00563
0.0624	0.1876	0.76561	0.0098
0.0749	0.2251	0.83055	0.0106
0.075	0.025	0.42239	0.00561
0.075	0.075	0.56568	0.00736
0.0873	0.2627	0.87738	0.01117
0.0998	0.3002	0.90539	0.01151
0.1	0.1	0.67552	0.0087
0.1123	0.3377	0.91456	0.01162
0.1125	0.0375	0.56284	0.00732
0.1248	0.3752	0.90992	0.01157
0.125	0.125	0.76281	0.00977
0.1372	0.4128	0.88578	0.01127
0.1497	0.4503	0.8467	0.01079
0.15	0.05	0.67237	0.00866
0.15	0.15	0.82658	0.01055
0.1622	0.4878	0.79031	0.0101
0.1747	0.5253	0.71823	0.00922
0.175	0.175	0.87068	0.01109
0.1871	0.5629	0.63033	0.00815
0.1875	0.0625	0.75389	0.00966
0.1996	0.6004	0.528	0.0069
0.2	0.2	0.89617	0.0114
0.2121	0.6379	0.41413	0.00551
0.2246	0.6754	0.2937	0.00405
0.2249	0.0751	0.81229	0.01037
0.225	0.225	0.90261	0.01148
0.2371	0.7129	0.15955	0.00243
0.25	0.25	0.89513	0.01139
0.2624	0.0876	0.84982	0.01083
0.275	0.275	0.87061	0.01109
0.2999	0.1001	0.86969	0.01108
0.3	0.3	0.82196	0.01049
0.325	0.325	0.77723	0.00994
0.3374	0.1126	0.87252	0.01111
0.35	0.35	0.70601	0.00907
0.375	0.125	0.86417	0.01101
0.375	0.375	0.62052	0.00803
0.4	0.4	0.52228	0.00683
0.4124	0.1376	0.8378	0.01068
0.425	0.425	0.41133	0.00548
0.4499	0.1501	0.79749	0.01019
0.45	0.45	0.29656	0.00408
0.475	0.475	0.18737	0.00276
0.4874	0.1626	0.74304	0.00953
0.5249	0.1751	0.67229	0.00866
0.5624	0.1876	0.58955	0.00765
0.5998	0.2002	0.49438	0.00649
0.6373	0.2127	0.38892	0.0052
0.6748	0.2252	0.27488	0.00382
0.7123	0.2377	0.16262	0.00247

System: ethanol + propan-1-ol + 1,4-dioxane; phases: Liquid
Fixed: Temperature, K = 298.15
Fixed: Pressure, kPa = 101.3
Property: Excess molar enthalpy (molar enthalpy of mixing), kJ/mol (Liquid); method: Flow calorimetry
Mole fraction of ethanol	Mole fraction of propan-1-ol	Excess molar enthalpy (molar enthalpy of mixing), kJ/mol	uncertainty
0.0125	0.0375	0.35362	0.00477
0.025	0.025	0.34323	0.00465
0.025	0.075	0.64069	0.00828
0.0375	0.0125	0.33054	0.00449
0.0376	0.1124	0.89659	0.0114
0.0501	0.0499	0.62096	0.00803
0.0501	0.1499	1.11445	0.01407
0.0626	0.1874	1.29102	0.01623
0.075	0.025	0.60673	0.00786
0.0751	0.0749	0.85361	0.01088
0.0751	0.2249	1.4348	0.01799
0.0876	0.2624	1.54755	0.01937
0.1001	0.2999	1.62372	0.0203
0.1002	0.0998	1.07343	0.01357
0.1125	0.0375	0.83615	0.01066
0.1127	0.3373	1.66674	0.02083
0.1252	0.1248	1.24564	0.01567
0.1252	0.3748	1.6866	0.02107
0.1377	0.4123	1.67165	0.02089
0.15	0.05	1.03448	0.01309
0.1502	0.4498	1.62228	0.02029
0.1503	0.1497	1.38206	0.01734
0.1627	0.4873	1.5464	0.01936
0.1752	0.5248	1.43733	0.01802
0.1753	0.1747	1.48423	0.0186
0.1875	0.0625	1.20122	0.01513
0.1878	0.5622	1.29165	0.01624
0.2003	0.5997	1.12217	0.01416
0.2004	0.1996	1.5562	0.01948
0.2128	0.6372	0.90987	0.01157
0.225	0.075	1.32841	0.01669
0.2253	0.6747	0.66026	0.00851
0.2254	0.2246	1.59599	0.01996
0.2378	0.7122	0.33571	0.00456
0.2504	0.2496	1.60502	0.02007
0.2625	0.0875	1.42985	0.01793
0.2755	0.2745	1.59996	0.02001
0.3001	0.0999	1.49525	0.01873
0.3005	0.2995	1.54994	0.0194
0.3256	0.3244	1.47652	0.0185
0.3376	0.1124	1.53325	0.0192
0.3506	0.3494	1.36561	0.01714
0.3751	0.1249	1.54571	0.01935
0.3757	0.3743	1.23663	0.01556
0.4007	0.3993	1.06498	0.01346
0.4126	0.1374	1.53265	0.01919
0.4258	0.4242	0.86598	0.01103
0.4501	0.1499	1.48972	0.01866
0.4508	0.4492	0.62067	0.00803
0.4759	0.4741	0.31685	0.00433
0.4876	0.1624	1.4088	0.01767
0.5251	0.1749	1.30988	0.01646
0.5626	0.1874	1.18346	0.01491
0.6001	0.1999	1.01792	0.01289
0.6376	0.2124	0.82868	0.01057
0.6751	0.2249	0.6009	0.00779
0.7126	0.2374	0.29506	0.00406
