Measured thermophysical data. PVTx Properties in the Gas Phase for Difluoromethane (HFC-32) + Pentafluoroethane (HFC-125)
Source: J. Chem. Eng. Data, 2004, 10.1021/je0497505
Compound 1: difluoromethane, CH2F2, InChI=1S/CH2F2/c2-1-3/h1H2, purity 99.95%
Compound 2: pentafluoroethane, C2HF5, InChI=1S/C2HF5/c3-1(4)2(5,6)7/h1H, purity 99.98%

System: difluoromethane + pentafluoroethane; phases: Gas
Property: Mass density, kg/m3 (Gas); method: Burnett expansion method
Temperature, K	Pressure, kPa	Mole fraction of difluoromethane	Mass density, kg/m3	uncertainty
303.15	300.13	0.8191	7.948	0.012
303.15	343.31	0.5794	11.482	0.016
303.15	347.95	0.432	13.113	0.018
303.15	406.86	0.8191	10.924	0.014
303.15	464.03	0.5794	15.781	0.02
303.15	469.87	0.432	18.023	0.023
303.15	548.65	0.8191	15.015	0.018
303.15	623.14	0.5794	21.69	0.026
303.15	630.24	0.432	24.772	0.029
303.15	734.36	0.8191	20.637	0.023
303.15	829.27	0.5794	29.811	0.034
303.15	837.15	0.432	34.048	0.039
303.15	972.79	0.8191	28.364	0.031
303.15	1089.31	0.5794	40.974	0.045
303.15	1096.82	0.432	46.796	0.053
303.15	1269.8	0.8191	38.985	0.041
303.15	1408.59	0.432	64.318	0.069
303.15	1622.78	0.8191	53.582	0.056
303.15	1755.92	0.432	88.401	0.097
313.15	310.85	0.8191	7.944	0.011
313.15	355.83	0.5794	11.476	0.016
313.15	360.67	0.432	13.107	0.018
313.15	421.93	0.8191	10.919	0.014
313.15	481.65	0.5794	15.773	0.02
313.15	487.81	0.432	18.014	0.022
313.15	569.94	0.8191	15.007	0.018
313.15	648.19	0.5794	21.679	0.025
313.15	655.74	0.432	24.76	0.029
313.15	764.64	0.8191	20.627	0.023
313.15	865.14	0.5794	29.796	0.034
313.15	873.79	0.432	34.019	0.038
313.15	1016.48	0.8191	28.35	0.031
313.15	1141.43	0.5794	40.953	0.045
313.15	1150.09	0.432	46.773	0.052
313.15	1333.47	0.8191	38.965	0.041
313.15	1481.34	0.5794	56.288	0.062
313.15	1487.42	0.432	64.286	0.072
313.15	1717.1	0.8191	53.555	0.057
313.15	1875.22	0.432	88.356	0.096
313.15	1877.46	0.5794	77.363	0.085
313.15	2152.05	0.8191	73.608	0.078
313.15	2299.01	0.5794	106.33	0.116
323.15	321.52	0.8191	7.94	0.011
323.15	368.22	0.5794	11.47	0.015
323.15	373.29	0.432	13.1	0.018
323.15	436.86	0.8191	10.913	0.014
323.15	499.11	0.5794	15.765	0.019
323.15	505.56	0.432	18.005	0.022
323.15	590.99	0.8191	15	0.017
323.15	672.89	0.5794	21.668	0.025
323.15	680.93	0.432	24.747	0.029
323.15	794.6	0.8191	20.617	0.023
323.15	900.44	0.5794	29.782	0.033
323.15	909.8	0.432	34.002	0.038
323.15	1059.36	0.8191	28.336	0.03
323.15	1192.48	0.5794	40.933	0.045
323.15	1202.3	0.432	46.749	0.052
323.15	1395.73	0.8191	38.946	0.041
323.15	1556.12	0.5794	56.259	0.061
323.15	1564.16	0.432	64.254	0.071
323.15	1808.61	0.8191	53.528	0.056
323.15	1988.62	0.5794	77.324	0.084
323.15	1990.02	0.432	88.312	0.099
323.15	2288.87	0.8191	73.571	0.077
323.15	2451.66	0.432	121.378	0.133
323.15	2466.76	0.5794	106.276	0.116
333.15	332.14	0.8191	7.936	0.011
333.15	380.55	0.5794	11.464	0.015
333.15	385.86	0.432	13.094	0.017
333.15	451.69	0.8191	10.908	0.014
333.15	516.42	0.5794	15.757	0.019
333.15	523.22	0.432	17.996	0.022
333.15	611.86	0.8191	14.992	0.017
333.15	697.33	0.5794	21.657	0.025
333.15	705.87	0.432	24.735	0.028
333.15	824.17	0.8191	20.606	0.023
333.15	935.29	0.5794	29.767	0.033
333.15	945.4	0.432	33.985	0.038
333.15	1101.62	0.8191	28.322	0.03
333.15	1242.63	0.5794	40.912	0.045
333.15	1253.62	0.432	46.726	0.051
333.15	1456.78	0.8191	38.926	0.041
333.15	1629.14	0.5794	56.231	0.061
333.15	1639.12	0.432	64.222	0.07
333.15	1897.94	0.8191	53.502	0.056
333.15	2096.64	0.5794	77.285	0.083
333.15	2101.2	0.432	88.268	0.098
333.15	2421.33	0.8191	73.534	0.077
333.15	2619.38	0.432	121.317	0.132
333.15	2628.88	0.5794	106.223	0.115
343.15	342.71	0.8191	7.932	0.011
343.15	392.84	0.5794	11.459	0.015
343.15	398.37	0.432	13.087	0.017
343.15	466.44	0.8191	10.903	0.013
343.15	533.63	0.5794	15.749	0.019
343.15	540.74	0.432	17.987	0.022
343.15	632.57	0.8191	14.985	0.017
343.15	721.61	0.5794	21.647	0.025
343.15	730.59	0.432	24.723	0.028
343.15	853.45	0.8191	20.596	0.023
343.15	969.77	0.5794	29.752	0.033
343.15	980.58	0.432	33.968	0.038
343.15	1143.35	0.8191	28.308	0.03
343.15	1292.07	0.5794	40.892	0.044
343.15	1304.18	0.432	46.703	0.051
343.15	1516.82	0.8191	38.907	0.041
343.15	1700.98	0.5794	56.203	0.061
343.15	1712.69	0.432	64.189	0.07
343.15	1985.42	0.8191	53.475	0.056
343.15	2202.15	0.5794	77.247	0.083
343.15	2209.74	0.432	88.223	0.097
343.15	2550.28	0.8191	73.497	0.077
343.15	2781.68	0.432	121.256	0.131
343.15	2786.02	0.5794	106.169	0.114
353.15	353.22	0.8191	7.928	0.011
353.15	405.05	0.5794	11.453	0.015
353.15	410.8	0.432	13.081	0.017
353.15	481.12	0.8191	10.897	0.013
353.15	550.74	0.5794	15.742	0.019
353.15	558.16	0.432	17.978	0.021
353.15	653.13	0.8191	14.978	0.017
353.15	745.66	0.5794	21.636	0.025
353.15	755.14	0.432	24.71	0.028
353.15	882.48	0.8191	20.586	0.022
353.15	1003.89	0.5794	29.737	0.033
353.15	1015.38	0.432	33.951	0.038
353.15	1184.59	0.8191	28.294	0.03
353.15	1340.89	0.5794	40.872	0.044
353.15	1354.11	0.432	46.679	0.051
353.15	1576.05	0.8191	38.888	0.041
353.15	1771.6	0.5794	56.175	0.06
353.15	1785.05	0.432	64.157	0.069
353.15	2071.3	0.8191	53.448	0.056
353.15	2305.51	0.5794	77.208	0.083
353.15	2316.1	0.432	88.179	0.097
353.15	2676.4	0.8191	73.46	0.076
353.15	2939.27	0.5794	106.116	0.114
353.15	2939.87	0.432	121.195	0.13
363.15	363.71	0.8191	7.924	0.011
363.15	417.23	0.5794	11.447	0.015
363.15	423.19	0.432	13.074	0.017
363.15	495.73	0.8191	10.892	0.013
363.15	567.79	0.5794	15.734	0.019
363.15	575.46	0.432	17.969	0.021
363.15	673.57	0.8191	14.97	0.017
363.15	769.59	0.5794	21.625	0.024
363.15	779.52	0.432	24.698	0.028
363.15	911.28	0.8191	20.575	0.022
363.15	1037.71	0.5794	29.722	0.033
363.15	1049.93	0.432	33.934	0.037
363.15	1225.48	0.8191	28.28	0.03
363.15	1389.19	0.5794	40.851	0.044
363.15	1403.51	0.432	46.656	0.051
363.15	1634.56	0.8191	38.868	0.041
363.15	1841.21	0.5794	56.147	0.06
363.15	1856.43	0.432	64.125	0.069
363.15	2155.96	0.8191	53.421	0.056
363.15	2407.14	0.5794	77.169	0.083
363.15	2420.58	0.432	88.135	0.096
363.15	2800.14	0.8191	73.423	0.076
363.15	3089.12	0.5794	106.062	0.114
363.15	3094.73	0.432	121.134	0.13
373.15	89.29	0.5794	2.333	0.008
373.15	90.68	0.432	2.664	0.009
373.15	106.43	0.8191	2.219	0.007
373.15	122.5	0.5794	3.206	0.009
373.15	124.41	0.432	3.662	0.01
373.15	145.96	0.8191	3.051	0.007
373.15	167.94	0.5794	4.407	0.009
373.15	170.53	0.432	5.033	0.01
373.15	200	0.8191	4.193	0.008
373.15	229.98	0.5794	6.057	0.01
373.15	233.46	0.432	6.917	0.012
373.15	273.76	0.8191	5.763	0.009
373.15	314.55	0.5794	8.325	0.012
373.15	319.2	0.432	9.507	0.014
373.15	374.18	0.8191	7.921	0.01
373.15	429.43	0.5794	11.442	0.015
373.15	435.61	0.432	13.068	0.017
373.15	510.29	0.8191	10.886	0.013
373.15	584.76	0.5794	15.726	0.019
373.15	592.79	0.432	17.961	0.021
373.15	693.94	0.8191	14.963	0.017
373.15	793.41	0.5794	21.614	0.024
373.15	803.84	0.432	24.686	0.028
373.15	939.88	0.8191	20.565	0.022
373.15	1071.31	0.5794	29.707	0.033
373.15	1084.26	0.432	33.929	0.037
373.15	1265.95	0.8191	28.265	0.03
373.15	1437.06	0.5794	40.831	0.044
373.15	1452.47	0.432	46.633	0.051
373.15	1692.4	0.8191	38.849	0.041
373.15	1910.03	0.5794	56.119	0.06
373.15	1927.02	0.432	64.093	0.069
373.15	2239.47	0.8191	53.394	0.055
373.15	2507.25	0.5794	77.131	0.082
373.15	2523.43	0.432	88.091	0.095
373.15	2921.91	0.8191	73.386	0.076
373.15	3236.45	0.5794	106.009	0.113
373.15	3246.55	0.432	121.073	0.129
