Measured thermophysical data. Viscosity Measurements on Gaseous Sulphur Hexafluoride
Source: J. Chem. Eng. Data, 2005, 10.1021/je049612f
Compound 1: sulfur hexafluoride, F6S, InChI=1S/F6S/c1-7(2,3,4,5)6, purity 99.995%

System: sulfur hexafluoride; phases: Gas
Property: Viscosity, Pa*s (Gas); method: Vibrating wire viscometry
Temperature, K	Pressure, kPa	Viscosity, Pa*s	uncertainty
300	26.358	1.5294e-05	8.93e-07
300	50.936	1.5313e-05	8.93e-07
300	73.624	1.5316e-05	8.93e-07
300	105.89	1.5324e-05	8.93e-07
300	125.7	1.5328e-05	8.93e-07
300	152.62	1.5329e-05	8.93e-07
300	177.62	1.5334e-05	8.93e-07
300	195.25	1.5338e-05	8.93e-07
300	227.52	1.5343e-05	8.93e-07
300	251.51	1.5349e-05	8.93e-07
300	278.58	1.535e-05	8.93e-07
300	301.45	1.5354e-05	8.94e-07
300	327.3	1.5359e-05	8.94e-07
300	353.41	1.5364e-05	8.94e-07
300	378.55	1.5371e-05	8.94e-07
300	401.57	1.5374e-05	8.94e-07
300	425.72	1.5378e-05	8.94e-07
300	444.52	1.5384e-05	8.94e-07
300	471.71	1.5393e-05	8.94e-07
300	491.53	1.5395e-05	8.94e-07
300	538.31	1.541e-05	8.94e-07
300	565.24	1.5416e-05	8.94e-07
300	597.98	1.5426e-05	8.94e-07
300	634.58	1.544e-05	8.94e-07
300	665.1	1.5449e-05	8.94e-07
300	700.96	1.5457e-05	8.94e-07
300	731.45	1.5468e-05	8.94e-07
300	763.98	1.5482e-05	8.95e-07
300	800.2	1.5494e-05	8.95e-07
300	835.89	1.5513e-05	8.95e-07
300	869.95	1.5532e-05	8.95e-07
300	898.41	1.5543e-05	8.95e-07
300	930.75	1.5557e-05	8.95e-07
300	968.74	1.5577e-05	8.95e-07
300	997.76	1.5593e-05	8.95e-07
300	1036.4	1.5615e-05	8.96e-07
300	1090.2	1.5647e-05	8.96e-07
300	1140.1	1.568e-05	8.96e-07
300	1181.5	1.5704e-05	8.96e-07
300	1223.6	1.5737e-05	8.96e-07
300	1280.6	1.5778e-05	8.97e-07
300	1333.3	1.5818e-05	8.97e-07
300	1380.9	1.5858e-05	8.97e-07
300	1417.9	1.589e-05	8.98e-07
300	1493.3	1.5961e-05	8.98e-07
300	1537.7	1.6005e-05	8.99e-07
300	1594.6	1.6061e-05	8.99e-07
300	1637.3	1.6109e-05	8.99e-07
300	1680.6	1.6162e-05	9e-07
300	1735.3	1.6225e-05	9e-07
300	1784.4	1.6292e-05	9.01e-07
300	1826.5	1.6348e-05	9.01e-07
300	1865.1	1.6406e-05	9.02e-07
300	1927.3	1.6502e-05	9.02e-07
300	1980	1.6592e-05	9.03e-07
300	2039.3	1.6698e-05	9.04e-07
316	112.75	1.6046e-05	8.99e-07
316	143.54	1.6053e-05	8.99e-07
316	174.6	1.6058e-05	8.99e-07
316	197.59	1.6063e-05	8.99e-07
316	218.05	1.6066e-05	8.99e-07
316	245.03	1.6073e-05	8.99e-07
316	262.84	1.6074e-05	8.99e-07
316	287.46	1.6079e-05	8.99e-07
316	307.35	1.6083e-05	8.99e-07
316	332.06	1.6092e-05	8.99e-07
316	357.7	1.6097e-05	8.99e-07
316	383.76	1.6104e-05	8.99e-07
316	402.43	1.6106e-05	8.99e-07
316	428.01	1.6113e-05	8.99e-07
316	468.39	1.6126e-05	9e-07
316	490.91	1.613e-05	9e-07
316	519.48	1.614e-05	9e-07
316	548.34	1.615e-05	9e-07
316	585.01	1.6162e-05	9e-07
316	614.48	1.6169e-05	9e-07
316	650.85	1.6183e-05	9e-07
316	685.07	1.6199e-05	9e-07
316	712.63	1.6201e-05	9e-07
316	749.05	1.622e-05	9e-07
316	780.4	1.6229e-05	9e-07
316	810.74	1.6244e-05	9e-07
316	843.2	1.6259e-05	9.01e-07
316	882.81	1.628e-05	9.01e-07
316	913.9	1.6289e-05	9.01e-07
316	955.92	1.6311e-05	9.01e-07
316	994.72	1.6336e-05	9.01e-07
316	1031.1	1.6355e-05	9.01e-07
316	1084.1	1.6384e-05	9.02e-07
316	1120.4	1.6406e-05	9.02e-07
316	1178.3	1.6442e-05	9.02e-07
316	1215.2	1.6463e-05	9.02e-07
316	1257.3	1.6496e-05	9.02e-07
316	1314.3	1.6535e-05	9.03e-07
316	1374.4	1.6584e-05	9.03e-07
316	1422.9	1.6623e-05	9.03e-07
316	1465.6	1.6651e-05	9.04e-07
316	1530.4	1.6712e-05	9.04e-07
316	1572.7	1.6742e-05	9.04e-07
316	1609.8	1.6775e-05	9.05e-07
316	1667.2	1.6839e-05	9.05e-07
316	1724.2	1.6891e-05	9.05e-07
316	1772.5	1.6942e-05	9.06e-07
316	1821.1	1.6997e-05	9.06e-07
316	1860.3	1.7041e-05	9.07e-07
316	1922.7	1.711e-05	9.07e-07
316	1988.5	1.7203e-05	9.08e-07
316	2021.6	1.7253e-05	9.08e-07
316	2087.4	1.7333e-05	9.09e-07
316	2155.2	1.7437e-05	9.1e-07
316	2223.8	1.7548e-05	9.11e-07
316	2273.2	1.763e-05	9.11e-07
316	2319.1	1.7712e-05	9.12e-07
316	2375.8	1.7814e-05	9.13e-07
316	2448.5	1.7958e-05	9.14e-07
316	2510	1.8087e-05	9.15e-07
316	2587.2	1.8264e-05	9.16e-07
316	2658.2	1.8442e-05	9.17e-07
316	2724.3	1.8621e-05	9.19e-07
316	2792.7	1.8832e-05	9.21e-07
316	2860.9	1.9057e-05	9.22e-07
316	2916.5	1.9252e-05	9.24e-07
316	2981.1	1.9504e-05	9.26e-07
316	3007.9	1.9626e-05	9.27e-07
316	3070	1.9919e-05	9.29e-07
316	3135.2	2.0246e-05	9.32e-07
321	77.46	1.6266e-05	9.01e-07
321	97.02	1.6268e-05	9.01e-07
321	114.16	1.6274e-05	9.01e-07
321	146.57	1.6282e-05	9.01e-07
321	169.96	1.6286e-05	9.01e-07
321	205.62	1.6291e-05	9.01e-07
321	239.58	1.6298e-05	9.01e-07
321	264.1	1.6301e-05	9.01e-07
321	293.39	1.6313e-05	9.01e-07
321	339.65	1.6321e-05	9.01e-07
321	374.89	1.6332e-05	9.01e-07
321	400.93	1.6337e-05	9.01e-07
321	428.98	1.6344e-05	9.01e-07
321	457.31	1.6353e-05	9.01e-07
321	488.99	1.6361e-05	9.01e-07
321	523.86	1.6372e-05	9.01e-07
321	563.16	1.6384e-05	9.02e-07
321	592.18	1.6393e-05	9.02e-07
321	633.22	1.6412e-05	9.02e-07
321	681.18	1.6427e-05	9.02e-07
321	732.46	1.6444e-05	9.02e-07
321	790.88	1.6465e-05	9.02e-07
321	823.55	1.6481e-05	9.02e-07
321	857.52	1.6499e-05	9.02e-07
321	896.2	1.6517e-05	9.03e-07
321	934.23	1.6536e-05	9.03e-07
321	969	1.655e-05	9.03e-07
321	1031.4	1.658e-05	9.03e-07
321	1089.4	1.6618e-05	9.03e-07
321	1125	1.6636e-05	9.03e-07
321	1178.7	1.667e-05	9.04e-07
321	1223.2	1.6699e-05	9.04e-07
321	1282.4	1.6744e-05	9.04e-07
321	1340	1.6785e-05	9.05e-07
321	1386.2	1.6819e-05	9.05e-07
321	1431.8	1.6856e-05	9.05e-07
321	1483.3	1.6894e-05	9.05e-07
321	1538.9	1.6938e-05	9.06e-07
321	1647	1.7031e-05	9.07e-07
321	1693.1	1.708e-05	9.07e-07
321	1744.5	1.7128e-05	9.07e-07
321	1788.6	1.7177e-05	9.08e-07
321	1847.4	1.724e-05	9.08e-07
321	1893.8	1.7295e-05	9.09e-07
321	1930.7	1.7336e-05	9.09e-07
321	2004.9	1.7426e-05	9.1e-07
321	2041.9	1.7471e-05	9.1e-07
321	2120.4	1.758e-05	9.11e-07
321	2221.3	1.7717e-05	9.12e-07
321	2270.3	1.7796e-05	9.12e-07
321	2332.7	1.7895e-05	9.13e-07
321	2373.2	1.7974e-05	9.14e-07
321	2451.3	1.8118e-05	9.15e-07
321	2534.7	1.8262e-05	9.16e-07
321	2581.9	1.8368e-05	9.17e-07
321	2629.5	1.8459e-05	9.18e-07
321	2688.1	1.8596e-05	9.19e-07
321	2803.9	1.8875e-05	9.21e-07
321	2873.5	1.9082e-05	9.22e-07
321	2959.1	1.9324e-05	9.24e-07
321	3050	1.9625e-05	9.27e-07
321	3136.6	1.9952e-05	9.29e-07
321	3229.6	2.0352e-05	9.32e-07
321	3282	2.0602e-05	9.34e-07
321	3384.4	2.1166e-05	9.39e-07
321	3445.9	2.1562e-05	9.42e-07
321	3498.8	2.1946e-05	9.45e-07
321	3558.3	2.2445e-05	9.49e-07
321	3606.1	2.2937e-05	9.53e-07
321	3651.4	2.3455e-05	9.58e-07
321	3695.6	2.4073e-05	9.63e-07
321	3729.2	2.4624e-05	9.68e-07
321	3765.4	2.5298e-05	9.74e-07
321	3793.6	2.5995e-05	9.82e-07
321	3819.6	2.6745e-05	9.92e-07
321	3858.5	2.8265e-05	1.02e-06
321	3887.8	2.9901e-05	1.094e-06
321	3899.4	3.1041e-05	1.12e-06
321	3910.1	3.2182e-05	1.224e-06
321	3918.4	3.3549e-05	1.225e-06
321	3926.6	3.4808e-05	1.235e-06
321	3933.3	3.6146e-05	1.242e-06
321	3938.4	3.7433e-05	1.248e-06
321	3945.7	3.995e-05	1.332e-06
321	3950.6	4.1314e-05	1.316e-06
321	3955.4	4.2717e-05	1.326e-06
321	3961	4.4346e-05	1.355e-06
321	3968.8	4.6379e-05	1.336e-06
321	3977	4.813e-05	1.353e-06
321	3988.3	5.0176e-05	1.376e-06
321	4001.1	5.2136e-05	1.331e-06
321	4020.8	5.4475e-05	1.317e-06
321	4046.8	5.6834e-05	1.269e-06
321	4077.1	5.9016e-05	1.262e-06
321	4112.9	6.125e-05	1.276e-06
321	4160	6.3504e-05	1.285e-06
321	4223.8	6.5989e-05	1.299e-06
321	4349.4	6.9998e-05	1.336e-06
321	4465.5	7.3046e-05	1.365e-06
321	4601.3	7.606e-05	1.393e-06
321	4740.5	7.8593e-05	1.418e-06
321	4879.1	8.0934e-05	1.44e-06
321	5134	8.4736e-05	1.476e-06
321	5554.1	9.0007e-05	1.528e-06
321	5938	9.416e-05	1.569e-06
321	6388.7	9.8449e-05	1.611e-06
321	7256.2	0.00010568	1.68e-06
321	7905.1	0.0001105	1.73e-06
321	8647.5	0.00011539	1.78e-06
321	9548.1	0.00012116	1.84e-06
321	10352	0.00012581	1.89e-06
321	11075	0.00012972	1.93e-06
333.15	91.552	1.6814e-05	9.05e-07
333.15	113.58	1.6819e-05	9.05e-07
333.15	142.52	1.6825e-05	9.05e-07
333.15	172.42	1.6834e-05	9.05e-07
333.15	198.48	1.6838e-05	9.05e-07
333.15	218.78	1.6846e-05	9.05e-07
333.15	243.22	1.6851e-05	9.05e-07
333.15	275.2	1.686e-05	9.05e-07
333.15	294.03	1.6863e-05	9.05e-07
333.15	319.41	1.687e-05	9.05e-07
333.15	350.89	1.688e-05	9.05e-07
333.15	378.94	1.689e-05	9.05e-07
333.15	416.93	1.6902e-05	9.06e-07
333.15	443.4	1.6908e-05	9.06e-07
333.15	479.64	1.6917e-05	9.06e-07
333.15	506.6	1.6925e-05	9.06e-07
333.15	547.64	1.6939e-05	9.06e-07
333.15	590.65	1.6954e-05	9.06e-07
333.15	636.15	1.6972e-05	9.06e-07
333.15	671.18	1.6982e-05	9.06e-07
333.15	717.74	1.7e-05	9.06e-07
333.15	772.31	1.7027e-05	9.06e-07
333.15	837.79	1.7053e-05	9.07e-07
333.15	887.92	1.7075e-05	9.07e-07
333.15	946.43	1.7101e-05	9.07e-07
333.15	1025.7	1.7148e-05	9.07e-07
333.15	1092.5	1.7181e-05	9.08e-07
333.15	1167.4	1.7229e-05	9.08e-07
333.15	1233.2	1.7271e-05	9.08e-07
333.15	1307.8	1.7318e-05	9.09e-07
333.15	1366.9	1.7366e-05	9.09e-07
333.15	1419.7	1.7397e-05	9.09e-07
333.15	1502.8	1.746e-05	9.1e-07
333.15	1566.4	1.7508e-05	9.1e-07
333.15	1629.7	1.7568e-05	9.11e-07
333.15	1705.8	1.7629e-05	9.11e-07
333.15	1772.9	1.7691e-05	9.12e-07
333.15	1853.5	1.7778e-05	9.12e-07
333.15	1917.4	1.7832e-05	9.13e-07
333.15	1967	1.7902e-05	9.13e-07
333.15	2025.7	1.7951e-05	9.14e-07
333.15	2294.7	1.8283e-05	9.16e-07
333.15	2427.7	1.8479e-05	9.18e-07
333.15	2519.2	1.862e-05	9.19e-07
333.15	2631.9	1.8801e-05	9.2e-07
333.15	2766.3	1.9042e-05	9.22e-07
333.15	2872	1.9251e-05	9.24e-07
333.15	3008.3	1.955e-05	9.26e-07
333.15	3089.4	1.9734e-05	9.27e-07
333.15	3195.2	2.0007e-05	9.3e-07
333.15	3306.1	2.0318e-05	9.32e-07
333.15	3398.7	2.0602e-05	9.34e-07
333.15	3504	2.0967e-05	9.37e-07
333.15	3605.1	2.1352e-05	9.4e-07
333.15	3722	2.1849e-05	9.44e-07
333.15	3815.4	2.2289e-05	9.48e-07
333.15	3932.1	2.291e-05	9.54e-07
333.15	4050.8	2.3703e-05	9.6e-07
333.15	4148.2	2.4449e-05	9.67e-07
333.15	4239.9	2.5244e-05	9.87e-07
333.15	4328.2	2.6158e-05	9.84e-07
333.15	4406.9	2.7148e-05	9.86e-07
333.15	4479.7	2.819e-05	9.96e-07
333.15	4549.6	2.9384e-05	1.194e-06
333.15	4612.3	3.0544e-05	1.017e-06
333.15	4671.8	3.1855e-05	1.315e-06
333.15	4725.8	3.3308e-05	1.112e-06
333.15	4776.6	3.4756e-05	1.191e-06
333.15	4828.1	3.629e-05	1.309e-06
333.15	4880.1	3.8012e-05	1.078e-06
333.15	4933.2	3.9824e-05	1.096e-06
333.15	4991.6	4.1896e-05	1.188e-06
333.15	5049	4.3946e-05	1.289e-06
333.15	5109.4	4.6033e-05	1.156e-06
333.15	5178.8	4.8331e-05	1.151e-06
333.15	5254.9	5.0722e-05	1.179e-06
333.15	5343.6	5.3309e-05	1.193e-06
333.15	5447.5	5.6104e-05	1.23e-06
333.15	5567.4	5.8832e-05	1.234e-06
333.15	5709.9	6.1963e-05	1.257e-06
333.15	5869.5	6.4834e-05	1.282e-06
333.15	6098.2	6.8701e-05	1.317e-06
333.15	6338.2	7.2174e-05	1.352e-06
333.15	6627.7	7.5839e-05	1.386e-06
333.15	6950.6	7.9524e-05	1.423e-06
333.15	7378.3	8.3953e-05	1.466e-06
333.15	7900	8.8688e-05	1.513e-06
333.15	8519.8	9.3546e-05	1.562e-06
333.15	9106.8	9.7949e-05	1.606e-06
333.15	9802	0.00010266	1.65e-06
333.15	10465	0.00010674	1.69e-06
333.15	11412	0.00011224	1.75e-06
333.15	12565	0.00011835	1.81e-06
350	64.67	1.753e-05	9.1e-07
350	96.54	1.7547e-05	9.11e-07
350	117.61	1.7549e-05	9.11e-07
350	143.77	1.7564e-05	9.11e-07
350	170.68	1.7565e-05	9.11e-07
350	204.56	1.7583e-05	9.11e-07
350	238.01	1.7586e-05	9.11e-07
350	269.03	1.7598e-05	9.11e-07
350	295.24	1.7599e-05	9.11e-07
350	332.44	1.761e-05	9.11e-07
350	363.13	1.7624e-05	9.11e-07
350	390.5	1.7632e-05	9.11e-07
350	418.5	1.7646e-05	9.11e-07
350	450.38	1.7654e-05	9.11e-07
350	485.3	1.766e-05	9.11e-07
350	522.75	1.7674e-05	9.12e-07
350	552.81	1.7683e-05	9.12e-07
350	579.7	1.7689e-05	9.12e-07
350	619.51	1.7714e-05	9.12e-07
350	654.26	1.7719e-05	9.12e-07
350	701.64	1.7746e-05	9.12e-07
350	739.48	1.7755e-05	9.12e-07
350	779.89	1.7775e-05	9.12e-07
350	809.98	1.7787e-05	9.12e-07
350	855.04	1.7798e-05	9.12e-07
350	900.26	1.782e-05	9.13e-07
350	954.25	1.784e-05	9.13e-07
350	997.88	1.7872e-05	9.13e-07
350	1051.5	1.7903e-05	9.13e-07
350	1146.2	1.7955e-05	9.14e-07
350	1196.5	1.7982e-05	9.14e-07
350	1265.4	1.8027e-05	9.14e-07
350	1341.2	1.8066e-05	9.15e-07
350	1392.7	1.8108e-05	9.15e-07
350	1473.1	1.8159e-05	9.15e-07
350	1546.1	1.8213e-05	9.16e-07
350	1621.8	1.8269e-05	9.16e-07
350	1656.3	1.8302e-05	9.16e-07
350	1713.2	1.8346e-05	9.17e-07
350	1840	1.8445e-05	9.17e-07
350	1888.3	1.8493e-05	9.18e-07
350	1964.6	1.8565e-05	9.18e-07
350	2005.9	1.8607e-05	9.19e-07
350	2043.2	1.8641e-05	9.19e-07
350	2108.6	1.8705e-05	9.19e-07
350	2309.3	1.8934e-05	9.21e-07
350	2394	1.9028e-05	9.22e-07
350	2449.2	1.9084e-05	9.22e-07
350	2505.1	1.9164e-05	9.23e-07
350	2608.1	1.9291e-05	9.24e-07
350	2657.7	1.9359e-05	9.25e-07
350	2798.4	1.9569e-05	9.26e-07
350	2900.4	1.9712e-05	9.27e-07
350	2978.2	1.986e-05	9.28e-07
350	3047.1	1.9959e-05	9.29e-07
350	3125.3	2.0098e-05	9.3e-07
350	3224.5	2.0283e-05	9.32e-07
350	3319.6	2.0469e-05	9.33e-07
350	3405.3	2.0643e-05	9.35e-07
350	3504.4	2.0852e-05	9.36e-07
350	3655.4	2.1228e-05	9.39e-07
350	3748	2.146e-05	9.41e-07
350	3869.5	2.1793e-05	9.43e-07
350	3987.5	2.2114e-05	9.46e-07
350	4143	2.2612e-05	9.5e-07
350	4307.3	2.322e-05	9.55e-07
350	4473.2	2.3863e-05	9.6e-07
350	4598.1	2.4429e-05	9.64e-07
350	4732.9	2.5084e-05	9.7e-07
350	4848.3	2.5714e-05	9.74e-07
350	4964.3	2.6366e-05	9.84e-07
350	5096.1	2.7237e-05	9.86e-07
350	5208.7	2.8056e-05	9.94e-07
350	5327.4	2.9018e-05	1e-06
350	5431.3	2.9949e-05	1.039e-06
350	5524.2	3.0782e-05	1.024e-06
350	5638.8	3.1894e-05	1.025e-06
350	5741	3.2986e-05	1.031e-06
350	5850	3.4343e-05	1.041e-06
350	5956.2	3.5607e-05	1.053e-06
350	6067.6	3.7056e-05	1.063e-06
350	6177.6	3.8568e-05	1.084e-06
350	6280.8	3.9947e-05	1.127e-06
350	6385.1	4.1393e-05	1.102e-06
350	6510.8	4.3191e-05	1.161e-06
350	6635.4	4.4968e-05	1.13e-06
350	6769.6	4.684e-05	1.144e-06
350	6918.8	4.8914e-05	1.158e-06
350	7076.5	5.1077e-05	1.171e-06
350	7230	5.3062e-05	1.206e-06
350	7408.1	5.5315e-05	1.204e-06
350	7592	5.7547e-05	1.222e-06
350	7767.3	5.9567e-05	1.243e-06
350	8006.2	6.218e-05	1.257e-06
350	8297.4	6.505e-05	1.284e-06
350	8558.7	6.754e-05	1.304e-06
350	8849.5	7.0284e-05	1.333e-06
350	9294	7.3987e-05	1.367e-06
350	9823.4	7.8141e-05	1.408e-06
350	10614	8.3544e-05	1.462e-06
350	11424	8.8692e-05	1.513e-06
350	12301	9.3858e-05	1.567e-06
375	72.559	1.8617e-05	9.19e-07
375	103.02	1.8643e-05	9.19e-07
375	132.08	1.8644e-05	9.19e-07
375	156.74	1.865e-05	9.19e-07
375	183.32	1.8656e-05	9.19e-07
375	219.98	1.8676e-05	9.19e-07
375	258.3	1.8688e-05	9.19e-07
375	282.8	1.8696e-05	9.19e-07
375	308.36	1.8705e-05	9.19e-07
375	342.15	1.871e-05	9.2e-07
375	371.36	1.8722e-05	9.2e-07
375	403.52	1.8733e-05	9.2e-07
375	435.36	1.874e-05	9.2e-07
375	464.82	1.8753e-05	9.2e-07
375	499.73	1.8764e-05	9.2e-07
375	539.14	1.8777e-05	9.2e-07
375	563.93	1.8779e-05	9.2e-07
375	612.98	1.8799e-05	9.2e-07
375	661.4	1.8822e-05	9.2e-07
375	695.12	1.8837e-05	9.21e-07
375	746.7	1.8857e-05	9.21e-07
375	805.08	1.8879e-05	9.21e-07
375	855.26	1.8903e-05	9.21e-07
375	917.96	1.8936e-05	9.21e-07
375	999.57	1.8968e-05	9.22e-07
375	1067.6	1.9008e-05	9.22e-07
375	1146.8	1.9045e-05	9.22e-07
375	1211.3	1.9087e-05	9.22e-07
375	1302.5	1.914e-05	9.23e-07
375	1385	1.919e-05	9.23e-07
375	1460.9	1.9238e-05	9.24e-07
375	1534.4	1.928e-05	9.24e-07
375	1588.3	1.932e-05	9.24e-07
375	1723.3	1.9412e-05	9.25e-07
375	1809.5	1.9481e-05	9.25e-07
375	1885.1	1.9538e-05	9.26e-07
375	1966.6	1.9594e-05	9.26e-07
375	2043	1.9663e-05	9.27e-07
375	2300.6	1.9905e-05	9.29e-07
375	2399.3	1.9979e-05	9.29e-07
375	2484.3	2.0062e-05	9.3e-07
375	2587.3	2.0188e-05	9.31e-07
375	2879.2	2.0512e-05	9.33e-07
375	3052.5	2.0721e-05	9.35e-07
375	3214.1	2.0946e-05	9.37e-07
375	3418.4	2.1223e-05	9.39e-07
375	3699.7	2.1672e-05	9.42e-07
375	3960.7	2.2142e-05	9.46e-07
375	4136.6	2.2489e-05	9.49e-07
375	4384.3	2.2994e-05	9.53e-07
375	4599	2.348e-05	9.57e-07
375	4821	2.4012e-05	9.61e-07
375	5057	2.4668e-05	9.66e-07
375	5280.9	2.5346e-05	9.71e-07
375	5535.4	2.6171e-05	9.77e-07
375	5778.6	2.7061e-05	9.84e-07
375	6000.4	2.7909e-05	9.91e-07
375	6326.2	2.9385e-05	1.003e-06
375	6677.7	3.1115e-05	1.016e-06
375	6887.6	3.2239e-05	1.027e-06
375	7092.9	3.3432e-05	1.034e-06
375	7293.5	3.4659e-05	1.043e-06
375	7524.4	3.6121e-05	1.057e-06
375	7762.9	3.7702e-05	1.07e-06
375	7973.1	3.9193e-05	1.078e-06
375	8202	4.0792e-05	1.093e-06
375	8452.7	4.2589e-05	1.109e-06
375	8711.3	4.4477e-05	1.126e-06
375	8972.9	4.6317e-05	1.136e-06
375	9257.7	4.8364e-05	1.15e-06
375	9573.7	5.0648e-05	1.172e-06
375	9868.9	5.2751e-05	1.184e-06
375	10221	5.5189e-05	1.209e-06
375	10547	5.7382e-05	1.221e-06
375	11030	6.052e-05	1.248e-06
375	11466	6.3216e-05	1.266e-06
375	12235	6.7796e-05	1.308e-06
375	12730	7.0444e-05	1.332e-06
375	13213	7.3194e-05	1.359e-06
375	13867	7.6553e-05	1.392e-06
375	14447	7.948e-05	1.421e-06
375	15713	8.5265e-05	1.479e-06
375	16802	8.9996e-05	1.526e-06
400	100.75	1.9699e-05	9.27e-07
400	127.69	1.9711e-05	9.27e-07
400	153.61	1.9716e-05	9.27e-07
400	174.48	1.9727e-05	9.27e-07
400	200.5	1.9734e-05	9.27e-07
400	224.7	1.9748e-05	9.28e-07
400	249.97	1.9752e-05	9.28e-07
400	276.92	1.9761e-05	9.28e-07
400	316.57	1.9772e-05	9.28e-07
400	356.06	1.9785e-05	9.28e-07
400	387.16	1.9798e-05	9.28e-07
400	431.42	1.9812e-05	9.28e-07
400	458.7	1.9822e-05	9.28e-07
400	482.84	1.9831e-05	9.28e-07
400	520.38	1.9844e-05	9.28e-07
400	569.64	1.9865e-05	9.28e-07
400	636.33	1.9889e-05	9.29e-07
400	669.9	1.9899e-05	9.29e-07
400	702.5	1.991e-05	9.29e-07
400	753.74	1.9935e-05	9.29e-07
400	791.41	1.995e-05	9.29e-07
400	818.44	1.9964e-05	9.29e-07
400	853.97	1.998e-05	9.29e-07
400	930.59	2.0011e-05	9.3e-07
400	972.98	2.0033e-05	9.3e-07
400	1025.6	2.0056e-05	9.3e-07
400	1088.2	2.0089e-05	9.3e-07
400	1153.3	2.0123e-05	9.3e-07
400	1240.9	2.017e-05	9.31e-07
400	1319.7	2.0215e-05	9.31e-07
400	1397.4	2.0252e-05	9.31e-07
400	1462.5	2.0292e-05	9.32e-07
400	1615.7	2.0392e-05	9.33e-07
400	1688.5	2.0435e-05	9.33e-07
400	1768	2.0487e-05	9.33e-07
400	1876.4	2.0566e-05	9.34e-07
400	1956	2.0628e-05	9.34e-07
400	2349.8	2.0929e-05	9.37e-07
400	2474.2	2.104e-05	9.38e-07
400	2539.4	2.1093e-05	9.38e-07
400	2835.4	2.1379e-05	9.4e-07
400	3021.7	2.1564e-05	9.42e-07
400	3266.3	2.1838e-05	9.44e-07
400	3463.7	2.2052e-05	9.45e-07
400	3614.2	2.2252e-05	9.47e-07
400	3864.1	2.2562e-05	9.49e-07
400	4152.9	2.2982e-05	9.53e-07
400	4564.1	2.3626e-05	9.58e-07
400	4898.5	2.4207e-05	9.62e-07
400	5193.2	2.4766e-05	9.66e-07
400	5460.7	2.5309e-05	9.71e-07
400	5742.7	2.5936e-05	9.76e-07
400	6016.6	2.6577e-05	9.81e-07
400	6359.6	2.7459e-05	9.87e-07
400	6659.9	2.8306e-05	9.94e-07
400	6950.7	2.9173e-05	1.001e-06
400	7241	3.0088e-05	1.008e-06
400	7553	3.1149e-05	1.016e-06
400	7833.9	3.2163e-05	1.024e-06
400	8142	3.3321e-05	1.033e-06
400	8490.6	3.475e-05	1.044e-06
400	8799	3.6041e-05	1.054e-06
400	9139.9	3.7499e-05	1.066e-06
400	9483.5	3.9026e-05	1.078e-06
400	9833.2	4.0704e-05	1.091e-06
400	10191	4.2339e-05	1.104e-06
400	10589	4.4287e-05	1.118e-06
400	11000	4.6186e-05	1.133e-06
400	11434	4.8273e-05	1.15e-06
400	11902	5.0548e-05	1.168e-06
400	12397	5.2948e-05	1.186e-06
400	12979	5.5667e-05	1.207e-06
400	13719	5.9012e-05	1.234e-06
400	14342	6.1792e-05	1.255e-06
400	15061	6.486e-05	1.278e-06
400	15882	6.8401e-05	1.312e-06
400	16792	7.201e-05	1.348e-06
400	17814	7.5995e-05	1.387e-06
400	18718	7.9395e-05	1.42e-06
400	19958	8.386e-05	1.465e-06
425	94.411	2.0782e-05	9.36e-07
425	120.34	2.0795e-05	9.36e-07
425	155.2	2.0806e-05	9.36e-07
425	171.36	2.0812e-05	9.36e-07
425	192.07	2.082e-05	9.36e-07
425	205.12	2.0827e-05	9.36e-07
425	228.29	2.0836e-05	9.36e-07
425	263.75	2.0848e-05	9.36e-07
425	289.54	2.0856e-05	9.36e-07
425	311.35	2.0864e-05	9.36e-07
425	345.33	2.0876e-05	9.36e-07
425	374.1	2.0881e-05	9.36e-07
425	392.73	2.0889e-05	9.36e-07
425	424.79	2.0901e-05	9.36e-07
425	466.85	2.0918e-05	9.37e-07
425	503.16	2.0931e-05	9.37e-07
425	552.86	2.0954e-05	9.37e-07
425	598.07	2.0968e-05	9.37e-07
425	629.86	2.098e-05	9.37e-07
425	668.63	2.0996e-05	9.37e-07
425	715.37	2.1014e-05	9.37e-07
425	764.24	2.103e-05	9.37e-07
425	813.31	2.1052e-05	9.38e-07
425	867.54	2.1076e-05	9.38e-07
425	939.66	2.1108e-05	9.38e-07
425	997	2.114e-05	9.38e-07
425	1067.1	2.117e-05	9.39e-07
425	1141.5	2.1209e-05	9.39e-07
425	1213.4	2.1244e-05	9.39e-07
425	1299.4	2.1289e-05	9.4e-07
425	1385.6	2.1332e-05	9.4e-07
425	1442.8	2.1366e-05	9.4e-07
425	1506.3	2.1406e-05	9.4e-07
425	1587.6	2.1448e-05	9.41e-07
425	1656.3	2.1491e-05	9.41e-07
425	1757.6	2.1554e-05	9.42e-07
425	1833.5	2.1605e-05	9.42e-07
425	1920.5	2.1663e-05	9.42e-07
425	2344.2	2.1957e-05	9.45e-07
425	2479.6	2.2056e-05	9.45e-07
425	2578.5	2.2144e-05	9.46e-07
425	2931.1	2.2436e-05	9.48e-07
425	3150.4	2.2639e-05	9.5e-07
425	3325.5	2.2816e-05	9.51e-07
425	3586.1	2.3074e-05	9.53e-07
425	3797.1	2.3303e-05	9.55e-07
425	4066.4	2.3615e-05	9.58e-07
425	4298.8	2.3879e-05	9.6e-07
425	4546.2	2.4202e-05	9.62e-07
425	4863.6	2.4638e-05	9.65e-07
425	5124.6	2.5013e-05	9.68e-07
425	5454.2	2.5526e-05	9.72e-07
425	5739.4	2.6e-05	9.76e-07
425	6056.4	2.6541e-05	9.8e-07
425	6339.5	2.7063e-05	9.84e-07
425	6654.3	2.7681e-05	9.89e-07
425	7006	2.84e-05	9.95e-07
425	7363.2	2.9208e-05	1.001e-06
425	7712.7	3.0057e-05	1.008e-06
425	8064.1	3.0966e-05	1.015e-06
425	8392.3	3.1791e-05	1.021e-06
425	8760.7	3.2772e-05	1.029e-06
425	9135.4	3.3855e-05	1.037e-06
425	9514.5	3.5009e-05	1.046e-06
425	9876.1	3.6135e-05	1.055e-06
425	10296	3.7437e-05	1.065e-06
425	10899	3.9478e-05	1.081e-06
425	11563	4.1706e-05	1.098e-06
425	11725	4.223e-05	1.102e-06
425	12199	4.3892e-05	1.115e-06
425	12731	4.5794e-05	1.13e-06
425	13246	4.7674e-05	1.145e-06
425	14152	5.0899e-05	1.17e-06
425	14767	5.3091e-05	1.187e-06
425	15462	5.5633e-05	1.207e-06
425	16201	5.822e-05	1.227e-06
425	17025	6.094e-05	1.248e-06
425	17904	6.3975e-05	1.272e-06
425	18751	6.7073e-05	1.299e-06
425	19579	6.9925e-05	1.327e-06
425	20442	7.2707e-05	1.354e-06
