Measured thermophysical data. Physical-Chemical Properties and Liquid-Liquid Equilibria for Binary Mixture of Diethylene Glycol Diethyl Ether with Water
Source: J. Chem. Eng. Data, 2004, 10.1021/je049932z
Compound 1: diethylene glycol diethyl ether, C8H18O3, InChI=1S/C8H18O3/c1-3-9-5-7-11-8-6-10-4-2/h3-8H2,1-2H3, purity 99%
Compound 2: water, H2O, InChI=1S/H2O/h1H2

System: diethylene glycol diethyl ether; phases: Liquid, Gas
Property: Surface tension liquid-gas, N/m (Liquid); method: DROPV:UFactor:8
Temperature, K	Surface tension liquid-gas, N/m	uncertainty
293.15	0.02927	0.00162

System: diethylene glycol diethyl ether; phases: Liquid
Property: Viscosity, Pa*s (Liquid); method: CAPTUB:UFactor:4
Temperature, K	Pressure, kPa	Viscosity, Pa*s	uncertainty
293.15	101.3	0.001346	4.2e-05

System: diethylene glycol diethyl ether; phases: Liquid
Property: Mass density, kg/m3 (Liquid); method: PYCNOM:UFactor:16
Temperature, K	Pressure, kPa	Mass density, kg/m3	uncertainty
293.15	101.3	907.3	4.2

System: water; phases: Liquid, Gas
Property: Surface tension liquid-gas, N/m (Liquid); method: DROPV:UFactor:8
Temperature, K	Surface tension liquid-gas, N/m	uncertainty
293.15	0.07275	0.00284

System: water; phases: Liquid
Property: Viscosity, Pa*s (Liquid); method: CAPTUB:UFactor:4
Temperature, K	Pressure, kPa	Viscosity, Pa*s	uncertainty
293.15	101.3	0.001002	3.2e-05

System: water; phases: Liquid
Property: Mass density, kg/m3 (Liquid); method: PYCNOM:UFactor:16
Temperature, K	Pressure, kPa	Mass density, kg/m3	uncertainty
293.15	101.3	997.2	4.8

System: diethylene glycol diethyl ether + water; phases: Liquid, Gas
Fixed: Temperature, K = 293.15
Property: Surface tension liquid-gas, N/m (Liquid); method: DROPV:UFactor:8
Mass fraction of diethylene glycol diethyl ether	Surface tension liquid-gas, N/m	uncertainty
0	0.07275	0.00284
0.0033	0.06973	0.00275
0.00984	0.06653	0.00266
0.01771	0.05682	0.00239
0.03207	0.04557	0.00208
0.05896	0.03639	0.00182
0.1611	0.03571	0.0018
0.2547	0.03492	0.00178
0.3578	0.03411	0.00176
0.4474	0.0323	0.00171
0.5769	0.03054	0.00166
0.6385	0.03021	0.00165
0.7794	0.03046	0.00165
0.8549	0.0302	0.00165
0.9401	0.03001	0.00164
1	0.02927	0.00162

System: diethylene glycol diethyl ether + water; phases: Liquid
Fixed: Temperature, K = 293.15
Fixed: Pressure, kPa = 101.3
Property: Viscosity, Pa*s (Liquid); method: CAPTUB:UFactor:4
Mass fraction of diethylene glycol diethyl ether	Viscosity, Pa*s	uncertainty
0	0.001002	3.2e-05
0.05896	0.00118	3.7e-05
0.07683	0.001265	3.9e-05
0.1038	0.001451	4.4e-05
0.1227	0.001551	4.7e-05
0.1425	0.001701	5.1e-05
0.1611	0.001839	5.5e-05
0.1951	0.002149	6.3e-05
0.2207	0.002414	7.1e-05
0.2547	0.002707	7.9e-05
0.2828	0.002961	8.6e-05
0.3185	0.003302	9.5e-05
0.3578	0.003637	0.000104
0.3773	0.003781	0.000108
0.4231	0.004088	0.000116
0.4474	0.004218	0.000119
0.5151	0.004462	0.000126
0.5769	0.004452	0.000126
0.6029	0.004403	0.000125
0.6385	0.00427	0.000121
0.6814	0.004033	0.000115
0.7256	0.003741	0.000107
0.7794	0.003189	9.2e-05
0.8549	0.002599	7.6e-05
0.9195	0.001943	5.8e-05
0.9401	0.00175	5e-05
0.9769	0.001467	4.5e-05
1	0.001346	4.2e-05

System: diethylene glycol diethyl ether + water; phases: Liquid
Fixed: Temperature, K = 293.15
Fixed: Pressure, kPa = 101.3
Property: Mass density, kg/m3 (Liquid); method: PYCNOM:UFactor:16
Mass fraction of diethylene glycol diethyl ether	Mass density, kg/m3	uncertainty
0	997.2	4.8
0.05896	996.7	4.8
0.07683	996.9	4.8
0.1038	997.1	4.8
0.1227	997.2	4.8
0.1425	998.2	4.8
0.1611	998.5	4.8
0.1951	998.6	4.8
0.2207	999.3	4.8
0.2547	999.1	4.8
0.2828	999.8	4.8
0.3185	999.5	4.8
0.3578	999.1	4.8
0.3773	996.6	4.8
0.4231	994.6	4.8
0.4474	993.1	4.8
0.5151	989	4.7
0.5769	981.1	4.7
0.6029	979.1	4.7
0.6385	973.1	4.6
0.6814	966.4	4.6
0.7256	960.1	4.6
0.7794	949.6	4.5
0.8549	940.7	4.4
0.9195	926.2	4.3
0.9401	920.7	4.3
0.9769	912.8	4.3
1	907.3	4.2

System: diethylene glycol diethyl ether + water; phases: Liquid mixture 1, Liquid mixture 2
Fixed: Pressure, kPa = 101.3
Property: Mass fraction of diethylene glycol diethyl ether (Liquid mixture 1); method: CHROM:UFactor:4
Temperature, K	Mass fraction of diethylene glycol diethyl ether	uncertainty
301.15	0.7937	0.0064
302.15	0.8042	0.0061
303.15	0.8137	0.0058
308.15	0.8488	0.0047
313.15	0.8664	0.0041
318.15	0.8834	0.0037
323.15	0.8934	0.0035
333.15	0.9016	0.0033
343.15	0.9045	0.0032
353.15	0.9079	0.0031
363.15	0.9088	0.0031

System: diethylene glycol diethyl ether + water; phases: Liquid mixture 2, Liquid mixture 1
Fixed: Pressure, kPa = 101.3
Property: Mass fraction of diethylene glycol diethyl ether (Liquid mixture 2); method: CHROM:UFactor:4
Temperature, K	Mass fraction of diethylene glycol diethyl ether	uncertainty
301.15	0.5875	0.0128
302.15	0.5631	0.0135
303.15	0.5452	0.0141
308.15	0.4616	0.0143
313.15	0.3912	0.0121
318.15	0.3419	0.0106
323.15	0.3046	0.0094
333.15	0.2329	0.0072
343.15	0.1754	0.0054
353.15	0.1421	0.0044
363.15	0.1277	0.004
