Measured thermophysical data. Conductivity and Viscosity of 1-Allyl-3-methyl-imidazolium Chloride + Water and + Ethanol from 293.15 K to 333.15 K
Source: J. Chem. Eng. Data, 2005, 10.1021/je049787p
Compound 1: 1-allyl-3-methylimidazolium chloride, C7H11ClN2, InChI=1S/C7H11N2.ClH/c1-3-4-9-6-5-8(2)7-9;/h3,5-7H,1,4H2,2H3;1H/q+1;/p-1
Compound 2: water, H2O, InChI=1S/H2O/h1H2
Compound 3: ethanol, C2H6O, InChI=1S/C2H6O/c1-2-3/h3H,2H2,1H3

System: 1-allyl-3-methylimidazolium chloride; phases: Liquid
Fixed: Pressure, kPa = 101.3
Property: Electrical conductivity, S/m (Liquid); method: Alternating current cell with electrodes
Temperature, K	Electrical conductivity, S/m	uncertainty
293.15	0.00382	0.00038
303.15	0.0044	0.00044
313.15	0.00501	0.0005
323.15	0.00562	0.00056
333.15	0.00624	0.00062

System: 1-allyl-3-methylimidazolium chloride; phases: Liquid
Fixed: Pressure, kPa = 101.3
Property: Viscosity, Pa*s (Liquid); method: CAPTUB:UFactor:32
Temperature, K	Viscosity, Pa*s	uncertainty
293.15	0.066	0.0103
303.15	0.0447	0.0059
313.15	0.0253	0.0035
323.15	0.0206	0.0028
333.15	0.0162	0.0023

System: water + 1-allyl-3-methylimidazolium chloride; phases: Liquid
Fixed: Pressure, kPa = 101.3
Property: Electrical conductivity, S/m (Liquid); method: Alternating current cell with electrodes
Temperature, K	Mole fraction of water	Electrical conductivity, S/m	uncertainty
293.15	0	0.00382	0.00038
303.15	0	0.0044	0.00044
313.15	0	0.00501	0.0005
323.15	0	0.00562	0.00056
333.15	0	0.00624	0.00062
293.15	0.3	0.00817	0.00082
303.15	0.3	0.00874	0.00087
313.15	0.3	0.0093	0.00093
323.15	0.3	0.00985	0.00099
333.15	0.3	0.01041	0.00104
293.15	0.45	0.01114	0.00111
303.15	0.45	0.01171	0.00117
313.15	0.45	0.01225	0.00123
323.15	0.45	0.0128	0.00128
333.15	0.45	0.01334	0.00133
293.15	0.59	0.01362	0.00136
303.15	0.59	0.01419	0.00142
313.15	0.59	0.01473	0.00147
323.15	0.59	0.01527	0.00153
333.15	0.59	0.0158	0.00158
293.15	0.65	0.01555	0.00156
303.15	0.65	0.01609	0.00161
313.15	0.65	0.01662	0.00166
323.15	0.65	0.01716	0.00172
333.15	0.65	0.0177	0.00177
293.15	0.7	0.0173	0.00173
303.15	0.7	0.01784	0.00178
313.15	0.7	0.01837	0.00184
323.15	0.7	0.0189	0.00189
333.15	0.7	0.01942	0.00194
293.15	0.75	0.01842	0.00184
303.15	0.75	0.01894	0.00189
313.15	0.75	0.01948	0.00195
323.15	0.75	0.01999	0.002
333.15	0.75	0.02051	0.00205
293.15	0.8	0.01935	0.00194
303.15	0.8	0.01986	0.00199
313.15	0.8	0.02035	0.00204
323.15	0.8	0.02086	0.00209
333.15	0.8	0.02135	0.00214

System: water + 1-allyl-3-methylimidazolium chloride; phases: Liquid
Fixed: Pressure, kPa = 101.3
Property: Viscosity, Pa*s (Liquid); method: CAPTUB:UFactor:32
Temperature, K	Mole fraction of water	Viscosity, Pa*s	uncertainty
293.15	0	0.066	0.0103
303.15	0	0.0447	0.0059
313.15	0	0.0253	0.0035
323.15	0	0.0206	0.0028
333.15	0	0.0162	0.0023
293.15	0.3	0.0513	0.0015
303.15	0.3	0.0407	0.0053
313.15	0.3	0.0241	0.0033
323.15	0.3	0.0196	0.0027
333.15	0.3	0.015	0.0021
293.15	0.45	0.0427	0.0056
303.15	0.45	0.0314	0.0042
313.15	0.45	0.0229	0.0031
323.15	0.45	0.0182	0.0025
333.15	0.45	0.0151	0.0021
293.15	0.59	0.0344	0.0045
303.15	0.59	0.0275	0.0037
313.15	0.59	0.0227	0.0031
323.15	0.59	0.0183	0.0025
333.15	0.59	0.0149	0.0021
293.15	0.65	0.0291	0.0039
303.15	0.65	0.0242	0.0033
313.15	0.65	0.0209	0.0028
323.15	0.65	0.0176	0.0024
333.15	0.65	0.0143	0.002
293.15	0.7	0.0261	0.0035
303.15	0.7	0.022	0.003
313.15	0.7	0.0195	0.0027
323.15	0.7	0.0164	0.0023
333.15	0.7	0.013	0.0019
293.15	0.75	0.0226	0.0031
303.15	0.75	0.0187	0.0026
313.15	0.75	0.0154	0.0022
323.15	0.75	0.0122	0.0018
333.15	0.75	0.0101	0.0015
293.15	0.8	0.0193	0.0026
303.15	0.8	0.0156	0.0022
313.15	0.8	0.0127	0.0018
323.15	0.8	0.0111	0.0016
333.15	0.8	0.0092	0.0014

System: ethanol + 1-allyl-3-methylimidazolium chloride; phases: Liquid
Fixed: Pressure, kPa = 101.3
Property: Electrical conductivity, S/m (Liquid); method: Alternating current cell with electrodes
Temperature, K	Mole fraction of ethanol	Electrical conductivity, S/m	uncertainty
293.15	0	0.00382	0.00038
303.15	0	0.0044	0.00044
313.15	0	0.00501	0.0005
323.15	0	0.00562	0.00056
333.15	0	0.00624	0.00062
293.15	0.1	0.00485	0.00049
303.15	0.1	0.00543	0.00054
313.15	0.1	0.00604	0.0006
323.15	0.1	0.0066	0.00066
333.15	0.1	0.00722	0.00072
293.15	0.2	0.00627	0.00063
303.15	0.2	0.00682	0.00068
313.15	0.2	0.0074	0.00074
323.15	0.2	0.00801	0.0008
333.15	0.2	0.00859	0.00086
293.15	0.3	0.00703	0.0007
303.15	0.3	0.00759	0.00076
313.15	0.3	0.00818	0.00082
323.15	0.3	0.00876	0.00088
333.15	0.3	0.00935	0.00094
293.15	0.35	0.008	0.0008
303.15	0.35	0.00855	0.00086
313.15	0.35	0.0091	0.00091
323.15	0.35	0.00969	0.00097
333.15	0.35	0.01024	0.00102
293.15	0.45	0.00884	0.00088
303.15	0.45	0.00943	0.00094
313.15	0.45	0.00999	0.001
323.15	0.45	0.01056	0.00106
333.15	0.45	0.0111	0.00111
293.15	0.5	0.00952	0.00095
303.15	0.5	0.01006	0.00101
313.15	0.5	0.0106	0.00106
323.15	0.5	0.01113	0.00111
333.15	0.5	0.01166	0.00117
293.15	0.55	0.01033	0.00103
303.15	0.55	0.01089	0.00109
313.15	0.55	0.01143	0.00114
323.15	0.55	0.01197	0.0012
333.15	0.55	0.0125	0.00125

System: ethanol + 1-allyl-3-methylimidazolium chloride; phases: Liquid
Fixed: Pressure, kPa = 101.3
Property: Viscosity, Pa*s (Liquid); method: CAPTUB:UFactor:32
Temperature, K	Mole fraction of ethanol	Viscosity, Pa*s	uncertainty
293.15	0	0.066	0.0103
303.15	0	0.0447	0.0059
313.15	0	0.0253	0.0035
323.15	0	0.0206	0.0028
333.15	0	0.0162	0.0023
293.15	0.1	0.0546	0.003
303.15	0.1	0.0441	0.0058
313.15	0.1	0.0246	0.0034
323.15	0.1	0.02	0.0028
333.15	0.1	0.016	0.0023
293.15	0.2	0.0457	0.006
303.15	0.2	0.0422	0.0055
313.15	0.2	0.0241	0.0033
323.15	0.2	0.0195	0.0027
333.15	0.2	0.0154	0.0022
293.15	0.3	0.0391	0.0051
303.15	0.3	0.0309	0.0041
313.15	0.3	0.0226	0.0031
323.15	0.3	0.0187	0.0026
333.15	0.3	0.0151	0.0021
293.15	0.35	0.0305	0.0041
303.15	0.35	0.0251	0.0034
313.15	0.35	0.0194	0.0027
323.15	0.35	0.016	0.0022
333.15	0.35	0.0144	0.002
293.15	0.45	0.0264	0.0035
303.15	0.45	0.0221	0.003
313.15	0.45	0.0201	0.0028
323.15	0.45	0.0167	0.0023
333.15	0.45	0.0131	0.0019
293.15	0.5	0.0232	0.0031
303.15	0.5	0.0181	0.0025
313.15	0.5	0.0153	0.0022
323.15	0.5	0.0136	0.0019
333.15	0.5	0.0112	0.0016
293.15	0.55	0.0204	0.0028
303.15	0.55	0.0163	0.0023
313.15	0.55	0.014	0.002
323.15	0.55	0.0125	0.0018
333.15	0.55	0.0101	0.0015
