Measured thermophysical data. Surface and interfacial tension of the ternary system heptane + toluene + N,N-dimethylformamide
Source: J. Chem. Eng. Data, 2004, 10.1021/je0499566
Compound 1: heptane, C7H16, InChI=1S/C7H16/c1-3-5-7-6-4-2/h3-7H2,1-2H3, purity 99%
Compound 2: toluene, C7H8, InChI=1S/C7H8/c1-7-5-3-2-4-6-7/h2-6H,1H3, purity 99.5%
Compound 3: dimethylformamide, C3H7NO, InChI=1S/C3H7NO/c1-4(2)3-5/h3H,1-2H3, purity 99.5%

System: dimethylformamide + toluene + heptane; phases: Liquid, Air at 1 atmosphere
Property: Surface tension liquid-gas, N/m (Liquid); method: Pendant drop shape
Temperature, K	Mole fraction of heptane	Mole fraction of toluene	Surface tension liquid-gas, N/m	uncertainty
287.81	0.0497	0.1496	0.02978	0.00042
287.81	0.0497	0.7456	0.02857	0.0004
287.81	0.0498	0.2515	0.02952	0.00041
287.81	0.0498	0.3508	0.02985	0.00042
287.81	0.05	0.0502	0.0303	0.00042
287.81	0.05	0.5496	0.02886	0.00041
287.81	0.0502	0.65	0.02878	0.0004
287.81	0.0521	0.8473	0.02826	0.0004
287.81	0.0998	0.5482	0.02728	0.00039
287.81	0.0999	0.6504	0.02731	0.00039
287.81	0.1	0.4553	0.02703	0.00038
287.81	0.1	0.75	0.02739	0.00039
287.81	0.1993	0.4485	0.02498	0.00036
287.81	0.1998	0.6488	0.02573	0.00037
287.81	0.2	0.5501	0.02558	0.00037
287.81	0.2917	0.5605	0.02465	0.00036
287.81	0.2994	0.4493	0.02361	0.00034
287.81	0.4498	0.4999	0.02352	0.00034
287.81	0.6501	0.3	0.02228	0.00033
287.81	0.7496	0.2	0.02176	0.00033
287.81	0.8497	0.1002	0.02104	0.00032
297.82	0.0497	0.1496	0.02969	0.00042
297.82	0.0497	0.7456	0.02752	0.00039
297.82	0.0498	0.2515	0.02867	0.0004
297.82	0.0498	0.3508	0.02839	0.0004
297.82	0.05	0.0502	0.02857	0.0004
297.82	0.05	0.5496	0.02786	0.00039
297.82	0.0502	0.65	0.02781	0.00039
297.82	0.0521	0.8473	0.02717	0.00038
297.82	0.0998	0.5482	0.02614	0.00037
297.82	0.0999	0.6504	0.02635	0.00038
297.82	0.1	0.4553	0.02625	0.00037
297.82	0.1	0.75	0.02642	0.00038
297.82	0.1993	0.4485	0.02422	0.00035
297.82	0.1998	0.6488	0.02474	0.00036
297.82	0.2	0.5501	0.02464	0.00036
297.82	0.2917	0.5605	0.02359	0.00034
297.82	0.2994	0.4493	0.0233	0.00034
297.82	0.3997	0.4499	0.02269	0.00033
297.82	0.4498	0.4999	0.02247	0.00033
297.82	0.5623	0.3071	0.02158	0.00032
297.82	0.8497	0.1002	0.01978	0.0003
307.86	0.0498	0.3508	0.02759	0.00039
307.86	0.0998	0.5482	0.02565	0.00037
307.86	0.0999	0.6504	0.02576	0.00037
307.86	0.1	0.75	0.02538	0.00036
307.86	0.1993	0.4485	0.02322	0.00034
307.86	0.1998	0.6488	0.02386	0.00035
307.86	0.2	0.5501	0.02353	0.00034
307.86	0.2917	0.5605	0.02259	0.00033
307.86	0.2994	0.4493	0.02256	0.00033
307.86	0.3997	0.4499	0.02173	0.00032
307.86	0.5623	0.3071	0.02062	0.00031
317.86	0.0497	0.1496	0.02744	0.00039
317.86	0.0498	0.2515	0.02722	0.00039
317.86	0.0498	0.3508	0.02699	0.00038
317.86	0.05	0.0502	0.02767	0.00039
317.86	0.0998	0.5482	0.02453	0.00035
317.86	0.0999	0.6504	0.02493	0.00036
317.86	0.1	0.4553	0.02392	0.00035
317.86	0.1	0.75	0.02441	0.00035
317.86	0.1993	0.4485	0.02347	0.00034
317.86	0.1998	0.6488	0.02177	0.00032
317.86	0.2	0.5501	0.02275	0.00033
317.86	0.2917	0.5605	0.02195	0.00032
317.86	0.2994	0.4493	0.02156	0.00032
317.86	0.3997	0.4499	0.02107	0.00031
317.86	0.4498	0.4999	0.02006	0.0003
317.86	0.5496	0.3998	0.01998	0.0003
317.86	0.5623	0.3071	0.01968	0.0003
317.86	0.6501	0.3	0.01938	0.0003
317.86	0.7496	0.2	0.01885	0.00029
317.86	0.8497	0.1002	0.01826	0.00028

System: dimethylformamide + toluene + heptane; phases: Liquid
Fixed: Pressure, kPa = 100
Property: Mass density, kg/m3 (Liquid); method: Vibrating tube method
Temperature, K	Mole fraction of heptane	Mole fraction of toluene	Mass density, kg/m3	uncertainty
288.15	0.0497	0.1496	925.9	
288.15	0.0497	0.7456	875.2	
288.15	0.0498	0.2515	917.5	
288.15	0.0498	0.3508	907.8	
288.15	0.05	0.0502	934.8	
288.15	0.05	0.5496	891.6	
288.15	0.0502	0.65	883.7	
288.15	0.0521	0.8473	865	
288.15	0.0998	0.5482	873.3	
288.15	0.0999	0.6504	868.3	
288.15	0.1	0.4553	881.8	
288.15	0.1	0.75	859.8	
288.15	0.1993	0.4485	852.6	
288.15	0.1998	0.6488	836.4	
288.15	0.2	0.5501	847.7	
288.15	0.2917	0.5605	816	
288.15	0.2994	0.4493	827.3	
288.15	0.3997	0.4499	791.3	
288.15	0.4498	0.4999	775.2	
288.15	0.5496	0.3998	756.9	
288.15	0.5623	0.3071	757.7	
288.15	0.6501	0.3	739.4	
288.15	0.7496	0.2	723	
288.15	0.8497	0.1002	708.5	
293.15	0.0497	0.1496	920.8	
293.15	0.0497	0.7456	870.1	
293.15	0.0498	0.2515	912.3	
293.15	0.0498	0.3508	902.6	
293.15	0.05	0.0502	929.8	
293.15	0.05	0.5496	886.4	
293.15	0.0502	0.65	878.1	
293.15	0.0521	0.8473	860.1	
293.15	0.0998	0.5482	868.3	
293.15	0.0999	0.6504	863.2	
293.15	0.1	0.4553	876.9	
293.15	0.1	0.75	854.7	
293.15	0.1993	0.4485	847	
293.15	0.1998	0.6488	831.4	
293.15	0.2	0.5501	842.4	
293.15	0.2917	0.5605	810.4	
293.15	0.2994	0.4493	821.7	
293.15	0.3997	0.4499	786.4	
293.15	0.4498	0.4999	770.7	
293.15	0.5496	0.3998	752.4	
293.15	0.5623	0.3071	753	
293.15	0.6501	0.3	735.1	
293.15	0.7496	0.2	719.3	
293.15	0.8497	0.1002	704.2	
298.15	0.0497	0.1496	916	
298.15	0.0497	0.7456	865	
298.15	0.0498	0.2515	907.3	
298.15	0.0498	0.3508	897.7	
298.15	0.05	0.0502	925.2	
298.15	0.05	0.5496	881.1	
298.15	0.0502	0.65	873.2	
298.15	0.0521	0.8473	855.5	
298.15	0.0998	0.5482	863.3	
298.15	0.0999	0.6504	858.2	
298.15	0.1	0.4553	872.4	
298.15	0.1	0.75	849.9	
298.15	0.1993	0.4485	840.5	
298.15	0.1998	0.6488	826.5	
298.15	0.2	0.5501	837.3	
298.15	0.2917	0.5605	805.6	
298.15	0.2994	0.4493	816.1	
298.15	0.3997	0.4499	781.7	
298.15	0.4498	0.4999	766.2	
298.15	0.5496	0.3998	748	
298.15	0.5623	0.3071	748.3	
298.15	0.6501	0.3	730.7	
298.15	0.7496	0.2	715	
298.15	0.8497	0.1002	699.9	
303.15	0.0497	0.1496	911	
303.15	0.0497	0.7456	860.2	
303.15	0.0498	0.2515	902.2	
303.15	0.0498	0.3508	892.6	
303.15	0.05	0.0502	920.2	
303.15	0.05	0.5496	875.8	
303.15	0.0502	0.65	868	
303.15	0.0521	0.8473	851	
303.15	0.0998	0.5482	857.7	
303.15	0.0999	0.6504	852.3	
303.15	0.1	0.4553	867.7	
303.15	0.1	0.75	844.6	
303.15	0.1993	0.4485	835	
303.15	0.1998	0.6488	821.4	
303.15	0.2	0.5501	831.8	
303.15	0.2917	0.5605	800.4	
303.15	0.2994	0.4493	809.6	
303.15	0.3997	0.4499	776.8	
303.15	0.4498	0.4999	761.8	
303.15	0.5496	0.3998	743.6	
303.15	0.5623	0.3071	743.6	
303.15	0.6501	0.3	726.4	
303.15	0.7496	0.2	710.6	
303.15	0.8497	0.1002	695.6	
308.15	0.0497	0.1496	905.8	
308.15	0.0497	0.7456	855.2	
308.15	0.0498	0.2515	896.1	
308.15	0.0498	0.3508	887.3	
308.15	0.05	0.0502	915	
308.15	0.05	0.5496	870.4	
308.15	0.0502	0.65	862.8	
308.15	0.0521	0.8473	846.3	
308.15	0.0998	0.5482	852.6	
308.15	0.0999	0.6504	847.3	
308.15	0.1	0.4553	862.8	
308.15	0.1	0.75	839.5	
308.15	0.1993	0.4485	829.2	
308.15	0.1998	0.6488	816.1	
308.15	0.2	0.5501	824.9	
308.15	0.2917	0.5605	795.1	
308.15	0.2994	0.4493	808.2	
308.15	0.3997	0.4499	771.6	
308.15	0.4498	0.4999	757.3	
308.15	0.5496	0.3998	739.2	
308.15	0.5623	0.3071	738.8	
308.15	0.6501	0.3	721.9	
308.15	0.7496	0.2	706.2	
308.15	0.8497	0.1002	691.2	
313.15	0.0497	0.1496	899.9	
313.15	0.0497	0.7456	850.2	
313.15	0.0498	0.2515	890.7	
313.15	0.0498	0.3508	881.9	
313.15	0.05	0.5496	865	
313.15	0.0502	0.65	856.9	
313.15	0.0521	0.8473	841.7	
313.15	0.0998	0.5482	847.3	
313.15	0.0999	0.6504	841.7	
313.15	0.1	0.4553	857.7	
313.15	0.1	0.75	834.5	
313.15	0.1993	0.4485	823.2	
313.15	0.1998	0.6488	810.7	
313.15	0.2	0.5501	819.5	
313.15	0.2917	0.5605	789.7	
313.15	0.2994	0.4493	797.5	
313.15	0.3997	0.4499	766.9	
313.15	0.4498	0.4999	752.8	
313.15	0.5496	0.3998	734.7	
313.15	0.5623	0.3071	734	
313.15	0.6501	0.3	717.4	
313.15	0.7496	0.2	701.8	
313.15	0.8497	0.1002	686.8	
318.15	0.0497	0.1496	894.5	
318.15	0.0497	0.7456	845.1	
318.15	0.0498	0.2515	884.9	
318.15	0.0498	0.3508	876.3	
318.15	0.05	0.0502	907.4	
318.15	0.05	0.5496	859.6	
318.15	0.0502	0.65	851.7	
318.15	0.0521	0.8473	837	
318.15	0.0998	0.5482	842	
318.15	0.0999	0.6504	836.1	
318.15	0.1	0.4553	850	
318.15	0.1	0.75	829.5	
318.15	0.1993	0.4485	816.2	
318.15	0.1998	0.6488	805.3	
318.15	0.2	0.5501	813.2	
318.15	0.2917	0.5605	784.3	
318.15	0.2994	0.4493	790.7	
318.15	0.3997	0.4499	761.7	
318.15	0.4498	0.4999	748.3	
318.15	0.5496	0.3998	730.2	
318.15	0.5623	0.3071	729.3	
318.15	0.6501	0.3	712.9	
318.15	0.8497	0.1002	682.3	
323.15	0.0497	0.1496	888.8	
323.15	0.0497	0.7456	840.3	
323.15	0.0498	0.2515	879	
323.15	0.0498	0.3508	870.7	
323.15	0.05	0.0502	897.4	
323.15	0.05	0.5496	854.2	
323.15	0.0502	0.65	846.6	
323.15	0.0521	0.8473	832.3	
323.15	0.0998	0.5482	836.4	
323.15	0.0999	0.6504	830.5	
323.15	0.1	0.4553	843.8	
323.15	0.1	0.75	824.6	
323.15	0.1993	0.4485	810.7	
323.15	0.1998	0.6488	800	
323.15	0.2	0.5501	806.7	
323.15	0.2917	0.5605	779	
323.15	0.2994	0.4493	783.9	
323.15	0.3997	0.4499	756.4	
323.15	0.4498	0.4999	743.7	
323.15	0.5496	0.3998	725.6	
323.15	0.5623	0.3071	724.6	
323.15	0.6501	0.3	708.4	
323.15	0.7496	0.2	692.7	
323.15	0.8497	0.1002	677.8	
328.15	0.0497	0.1496	880	
328.15	0.0497	0.7456	835.5	
328.15	0.0498	0.2515	872.1	
328.15	0.0498	0.3508	865.1	
328.15	0.05	0.0502	888.7	
328.15	0.05	0.5496	849.1	
328.15	0.0502	0.65	841.7	
328.15	0.0521	0.8473	827.6	
328.15	0.0998	0.5482	831.6	
328.15	0.0999	0.6504	825.3	
328.15	0.1	0.4553	837.8	
328.15	0.1	0.75	819.8	
328.15	0.1993	0.4485	805.4	
328.15	0.1998	0.6488	795	
328.15	0.2	0.5501	800.3	
328.15	0.2917	0.5605	774	
328.15	0.2994	0.4493	777.3	
328.15	0.3997	0.4499	751.4	
328.15	0.4498	0.4999	739	
328.15	0.5496	0.3998	721	
328.15	0.5623	0.3071	719.9	
328.15	0.6501	0.3	703.8	
328.15	0.7496	0.2	688.2	
328.15	0.8497	0.1002	673.3	
333.15	0.0497	0.1496	875.1	
333.15	0.0497	0.7456	830.7	
333.15	0.0498	0.2515	867	
333.15	0.0498	0.3508	859.6	
333.15	0.05	0.0502	883.5	
333.15	0.05	0.5496	844.3	
333.15	0.0502	0.65	836.8	
333.15	0.0521	0.8473	822.8	
333.15	0.0998	0.5482	826.8	
333.15	0.0999	0.6504	820.4	
333.15	0.1	0.4553	832.8	
333.15	0.1	0.75	815	
333.15	0.1993	0.4485	800.5	
333.15	0.1998	0.6488	790.2	
333.15	0.2	0.5501	795	
333.15	0.2917	0.5605	769.2	
333.15	0.2994	0.4493	771.7	
333.15	0.3997	0.4499	746.6	
333.15	0.4498	0.4999	734.3	
333.15	0.5496	0.3998	716.3	
333.15	0.5623	0.3071	715.2	
333.15	0.6501	0.3	699.2	
333.15	0.7496	0.2	683.6	
333.15	0.8497	0.1002	668.6	
