Measured thermophysical data. Isothermal Vapor-Liquid Equilibrium, Excess Enthalpy Data and Activity Coefficients at Infinite Dilution for the Binary System Water + Methyl Lactate
Source: J. Chem. Eng. Data, 2005, 10.1021/je049824c
Compound 1: methyl 2-hydroxypropanoate, C4H8O3, InChI=1S/C4H8O3/c1-3(5)4(6)7-2/h3,5H,1-2H3, purity 97%
Compound 2: water, H2O, InChI=1S/H2O/h1H2

System: methyl 2-hydroxypropanoate; phases: Liquid, Gas
Property: Vapor or sublimation pressure, kPa (Liquid); method: Closed cell (Static) method
Temperature, K	Vapor or sublimation pressure, kPa	uncertainty
283.15	0.17	0.04
293.15	0.43	0.04
303.15	0.87	0.04

System: methyl 2-hydroxypropanoate + water; phases: Liquid
Fixed: Pressure, kPa = 14100
Property: Excess molar enthalpy (molar enthalpy of mixing), kJ/mol (Liquid); method: Flow calorimetry
Temperature, K	Mole fraction of water	Excess molar enthalpy (molar enthalpy of mixing), kJ/mol	uncertainty
303.15	0.0632	0.01674	0.0009
303.15	0.1202	0.01492	0.00089
303.15	0.219	-0.00183	0.00079
303.15	0.3016	-0.01931	0.00093
303.15	0.3718	-0.03622	0.00121
303.15	0.4321	-0.05596	0.00157
303.15	0.5083	-0.09263	0.0023
303.15	0.5711	-0.1235	0.0029
303.15	0.6397	-0.1607	0.0037
303.15	0.7195	-0.2061	0.0047
303.15	0.7803	-0.2395	0.0054
303.15	0.8419	-0.2686	0.006
303.15	0.8988	-0.2709	0.006
303.15	0.9411	-0.2309	0.0052
303.15	0.9796	-0.1205	0.0029
333.15	0.0632	-0.0165	0.0009
333.15	0.1202	-0.03884	0.00125
333.15	0.219	-0.0884	0.00221
333.15	0.3016	-0.1204	0.0029
333.15	0.3718	-0.1442	0.0034
333.15	0.4321	-0.1666	0.0038
333.15	0.5083	-0.2006	0.0045
333.15	0.5711	-0.2308	0.0052
333.15	0.6397	-0.2691	0.006
333.15	0.7195	-0.3164	0.007
333.15	0.7803	-0.3512	0.0077
333.15	0.8419	-0.377	0.0083
333.15	0.8988	-0.3728	0.0082
333.15	0.9411	-0.321	0.0071
333.15	0.9796	-0.1647	0.0038

System: methyl 2-hydroxypropanoate + water; phases: Liquid, Gas
Property: Vapor or sublimation pressure, kPa (Liquid); method: Closed cell (Static) method
Temperature, K	Mole fraction of water	Vapor or sublimation pressure, kPa	uncertainty
283.15	0	0.17	0.04
283.15	0.0673	0.34	0.04
283.15	0.0753	0.36	0.04
283.15	0.232	0.66	0.04
283.15	0.2701	0.71	0.04
283.15	0.3687	0.84	0.04
283.15	0.44	0.91	0.04
283.15	0.4941	0.96	0.04
283.15	0.557	1.01	0.04
283.15	0.6007	1.06	0.04
283.15	0.6523	1.08	0.04
283.15	0.6912	1.1	0.04
283.15	0.7292	1.12	0.04
283.15	0.7607	1.13	0.04
283.15	0.7883	1.15	0.04
283.15	0.8323	1.17	0.04
283.15	0.8648	1.19	0.04
283.15	0.8895	1.2	0.05
283.15	0.9083	1.21	0.05
283.15	0.9228	1.22	0.05
283.15	0.9341	1.23	0.05
293.15	0	0.43	0.04
293.15	0.0394	0.63	0.04
293.15	0.1051	0.91	0.04
293.15	0.2561	1.41	0.04
293.15	0.3944	1.74	0.05
293.15	0.5194	1.97	0.05
293.15	0.6218	2.11	0.05
293.15	0.7066	2.19	0.05
293.15	0.7935	2.25	0.05
293.15	0.8559	2.29	0.05
293.15	0.8969	2.33	0.05
293.15	0.9257	2.35	0.05
293.15	0.9461	2.37	0.05
293.15	0.9582	2.38	0.05
303.15	0	0.87	0.04
303.15	0.0399	1.22	0.04
303.15	0.1149	1.8	0.04
303.15	0.2264	2.49	0.05
303.15	0.3409	3.04	0.05
303.15	0.4659	3.5	0.05
303.15	0.5759	3.8	0.05
303.15	0.6707	3.99	0.05
303.15	0.7723	4.14	0.05
303.15	0.8438	4.22	0.05
303.15	0.8899	4.26	0.05
303.15	0.9216	4.29	0.05
303.15	0.9436	4.32	0.05
