Measured thermophysical data. Phase Equilibria of Permethrin and Dicofol with Carbon Dioxide
Source: J. Chem. Eng. Data, 2005, 10.1021/je0495379
Compound 1: carbon dioxide, CO2, InChI=1S/CO2/c2-1-3
Compound 2: 2,2,2-trichloro-1,1-bis(4-chlorophenyl)ethanol, C14H9Cl5O, InChI=1S/C14H9Cl5O/c15-11-5-1-9(2-6-11)13(20,14(17,18)19)10-3-7-12(16)8-4-10/h1-8,20H
Compound 3: 3-phenoxybenzyl 3-(2,2-dichlorovinyl)-2,2-dimethylcyclopropane-1-carboxylate, C21H20Cl2O3, InChI=1S/C21H20Cl2O3/c1-21(2)17(12-18(22)23)19(21)20(24)25-13-14-7-6-10-16(11-14)26-15-8-4-3-5-9-15/h3-12,17,19H,13H2,1-2H3

System: 2,2,2-trichloro-1,1-bis(4-chlorophenyl)ethanol; phases: Crystal, Liquid, Air at 1 atmosphere
Property: Normal melting temperature, K (Crystal); method: VISOBS:UFactor:8
Normal melting temperature, K	uncertainty
344.4	3.1

System: 2,2,2-trichloro-1,1-bis(4-chlorophenyl)ethanol + carbon dioxide; phases: Liquid, Crystal, Gas
Property: Triple point temperature, K (Liquid); method: VISOBS
Pressure, kPa	Triple point temperature, K	uncertainty
100	344.6	1
900	342.7	1
5650	331.1	1
12350	321.2	1
16650	320.8	1
20550	320.2	1
22050	319.8	1
29950	319.5	1

System: 2,2,2-trichloro-1,1-bis(4-chlorophenyl)ethanol + carbon dioxide; phases: Fluid (supercritical or subcritical phases), Crystal
Property: Mass fraction of 2,2,2-trichloro-1,1-bis(4-chlorophenyl)ethanol (Fluid (supercritical or subcritical phases)); method: UV Spectroscopy
Temperature, K	Pressure, kPa	Mass fraction of 2,2,2-trichloro-1,1-bis(4-chlorophenyl)ethanol	uncertainty
293.2	14950	0.034	0.0034
293.2	21450	0.0376	0.0038
293.2	26250	0.0369	0.0037
303.2	10950	0.038	0.0038
303.2	15200	0.0394	0.0039
303.2	21300	0.0397	0.004
313.2	10950	0.0373	0.0037
313.2	15350	0.0394	0.0039
313.2	21500	0.0424	0.0042

System: carbon dioxide + 3-phenoxybenzyl 3-(2,2-dichlorovinyl)-2,2-dimethylcyclopropane-1-carboxylate; phases: Liquid, Crystal, Gas
Property: Triple point temperature, K (Liquid); method: VISOBS
Pressure, kPa	Triple point temperature, K	uncertainty
200	319.4	1
1100	316.9	1
5200	315.4	1
12050	313.6	1
17100	313.8	1
19450	315.5	1
21800	318.8	1

System: carbon dioxide + 3-phenoxybenzyl 3-(2,2-dichlorovinyl)-2,2-dimethylcyclopropane-1-carboxylate; phases: Fluid (supercritical or subcritical phases), Crystal
Property: Mass fraction of carbon dioxide (Fluid (supercritical or subcritical phases)); method: UV Spectroscopy
Temperature, K	Pressure, kPa	Mass fraction of carbon dioxide	uncertainty
293.2	12050	0.0127	0.0013
293.2	12350	0.0127	0.0013
293.2	13450	0.0129	0.0013
293.2	15200	0.0139	0.0014
293.2	16050	0.0153	0.0015
293.2	17050	0.016	0.0016
293.2	19500	0.0167	0.0017
293.2	20400	0.0168	0.0017
303.2	12000	0.0134	0.0013
303.2	13400	0.0139	0.0014
303.2	14400	0.0143	0.0014
303.2	15100	0.0164	0.0016
303.2	16050	0.0171	0.0017
303.2	16100	0.017	0.0017
303.2	16700	0.0171	0.0017
303.2	19100	0.0171	0.0017
303.2	22250	0.0175	0.0018
313.2	11650	0.0133	0.0013
313.2	12700	0.0137	0.0014
313.2	13050	0.015	0.0015
313.2	13800	0.018	0.0018
313.2	14550	0.0196	0.002
313.2	15950	0.02	0.002
313.2	20800	0.0198	0.002
313.2	24400	0.0205	0.0021
313.2	26900	0.0213	0.0021
