Measured thermophysical data. Densities and Viscosities of Niacin + 3-Picoline + Sulfuric Acid + Water from (293.15 to 343.15) K
Source: J. Chem. Eng. Data, 2005, 10.1021/je0496387
Compound 1: 3-carboxylpyridine, C6H5NO2, InChI=1S/C6H5NO2/c8-6(9)5-2-1-3-7-4-5/h1-4H,(H,8,9)
Compound 2: water, H2O, InChI=1S/H2O/h1H2
Compound 3: sulfuric acid, H2O4S, InChI=1S/H2O4S/c1-5(2,3)4/h(H2,1,2,3,4), purity 99%

System: 3-carboxylpyridine + sulfuric acid + water; phases: Liquid
Fixed: Pressure, kPa = 101.325
Fixed: Solvent: Mass fraction of sulfuric acid = 0.2
Property: Viscosity, Pa*s (Liquid); method: CAPTUB:UFactor:2
Temperature, K	Molality, mol/kg of 3-carboxylpyridine	Viscosity, Pa*s	uncertainty
293.15	0	0.0015501	1.94e-05
293.15	0.1054	0.0016192	2.02e-05
293.15	0.4387	0.0018118	2.24e-05
293.15	0.6406	0.001928	2.37e-05
293.15	0.8319	0.0020501	2.52e-05
293.15	1.0134	0.0021608	2.64e-05
293.15	1.1859	0.0022797	2.78e-05
293.15	1.5064	0.0025038	3.04e-05
303.15	0	0.0012293	1.56e-05
303.15	0.1054	0.0012846	1.63e-05
303.15	0.4387	0.0014426	1.81e-05
303.15	0.6406	0.0015379	1.92e-05
303.15	0.8319	0.0016325	2.03e-05
303.15	1.0134	0.0017348	2.15e-05
303.15	1.1859	0.0018343	2.27e-05
303.15	1.5064	0.0020226	2.48e-05
313.15	0	0.0009882	1.28e-05
313.15	0.1054	0.001031	1.33e-05
313.15	0.4387	0.0011576	1.48e-05
313.15	0.6406	0.0012296	1.56e-05
313.15	0.8319	0.0013087	1.65e-05
313.15	1.0134	0.0013896	1.75e-05
313.15	1.1859	0.0014777	1.85e-05
313.15	1.5064	0.0016315	2.03e-05
323.15	0	0.0008315	1.1e-05
323.15	0.1054	0.0008646	1.14e-05
323.15	0.4387	0.0009673	1.26e-05
323.15	0.6406	0.0010274	1.33e-05
323.15	0.8319	0.001092	1.4e-05
323.15	1.0134	0.0011622	1.48e-05
323.15	1.1859	0.0012314	1.56e-05
323.15	1.5064	0.0013588	1.71e-05
333.15	0	0.0007104	9.6e-06
333.15	0.1054	0.0007367	9.9e-06
333.15	0.4387	0.0008212	1.09e-05
333.15	0.6406	0.0008728	1.15e-05
333.15	0.8319	0.0009282	1.21e-05
333.15	1.0134	0.0009851	1.28e-05
333.15	1.1859	0.0010429	1.34e-05
333.15	1.5064	0.0011506	1.47e-05
343.15	0	0.0006412	8.8e-06
343.15	0.1054	0.000662	9e-06
343.15	0.4387	0.0007333	9.8e-06
343.15	0.6406	0.0007748	1.03e-05
343.15	0.8319	0.0008242	1.09e-05
343.15	1.0134	0.0008712	1.14e-05
343.15	1.1859	0.0009242	1.21e-05
343.15	1.5064	0.0010172	1.31e-05

System: 3-carboxylpyridine + sulfuric acid + water; phases: Liquid
Fixed: Pressure, kPa = 101.325
Fixed: Solvent: Mass fraction of sulfuric acid = 0.2
Property: Mass density, kg/m3 (Liquid); method: Pycnometric method
Temperature, K	Molality, mol/kg of 3-carboxylpyridine	Mass density, kg/m3	uncertainty
293.15	0	1139.9	0.4
293.15	0.1054	1143.2	0.4
293.15	0.4387	1154.6	0.4
293.15	0.6406	1162.4	0.4
293.15	0.8319	1170.2	0.4
293.15	1.0134	1178.1	0.4
293.15	1.1859	1185.9	0.4
293.15	1.5064	1202.2	0.4
303.15	0	1133.7	0.4
303.15	0.1054	1136.9	0.4
303.15	0.4387	1148.2	0.4
303.15	0.6406	1155.9	0.4
303.15	0.8319	1163.6	0.4
303.15	1.0134	1171.5	0.4
303.15	1.1859	1179.2	0.4
303.15	1.5064	1194.6	0.4
313.15	0	1127.1	0.4
313.15	0.1054	1130.3	0.4
313.15	0.4387	1141.5	0.4
313.15	0.6406	1149.1	0.4
313.15	0.8319	1156.7	0.4
313.15	1.0134	1164.4	0.4
313.15	1.1859	1172.1	0.4
313.15	1.5064	1187.4	0.5
323.15	0	1121	0.4
323.15	0.1054	1124.1	0.4
323.15	0.4387	1135.2	0.5
323.15	0.6406	1142.7	0.5
323.15	0.8319	1150.2	0.5
323.15	1.0134	1157.9	0.5
323.15	1.1859	1165.5	0.5
323.15	1.5064	1180.7	0.5
333.15	0	1115.2	0.5
333.15	0.1054	1118.3	0.5
333.15	0.4387	1129.3	0.5
333.15	0.6406	1136.6	0.5
333.15	0.8319	1144	0.5
333.15	1.0134	1151.7	0.5
333.15	1.1859	1159.1	0.5
333.15	1.5064	1174.2	0.5
343.15	0	1109.1	0.5
343.15	0.1054	1112.2	0.5
343.15	0.4387	1123	0.5
343.15	0.6406	1130.3	0.5
343.15	0.8319	1137.6	0.5
343.15	1.0134	1145.1	0.5
343.15	1.1859	1152.6	0.5
343.15	1.5064	1167.9	0.5
