Measured thermophysical data. Viscosities, Densities, and Speeds of Sound of Binary Mixtures of o-Xylene, m-Xylene, p-Xylene, and Isopropylbenzene with 2-Butanone at 298.15 K
Source: J. Chem. Eng. Data, 2005, 10.1021/je049793l
Compound 1: butanone, C4H8O, InChI=1S/C4H8O/c1-3-4(2)5/h3H2,1-2H3
Compound 2: isopropylbenzene, C9H12, InChI=1S/C9H12/c1-8(2)9-6-4-3-5-7-9/h3-8H,1-2H3
Compound 3: 1,2-dimethylbenzene, C8H10, InChI=1S/C8H10/c1-7-5-3-4-6-8(7)2/h3-6H,1-2H3
Compound 4: 1,3-dimethylbenzene, C8H10, InChI=1S/C8H10/c1-7-4-3-5-8(2)6-7/h3-6H,1-2H3
Compound 5: 1,4-dimethylbenzene, C8H10, InChI=1S/C8H10/c1-7-3-5-8(2)6-4-7/h3-6H,1-2H3

System: butanone; phases: Liquid
Property: Viscosity, Pa*s (Liquid); method: CAPTUB:UFactor:2
Temperature, K	Pressure, kPa	Viscosity, Pa*s	uncertainty
298.15	101.3	0.000376	9e-06

System: butanone; phases: Liquid
Property: Speed of sound, m/s (Liquid); method: OTHER:UFactor:2:sMethod:interferometer Belen model UI-751
Temperature, K	Pressure, kPa	Speed of sound, m/s	uncertainty
298.15	101.3	1195	3

System: butanone; phases: Liquid
Property: Mass density, kg/m3 (Liquid); method: VIBTUB:UFactor:4
Temperature, K	Pressure, kPa	Mass density, kg/m3	uncertainty
298.15	101.3	799.6	0.9

System: isopropylbenzene; phases: Liquid
Property: Viscosity, Pa*s (Liquid); method: CAPTUB::UFactor:2
Temperature, K	Pressure, kPa	Viscosity, Pa*s	uncertainty
298.15	101.3	0.000739	1.3e-05

System: isopropylbenzene; phases: Liquid
Property: Speed of sound, m/s (Liquid); method: OTHER::UFactor:2:sMethod:interferometer Belen model UI-751
Temperature, K	Pressure, kPa	Speed of sound, m/s	uncertainty
298.15	101.3	1338	3

System: isopropylbenzene; phases: Liquid
Property: Mass density, kg/m3 (Liquid); method: VIBTUB:UFactor:4
Temperature, K	Pressure, kPa	Mass density, kg/m3	uncertainty
298.15	101.3	857.1	1

System: 1,2-dimethylbenzene; phases: Liquid
Property: Viscosity, Pa*s (Liquid); method: CAPTUB::UFactor:2
Temperature, K	Pressure, kPa	Viscosity, Pa*s	uncertainty
298.15	101.3	0.000768	1.3e-05

System: 1,2-dimethylbenzene; phases: Liquid
Property: Speed of sound, m/s (Liquid); method: OTHER::UFactor:2:sMethod:interferometer Belen model UI-751
Temperature, K	Pressure, kPa	Speed of sound, m/s	uncertainty
298.15	101.3	1349	3

System: 1,2-dimethylbenzene; phases: Liquid
Property: Mass density, kg/m3 (Liquid); method: VIBTUB::UFactor:4
Temperature, K	Pressure, kPa	Mass density, kg/m3	uncertainty
298.15	101.3	875.2	1

System: 1,3-dimethylbenzene; phases: Liquid
Property: Viscosity, Pa*s (Liquid); method: CAPTUB::UFactor:2
Temperature, K	Pressure, kPa	Viscosity, Pa*s	uncertainty
298.15	101.3	0.000587	1.1e-05

System: 1,3-dimethylbenzene; phases: Liquid
Property: Speed of sound, m/s (Liquid); method: OTHER::UFactor:2:sMethod:interferometer Belen model UI-751
Temperature, K	Pressure, kPa	Speed of sound, m/s	uncertainty
298.15	101.3	1323	4

System: 1,3-dimethylbenzene; phases: Liquid
Property: Mass density, kg/m3 (Liquid); method: VIBTUB::UFactor:4
Temperature, K	Pressure, kPa	Mass density, kg/m3	uncertainty
298.15	101.3	859.4	1

System: 1,4-dimethylbenzene; phases: Liquid
Property: Viscosity, Pa*s (Liquid); method: CAPTUB:UFactor:2
Temperature, K	Pressure, kPa	Viscosity, Pa*s	uncertainty
298.15	101.3	0.000609	1.1e-05

System: 1,4-dimethylbenzene; phases: Liquid
Property: Speed of sound, m/s (Liquid); method: OTHER::UFactor:2:sMethod:interferometer Belen model UI-751
Temperature, K	Pressure, kPa	Speed of sound, m/s	uncertainty
298.15	101.3	1316	3

System: 1,4-dimethylbenzene; phases: Liquid
Property: Mass density, kg/m3 (Liquid); method: VIBTUB::UFactor:4
Temperature, K	Pressure, kPa	Mass density, kg/m3	uncertainty
298.15	101.3	856.1	1

System: butanone + 1,2-dimethylbenzene; phases: Liquid
Fixed: Temperature, K = 298.15
Fixed: Pressure, kPa = 101.3
Property: Viscosity, Pa*s (Liquid); method: CAPTUB:UFactor:2
Mole fraction of 1,2-dimethylbenzene	Viscosity, Pa*s	uncertainty
0	0.000376	9e-06
0.0437	0.00039	9e-06
0.1095	0.000412	9e-06
0.2288	0.000451	1e-05
0.3564	0.000493	1e-05
0.4969	0.000542	1.1e-05
0.65	0.000601	1.1e-05
0.8165	0.000673	1.2e-05
0.9244	0.000727	1.3e-05
1	0.000768	1.3e-05

System: butanone + 1,2-dimethylbenzene; phases: Liquid
Fixed: Temperature, K = 298.15
Fixed: Pressure, kPa = 101.3
Property: Speed of sound, m/s (Liquid); method: OTHER:UFactor:2:sMethod:interferometer Belen model UI-751
Mole fraction of 1,2-dimethylbenzene	Speed of sound, m/s	uncertainty
0	1195	3
0.0437	1208	3
0.1095	1222	3
0.2288	1244	3
0.3564	1266	3
0.4969	1288	3
0.65	1310	3
0.8165	1331	3
0.9244	1339	3
1	1349	3

System: butanone + 1,2-dimethylbenzene; phases: Liquid
Fixed: Temperature, K = 298.15
Fixed: Pressure, kPa = 101.3
Property: Mass density, kg/m3 (Liquid); method: VIBTUB:UFactor:4
Mole fraction of 1,2-dimethylbenzene	Mass density, kg/m3	uncertainty
0	799.6	0.9
0.0437	805.6	0.9
0.1095	813.7	0.9
0.2288	825.7	0.9
0.3564	836.2	0.9
0.4969	846.1	0.9
0.65	856	1
0.8165	865.9	1
0.9244	871.7	1
1	875.2	1

System: butanone + 1,3-dimethylbenzene; phases: Liquid
Fixed: Temperature, K = 298.15
Fixed: Pressure, kPa = 101.3
Property: Viscosity, Pa*s (Liquid); method: CAPTUB:UFactor:2
Mole fraction of 1,3-dimethylbenzene	Viscosity, Pa*s	uncertainty
0	0.000376	9e-06
0.0428	0.000384	9e-06
0.1084	0.000398	9e-06
0.2261	0.000422	9e-06
0.3524	0.000448	1e-05
0.4941	0.000478	1e-05
0.646	0.00051	1e-05
0.8137	0.000546	1.1e-05
0.9235	0.00057	1.1e-05
1	0.000587	1.1e-05

System: butanone + 1,3-dimethylbenzene; phases: Liquid
Fixed: Temperature, K = 298.15
Fixed: Pressure, kPa = 101.3
Property: Speed of sound, m/s (Liquid); method: OTHER:UFactor:2:sMethod:interferometer Belen model UI-751
Mole fraction of 1,3-dimethylbenzene	Speed of sound, m/s	uncertainty
0	1195	4
0.0428	1204	4
0.1084	1218	4
0.2261	1240	4
0.3524	1256	4
0.4941	1273	4
0.646	1293	4
0.8137	1312	4
0.9235	1320	4
1	1323	4

System: butanone + 1,3-dimethylbenzene; phases: Liquid
Fixed: Temperature, K = 298.15
Fixed: Pressure, kPa = 101.3
Property: Mass density, kg/m3 (Liquid); method: VIBTUB:UFactor:4
Mole fraction of 1,3-dimethylbenzene	Mass density, kg/m3	uncertainty
0	799.6	0.9
0.0428	803.5	0.9
0.1084	809.2	0.9
0.2261	818.3	0.9
0.3524	827	0.9
0.4941	835.7	0.9
0.646	844.1	0.9
0.8137	852	1
0.9235	856.7	1
1	859.4	1

System: butanone + 1,4-dimethylbenzene; phases: Liquid
Fixed: Temperature, K = 298.15
Fixed: Pressure, kPa = 101.3
Property: Viscosity, Pa*s (Liquid); method: CAPTUB:UFactor:2
Mole fraction of 1,4-dimethylbenzene	Viscosity, Pa*s	uncertainty
0	0.000376	9e-06
0.0429	0.000392	9e-06
0.1074	0.000414	9e-06
0.2235	0.000444	9e-06
0.3501	0.000471	1e-05
0.4895	0.0005	1e-05
0.6419	0.000533	1e-05
0.8117	0.000572	1.1e-05
0.9213	0.000596	1.1e-05
1	0.000609	1.1e-05

System: butanone + 1,4-dimethylbenzene; phases: Liquid
Fixed: Temperature, K = 298.15
Fixed: Pressure, kPa = 101.3
Property: Speed of sound, m/s (Liquid); method: OTHER:UFactor:2:sMethod:interferometer Belen model UI-751
Mole fraction of 1,4-dimethylbenzene	Speed of sound, m/s	uncertainty
0	1195	3
0.0429	1218	3
0.1074	1237	3
0.2235	1257	3
0.3501	1272	3
0.4895	1289	3
0.6419	1299	3
0.8117	1308	3
0.9213	1313	3
1	1316	3

System: butanone + 1,4-dimethylbenzene; phases: Liquid
Fixed: Temperature, K = 298.15
Fixed: Pressure, kPa = 101.3
Property: Mass density, kg/m3 (Liquid); method: VIBTUB:UFactor:4
Mole fraction of 1,4-dimethylbenzene	Mass density, kg/m3	uncertainty
0	799.6	0.9
0.0429	806	0.9
0.1074	813.8	0.9
0.2235	823.5	0.9
0.3501	830.4	0.9
0.4895	836.6	0.9
0.6419	842.9	0.9
0.8117	849.6	1
0.9213	853.2	1
1	856.1	1

System: butanone + isopropylbenzene; phases: Liquid
Fixed: Temperature, K = 298.15
Fixed: Pressure, kPa = 101.3
Property: Viscosity, Pa*s (Liquid); method: CAPTUB:UFactor:2
Mole fraction of isopropylbenzene	Viscosity, Pa*s	uncertainty
0	0.000376	9e-06
0.0377	0.000388	9e-06
0.0964	0.000408	9e-06
0.2025	0.000445	9e-06
0.3251	0.000486	1e-05
0.4599	0.000535	1e-05
0.615	0.000592	1.1e-05
0.7937	0.00066	1.2e-05
0.9123	0.000705	1.2e-05
1	0.000739	1.3e-05

System: butanone + isopropylbenzene; phases: Liquid
Fixed: Temperature, K = 298.15
Fixed: Pressure, kPa = 101.3
Property: Speed of sound, m/s (Liquid); method: OTHER:UFactor:2:sMethod:interferometer Belen model UI-751
Mole fraction of isopropylbenzene	Speed of sound, m/s	uncertainty
0	1195	3
0.0377	1204	3
0.0964	1217	3
0.2025	1240	3
0.3251	1262	3
0.4599	1279	3
0.615	1290	3
0.7937	1298	3
0.9123	1308	3
1	1338	3

System: butanone + isopropylbenzene; phases: Liquid
Fixed: Temperature, K = 298.15
Fixed: Pressure, kPa = 101.3
Property: Mass density, kg/m3 (Liquid); method: VIBTUB:UFactor:4
Mole fraction of isopropylbenzene	Mass density, kg/m3	uncertainty
0	799.6	0.9
0.0377	805	0.9
0.0964	812.2	0.9
0.2025	821.7	0.9
0.3251	829.5	0.9
0.4599	835.4	0.9
0.615	842	0.9
0.7937	849.2	1
0.9123	853.9	1
1	857.1	1
