Measured thermophysical data. Solubilities of Sodium Chloride and Potassium Chloride in Water + Ethanol Mixtures from (298 to 323) K
Source: J. Chem. Eng. Data, 2004, 10.1021/je049782s
Compound 1: sodium chloride, ClNa, InChI=1S/ClH.Na/h1H;/q;+1/p-1
Compound 2: potassium chloride, ClK, InChI=1S/ClH.K/h1H;/q;+1/p-1
Compound 3: water, H2O, InChI=1S/H2O/h1H2
Compound 4: ethanol, C2H6O, InChI=1S/C2H6O/c1-2-3/h3H,2H2,1H3

System: ethanol + sodium chloride + water; phases: Liquid, Crystal
Fixed: Pressure, kPa = 101.3
Property: Molality, mol/kg of sodium chloride (Liquid); method: OTHER
Temperature, K	Solvent: Mass fraction of ethanol	Molality, mol/kg of sodium chloride	uncertainty
298.05	0.0994	4.939	0.012
298.1	0.201	3.95	0.01
298.15	0.0483	5.521	0.013
298.15	0.1505	4.411	0.016
298.35	0.1505	4.41	0.011
298.45	0.201	3.953	0.01
300.35	0.1505	4.436	0.011
300.65	0.201	3.971	0.01
300.75	0.0994	4.955	0.012
300.85	0.0483	5.536	0.013
303.15	0.0483	5.551	0.013
303.15	0.0994	4.975	0.012
303.15	0.1505	4.453	0.011
303.15	0.201	3.987	0.01
303.35	0.0483	5.552	0.013
305.75	0.0483	5.578	0.013
305.75	0.0994	5.002	0.012
305.75	0.1505	4.473	0.011
305.75	0.201	4.015	0.01
308.15	0.0483	5.587	0.013
308.25	0.0994	5.016	0.012
308.25	0.1505	4.506	0.011
308.25	0.201	4.037	0.011
310.55	0.0483	5.607	0.013
310.6	0.0994	5.04	0.012
310.65	0.201	4.062	0.011
313.05	0.201	4.077	0.011
313.15	0.0483	5.621	0.013
313.15	0.0994	5.055	0.012
313.15	0.1505	4.543	0.011
313.35	0.201	4.085	0.011
315.55	0.0483	5.642	0.013
315.6	0.201	4.101	0.011
315.75	0.0994	5.079	0.012
317.8	0.201	4.128	0.011
318.05	0.0994	5.095	0.012
318.05	0.1505	4.59	0.011
320.45	0.0483	5.678	0.013
320.45	0.1505	4.597	0.011
320.75	0.0994	5.12	0.012
320.85	0.201	4.157	0.011
322.85	0.0994	5.137	0.012
322.85	0.1505	4.626	0.012
323.05	0.0483	5.694	0.014
323.15	0.0483	5.696	0.014
323.25	0.0994	5.145	0.012
323.25	0.201	4.183	0.011

System: ethanol + potassium chloride + water; phases: Liquid, Crystal
Fixed: Pressure, kPa = 101.3
Property: Molality, mol/kg of potassium chloride (Liquid); method: OTHER
Temperature, K	Solvent: Mole fraction of ethanol	Molality, mol/kg of potassium chloride	uncertainty
298.15	0.1	3.629	0.011
298.15	0.2	2.665	0.009
303.15	0.1	3.821	0.011
303.15	0.2	2.833	0.009
313.15	0.1	4.186	0.011
313.15	0.2	3.122	0.009
323.15	0.1	4.509	0.012
323.15	0.2	3.395	0.01
