Measured thermophysical data. Density and Viscosity of Saturated Liquid Dimethoxymethane from (218.15 to 383.15) K
Source: J. Chem. Eng. Data, 2005, 10.1021/je049559v
Compound 1: dimethoxymethane, C3H8O2, InChI=1S/C3H8O2/c1-4-3-5-2/h3H2,1-2H3

System: dimethoxymethane; phases: Liquid, Gas
Property: Viscosity, Pa*s (Liquid); method: Capillary tube (Ostwald; Ubbelohde) method
Temperature, K	Viscosity, Pa*s	uncertainty
218.09	0.0012631	2.41e-05
218.09	0.001263	2.41e-05
223.09	0.0010987	2.1e-05
223.09	0.0010987	2.1e-05
228.1	0.0009649	1.84e-05
228.11	0.0009648	1.84e-05
233.1	0.0008557	1.64e-05
233.1	0.0008556	1.64e-05
238.11	0.0007648	1.47e-05
238.11	0.0007648	1.47e-05
243.14	0.0006886	1.32e-05
243.15	0.0006885	1.32e-05
248.14	0.0006248	1.2e-05
248.14	0.0006248	1.2e-05
253.13	0.0005705	1.1e-05
253.14	0.0005705	1.1e-05
258.12	0.000524	1.01e-05
258.15	0.0005238	1.01e-05
263.07	0.0004841	9.4e-06
263.09	0.0004839	9.4e-06
268.09	0.0004489	8.7e-06
268.09	0.0004489	8.7e-06
273.05	0.0004183	8.1e-06
273.05	0.0004183	8.1e-06
278.05	0.0003912	7.6e-06
278.05	0.0003912	7.6e-06
283.1	0.0003669	7.2e-06
283.1	0.0003669	7.2e-06
288.17	0.0003452	6.7e-06
288.17	0.0003451	6.7e-06
293.09	0.0003262	6.4e-06
293.09	0.0003262	6.4e-06
298.12	0.0003086	6.1e-06
298.13	0.0003086	6.1e-06
303.12	0.0002927	5.8e-06
303.13	0.0002927	5.8e-06
308.16	0.0002781	5.5e-06
308.17	0.0002781	5.5e-06
313.16	0.0002647	5.2e-06
313.16	0.0002647	5.2e-06
318.16	0.0002524	5e-06
318.17	0.0002524	5e-06
323.15	0.000241	4.8e-06
323.15	0.0002409	4.8e-06
328.14	0.0002303	4.6e-06
328.14	0.0002303	4.6e-06
333.14	0.0002202	4.4e-06
333.15	0.0002202	4.4e-06
338.15	0.0002107	4.2e-06
338.15	0.0002107	4.2e-06
343.15	0.0002017	4.1e-06
343.15	0.0002017	4.1e-06
348.16	0.0001931	3.9e-06
348.16	0.0001931	3.9e-06
353.12	0.000185	3.7e-06
353.13	0.000185	3.7e-06
358.16	0.0001771	3.6e-06
358.16	0.0001771	3.6e-06
363.15	0.0001696	3.5e-06
363.15	0.0001696	3.5e-06
368.14	0.0001624	3.3e-06
368.16	0.0001623	3.3e-06
373.14	0.0001554	3.2e-06
373.14	0.0001554	3.2e-06
378.15	0.0001486	3.1e-06
378.15	0.0001486	3.1e-06
383.15	0.000142	3e-06
383.16	0.000142	3e-06

System: dimethoxymethane; phases: Liquid, Gas
Property: Mass density, kg/m3 (Liquid); method: Vibrating tube method
Temperature, K	Mass density, kg/m3	uncertainty
233.16	935.5	2
243.16	923.8	2
253.16	912.4	2
263.15	899.6	2
273.15	886	2
283.15	872.3	2
293.15	858.1	2
303.15	842.8	2
313.15	827.9	2
323.16	814.1	2
333.15	800	2
343.15	785.2	2
353.16	770.8	2
363.11	755.9	2
