Measured thermophysical data. Excess Molar Volumes and Viscosity Deviations of Binary Mixtures of 2,4,6-Trimethyl-1,3,5-trioxane + Ethanol, 1-Propanol, and 1-Butanol at (298.15, 303.15, and 308.15) K
Source: J. Chem. Eng. Data, 2005, 10.1021/je049556i
Compound 1: 2,4,6-trimethyl-1,3,5-trioxane, C6H12O3, InChI=1S/C6H12O3/c1-4-7-5(2)9-6(3)8-4/h4-6H,1-3H3, purity 98%
Compound 2: ethanol, C2H6O, InChI=1S/C2H6O/c1-2-3/h3H,2H2,1H3
Compound 3: propan-1-ol, C3H8O, InChI=1S/C3H8O/c1-2-3-4/h4H,2-3H2,1H3
Compound 4: butan-1-ol, C4H10O, InChI=1S/C4H10O/c1-2-3-4-5/h5H,2-4H2,1H3

System: 2,4,6-trimethyl-1,3,5-trioxane; phases: Liquid
Fixed: Pressure, kPa = 101
Property: Viscosity, Pa*s (Liquid); method: CAPTUB:UFactor:4
Temperature, K	Viscosity, Pa*s	uncertainty
298.15	0.001107	3.7e-05
303.15	0.001001	3.4e-05
308.15	0.000907	3.1e-05

System: 2,4,6-trimethyl-1,3,5-trioxane; phases: Liquid
Fixed: Pressure, kPa = 101
Property: Mass density, kg/m3 (Liquid); method: PYCNOM:UFactor:4
Temperature, K	Mass density, kg/m3	uncertainty
298.15	988.35	1.79
303.15	982.64	1.84
308.15	976.44	1.89

System: ethanol; phases: Liquid
Fixed: Pressure, kPa = 101
Property: Viscosity, Pa*s (Liquid); method: CAPTUB::UFactor:4
Temperature, K	Viscosity, Pa*s	uncertainty
298.15	0.001083	4.4e-05
303.15	0.00099	4e-05
308.15	0.000895	3.7e-05

System: ethanol; phases: Liquid
Fixed: Pressure, kPa = 101
Property: Mass density, kg/m3 (Liquid); method: PYCNOM::UFactor:4
Temperature, K	Mass density, kg/m3	uncertainty
298.15	785.06	2.34
303.15	780.74	2.35
308.15	776.48	2.36

System: propan-1-ol; phases: Liquid
Fixed: Pressure, kPa = 101
Property: Viscosity, Pa*s (Liquid); method: CAPTUB::UFactor:4
Temperature, K	Viscosity, Pa*s	uncertainty
298.15	0.001943	7.6e-05
303.15	0.001725	6.8e-05
308.15	0.001537	6.1e-05

System: propan-1-ol; phases: Liquid
Fixed: Pressure, kPa = 101
Property: Mass density, kg/m3 (Liquid); method: PYCNOM::UFactor:4
Temperature, K	Mass density, kg/m3	uncertainty
298.15	799.6	2.41
303.15	794.64	2.4
308.15	790.53	2.4

System: butan-1-ol; phases: Liquid
Fixed: Pressure, kPa = 101
Property: Viscosity, Pa*s (Liquid); method: CAPTUB::UFactor:4
Temperature, K	Viscosity, Pa*s	uncertainty
298.15	0.002618	0.000101
303.15	0.002297	8.9e-05
308.15	0.002032	8e-05

System: butan-1-ol; phases: Liquid
Fixed: Pressure, kPa = 101
Property: Mass density, kg/m3 (Liquid); method: PYCNOM::UFactor:4
Temperature, K	Mass density, kg/m3	uncertainty
298.15	805.84	2.39
303.15	802	2.4
308.15	798.2	2.41

System: ethanol + 2,4,6-trimethyl-1,3,5-trioxane; phases: Liquid
Fixed: Pressure, kPa = 101
Property: Viscosity, Pa*s (Liquid); method: CAPTUB:UFactor:4
Temperature, K	Mole fraction of 2,4,6-trimethyl-1,3,5-trioxane	Viscosity, Pa*s	uncertainty
298.15	0	0.001083	4.4e-05
298.15	0.0372	0.001071	4.3e-05
298.15	0.0801	0.001059	4.2e-05
298.15	0.1299	0.001045	4.1e-05
298.15	0.1885	0.001031	4e-05
298.15	0.2589	0.001016	3.9e-05
298.15	0.3433	0.001003	3.8e-05
298.15	0.4485	0.000994	3.7e-05
298.15	0.5823	0.000995	3.6e-05
298.15	0.6816	0.001006	3.5e-05
298.15	0.7582	0.001022	3.6e-05
298.15	0.8003	0.001033	3.6e-05
298.15	0.8452	0.001048	3.6e-05
298.15	0.8932	0.001065	3.6e-05
298.15	0.9446	0.001088	3.6e-05
298.15	1	0.001107	3.7e-05
303.15	0	0.00099	4e-05
303.15	0.0372	0.000979	4e-05
303.15	0.0801	0.000966	3.9e-05
303.15	0.1299	0.000952	3.8e-05
303.15	0.1885	0.000938	3.7e-05
303.15	0.2589	0.000924	3.6e-05
303.15	0.3433	0.000912	3.5e-05
303.15	0.4485	0.000903	3.4e-05
303.15	0.5823	0.000904	3.3e-05
303.15	0.6816	0.000915	3.3e-05
303.15	0.7582	0.000929	3.3e-05
303.15	0.8003	0.000939	3.3e-05
303.15	0.8452	0.000951	3.3e-05
303.15	0.8932	0.000967	3.3e-05
303.15	0.9446	0.000986	3.3e-05
303.15	1	0.001001	3.4e-05
308.15	0	0.000895	3.7e-05
308.15	0.0372	0.000886	3.6e-05
308.15	0.0801	0.000876	3.5e-05
308.15	0.1299	0.000866	3.5e-05
308.15	0.1885	0.000855	3.4e-05
308.15	0.2589	0.000844	3.3e-05
308.15	0.3433	0.000835	3.2e-05
308.15	0.4485	0.000828	3.1e-05
308.15	0.5823	0.000829	3e-05
308.15	0.6816	0.000837	3e-05
308.15	0.7582	0.000849	3e-05
308.15	0.8003	0.000857	3e-05
308.15	0.8452	0.000868	3e-05
308.15	0.8932	0.000881	3.1e-05
308.15	0.9446	0.000897	3.1e-05
308.15	1	0.000907	3.1e-05

System: ethanol + 2,4,6-trimethyl-1,3,5-trioxane; phases: Liquid
Fixed: Pressure, kPa = 101
Property: Mass density, kg/m3 (Liquid); method: PYCNOM:UFactor:4
Temperature, K	Mole fraction of 2,4,6-trimethyl-1,3,5-trioxane	Mass density, kg/m3	uncertainty
298.15	0	785.06	2.34
298.15	0.0372	802.48	2.33
298.15	0.0801	820.65	2.33
298.15	0.1299	839.52	2.32
298.15	0.1885	859.12	2.3
298.15	0.2589	879.57	2.27
298.15	0.3433	900.45	2.22
298.15	0.4485	922.04	2.14
298.15	0.5823	944.05	2.05
298.15	0.6816	957.34	1.99
298.15	0.7582	966.15	1.95
298.15	0.8003	970.54	1.93
298.15	0.8452	974.98	1.9
298.15	0.8932	979.38	1.86
298.15	0.9446	983.9	1.82
298.15	1	988.35	1.79
303.15	0	780.74	2.35
303.15	0.0372	798.21	2.36
303.15	0.0801	816.3	2.37
303.15	0.1299	835.19	2.36
303.15	0.1885	854.68	2.35
303.15	0.2589	875.01	2.32
303.15	0.3433	895.77	2.28
303.15	0.4485	917.27	2.22
303.15	0.5823	939.04	2.13
303.15	0.6816	952.18	2.05
303.15	0.7582	960.83	2
303.15	0.8003	965.15	1.97
303.15	0.8452	969.45	1.94
303.15	0.8932	973.8	1.91
303.15	0.9446	978.26	1.88
303.15	1	982.64	1.84
308.15	0	776.48	2.36
308.15	0.0372	793.84	2.4
308.15	0.0801	811.97	2.41
308.15	0.1299	830.81	2.41
308.15	0.1885	850.28	2.4
308.15	0.2589	870.45	2.39
308.15	0.3433	890.94	2.37
308.15	0.4485	912.16	2.33
308.15	0.5823	933.74	2.22
308.15	0.6816	946.76	2.12
308.15	0.7582	955.25	2.04
308.15	0.8003	959.44	2.01
308.15	0.8452	963.6	1.98
308.15	0.8932	967.86	1.95
308.15	0.9446	972.13	1.93
308.15	1	976.44	1.89

System: propan-1-ol + 2,4,6-trimethyl-1,3,5-trioxane; phases: Liquid
Fixed: Pressure, kPa = 101
Property: Viscosity, Pa*s (Liquid); method: CAPTUB:UFactor:4
Temperature, K	Mole fraction of 2,4,6-trimethyl-1,3,5-trioxane	Viscosity, Pa*s	uncertainty
298.15	0	0.001943	7.6e-05
298.15	0.0286	0.001861	7.2e-05
298.15	0.0484	0.001807	7e-05
298.15	0.0743	0.00174	6.7e-05
298.15	0.101	0.001676	6.4e-05
298.15	0.197	0.001481	5.6e-05
298.15	0.3124	0.001312	4.9e-05
298.15	0.4052	0.001219	4.5e-05
298.15	0.527	0.001145	4.1e-05
298.15	0.5689	0.001129	4e-05
298.15	0.7214	0.001105	3.8e-05
298.15	0.8026	0.001105	3.8e-05
298.15	0.8948	0.001109	3.7e-05
298.15	1	0.001107	3.7e-05
303.15	0	0.001725	6.8e-05
303.15	0.0286	0.001653	6.5e-05
303.15	0.0484	0.001606	6.3e-05
303.15	0.0743	0.001548	6e-05
303.15	0.101	0.001492	5.8e-05
303.15	0.197	0.001322	5e-05
303.15	0.3124	0.001175	4.4e-05
303.15	0.4052	0.001096	4.1e-05
303.15	0.527	0.001034	3.7e-05
303.15	0.5689	0.001021	3.7e-05
303.15	0.7214	0.001001	3.5e-05
303.15	0.8026	0.001002	3.5e-05
303.15	0.8948	0.001005	3.4e-05
303.15	1	0.001001	3.4e-05
308.15	0	0.001537	6.1e-05
308.15	0.0286	0.001474	5.8e-05
308.15	0.0484	0.001433	5.6e-05
308.15	0.0743	0.001383	5.4e-05
308.15	0.101	0.001334	5.2e-05
308.15	0.197	0.001187	4.6e-05
308.15	0.3124	0.001061	4e-05
308.15	0.4052	0.000994	3.7e-05
308.15	0.527	0.000942	3.4e-05
308.15	0.5689	0.000931	3.4e-05
308.15	0.7214	0.000915	3.2e-05
308.15	0.8026	0.000915	3.2e-05
308.15	0.8948	0.000915	3.2e-05
308.15	1	0.000907	3.1e-05

System: propan-1-ol + 2,4,6-trimethyl-1,3,5-trioxane; phases: Liquid
Fixed: Pressure, kPa = 101
Property: Mass density, kg/m3 (Liquid); method: PYCNOM:UFactor:4
Temperature, K	Mole fraction of 2,4,6-trimethyl-1,3,5-trioxane	Mass density, kg/m3	uncertainty
298.15	0	799.6	2.41
298.15	0.0286	809.7	2.4
298.15	0.0484	816.43	2.4
298.15	0.0743	824.91	2.39
298.15	0.101	833.29	2.37
298.15	0.197	860.73	2.29
298.15	0.3124	888.86	2.24
298.15	0.4052	908.29	2.18
298.15	0.527	930.22	2.11
298.15	0.5689	936.94	2.08
298.15	0.7214	958.42	1.95
298.15	0.8026	968.19	1.9
298.15	0.8948	978.07	1.84
298.15	1	988.35	1.79
303.15	0	794.64	2.4
303.15	0.0286	804.77	2.4
303.15	0.0484	811.5	2.4
303.15	0.0743	820	2.39
303.15	0.101	828.4	2.39
303.15	0.197	855.87	2.35
303.15	0.3124	883.99	2.29
303.15	0.4052	903.38	2.24
303.15	0.527	925.2	2.16
303.15	0.5689	931.88	2.13
303.15	0.7214	953.17	2.01
303.15	0.8026	962.8	1.96
303.15	0.8948	972.51	1.89
303.15	1	982.64	1.84
308.15	0	790.53	2.4
308.15	0.0286	800.59	2.4
308.15	0.0484	807.28	2.4
308.15	0.0743	815.72	2.4
308.15	0.101	824.06	2.4
308.15	0.197	851.32	2.43
308.15	0.3124	879.22	2.36
308.15	0.4052	898.44	2.31
308.15	0.527	920.07	2.2
308.15	0.5689	926.69	2.17
308.15	0.7214	947.75	2.09
308.15	0.8026	957.27	2.01
308.15	0.8948	966.87	1.95
308.15	1	976.44	1.89

System: butan-1-ol + 2,4,6-trimethyl-1,3,5-trioxane; phases: Liquid
Fixed: Pressure, kPa = 101
Property: Viscosity, Pa*s (Liquid); method: CAPTUB:UFactor:4
Temperature, K	Mole fraction of 2,4,6-trimethyl-1,3,5-trioxane	Viscosity, Pa*s	uncertainty
298.15	0	0.002618	0.000101
298.15	0.0289	0.00246	9.5e-05
298.15	0.0582	0.002311	8.9e-05
298.15	0.0804	0.002204	8.4e-05
298.15	0.0999	0.002116	8e-05
298.15	0.194	0.001756	6.6e-05
298.15	0.3007	0.001471	5.5e-05
298.15	0.4056	0.001302	4.8e-05
298.15	0.5091	0.001219	4.4e-05
298.15	0.6218	0.001193	4.2e-05
298.15	0.6932	0.001193	4.1e-05
298.15	0.8331	0.001184	4e-05
298.15	0.9165	0.001143	3.8e-05
298.15	1	0.001107	3.7e-05
303.15	0	0.002297	8.9e-05
303.15	0.0289	0.002164	8.4e-05
303.15	0.0582	0.002037	7.8e-05
303.15	0.0804	0.001948	7.5e-05
303.15	0.0999	0.001873	7.2e-05
303.15	0.194	0.001568	5.9e-05
303.15	0.3007	0.001324	4.9e-05
303.15	0.4056	0.001177	4.3e-05
303.15	0.5091	0.001103	4e-05
303.15	0.6218	0.001077	3.8e-05
303.15	0.6932	0.001075	3.8e-05
303.15	0.8331	0.001064	3.6e-05
303.15	0.9165	0.00103	3.5e-05
303.15	1	0.001001	3.4e-05
308.15	0	0.002032	8e-05
308.15	0.0289	0.001917	7.5e-05
308.15	0.0582	0.001809	7e-05
308.15	0.0804	0.001732	6.7e-05
308.15	0.0999	0.001668	6.4e-05
308.15	0.194	0.001406	5.3e-05
308.15	0.3007	0.001197	4.5e-05
308.15	0.4056	0.00107	4e-05
308.15	0.5091	0.001006	3.7e-05
308.15	0.6218	0.000983	3.5e-05
308.15	0.6932	0.00098	3.5e-05
308.15	0.8331	0.000969	3.4e-05
308.15	0.9165	0.000938	3.2e-05
308.15	1	0.000907	3.1e-05

System: butan-1-ol + 2,4,6-trimethyl-1,3,5-trioxane; phases: Liquid
Fixed: Pressure, kPa = 101
Property: Mass density, kg/m3 (Liquid); method: PYCNOM:UFactor:4
Temperature, K	Mole fraction of 2,4,6-trimethyl-1,3,5-trioxane	Mass density, kg/m3	uncertainty
298.15	0	805.84	2.39
298.15	0.0289	814.71	2.38
298.15	0.0582	823.46	2.37
298.15	0.0804	829.94	2.37
298.15	0.0999	835.53	2.36
298.15	0.194	861.02	2.29
298.15	0.3007	886.93	2.23
298.15	0.4056	909.58	2.17
298.15	0.5091	928.91	2.09
298.15	0.6218	946.67	2.02
298.15	0.6932	956.21	1.97
298.15	0.8331	972.07	1.87
298.15	0.9165	980.1	1.85
298.15	1	988.35	1.79
303.15	0	802	2.4
303.15	0.0289	810.8	2.39
303.15	0.0582	819.5	2.39
303.15	0.0804	825.93	2.38
303.15	0.0999	831.47	2.38
303.15	0.194	856.78	2.34
303.15	0.3007	882.65	2.28
303.15	0.4056	905	2.23
303.15	0.5091	924.2	2.16
303.15	0.6218	941.75	2.08
303.15	0.6932	951.23	2.03
303.15	0.8331	966.65	1.94
303.15	0.9165	974.5	1.89
303.15	1	982.64	1.84
308.15	0	798.2	2.41
308.15	0.0289	806.91	2.41
308.15	0.0582	815.51	2.4
308.15	0.0804	821.87	2.4
308.15	0.0999	827.35	2.39
308.15	0.194	852.47	2.39
308.15	0.3007	878.35	2.35
308.15	0.4056	900.34	2.29
308.15	0.5091	919.2	2.24
308.15	0.6218	936.55	2.15
308.15	0.6932	945.98	2.11
308.15	0.8331	960.87	2.01
308.15	0.9165	968.65	1.92
308.15	1	976.44	1.89
