Measured thermophysical data. High-Pressure Volumetric Properties of Three Monoethylene Glycol Alkyl Ethers
Source: J. Chem. Eng. Data, 2004, 10.1021/je049929f
Compound 1: 2-methoxyethan-1-ol, C3H8O2, InChI=1S/C3H8O2/c1-5-3-2-4/h4H,2-3H2,1H3
Compound 2: 2-isopropoxyethanol, C5H12O2, InChI=1S/C5H12O2/c1-5(2)7-4-3-6/h5-6H,3-4H2,1-2H3
Compound 3: 2-ethoxyethan-1-ol, C4H10O2, InChI=1S/C4H10O2/c1-2-6-4-3-5/h5H,2-4H2,1H3

System: 2-methoxyethan-1-ol; phases: Liquid
Property: Mass density, kg/m3 (Liquid); method: VIBTUB:UFactor:4
Temperature, K	Pressure, kPa	Mass density, kg/m3	uncertainty
293.15	100	964.5	0.4
293.15	5000	967.5	0.4
293.15	10000	970.7	0.4
293.15	15000	973.8	0.4
293.15	20000	976.6	0.4
293.15	25000	979.5	0.4
293.15	30000	982.3	0.4
293.15	35000	985.1	0.4
293.15	40000	987.7	0.4
293.15	45000	990.3	0.4
293.15	50000	992.9	0.4
293.15	55000	995.3	0.4
293.15	60000	997.7	0.4
303.15	100	955.4	0.4
303.15	5000	958.4	0.4
303.15	10000	961.8	0.4
303.15	15000	965.1	0.4
303.15	20000	968	0.4
303.15	25000	971.1	0.4
303.15	30000	974	0.4
303.15	35000	976.9	0.4
303.15	40000	979.6	0.4
303.15	45000	982.3	0.4
303.15	50000	984.8	0.4
303.15	55000	987.5	0.4
303.15	60000	989.9	0.4
313.15	100	945.9	0.4
313.15	5000	949.3	0.4
313.15	10000	952.7	0.4
313.15	15000	956.3	0.4
313.15	20000	959.5	0.4
313.15	25000	962.5	0.4
313.15	30000	965.6	0.4
313.15	35000	968.5	0.4
313.15	40000	971.5	0.4
313.15	45000	974.4	0.4
313.15	50000	977	0.4
313.15	55000	979.5	0.4
313.15	60000	982.2	0.4
323.15	100	936.3	0.4
323.15	5000	940.2	0.4
323.15	10000	943.9	0.4
323.15	15000	947.4	0.4
323.15	20000	950.8	0.4
323.15	25000	954	0.4
323.15	30000	957.2	0.4
323.15	35000	960.5	0.4
323.15	40000	963.3	0.4
323.15	45000	966.3	0.4
323.15	50000	969.1	0.4
323.15	55000	971.9	0.4
323.15	60000	974.6	0.4
333.15	100	926.7	0.4
333.15	5000	930.9	0.4
333.15	10000	934.6	0.4
333.15	15000	938.4	0.4
333.15	20000	941.9	0.4
333.15	25000	945.3	0.4
333.15	30000	948.8	0.4
333.15	35000	952	0.4
333.15	40000	955	0.4
333.15	45000	958	0.4
333.15	50000	961	0.4
333.15	55000	963.9	0.4
333.15	60000	966.8	0.4
343.15	100	917.1	0.4
343.15	5000	921.2	0.4
343.15	10000	925.3	0.4
343.15	15000	929.3	0.4
343.15	20000	932.9	0.4
343.15	25000	936.9	0.4
343.15	30000	940.2	0.4
343.15	35000	943.6	0.4
343.15	40000	946.8	0.4
343.15	45000	950	0.4
343.15	50000	953.1	0.4
343.15	55000	956.2	0.4
343.15	60000	959	0.4
353.15	100	907.1	0.3
353.15	5000	911.7	0.4
353.15	10000	916.1	0.4
353.15	15000	920.1	0.4
353.15	20000	924	0.4
353.15	25000	927.9	0.4
353.15	30000	931.5	0.4
353.15	35000	934.9	0.4
353.15	40000	938.7	0.4
353.15	45000	941.8	0.4
353.15	50000	945.1	0.4
353.15	55000	948.2	0.4
353.15	60000	951.2	0.4

System: 2-isopropoxyethanol; phases: Liquid
Property: Mass density, kg/m3 (Liquid); method: VIBTUB:UFactor:4
Temperature, K	Pressure, kPa	Mass density, kg/m3	uncertainty
293.15	100	904	0.5
293.15	5000	907.3	0.6
293.15	10000	910.8	0.6
293.15	15000	914.1	0.7
293.15	20000	917.3	0.7
293.15	25000	920.4	0.7
293.15	30000	923.6	0.8
293.15	35000	926.4	0.8
293.15	40000	929.2	0.8
293.15	45000	932	0.9
293.15	50000	934.5	0.9
293.15	55000	937.1	0.9
293.15	60000	939.6	0.9
303.15	100	895	0.5
303.15	5000	898.4	0.6
303.15	10000	902.1	0.6
303.15	15000	905.5	0.7
303.15	20000	908.8	0.7
303.15	25000	912.1	0.8
303.15	30000	915.2	0.8
303.15	35000	918.2	0.8
303.15	40000	921.2	0.9
303.15	45000	924	0.9
303.15	50000	927	0.9
303.15	55000	929.7	1
303.15	60000	932.1	1
313.15	100	885.5	0.5
313.15	5000	889.2	0.6
313.15	10000	893.2	0.6
313.15	15000	896.9	0.7
313.15	20000	900.4	0.7
313.15	25000	903.7	0.8
313.15	30000	907.2	0.8
313.15	35000	910.2	0.9
313.15	40000	913.3	0.9
313.15	45000	916.2	1
313.15	50000	919.1	1
313.15	55000	921.9	1
313.15	60000	924.8	1.1
323.15	100	875.9	0.5
323.15	5000	880.1	0.6
323.15	10000	884.3	0.7
323.15	15000	888.2	0.7
323.15	20000	891.9	0.8
323.15	25000	895.4	0.8
323.15	30000	899	0.9
323.15	35000	902.3	0.9
323.15	40000	905.4	1
323.15	45000	908.5	1
323.15	50000	911.4	1.1
323.15	55000	914.5	1.1
323.15	60000	917.3	1.1
333.15	100	866.4	0.6
333.15	5000	871	0.6
333.15	10000	875.2	0.7
333.15	15000	879.4	0.7
333.15	20000	883.3	0.8
333.15	25000	887	0.9
333.15	30000	890.7	0.9
333.15	35000	894.2	1
333.15	40000	897.4	1
333.15	45000	900.7	1.1
333.15	50000	903.6	1.1
333.15	55000	906.9	1.2
333.15	60000	910	1.2
343.15	100	856.8	0.6
343.15	5000	861.5	0.6
343.15	10000	866.1	0.7
343.15	15000	870.5	0.8
343.15	20000	874.7	0.8
343.15	25000	878.6	0.9
343.15	30000	882.5	1
343.15	35000	886.1	1
343.15	40000	889.5	1.1
343.15	45000	893.1	1.1
343.15	50000	896.4	1.2
343.15	55000	899.4	1.2
343.15	60000	902.5	1.3
353.15	100	846.8	0.6
353.15	5000	851.9	0.6
353.15	10000	856.7	0.7
353.15	15000	861.6	0.8
353.15	20000	865.8	0.9
353.15	25000	870	0.9
353.15	30000	874.1	1
353.15	35000	877.8	1.1
353.15	40000	881.6	1.1
353.15	45000	885.2	1.2
353.15	50000	888.3	1.3
353.15	55000	891.7	1.3
353.15	60000	894.9	1.4

System: 2-ethoxyethan-1-ol; phases: Liquid
Property: Mass density, kg/m3 (Liquid); method: VIBTUB:UFactor:4
Temperature, K	Pressure, kPa	Mass density, kg/m3	uncertainty
293.15	100	929.6	0.5
293.15	5000	932.9	0.6
293.15	10000	936.2	0.6
293.15	15000	939.3	0.6
293.15	20000	942.4	0.6
293.15	25000	945.2	0.6
293.15	30000	948.2	0.7
293.15	35000	951.1	0.7
293.15	40000	953.7	0.7
293.15	45000	956.5	0.7
293.15	50000	959	0.7
293.15	55000	961.6	0.7
293.15	60000	964	0.7
303.15	100	920.7	0.5
303.15	5000	924	0.6
303.15	10000	927.4	0.6
303.15	15000	930.7	0.6
303.15	20000	933.9	0.6
303.15	25000	937	0.7
303.15	30000	939.9	0.7
303.15	35000	942.9	0.7
303.15	40000	945.8	0.7
303.15	45000	948.6	0.7
303.15	50000	951.3	0.8
303.15	55000	953.8	0.8
303.15	60000	956.3	0.8
313.15	100	911.3	0.5
313.15	5000	914.9	0.6
313.15	10000	918.5	0.6
313.15	15000	922.1	0.6
313.15	20000	925.5	0.7
313.15	25000	928.7	0.7
313.15	30000	931.8	0.7
313.15	35000	934.9	0.8
313.15	40000	937.8	0.8
313.15	45000	940.7	0.8
313.15	50000	943.4	0.8
313.15	55000	946.1	0.8
313.15	60000	948.9	0.8
323.15	100	901.8	0.5
323.15	5000	905.8	0.6
323.15	10000	909.7	0.6
323.15	15000	913.4	0.7
323.15	20000	916.9	0.7
323.15	25000	920.3	0.7
323.15	30000	923.6	0.8
323.15	35000	926.9	0.8
323.15	40000	930	0.8
323.15	45000	933	0.8
323.15	50000	935.7	0.9
323.15	55000	938.7	0.9
323.15	60000	941.4	0.9
333.15	100	892.3	0.5
333.15	5000	896.5	0.6
333.15	10000	900.5	0.6
333.15	15000	904.5	0.7
333.15	20000	908.2	0.7
333.15	25000	911.8	0.8
333.15	30000	915.4	0.8
333.15	35000	918.7	0.8
333.15	40000	921.8	0.9
333.15	45000	925	0.9
333.15	50000	927.9	0.9
333.15	55000	931.1	1
333.15	60000	933.9	1
343.15	100	882.6	0.5
343.15	5000	887.2	0.6
343.15	10000	891.4	0.6
343.15	15000	895.6	0.7
343.15	20000	899.4	0.7
343.15	25000	903.4	0.8
343.15	30000	906.9	0.8
343.15	35000	910.5	0.9
343.15	40000	913.8	0.9
343.15	45000	917.2	1
343.15	50000	920.4	1
343.15	55000	923.4	1
343.15	60000	926.5	1
353.15	100	872.6	0.6
353.15	5000	877.6	0.6
353.15	10000	882	0.7
353.15	15000	886.5	0.7
353.15	20000	890.6	0.8
353.15	25000	894.8	0.8
353.15	30000	898.5	0.9
353.15	35000	902	0.9
353.15	40000	905.9	1
353.15	45000	908.8	1
353.15	50000	912.5	1.1
353.15	55000	915.7	1.1
353.15	60000	918.7	1.1
