Measured thermophysical data. Densities and Viscosities of Niacin + 3-Picoline + Water Mixtures from (293.15 to 343.15) K
Source: J. Chem. Eng. Data, 2005, 10.1021/je0496995
Compound 1: 3-methylpyridine, C6H7N, InChI=1S/C6H7N/c1-6-3-2-4-7-5-6/h2-5H,1H3
Compound 2: 3-carboxylpyridine, C6H5NO2, InChI=1S/C6H5NO2/c8-6(9)5-2-1-3-7-4-5/h1-4H,(H,8,9), purity 95%
Compound 3: water, H2O, InChI=1S/H2O/h1H2, purity 99.5%

System: 3-methylpyridine; phases: Liquid
Fixed: Pressure, kPa = 101.3
Property: Viscosity, Pa*s (Liquid); method: Capillary tube (Ostwald; Ubbelohde) method
Temperature, K	Viscosity, Pa*s	uncertainty
293.15	0.0009459	1.26e-05
303.15	0.0008318	1.12e-05
313.15	0.0007352	9.9e-06
323.15	0.0006565	8.9e-06
333.15	0.0005936	8.1e-06
343.15	0.000539	7.3e-06

System: 3-methylpyridine; phases: Liquid
Fixed: Pressure, kPa = 101.325
Property: Mass density, kg/m3 (Liquid); method: Pycnometric method
Temperature, K	Mass density, kg/m3	uncertainty
293.15	956	0.5
303.15	946.6	0.5
313.15	937.7	0.5
323.15	928.3	0.5
333.15	919.3	0.5
343.15	910.3	0.5

System: 3-carboxylpyridine + 3-methylpyridine; phases: Liquid
Fixed: Pressure, kPa = 101.3
Property: Viscosity, Pa*s (Liquid); method: Capillary tube (Ostwald; Ubbelohde) method
Temperature, K	Molality, mol/kg of 3-carboxylpyridine	Viscosity, Pa*s	uncertainty
293.15	0	0.0009459	1.26e-05
293.15	0.02469	0.0009504	1.27e-05
293.15	0.107	0.0009659	1.29e-05
293.15	0.2134	0.0009908	1.33e-05
293.15	0.319	0.0010155	1.37e-05
293.15	0.424	0.0010504	1.42e-05
293.15	0.5284	0.0011066	1.5e-05
303.15	0	0.0008318	1.12e-05
303.15	0.02469	0.0008363	1.12e-05
303.15	0.107	0.0008514	1.14e-05
303.15	0.2134	0.0008764	1.18e-05
303.15	0.319	0.0009018	1.22e-05
303.15	0.424	0.0009368	1.27e-05
303.15	0.5284	0.0009891	1.35e-05
313.15	0	0.0007352	9.9e-06
313.15	0.02469	0.0007399	1e-05
313.15	0.107	0.0007553	1.02e-05
313.15	0.2134	0.0007804	1.05e-05
313.15	0.319	0.0008048	1.09e-05
313.15	0.424	0.0008396	1.14e-05
313.15	0.5284	0.0008961	1.22e-05
323.15	0	0.0006565	8.9e-06
323.15	0.02469	0.000661	8.9e-06
323.15	0.107	0.0006762	9.2e-06
323.15	0.2134	0.0007014	9.5e-06
323.15	0.319	0.0007265	9.9e-06
323.15	0.424	0.0007613	1.04e-05
323.15	0.5284	0.0008173	1.12e-05
333.15	0	0.0005936	8.1e-06
333.15	0.02469	0.0005981	8.1e-06
333.15	0.107	0.0006134	8.3e-06
333.15	0.2134	0.0006381	8.7e-06
333.15	0.319	0.0006632	9e-06
333.15	0.424	0.0006983	9.5e-06
333.15	0.5284	0.0007541	1.03e-05
343.15	0	0.000539	7.3e-06
343.15	0.02469	0.0005434	7.4e-06
343.15	0.107	0.0005594	7.6e-06
343.15	0.2134	0.0005833	8e-06
343.15	0.319	0.0006086	8.3e-06
343.15	0.424	0.0006431	8.8e-06
343.15	0.5284	0.0006997	9.6e-06

System: 3-carboxylpyridine + 3-methylpyridine; phases: Liquid
Fixed: Pressure, kPa = 101.325
Property: Mass density, kg/m3 (Liquid); method: Pycnometric method
Temperature, K	Molality, mol/kg of 3-carboxylpyridine	Mass density, kg/m3	uncertainty
293.15	0	956	0.5
293.15	0.02469	956.7	0.5
293.15	0.107	959.5	0.5
293.15	0.2134	964.1	0.5
293.15	0.319	969.5	0.5
293.15	0.424	975.8	0.5
293.15	0.5284	983	0.5
303.15	0	946.6	0.5
303.15	0.02469	947.3	0.5
303.15	0.107	950.1	0.5
303.15	0.2134	954.6	0.5
303.15	0.319	960	0.5
303.15	0.424	966.4	0.5
303.15	0.5284	973.5	0.6
313.15	0	937.7	0.5
313.15	0.02469	938.4	0.5
313.15	0.107	941.2	0.5
313.15	0.2134	945.7	0.5
313.15	0.319	951	0.5
313.15	0.424	957.5	0.5
313.15	0.5284	964.7	0.6
323.15	0	928.3	0.5
323.15	0.02469	929	0.5
323.15	0.107	931.8	0.5
323.15	0.2134	936.3	0.5
323.15	0.319	941.5	0.5
323.15	0.424	947.8	0.5
323.15	0.5284	955.2	0.6
333.15	0	919.3	0.5
333.15	0.02469	920	0.5
333.15	0.107	922.8	0.5
333.15	0.2134	927.2	0.5
333.15	0.319	932.5	0.5
333.15	0.424	938.7	0.6
333.15	0.5284	946.2	0.6
343.15	0	910.3	0.5
343.15	0.02469	911	0.5
343.15	0.107	913.8	0.5
343.15	0.2134	918.2	0.5
343.15	0.319	923.5	0.6
343.15	0.424	929.7	0.6
343.15	0.5284	937.2	0.6

System: 3-methylpyridine + water; phases: Liquid
Fixed: Pressure, kPa = 101.3
Property: Viscosity, Pa*s (Liquid); method: Capillary tube (Ostwald; Ubbelohde) method
Temperature, K	Mass fraction of water	Viscosity, Pa*s	uncertainty
293.15	0.1	0.0012913	2.46e-05
293.15	0.15	0.0014476	3.02e-05
303.15	0.1	0.0010015	1.86e-05
303.15	0.15	0.0011429	2.74e-05
313.15	0.1	0.0008117	1.5e-05
313.15	0.15	0.0009152	2.17e-05
323.15	0.1	0.0006796	1.28e-05
323.15	0.15	0.0007673	1.75e-05
333.15	0.1	0.0005794	1.11e-05
333.15	0.15	0.0006568	1.5e-05
343.15	0.1	0.0005053	9.9e-06
343.15	0.15	0.0005712	1.24e-05

System: 3-methylpyridine + water; phases: Liquid
Fixed: Pressure, kPa = 101.3
Property: Mass density, kg/m3 (Liquid); method: Pycnometric method
Temperature, K	Mass fraction of 3-methylpyridine	Mass density, kg/m3	uncertainty
293.15	0.1	997.8	1.1
293.15	0.15	997.5	1.1
303.15	0.1	994.4	1.1
303.15	0.15	993.7	1.1
313.15	0.1	990.2	1.1
313.15	0.15	989.2	1.1
323.15	0.1	985.2	1.1
323.15	0.15	983.7	1.1
333.15	0.1	979.6	1.1
333.15	0.15	977.7	1.1
343.15	0.1	973.7	1.1
343.15	0.15	971.7	1.1

System: 3-carboxylpyridine + 3-methylpyridine + water; phases: Liquid
Fixed: Pressure, kPa = 101.3
Property: Viscosity, Pa*s (Liquid); method: Capillary tube (Ostwald; Ubbelohde) method
Temperature, K	Molality, mol/kg of 3-carboxylpyridine	Solvent: Mass fraction of water	Viscosity, Pa*s	uncertainty
293.15	0	0.1	0.0012913	2.46e-05
293.15	0	0.15	0.0014476	3.02e-05
293.15	0.0687	0.15	0.0014846	3.06e-05
293.15	0.1107	0.15	0.00151	3.06e-05
293.15	0.1158	0.1	0.0013454	2.2e-05
293.15	0.1994	0.1	0.0013926	2.28e-05
293.15	0.2371	0.15	0.001588	3.1e-05
293.15	0.3432	0.1	0.0014689	2.4e-05
293.15	0.461	0.15	0.0017459	3.14e-05
293.15	0.4822	0.1	0.0015548	2.54e-05
293.15	0.6166	0.1	0.0016387	2.68e-05
293.15	0.7468	0.1	0.0017257	2.82e-05
293.15	0.8739	0.15	0.0020734	3.39e-05
293.15	1.2458	0.15	0.0024906	4.71e-05
303.15	0	0.1	0.0010015	1.86e-05
303.15	0	0.15	0.0011429	2.74e-05
303.15	0.0687	0.15	0.0011674	2.54e-05
303.15	0.1107	0.15	0.0011856	2.71e-05
303.15	0.1158	0.1	0.0010413	1.71e-05
303.15	0.1994	0.1	0.0010741	1.76e-05
303.15	0.2371	0.15	0.0012402	2.85e-05
303.15	0.3432	0.1	0.0011341	1.86e-05
303.15	0.461	0.15	0.0013487	3.2e-05
303.15	0.4822	0.1	0.00119	1.95e-05
303.15	0.6166	0.1	0.0012501	2.05e-05
303.15	0.7468	0.1	0.0013176	2.16e-05
303.15	0.8739	0.15	0.001571	3.34e-05
303.15	1.2458	0.15	0.0018651	3.1e-05
313.15	0	0.1	0.0008117	1.5e-05
313.15	0	0.15	0.0009152	2.17e-05
313.15	0.0687	0.15	0.000933	1.56e-05
313.15	0.1107	0.15	0.0009448	1.65e-05
313.15	0.1158	0.1	0.0008422	1.39e-05
313.15	0.1994	0.1	0.0008648	1.42e-05
313.15	0.2371	0.15	0.0009828	1.77e-05
313.15	0.3432	0.1	0.000908	1.49e-05
313.15	0.461	0.15	0.0010595	2.05e-05
313.15	0.4822	0.1	0.0009529	1.57e-05
313.15	0.6166	0.1	0.0009997	1.64e-05
313.15	0.7468	0.1	0.0010519	1.73e-05
313.15	0.8739	0.15	0.0012314	2.43e-05
313.15	1.2458	0.15	0.001439	2.4e-05
323.15	0	0.1	0.0006796	1.28e-05
323.15	0	0.15	0.0007673	1.75e-05
323.15	0.0687	0.15	0.0007809	1.93e-05
323.15	0.1107	0.15	0.0007895	1.84e-05
323.15	0.1158	0.1	0.0007035	1.16e-05
323.15	0.1994	0.1	0.0007218	1.19e-05
323.15	0.2371	0.15	0.0008194	1.76e-05
323.15	0.3432	0.1	0.000755	1.25e-05
323.15	0.461	0.15	0.0008804	1.66e-05
323.15	0.4822	0.1	0.0007921	1.31e-05
323.15	0.6166	0.1	0.000826	1.36e-05
323.15	0.7468	0.1	0.0008681	1.43e-05
323.15	0.8739	0.15	0.0010104	1.66e-05
323.15	1.2458	0.15	0.0011625	1.91e-05
333.15	0	0.1	0.0005794	1.11e-05
333.15	0	0.15	0.0006568	1.5e-05
333.15	0.0687	0.15	0.0006674	2.96e-05
333.15	0.1107	0.15	0.0006744	2.87e-05
333.15	0.1158	0.1	0.0005985	9.9e-06
333.15	0.1994	0.1	0.0006137	1.02e-05
333.15	0.2371	0.15	0.0006979	2.72e-05
333.15	0.3432	0.1	0.0006411	1.06e-05
333.15	0.461	0.15	0.000748	2.37e-05
333.15	0.4822	0.1	0.00067	1.11e-05
333.15	0.6166	0.1	0.0006981	1.15e-05
333.15	0.7468	0.1	0.0007307	1.21e-05
333.15	0.8739	0.15	0.0008492	1.91e-05
333.15	1.2458	0.15	0.0009683	1.9e-05
343.15	0	0.1	0.0005053	9.9e-06
343.15	0	0.15	0.0005712	1.24e-05
343.15	0.0687	0.15	0.0005798	3.53e-05
343.15	0.1107	0.15	0.0005856	3.49e-05
343.15	0.1158	0.1	0.0005207	8.7e-06
343.15	0.1994	0.1	0.0005343	8.9e-06
343.15	0.2371	0.15	0.0006047	3.3e-05
343.15	0.3432	0.1	0.0005571	9.3e-06
343.15	0.461	0.15	0.0006421	2.9e-05
343.15	0.4822	0.1	0.0005814	9.7e-06
343.15	0.6166	0.1	0.000605	1e-05
343.15	0.7468	0.1	0.0006324	1.05e-05
343.15	0.8739	0.15	0.0007278	2.55e-05
343.15	1.2458	0.15	0.0008249	1.63e-05

System: 3-carboxylpyridine + 3-methylpyridine + water; phases: Liquid
Fixed: Pressure, kPa = 101.3
Property: Mass density, kg/m3 (Liquid); method: Pycnometric method
Temperature, K	Molality, mol/kg of 3-carboxylpyridine	Solvent: Mass fraction of 3-methylpyridine	Mass density, kg/m3	uncertainty
293.15	0	0.1	997.8	1.1
293.15	0	0.15	997.5	1.1
293.15	0.0687	0.15	1000.6	1.1
293.15	0.1107	0.15	1002.5	1.1
293.15	0.1158	0.1	1003.2	1.1
293.15	0.1994	0.1	1007.2	1.1
293.15	0.2371	0.15	1008.2	1.1
293.15	0.3432	0.1	1014	1.1
293.15	0.461	0.15	1018.4	1.1
293.15	0.4822	0.1	1020.7	1.1
293.15	0.6166	0.1	1027.2	1.1
293.15	0.7468	0.1	1033.5	1.1
293.15	0.8739	0.15	1037.3	1.1
293.15	1.2458	0.15	1054.5	1.1
303.15	0	0.1	994.4	1.1
303.15	0	0.15	993.7	1.1
303.15	0.0687	0.15	996.8	1.1
303.15	0.1107	0.15	998.7	1.1
303.15	0.1158	0.1	999.8	1.1
303.15	0.1994	0.1	1003.8	1.1
303.15	0.2371	0.15	1004.4	1.1
303.15	0.3432	0.1	1010.6	1.1
303.15	0.461	0.15	1014.6	1.1
303.15	0.4822	0.1	1017.3	1.1
303.15	0.6166	0.1	1023.8	1.1
303.15	0.7468	0.1	1030.1	1.1
303.15	0.8739	0.15	1033.5	1.1
303.15	1.2458	0.15	1050.7	1.1
313.15	0	0.1	990.2	1.1
313.15	0	0.15	989.2	1.1
313.15	0.0687	0.15	992.3	1.1
313.15	0.1107	0.15	994.2	1.1
313.15	0.1158	0.1	995.6	1.1
313.15	0.1994	0.1	999.6	1.1
313.15	0.2371	0.15	999.9	1.1
313.15	0.3432	0.1	1006.4	1.1
313.15	0.461	0.15	1010.1	1.1
313.15	0.4822	0.1	1013.1	1.1
313.15	0.6166	0.1	1019.6	1.1
313.15	0.7468	0.1	1025.9	1.1
313.15	0.8739	0.15	1029	1.1
313.15	1.2458	0.15	1046.2	1.2
323.15	0	0.1	985.2	1.1
323.15	0	0.15	983.7	1.1
323.15	0.0687	0.15	986.8	1.1
323.15	0.1107	0.15	988.7	1.1
323.15	0.1158	0.1	990.6	1.1
323.15	0.1994	0.1	994.6	1.1
323.15	0.2371	0.15	994.4	1.2
323.15	0.3432	0.1	1001.4	1.1
323.15	0.461	0.15	1004.6	1.2
323.15	0.4822	0.1	1008.1	1.1
323.15	0.6166	0.1	1014.6	1.1
323.15	0.7468	0.1	1020.9	1.1
323.15	0.8739	0.15	1023.5	1.2
323.15	1.2458	0.15	1040.7	1.2
333.15	0	0.1	979.6	1.1
333.15	0	0.15	977.7	1.1
333.15	0.0687	0.15	980.8	1.2
333.15	0.1107	0.15	982.7	1.2
333.15	0.1158	0.1	985	1.1
333.15	0.1994	0.1	989	1.1
333.15	0.2371	0.15	988.4	1.2
333.15	0.3432	0.1	995.8	1.1
333.15	0.461	0.15	998.6	1.2
333.15	0.4822	0.1	1002.5	1.1
333.15	0.6166	0.1	1009	1.1
333.15	0.7468	0.1	1015.3	1.1
333.15	0.8739	0.15	1017.5	1.2
333.15	1.2458	0.15	1034.7	1.2
343.15	0	0.1	973.7	1.1
343.15	0	0.15	971.7	1.1
343.15	0.0687	0.15	974.8	1.2
343.15	0.1107	0.15	976.7	1.2
343.15	0.1158	0.1	979.1	1.1
343.15	0.1994	0.1	983.1	1.1
343.15	0.2371	0.15	982.4	1.2
343.15	0.3432	0.1	989.9	1.1
343.15	0.461	0.15	992.6	1.2
343.15	0.4822	0.1	996.6	1.1
343.15	0.6166	0.1	1003.1	1.1
343.15	0.7468	0.1	1009.4	1.1
343.15	0.8739	0.15	1011.5	1.2
343.15	1.2458	0.15	1028.7	1.2
