Measured thermophysical data. Vapor-Liquid Equilibria of Ammonia + Water + Potassium Hydroxide and Ammonia + Water + Sodium Hydroxide Solutions at Temperatures from (293.15 to 353.15) K
Source: J. Chem. Eng. Data, 2005, 10.1021/je049708+
Compound 1: ammonia, H3N, InChI=1S/H3N/h1H3
Compound 2: potassium hydroxide, HKO, InChI=1S/K.H2O/h;1H2/q+1;/p-1
Compound 3: sodium hydroxide, HNaO, InChI=1S/Na.H2O/h;1H2/q+1;/p-1
Compound 4: water, H2O, InChI=1S/H2O/h1H2

System: ammonia + water; phases: Liquid, Gas
Property: Vapor or sublimation pressure, kPa (Liquid); method: CCELL:UFactor:8
Temperature, K	Mass fraction of ammonia	Vapor or sublimation pressure, kPa	uncertainty
293.15	0.09997	12.1	0.4
293.15	0.20024	30.7	0.9
293.15	0.30023	71.8	1.9
293.15	0.35114	106	2.8
293.15	0.3993	148.8	3.8
303.15	0.09996	19.8	0.6
303.15	0.2001	50.5	1.4
303.15	0.30008	112.9	2.9
303.15	0.35093	156.3	4
303.15	0.3991	216.2	5.5
313.15	0.09994	31.9	0.9
313.15	0.19993	76.6	2
313.15	0.29991	161.4	4.1
313.15	0.35064	224.4	5.7
313.15	0.39883	304.3	7.7
323.15	0.09992	48.3	1.3
323.15	0.19972	112.2	2.9
323.15	0.29971	226	5.7
323.15	0.3503	313.9	7.9
323.15	0.39853	419	10.5
333.15	0.09989	72.6	1.9
333.15	0.19946	160.2	4.1
333.15	0.29946	312	7.9
333.15	0.3499	429.3	10.8
333.15	0.39818	564.3	14.1
343.15	0.09987	101.6	2.6
343.15	0.19921	223.7	5.7
343.15	0.29925	423.1	10.6
343.15	0.34956	574	14.4
343.15	0.39789	743.5	18.6
353.15	0.09982	144.2	3.7
353.15	0.19869	309	7.8
353.15	0.29879	568	14.2
353.15	0.34887	751.8	18.8
353.15	0.39733	961.2	24

System: potassium hydroxide + ammonia + water; phases: Liquid, Gas
Property: Vapor or sublimation pressure, kPa (Liquid); method: CCELL:UFactor:8
Temperature, K	Mass fraction of ammonia	Mass fraction of potassium hydroxide	Vapor or sublimation pressure, kPa	uncertainty
293.15	0.09822	0.19926	29.5	1.1
293.15	0.0988	0.16082	25.5	1
293.15	0.09974	0.12012	22.5	0.9
293.15	0.10034	0.08031	18.5	0.8
293.15	0.10063	0.04047	16	0.7
293.15	0.19732	0.12019	58.3	2
293.15	0.19774	0.19999	81.5	2.8
293.15	0.19858	0.08022	47.7	1.7
293.15	0.19899	0.15947	70	2.4
293.15	0.19985	0.03941	39.7	1.4
293.15	0.29711	0.20034	171.9	5.7
293.15	0.29907	0.15975	147.1	4.9
293.15	0.30098	0.11988	126.7	4.2
293.15	0.30288	0.0798	112.1	3.7
293.15	0.3048	0.03966	94.5	3.2
293.15	0.34368	0.12195	170.6	5.6
293.15	0.34597	0.08194	149	4.9
293.15	0.34603	0.20152	223	7.3
293.15	0.34838	0.0398	126.4	4.2
293.15	0.34848	0.15988	196	6.4
293.15	0.38715	0.19982	285	9.3
293.15	0.38965	0.16047	253.6	8.3
293.15	0.39218	0.12072	224.7	7.4
293.15	0.39474	0.0799	201	6.6
293.15	0.39733	0.0392	172.3	5.7
303.15	0.09821	0.19926	47.3	1.7
303.15	0.09879	0.16082	40.2	1.4
303.15	0.09974	0.12012	34	1.2
303.15	0.10034	0.08031	29.9	1.1
303.15	0.10062	0.04047	25.5	1
303.15	0.19719	0.12021	87.6	3
303.15	0.19771	0.20001	122.3	4.1
303.15	0.19846	0.08024	72.6	2.5
303.15	0.19895	0.15948	105.5	3.5
303.15	0.19974	0.03942	61	2.1
303.15	0.2969	0.20043	249.2	8.1
303.15	0.29883	0.15982	215.7	7.1
303.15	0.30075	0.11993	186.9	6.1
303.15	0.30267	0.07982	161.2	5.3
303.15	0.3046	0.03967	139.8	4.6
303.15	0.34311	0.12207	247	8.1
303.15	0.34543	0.08202	216	7.1
303.15	0.34546	0.20179	324	10.5
303.15	0.34787	0.16007	283.9	9.2
303.15	0.34789	0.03983	184.7	6.1
303.15	0.38673	0.20003	406.6	13.2
303.15	0.38916	0.16063	365.3	11.9
303.15	0.39168	0.12083	325.7	10.6
303.15	0.39431	0.07996	284.2	9.3
303.15	0.39692	0.03923	249	8.1
313.15	0.09818	0.19927	70.7	2.4
313.15	0.09876	0.16083	60.6	2.1
313.15	0.09973	0.12012	51.7	1.8
313.15	0.10033	0.08032	45.6	1.6
313.15	0.1006	0.04047	39.4	1.4
313.15	0.19698	0.12025	129.3	4.3
313.15	0.19764	0.20002	177.4	5.8
313.15	0.19828	0.08026	107.4	3.6
313.15	0.19889	0.1595	153.3	5.1
313.15	0.19959	0.03943	91.3	3.1
313.15	0.29645	0.20055	348.3	11.3
313.15	0.29844	0.15991	306	10
313.15	0.30041	0.11999	267	8.7
313.15	0.30239	0.07986	229.3	7.5
313.15	0.30434	0.03969	200	6.6
313.15	0.3423	0.12222	346	11.2
313.15	0.34425	0.20212	455	14.7
313.15	0.34469	0.08211	307	10
313.15	0.3469	0.1603	396	12.8
313.15	0.34727	0.03987	261.6	8.5
313.15	0.38586	0.20027	559.4	18.1
313.15	0.38842	0.16081	506.2	16.4
313.15	0.39103	0.12096	452.9	14.7
313.15	0.39373	0.08003	397.3	12.9
313.15	0.3964	0.03926	350	11.4
323.15	0.09816	0.19928	102.2	3.4
323.15	0.09874	0.16084	88.9	3
323.15	0.09973	0.12012	76.1	2.6
323.15	0.10033	0.08032	66.9	2.3
323.15	0.10057	0.04047	58.3	2
323.15	0.19671	0.12029	185.2	6.1
323.15	0.19758	0.20004	249.7	8.2
323.15	0.19805	0.08028	154.8	5.1
323.15	0.19882	0.15951	218.8	7.2
323.15	0.19939	0.03944	132.4	4.4
323.15	0.29598	0.20069	478.5	15.5
323.15	0.298	0.16002	423	13.7
323.15	0.3	0.12006	371.3	12
323.15	0.30201	0.0799	321.9	10.5
323.15	0.30401	0.03971	281	9.2
323.15	0.34131	0.12241	474.3	15.3
323.15	0.34318	0.20247	600	19.4
323.15	0.3438	0.08223	421.4	13.6
323.15	0.34578	0.16059	541.3	17.5
323.15	0.34648	0.03992	363	11.8
323.15	0.38498	0.20058	754.4	24.3
323.15	0.3876	0.16104	682.6	22
323.15	0.39026	0.12112	613.8	19.8
323.15	0.39303	0.08013	542.3	17.5
323.15	0.39577	0.03931	479.3	15.5
333.15	0.09813	0.19929	144.8	4.8
333.15	0.09871	0.16084	126.9	4.2
333.15	0.09974	0.12012	109.2	3.7
333.15	0.10033	0.08032	96.6	3.3
333.15	0.10055	0.04047	85.4	2.9
333.15	0.19642	0.12035	258.6	8.4
333.15	0.19751	0.20006	344.7	11.2
333.15	0.19779	0.08032	218.2	7.1
333.15	0.19875	0.15953	303	9.9
333.15	0.19915	0.03945	187.7	6.2
333.15	0.29546	0.20086	642.5	20.7
333.15	0.29752	0.16014	569.5	18.4
333.15	0.29954	0.12015	503.9	16.3
333.15	0.30159	0.07995	439.9	14.2
333.15	0.30363	0.03973	385.6	12.5
333.15	0.34019	0.12264	635.2	20.5
333.15	0.34181	0.20295	800	25.8
333.15	0.34278	0.08237	566.6	18.3
333.15	0.34454	0.16093	720.4	23.2
333.15	0.34556	0.03998	490.8	15.9
333.15	0.384	0.20093	994.5	32
333.15	0.38667	0.16131	904	29.1
333.15	0.38939	0.12131	815	26.2
333.15	0.39223	0.08024	723.8	23.3
333.15	0.39504	0.03936	641.5	20.7
343.15	0.09809	0.1993	199.9	6.6
343.15	0.09868	0.16085	176.5	5.8
343.15	0.09974	0.12012	153.2	5.1
343.15	0.10033	0.08032	136.6	4.5
343.15	0.10051	0.04047	121	4
343.15	0.19604	0.12041	353.6	11.5
343.15	0.19744	0.20008	456	14.8
343.15	0.19746	0.08035	299.3	9.7
343.15	0.19867	0.15955	408.8	13.2
343.15	0.19886	0.03947	260	8.5
343.15	0.29482	0.20106	843.1	27.1
343.15	0.29692	0.16029	752.8	24.3
343.15	0.29901	0.12025	665.8	21.5
343.15	0.3011	0.08002	587.1	19
343.15	0.30318	0.03976	517	16.7
343.15	0.33883	0.12291	832.8	26.8
343.15	0.34009	0.20351	1044.1	33.6
343.15	0.34155	0.08253	744.8	24
343.15	0.343	0.16133	940	30.2
343.15	0.34446	0.04005	650.2	21
343.15	0.38279	0.20134	1285.1	41.3
343.15	0.38556	0.16161	1169.8	37.6
343.15	0.38838	0.12152	1058	34
343.15	0.39129	0.08037	944.5	30.4
343.15	0.39419	0.03941	840.9	27.1
353.15	0.09806	0.19931	271	8.8
353.15	0.09864	0.16086	241	7.9
353.15	0.09975	0.12011	211.2	6.9
353.15	0.10034	0.08032	189.3	6.2
353.15	0.10048	0.04048	169	5.6
353.15	0.19562	0.12049	470.5	15.2
353.15	0.19709	0.0804	403	13.1
353.15	0.19736	0.20011	613.5	19.8
353.15	0.19852	0.03949	352.7	11.4
353.15	0.19859	0.15957	542.8	17.5
353.15	0.29413	0.20128	1086	34.9
353.15	0.29627	0.16045	976	31.4
353.15	0.29841	0.12036	865.8	27.9
353.15	0.30054	0.08009	768	24.7
353.15	0.30266	0.03979	680.6	21.9
353.15	0.3373	0.12322	1071	34.4
353.15	0.33806	0.20419	1350.5	43.4
353.15	0.34016	0.08272	960.4	30.9
353.15	0.34129	0.16179	1201.5	38.6
353.15	0.3432	0.04014	845.4	27.2
353.15	0.38149	0.20179	1630	52.3
353.15	0.38434	0.16196	1489	47.8
353.15	0.38721	0.12177	1357	43.6
353.15	0.39026	0.08052	1210	38.9
353.15	0.39324	0.03948	1081	34.8

System: sodium hydroxide + ammonia + water; phases: Liquid, Gas
Property: Vapor or sublimation pressure, kPa (Liquid); method: CCELL:UFactor:8
Temperature, K	Mass fraction of ammonia	Mass fraction of sodium hydroxide	Vapor or sublimation pressure, kPa	uncertainty
293.15	0.09985	0.20006	40.1	1.1
293.15	0.09986	0.15997	31.3	0.9
293.15	0.09991	0.11997	25.1	0.7
293.15	0.09997	0.08078	18.8	0.6
293.15	0.10073	0.03986	13.5	0.5
293.15	0.19774	0.20008	104.3	2.7
293.15	0.19829	0.08033	51.9	1.4
293.15	0.19888	0.16011	82	2.2
293.15	0.19944	0.12011	65.4	1.7
293.15	0.20077	0.04127	40.3	1.1
293.15	0.29958	0.03997	92.8	2.4
293.15	0.30002	0.19973	204.2	5.2
293.15	0.30004	0.15982	171	4.4
293.15	0.30122	0.12114	142.6	3.7
293.15	0.30723	0.08	118.4	3.1
293.15	0.34776	0.03917	130	3.3
293.15	0.35033	0.20092	275.3	7
293.15	0.35053	0.16012	232.2	5.9
293.15	0.3507	0.11993	196	5
293.15	0.35089	0.08007	156.5	4
293.15	0.39663	0.16127	306	7.7
293.15	0.39861	0.19941	358.3	9
293.15	0.39923	0.03912	172	4.4
293.15	0.39992	0.08028	208.8	5.3
293.15	0.40106	0.11934	249.5	6.3
303.15	0.09984	0.15997	47.8	1.3
303.15	0.09984	0.20006	57.6	1.6
303.15	0.09985	0.11997	39.3	1.1
303.15	0.09994	0.08078	30.3	0.9
303.15	0.10068	0.03986	22.6	0.7
303.15	0.19728	0.20019	149.6	3.8
303.15	0.19803	0.08036	79	2.1
303.15	0.1986	0.16016	120.6	3.1
303.15	0.19903	0.12017	98	2.6
303.15	0.20043	0.04129	61.7	1.7
303.15	0.29953	0.03997	135.4	3.5
303.15	0.29997	0.19975	289	7.3
303.15	0.29999	0.15983	243.2	6.2
303.15	0.30119	0.12114	207.3	5.3
303.15	0.30709	0.08002	172.9	4.4
303.15	0.34774	0.03917	188	4.8
303.15	0.34986	0.20106	383.4	9.6
303.15	0.35012	0.16022	326	8.2
303.15	0.35034	0.11999	277.8	7
303.15	0.35056	0.08012	230.1	5.8
303.15	0.39639	0.16134	418.9	10.5
303.15	0.39828	0.19951	472	11.8
303.15	0.39899	0.03914	247	6.2
303.15	0.39955	0.08033	299.2	7.5
303.15	0.40086	0.11938	358.1	9
313.15	0.09978	0.11998	60	1.6
313.15	0.09982	0.20006	85.5	2.2
313.15	0.09983	0.15997	71.2	1.9
313.15	0.09991	0.08078	48.7	1.3
313.15	0.10061	0.03986	37	1
313.15	0.19668	0.20034	213.4	5.4
313.15	0.19772	0.08039	116.6	3
313.15	0.19826	0.16023	173.7	4.4
313.15	0.19854	0.12025	142.3	3.7
313.15	0.19999	0.04132	92.2	2.4
313.15	0.29948	0.03997	191.6	4.9
313.15	0.29992	0.19976	402.3	10.1
313.15	0.29994	0.15984	342.4	8.6
313.15	0.30117	0.12115	290.4	7.3
313.15	0.30693	0.08004	245.3	6.2
313.15	0.34772	0.03917	261.4	6.6
313.15	0.34927	0.20124	527.4	13.2
313.15	0.34959	0.16035	454.2	11.4
313.15	0.34989	0.12008	386.6	9.7
313.15	0.35018	0.08016	320.9	8.1
313.15	0.39607	0.16142	575	14.4
313.15	0.3978	0.19967	644.5	16.1
313.15	0.39869	0.03916	348	8.8
313.15	0.39911	0.08039	417	10.5
313.15	0.40062	0.11943	498.7	12.5
323.15	0.09972	0.11999	87.5	2.3
323.15	0.09981	0.15998	102.6	2.7
323.15	0.09981	0.20007	121.4	3.1
323.15	0.09988	0.08079	71.7	1.9
323.15	0.10054	0.03987	55.3	1.5
323.15	0.19597	0.20053	295.8	7.5
323.15	0.19735	0.08043	167	4.3
323.15	0.19785	0.16032	243.5	6.2
323.15	0.19794	0.12035	202.7	5.2
323.15	0.19944	0.04135	134.4	3.5
323.15	0.29943	0.03998	270.9	6.8
323.15	0.29988	0.19978	547.5	13.7
323.15	0.29989	0.15985	469.1	11.8
323.15	0.30115	0.12115	397.6	10
323.15	0.30675	0.08006	340.6	8.6
323.15	0.34771	0.03917	362.5	9.1
323.15	0.34858	0.20146	708.4	17.7
323.15	0.34897	0.1605	615.2	15.4
323.15	0.34935	0.12018	527.1	13.2
323.15	0.34972	0.08022	441.6	11.1
323.15	0.39572	0.16152	771.6	19.3
323.15	0.39723	0.19986	861.7	21.5
323.15	0.39834	0.03918	477.7	12
323.15	0.39858	0.08046	568	14.2
323.15	0.40035	0.11948	676.8	16.9
333.15	0.09963	0.12001	120	3.1
333.15	0.09979	0.15998	143.8	3.7
333.15	0.09979	0.20007	169	4.3
333.15	0.09983	0.08079	103.1	2.7
333.15	0.10042	0.03987	82	2.2
333.15	0.19503	0.20076	401.5	10.1
333.15	0.19684	0.08049	233.6	5.9
333.15	0.19713	0.12047	280.1	7.1
333.15	0.19731	0.16043	333	8.4
333.15	0.19869	0.04139	190.7	4.9
333.15	0.29937	0.03998	374.2	9.4
333.15	0.29985	0.15986	629.6	15.7
333.15	0.29985	0.19978	729.7	18.2
333.15	0.30115	0.12115	544.5	13.6
333.15	0.30652	0.08009	463	11.6
333.15	0.34771	0.03917	501	12.5
333.15	0.34775	0.20172	932.1	23.2
333.15	0.34824	0.16068	812.5	20.3
333.15	0.34869	0.1203	703.4	17.6
333.15	0.3491	0.0803	605	15.1
333.15	0.39532	0.16162	1013.5	25.3
333.15	0.39658	0.20008	1125.8	28
333.15	0.39793	0.03921	641.1	16
333.15	0.39794	0.08055	755.4	18.9
333.15	0.40005	0.11954	898	22.4
343.15	0.09955	0.12003	172	4.4
343.15	0.09979	0.0808	145	3.7
343.15	0.09979	0.15998	198.1	5
343.15	0.09979	0.20007	230.1	5.8
343.15	0.1003	0.03988	120	3.1
343.15	0.19438	0.20102	522.4	13.1
343.15	0.19634	0.08056	319.1	8
343.15	0.1964	0.12062	378.4	9.5
343.15	0.19685	0.16056	446	11.2
343.15	0.19787	0.04145	265	6.7
343.15	0.29932	0.03998	506.4	12.7
343.15	0.29985	0.15987	828.1	20.7
343.15	0.29987	0.19978	953.2	23.8
343.15	0.30118	0.12115	719.4	18
343.15	0.3063	0.08012	617	15.4
343.15	0.34702	0.202	1195.5	29.8
343.15	0.34753	0.16089	1055	26.3
343.15	0.34774	0.03917	663	16.6
343.15	0.34803	0.12044	919.7	22.9
343.15	0.34855	0.08038	785.5	19.6
343.15	0.39497	0.16174	1306.4	32.5
343.15	0.39599	0.20031	1445	35.9
343.15	0.39729	0.08064	985	24.5
343.15	0.39749	0.03924	843	21
343.15	0.39979	0.1196	1157	28.8
353.15	0.09934	0.12005	235	6
353.15	0.09971	0.08081	199.6	5.1
353.15	0.09976	0.15999	268	6.8
353.15	0.09976	0.20008	312.6	7.9
353.15	0.10011	0.03989	166	4.2
353.15	0.19268	0.20135	686	17.1
353.15	0.19501	0.1208	500	12.5
353.15	0.1955	0.08063	425.1	10.7
353.15	0.19591	0.16071	585.7	14.6
353.15	0.1966	0.04152	361.6	9.1
353.15	0.29928	0.03999	669.5	16.7
353.15	0.29986	0.15986	1069	26.6
353.15	0.29991	0.19977	1225.2	30.5
353.15	0.30125	0.12113	931.3	23.2
353.15	0.306	0.08015	805.4	20.1
353.15	0.34577	0.20233	1524	37.9
353.15	0.34645	0.16113	1343.6	33.4
353.15	0.34709	0.1206	1178	29.3
353.15	0.34776	0.08047	1010	25.2
353.15	0.34782	0.03917	865.2	21.6
353.15	0.39447	0.16185	1661	41.3
353.15	0.3951	0.20057	1829	45.5
353.15	0.39644	0.08075	1260	31.4
353.15	0.39697	0.03928	1086	27
353.15	0.39949	0.11966	1460	36.3
