Measured thermophysical data. Density and Viscosity Studies of Binary Mixtures of N,N-Dimethylformamide with Toluene and Methyl Benzoate at (298.15, 303.15, 308.15, and 313.15) K
Source: J. Chem. Eng. Data, 2005, 10.1021/je040012q
Compound 1: methyl benzoate, C8H8O2, InChI=1S/C8H8O2/c1-10-8(9)7-5-3-2-4-6-7/h2-6H,1H3
Compound 2: toluene, C7H8, InChI=1S/C7H8/c1-7-5-3-2-4-6-7/h2-6H,1H3
Compound 3: dimethylformamide, C3H7NO, InChI=1S/C3H7NO/c1-4(2)3-5/h3H,1-2H3

System: methyl benzoate; phases: Liquid
Fixed: Pressure, kPa = 101.3
Property: Viscosity, Pa*s (Liquid); method: CAPTUB:UFactor:2
Temperature, K	Viscosity, Pa*s	uncertainty
298.15	0.001918	2.4e-05
303.15	0.001778	2.2e-05
308.15	0.001663	2.1e-05
313.15	0.001402	1.8e-05

System: methyl benzoate; phases: Liquid
Fixed: Pressure, kPa = 101.3
Property: Mass density, kg/m3 (Liquid); method: PYCNOM:UFactor:4
Temperature, K	Mass density, kg/m3	uncertainty
298.15	1085	1.2
303.15	1080.3	1.3
308.15	1075.6	1.3
313.15	1070.8	1.3

System: toluene; phases: Liquid
Fixed: Pressure, kPa = 101.3
Property: Viscosity, Pa*s (Liquid); method: CAPTUB:UFactor:2
Temperature, K	Viscosity, Pa*s	uncertainty
298.15	0.000558	9e-06
303.15	0.000526	9e-06
308.15	0.000496	9e-06
313.15	0.00047	9e-06

System: toluene; phases: Liquid
Fixed: Pressure, kPa = 101.3
Property: Mass density, kg/m3 (Liquid); method: PYCNOM:UFactor:4
Temperature, K	Mass density, kg/m3	uncertainty
298.15	862.2	0.8
303.15	857.6	0.9
308.15	853	0.9
313.15	848.2	1

System: dimethylformamide; phases: Liquid
Fixed: Pressure, kPa = 101.3
Property: Viscosity, Pa*s (Liquid); method: CAPTUB:UFactor:2
Temperature, K	Viscosity, Pa*s	uncertainty
298.15	0.000803	1.1e-05
303.15	0.000756	1.1e-05
308.15	0.00071	1.1e-05
313.15	0.000673	1e-05

System: dimethylformamide; phases: Liquid
Fixed: Pressure, kPa = 101.3
Property: Mass density, kg/m3 (Liquid); method: PYCNOM:UFactor:4
Temperature, K	Mass density, kg/m3	uncertainty
298.15	944.5	0.9
303.15	939.8	1
308.15	935.1	1
313.15	930.2	1.1

System: dimethylformamide + toluene; phases: Liquid
Fixed: Pressure, kPa = 101.3
Property: Viscosity, Pa*s (Liquid); method: CAPTUB:UFactor:2
Temperature, K	Mole fraction of dimethylformamide	Viscosity, Pa*s	uncertainty
298.15	0	0.000558	9e-06
298.15	0.1224	0.000584	9e-06
298.15	0.2414	0.000612	1e-05
298.15	0.3485	0.000639	1e-05
298.15	0.4031	0.000654	1e-05
298.15	0.5545	0.000699	1e-05
298.15	0.657	0.000723	1.1e-05
298.15	0.7413	0.000742	1.1e-05
298.15	0.8336	0.000764	1.1e-05
298.15	0.9129	0.000781	1.1e-05
298.15	1	0.000803	1.1e-05
303.15	0	0.000526	9e-06
303.15	0.1224	0.00055	9e-06
303.15	0.2414	0.000576	9e-06
303.15	0.3485	0.000601	1e-05
303.15	0.4031	0.000615	1e-05
303.15	0.5545	0.000657	1e-05
303.15	0.657	0.00068	1e-05
303.15	0.7413	0.000698	1e-05
303.15	0.8336	0.000718	1.1e-05
303.15	0.9129	0.000735	1.1e-05
303.15	1	0.000756	1.1e-05
308.15	0	0.000496	9e-06
308.15	0.1224	0.000518	9e-06
308.15	0.2414	0.000541	9e-06
308.15	0.3485	0.000565	9e-06
308.15	0.4031	0.000578	9e-06
308.15	0.5545	0.000617	1e-05
308.15	0.657	0.000638	1e-05
308.15	0.7413	0.000655	1e-05
308.15	0.8336	0.000674	1e-05
308.15	0.9129	0.00069	1e-05
308.15	1	0.00071	1.1e-05
313.15	0	0.00047	9e-06
313.15	0.1224	0.00049	9e-06
313.15	0.2414	0.000512	9e-06
313.15	0.3485	0.000534	9e-06
313.15	0.4031	0.000547	9e-06
313.15	0.5545	0.000584	9e-06
313.15	0.657	0.000604	1e-05
313.15	0.7413	0.000619	1e-05
313.15	0.8336	0.000638	1e-05
313.15	0.9129	0.000653	1e-05
313.15	1	0.000673	1e-05

System: dimethylformamide + toluene; phases: Liquid
Fixed: Pressure, kPa = 101.3
Property: Mass density, kg/m3 (Liquid); method: PYCNOM:UFactor:4
Temperature, K	Mole fraction of dimethylformamide	Mass density, kg/m3	uncertainty
298.15	0	862.2	0.8
298.15	0.1224	871.3	0.8
298.15	0.2414	880.5	0.9
298.15	0.3485	889.1	0.9
298.15	0.4031	893.6	0.9
298.15	0.5545	906.3	0.9
298.15	0.657	915	0.9
298.15	0.7413	922.2	0.9
298.15	0.8336	930	0.9
298.15	0.9129	935.9	0.9
298.15	1	944.5	0.9
303.15	0	857.6	0.9
303.15	0.1224	866.7	0.9
303.15	0.2414	875.9	0.9
303.15	0.3485	884.5	0.9
303.15	0.4031	889	0.9
303.15	0.5545	901.8	0.9
303.15	0.657	910.4	0.9
303.15	0.7413	917.6	1
303.15	0.8336	925.4	1
303.15	0.9129	931.3	1
303.15	1	939.8	1
308.15	0	853	0.9
308.15	0.1224	862.1	0.9
308.15	0.2414	871.3	0.9
308.15	0.3485	879.9	0.9
308.15	0.4031	884.4	1
308.15	0.5545	897.2	1
308.15	0.657	905.8	1
308.15	0.7413	913	1
308.15	0.8336	920.8	1
308.15	0.9129	926.8	1
308.15	1	935.1	1
313.15	0	848.2	1
313.15	0.1224	857.3	1
313.15	0.2414	866.5	1
313.15	0.3485	875.1	1
313.15	0.4031	879.6	1
313.15	0.5545	892.4	1
313.15	0.657	901.1	1
313.15	0.7413	908.2	1
313.15	0.8336	916	1
313.15	0.9129	922	1
313.15	1	930.2	1.1

System: dimethylformamide + methyl benzoate; phases: Liquid
Fixed: Pressure, kPa = 101.3
Property: Viscosity, Pa*s (Liquid); method: CAPTUB:UFactor:2
Temperature, K	Mole fraction of dimethylformamide	Viscosity, Pa*s	uncertainty
298.15	0	0.001918	2.4e-05
298.15	0.1213	0.00174	2.2e-05
298.15	0.1914	0.001644	2.1e-05
298.15	0.2976	0.001507	1.9e-05
298.15	0.3961	0.001388	1.7e-05
298.15	0.5284	0.001239	1.6e-05
298.15	0.6218	0.001141	1.5e-05
298.15	0.7468	0.00102	1.3e-05
298.15	0.8028	0.000969	1.3e-05
298.15	0.9311	0.00086	1.2e-05
298.15	1	0.000803	1.1e-05
303.15	0	0.001778	2.2e-05
303.15	0.1213	0.001622	2e-05
303.15	0.1914	0.001536	1.9e-05
303.15	0.2976	0.001413	1.8e-05
303.15	0.3961	0.001306	1.6e-05
303.15	0.5284	0.001169	1.5e-05
303.15	0.6218	0.001078	1.4e-05
303.15	0.7468	0.000963	1.3e-05
303.15	0.8028	0.000915	1.2e-05
303.15	0.9311	0.00081	1.1e-05
303.15	1	0.000756	1.1e-05
308.15	0	0.001663	2.1e-05
308.15	0.1213	0.001524	1.9e-05
308.15	0.1914	0.001447	1.8e-05
308.15	0.2976	0.001334	1.7e-05
308.15	0.3961	0.001235	1.6e-05
308.15	0.5284	0.001107	1.4e-05
308.15	0.6218	0.001022	1.3e-05
308.15	0.7468	0.000913	1.2e-05
308.15	0.8028	0.000867	1.2e-05
308.15	0.9311	0.000764	1.1e-05
308.15	1	0.00071	1.1e-05
313.15	0	0.001402	1.8e-05
313.15	0.1213	0.001305	1.7e-05
313.15	0.1914	0.001252	1.6e-05
313.15	0.2976	0.001173	1.5e-05
313.15	0.3961	0.0011	1.4e-05
313.15	0.5284	0.001003	1.3e-05
313.15	0.6218	0.000936	1.3e-05
313.15	0.7468	0.000848	1.2e-05
313.15	0.8028	0.000809	1.1e-05
313.15	0.9311	0.000721	1.1e-05
313.15	1	0.000673	1e-05

System: dimethylformamide + methyl benzoate; phases: Liquid
Fixed: Pressure, kPa = 101.3
Property: Mass density, kg/m3 (Liquid); method: PYCNOM:UFactor:4
Temperature, K	Mole fraction of dimethylformamide	Mass density, kg/m3	uncertainty
298.15	0	1085	1.2
298.15	0.1213	1074.4	1.2
298.15	0.1914	1067.8	1.2
298.15	0.2976	1057	1.1
298.15	0.3961	1046	1.1
298.15	0.5284	1029.4	1.1
298.15	0.6218	1015.9	1.1
298.15	0.7468	995.6	1
298.15	0.8028	985.5	1
298.15	0.9311	959.9	1
298.15	1	944.5	0.9
303.15	0	1080.3	1.3
303.15	0.1213	1069.8	1.2
303.15	0.1914	1063.2	1.2
303.15	0.2976	1052.4	1.2
303.15	0.3961	1041.4	1.2
303.15	0.5284	1024.8	1.1
303.15	0.6218	1011.3	1.1
303.15	0.7468	990.9	1.1
303.15	0.8028	980.9	1
303.15	0.9311	952.2	1
303.15	1	939.8	1
308.15	0	1075.6	1.3
308.15	0.1213	1065.1	1.3
308.15	0.1914	1058.6	1.2
308.15	0.2976	1047.8	1.2
308.15	0.3961	1036.8	1.2
308.15	0.5284	1020.2	1.2
308.15	0.6218	1006.7	1.1
308.15	0.7468	986.3	1.1
308.15	0.8028	976.2	1.1
308.15	0.9311	950.6	1
308.15	1	935.1	1
313.15	0	1070.8	1.3
313.15	0.1213	1060.3	1.3
313.15	0.1914	1053.8	1.3
313.15	0.2976	1043.1	1.3
313.15	0.3961	1032.1	1.2
313.15	0.5284	1015.4	1.2
313.15	0.6218	1001.9	1.2
313.15	0.7468	981.5	1.1
313.15	0.8028	971.4	1.1
313.15	0.9311	945.7	1.1
313.15	1	930.2	1.1
