Measured thermophysical data. Vapor-Liquid Equilibria at 101.32 kPa and Excess Properties of Binary Mixtures of Butyl Esters + tert-Butyl Alcohol
Source: J. Chem. Eng. Data, 2005, 10.1021/je0497350
Compound 1: 2-methylpropan-2-ol, C4H10O, InChI=1S/C4H10O/c1-4(2,3)5/h5H,1-3H3, purity 99%
Compound 2: butyl methanoate, C5H10O2, InChI=1S/C5H10O2/c1-2-3-4-7-5-6/h5H,2-4H2,1H3, purity 99%
Compound 3: butyl ethanoate, C6H12O2, InChI=1S/C6H12O2/c1-3-4-5-8-6(2)7/h3-5H2,1-2H3, purity 99%
Compound 4: butyl propanoate, C7H14O2, InChI=1S/C7H14O2/c1-3-5-6-9-7(8)4-2/h3-6H2,1-2H3, purity 99%
Compound 5: butyl butanoate, C8H16O2, InChI=1S/C8H16O2/c1-3-5-7-10-8(9)6-4-2/h3-7H2,1-2H3, purity 99%

System: 2-methylpropan-2-ol; phases: Liquid, Gas
Property: Normal boiling temperature, K (Liquid); method: EBULLIO:FP
Normal boiling temperature, K	uncertainty
355.58	0.1

System: 2-methylpropan-2-ol; phases: Liquid
Fixed: Pressure, kPa = 101.325
Property: Refractive index (Na D-line) (Liquid); method: Standard Abbe refractometry
Temperature, K	Refractive index (Na D-line)	uncertainty
303.15	1.3821	0.0007
318.15	1.3741	0.0007

System: 2-methylpropan-2-ol; phases: Liquid
Fixed: Pressure, kPa = 101.325
Property: Mass density, kg/m3 (Liquid); method: Vibrating tube method
Temperature, K	Mass density, kg/m3	uncertainty
303.15	775.39	0.42
318.15	759.87	0.42

System: butyl methanoate; phases: Liquid, Gas
Property: Vapor or sublimation pressure, kPa (Liquid); method: EBULLIO:UFactor:16
Temperature, K	Vapor or sublimation pressure, kPa	uncertainty
351.93	39.8	0.23
352.9	41.34	0.23
353.61	42.56	0.23
354.63	44.01	0.24
355.48	45.4	0.24
356.16	46.69	0.24
357.06	48.04	0.24
357.83	49.58	0.25
358.51	50.55	0.25
359.21	52.07	0.25
360.03	53.37	0.25
360.58	54.63	0.26
361.3	56.03	0.26
362.07	57.3	0.26
362.78	58.74	0.26
363.41	60.03	0.27
363.94	61.37	0.27
364.53	62.61	0.27
365.28	64.01	0.27
365.82	65.43	0.28
366.39	66.7	0.28
366.97	67.81	0.28
367.7	69.73	0.28
368.21	70.69	0.29
368.77	72.02	0.29
369.2	73.27	0.29
369.77	74.67	0.29
370.39	76.02	0.3
371.01	77.77	0.3
371.35	78.69	0.3
371.83	79.9	0.3
372.32	81.22	0.31
372.98	82.86	0.31
373.23	83.42	0.31
374	85.54	0.31
374.46	86.83	0.32
374.8	87.98	0.32
375.42	89.51	0.32
375.83	90.7	0.32
376.18	91.92	0.33
376.53	92.98	0.33
377.23	94.84	0.33
377.54	95.98	0.33
377.91	97.12	0.33
378.53	98.83	0.34
378.91	100.02	0.34
379.33	101.32	0.34
379.63	102.5	0.35
380.17	104.07	0.35
380.63	105.51	0.35
381.03	106.83	0.36
381.3	107.92	0.36
381.7	109.24	0.36
382.22	110.8	0.36
382.51	112	0.37
382.9	113.36	0.37
383.32	114.6	0.37
383.66	116	0.37
384.03	117.36	0.37
384.4	118.6	0.38
384.83	120.01	0.38
385.23	121.48	0.38
385.51	122.69	0.39
385.84	123.93	0.39
386.31	125.48	0.39
386.58	126.69	0.39
386.93	128.01	0.39
387.32	129.35	0.4
387.69	130.79	0.4
387.92	131.85	0.4
388.37	133.41	0.4
388.6	134.53	0.41
389.06	136.15	0.41
389.38	137.47	0.41
389.73	138.88	0.41
390.04	140.17	0.42
390.26	141.21	0.42
390.58	142.57	0.42
390.85	143.71	0.42
391.31	145.47	0.43
391.62	146.81	0.43
391.84	147.92	0.43
392.24	149.45	0.43
392.42	150.41	0.44
392.86	152.16	0.44
393.36	154.53	0.44
393.76	156.14	0.45
393.97	157.28	0.45
394.32	158.68	0.45
394.63	160.14	0.46
394.9	161.36	0.46
395.19	162.84	0.46
395.48	164.08	0.46

System: butyl methanoate; phases: Liquid
Fixed: Pressure, kPa = 101.325
Property: Refractive index (Na D-line) (Liquid); method: Standard Abbe refractometry
Temperature, K	Refractive index (Na D-line)	uncertainty
303.15	1.3836	0.0006
318.15	1.3773	0.0006

System: butyl methanoate; phases: Liquid
Fixed: Pressure, kPa = 101.325
Property: Mass density, kg/m3 (Liquid); method: Vibrating tube method
Temperature, K	Mass density, kg/m3	uncertainty
303.15	883.4	0.46
318.15	867.74	0.45

System: butyl ethanoate; phases: Liquid, Gas
Property: Vapor or sublimation pressure, kPa (Liquid); method: EBULLIO:UFactor:16
Temperature, K	Vapor or sublimation pressure, kPa	uncertainty
369.66	40.29	0.23
370.49	41.48	0.23
371.19	42.64	0.23
372.26	44.02	0.24
373.05	45.37	0.24
373.83	46.58	0.24
374.87	48.12	0.24
375.76	49.58	0.25
376.36	50.55	0.25
377.33	52.07	0.25
378.11	53.38	0.25
378.59	54.37	0.26
379.52	56.01	0.26
380.35	57.3	0.26
381.07	58.69	0.26
381.84	60.07	0.27
382.55	61.43	0.27
383.04	62.61	0.27
383.86	64.03	0.27
384.46	65.43	0.28
385.13	66.73	0.28
385.64	67.7	0.28
386.53	69.74	0.28
387.08	70.74	0.29
387.58	72.02	0.29
388.24	73.29	0.29
388.78	74.7	0.29
389.46	76.06	0.3
390.04	77.65	0.3
390.6	78.73	0.3
391.29	80.42	0.3
391.73	81.38	0.31
392.35	82.99	0.31
392.55	83.42	0.31
393.89	86.83	0.32
394.26	87.98	0.32
394.68	89.08	0.32
395.39	90.72	0.32
395.76	91.92	0.33
396.37	93.38	0.33
396.86	94.72	0.33
397.26	96.04	0.33
397.7	97.26	0.33
398.3	98.8	0.34
398.75	100.02	0.34
399.18	101.32	0.34
399.56	102.59	0.35
400.13	104.16	0.35
401.02	106.99	0.35
401.45	108.04	0.36
401.76	109.22	0.36
402.25	110.79	0.36
402.73	112.04	0.36
403.02	113.1	0.36
403.56	114.64	0.37
403.97	116.02	0.37
404.32	117.33	0.37
404.7	118.57	0.37
405.2	120.05	0.38
405.59	121.55	0.38
405.99	122.71	0.38
406.47	124.36	0.39
406.72	125.41	0.39
407.04	126.49	0.39
407.47	128.01	0.39
407.84	129.32	0.39
408.31	130.79	0.4
408.66	132.03	0.4
408.96	133.33	0.4
409.37	134.61	0.41
409.7	136.01	0.41
410.13	137.57	0.41
410.36	138.47	0.41
410.86	140.29	0.42
411.08	141.19	0.42
411.53	142.69	0.42
411.88	144.17	0.42
412.24	145.56	0.43
412.59	146.81	0.43
412.9	148.01	0.43
413.19	149.35	0.43
413.61	150.84	0.44
413.93	152.16	0.44
414.27	153.49	0.44
414.48	154.57	0.44
414.8	155.86	0.44
415.25	157.54	0.45
415.49	158.72	0.45
415.75	159.8	0.45
416.19	161.46	0.46
416.51	162.9	0.46
416.74	164.01	0.46

System: butyl ethanoate; phases: Liquid
Fixed: Pressure, kPa = 101.325
Property: Refractive index (Na D-line) (Liquid); method: Standard Abbe refractometry
Temperature, K	Refractive index (Na D-line)	uncertainty
303.15	1.3892	0.0007
318.15	1.3821	0.0007

System: butyl ethanoate; phases: Liquid
Fixed: Pressure, kPa = 101.325
Property: Mass density, kg/m3 (Liquid); method: Vibrating tube method
Temperature, K	Mass density, kg/m3	uncertainty
303.15	871.35	0.46
318.15	855.42	0.45

System: butyl propanoate; phases: Liquid, Gas
Property: Vapor or sublimation pressure, kPa (Liquid); method: EBULLIO:UFactor:16
Temperature, K	Vapor or sublimation pressure, kPa	uncertainty
387.18	40.26	0.23
388.03	41.4	0.23
389.1	42.6	0.23
390.14	44.02	0.24
391.06	45.33	0.24
391.78	46.65	0.24
392.85	48.02	0.24
393.76	49.46	0.25
394.42	50.55	0.25
395.28	52.03	0.25
396.18	53.34	0.25
396.91	54.73	0.26
397.72	56.1	0.26
398.53	57.26	0.26
399.29	58.69	0.26
400.03	60.1	0.27
400.72	61.25	0.27
401.38	62.7	0.27
402.18	64.23	0.27
402.86	65.35	0.27
403.54	66.67	0.28
404.16	67.83	0.28
404.9	69.61	0.28
405.46	70.61	0.28
406.11	71.99	0.29
406.78	73.29	0.29
407.36	74.67	0.29
408	76.11	0.3
408.63	77.38	0.3
409.19	78.73	0.3
409.8	80.02	0.3
410.38	81.65	0.31
410.93	82.73	0.31
411.48	83.95	0.31
412	85.51	0.31
412.55	86.67	0.31
413.02	87.99	0.32
413.63	89.54	0.32
414.13	90.67	0.32
414.66	91.88	0.32
415.18	93.32	0.33
415.73	94.7	0.33
416.21	96.14	0.33
416.69	97.24	0.33
417.14	98.74	0.34
417.68	100.02	0.34
418.07	101.32	0.34
418.58	102.59	0.34
419.08	104.03	0.35
419.61	105.43	0.35
420.08	106.86	0.35
420.46	108.04	0.35
420.89	109.22	0.36
421.38	110.68	0.36
421.8	112.04	0.36
422.28	113.36	0.36
422.69	114.63	0.37
423.12	116.04	0.37
423.56	117.36	0.37
423.97	118.81	0.38
424.39	120.03	0.38
424.78	121.33	0.38
425.2	122.73	0.38
425.6	124.01	0.38
426.04	125.41	0.39
426.39	126.63	0.39
426.82	128.04	0.39
427.21	129.35	0.4
427.63	130.85	0.4
427.95	131.99	0.4
428.39	133.39	0.4
428.76	134.72	0.41
429.12	136	0.41
429.52	137.44	0.41
429.87	138.73	0.41
430.23	140.03	0.42
430.57	141.24	0.42
430.99	142.76	0.42
431.29	143.91	0.42
431.72	145.53	0.43
432.06	146.8	0.43
432.41	148.15	0.43
432.75	149.39	0.43
433.09	150.7	0.44
433.56	152.56	0.44
433.73	153.22	0.44
434.38	155.77	0.45
434.75	157.26	0.45
435.15	158.82	0.45
435.38	159.81	0.45
435.8	161.5	0.46
436.1	162.68	0.46
436.43	164.04	0.46

System: butyl propanoate; phases: Liquid
Fixed: Pressure, kPa = 101.325
Property: Refractive index (Na D-line) (Liquid); method: Standard Abbe refractometry
Temperature, K	Refractive index (Na D-line)	uncertainty
303.15	1.3963	0.0007
318.15	1.3891	0.0007

System: butyl propanoate; phases: Liquid
Fixed: Pressure, kPa = 101.325
Property: Mass density, kg/m3 (Liquid); method: Vibrating tube method
Temperature, K	Mass density, kg/m3	uncertainty
303.15	866.14	0.45
318.15	851.33	0.45

System: butyl butanoate; phases: Liquid, Gas
Property: Vapor or sublimation pressure, kPa (Liquid); method: EBULLIO:UFactor:16
Temperature, K	Vapor or sublimation pressure, kPa	uncertainty
405.54	40.28	0.23
406.59	41.53	0.23
407.56	42.86	0.23
408.56	44.16	0.24
409.28	45.06	0.24
410.43	46.65	0.24
411.38	48.06	0.24
412.43	49.58	0.25
413.11	50.53	0.25
414.21	52.27	0.25
414.92	53.34	0.25
415.87	54.86	0.26
416.72	56.21	0.26
417.51	57.51	0.26
418.27	58.78	0.26
418.98	60.01	0.27
419.74	61.31	0.27
420.59	62.83	0.27
421.26	64.02	0.27
422.07	65.51	0.28
422.76	66.81	0.28
423.35	67.91	0.28
424.29	69.74	0.28
424.66	70.42	0.28
425.59	72.31	0.29
426.07	73.25	0.29
426.78	74.67	0.29
427.43	76.02	0.29
428.05	77.34	0.3
428.69	78.82	0.3
429.28	79.99	0.3
430.02	81.71	0.31
430.48	82.77	0.31
431.04	84.03	0.31
431.7	85.54	0.31
432.27	86.67	0.31
432.82	87.95	0.32
433.42	89.55	0.32
433.9	90.72	0.32
434.46	91.87	0.32
435.06	93.35	0.33
435.61	94.7	0.33
436.09	96.15	0.33
436.56	97.3	0.33
437.11	98.75	0.34
437.66	100.18	0.34
438.09	101.32	0.34
438.67	102.63	0.34
439.18	104	0.35
439.66	105.5	0.35
440.16	106.67	0.35
440.68	108.31	0.36
441.11	109.48	0.36
441.6	110.68	0.36
442.01	112.07	0.36
442.53	113.34	0.36
442.93	114.71	0.37
443.44	116	0.37
443.86	117.43	0.37
444.34	118.65	0.37
444.78	120.03	0.38
445.21	121.28	0.38
445.62	122.76	0.38
446.04	124.03	0.38
446.47	125.37	0.39
446.87	126.64	0.39
447.33	128	0.39
447.74	129.33	0.39
448.18	130.73	0.4
448.54	132.01	0.4
448.97	133.41	0.4
449.36	134.68	0.4
449.75	135.99	0.41
450.15	137.35	0.41
450.55	138.69	0.41
450.94	140.07	0.41
451.29	141.21	0.42
451.71	142.69	0.42
452.07	143.97	0.42
452.55	145.69	0.43
452.88	146.84	0.43
453.25	148.17	0.43
453.58	149.33	0.43
453.95	150.73	0.44
454.34	152.16	0.44
454.65	153.29	0.44
455.02	154.65	0.44
455.37	155.97	0.44
455.71	157.25	0.45
456.09	158.69	0.45
456.42	159.94	0.45
456.79	161.37	0.45
457.13	162.68	0.46
457.47	164.01	0.46

System: butyl butanoate; phases: Liquid
Fixed: Pressure, kPa = 101.325
Property: Refractive index (Na D-line) (Liquid); method: Standard Abbe refractometry
Temperature, K	Refractive index (Na D-line)	uncertainty
303.15	1.4018	0.0006
318.15	1.395	0.0006

System: butyl butanoate; phases: Liquid
Fixed: Pressure, kPa = 101.325
Property: Mass density, kg/m3 (Liquid); method: Vibrating tube method
Temperature, K	Mass density, kg/m3	uncertainty
303.15	860.17	0.45
318.15	846.13	0.45

System: 2-methylpropan-2-ol + butyl methanoate; phases: Liquid, Gas
Fixed: Pressure, kPa = 101.3
Property: Boiling temperature at pressure P, K (Liquid); method: EBULLIO:UFactor:4
Mole fraction of butyl methanoate	Boiling temperature at pressure P, K	uncertainty
0.0546	355.94	0.16
0.0801	356.11	0.16
0.1077	356.34	0.16
0.1624	356.8	0.16
0.2317	357.52	0.16
0.2816	357.98	0.16
0.3107	358.3	0.16
0.3475	358.72	0.16
0.3676	358.97	0.16
0.3712	359.02	0.16
0.4262	359.77	0.16
0.4306	359.81	0.16
0.4824	360.65	0.16
0.4899	360.79	0.16
0.5473	361.79	0.16
0.5497	361.88	0.16
0.601	362.89	0.16
0.6089	363.12	0.16
0.6454	363.91	0.16
0.6856	365	0.16
0.7168	365.87	0.16
0.7408	366.66	0.16
0.7535	367.11	0.16
0.7843	368.18	0.16
0.7985	368.74	0.16
0.8093	369.16	0.16
0.8293	369.92	0.16
0.8557	371.02	0.16
0.8748	371.93	0.16
0.9009	373.25	0.16
0.9231	374.45	0.16
0.9462	375.76	0.16
0.9683	377.16	0.16
0.9839	378.21	0.16

System: 2-methylpropan-2-ol + butyl methanoate; phases: Gas, Liquid
Fixed: Pressure, kPa = 101.3
Property: Mole fraction of butyl methanoate (Gas); method: CHROM:UFactor:2
Mole fraction of butyl methanoate	Mole fraction of butyl methanoate	uncertainty
0.0546	0.0385	0.0009
0.0801	0.0556	0.0013
0.1077	0.0733	0.0018
0.1624	0.1072	0.0026
0.2317	0.1507	0.0036
0.2816	0.1797	0.0044
0.3107	0.1967	0.0048
0.3475	0.2189	0.0053
0.3676	0.231	0.0056
0.3712	0.2333	0.0057
0.4262	0.2682	0.0066
0.4306	0.2695	0.0066
0.4824	0.3038	0.0075
0.4899	0.3092	0.0077
0.5473	0.3492	0.0087
0.5497	0.3522	0.0088
0.601	0.3903	0.0099
0.6089	0.3959	0.01
0.6454	0.4276	0.0109
0.6856	0.4665	0.012
0.7168	0.4971	0.0129
0.7408	0.523	0.0125
0.7535	0.5382	0.0121
0.7843	0.5776	0.0113
0.7985	0.5957	0.0108
0.8093	0.6122	0.0104
0.8293	0.6391	0.0098
0.8557	0.68	0.0088
0.8748	0.7124	0.008
0.9009	0.7598	0.0068
0.9231	0.8047	0.0056
0.9462	0.856	0.0042
0.9683	0.9109	0.0027
0.9839	0.9532	0.0014

System: 2-methylpropan-2-ol + butyl methanoate; phases: Liquid
Fixed: Pressure, kPa = 101.3
Property: Excess molar enthalpy (molar enthalpy of mixing), kJ/mol (Liquid); method: Calvet calorimetry
Temperature, K	Mole fraction of butyl methanoate	Excess molar enthalpy (molar enthalpy of mixing), kJ/mol	uncertainty
299.15	0.0488	0.4286	0.0094
299.15	0.1038	0.8096	0.0174
299.15	0.1626	1.1651	0.025
299.15	0.2215	1.4459	0.0309
299.15	0.2795	1.6575	0.0354
299.15	0.3344	1.8072	0.0386
299.15	0.3871	1.9049	0.0407
299.15	0.4356	1.9539	0.0417
299.15	0.4803	1.9691	0.042
299.15	0.5184	1.9636	0.0419
299.15	0.5201	1.9591	0.0418
299.15	0.5762	1.9195	0.041
299.15	0.6382	1.8031	0.0385
299.15	0.706	1.6227	0.0347
299.15	0.7783	1.3466	0.0288
299.15	0.8536	0.9795	0.021
299.15	0.9292	0.5324	0.0115
318.15	0.0456	0.3589	0.0079
318.15	0.0976	0.7053	0.0152
318.15	0.1519	1.0113	0.0217
318.15	0.2122	1.2872	0.0275
318.15	0.2697	1.501	0.0321
318.15	0.3251	1.6635	0.0355
318.15	0.378	1.775	0.0379
318.15	0.4267	1.8552	0.0396
318.15	0.4384	1.8747	0.04
318.15	0.4852	1.9204	0.041
318.15	0.534	1.9236	0.041
318.15	0.5898	1.8961	0.0405
318.15	0.6515	1.7968	0.0384
318.15	0.7188	1.6083	0.0344
318.15	0.7904	1.3323	0.0285
318.15	0.8641	0.9546	0.0205
318.15	0.9367	0.5078	0.011

System: 2-methylpropan-2-ol + butyl methanoate; phases: Liquid
Fixed: Pressure, kPa = 101.3
Property: Excess molar volume, m3/mol (Liquid); method: SAME:UFactor:2
Temperature, K	Mole fraction of butyl methanoate	Excess molar volume, m3/mol	uncertainty
303.15	0.0523	1.56e-07	2.1e-08
303.15	0.1023	2.75e-07	2.2e-08
303.15	0.1566	3.85e-07	2.2e-08
303.15	0.2016	4.63e-07	2.3e-08
303.15	0.2492	5.31e-07	2.3e-08
303.15	0.3113	5.99e-07	2.4e-08
303.15	0.3577	6.35e-07	2.4e-08
303.15	0.4437	6.7e-07	2.4e-08
303.15	0.4502	6.71e-07	2.4e-08
303.15	0.5163	6.69e-07	2.4e-08
303.15	0.563	6.52e-07	2.4e-08
303.15	0.5988	6.3e-07	2.4e-08
303.15	0.6462	5.96e-07	2.4e-08
303.15	0.7058	5.35e-07	2.3e-08
303.15	0.743	4.88e-07	2.3e-08
303.15	0.7961	4.11e-07	2.2e-08
303.15	0.862	2.99e-07	2.2e-08
303.15	0.9082	2.11e-07	2.1e-08
303.15	0.9569	1.04e-07	2.1e-08
318.15	0.0703	2.16e-07	2.1e-08
318.15	0.132	3.7e-07	2.2e-08
318.15	0.1841	4.73e-07	2.3e-08
318.15	0.2245	5.49e-07	2.3e-08
318.15	0.2645	5.9e-07	2.4e-08
318.15	0.323	6.57e-07	2.4e-08
318.15	0.3799	6.74e-07	2.4e-08
318.15	0.4451	6.93e-07	2.4e-08
318.15	0.5004	6.91e-07	2.4e-08
318.15	0.5323	6.83e-07	2.4e-08
318.15	0.5839	6.64e-07	2.4e-08
318.15	0.6526	6.13e-07	2.4e-08
318.15	0.7185	5.53e-07	2.3e-08
318.15	0.7881	4.61e-07	2.3e-08
318.15	0.851	3.67e-07	2.2e-08
318.15	0.9366	1.74e-07	2.1e-08

System: 2-methylpropan-2-ol + butyl ethanoate; phases: Liquid, Gas
Fixed: Pressure, kPa = 101.3
Property: Boiling temperature at pressure P, K (Liquid); method: EBULLIO:UFactor:4
Mole fraction of butyl ethanoate	Boiling temperature at pressure P, K	uncertainty
0.0273	356.06	0.16
0.0564	356.6	0.16
0.0903	357.21	0.16
0.1209	357.78	0.16
0.1541	358.4	0.16
0.1921	359.17	0.16
0.2215	359.75	0.16
0.2691	360.77	0.16
0.3061	361.53	0.16
0.3421	362.37	0.16
0.3811	363.29	0.16
0.4146	364.18	0.16
0.4602	365.41	0.16
0.4921	366.36	0.16
0.5402	367.88	0.16
0.5728	368.98	0.16
0.6011	370.02	0.16
0.6168	370.6	0.16
0.6375	371.44	0.16
0.6661	372.66	0.16
0.6922	373.84	0.16
0.7008	374.26	0.16
0.7311	375.77	0.16
0.7633	377.53	0.16
0.7898	379.12	0.16
0.8004	379.8	0.16
0.8211	381.18	0.16
0.8382	382.42	0.16
0.8487	383.17	0.16
0.8737	385.19	0.16
0.8906	386.64	0.16
0.9125	388.71	0.16
0.9395	391.48	0.16
0.9565	393.4	0.16
0.9782	396.14	0.16

System: 2-methylpropan-2-ol + butyl ethanoate; phases: Gas, Liquid
Fixed: Pressure, kPa = 101.3
Property: Mole fraction of butyl ethanoate (Gas); method: CHROM:UFactor:2
Mole fraction of butyl ethanoate	Mole fraction of butyl ethanoate	uncertainty
0.0273	0.0094	0.0002
0.0564	0.0193	0.0005
0.0903	0.0308	0.0007
0.1209	0.0411	0.001
0.1541	0.0525	0.0013
0.1921	0.0659	0.0016
0.2215	0.0761	0.0018
0.2691	0.0935	0.0023
0.3061	0.1072	0.0026
0.3421	0.1212	0.0029
0.3811	0.1371	0.0033
0.4146	0.1521	0.0037
0.4602	0.1735	0.0042
0.4921	0.1904	0.0046
0.5402	0.2168	0.0053
0.5728	0.2361	0.0058
0.6011	0.2548	0.0063
0.6168	0.2653	0.0065
0.6375	0.2815	0.0069
0.6661	0.3045	0.0075
0.6922	0.3281	0.0082
0.7008	0.3361	0.0084
0.7311	0.3669	0.0092
0.7633	0.4038	0.0102
0.7898	0.4383	0.0112
0.8004	0.4531	0.0116
0.8211	0.4854	0.0126
0.8382	0.5151	0.0127
0.8487	0.5331	0.0123
0.8737	0.5835	0.0111
0.8906	0.6219	0.0102
0.9125	0.6771	0.0089
0.9395	0.7558	0.0069
0.9565	0.8129	0.0054
0.9782	0.8986	0.003

System: 2-methylpropan-2-ol + butyl ethanoate; phases: Liquid
Fixed: Pressure, kPa = 101.3
Property: Excess molar enthalpy (molar enthalpy of mixing), kJ/mol (Liquid); method: Calvet calorimetry
Temperature, K	Mole fraction of butyl ethanoate	Excess molar enthalpy (molar enthalpy of mixing), kJ/mol	uncertainty
299.15	0.0489	0.3145	0.0069
299.15	0.0993	0.6118	0.0132
299.15	0.1534	0.9009	0.0194
299.15	0.2101	1.1587	0.0248
299.15	0.2646	1.3646	0.0292
299.15	0.3182	1.5249	0.0326
299.15	0.362	1.6424	0.0351
299.15	0.409	1.7336	0.037
299.15	0.4531	1.7962	0.0383
299.15	0.5053	1.8338	0.0391
299.15	0.5507	1.8227	0.0389
299.15	0.6122	1.7512	0.0374
299.15	0.6844	1.5984	0.0341
299.15	0.7606	1.3567	0.029
299.15	0.8423	1.0055	0.0216
299.15	0.9195	0.5833	0.0126
318.15	0.0403	0.3064	0.0068
318.15	0.0856	0.5485	0.0119
318.15	0.1381	0.8283	0.0178
318.15	0.1926	1.0817	0.0232
318.15	0.2461	1.2886	0.0276
318.15	0.2937	1.438	0.0307
318.15	0.3414	1.5677	0.0335
318.15	0.3865	1.6638	0.0355
318.15	0.419	1.7339	0.037
318.15	0.455	1.7672	0.0377
318.15	0.492	1.8142	0.0387
318.15	0.5485	1.8088	0.0386
318.15	0.6058	1.7679	0.0377
318.15	0.6796	1.6284	0.0348
318.15	0.7538	1.3975	0.0299
318.15	0.8369	1.0373	0.0223
318.15	0.9197	0.5779	0.0125

System: 2-methylpropan-2-ol + butyl ethanoate; phases: Liquid
Fixed: Pressure, kPa = 101.3
Property: Excess molar volume, m3/mol (Liquid); method: SAME:UFactor:2
Temperature, K	Mole fraction of butyl ethanoate	Excess molar volume, m3/mol	uncertainty
303.15	0.0574	1.76e-07	2.1e-08
303.15	0.0965	2.71e-07	2.2e-08
303.15	0.1524	3.96e-07	2.2e-08
303.15	0.2027	4.78e-07	2.3e-08
303.15	0.2462	5.39e-07	2.3e-08
303.15	0.3081	6.04e-07	2.4e-08
303.15	0.3513	6.32e-07	2.4e-08
303.15	0.3544	6.36e-07	2.4e-08
303.15	0.3993	6.59e-07	2.4e-08
303.15	0.4482	6.69e-07	2.4e-08
303.15	0.4516	6.7e-07	2.4e-08
303.15	0.5027	6.64e-07	2.4e-08
303.15	0.5624	6.41e-07	2.4e-08
303.15	0.6068	6.14e-07	2.4e-08
303.15	0.6521	5.79e-07	2.3e-08
303.15	0.7069	5.25e-07	2.3e-08
303.15	0.7606	4.62e-07	2.3e-08
303.15	0.8085	3.98e-07	2.2e-08
303.15	0.8654	3.1e-07	2.2e-08
303.15	0.8979	2.48e-07	2.1e-08
303.15	0.9379	1.57e-07	2.1e-08
318.15	0.0632	1.94e-07	2.1e-08
318.15	0.1239	3.4e-07	2.2e-08
318.15	0.1517	3.89e-07	2.2e-08
318.15	0.2082	4.63e-07	2.3e-08
318.15	0.2556	5.31e-07	2.3e-08
318.15	0.2946	5.65e-07	2.3e-08
318.15	0.3438	6.31e-07	2.4e-08
318.15	0.4052	6.59e-07	2.4e-08
318.15	0.4526	6.71e-07	2.4e-08
318.15	0.5062	6.78e-07	2.4e-08
318.15	0.5564	6.7e-07	2.4e-08
318.15	0.6192	6.55e-07	2.4e-08
318.15	0.7359	5.72e-07	2.3e-08
318.15	0.7617	5.22e-07	2.3e-08
318.15	0.8574	3.73e-07	2.2e-08
318.15	0.9049	2.62e-07	2.2e-08

System: 2-methylpropan-2-ol + butyl propanoate; phases: Liquid, Gas
Fixed: Pressure, kPa = 101.3
Property: Boiling temperature at pressure P, K (Liquid); method: EBULLIO:UFactor:4
Mole fraction of butyl propanoate	Boiling temperature at pressure P, K	uncertainty
0.0164	355.93	0.16
0.0357	356.36	0.16
0.0561	356.83	0.16
0.0998	357.82	0.16
0.1395	358.78	0.16
0.1794	359.72	0.16
0.2252	360.91	0.16
0.2831	362.44	0.16
0.3374	363.82	0.16
0.3991	365.67	0.16
0.4493	367.53	0.16
0.5016	369.38	0.16
0.5351	370.72	0.16
0.5921	373.1	0.16
0.6348	375.4	0.16
0.6421	375.67	0.16
0.6851	378.19	0.16
0.7231	380.67	0.16
0.7567	383.18	0.16
0.7885	385.79	0.16
0.8149	388.26	0.16
0.8313	389.93	0.16
0.8555	392.65	0.16
0.8751	395.03	0.16
0.8936	397.51	0.16
0.9151	400.72	0.16
0.9339	403.85	0.16
0.9514	407.02	0.16
0.9624	409.28	0.16
0.9763	412.3	0.16
0.9857	414.45	0.16

System: 2-methylpropan-2-ol + butyl propanoate; phases: Gas, Liquid
Fixed: Pressure, kPa = 101.3
Property: Mole fraction of butyl propanoate (Gas); method: CHROM:UFactor:2
Mole fraction of butyl propanoate	Mole fraction of butyl propanoate	uncertainty
0.0164	0.003	0.0001
0.0357	0.0065	0.0002
0.0561	0.0102	0.0003
0.0998	0.0182	0.0004
0.1395	0.0258	0.0006
0.1794	0.0335	0.0008
0.2252	0.0434	0.001
0.2831	0.0565	0.0014
0.3374	0.0691	0.0017
0.3991	0.0856	0.0021
0.4493	0.1021	0.0025
0.5016	0.1197	0.0029
0.5351	0.1326	0.0032
0.5921	0.1568	0.0038
0.6348	0.1818	0.0044
0.6421	0.1845	0.0045
0.6851	0.2132	0.0052
0.7231	0.2443	0.006
0.7567	0.2763	0.0068
0.7885	0.3115	0.0077
0.8149	0.3479	0.0087
0.8313	0.3735	0.0094
0.8555	0.4178	0.0106
0.8751	0.4595	0.0118
0.8936	0.5057	0.0129
0.9151	0.5696	0.0114
0.9339	0.6369	0.0099
0.9514	0.7096	0.0081
0.9624	0.7633	0.0067
0.9763	0.8396	0.0047
0.9857	0.8982	0.0031

System: 2-methylpropan-2-ol + butyl propanoate; phases: Liquid
Fixed: Pressure, kPa = 101.3
Property: Excess molar enthalpy (molar enthalpy of mixing), kJ/mol (Liquid); method: Calvet calorimetry
Temperature, K	Mole fraction of butyl propanoate	Excess molar enthalpy (molar enthalpy of mixing), kJ/mol	uncertainty
299.15	0.0382	0.2269	0.0051
299.15	0.0828	0.4732	0.0103
299.15	0.1301	0.7231	0.0156
299.15	0.1782	0.9472	0.0203
299.15	0.228	1.1398	0.0244
299.15	0.2773	1.3054	0.0279
299.15	0.3251	1.4469	0.0309
299.15	0.3706	1.5558	0.0332
299.15	0.4145	1.6395	0.035
299.15	0.4387	1.6731	0.0357
299.15	0.4545	1.7032	0.0364
299.15	0.5113	1.7291	0.0369
299.15	0.5753	1.7107	0.0365
299.15	0.6485	1.6187	0.0346
299.15	0.7288	1.4346	0.0307
299.15	0.817	1.1047	0.0237
299.15	0.9058	0.6659	0.0144
318.15	0.0534	0.3587	0.0079
318.15	0.1182	0.6902	0.0149
318.15	0.1891	0.9954	0.0214
318.15	0.2564	1.2396	0.0265
318.15	0.3166	1.4354	0.0307
318.15	0.3719	1.5566	0.0333
318.15	0.4023	1.6148	0.0345
318.15	0.452	1.6769	0.0358
318.15	0.5104	1.707	0.0365
318.15	0.5782	1.6785	0.0358
318.15	0.6507	1.58	0.0338
318.15	0.7363	1.3685	0.0293
318.15	0.8261	1.0263	0.022
318.15	0.9191	0.5519	0.012

System: 2-methylpropan-2-ol + butyl propanoate; phases: Liquid
Fixed: Pressure, kPa = 101.3
Property: Excess molar volume, m3/mol (Liquid); method: SAME:UFactor:2
Temperature, K	Mole fraction of butyl propanoate	Excess molar volume, m3/mol	uncertainty
303.15	0.056	1.22e-07	2.1e-08
303.15	0.0989	2.05e-07	2.1e-08
303.15	0.1515	2.92e-07	2.2e-08
303.15	0.2004	3.49e-07	2.2e-08
303.15	0.2532	4.2e-07	2.3e-08
303.15	0.3022	4.64e-07	2.3e-08
303.15	0.3577	5.05e-07	2.3e-08
303.15	0.4055	5.28e-07	2.3e-08
303.15	0.4627	5.41e-07	2.3e-08
303.15	0.5047	5.48e-07	2.3e-08
303.15	0.5567	5.37e-07	2.3e-08
303.15	0.6006	5.2e-07	2.3e-08
303.15	0.6479	4.94e-07	2.3e-08
303.15	0.6981	4.58e-07	2.3e-08
303.15	0.756	4.03e-07	2.2e-08
303.15	0.8104	3.49e-07	2.2e-08
303.15	0.8657	2.57e-07	2.2e-08
303.15	0.9114	1.84e-07	2.1e-08
303.15	0.9409	1.37e-07	2.1e-08
318.15	0.0631	1.35e-07	2.1e-08
318.15	0.0813	1.68e-07	2.1e-08
318.15	0.1271	2.5e-07	2.2e-08
318.15	0.1956	3.51e-07	2.2e-08
318.15	0.2204	3.81e-07	2.2e-08
318.15	0.2772	4.42e-07	2.3e-08
318.15	0.3215	4.81e-07	2.3e-08
318.15	0.3663	5.19e-07	2.3e-08
318.15	0.4254	5.46e-07	2.3e-08
318.15	0.462	5.55e-07	2.3e-08
318.15	0.5319	5.71e-07	2.3e-08
318.15	0.5927	5.61e-07	2.3e-08
318.15	0.6541	5.34e-07	2.3e-08
318.15	0.7503	4.53e-07	2.3e-08
318.15	0.8379	3.32e-07	2.2e-08
318.15	0.9199	1.85e-07	2.1e-08

System: 2-methylpropan-2-ol + butyl butanoate; phases: Liquid, Gas
Fixed: Pressure, kPa = 101.3
Property: Boiling temperature at pressure P, K (Liquid); method: EBULLIO:UFactor:4
Mole fraction of butyl butanoate	Boiling temperature at pressure P, K	uncertainty
0.0279	356.35	0.16
0.0724	357.45	0.16
0.1071	358.21	0.16
0.1541	359.31	0.16
0.2062	360.52	0.16
0.2609	361.65	0.16
0.3165	363.55	0.16
0.3708	365.23	0.16
0.4185	366.85	0.16
0.4824	369.29	0.16
0.5472	372.15	0.16
0.6037	375.01	0.16
0.6406	377.19	0.16
0.6831	379.98	0.16
0.6968	380.95	0.16
0.7268	383.4	0.16
0.7617	386.73	0.16
0.7998	390.76	0.16
0.8502	397.51	0.16
0.8771	401.98	0.16
0.8937	405.23	0.16
0.9096	408.59	0.16
0.9228	411.74	0.16
0.937	415.44	0.16
0.9476	418.51	0.16
0.9573	421.55	0.16
0.9672	424.94	0.16
0.9771	428.57	0.16
0.9872	432.69	0.16
0.9927	434.99	0.16

System: 2-methylpropan-2-ol + butyl butanoate; phases: Gas, Liquid
Fixed: Pressure, kPa = 101.3
Property: Mole fraction of butyl butanoate (Gas); method: CHROM:UFactor:2
Mole fraction of butyl butanoate	Mole fraction of butyl butanoate	uncertainty
0.0279	0.0028	0.0001
0.0724	0.0072	0.0002
0.1071	0.0106	0.0003
0.1541	0.0152	0.0004
0.2062	0.0208	0.0005
0.2609	0.0261	0.0006
0.3165	0.0342	0.0008
0.3708	0.0421	0.001
0.4185	0.0498	0.0012
0.4824	0.0619	0.0015
0.5472	0.0771	0.0019
0.6037	0.0935	0.0023
0.6406	0.1069	0.0026
0.6831	0.1253	0.003
0.6968	0.1319	0.0032
0.7268	0.1495	0.0036
0.7617	0.1751	0.0042
0.7998	0.2096	0.0051
0.8502	0.2757	0.0068
0.8771	0.3257	0.0081
0.8937	0.3653	0.0092
0.9096	0.4104	0.0104
0.9228	0.4559	0.0117
0.937	0.5138	0.0127
0.9476	0.5658	0.0115
0.9573	0.6213	0.0102
0.9672	0.6873	0.0086
0.9771	0.7644	0.0067
0.9872	0.8576	0.0042
0.9927	0.9149	0.0026

System: 2-methylpropan-2-ol + butyl butanoate; phases: Liquid
Fixed: Pressure, kPa = 101.3
Property: Excess molar enthalpy (molar enthalpy of mixing), kJ/mol (Liquid); method: Calvet calorimetry
Temperature, K	Mole fraction of butyl butanoate	Excess molar enthalpy (molar enthalpy of mixing), kJ/mol	uncertainty
299.15	0.0368	0.2087	0.0047
299.15	0.0754	0.4113	0.009
299.15	0.12	0.6629	0.0143
299.15	0.1658	0.8652	0.0186
299.15	0.2126	1.0532	0.0226
299.15	0.2602	1.2237	0.0262
299.15	0.3063	1.374	0.0294
299.15	0.3463	1.4793	0.0316
299.15	0.3862	1.5565	0.0333
299.15	0.4169	1.6234	0.0347
299.15	0.4735	1.6852	0.036
299.15	0.5383	1.698	0.0363
299.15	0.6147	1.6412	0.0351
299.15	0.6989	1.4822	0.0317
299.15	0.796	1.1599	0.0249
299.15	0.899	0.6644	0.0143
318.15	0.0288	0.185	0.0042
318.15	0.0688	0.4222	0.0092
318.15	0.1135	0.629	0.0136
318.15	0.1662	0.8901	0.0191
318.15	0.2221	1.1146	0.0239
318.15	0.2818	1.3069	0.028
318.15	0.3381	1.4569	0.0311
318.15	0.3911	1.5775	0.0337
318.15	0.4266	1.6269	0.0348
318.15	0.4728	1.6679	0.0356
318.15	0.5051	1.6854	0.036
318.15	0.5405	1.6826	0.0359
318.15	0.5837	1.6663	0.0356
318.15	0.6336	1.6129	0.0345
318.15	0.6898	1.5055	0.0322
318.15	0.7492	1.3325	0.0285
318.15	0.8181	1.0625	0.0228
318.15	0.9049	0.6227	0.0135

System: 2-methylpropan-2-ol + butyl butanoate; phases: Liquid
Fixed: Pressure, kPa = 101.3
Property: Excess molar volume, m3/mol (Liquid); method: SAME:UFactor:2
Temperature, K	Mole fraction of butyl butanoate	Excess molar volume, m3/mol	uncertainty
303.15	0.0471	9.8e-08	2.1e-08
303.15	0.0954	1.97e-07	2.1e-08
303.15	0.1464	2.82e-07	2.2e-08
303.15	0.1994	3.65e-07	2.2e-08
303.15	0.25	4.36e-07	2.3e-08
303.15	0.3007	4.87e-07	2.3e-08
303.15	0.3484	5.18e-07	2.3e-08
303.15	0.3939	5.5e-07	2.3e-08
303.15	0.4803	5.71e-07	2.3e-08
303.15	0.4891	5.74e-07	2.3e-08
303.15	0.5482	5.7e-07	2.3e-08
303.15	0.6008	5.51e-07	2.3e-08
303.15	0.6449	5.29e-07	2.3e-08
303.15	0.7029	4.81e-07	2.3e-08
303.15	0.7639	4.18e-07	2.3e-08
303.15	0.802	3.69e-07	2.2e-08
303.15	0.8412	3.07e-07	2.2e-08
303.15	0.9007	2.04e-07	2.1e-08
303.15	0.9256	1.57e-07	2.1e-08
318.15	0.0484	1.5e-07	2.1e-08
318.15	0.0835	2.15e-07	2.1e-08
318.15	0.1234	2.84e-07	2.2e-08
318.15	0.1698	3.44e-07	2.2e-08
318.15	0.2146	3.99e-07	2.2e-08
318.15	0.2273	4.09e-07	2.2e-08
318.15	0.2848	4.68e-07	2.3e-08
318.15	0.3429	5.06e-07	2.3e-08
318.15	0.3839	5.38e-07	2.3e-08
318.15	0.4547	5.57e-07	2.3e-08
318.15	0.5137	5.75e-07	2.3e-08
318.15	0.5666	5.68e-07	2.3e-08
318.15	0.6522	5.37e-07	2.3e-08
318.15	0.6925	5.07e-07	2.3e-08
318.15	0.8126	3.72e-07	2.2e-08
318.15	0.8937	2.45e-07	2.1e-08
