Measured thermophysical data. Partial Molar Heat Capacities and Partial Molar Volumes of All of the Isomeric (C3 to C5) Alkanols at Infinite Dilution in Water at 298.15 K
Source: J. Chem. Eng. Data, 2004, 10.1021/je049738c
Compound 1: water, H2O, InChI=1S/H2O/h1H2
Compound 2: propan-1-ol, C3H8O, InChI=1S/C3H8O/c1-2-3-4/h4H,2-3H2,1H3, purity 99%
Compound 3: propan-2-ol, C3H8O, InChI=1S/C3H8O/c1-3(2)4/h3-4H,1-2H3, purity 99%
Compound 4: butan-1-ol, C4H10O, InChI=1S/C4H10O/c1-2-3-4-5/h5H,2-4H2,1H3, purity 99%
Compound 5: butan-2-ol, C4H10O, InChI=1S/C4H10O/c1-3-4(2)5/h4-5H,3H2,1-2H3, purity 99%
Compound 6: 2-methyl-1-propanol, C4H10O, InChI=1S/C4H10O/c1-4(2)3-5/h4-5H,3H2,1-2H3, purity 99%
Compound 7: 2-methylpropan-2-ol, C4H10O, InChI=1S/C4H10O/c1-4(2,3)5/h5H,1-3H3, purity 99%
Compound 8: pentan-1-ol, C5H12O, InChI=1S/C5H12O/c1-2-3-4-5-6/h6H,2-5H2,1H3, purity 99%
Compound 9: pentan-2-ol, C5H12O, InChI=1S/C5H12O/c1-3-4-5(2)6/h5-6H,3-4H2,1-2H3, purity 98%
Compound 10: 3-pentanol, C5H12O, InChI=1S/C5H12O/c1-3-5(6)4-2/h5-6H,3-4H2,1-2H3, purity 98%
Compound 11: 2-methyl-1-butanol, C5H12O, InChI=1S/C5H12O/c1-3-5(2)4-6/h5-6H,3-4H2,1-2H3, purity 99%
Compound 12: 3-methylbutan-1-ol, C5H12O, InChI=1S/C5H12O/c1-5(2)3-4-6/h5-6H,3-4H2,1-2H3, purity 99%
Compound 13: 2-methylbutan-2-ol, C5H12O, InChI=1S/C5H12O/c1-4-5(2,3)6/h6H,4H2,1-3H3, purity 99%
Compound 14: 3-methyl-2-butanol, C5H12O, InChI=1S/C5H12O/c1-4(2)5(3)6/h4-6H,1-3H3, purity 98%
Compound 15: 2,2-dimethyl-1-propanol, C5H12O, InChI=1S/C5H12O/c1-5(2,3)4-6/h6H,4H2,1-3H3, purity 99%

System: propan-1-ol; phases: Liquid
Property: Molar heat capacity at constant pressure, J/K/mol (Liquid); method: Flow calorimetry
Temperature, K	Pressure, kPa	Molar heat capacity at constant pressure, J/K/mol	uncertainty
298.15	101.325	144.3	1.6

System: propan-1-ol; phases: Liquid
Property: Mass density, kg/m3 (Liquid); method: VIBTUB:UFactor:4
Temperature, K	Pressure, kPa	Mass density, kg/m3	uncertainty
298.15	101.325	799.52	0.7

System: propan-2-ol; phases: Liquid
Property: Molar heat capacity at constant pressure, J/K/mol (Liquid); method: Flow calorimetry
Temperature, K	Pressure, kPa	Molar heat capacity at constant pressure, J/K/mol	uncertainty
298.15	101.325	155.2	1.8

System: propan-2-ol; phases: Liquid
Property: Mass density, kg/m3 (Liquid); method: VIBTUB:UFactor:4
Temperature, K	Pressure, kPa	Mass density, kg/m3	uncertainty
298.15	101.325	780.72	0.73

System: butan-1-ol; phases: Liquid
Property: Molar heat capacity at constant pressure, J/K/mol (Liquid); method: Flow calorimetry
Temperature, K	Pressure, kPa	Molar heat capacity at constant pressure, J/K/mol	uncertainty
298.15	101.325	177.1	2

System: butan-1-ol; phases: Liquid
Property: Mass density, kg/m3 (Liquid); method: VIBTUB:UFactor:4
Temperature, K	Pressure, kPa	Mass density, kg/m3	uncertainty
298.15	101.325	805.62	0.7

System: butan-2-ol; phases: Liquid
Property: Molar heat capacity at constant pressure, J/K/mol (Liquid); method: Flow calorimetry
Temperature, K	Pressure, kPa	Molar heat capacity at constant pressure, J/K/mol	uncertainty
298.15	101.325	197.8	1.8

System: butan-2-ol; phases: Liquid
Property: Mass density, kg/m3 (Liquid); method: VIBTUB:UFactor:4
Temperature, K	Pressure, kPa	Mass density, kg/m3	uncertainty
298.15	101.325	802.07	0.7

System: 2-methyl-1-propanol; phases: Liquid
Property: Molar heat capacity at constant pressure, J/K/mol (Liquid); method: Flow calorimetry
Temperature, K	Pressure, kPa	Molar heat capacity at constant pressure, J/K/mol	uncertainty
298.15	101.325	181.9	2.1

System: 2-methyl-1-propanol; phases: Liquid
Property: Mass density, kg/m3 (Liquid); method: VIBTUB:UFactor:4
Temperature, K	Pressure, kPa	Mass density, kg/m3	uncertainty
298.15	101.325	797.63	0.69

System: pentan-1-ol; phases: Liquid
Property: Molar heat capacity at constant pressure, J/K/mol (Liquid); method: Flow calorimetry
Temperature, K	Pressure, kPa	Molar heat capacity at constant pressure, J/K/mol	uncertainty
298.15	101.325	208.8	2.4

System: pentan-1-ol; phases: Liquid
Property: Mass density, kg/m3 (Liquid); method: VIBTUB:UFactor:4
Temperature, K	Pressure, kPa	Mass density, kg/m3	uncertainty
298.15	101.325	810.68	1

System: pentan-2-ol; phases: Liquid
Property: Molar heat capacity at constant pressure, J/K/mol (Liquid); method: Flow calorimetry
Temperature, K	Pressure, kPa	Molar heat capacity at constant pressure, J/K/mol	uncertainty
298.15	101.325	235.3	2.6

System: pentan-2-ol; phases: Liquid
Property: Mass density, kg/m3 (Liquid); method: VIBTUB:UFactor:4
Temperature, K	Pressure, kPa	Mass density, kg/m3	uncertainty
298.15	101.325	804.55	0.99

System: 3-pentanol; phases: Liquid
Property: Molar heat capacity at constant pressure, J/K/mol (Liquid); method: Flow calorimetry
Temperature, K	Pressure, kPa	Molar heat capacity at constant pressure, J/K/mol	uncertainty
298.15	101.325	254.6	2.2

System: 3-pentanol; phases: Liquid
Property: Mass density, kg/m3 (Liquid); method: VIBTUB:UFactor:4
Temperature, K	Pressure, kPa	Mass density, kg/m3	uncertainty
298.15	101.325	815.3	0.68

System: 2-methyl-1-butanol; phases: Liquid
Property: Molar heat capacity at constant pressure, J/K/mol (Liquid); method: Flow calorimetry
Temperature, K	Pressure, kPa	Molar heat capacity at constant pressure, J/K/mol	uncertainty
298.15	101.325	215	2.1

System: 2-methyl-1-butanol; phases: Liquid
Property: Mass density, kg/m3 (Liquid); method: VIBTUB:UFactor:4
Temperature, K	Pressure, kPa	Mass density, kg/m3	uncertainty
298.15	101.325	814.54	0.7

System: 3-methylbutan-1-ol; phases: Liquid
Property: Molar heat capacity at constant pressure, J/K/mol (Liquid); method: Flow calorimetry
Temperature, K	Pressure, kPa	Molar heat capacity at constant pressure, J/K/mol	uncertainty
298.15	101.325	209.3	2.5

System: 3-methylbutan-1-ol; phases: Liquid
Property: Mass density, kg/m3 (Liquid); method: VIBTUB:UFactor:4
Temperature, K	Pressure, kPa	Mass density, kg/m3	uncertainty
298.15	101.325	804.18	0.7

System: 2-methylbutan-2-ol; phases: Liquid
Property: Molar heat capacity at constant pressure, J/K/mol (Liquid); method: Flow calorimetry
Temperature, K	Pressure, kPa	Molar heat capacity at constant pressure, J/K/mol	uncertainty
298.15	101.325	251.1	2.5

System: 2-methylbutan-2-ol; phases: Liquid
Property: Mass density, kg/m3 (Liquid); method: VIBTUB:UFactor:4
Temperature, K	Pressure, kPa	Mass density, kg/m3	uncertainty
298.15	101.325	804.01	0.99

System: 3-methyl-2-butanol; phases: Liquid
Property: Molar heat capacity at constant pressure, J/K/mol (Liquid); method: Flow calorimetry
Temperature, K	Pressure, kPa	Molar heat capacity at constant pressure, J/K/mol	uncertainty
298.15	101.325	249.5	2.5

System: 3-methyl-2-butanol; phases: Liquid
Property: Mass density, kg/m3 (Liquid); method: VIBTUB:UFactor:4
Temperature, K	Pressure, kPa	Mass density, kg/m3	uncertainty
298.15	101.325	812.31	0.73

System: propan-1-ol + water; phases: Liquid
Fixed: Temperature, K = 298.15
Fixed: Pressure, kPa = 101.3
Property: Heat capacity at constant pressure per volume, J/K/m3 (Liquid); method: Flow calorimetry
Mole fraction of propan-1-ol	Heat capacity at constant pressure per volume, J/K/m3	uncertainty
0.000792	4170900	42100
0.002096	4175200	42200
0.002978	4178200	42200
0.006166	4189500	42300
0.008272	4197000	42400
0.011848	4209800	42500
0.017324	4230600	42700
0.020891	4243100	42900

System: propan-1-ol + water; phases: Liquid
Fixed: Temperature, K = 298.15
Fixed: Pressure, kPa = 101.3
Property: Mass density, kg/m3 (Liquid); method: VIBTUB:UFactor:4
Mole fraction of propan-1-ol	Mass density, kg/m3	uncertainty
0.000792	996.59	0.18
0.002096	995.84	0.18
0.002978	995.36	0.18
0.006166	993.64	0.18
0.008272	992.56	0.18
0.011848	990.81	0.19
0.017324	988.27	0.19
0.020891	986.68	0.2

System: propan-2-ol + water; phases: Liquid
Fixed: Temperature, K = 298.15
Fixed: Pressure, kPa = 101.3
Property: Heat capacity at constant pressure per volume, J/K/m3 (Liquid); method: Flow calorimetry
Mole fraction of propan-2-ol	Heat capacity at constant pressure per volume, J/K/m3	uncertainty
0.001072	4172300	42100
0.001923	4175600	42200
0.003078	4179900	42200
0.00413	4183900	42300
0.005976	4191200	42300
0.009312	4204200	42500
0.014368	4225200	42700
0.016651	4234700	42800

System: propan-2-ol + water; phases: Liquid
Fixed: Temperature, K = 298.15
Fixed: Pressure, kPa = 101.3
Property: Mass density, kg/m3 (Liquid); method: VIBTUB:UFactor:4
Mole fraction of propan-2-ol	Mass density, kg/m3	uncertainty
0.001072	996.38	0.18
0.001923	995.85	0.18
0.003078	995.16	0.18
0.00413	994.53	0.18
0.005976	993.44	0.18
0.009312	991.51	0.19
0.014368	988.91	0.19
0.016651	987.73	0.19

System: butan-1-ol + water; phases: Liquid
Fixed: Temperature, K = 298.15
Fixed: Pressure, kPa = 101.3
Property: Heat capacity at constant pressure per volume, J/K/m3 (Liquid); method: Flow calorimetry
Mole fraction of butan-1-ol	Heat capacity at constant pressure per volume, J/K/m3	uncertainty
0.001656	4176100	42200
0.003814	4186600	42300
0.005524	4195100	42400
0.006663	4200400	42400
0.009163	4213100	42600
0.014147	4239900	42800
0.016037	4251000	42900

System: butan-1-ol + water; phases: Liquid
Fixed: Temperature, K = 298.15
Fixed: Pressure, kPa = 101.3
Property: Mass density, kg/m3 (Liquid); method: VIBTUB:UFactor:4
Mole fraction of butan-1-ol	Mass density, kg/m3	uncertainty
0.001656	995.94	0.18
0.003814	994.54	0.18
0.005524	993.48	0.18
0.006663	992.78	0.18
0.009163	991.32	0.19
0.014147	988.57	0.19
0.016037	987.56	0.19

System: butan-2-ol + water; phases: Liquid
Fixed: Temperature, K = 298.15
Fixed: Pressure, kPa = 101.3
Property: Heat capacity at constant pressure per volume, J/K/m3 (Liquid); method: Flow calorimetry
Mole fraction of butan-2-ol	Heat capacity at constant pressure per volume, J/K/m3	uncertainty
0.001648	4177000	42200
0.00244	4181300	42200
0.003665	4188100	42300
0.006146	4201900	42400
0.006234	4202800	42400
0.008153	4213300	42600
0.009049	4218100	42600
0.010471	4226800	42700
0.014109	4248500	42900
0.01461	4251800	42900
0.01766	4270000	43100

System: butan-2-ol + water; phases: Liquid
Fixed: Temperature, K = 298.15
Fixed: Pressure, kPa = 101.3
Property: Mass density, kg/m3 (Liquid); method: VIBTUB:UFactor:4
Mole fraction of butan-2-ol	Mass density, kg/m3	uncertainty
0.001648	995.99	0.18
0.00244	995.46	0.18
0.003665	994.69	0.18
0.006146	993.17	0.18
0.006234	993.15	0.18
0.008153	991.98	0.18
0.009049	991.43	0.19
0.010471	990.68	0.19
0.014109	988.8	0.19
0.01461	988.51	0.19
0.01766	987	0.19

System: 2-methyl-1-propanol + water; phases: Liquid
Fixed: Temperature, K = 298.15
Fixed: Pressure, kPa = 101.3
Property: Heat capacity at constant pressure per volume, J/K/m3 (Liquid); method: Flow calorimetry
Mole fraction of 2-methyl-1-propanol	Heat capacity at constant pressure per volume, J/K/m3	uncertainty
0.001575	4175200	42200
0.00181	4176000	42200
0.003631	4184200	42300
0.006044	4195700	42400
0.009083	4209900	42500
0.011426	4220800	42600
0.016465	4247000	42900

System: 2-methyl-1-propanol + water; phases: Liquid
Fixed: Temperature, K = 298.15
Fixed: Pressure, kPa = 101.3
Property: Mass density, kg/m3 (Liquid); method: VIBTUB:UFactor:4
Mole fraction of 2-methyl-1-propanol	Mass density, kg/m3	uncertainty
0.001575	995.99	0.18
0.00181	995.84	0.18
0.003631	994.66	0.18
0.006044	993.15	0.18
0.009083	991.35	0.19
0.011426	989.99	0.19
0.016465	987.23	0.19

System: 2-methylpropan-2-ol + water; phases: Liquid
Fixed: Temperature, K = 298.15
Fixed: Pressure, kPa = 101.3
Property: Heat capacity at constant pressure per volume, J/K/m3 (Liquid); method: Flow calorimetry
Mole fraction of 2-methylpropan-2-ol	Heat capacity at constant pressure per volume, J/K/m3	uncertainty
0.000883	4173400	42100
0.001796	4178600	42200
0.002923	4185200	42300
0.004051	4192000	42300
0.006409	4206500	42500
0.00867	4220900	42600
0.01153	4239100	42800
0.017164	4276400	43200

System: 2-methylpropan-2-ol + water; phases: Liquid
Fixed: Temperature, K = 298.15
Fixed: Pressure, kPa = 101.3
Property: Mass density, kg/m3 (Liquid); method: VIBTUB:UFactor:4
Mole fraction of 2-methylpropan-2-ol	Mass density, kg/m3	uncertainty
0.000883	996.41	0.18
0.001796	995.74	0.18
0.002923	994.98	0.18
0.004051	994.22	0.18
0.006409	992.64	0.18
0.00867	991.22	0.19
0.01153	989.43	0.19
0.017164	986.35	0.2

System: pentan-1-ol + water; phases: Liquid
Fixed: Temperature, K = 298.15
Fixed: Pressure, kPa = 101.3
Property: Heat capacity at constant pressure per volume, J/K/m3 (Liquid); method: Flow calorimetry
Mole fraction of pentan-1-ol	Heat capacity at constant pressure per volume, J/K/m3	uncertainty
0.001069	4174500	42200
0.001645	4177900	42200
0.001775	4178800	42200
0.001916	4179400	42200
0.002185	4181300	42200
0.002474	4182900	42200
0.002743	4184600	42300
0.003049	4186100	42300
0.003529	4189200	42300

System: pentan-1-ol + water; phases: Liquid
Fixed: Temperature, K = 298.15
Fixed: Pressure, kPa = 101.3
Property: Mass density, kg/m3 (Liquid); method: VIBTUB:UFactor:4
Mole fraction of pentan-1-ol	Mass density, kg/m3	uncertainty
0.001069	996.21	0.18
0.001645	995.78	0.18
0.001775	995.68	0.18
0.001916	995.57	0.18
0.002185	995.37	0.18
0.002474	995.16	0.18
0.002743	994.96	0.18
0.003049	994.73	0.18
0.003529	994.4	0.18

System: pentan-2-ol + water; phases: Liquid
Fixed: Temperature, K = 298.15
Fixed: Pressure, kPa = 101.3
Property: Heat capacity at constant pressure per volume, J/K/m3 (Liquid); method: Flow calorimetry
Mole fraction of pentan-2-ol	Heat capacity at constant pressure per volume, J/K/m3	uncertainty
0.001235	4176700	42200
0.001831	4180800	42200
0.002163	4182900	42200
0.002785	4187300	42300
0.003519	4192400	42300
0.004937	4202200	42400
0.0059	4209100	42500
0.00695	4217100	42600

System: pentan-2-ol + water; phases: Liquid
Fixed: Temperature, K = 298.15
Fixed: Pressure, kPa = 101.3
Property: Mass density, kg/m3 (Liquid); method: VIBTUB:UFactor:4
Mole fraction of pentan-2-ol	Mass density, kg/m3	uncertainty
0.001235	996.1	0.18
0.001831	995.66	0.18
0.002163	995.4	0.18
0.002785	994.95	0.18
0.003519	994.4	0.18
0.004937	993.42	0.18
0.0059	992.73	0.18
0.00695	992.05	0.18

System: 3-pentanol + water; phases: Liquid
Fixed: Temperature, K = 298.15
Fixed: Pressure, kPa = 101.3
Property: Heat capacity at constant pressure per volume, J/K/m3 (Liquid); method: Flow calorimetry
Mole fraction of 3-pentanol	Heat capacity at constant pressure per volume, J/K/m3	uncertainty
0.000803	4173700	42200
0.001033	4175300	42200
0.001252	4176900	42200
0.001864	4181400	42200
0.002399	4185100	42300
0.003282	4191500	42300
0.005357	4206400	42500
0.005689	4209600	42500
0.006773	4217300	42600

System: 3-pentanol + water; phases: Liquid
Fixed: Temperature, K = 298.15
Fixed: Pressure, kPa = 101.3
Property: Mass density, kg/m3 (Liquid); method: VIBTUB:UFactor:4
Mole fraction of 3-pentanol	Mass density, kg/m3	uncertainty
0.000803	996.49	0.18
0.001033	996.33	0.18
0.001252	996.18	0.18
0.001864	995.77	0.18
0.002399	995.4	0.18
0.003282	994.83	0.18
0.005357	993.51	0.18
0.005689	993.32	0.18
0.006773	992.61	0.18

System: 2-methyl-1-butanol + water; phases: Liquid
Fixed: Temperature, K = 298.15
Fixed: Pressure, kPa = 101.3
Property: Heat capacity at constant pressure per volume, J/K/m3 (Liquid); method: Flow calorimetry
Mole fraction of 2-methyl-1-butanol	Heat capacity at constant pressure per volume, J/K/m3	uncertainty
0.000842	4172700	42100
0.000975	4173400	42100
0.001072	4174000	42200
0.001376	4175300	42200
0.001398	4175600	42200
0.00154	4176300	42200
0.002056	4179200	42200
0.002325	4180700	42200
0.002361	4180800	42200
0.002467	4181400	42200
0.002771	4182700	42200
0.002868	4183400	42300
0.002988	4184000	42300
0.003068	4184200	42300
0.003107	4184500	42300
0.003446	4186500	42300

System: 2-methyl-1-butanol + water; phases: Liquid
Fixed: Temperature, K = 298.15
Fixed: Pressure, kPa = 101.3
Property: Mass density, kg/m3 (Liquid); method: VIBTUB:UFactor:4
Mole fraction of 2-methyl-1-butanol	Mass density, kg/m3	uncertainty
0.000842	996.43	0.18
0.000975	996.33	0.18
0.001072	996.28	0.18
0.001376	996.04	0.18
0.001398	996.04	0.18
0.00154	995.95	0.18
0.002056	995.56	0.18
0.002325	995.4	0.18
0.002361	995.38	0.18
0.002467	995.28	0.18
0.002771	995.09	0.18
0.002868	995.02	0.18
0.002988	994.91	0.18
0.003068	994.84	0.18
0.003107	994.81	0.18
0.003446	994.6	0.18

System: 3-methylbutan-1-ol + water; phases: Liquid
Fixed: Temperature, K = 298.15
Fixed: Pressure, kPa = 101.3
Property: Heat capacity at constant pressure per volume, J/K/m3 (Liquid); method: Flow calorimetry
Mole fraction of 3-methylbutan-1-ol	Heat capacity at constant pressure per volume, J/K/m3	uncertainty
0.000488	4170700	42100
0.000691	4171700	42100
0.001002	4173400	42100
0.001048	4173600	42200
0.00119	4174300	42200
0.001204	4174400	42200
0.001362	4175200	42200
0.001742	4177100	42200
0.002039	4178600	42200
0.002063	4178800	42200
0.002225	4179800	42200

System: 3-methylbutan-1-ol + water; phases: Liquid
Fixed: Temperature, K = 298.15
Fixed: Pressure, kPa = 101.3
Property: Mass density, kg/m3 (Liquid); method: VIBTUB:UFactor:4
Mole fraction of 3-methylbutan-1-ol	Mass density, kg/m3	uncertainty
0.000488	996.67	0.18
0.000691	996.51	0.18
0.001002	996.29	0.18
0.001048	996.22	0.18
0.00119	996.13	0.18
0.001204	996.13	0.18
0.001362	995.99	0.18
0.001742	995.68	0.18
0.002039	995.47	0.18
0.002063	995.45	0.18
0.002225	995.36	0.18

System: 2-methylbutan-2-ol + water; phases: Liquid
Fixed: Temperature, K = 298.15
Fixed: Pressure, kPa = 101.3
Property: Heat capacity at constant pressure per volume, J/K/m3 (Liquid); method: Flow calorimetry
Mole fraction of 2-methylbutan-2-ol	Heat capacity at constant pressure per volume, J/K/m3	uncertainty
0.00166	4180000	42200
0.001774	4181000	42200
0.002795	4188600	42300
0.005273	4207000	42500
0.006999	4220500	42600
0.009307	4239300	42800
0.012131	4263400	43100
0.013551	4275900	43200

System: 2-methylbutan-2-ol + water; phases: Liquid
Fixed: Temperature, K = 298.15
Fixed: Pressure, kPa = 101.3
Property: Mass density, kg/m3 (Liquid); method: VIBTUB:UFactor:4
Mole fraction of 2-methylbutan-2-ol	Mass density, kg/m3	uncertainty
0.00166	995.9	0.18
0.001774	995.84	0.18
0.002795	995.15	0.18
0.005273	993.56	0.18
0.006999	992.51	0.18
0.009307	991.15	0.19
0.012131	989.63	0.19
0.013551	988.89	0.19

System: 3-methyl-2-butanol + water; phases: Liquid
Fixed: Temperature, K = 298.15
Fixed: Pressure, kPa = 101.3
Property: Heat capacity at constant pressure per volume, J/K/m3 (Liquid); method: Flow calorimetry
Mole fraction of 3-methyl-2-butanol	Heat capacity at constant pressure per volume, J/K/m3	uncertainty
0.000786	4172900	42100
0.001489	4177000	42200
0.001981	4180000	42200
0.004452	4194900	42400
0.005029	4198500	42400
0.006358	4206900	42500
0.007481	4213800	42600
0.008252	4218900	42600

System: 3-methyl-2-butanol + water; phases: Liquid
Fixed: Temperature, K = 298.15
Fixed: Pressure, kPa = 101.3
Property: Mass density, kg/m3 (Liquid); method: VIBTUB:UFactor:4
Mole fraction of 3-methyl-2-butanol	Mass density, kg/m3	uncertainty
0.000786	996.49	0.18
0.001489	996.01	0.18
0.001981	995.68	0.18
0.004452	994.09	0.18
0.005029	993.72	0.18
0.006358	992.91	0.18
0.007481	992.25	0.18
0.008252	991.83	0.18

System: 2,2-dimethyl-1-propanol + water; phases: Liquid
Fixed: Temperature, K = 298.15
Fixed: Pressure, kPa = 101.3
Property: Heat capacity at constant pressure per volume, J/K/m3 (Liquid); method: Flow calorimetry
Mole fraction of 2,2-dimethyl-1-propanol	Heat capacity at constant pressure per volume, J/K/m3	uncertainty
0.001702	4176200	42200
0.002268	4178900	42200
0.002665	4181000	42200
0.003113	4183100	42200
0.003563	4185300	42300
0.004331	4189100	42300
0.004832	4191800	42300

System: 2,2-dimethyl-1-propanol + water; phases: Liquid
Fixed: Temperature, K = 298.15
Fixed: Pressure, kPa = 101.3
Property: Mass density, kg/m3 (Liquid); method: VIBTUB:UFactor:4
Mole fraction of 2,2-dimethyl-1-propanol	Mass density, kg/m3	uncertainty
0.001702	995.77	0.18
0.002268	995.36	0.18
0.002665	995.08	0.18
0.003113	994.74	0.18
0.003563	994.42	0.18
0.004331	993.87	0.18
0.004832	993.52	0.18
