Measured thermophysical data. Viscosity of Aqueous NaCl Solutions with Dissolved CO2 at (30 to 60)?C and (10 to 20) MPa
Source: J. Chem. Eng. Data, 2004, 10.1021/je049940f
Compound 1: sodium chloride, ClNa, InChI=1S/ClH.Na/h1H;/q;+1/p-1
Compound 2: water, H2O, InChI=1S/H2O/h1H2
Compound 3: carbon dioxide, CO2, InChI=1S/CO2/c2-1-3, purity 99.99%

System: sodium chloride + water; phases: Liquid
Property: Viscosity, Pa*s (Liquid); method: OTHER
Temperature, K	Pressure, kPa	Mass fraction of sodium chloride	Viscosity, Pa*s	uncertainty
303.15	10000	0	0.0008	5e-05
303.15	10000	0.03	0.00084	5e-05
303.15	20000	0.03	0.00083	5e-05
313.15	10000	0	0.00066	4e-05
313.15	10000	0.03	0.00068	4e-05
313.15	20000	0.03	0.00069	4e-05
323.15	10000	0	0.00056	4e-05
323.15	10000	0.03	0.00059	4e-05
323.15	20000	0.03	0.00059	4e-05
333.15	10000	0	0.00047	4e-05
333.15	10000	0.03	0.00049	4e-05
333.15	20000	0.03	0.0005	4e-05

System: carbon dioxide + water; phases: Liquid, Gas
Property: Viscosity, Pa*s (Liquid); method: OTHER
Temperature, K	Pressure, kPa	Viscosity, Pa*s	uncertainty
303.15	10000	0.00089	6e-05
303.15	20000	0.00088	6e-05
313.15	10000	0.0007	6e-05
313.15	20000	0.00071	6e-05
323.15	10000	0.00057	4e-05
323.15	20000	0.00057	4e-05
333.15	10000	0.00047	4e-05
333.15	20000	0.00048	4e-05

System: carbon dioxide + water; phases: Liquid
Fixed: Pressure, kPa = 10000
Property: Viscosity, Pa*s (Liquid); method: OTHER
Temperature, K	Mole fraction of carbon dioxide	Viscosity, Pa*s	uncertainty
303.15	0.0073	0.00081	5e-05
303.15	0.0148	0.00086	5e-05
303.15	0.0238	0.00089	6e-05
313.15	0.0107	0.00068	4e-05
313.15	0.0207	0.0007	6e-05

System: carbon dioxide + sodium chloride + water; phases: Liquid, Gas
Property: Viscosity, Pa*s (Liquid); method: OTHER
Temperature, K	Pressure, kPa	Solvent: Mass fraction of sodium chloride	Viscosity, Pa*s	uncertainty
303.15	10000	0	0.00089	6e-05
303.15	10000	0.01	0.0009	6e-05
303.15	10000	0.03	0.00093	6e-05
303.15	20000	0	0.00088	6e-05
303.15	20000	0.01	0.0009	4e-05
303.15	20000	0.03	0.00095	4e-05
313.15	10000	0	0.0007	6e-05
313.15	10000	0.01	0.00072	4e-05
313.15	10000	0.03	0.00075	4e-05
313.15	20000	0	0.00071	6e-05
313.15	20000	0.01	0.00072	4e-05
313.15	20000	0.03	0.00075	4e-05
323.15	10000	0	0.00057	4e-05
323.15	10000	0.01	0.00058	4e-05
323.15	10000	0.03	0.00061	4e-05
323.15	20000	0	0.00057	4e-05
323.15	20000	0.01	0.00058	4e-05
323.15	20000	0.03	0.0006	4e-05
333.15	10000	0	0.00047	4e-05
333.15	10000	0.01	0.00049	4e-05
333.15	10000	0.03	0.00051	4e-05
333.15	20000	0	0.00048	4e-05
333.15	20000	0.01	0.00048	4e-05
333.15	20000	0.03	0.00051	4e-05

System: carbon dioxide + sodium chloride + water; phases: Liquid
Fixed: Pressure, kPa = 10000
Property: Viscosity, Pa*s (Liquid); method: OTHER
Temperature, K	Mole fraction of carbon dioxide	Solvent: Mass fraction of sodium chloride	Viscosity, Pa*s	uncertainty
303.15	0.0073	0	0.00081	4e-05
303.15	0.0073	0.01	0.00085	4e-05
303.15	0.0108	0.03	0.00086	4e-05
303.15	0.0148	0	0.00086	4e-05
303.15	0.0148	0.01	0.00086	4e-05
303.15	0.0209	0.03	0.00093	4e-05
303.15	0.0227	0.01	0.0009	4e-05
303.15	0.0238	0	0.00089	6e-05
313.15	0.0106	0.01	0.0007	4e-05
313.15	0.0107	0	0.00068	4e-05
313.15	0.0203	0.01	0.00072	4e-05
313.15	0.0207	0	0.0007	6e-05
