Measured thermophysical data. Measurement of Vapor-Liquid Equilibria for the Binary Mixture Difluoromethane (HFC-32) + Propylene (R-1270)
Source: J. Chem. Eng. Data, 2005, 10.1021/je0497698
Compound 1: difluoromethane, CH2F2, InChI=1S/CH2F2/c2-1-3/h1H2, purity 99.8%
Compound 2: propene, C3H6, InChI=1S/C3H6/c1-3-2/h3H,1H2,2H3, purity 99.5%

System: difluoromethane; phases: Liquid, Gas
Property: Vapor or sublimation pressure, kPa (Liquid); method: EBULLIO:UFactor:8
Temperature, K	Vapor or sublimation pressure, kPa	uncertainty
273.15	816.8	2.2
283.15	1111.8	2.2
293.15	1480.2	2.4
303.15	1930.4	2.5
313.15	2478	2.8

System: propene; phases: Liquid, Gas
Property: Vapor or sublimation pressure, kPa (Liquid); method: EBULLIO:UFactor:8
Temperature, K	Vapor or sublimation pressure, kPa	uncertainty
273.15	587.8	2.1
283.15	781.2	2.1
293.15	1020.2	2.2
303.15	1308.2	2.3
313.15	1650.8	2.5

System: difluoromethane + propene; phases: Liquid, Gas
Property: Azeotropic composition: mole fraction of difluoromethane (Liquid); method: By X=Y
Temperature, K	Azeotropic composition: mole fraction of difluoromethane	uncertainty
273.15	0.652	0.005
283.15	0.674	0.005
293.15	0.696	0.005
303.15	0.717	0.005
313.15	0.745	0.005

System: difluoromethane + propene; phases: Liquid, Gas
Property: Azeotropic composition: mole fraction of difluoromethane (Liquid); method: By X=Y
Pressure, kPa	Azeotropic composition: mole fraction of difluoromethane	uncertainty
995	0.652	0.005
1322.6	0.674	0.005
1736.2	0.696	0.005
2223.8	0.717	0.005
2824	0.745	0.005

System: difluoromethane + propene; phases: Liquid, Gas
Property: Vapor or sublimation pressure, kPa (Liquid); method: EBULLIO:UFactor:8
Mole fraction of difluoromethane	Temperature, K	Vapor or sublimation pressure, kPa	uncertainty
0	273.15	587.8	18.5
0	283.15	781.2	24.5
0	293.15	1020.2	31.9
0	303.15	1308.2	40.9
0	313.15	1650.8	51.5
0.071	293.15	1210.2	38.8
0.078	283.15	944.8	30.3
0.08	313.15	1931.4	61.5
0.089	273.15	732.8	23.7
0.102	303.15	1621.4	51.7
0.153	303.15	1724.6	54.3
0.169	293.15	1386	43.8
0.176	273.15	824.8	26.1
0.185	283.15	1093.2	34.6
0.199	313.15	2272.4	71.4
0.244	293.15	1492.8	46.9
0.251	303.15	1899.4	59.5
0.262	273.15	882.8	27.8
0.263	283.15	1181	37.1
0.299	313.15	2466.4	77.1
0.311	293.15	1557.2	48.7
0.322	303.15	1993.4	62.2
0.326	283.15	1226.2	38.4
0.338	273.15	924.4	29
0.375	313.15	2571.8	80.2
0.387	293.15	1618	50.6
0.407	283.15	1270.2	39.7
0.42	273.15	956.8	30
0.425	303.15	2096.6	65.4
0.434	313.15	2646.5	82.5
0.478	293.15	1675.2	52.3
0.48	313.15	2693	83.8
0.49	273.15	976.4	30.6
0.502	283.15	1306.4	40.8
0.512	303.15	2159.2	67.3
0.55	313.15	2744.7	85.4
0.558	273.15	987.8	30.9
0.567	283.15	1308.6	40.9
0.569	293.15	1703.2	53.1
0.599	303.15	2194.2	68.4
0.608	313.15	2778	86.4
0.61	293.15	1713.2	53.4
0.615	283.15	1310.6	40.9
0.625	273.15	992.8	31.1
0.638	303.15	2205.6	68.7
0.644	283.15	1318.2	41.2
0.651	293.15	1719.6	53.6
0.652	273.15	995	31.2
0.665	273.15	994.8	31.1
0.673	293.15	1724	53.8
0.674	273.15	993	31.1
0.674	283.15	1322.6	41.3
0.675	313.15	2796	87
0.676	303.15	2207.6	68.7
0.696	293.15	1736.2	54.1
0.703	283.15	1315	41.1
0.705	313.15	2797	87
0.709	303.15	2208.4	69.8
0.71	273.15	991.4	31
0.715	313.15	2799	87.1
0.717	303.15	2223.8	70.6
0.732	293.15	1715.6	53.5
0.745	313.15	2824	87.8
0.753	283.15	1308.2	40.9
0.754	293.15	1715.4	53.5
0.763	303.15	2200.4	68.5
0.768	273.15	983	30.8
0.772	313.15	2796.5	87
0.776	293.15	1706.4	53.3
0.787	303.15	2192.4	68.4
0.802	283.15	1296	40.5
0.817	303.15	2176.6	67.8
0.827	273.15	967	30.3
0.827	313.15	2767	86.1
0.837	293.15	1681.6	52.5
0.843	283.15	1279.2	40
0.859	303.15	2142.2	66.8
0.879	273.15	944.6	29.7
0.882	283.15	1256.6	39.3
0.89	313.15	2704.5	84.3
0.893	293.15	1638.8	51.4
0.899	303.15	2101	65.8
0.911	283.15	1233	38.9
0.923	273.15	913.6	29
0.932	313.15	2642	82.6
1	273.15	816.8	25.6
1	283.15	1111.8	34.8
1	293.15	1480.2	46.2
1	303.15	1930.4	60.1
1	313.15	2478	77.1

System: difluoromethane + propene; phases: Gas, Liquid
Property: Mole fraction of difluoromethane (Gas); method: CHROM:UFactor:4
Mole fraction of difluoromethane	Temperature, K	Mole fraction of difluoromethane	uncertainty
0	273.15	0	
0	283.15	0	
0	293.15	0	
0	303.15	0	
0	313.15	0	
0.071	293.15	0.184	0.011
0.078	283.15	0.207	0.011
0.08	313.15	0.173	0.01
0.089	273.15	0.24	0.012
0.102	303.15	0.224	0.012
0.153	303.15	0.294	0.012
0.169	293.15	0.332	0.013
0.176	273.15	0.363	0.014
0.185	283.15	0.361	0.014
0.199	313.15	0.339	0.014
0.244	293.15	0.403	0.015
0.251	303.15	0.394	0.015
0.262	273.15	0.443	0.017
0.263	283.15	0.438	0.017
0.299	313.15	0.436	0.017
0.311	293.15	0.458	0.017
0.322	303.15	0.45	0.017
0.326	283.15	0.484	0.018
0.338	273.15	0.497	0.019
0.375	313.15	0.492	0.019
0.387	293.15	0.511	0.018
0.407	283.15	0.533	0.018
0.42	273.15	0.544	0.017
0.425	303.15	0.527	0.018
0.434	313.15	0.539	0.017
0.478	293.15	0.569	0.016
0.48	313.15	0.571	0.016
0.49	273.15	0.575	0.016
0.502	283.15	0.584	0.016
0.512	303.15	0.587	0.016
0.55	313.15	0.618	0.014
0.558	273.15	0.598	0.015
0.567	283.15	0.618	0.014
0.569	293.15	0.623	0.014
0.599	303.15	0.643	0.014
0.608	313.15	0.654	0.013
0.61	293.15	0.645	0.013
0.615	283.15	0.643	0.013
0.625	273.15	0.639	0.014
0.638	303.15	0.668	0.013
0.644	283.15	0.658	0.013
0.651	293.15	0.67	0.013
0.652	273.15	0.653	0.013
0.665	273.15	0.661	0.013
0.673	293.15	0.68	0.012
0.674	273.15	0.668	0.013
0.674	283.15	0.674	0.012
0.675	313.15	0.696	0.012
0.676	303.15	0.693	0.012
0.696	293.15	0.697	0.012
0.703	283.15	0.691	0.012
0.705	313.15	0.715	0.011
0.709	303.15	0.711	0.011
0.71	273.15	0.684	0.012
0.715	313.15	0.723	0.011
0.717	303.15	0.716	0.011
0.732	293.15	0.716	0.011
0.745	313.15	0.745	0.01
0.753	283.15	0.721	0.011
0.754	293.15	0.731	0.01
0.763	303.15	0.746	0.01
0.768	273.15	0.718	0.011
0.772	313.15	0.765	0.009
0.776	293.15	0.747	0.01
0.787	303.15	0.771	0.009
0.802	283.15	0.756	0.01
0.817	303.15	0.794	0.009
0.827	273.15	0.76	0.01
0.827	313.15	0.806	0.008
0.837	293.15	0.792	0.009
0.843	283.15	0.789	0.009
0.859	303.15	0.819	0.008
0.879	273.15	0.804	0.008
0.882	283.15	0.824	0.008
0.89	313.15	0.863	0.007
0.893	293.15	0.846	0.008
0.899	303.15	0.868	0.008
0.911	283.15	0.855	0.009
0.923	273.15	0.833	0.01
0.932	313.15	0.908	0.007
1	273.15	1	
1	283.15	1	
1	293.15	1	
1	303.15	1	
1	313.15	1	
