Measured thermophysical data. Solubility of Cefazolin Sodium Pentahydrate in Aqueous 2-Propanol Mixtures
Source: J. Chem. Eng. Data, 2005, 10.1021/je049549u
Compound 1: cefazolin sodium pentahydrate, C14H23N8NaO9S3, InChI=1S/C14H14N8O4S3.Na.5H2O/c1-6-17-18-14(29-6)28-4-7-3-27-12-9(11(24)22(12)10(7)13(25)26)16-8(23)2-21-5-15-19-20-21;;;;;;/h5,9,12H,2-4H2,1H3,(H,16,23)(H,25,26);;5*1H2/q;+1;;;;;/p-1/t9-,12-;;;;;;/m1....../s1, purity 99.6%
Compound 2: propan-2-ol, C3H8O, InChI=1S/C3H8O/c1-3(2)4/h3-4H,1-2H3, purity 99%
Compound 3: water, H2O, InChI=1S/H2O/h1H2

System: propan-2-ol + cefazolin sodium pentahydrate; phases: Liquid, Crystal
Fixed: Pressure, kPa = 101
Property: Mole fraction of cefazolin sodium pentahydrate (Liquid); method: laser monitoring observation
Temperature, K	Mole fraction of cefazolin sodium pentahydrate	uncertainty
273.15	1.4e-05	1e-06
278.15	1.8e-05	2e-06
283.15	2.5e-05	2e-06
288.15	3.3e-05	3e-06
293.15	5e-05	4e-06
298.15	7.6e-05	6e-06
303.15	0.000114	9e-06
308.15	0.00015	1.2e-05

System: water + cefazolin sodium pentahydrate; phases: Liquid, Crystal
Fixed: Pressure, kPa = 101
Property: Mole fraction of cefazolin sodium pentahydrate (Liquid); method: laser monitoring observation
Temperature, K	Mole fraction of cefazolin sodium pentahydrate	uncertainty
273.15	0.005527	0.000443
278.15	0.006575	0.000526
283.15	0.007712	0.000618
288.15	0.01017	0.000816
293.15	0.01355	0.001086
298.15	0.01692	0.001356
303.15	0.02211	0.001771
308.15	0.02644	0.002117

System: propan-2-ol + water + cefazolin sodium pentahydrate; phases: Liquid, Crystal
Fixed: Pressure, kPa = 101
Property: Mole fraction of cefazolin sodium pentahydrate (Liquid); method: laser monitoring observation
Temperature, K	Solvent: Mole fraction of water	Mole fraction of cefazolin sodium pentahydrate	uncertainty
273.15	0	1.4e-05	1e-06
273.15	0.1036	3.6e-05	3e-06
273.15	0.2046	6.4e-05	5e-06
273.15	0.3043	9.3e-05	8e-06
273.15	0.439	0.00016	1.3e-05
273.15	0.4997	0.000209	1.8e-05
273.15	0.6016	0.000381	3.5e-05
273.15	0.6942	0.000759	7.7e-05
273.15	0.801	0.001747	0.000176
273.15	0.9048	0.003597	0.000335
273.15	1	0.005527	0.000443
278.15	0	1.8e-05	2e-06
278.15	0.1036	4.9e-05	4e-06
278.15	0.2046	8.7e-05	7e-06
278.15	0.3043	0.00013	1.1e-05
278.15	0.439	0.000212	1.7e-05
278.15	0.4997	0.000312	2.7e-05
278.15	0.6016	0.000528	4.7e-05
278.15	0.6942	0.000996	9.6e-05
278.15	0.801	0.002059	0.000201
278.15	0.9048	0.004045	0.000383
278.15	1	0.006575	0.000526
283.15	0	2.5e-05	2e-06
283.15	0.1036	6.6e-05	5e-06
283.15	0.2046	0.000131	1.1e-05
283.15	0.3043	0.000185	1.5e-05
283.15	0.439	0.000306	2.5e-05
283.15	0.4997	0.000427	3.7e-05
283.15	0.6016	0.000729	6.5e-05
283.15	0.6942	0.001318	0.000125
283.15	0.801	0.002615	0.000252
283.15	0.9048	0.004994	0.000463
283.15	1	0.007712	0.000618
288.15	0	3.3e-05	3e-06
288.15	0.1036	8.6e-05	7e-06
288.15	0.2046	0.000155	1.3e-05
288.15	0.3043	0.000239	1.9e-05
288.15	0.439	0.000423	3.5e-05
288.15	0.4997	0.000568	4.9e-05
288.15	0.6016	0.001003	8.9e-05
288.15	0.6942	0.001809	0.000173
288.15	0.801	0.003698	0.000355
288.15	0.9048	0.006924	0.000629
288.15	1	0.01017	0.000816
293.15	0	5e-05	4e-06
293.15	0.1036	0.00011	9e-06
293.15	0.2046	0.000205	1.7e-05
293.15	0.3043	0.000313	2.5e-05
293.15	0.439	0.000526	4.3e-05
293.15	0.4997	0.000721	6.3e-05
293.15	0.6016	0.001303	0.000117
293.15	0.6942	0.002454	0.000238
293.15	0.801	0.005113	0.000491
293.15	0.9048	0.009565	0.000858
293.15	1	0.01355	0.001086
298.15	0	7.6e-05	6e-06
298.15	0.1036	0.000158	1.3e-05
298.15	0.2046	0.000257	2.1e-05
298.15	0.3043	0.000375	3.1e-05
298.15	0.439	0.000705	5.8e-05
298.15	0.4997	0.00092	8.1e-05
298.15	0.6016	0.00173	0.000159
298.15	0.6942	0.003441	0.00033
298.15	0.801	0.006884	0.000643
298.15	0.9048	0.01213	0.001075
298.15	1	0.01692	0.001356
303.15	0	0.000114	9e-06
303.15	0.1036	0.000225	1.8e-05
303.15	0.2046	0.00036	2.9e-05
303.15	0.3043	0.000538	4.4e-05
303.15	0.439	0.00098	8.1e-05
303.15	0.4997	0.001349	0.000118
303.15	0.6016	0.002488	0.000223
303.15	0.6942	0.00457	0.000436
303.15	0.801	0.009175	0.00085
303.15	0.9048	0.01583	0.001397
303.15	1	0.02211	0.001771
308.15	0	0.00015	1.2e-05
308.15	0.1036	0.00036	2.9e-05
308.15	0.2046	0.000531	4.3e-05
308.15	0.3043	0.000827	6.8e-05
308.15	0.439	0.001491	0.000123
308.15	0.4997	0.002178	0.000192
308.15	0.6016	0.003997	0.00035
308.15	0.6942	0.006658	0.000591
308.15	0.801	0.01117	0.000995
308.15	0.9048	0.01806	0.001603
308.15	1	0.02644	0.002117
