Measured thermophysical data. Density, Viscosity and Thermal Conductivity of Aqueous Solutions of Propylene Glycol, Dipropylene Glycol, and Tripropylene Glycol between 290 K and 460 K
Source: J. Chem. Eng. Data, 2004, 10.1021/je049960h
Compound 1: 1,2-propanediol, C3H8O2, InChI=1S/C3H8O2/c1-3(5)2-4/h3-5H,2H2,1H3, purity 99.5%
Compound 2: 4-oxa-1,7-heptanediol, C6H14O3, InChI=1S/C6H14O3/c7-3-1-5-9-6-2-4-8/h7-8H,1-6H2, purity 99%
Compound 3: 2-[2-(2-hydroxypropoxy)propoxy]-1-propanol, C9H20O4, InChI=1S/C9H20O4/c1-7(11)5-12-9(3)6-13-8(2)4-10/h7-11H,4-6H2,1-3H3, purity 97%
Compound 4: water, H2O, InChI=1S/H2O/h1H2

System: 1,2-propanediol; phases: Liquid
Fixed: Pressure, kPa = 101.325
Property: Thermal conductivity, W/m/K (Liquid); method: Hot wire method
Temperature, K	Thermal conductivity, W/m/K	uncertainty
299.1	0.196	0.004
313.6	0.195	0.004
332.9	0.195	0.004
352.3	0.194	0.004
371.6	0.193	0.004
391.1	0.192	0.004
411.4	0.19	0.004
430.4	0.187	0.004
450.8	0.183	0.004

System: 1,2-propanediol; phases: Liquid
Fixed: Pressure, kPa = 101.325
Property: Viscosity, Pa*s (Liquid); method: Capillary tube (Ostwald; Ubbelohde) method
Temperature, K	Viscosity, Pa*s	uncertainty
297.25	0.0464	0.001
302.55	0.034	0.0007
317.1	0.0164	0.0004
332.3	0.00875	0.00018
347.4	0.00526	0.00011
362.05	0.00342	7e-05
376.45	0.00234	5e-05
391.05	0.00167	4e-05
406.05	0.00127	3e-05
420.85	0.000982	2.1e-05

System: 1,2-propanediol; phases: Liquid
Fixed: Pressure, kPa = 101.325
Property: Mass density, kg/m3 (Liquid); method: Pycnometric method
Temperature, K	Mass density, kg/m3	uncertainty
298.85	1033	2
318.05	1018	2
339	1003	2
359.4	986.1	2
380.95	967.6	2
399.6	951.2	2
420.2	931.7	1.9
440.35	912.2	1.9

System: 4-oxa-1,7-heptanediol; phases: Liquid
Fixed: Pressure, kPa = 101.325
Property: Thermal conductivity, W/m/K (Liquid); method: Hot wire method
Temperature, K	Thermal conductivity, W/m/K	uncertainty
298.2	0.156	0.003
309.8	0.157	0.003
316.9	0.156	0.003
347.4	0.156	0.003
363	0.156	0.003
377.6	0.155	0.003
391.6	0.154	0.003
405.7	0.153	0.003
420.6	0.151	0.003
435.1	0.149	0.003

System: 4-oxa-1,7-heptanediol; phases: Liquid
Fixed: Pressure, kPa = 101.325
Property: Viscosity, Pa*s (Liquid); method: Capillary tube (Ostwald; Ubbelohde) method
Temperature, K	Viscosity, Pa*s	uncertainty
297.42	0.0815	0.0018
313.07	0.0298	0.0007
333.1	0.0111	0.0002
353.1	0.00524	0.00011
372.25	0.003	6e-05
391.45	0.0019	4e-05
408.35	0.00136	3e-05
420.3	0.0011	2e-05
428.3	0.00097	2.1e-05

System: 4-oxa-1,7-heptanediol; phases: Liquid
Fixed: Pressure, kPa = 101.325
Property: Mass density, kg/m3 (Liquid); method: Pycnometric method
Temperature, K	Mass density, kg/m3	uncertainty
297.45	1020	2
313.05	1008	2
333.1	992.4	2.1
353.1	976.1	2
372.25	960.3	2
391.45	943.1	2
408.35	928.1	2
420.3	916.9	2
428.3	909.6	1.9

System: 2-[2-(2-hydroxypropoxy)propoxy]-1-propanol; phases: Liquid
Fixed: Pressure, kPa = 101.325
Property: Thermal conductivity, W/m/K (Liquid); method: Hot wire method
Temperature, K	Thermal conductivity, W/m/K	uncertainty
298.1	0.152	0.003
326.1	0.152	0.003
351.1	0.15	0.003
376.2	0.148	0.003
399.4	0.145	0.003
424.9	0.14	0.003
449.6	0.135	0.003

System: 2-[2-(2-hydroxypropoxy)propoxy]-1-propanol; phases: Liquid
Fixed: Pressure, kPa = 101.325
Property: Viscosity, Pa*s (Liquid); method: Capillary tube (Ostwald; Ubbelohde) method
Temperature, K	Viscosity, Pa*s	uncertainty
294.82	0.0694	0.0018
313.05	0.0236	0.0006
333.1	0.00964	0.00025
353.1	0.00485	0.00012
372.15	0.00291	7e-05
391.5	0.00191	5e-05
411.35	0.00133	3e-05
428.2	0.00103	3e-05

System: 2-[2-(2-hydroxypropoxy)propoxy]-1-propanol; phases: Liquid
Fixed: Pressure, kPa = 101.325
Property: Mass density, kg/m3 (Liquid); method: Pycnometric method
Temperature, K	Mass density, kg/m3	uncertainty
295.01	1017	3
313.05	1003	3
333.1	986.4	2.5
353.1	969.9	2.5
372.15	953.5	2.4
391.5	936.4	2.4
411.35	918.7	2.4
428.2	903.3	2.3

System: 1,2-propanediol + water; phases: Liquid
Fixed: Pressure, kPa = 101.3
Property: Thermal conductivity, W/m/K (Liquid); method: Hot wire method
Mole fraction of 1,2-propanediol	Temperature, K	Thermal conductivity, W/m/K	uncertainty
0.25	299.6	0.322	0.007
0.25	322.1	0.337	0.007
0.25	347.2	0.348	0.007
0.25	372.1	0.353	0.007
0.25	396.4	0.353	0.007
0.25	420.4	0.347	0.007
0.25	440.4	0.338	0.007
0.5	298.9	0.243	0.005
0.5	324.2	0.25	0.005
0.5	349.1	0.254	0.005
0.5	372.1	0.255	0.005
0.5	397.1	0.255	0.005
0.5	420.2	0.253	0.005
0.5	440.8	0.249	0.005
0.75	298.5	0.212	0.004
0.75	323.7	0.214	0.004
0.75	348.2	0.215	0.004
0.75	372.8	0.215	0.004
0.75	396	0.214	0.004
0.75	420.8	0.212	0.004
0.75	442	0.21	0.004

System: 1,2-propanediol + water; phases: Liquid
Fixed: Pressure, kPa = 101.3
Property: Viscosity, Pa*s (Liquid); method: Capillary tube (Ostwald; Ubbelohde) method
Mole fraction of 1,2-propanediol	Temperature, K	Viscosity, Pa*s	uncertainty
0.25	296.65	0.00739	0.00015
0.25	313.05	0.0039	8e-05
0.25	333.1	0.00212	4e-05
0.25	353.05	0.00132	3e-05
0.25	363.3	0.00109	2e-05
0.25	373.45	0.000915	1.9e-05
0.25	384.15	0.000778	1.6e-05
0.25	394.55	0.000657	1.4e-05
0.25	411.75	0.000525	1.1e-05
0.25	429.55	0.000426	9e-06
0.25	449.55	0.000344	7e-06
0.5	297.05	0.0175	0.0004
0.5	313.05	0.00847	0.00018
0.5	333.1	0.00414	9e-05
0.5	353.1	0.00236	5e-05
0.5	363.4	0.00184	4e-05
0.5	383.5	0.00122	3e-05
0.5	398.75	0.000952	2e-05
0.5	411.45	0.000793	1.7e-05
0.5	428.95	0.000618	1.3e-05
0.5	443.95	0.000517	1.1e-05
0.75	296.8	0.0324	0.0007
0.75	313.05	0.0144	0.0003
0.75	333.1	0.00646	0.00014
0.75	353.05	0.00345	7e-05
0.75	363.35	0.00266	6e-05
0.75	378.35	0.00187	4e-05
0.75	388.5	0.00152	3e-05
0.75	398.3	0.00127	3e-05
0.75	408.15	0.00108	2e-05

System: 1,2-propanediol + water; phases: Liquid
Fixed: Pressure, kPa = 101.3
Property: Mass density, kg/m3 (Liquid); method: Pycnometric method
Mole fraction of 1,2-propanediol	Temperature, K	Mass density, kg/m3	uncertainty
0.25	296.65	1040	2
0.25	313.05	1028	2
0.25	333.1	1013	2
0.25	353.05	996.5	2
0.25	363.3	988	2
0.25	373.45	979.3	2
0.25	381.55	971.3	2
0.25	390.55	963.4	2
0.25	407.75	947.5	2
0.25	424.55	930.2	1.9
0.25	444.55	908.3	1.9
0.5	297.05	1042	2
0.5	313.05	1029	2
0.5	333.1	1013	2
0.5	353.05	996.8	2
0.5	363.4	987.9	2
0.5	383.5	970.3	2
0.5	395.75	958.1	2
0.5	407.45	947.1	2
0.5	424.95	929.6	1.9
0.5	439.95	914.7	1.9
0.75	296.8	1038	2
0.75	313.05	1026	2
0.75	333.1	1010	2
0.75	353.05	993.8	2
0.75	363.35	985.1	2
0.75	378.35	971.6	2
0.75	388.5	963.2	2
0.75	398.3	954.2	2
0.75	408.15	944.7	2
0.75	411.75	940.7	2
0.75	428.15	924.7	1.9
0.75	441.45	912.7	1.9

System: water + 4-oxa-1,7-heptanediol; phases: Liquid
Fixed: Pressure, kPa = 101.3
Property: Thermal conductivity, W/m/K (Liquid); method: Hot wire method
Mole fraction of 4-oxa-1,7-heptanediol	Temperature, K	Thermal conductivity, W/m/K	uncertainty
0.25	297.8	0.248	0.005
0.25	323.9	0.256	0.005
0.25	349.9	0.26	0.005
0.25	374	0.264	0.005
0.25	398.6	0.263	0.005
0.25	423.8	0.264	0.005
0.5	297.9	0.19	0.004
0.5	324.9	0.193	0.004
0.5	349.3	0.195	0.004
0.5	374.9	0.196	0.004
0.5	398.9	0.195	0.004
0.5	424.4	0.193	0.004
0.5	448.8	0.187	0.004
0.75	298.4	0.167	0.003
0.75	324.8	0.169	0.003
0.75	350.1	0.167	0.003
0.75	375.1	0.169	0.003
0.75	399	0.169	0.003
0.75	424.3	0.167	0.003
0.75	448.9	0.163	0.003

System: water + 4-oxa-1,7-heptanediol; phases: Liquid
Fixed: Pressure, kPa = 101.3
Property: Viscosity, Pa*s (Liquid); method: Capillary tube (Ostwald; Ubbelohde) method
Mole fraction of 4-oxa-1,7-heptanediol	Temperature, K	Viscosity, Pa*s	uncertainty
0.25	295.05	0.0223	0.0005
0.25	313.05	0.00914	0.00019
0.25	333.1	0.0043	9e-05
0.25	353.1	0.00242	5e-05
0.25	368.25	0.00172	4e-05
0.25	378.75	0.00141	3e-05
0.25	397.45	0.000983	2.1e-05
0.25	411.35	0.000803	1.7e-05
0.25	429.75	0.00063	1.3e-05
0.25	447.65	0.000512	1.1e-05
0.5	293.4	0.0599	0.0012
0.5	313.05	0.0186	0.0004
0.5	333.1	0.00768	0.00016
0.5	353.1	0.00389	8e-05
0.5	372.2	0.00233	5e-05
0.5	382.5	0.00185	4e-05
0.5	392.4	0.00153	3e-05
0.5	395.75	0.00145	3e-05
0.5	410.85	0.00111	2e-05
0.5	429.35	0.000829	1.7e-05
0.5	448.25	0.00064	1.4e-05
0.75	293.9	0.0885	0.002
0.75	313.05	0.0258	0.0006
0.75	333.1	0.00971	0.00021
0.75	353.1	0.00471	0.0001
0.75	372.2	0.00273	6e-05
0.75	382.5	0.00214	5e-05
0.75	392.3	0.00172	4e-05
0.75	402.3	0.00143	3e-05
0.75	406.85	0.00133	3e-05
0.75	421.35	0.00105	2e-05
0.75	440.25	0.000795	1.7e-05
0.75	458.15	0.000641	1.4e-05

System: water + 4-oxa-1,7-heptanediol; phases: Liquid
Fixed: Pressure, kPa = 101.3
Property: Mass density, kg/m3 (Liquid); method: Pycnometric method
Mole fraction of 4-oxa-1,7-heptanediol	Temperature, K	Mass density, kg/m3	uncertainty
0.25	295.05	1040	2
0.25	313.05	1026	2
0.25	333.1	1010	2
0.25	353.1	992.8	2
0.25	368.25	979.2	2
0.25	395.95	953.1	2
0.25	408.35	941.3	1.9
0.25	426.75	922.7	1.9
0.25	444.65	904.1	1.9
0.5	293.4	1034	2
0.5	313.05	1019	2
0.5	333.1	1003	2
0.5	353.1	986	2
0.5	372.2	969.5	2
0.5	382.5	960.1	2
0.5	392.4	951	2
0.5	394.25	949.4	2
0.5	407.85	936.8	1.9
0.5	426.35	918.8	1.9
0.5	445.25	899.1	1.9
0.75	293.9	1028	2
0.75	313.05	1013	2
0.75	333.1	997	2.1
0.75	353.1	980.5	2
0.75	372.2	964.3	2
0.75	382.5	955.2	2
0.75	392.3	946.2	2
0.75	402.3	936.9	2
0.75	405.35	934.5	2
0.75	418.35	923	1.9
0.75	437.25	904.2	1.9
0.75	455.15	887.2	1.9

System: water + 2-[2-(2-hydroxypropoxy)propoxy]-1-propanol; phases: Liquid
Fixed: Pressure, kPa = 101.3
Property: Thermal conductivity, W/m/K (Liquid); method: Hot wire method
Mole fraction of 2-[2-(2-hydroxypropoxy)propoxy]-1-propanol	Temperature, K	Thermal conductivity, W/m/K	uncertainty
0.25	297.3	0.215	0.004
0.25	324.3	0.22	0.005
0.25	349.7	0.223	0.005
0.25	374.1	0.224	0.005
0.25	398.9	0.222	0.005
0.25	423	0.22	0.005
0.25	448.2	0.213	0.004
0.5	298.1	0.174	0.004
0.5	325.8	0.174	0.004
0.5	350.2	0.175	0.004
0.5	375.1	0.172	0.004
0.5	399	0.172	0.004
0.5	424.5	0.168	0.004
0.5	448.3	0.164	0.003
0.75	297.7	0.157	0.003
0.75	325.2	0.156	0.003
0.75	349.1	0.156	0.003
0.75	375.5	0.155	0.003
0.75	399.4	0.152	0.003
0.75	422.5	0.15	0.003
0.75	449	0.144	0.003

System: water + 2-[2-(2-hydroxypropoxy)propoxy]-1-propanol; phases: Liquid
Fixed: Pressure, kPa = 101.3
Property: Viscosity, Pa*s (Liquid); method: Capillary tube (Ostwald; Ubbelohde) method
Mole fraction of 2-[2-(2-hydroxypropoxy)propoxy]-1-propanol	Temperature, K	Viscosity, Pa*s	uncertainty
0.25	295.4	0.0367	0.0008
0.25	313.05	0.0142	0.0003
0.25	333.05	0.00627	0.00013
0.25	353.05	0.00336	7e-05
0.25	368.25	0.0023	5e-05
0.25	378.15	0.00184	4e-05
0.25	394.55	0.00135	3e-05
0.25	412.05	0.00101	2e-05
0.25	429.65	0.000785	1.7e-05
0.25	449.15	0.000615	1.3e-05
0.5	294.8	0.0666	0.0015
0.5	313.05	0.0224	0.0005
0.5	333.1	0.00912	0.0002
0.5	353.05	0.0045	0.0001
0.5	368.25	0.00296	7e-05
0.5	378.5	0.00232	5e-05
0.5	388.4	0.00188	4e-05
0.5	395.15	0.00167	4e-05
0.5	411.65	0.00126	3e-05
0.5	429.75	0.000952	2.1e-05
0.5	449.85	0.000738	1.6e-05
0.75	295.35	0.0712	0.0017
0.75	313.05	0.0246	0.0006
0.75	333.1	0.00992	0.00024
0.75	353.1	0.00493	0.00012
0.75	368.25	0.00321	8e-05
0.75	378.55	0.00253	6e-05
0.75	388.4	0.00203	5e-05
0.75	398.35	0.00166	4e-05
0.75	408.3	0.00144	3e-05
0.75	412.45	0.00131	3e-05
0.75	428.25	0.00102	2e-05
0.75	446.55	0.000791	1.9e-05

System: water + 2-[2-(2-hydroxypropoxy)propoxy]-1-propanol; phases: Liquid
Fixed: Pressure, kPa = 101.3
Property: Mass density, kg/m3 (Liquid); method: Pycnometric method
Mole fraction of 2-[2-(2-hydroxypropoxy)propoxy]-1-propanol	Temperature, K	Mass density, kg/m3	uncertainty
0.25	295.4	1037	2
0.25	313.05	1023	2
0.25	333.05	1006	2
0.25	353.05	989	2.1
0.25	368.25	975.3	2
0.25	378.15	966.7	2
0.25	393.05	953	2
0.25	409.05	936.6	2
0.25	426.65	918.9	1.9
0.25	446.15	897.8	1.9
0.5	294.8	1028	2
0.5	313.05	1013	2
0.5	333.1	996.8	2.2
0.5	353.05	979.9	2.1
0.5	368.25	966.8	2.1
0.5	378.5	957.4	2.1
0.5	388.4	947.8	2.1
0.5	394.05	944	2.1
0.5	408.65	930.6	2.1
0.5	426.75	913.2	2
0.5	446.85	892.5	2
0.75	295.35	1021	2
0.75	313.05	1007	2
0.75	333.1	990.4	2.3
0.75	353.1	973.7	2.3
0.75	368.25	960.5	2.3
0.75	378.55	951.3	2.2
0.75	388.4	942.4	2.2
0.75	398.35	933.3	2.2
0.75	408.3	924.3	2.2
0.75	414.15	918.6	2.2
0.75	429.25	904.7	2.2
0.75	445	889.5	2.1
