Measured thermophysical data. Vapor Pressure Determination of the Aliphatic C5 to C8 1-Alcohols
Source: J. Chem. Eng. Data, 2006, 10.1021/je049600u
Compound 1: pentan-1-ol, C5H12O, InChI=1S/C5H12O/c1-2-3-4-5-6/h6H,2-5H2,1H3
Compound 2: hexan-1-ol, C6H14O, InChI=1S/C6H14O/c1-2-3-4-5-6-7/h7H,2-6H2,1H3
Compound 3: heptan-1-ol, C7H16O, InChI=1S/C7H16O/c1-2-3-4-5-6-7-8/h8H,2-7H2,1H3
Compound 4: octan-1-ol, C8H18O, InChI=1S/C8H18O/c1-2-3-4-5-6-7-8-9/h9H,2-8H2,1H3

System: pentan-1-ol; phases: Liquid, Gas
Property: Vapor or sublimation pressure, kPa (Liquid); method: Closed cell (Static) method
Temperature, K	Vapor or sublimation pressure, kPa	uncertainty
298.15	0.337	0.011
303.15	0.488	0.011
308.15	0.694	0.012
313.15	0.969	0.013
318.15	1.359	0.014
323.15	1.866	0.014
328.15	2.528	0.015
333.15	3.381	0.016
338.15	4.467	0.017
343.15	5.873	0.02
348.15	7.633	0.025
353.15	9.828	0.03
358.15	12.52	0.037
363.15	15.808	0.046
368.15	19.861	0.056
373.15	24.685	0.068
378.15	30.467	0.083
383.15	37.357	0.1
388.15	45.451	0.121
393.15	54.875	0.145
398.15	65.845	0.172
403.15	78.45	0.203

System: hexan-1-ol; phases: Liquid, Gas
Property: Vapor or sublimation pressure, kPa (Liquid); method: Closed cell (Static) method
Temperature, K	Vapor or sublimation pressure, kPa	uncertainty
298.15	0.115	0.01
303.15	0.171	0.01
308.15	0.25	0.01
313.15	0.362	0.011
318.15	0.517	0.011
323.15	0.729	0.012
328.15	1.015	0.013
333.15	1.395	0.014
338.15	1.895	0.014
343.15	2.544	0.015
348.15	3.377	0.016
353.15	4.433	0.017
358.15	5.759	0.02
363.15	7.408	0.024
368.15	9.436	0.029
373.15	11.911	0.036
378.15	14.905	0.043
383.15	18.5	0.052
388.15	22.786	0.063
393.15	27.863	0.076
398.15	33.842	0.091
403.15	40.846	0.109
408.15	49.015	0.13
413.15	58.504	0.153
418.15	69.487	0.181
423.15	82.163	0.212

System: heptan-1-ol; phases: Liquid, Gas
Property: Vapor or sublimation pressure, kPa (Liquid); method: Closed cell (Static) method
Temperature, K	Vapor or sublimation pressure, kPa	uncertainty
298.15	0.029	0.01
303.15	0.045	0.01
308.15	0.069	0.01
313.15	0.104	0.01
318.15	0.156	0.01
323.15	0.23	0.01
328.15	0.335	0.011
333.15	0.481	0.011
338.15	0.681	0.012
343.15	0.951	0.013
348.15	1.312	0.014
353.15	1.787	0.014
358.15	2.403	0.015
363.15	3.194	0.016
368.15	4.196	0.017
373.15	5.451	0.019
378.15	7.005	0.023
383.15	8.91	0.028
388.15	11.223	0.034
393.15	14.002	0.041
398.15	17.315	0.049
403.15	21.23	0.059
408.15	25.822	0.07
413.15	31.17	0.084
418.15	37.361	0.099
423.15	44.485	0.117
428.15	52.641	0.138
433.15	61.936	0.161
438.15	72.487	0.187
443.15	84.398	0.216

System: octan-1-ol; phases: Liquid, Gas
Property: Vapor or sublimation pressure, kPa (Liquid); method: Closed cell (Static) method
Temperature, K	Vapor or sublimation pressure, kPa	uncertainty
298.15	0.011	0.01
303.15	0.017	0.01
308.15	0.027	0.01
313.15	0.041	0.01
318.15	0.063	0.01
323.15	0.093	0.01
328.15	0.138	0.01
333.15	0.2	0.01
338.15	0.287	0.01
343.15	0.406	0.011
348.15	0.569	0.011
353.15	0.786	0.012
358.15	1.072	0.013
363.15	1.446	0.014
368.15	1.929	0.014
373.15	2.544	0.015
378.15	3.319	0.016
383.15	4.285	0.017
388.15	5.479	0.019
393.15	6.938	0.023
398.15	8.706	0.027
403.15	10.83	0.033
408.15	13.362	0.039
413.15	16.357	0.046
418.15	19.876	0.055
423.15	23.986	0.066
428.15	28.758	0.078
433.15	34.271	0.091
438.15	40.612	0.107
443.15	47.876	0.125
448.15	56.167	0.146
453.15	65.454	0.169
458.15	75.948	0.195
463.15	87.733	0.224
