Measured thermophysical data. Partial Molar Volumes and Viscosities of Some r-Amino Acids in Micellar Solutions of Sodium Caprylate
Source: J. Chem. Eng. Data, 2004, 10.1021/je049927v
Compound 1: 2-aminoacetic acid, C2H5NO2, InChI=1S/C2H5NO2/c3-1-2(4)5/h1,3H2,(H,4,5)
Compound 2: (.+-.)-.alpha.-aminobutyric acid, C4H9NO2, InChI=1S/C4H9NO2/c1-2-3(5)4(6)7/h3H,2,5H2,1H3,(H,6,7)
Compound 3: DL-2-amino-3-methylbutanoic acid, C5H11NO2, InChI=1S/C5H11NO2/c1-3(2)4(6)5(7)8/h3-4H,6H2,1-2H3,(H,7,8)
Compound 4: (.+-.)-leucine, C6H13NO2, InChI=1S/C6H13NO2/c1-4(2)3-5(7)6(8)9/h4-5H,3,7H2,1-2H3,(H,8,9)
Compound 5: DL-2-aminopropanoic acid, C3H7NO2, InChI=1S/C3H7NO2/c1-2(4)3(5)6/h2H,4H2,1H3,(H,5,6)
Compound 6: sodium octanoate, C8H15NaO2, InChI=1S/C8H16O2.Na/c1-2-3-4-5-6-7-8(9)10;/h2-7H2,1H3,(H,9,10);/q;+1/p-1
Compound 7: water, H2O, InChI=1S/H2O/h1H2

System: 2-aminoacetic acid + sodium octanoate + water; phases: Liquid
Fixed: Temperature, K = 298.15
Fixed: Pressure, kPa = 101.325
Property: Viscosity, Pa*s (Liquid); method: Capillary tube (Ostwald; Ubbelohde) method
Molality, mol/kg of sodium octanoate	Molality, mol/kg of 2-aminoacetic acid	Viscosity, Pa*s	uncertainty
0.4	0	0.001204	1e-05
0.4	0.03002	0.001209	1.1e-05
0.4	0.05963	0.001214	1.1e-05
0.4	0.09834	0.001221	1.1e-05
0.4	0.1485	0.00123	1.1e-05
0.4	0.1974	0.001241	1.1e-05
0.4	0.2476	0.00125	1.1e-05
0.6	0	0.001422	1.3e-05
0.6	0.03106	0.001429	1.3e-05
0.6	0.06235	0.001437	1.3e-05
0.6	0.09476	0.001445	1.3e-05
0.6	0.1502	0.001458	1.3e-05
0.6	0.1963	0.001471	1.3e-05
0.6	0.2439	0.001482	1.3e-05
0.8001	0	0.001704	1.5e-05
0.8001	0.02994	0.001715	1.6e-05
0.8001	0.05969	0.001726	1.6e-05
0.8001	0.1024	0.001738	1.6e-05
0.8001	0.1474	0.001752	1.6e-05
0.8001	0.198	0.001769	1.6e-05
0.8001	0.2486	0.001789	1.7e-05
0.9999	0	0.002069	1.9e-05
0.9999	0.03125	0.002079	2e-05
0.9999	0.06198	0.002091	2e-05
0.9999	0.1006	0.00211	2e-05
0.9999	0.1477	0.002131	2e-05
0.9999	0.2019	0.002156	2.1e-05
0.9999	0.2504	0.002175	2.1e-05

System: 2-aminoacetic acid + sodium octanoate + water; phases: Liquid
Fixed: Temperature, K = 298.15
Fixed: Pressure, kPa = 101.325
Property: Mass density, kg/m3 (Liquid); method: Vibrating tube method
Molality, mol/kg of sodium octanoate	Molality, mol/kg of 2-aminoacetic acid	Mass density, kg/m3	uncertainty
0.4	0	1009.386	0.22
0.4	0.02978	1010.262	0.225
0.4	0.05923	1011.119	0.23
0.4	0.09786	1012.253	0.236
0.4	0.1481	1013.703	0.244
0.4	0.1974	1015.101	0.252
0.4	0.2481	1016.587	0.26
0.4	0.2978	1018.025	0.268
0.4	0.3153	1018.51	0.271
0.4	0.3549	1019.643	0.277
0.6	0	1013.938	0.289
0.6	0.03068	1014.81	0.294
0.6	0.06167	1015.687	0.299
0.6	0.09386	1016.583	0.304
0.6	0.1491	1018.119	0.312
0.6	0.1954	1019.416	0.32
0.6	0.2433	1020.743	0.327
0.6	0.2971	1022.141	0.336
0.6	0.3323	1023.136	0.341
0.6	0.3919	1024.786	0.351
0.8001	0	1017.85	0.355
0.8001	0.02946	1018.641	0.36
0.8001	0.05881	1019.432	0.364
0.8001	0.1011	1020.558	0.371
0.8001	0.1458	1021.767	0.378
0.8001	0.1964	1023.134	0.385
0.8001	0.2472	1024.508	0.393
0.8001	0.2968	1025.837	0.401
0.8001	0.3306	1026.773	0.406
0.8001	0.3508	1027.328	0.409
0.9999	0	1021.436	0.419
0.9999	0.03064	1022.237	0.423
0.9999	0.06086	1023.027	0.428
0.9999	0.09899	1024.019	0.434
0.9999	0.1456	1025.266	0.441
0.9999	0.1996	1026.686	0.449
0.9999	0.2481	1027.993	0.456
0.9999	0.2941	1029.215	0.463
0.9999	0.3214	1030.004	0.467
0.9999	0.3549	1030.879	0.472

System: sodium octanoate + (.+-.)-.alpha.-aminobutyric acid + water; phases: Liquid
Fixed: Temperature, K = 298.15
Fixed: Pressure, kPa = 101.325
Property: Viscosity, Pa*s (Liquid); method: Capillary tube (Ostwald; Ubbelohde) method
Molality, mol/kg of sodium octanoate	Molality, mol/kg of (.+-.)-.alpha.-aminobutyric acid	Viscosity, Pa*s	uncertainty
0.4	0.0303	0.001217	1.1e-05
0.4	0.06039	0.001229	1.1e-05
0.4	0.09905	0.001249	1.1e-05
0.4	0.1495	0.001269	1.1e-05
0.4	0.1975	0.001291	1.1e-05
0.4	0.2478	0.001316	1.2e-05
0.6	0.03151	0.001438	1.3e-05
0.6	0.06277	0.001455	1.3e-05
0.6	0.1023	0.001477	1.3e-05
0.6	0.1517	0.001504	1.3e-05
0.6	0.2022	0.001533	1.4e-05
0.6	0.2477	0.001559	1.4e-05
0.8001	0.02954	0.001724	1.6e-05
0.8001	0.05678	0.001742	1.6e-05
0.8001	0.09327	0.001767	1.6e-05
0.8001	0.1434	0.001806	1.7e-05
0.8001	0.1939	0.00184	1.7e-05
0.8001	0.2407	0.00187	1.7e-05
0.9999	0.03065	0.002089	2e-05
0.9999	0.06092	0.002115	2e-05
0.9999	0.09955	0.002148	2e-05
0.9999	0.152	0.002198	2.1e-05
0.9999	0.1992	0.00223	2.1e-05
0.9999	0.2477	0.002275	2.2e-05

System: sodium octanoate + (.+-.)-.alpha.-aminobutyric acid + water; phases: Liquid
Fixed: Temperature, K = 298.15
Fixed: Pressure, kPa = 101.325
Property: Mass density, kg/m3 (Liquid); method: Vibrating tube method
Molality, mol/kg of sodium octanoate	Molality, mol/kg of (.+-.)-.alpha.-aminobutyric acid	Mass density, kg/m3	uncertainty
0.4	0.03008	1010.166	0.226
0.4	0.0601	1010.938	0.233
0.4	0.09888	1011.934	0.241
0.4	0.1499	1013.214	0.252
0.4	0.1987	1014.404	0.263
0.4	0.2502	1015.703	0.274
0.4	0.3287	1017.555	0.291
0.4	0.3653	1018.455	0.299
0.6	0.03115	1014.687	0.296
0.6	0.06221	1015.429	0.302
0.6	0.1017	1016.359	0.31
0.6	0.1514	1017.542	0.321
0.6	0.2027	1018.75	0.331
0.6	0.2491	1019.851	0.341
0.6	0.3018	1021.053	0.352
0.6	0.3363	1021.863	0.359
0.6	0.3749	1022.762	0.367
0.8001	0.02909	1018.52	0.361
0.8001	0.05603	1019.14	0.366
0.8001	0.09231	1019.968	0.374
0.8001	0.1425	1021.108	0.384
0.8001	0.1934	1022.29	0.394
0.8001	0.2411	1023.36	0.404
0.8001	0.2756	1024.104	0.411
0.8001	0.305	1024.786	0.417
0.8001	0.3419	1025.613	0.424
0.9999	0.03008	1022.103	0.425
0.9999	0.05993	1022.762	0.43
0.9999	0.09824	1023.606	0.438
0.9999	0.1506	1024.768	0.448
0.9999	0.1981	1025.816	0.458
0.9999	0.2474	1026.931	0.467
0.9999	0.2984	1028.023	0.477
0.9999	0.3252	1028.63	0.482
0.9999	0.3583	1029.357	0.489

System: DL-2-amino-3-methylbutanoic acid + sodium octanoate + water; phases: Liquid
Fixed: Temperature, K = 298.15
Fixed: Pressure, kPa = 101.325
Property: Viscosity, Pa*s (Liquid); method: Capillary tube (Ostwald; Ubbelohde) method
Molality, mol/kg of sodium octanoate	Molality, mol/kg of DL-2-amino-3-methylbutanoic acid	Viscosity, Pa*s	uncertainty
0.4	0.02996	0.00122	1.1e-05
0.4	0.06013	0.001236	1.1e-05
0.4	0.09967	0.001257	1.1e-05
0.4	0.1461	0.001284	1.1e-05
0.4	0.1945	0.001313	1.2e-05
0.4	0.2437	0.001341	1.2e-05
0.6	0.02972	0.001441	1.3e-05
0.6	0.05897	0.001461	1.3e-05
0.6	0.09611	0.001485	1.3e-05
0.6	0.1406	0.001516	1.4e-05
0.6	0.1961	0.001557	1.4e-05
0.6	0.2428	0.001589	1.4e-05
0.8001	0.03204	0.00173	1.6e-05
0.8001	0.06385	0.00176	1.6e-05
0.8001	0.1044	0.001794	1.6e-05
0.8001	0.1543	0.001831	1.7e-05
0.8001	0.203	0.001875	1.7e-05
0.8001	0.2515	0.001926	1.8e-05
0.9999	0.03049	0.002094	2e-05
0.9999	0.06068	0.002127	2e-05
0.9999	0.0986	0.002163	2.1e-05
0.9999	0.1481	0.002228	2.1e-05
0.9999	0.1974	0.002266	2.2e-05
0.9999	0.2477	0.002324	2.3e-05

System: DL-2-amino-3-methylbutanoic acid + sodium octanoate + water; phases: Liquid
Fixed: Temperature, K = 298.15
Fixed: Pressure, kPa = 101.325
Property: Mass density, kg/m3 (Liquid); method: Vibrating tube method
Molality, mol/kg of sodium octanoate	Molality, mol/kg of DL-2-amino-3-methylbutanoic acid	Mass density, kg/m3	uncertainty
0.4	0.02976	1010.114	0.227
0.4	0.0599	1010.847	0.234
0.4	0.09965	1011.809	0.244
0.4	0.1467	1012.915	0.256
0.4	0.1962	1014.079	0.268
0.4	0.247	1015.229	0.28
0.4	0.2931	1016.311	0.291
0.4	0.33	1017.147	0.3
0.6	0.02939	1014.595	0.296
0.6	0.05848	1015.244	0.302
0.6	0.09565	1016.062	0.311
0.6	0.1405	1017.041	0.322
0.6	0.197	1018.29	0.335
0.6	0.2451	1019.339	0.347
0.6	0.2869	1020.219	0.356
0.6	0.3233	1021.022	0.365
0.6	0.3471	1021.547	0.37
0.8001	0.03157	1018.515	0.363
0.8001	0.06311	1019.176	0.369
0.8001	0.1036	1020.025	0.379
0.8001	0.1538	1021.08	0.39
0.8001	0.2033	1022.13	0.402
0.8001	0.2531	1023.189	0.413
0.8001	0.3063	1024.273	0.425
0.8001	0.3482	1025.159	0.434
0.8001	0.3769	1025.752	0.44
0.9999	0.02997	1021.205	0.427
0.9999	0.05975	1022.653	0.432
0.9999	0.09745	1023.342	0.44
0.9999	0.1471	1024.438	0.451
0.9999	0.1969	1025.467	0.462
0.9999	0.2483	1026.502	0.473
0.9999	0.2958	1027.409	0.484
0.9999	0.3269	1028.051	0.49
0.9999	0.353	1028.597	0.496

System: (.+-.)-leucine + sodium octanoate + water; phases: Liquid
Fixed: Temperature, K = 298.15
Fixed: Pressure, kPa = 101.325
Property: Viscosity, Pa*s (Liquid); method: Capillary tube (Ostwald; Ubbelohde) method
Molality, mol/kg of sodium octanoate	Molality, mol/kg of (.+-.)-leucine	Viscosity, Pa*s	uncertainty
0.4	0.009735	0.00121	1.1e-05
0.4	0.02487	0.00122	1.1e-05
0.4	0.03993	0.001229	1.1e-05
0.4	0.05021	0.001235	1.1e-05
0.4	0.05534	0.001239	1.1e-05
0.4	0.06999	0.001249	1.1e-05
0.6	0.01008	0.001429	1.3e-05
0.6	0.02518	0.001442	1.3e-05
0.6	0.04025	0.001454	1.3e-05
0.6	0.05039	0.001464	1.3e-05
0.6	0.05553	0.001467	1.3e-05
0.6	0.07032	0.001478	1.3e-05
0.8001	0.01013	0.001715	1.6e-05
0.8001	0.02525	0.00173	1.6e-05
0.8001	0.04038	0.001748	1.6e-05
0.8001	0.05042	0.001758	1.6e-05
0.8001	0.05531	0.001759	1.6e-05
0.8001	0.07021	0.001775	1.6e-05
0.9999	0.009914	0.002078	2e-05
0.9999	0.02528	0.002099	2e-05
0.9999	0.04059	0.002117	2e-05
0.9999	0.0505	0.00213	2e-05
0.9999	0.05578	0.002136	2e-05
0.9999	0.07024	0.002154	2e-05

System: (.+-.)-leucine + sodium octanoate + water; phases: Liquid
Fixed: Temperature, K = 298.15
Fixed: Pressure, kPa = 101.325
Property: Mass density, kg/m3 (Liquid); method: Vibrating tube method
Molality, mol/kg of sodium octanoate	Molality, mol/kg of (.+-.)-leucine	Mass density, kg/m3	uncertainty
0.4	0.009655	1009.591	0.222
0.4	0.02471	1009.912	0.226
0.4	0.03974	1010.223	0.23
0.4	0.05001	1010.449	0.233
0.4	0.05515	1010.549	0.234
0.4	0.05957	1010.637	0.235
0.4	0.0649	1010.738	0.237
0.4	0.06987	1010.863	0.239
0.6	0.00995	1014.123	0.292
0.6	0.02491	1014.389	0.294
0.6	0.03987	1014.642	0.298
0.6	0.04998	1014.801	0.301
0.6	0.05511	1014.874	0.303
0.6	0.06104	1014.97	0.304
0.6	0.06281	1014.999	0.311
0.6	0.06991	1015.088	0.306
0.8001	0.009965	1018.012	0.357
0.8001	0.02488	1018.242	0.361
0.8001	0.03986	1018.463	0.365
0.8001	0.04983	1018.616	0.367
0.8001	0.05468	1018.67	0.368
0.8001	0.06051	1018.745	0.372
0.8001	0.06105	1018.757	0.372
0.8001	0.06381	1018.805	0.371
0.8001	0.06954	1018.869	0.372
0.9999	0.009717	1021.585	0.421
0.9999	0.02482	1021.811	0.424
0.9999	0.03992	1022.019	0.428
0.9999	0.04972	1022.158	0.43
0.9999	0.05496	1022.222	0.432
0.9999	0.06048	1022.292	0.433
0.9999	0.06431	1022.333	0.434
0.9999	0.06932	1022.4	0.435

System: DL-2-aminopropanoic acid + sodium octanoate + water; phases: Liquid
Fixed: Temperature, K = 298.15
Fixed: Pressure, kPa = 101.325
Property: Viscosity, Pa*s (Liquid); method: Capillary tube (Ostwald; Ubbelohde) method
Molality, mol/kg of sodium octanoate	Molality, mol/kg of DL-2-aminopropanoic acid	Viscosity, Pa*s	uncertainty
0.4	0.03172	0.001213	1.1e-05
0.4	0.06329	0.001224	1.1e-05
0.4	0.1028	0.001237	1.1e-05
0.4	0.1525	0.001253	1.1e-05
0.4	0.2008	0.001269	1.1e-05
0.4	0.2494	0.001289	1.1e-05
0.6	0.02998	0.001433	1.3e-05
0.6	0.05957	0.001445	1.3e-05
0.6	0.09534	0.001459	1.3e-05
0.6	0.1467	0.001482	1.3e-05
0.6	0.1948	0.001502	1.3e-05
0.6	0.2483	0.001526	1.4e-05
0.8001	0.031	0.001719	1.6e-05
0.8001	0.06139	0.001736	1.6e-05
0.8001	0.1006	0.001757	1.6e-05
0.8001	0.1532	0.001786	1.6e-05
0.8001	0.2026	0.001816	1.7e-05
0.8001	0.2519	0.001843	1.7e-05
0.9999	0.03095	0.002088	2e-05
0.9999	0.06171	0.002107	2e-05
0.9999	0.0995	0.00213	2e-05
0.9999	0.1503	0.002164	2.1e-05
0.9999	0.1997	0.002202	2.1e-05
0.9999	0.2498	0.00223	2.1e-05

System: DL-2-aminopropanoic acid + sodium octanoate + water; phases: Liquid
Fixed: Temperature, K = 298.15
Fixed: Pressure, kPa = 101.325
Property: Mass density, kg/m3 (Liquid); method: Vibrating tube method
Molality, mol/kg of sodium octanoate	Molality, mol/kg of DL-2-aminopropanoic acid	Mass density, kg/m3	uncertainty
0.4	0.03148	1010.23	0.226
0.4	0.06295	1011.07	0.232
0.4	0.1025	1012.112	0.239
0.4	0.1526	1013.43	0.249
0.4	0.2015	1014.699	0.258
0.4	0.251	1015.954	0.267
0.4	0.3097	1017.453	0.278
0.4	0.3383	1018.216	0.284
0.4	0.3713	1019.039	0.29
0.6	0.02962	1014.685	0.295
0.6	0.05897	1015.428	0.299
0.6	0.0946	1016.316	0.306
0.6	0.1461	1017.608	0.315
0.6	0.1945	1018.784	0.324
0.6	0.2488	1020.157	0.334
0.6	0.2855	1021.04	0.341
0.6	0.3182	1021.861	0.347
0.6	0.3467	1022.561	0.352
0.8001	0.03052	1018.59	0.361
0.8001	0.06055	1019.318	0.366
0.8001	0.09946	1020.255	0.373
0.8001	0.152	1021.553	0.382
0.8001	0.2017	1022.746	0.391
0.8001	0.2515	1023.96	0.4
0.8001	0.3016	1025.143	0.409
0.8001	0.3326	1025.903	0.414
0.8001	0.3589	1026.531	0.419
0.9999	0.03036	1022.144	0.424
0.9999	0.06065	1022.853	0.429
0.9999	0.09804	1023.723	0.436
0.9999	0.1486	1024.914	0.444
0.9999	0.198	1026.115	0.453
0.9999	0.2271	1026.773	0.458
0.9999	0.2485	1027.303	0.462
0.9999	0.2952	1028.372	0.469
0.9999	0.3247	1029.09	0.475
0.9999	0.3586	1029.899	0.48
