Measured thermophysical data. Isobaric Vapor-Liquid Equilibrium of Acetone + Methanol System in the Presence of Calcium Bromide
Source: J. Chem. Eng. Data, 2005, 10.1021/je049688b
Compound 1: calcium bromide, Br2Ca, InChI=1S/2BrH.Ca/h2*1H;/q;;+2/p-2
Compound 2: methanol, CH4O, InChI=1S/CH4O/c1-2/h2H,1H3, purity 99.8%
Compound 3: acetone, C3H6O, InChI=1S/C3H6O/c1-3(2)4/h1-2H3, purity 99.5%

System: methanol; phases: Liquid, Gas
Property: Vapor or sublimation pressure, kPa (Liquid); method: Ebulliometric method (Recirculating still)
Temperature, K	Vapor or sublimation pressure, kPa	uncertainty
337.75	101	1.3

System: acetone; phases: Liquid, Gas
Property: Vapor or sublimation pressure, kPa (Liquid); method: Ebulliometric method (Recirculating still)
Temperature, K	Vapor or sublimation pressure, kPa	uncertainty
329.35	101	1.3

System: methanol + acetone; phases: Liquid, Gas
Fixed: Pressure, kPa = 101
Property: Boiling temperature at pressure P, K (Liquid); method: Ebulliometric method (Recirculating still)
Mole fraction of acetone	Boiling temperature at pressure P, K	uncertainty
0	337.75	0.25
0.091	334.85	0.58
0.188	332.75	0.44
0.288	331.25	0.35
0.405	330.05	0.3
0.502	329.45	0.27
0.57	329.05	0.26
0.685	328.65	0.25
0.759	328.55	0.25
0.895	328.75	0.25
1	329.35	0.25

System: methanol + acetone; phases: Gas, Liquid
Fixed: Pressure, kPa = 101
Property: Mole fraction of acetone (Gas); method: Chromatography
Mole fraction of acetone	Mole fraction of acetone	uncertainty
0	0	
0.091	0.187	0.04
0.188	0.328	0.029
0.288	0.399	0.026
0.405	0.502	0.027
0.502	0.582	0.027
0.57	0.646	0.024
0.685	0.702	0.024
0.759	0.762	0.027
0.895	0.891	0.028
1	1	

System: methanol + acetone + calcium bromide; phases: Liquid, Gas
Fixed: Pressure, kPa = 101
Property: Boiling temperature at pressure P, K (Liquid); method: Ebulliometric method (Recirculating still)
Amount concentration (molarity), mol/dm3 of calcium bromide	Solvent: Mole fraction of acetone	Boiling temperature at pressure P, K	uncertainty
0.05	0	329.36	3
0.05	0.091	328.45	3
0.05	0.188	327.25	3
0.05	0.288	329.35	3
0.05	0.405	327.15	3
0.05	0.502	327.45	3
0.05	0.57	328.35	3
0.05	0.685	329.35	3
0.05	0.731	329.35	3
0.05	0.749	331.45	3
0.05	0.84	333.65	3
0.05	0.959	334.45	3
0.05	1	337.8	3
0.1	0	329.35	3
0.1	0.091	328.45	3
0.1	0.188	327.75	3
0.1	0.288	329.85	3
0.1	0.405	327.65	3
0.1	0.502	327.55	3
0.1	0.57	328.85	3
0.1	0.685	329.15	3
0.1	0.731	329.95	3
0.1	0.749	331.75	3
0.1	0.84	327.55	3
0.1	0.959	326.05	3
0.1	1	337.8	3
0.3	0	329.35	3
0.3	0.091	329.05	3
0.3	0.188	328.25	3
0.3	0.288	329.45	3
0.3	0.405	328.05	3
0.3	0.502	327.15	3
0.3	0.57	328.65	3
0.3	0.685	328.95	3
0.3	0.731	329.25	3
0.3	0.749	330.55	3
0.3	0.84	329.75	3
0.3	0.959	330.25	3
0.3	1	337.8	3

System: methanol + acetone + calcium bromide; phases: Gas, Liquid
Fixed: Pressure, kPa = 101
Property: Mole fraction of acetone (Gas); method: Chromatography
Solvent: Mole fraction of acetone	Amount concentration (molarity), mol/dm3 of calcium bromide	Mole fraction of acetone	uncertainty
0	0.05	0	
0.091	0.05	0.488	0.073
0.188	0.05	0.656	0.029
0.288	0.05	0.687	0.023
0.405	0.05	0.766	0.024
0.502	0.05	0.82	0.023
0.57	0.05	0.853	0.021
0.685	0.05	0.876	0.02
0.731	0.05	0.87	0.024
0.749	0.05	0.859	0.024
0.84	0.05	0.78	0.025
0.959	0.05	0.71	0.028
1	0.05	1	
0	0.1	0	
0.091	0.1	0.451	0.069
0.188	0.1	0.625	0.031
0.288	0.1	0.678	0.025
0.405	0.1	0.77	0.024
0.502	0.1	0.808	0.023
0.57	0.1	0.851	0.021
0.685	0.1	0.868	0.021
0.731	0.1	0.883	0.023
0.749	0.1	0.87	0.022
0.84	0.1	0.801	0.021
0.959	0.1	0.814	0.025
1	0.1	1	
0	0.3	0	
0.091	0.3	0.382	0.069
0.188	0.3	0.625	0.037
0.288	0.3	0.678	0.025
0.405	0.3	0.78	0.024
0.502	0.3	0.81	0.022
0.57	0.3	0.852	0.022
0.685	0.3	0.88	0.021
0.731	0.3	0.9	0.021
0.749	0.3	0.902	0.021
0.84	0.3	0.93	0.022
0.959	0.3	0.985	0.015
1	0.3	1	

System: methanol + acetone + calcium bromide; phases: Gas, Liquid
Fixed: Pressure, kPa = 101
Property: Mole fraction of methanol (Gas); method: Chromatography
Amount concentration (molarity), mol/dm3 of calcium bromide	Solvent: Mole fraction of acetone	Mole fraction of methanol	uncertainty
0.05	0	1	
0.05	0.091	0.512	0.073
0.05	0.188	0.344	0.029
0.05	0.288	0.313	0.023
0.05	0.405	0.234	0.024
0.05	0.502	0.18	0.023
0.05	0.57	0.147	0.021
0.05	0.685	0.124	0.02
0.05	0.731	0.13	0.024
0.05	0.749	0.141	0.024
0.05	0.84	0.22	0.025
0.05	0.959	0.29	0.028
0.05	1	0	
0.1	0	1	
0.1	0.091	0.549	0.069
0.1	0.188	0.375	0.031
0.1	0.288	0.322	0.024
0.1	0.405	0.23	0.024
0.1	0.502	0.192	0.022
0.1	0.57	0.149	0.021
0.1	0.685	0.132	0.02
0.1	0.731	0.117	0.023
0.1	0.749	0.13	0.022
0.1	0.84	0.199	0.021
0.1	0.959	0.186	0.025
0.1	1	0	
0.3	0	1	
0.3	0.091	0.618	0.07
0.3	0.188	0.375	0.036
0.3	0.288	0.322	0.025
0.3	0.405	0.22	0.024
0.3	0.502	0.19	0.022
0.3	0.57	0.148	0.021
0.3	0.685	0.12	0.021
0.3	0.731	0.1	0.021
0.3	0.749	0.098	0.021
0.3	0.84	0.07	0.022
0.3	0.959	0.015	0.015
0.3	1	0	
