Measured thermophysical data. Activity Coefficients at Infinite Dilution and Excess Molar Volumes in Binary Mixtures Containing Normal Alkanes (Nonane, Decane, Undecane, or Dodecane) and Cresols (2-Methylphenol or 3-Methylphenol)
Source: J. Chem. Eng. Data, 2005, 10.1021/je049540s
Compound 1: 2-methylphenol, C7H8O, InChI=1S/C7H8O/c1-6-4-2-3-5-7(6)8/h2-5,8H,1H3, purity 98%
Compound 2: 3-methylphenol, C7H8O, InChI=1S/C7H8O/c1-6-3-2-4-7(8)5-6/h2-5,8H,1H3, purity 99%
Compound 3: nonane, C9H20, InChI=1S/C9H20/c1-3-5-7-9-8-6-4-2/h3-9H2,1-2H3, purity 99%
Compound 4: decane, C10H22, InChI=1S/C10H22/c1-3-5-7-9-10-8-6-4-2/h3-10H2,1-2H3, purity 98%
Compound 5: undecane, C11H24, InChI=1S/C11H24/c1-3-5-7-9-11-10-8-6-4-2/h3-11H2,1-2H3, purity 98%
Compound 6: dodecane, C12H26, InChI=1S/C12H26/c1-3-5-7-9-11-12-10-8-6-4-2/h3-12H2,1-2H3, purity 98%

System: 2-methylphenol; phases: Liquid
Property: Refractive index (Na D-line) (Liquid); method: Standard Abbe refractometry
Temperature, K	Pressure, kPa	Refractive index (Na D-line)	uncertainty
308.15	101.325	1.5386	0.0007

System: 2-methylphenol; phases: Liquid
Property: Mass density, kg/m3 (Liquid); method: VIBTUB::UFactor:2
Pressure, kPa	Temperature, K	Mass density, kg/m3	uncertainty
101.3	308.15	1032.73	0.49

System: 3-methylphenol; phases: Liquid
Property: Refractive index (Na D-line) (Liquid); method: Standard Abbe refractometry
Temperature, K	Pressure, kPa	Refractive index (Na D-line)	uncertainty
293.15	101.325	1.5401	0.0007

System: 3-methylphenol; phases: Liquid
Property: Mass density, kg/m3 (Liquid); method: VIBTUB::UFactor:2
Pressure, kPa	Temperature, K	Mass density, kg/m3	uncertainty
101.3	308.15	1022.02	0.13

System: nonane; phases: Liquid
Property: Refractive index (Na D-line) (Liquid); method: Standard Abbe refractometry
Temperature, K	Pressure, kPa	Refractive index (Na D-line)	uncertainty
293.15	101.325	1.4058	0.0007

System: nonane; phases: Liquid
Property: Mass density, kg/m3 (Liquid); method: VIBTUB::UFactor:2
Pressure, kPa	Temperature, K	Mass density, kg/m3	uncertainty
101.3	308.15	707.41	0.38

System: decane; phases: Liquid
Property: Refractive index (Na D-line) (Liquid); method: Standard Abbe refractometry
Temperature, K	Pressure, kPa	Refractive index (Na D-line)	uncertainty
308.15	101.325	1.4055	0.0007

System: decane; phases: Liquid
Property: Mass density, kg/m3 (Liquid); method: VIBTUB::UFactor:2
Pressure, kPa	Temperature, K	Mass density, kg/m3	uncertainty
101.3	308.15	720.24	0.42

System: undecane; phases: Liquid
Property: Refractive index (Na D-line) (Liquid); method: Standard Abbe refractometry
Temperature, K	Pressure, kPa	Refractive index (Na D-line)	uncertainty
293.15	101.325	1.4164	0.0007

System: undecane; phases: Liquid
Property: Mass density, kg/m3 (Liquid); method: VIBTUB::UFactor:2
Pressure, kPa	Temperature, K	Mass density, kg/m3	uncertainty
101.3	308.15	729.13	0.36

System: dodecane; phases: Liquid
Property: Refractive index (Na D-line) (Liquid); method: Standard Abbe refractometry
Temperature, K	Pressure, kPa	Refractive index (Na D-line)	uncertainty
293.15	101.325	1.421	0.0007

System: dodecane; phases: Liquid
Property: Mass density, kg/m3 (Liquid); method: VIBTUB::UFactor:2
Pressure, kPa	Temperature, K	Mass density, kg/m3	uncertainty
101.3	308.15	738.63	0.36

System: 2-methylphenol + nonane; phases: Liquid
Fixed: Pressure, kPa = 101.3
Fixed: Mole fraction of 2-methylphenol = 0
Property: Activity coefficient of 2-methylphenol (Liquid); method: Differential ebulliometry
Temperature, K	Activity coefficient of 2-methylphenol	uncertainty
373.15	5.84	0.82
393.15	4.58	0.64
413.15	3.8	0.5

System: 2-methylphenol + nonane; phases: Liquid
Fixed: Pressure, kPa = 101.3
Fixed: Temperature, K = 308.15
Property: Mass density, kg/m3 (Liquid); method: VIBTUB:UFactor:2
Mole fraction of 2-methylphenol	Mass density, kg/m3	uncertainty
0	707.41	0.38
0.0661	719.58	0.37
0.0684	720.02	0.37
0.1489	736.5	0.36
0.2085	749.6	0.35
0.2703	764.08	0.35
0.3994	797.32	0.35
0.4008	797.69	0.35
0.4688	817.04	0.36
0.5237	833.66	0.37
0.5941	856.51	0.36
0.6631	880.76	0.37
0.7323	906.98	0.38
0.8106	939.53	0.39
0.8674	965.12	0.41
0.9285	994.76	0.44
1	1032.73	0.49

System: 2-methylphenol + decane; phases: Liquid
Fixed: Pressure, kPa = 101.3
Fixed: Mole fraction of 2-methylphenol = 0
Property: Activity coefficient of 2-methylphenol (Liquid); method: Differential ebulliometry
Temperature, K	Activity coefficient of 2-methylphenol	uncertainty
393.15	4.15	0.58
413.15	3.49	0.49
433.15	3.04	0.43

System: 2-methylphenol + decane; phases: Liquid
Fixed: Pressure, kPa = 101.3
Fixed: Temperature, K = 308.15
Property: Mass density, kg/m3 (Liquid); method: VIBTUB:UFactor:2
Mole fraction of 2-methylphenol	Mass density, kg/m3	uncertainty
0	720.24	0.42
0.0637	730.49	0.42
0.0908	735.2	0.42
0.162	748.33	0.42
0.2086	757.57	0.42
0.272	770.9	0.41
0.3186	781.32	0.42
0.4014	801.21	0.42
0.4707	819.47	0.43
0.529	836.06	0.43
0.6014	858.4	0.43
0.6596	878.02	0.43
0.7379	906.95	0.43
0.7876	927.04	0.43
0.8714	964.58	0.44
0.9348	996.28	0.45
0.9617	1010.78	0.47
1	1032.73	0.49

System: 2-methylphenol + undecane; phases: Liquid
Fixed: Pressure, kPa = 101.3
Fixed: Mole fraction of 2-methylphenol = 0
Property: Activity coefficient of 2-methylphenol (Liquid); method: Differential ebulliometry
Temperature, K	Activity coefficient of 2-methylphenol	uncertainty
393.15	4.47	0.63
413.15	3.77	0.53
433.15	2.85	0.4

System: 2-methylphenol + undecane; phases: Liquid
Fixed: Pressure, kPa = 101.3
Fixed: Temperature, K = 308.15
Property: Mass density, kg/m3 (Liquid); method: VIBTUB:UFactor:2
Mole fraction of 2-methylphenol	Mass density, kg/m3	uncertainty
0	729.13	0.36
0.0367	734.21	0.35
0.0684	738.92	0.35
0.0746	739.92	0.35
0.1306	748.8	0.35
0.2094	762.7	0.34
0.2809	776.41	0.34
0.3636	794.01	0.34
0.4749	820.79	0.35
0.5311	835.93	0.36
0.5989	855.95	0.36
0.6593	875.61	0.37
0.7261	899.41	0.38
0.8065	931.92	0.39
0.8662	959.18	0.41
0.9476	1001.43	0.45
1	1032.73	0.49

System: 3-methylphenol + nonane; phases: Liquid
Fixed: Pressure, kPa = 101.3
Fixed: Mole fraction of 3-methylphenol = 0
Property: Activity coefficient of 3-methylphenol (Liquid); method: Differential ebulliometry
Temperature, K	Activity coefficient of 3-methylphenol	uncertainty
373.15	9.21	1.29
393.15	7.06	0.99
413.15	5.96	0.83

System: 3-methylphenol + nonane; phases: Liquid
Fixed: Pressure, kPa = 101.3
Fixed: Temperature, K = 308.15
Property: Mass density, kg/m3 (Liquid); method: VIBTUB:UFactor:2
Mole fraction of 3-methylphenol	Mass density, kg/m3	uncertainty
0	707.41	0.38
0.1021	726.54	0.36
0.1998	747.24	0.34
0.302	770.94	0.33
0.4021	796.76	0.31
0.5	825	0.31
0.7	892.22	0.23
0.9	974.43	0.14
1	1022.02	0.13

System: 3-methylphenol + decane; phases: Liquid
Fixed: Pressure, kPa = 101.3
Fixed: Mole fraction of 3-methylphenol = 0
Property: Activity coefficient of 3-methylphenol (Liquid); method: Differential ebulliometry
Temperature, K	Activity coefficient of 3-methylphenol	uncertainty
373.15	7.79	1.09
403.15	5.37	0.75
433.15	4.26	0.6

System: 3-methylphenol + undecane; phases: Liquid
Fixed: Pressure, kPa = 101.3
Fixed: Mole fraction of 3-methylphenol = 0
Property: Activity coefficient of 3-methylphenol (Liquid); method: Differential ebulliometry
Temperature, K	Activity coefficient of 3-methylphenol	uncertainty
393.15	6.25	0.88
413.15	4.9	0.69
433.15	3.93	0.55

System: 3-methylphenol + undecane; phases: Liquid
Fixed: Pressure, kPa = 101.3
Fixed: Temperature, K = 308.15
Property: Mass density, kg/m3 (Liquid); method: VIBTUB:UFactor:2
Mole fraction of 3-methylphenol	Mass density, kg/m3	uncertainty
0	729.13	0.36
0.1287	748.52	0.34
0.1853	758.11	0.33
0.3395	787.84	0.31
0.389	798.63	0.3
0.5024	826.11	0.29
0.6023	854.21	0.26
0.6949	884.19	0.23
0.8	923.73	0.19
0.9	968.61	0.14
1	1022.02	0.13

System: 3-methylphenol + dodecane; phases: Liquid
Fixed: Pressure, kPa = 101.3
Fixed: Temperature, K = 308.15
Property: Mass density, kg/m3 (Liquid); method: VIBTUB:UFactor:2
Mole fraction of 3-methylphenol	Mass density, kg/m3	uncertainty
0	738.63	0.36
0.1325	756.67	0.34
0.2055	767.97	0.33
0.3009	784.51	0.32
0.4009	804.35	0.31
0.6976	883.71	0.23
0.7987	921.29	0.2
0.895	963.9	0.15
1	1022.02	0.13
