Measured thermophysical data. Vapor-Liquid Equilibrium Data for the Binary Decafluoropentane (HFC-43-10meec) + Heptane, Decafluoropentane + Butyl Ethyl Ether, Octafluorobutane (HFC-338pcc) + Butyl Ethyl Ether, and Heptafluoro Propyl Methyl Ether (HFE-347mcc) + HFC-338pcc Systems at 101.3 kPa
Source: J. Chem. Eng. Data, 2005, 10.1021/je0497653
Compound 1: 1,1,1,2,2,3,4,5,5,5-decafluoropentane, C5H2F10, InChI=1S/C5H2F10/c6-1(2(7)4(10,11)12)3(8,9)5(13,14)15/h1-2H, purity 99.9%
Compound 2: heptane, C7H16, InChI=1S/C7H16/c1-3-5-7-6-4-2/h3-7H2,1-2H3, purity 99.9%
Compound 3: butyl ethyl ether, C6H14O, InChI=1S/C6H14O/c1-3-5-6-7-4-2/h3-6H2,1-2H3, purity 99.8%
Compound 4: 1,1,2,2,3,3,4,4-octafluorobutane, C4H2F8, InChI=1S/C4H2F8/c5-1(6)3(9,10)4(11,12)2(7)8/h1-2H, purity 99.9%
Compound 5: heptafluoropropyl methyl ether, C4H3F7O, InChI=1S/C4H3F7O/c1-12-4(10,11)2(5,6)3(7,8)9/h1H3, purity 99.9%

System: 1,1,1,2,2,3,4,5,5,5-decafluoropentane; phases: Liquid
Property: Mass density, kg/m3 (Liquid); method: VIBTUB:UFactor:4
Temperature, K	Pressure, kPa	Mass density, kg/m3	uncertainty
298.15	101.325	1586.3	1.4

System: 1,1,1,2,2,3,4,5,5,5-decafluoropentane; phases: Liquid, Gas
Property: Vapor or sublimation pressure, kPa (Liquid); method: CCELL:UFactor:4
Temperature, K	Vapor or sublimation pressure, kPa	uncertainty
327.04	101.3	0.9

System: heptane; phases: Liquid
Property: Mass density, kg/m3 (Liquid); method: VIBTUB:UFactor:4
Temperature, K	Pressure, kPa	Mass density, kg/m3	uncertainty
298.15	101.325	679.5	0.8

System: heptane; phases: Liquid, Gas
Property: Vapor or sublimation pressure, kPa (Liquid); method: CCELL:UFactor:4
Temperature, K	Vapor or sublimation pressure, kPa	uncertainty
371.76	101.3	0.9

System: butyl ethyl ether; phases: Liquid
Property: Mass density, kg/m3 (Liquid); method: VIBTUB:UFactor:4
Temperature, K	Pressure, kPa	Mass density, kg/m3	uncertainty
298.15	101.325	745.3	0.7

System: butyl ethyl ether; phases: Liquid, Gas
Property: Vapor or sublimation pressure, kPa (Liquid); method: CCELL:UFactor:4
Temperature, K	Vapor or sublimation pressure, kPa	uncertainty
365.35	101.3	0.9

System: 1,1,2,2,3,3,4,4-octafluorobutane; phases: Liquid
Property: Mass density, kg/m3 (Liquid); method: VIBTUB:UFactor:4
Temperature, K	Pressure, kPa	Mass density, kg/m3	uncertainty
298.15	101.325	1562.9	1.3

System: 1,1,2,2,3,3,4,4-octafluorobutane; phases: Liquid, Gas
Property: Vapor or sublimation pressure, kPa (Liquid); method: CCELL:UFactor:4
Temperature, K	Vapor or sublimation pressure, kPa	uncertainty
317.39	101.3	0.9

System: heptafluoropropyl methyl ether; phases: Liquid
Property: Mass density, kg/m3 (Liquid); method: VIBTUB:UFactor:4
Temperature, K	Pressure, kPa	Mass density, kg/m3	uncertainty
298.15	101.325	1409.2	1

System: heptafluoropropyl methyl ether; phases: Liquid, Gas
Property: Vapor or sublimation pressure, kPa (Liquid); method: CCELL:UFactor:4
Temperature, K	Vapor or sublimation pressure, kPa	uncertainty
307.31	101.3	0.9

System: heptane + 1,1,1,2,2,3,4,5,5,5-decafluoropentane; phases: Liquid, Gas
Fixed: Pressure, kPa = 101.3
Property: Boiling temperature at pressure P, K (Liquid); method: CCELL:UFactor:4
Mole fraction of 1,1,1,2,2,3,4,5,5,5-decafluoropentane	Boiling temperature at pressure P, K	uncertainty
0	371.76	0.26
0.184	333	0.71
0.21	330.85	0.71
0.622	327.07	0.27
0.729	326.77	0.26
0.797	326.56	0.26
0.83	326.65	0.26
0.9	326.6	0.26
0.957	326.73	0.26
0.979	326.83	0.27
1	327.04	0.26

System: heptane + 1,1,1,2,2,3,4,5,5,5-decafluoropentane; phases: Gas, Liquid
Fixed: Pressure, kPa = 101.3
Property: Mole fraction of 1,1,1,2,2,3,4,5,5,5-decafluoropentane (Gas); method: Chromatography
Mole fraction of 1,1,1,2,2,3,4,5,5,5-decafluoropentane	Mole fraction of 1,1,1,2,2,3,4,5,5,5-decafluoropentane	uncertainty
0	0	
0.184	0.766	0.011
0.21	0.789	0.011
0.622	0.85	0.008
0.729	0.863	0.008
0.797	0.869	0.008
0.83	0.876	0.008
0.9	0.898	0.009
0.957	0.95	0.011
0.979	0.971	0.012
1	1	

System: heptane + 1,1,1,2,2,3,4,5,5,5-decafluoropentane; phases: Liquid, Gas
Property: Azeotropic composition: mole fraction of 1,1,1,2,2,3,4,5,5,5-decafluoropentane (Liquid); method: By X=Y
Temperature, K	Azeotropic composition: mole fraction of 1,1,1,2,2,3,4,5,5,5-decafluoropentane	uncertainty
326.53	0.91	0.008

System: heptane + 1,1,1,2,2,3,4,5,5,5-decafluoropentane; phases: Liquid, Gas
Property: Azeotropic composition: mole fraction of 1,1,1,2,2,3,4,5,5,5-decafluoropentane (Liquid); method: By X=Y
Pressure, kPa	Azeotropic composition: mole fraction of 1,1,1,2,2,3,4,5,5,5-decafluoropentane	uncertainty
101.3	0.91	0.008

System: butyl ethyl ether + 1,1,1,2,2,3,4,5,5,5-decafluoropentane; phases: Liquid, Gas
Fixed: Pressure, kPa = 101.3
Property: Boiling temperature at pressure P, K (Liquid); method: CCELL:UFactor:4
Mole fraction of 1,1,1,2,2,3,4,5,5,5-decafluoropentane	Boiling temperature at pressure P, K	uncertainty
0	365.35	0.26
0.116	346.71	1.04
0.194	341.58	0.52
0.25	339.2	0.42
0.277	338.21	0.36
0.317	337.11	0.34
0.342	336.46	0.33
0.387	335.27	0.31
0.45	334.2	0.3
0.471	333.64	0.32
0.497	333.13	0.29
0.526	332.69	0.29
0.598	331.59	0.28
0.698	330.27	0.28
0.787	329.25	0.28
0.817	328.82	0.29
0.841	328.42	0.28
0.875	328.05	0.27
0.907	327.75	0.27
0.936	327.49	0.27
0.966	327.26	0.27
1	327.04	0.26

System: butyl ethyl ether + 1,1,1,2,2,3,4,5,5,5-decafluoropentane; phases: Gas, Liquid
Fixed: Pressure, kPa = 101.3
Property: Mole fraction of 1,1,1,2,2,3,4,5,5,5-decafluoropentane (Gas); method: Chromatography
Mole fraction of 1,1,1,2,2,3,4,5,5,5-decafluoropentane	Mole fraction of 1,1,1,2,2,3,4,5,5,5-decafluoropentane	uncertainty
0	0	
0.116	0.503	0.027
0.194	0.608	0.013
0.25	0.657	0.011
0.277	0.675	0.01
0.317	0.7	0.009
0.342	0.708	0.009
0.387	0.728	0.009
0.45	0.749	0.009
0.471	0.761	0.009
0.497	0.772	0.009
0.526	0.782	0.009
0.598	0.807	0.009
0.698	0.842	0.009
0.787	0.875	0.009
0.817	0.89	0.009
0.841	0.904	0.009
0.875	0.921	0.009
0.907	0.938	0.009
0.936	0.956	0.009
0.966	0.975	0.01
1	1	

System: 1,1,2,2,3,3,4,4-octafluorobutane + butyl ethyl ether; phases: Liquid, Gas
Fixed: Pressure, kPa = 101.3
Property: Boiling temperature at pressure P, K (Liquid); method: CCELL:UFactor:4
Mole fraction of 1,1,2,2,3,3,4,4-octafluorobutane	Boiling temperature at pressure P, K	uncertainty
0	365.35	0.26
0.153	346.31	0.97
0.196	342.94	0.62
0.234	340.67	0.54
0.264	338.91	0.52
0.295	337.26	0.5
0.338	335.01	0.47
0.372	333.51	0.43
0.395	332.57	0.41
0.436	330.95	0.4
0.459	330.15	0.39
0.484	329.24	0.37
0.542	327.41	0.35
0.573	326.62	0.34
0.601	325.84	0.35
0.634	324.83	0.34
0.661	324.2	0.32
0.69	323.49	0.32
0.718	322.89	0.31
0.747	322.26	0.31
0.775	321.65	0.31
0.804	321.06	0.31
0.832	320.51	0.3
0.862	319.94	0.3
0.891	319.41	0.3
0.917	318.92	0.3
0.946	318.38	0.3
1	317.39	0.26

System: 1,1,2,2,3,3,4,4-octafluorobutane + butyl ethyl ether; phases: Gas, Liquid
Fixed: Pressure, kPa = 101.3
Property: Mole fraction of 1,1,2,2,3,3,4,4-octafluorobutane (Gas); method: Chromatography
Mole fraction of 1,1,2,2,3,3,4,4-octafluorobutane	Mole fraction of 1,1,2,2,3,3,4,4-octafluorobutane	uncertainty
0	0	
0.153	0.526	0.027
0.196	0.594	0.015
0.234	0.644	0.013
0.264	0.676	0.012
0.295	0.706	0.011
0.338	0.743	0.01
0.372	0.767	0.01
0.395	0.783	0.01
0.436	0.806	0.009
0.459	0.818	0.009
0.484	0.832	0.009
0.542	0.856	0.009
0.573	0.867	0.009
0.601	0.877	0.009
0.634	0.889	0.009
0.661	0.897	0.009
0.69	0.908	0.008
0.718	0.916	0.008
0.747	0.924	0.008
0.775	0.932	0.008
0.804	0.94	0.008
0.832	0.948	0.008
0.862	0.957	0.008
0.891	0.965	0.008
0.917	0.973	0.008
0.946	0.982	0.008
1	1	

System: heptafluoropropyl methyl ether + 1,1,2,2,3,3,4,4-octafluorobutane; phases: Liquid, Gas
Fixed: Pressure, kPa = 101.3
Property: Boiling temperature at pressure P, K (Liquid); method: CCELL:UFactor:4
Mole fraction of heptafluoropropyl methyl ether	Boiling temperature at pressure P, K	uncertainty
0	317.39	0.26
0.059	316.43	0.29
0.116	315.67	0.28
0.172	314.9	0.28
0.222	314.25	0.28
0.24	314.03	0.28
0.26	313.82	0.28
0.299	313.37	0.28
0.337	312.95	0.27
0.356	312.75	0.27
0.373	312.57	0.27
0.394	312.39	0.27
0.441	311.88	0.27
0.46	311.7	0.27
0.509	311.24	0.27
0.524	311.12	0.27
0.552	310.84	0.27
0.584	310.55	0.27
0.613	310.3	0.27
0.655	309.95	0.27
0.727	309.3	0.27
0.754	309.07	0.27
0.782	308.85	0.27
0.811	308.63	0.27
0.839	308.42	0.27
0.941	307.67	0.27
0.968	307.49	0.26
1	307.31	0.26

System: heptafluoropropyl methyl ether + 1,1,2,2,3,3,4,4-octafluorobutane; phases: Gas, Liquid
Fixed: Pressure, kPa = 101.3
Property: Mole fraction of heptafluoropropyl methyl ether (Gas); method: Chromatography
Mole fraction of heptafluoropropyl methyl ether	Mole fraction of heptafluoropropyl methyl ether	uncertainty
0	0	
0.059	0.087	0.014
0.116	0.164	0.013
0.172	0.235	0.013
0.222	0.298	0.013
0.24	0.32	0.013
0.26	0.343	0.012
0.299	0.384	0.012
0.337	0.425	0.012
0.356	0.444	0.012
0.373	0.463	0.012
0.394	0.48	0.012
0.441	0.529	0.012
0.46	0.547	0.012
0.509	0.593	0.011
0.524	0.606	0.011
0.552	0.631	0.011
0.584	0.66	0.011
0.613	0.686	0.011
0.655	0.723	0.011
0.727	0.782	0.011
0.754	0.805	0.011
0.782	0.828	0.01
0.811	0.851	0.01
0.839	0.874	0.01
0.941	0.955	0.01
0.968	0.976	0.01
1	1	
