Measured thermophysical data. Critical Temperatures and Pressures of Straight-Chain Saturated Dicarboxylic Acids (C4 to C14)
Source: J. Chem. Eng. Data, 2004, 10.1021/je0498356
Compound 1: butanedioic acid, C4H6O4, InChI=1S/C4H6O4/c5-3(6)1-2-4(7)8/h1-2H2,(H,5,6)(H,7,8)
Compound 2: 1,5-pentanedioic acid, C5H8O4, InChI=1S/C5H8O4/c6-4(7)2-1-3-5(8)9/h1-3H2,(H,6,7)(H,8,9)
Compound 3: 1,6-hexanedioic acid, C6H10O4, InChI=1S/C6H10O4/c7-5(8)3-1-2-4-6(9)10/h1-4H2,(H,7,8)(H,9,10)
Compound 4: 1,7-heptanedioic acid, C7H12O4, InChI=1S/C7H12O4/c8-6(9)4-2-1-3-5-7(10)11/h1-5H2,(H,8,9)(H,10,11)
Compound 5: 1,8-octanedioic acid, C8H14O4, InChI=1S/C8H14O4/c9-7(10)5-3-1-2-4-6-8(11)12/h1-6H2,(H,9,10)(H,11,12)
Compound 6: 1,9-nonanedioic acid, C9H16O4, InChI=1S/C9H16O4/c10-8(11)6-4-2-1-3-5-7-9(12)13/h1-7H2,(H,10,11)(H,12,13)
Compound 7: 1,10-decanedioic acid, C10H18O4, InChI=1S/C10H18O4/c11-9(12)7-5-3-1-2-4-6-8-10(13)14/h1-8H2,(H,11,12)(H,13,14)
Compound 8: 1,12-dodecanedioic acid, C12H22O4, InChI=1S/C12H22O4/c13-11(14)9-7-5-3-1-2-4-6-8-10-12(15)16/h1-10H2,(H,13,14)(H,15,16)
Compound 9: 1,12-dodecanedicarboxylic acid, C14H26O4, InChI=1S/C14H26O4/c15-13(16)11-9-7-5-3-1-2-4-6-8-10-12-14(17)18/h1-12H2,(H,15,16)(H,17,18)

System: butanedioic acid; phases: Liquid, Gas
Property: Critical pressure, kPa (Liquid); method: OTHER
Critical pressure, kPa	uncertainty
6590	300

System: butanedioic acid; phases: Liquid, Gas
Property: Critical temperature, K (Liquid); method: OTHER
Critical temperature, K	uncertainty
851	20

System: 1,5-pentanedioic acid; phases: Liquid, Gas
Property: Critical pressure, kPa (Liquid); method: OTHER
Critical pressure, kPa	uncertainty
4270	200

System: 1,5-pentanedioic acid; phases: Liquid, Gas
Property: Critical temperature, K (Liquid); method: OTHER
Critical temperature, K	uncertainty
840	13

System: 1,6-hexanedioic acid; phases: Liquid, Gas
Property: Critical pressure, kPa (Liquid); method: OTHER
Critical pressure, kPa	uncertainty
3850	150

System: 1,6-hexanedioic acid; phases: Liquid, Gas
Property: Critical temperature, K (Liquid); method: OTHER
Critical temperature, K	uncertainty
841	13

System: 1,7-heptanedioic acid; phases: Liquid, Gas
Property: Critical pressure, kPa (Liquid); method: OTHER
Critical pressure, kPa	uncertainty
3280	130

System: 1,7-heptanedioic acid; phases: Liquid, Gas
Property: Critical temperature, K (Liquid); method: OTHER
Critical temperature, K	uncertainty
842	13

System: 1,8-octanedioic acid; phases: Liquid, Gas
Property: Critical pressure, kPa (Liquid); method: OTHER
Critical pressure, kPa	uncertainty
2970	120

System: 1,8-octanedioic acid; phases: Liquid, Gas
Property: Critical temperature, K (Liquid); method: OTHER
Critical temperature, K	uncertainty
843	13

System: 1,9-nonanedioic acid; phases: Liquid, Gas
Property: Critical pressure, kPa (Liquid); method: OTHER
Critical pressure, kPa	uncertainty
2720	110

System: 1,9-nonanedioic acid; phases: Liquid, Gas
Property: Critical temperature, K (Liquid); method: OTHER
Critical temperature, K	uncertainty
844	13

System: 1,10-decanedioic acid; phases: Liquid, Gas
Property: Critical pressure, kPa (Liquid); method: OTHER
Critical pressure, kPa	uncertainty
2500	100

System: 1,10-decanedioic acid; phases: Liquid, Gas
Property: Critical temperature, K (Liquid); method: OTHER
Critical temperature, K	uncertainty
845	13

System: 1,12-dodecanedioic acid; phases: Liquid, Gas
Property: Critical pressure, kPa (Liquid); method: OTHER
Critical pressure, kPa	uncertainty
2150	90

System: 1,12-dodecanedioic acid; phases: Liquid, Gas
Property: Critical temperature, K (Liquid); method: OTHER
Critical temperature, K	uncertainty
859	13

System: 1,12-dodecanedicarboxylic acid; phases: Liquid, Gas
Property: Critical pressure, kPa (Liquid); method: OTHER
Critical pressure, kPa	uncertainty
1900	80

System: 1,12-dodecanedicarboxylic acid; phases: Liquid, Gas
Property: Critical temperature, K (Liquid); method: OTHER
Critical temperature, K	uncertainty
862	13
