Measured thermophysical data. Solubility of CO2 in (CH3OH+H2O)
Source: J. Chem. Eng. Data, 2004, 10.1021/je049803i
Compound 1: methanol, CH4O, InChI=1S/CH4O/c1-2/h2H,1H3, purity 99.8%
Compound 2: carbon dioxide, CO2, InChI=1S/CO2/c2-1-3, purity 99.995%
Compound 3: water, H2O, InChI=1S/H2O/h1H2

System: methanol + carbon dioxide + water; phases: Liquid, Gas
Property: Vapor or sublimation pressure, kPa (Liquid); method: CCELL:UFactor:2
Temperature, K	Solvent: Mole fraction of methanol	Molality, mol/kg of carbon dioxide	Vapor or sublimation pressure, kPa	uncertainty
313.75	0.05	0.0896	368	12
313.75	0.05	0.2429	1024	14
313.75	0.05	0.494	2194	21
313.75	0.05	0.756	3637	30
313.75	0.05	1.006	5201	41
313.75	0.05	1.162	6548	53
313.75	0.05	1.305	8200	62
313.75	0.05	1.348	8927	68
313.75	0.1	0.1984	801	13
313.75	0.1	0.4381	1831	18
313.75	0.1	0.6341	2765	24
313.75	0.1	0.8309	3807	31
313.75	0.1	1.045	5127	40
313.75	0.1	1.151	5916	46
313.75	0.1	1.271	6833	53
313.75	0.1	1.336	7548	57
313.75	0.2515	0.4712	1564	16
313.75	0.2515	0.7921	2640	22
313.75	0.2515	0.9322	3139	25
313.75	0.2515	1.166	3996	30
313.75	0.2515	1.493	5406	39
313.75	0.2515	1.549	5568	41
313.75	0.2515	1.907	7352	54
313.75	0.2515	2.048	8275	60
313.75	0.2515	2.058	8451	61
313.75	0.4999	0.133	242	12
313.75	0.4999	0.4975	831	13
313.75	0.4999	1.215	1973	18
313.75	0.4999	2.206	3488	27
313.75	0.4999	3.18	4876	36
313.75	0.4999	3.774	5680	42
313.75	0.4999	4.612	6942	52
313.75	0.4999	4.828	7072	52
313.75	0.7508	0.551	648	13
313.75	0.7508	1.383	1393	16
313.75	0.7508	2.506	2312	21
313.75	0.7508	3.601	3105	25
313.75	0.7508	4.35	3604	28
313.75	0.7508	6.23	4733	36
313.75	0.7508	8.162	5630	43
313.75	0.7508	10.2	6407	50
313.75	0.7508	10.27	6434	50
313.75	0.7508	10.62	6605	51
313.75	0.7508	12.39	7105	53
313.75	0.7508	14.34	7488	55
313.75	0.9015	0.0501	71	12
313.75	0.9015	0.1445	140	12
313.75	0.9015	0.5472	421	13
313.75	0.9015	1.387	979	14
313.75	0.9015	3.193	2070	20
313.75	0.9015	5.034	3030	26
313.75	0.9015	7.549	4099	33
313.75	0.9015	8.908	4581	36
313.75	0.9015	11.58	5366	42
313.75	0.9015	14.18	5964	46
313.75	0.9015	19.45	6795	52
313.75	0.9015	27.63	7513	56
313.75	0.9015	32.14	7731	57
313.75	0.9015	42.29	7996	58
313.75	0.9527	0.3072	233	12
313.75	0.9527	1.403	904	14
313.75	0.9527	1.416	912	14
313.75	0.9527	3.974	2288	21
313.75	0.9527	6.04	3205	27
313.75	0.9527	6.728	3479	29
313.75	0.9527	10.76	4784	38
313.75	0.9527	15.88	5895	46
313.75	0.9527	23.39	6853	53
313.75	0.9527	28.4	7225	54
313.75	0.9527	39.87	7684	56
313.75	0.9527	55.04	7919	97
313.75	1	0.4403	296	12
313.75	1	1.201	724	14
313.75	1	2.127	1224	15
313.75	1	4.591	2385	22
313.75	1	7.584	3530	30
313.75	1	11.32	4626	37
313.75	1	16.88	5739	45
313.75	1	21.44	6349	50
313.75	1	25.02	6696	52
313.75	1	29.76	7036	53
313.75	1	40.28	7494	55
313.75	1	54.27	7745	95
313.75	1	70.71	7885	97
354.35	0.05	0.041	359	12
354.35	0.05	0.1545	1181	14
354.35	0.05	0.3516	2725	22
354.35	0.05	0.3517	2723	22
354.35	0.05	0.5317	4292	32
354.35	0.05	0.6979	5913	43
354.35	0.05	0.8432	7528	55
354.35	0.05	0.9634	8995	65
354.35	0.1	0.1771	1260	15
354.35	0.1	0.3225	2276	20
354.35	0.1	0.4651	3322	26
354.35	0.1	0.6042	4411	32
354.35	0.1	0.7401	5546	40
354.35	0.1	0.8677	6703	50
354.35	0.1	0.9855	7928	58
354.35	0.1	1.126	9447	68
354.35	0.2515	0.2885	1490	16
354.35	0.2515	0.5046	2496	21
354.35	0.2515	0.7258	3520	27
354.35	0.2515	0.9922	4838	35
354.35	0.2515	1.233	6023	45
354.35	0.2515	1.41	6965	51
354.35	0.2515	1.613	8136	58
354.35	0.2515	1.68	8486	61
354.35	0.2515	1.74	8855	63
354.35	0.4999	0.0654	297	12
354.35	0.4999	0.3346	937	14
354.35	0.4999	0.8117	2053	19
354.35	0.4999	1.493	3625	27
354.35	0.4999	2.187	5136	37
354.35	0.4999	3.034	6917	51
354.35	0.4999	3.573	7994	58
354.35	0.4999	3.967	8779	63
354.35	0.7508	0.5069	1008	14
354.35	0.7508	1.195	1956	18
354.35	0.7508	1.86	2867	23
354.35	0.7508	2.495	3677	28
354.35	0.7508	3.609	4965	36
354.35	0.7508	4.193	5578	41
354.35	0.7508	5.358	6641	49
354.35	0.7508	5.739	7111	52
354.35	0.7508	5.821	7182	53
354.35	0.7508	7.59	8606	62
354.35	0.9015	1.27	1653	17
354.35	0.9015	2.337	2746	23
354.35	0.9015	3.444	3789	29
354.35	0.9015	4.546	4734	35
354.35	0.9015	5.027	5110	38
354.35	0.9015	6.465	6183	47
354.35	0.9015	7.823	7016	52
354.35	0.9015	8.695	7592	56
354.35	0.9015	10.42	8454	62
354.35	0.9015	11.8	9157	68
354.35	0.9527	0.3724	587	13
354.35	0.9527	1.06	1306	15
354.35	0.9527	2.338	2539	21
354.35	0.9527	3.822	3824	29
354.35	0.9527	5.325	4976	37
354.35	0.9527	8.081	6749	51
354.35	0.9527	10.71	8111	59
354.35	0.9527	13.44	9263	69
354.35	1	0.6109	799	13
354.35	1	1.764	1883	18
354.35	1	2.904	2864	23
354.35	1	4.228	3902	30
354.35	1	5.942	5088	38
354.35	1	8.858	6786	51
354.35	1	11.12	7844	58
354.35	1	14.77	9259	68
395	0.05	0.0349	588	13
395	0.05	0.1205	1382	15
395	0.05	0.2704	2828	23
395	0.05	0.412	4277	31
395	0.05	0.5495	5771	42
395	0.05	0.6844	7349	53
395	0.05	0.7027	7574	55
395	0.05	0.8331	9251	66
395	0.1	0.1617	1649	16
395	0.1	0.2782	2618	21
395	0.1	0.3866	3542	27
395	0.1	0.4842	4400	32
395	0.1	0.5795	5266	38
395	0.1	0.6745	6150	46
395	0.1	0.7573	6968	51
395	0.1	0.8328	7721	56
395	0.1	0.9077	8495	61
395	0.1	1.043	9929	71
395	0.2515	0.2795	1963	18
395	0.2515	0.4785	2997	24
395	0.2515	0.6846	4103	30
395	0.2515	0.8967	5214	38
395	0.2515	1.143	6525	48
395	0.2515	1.251	7110	52
395	0.2515	1.429	8060	58
395	0.2515	1.532	8674	62
395	0.2515	1.629	9194	65
395	0.4999	0.3306	1460	16
395	0.4999	0.9145	3082	24
395	0.4999	0.935	3144	25
395	0.4999	1.446	4548	33
395	0.4999	2.041	6050	46
395	0.4999	2.781	7859	56
395	0.4999	3.137	8710	62
395	0.4999	3.4	9302	67
395	0.7508	0.4433	1540	16
395	0.7508	1.087	2720	22
395	0.7508	1.727	3797	29
395	0.7508	2.242	4611	34
395	0.7508	2.755	5424	39
395	0.7508	3.296	6139	46
395	0.7508	3.784	6860	51
395	0.7508	4.985	7964	57
395	0.9015	0.47	1412	16
395	0.9015	1.133	2379	20
395	0.9015	1.673	3165	25
395	0.9015	2.504	4266	31
395	0.9015	3.031	4895	36
395	0.9015	3.894	5916	43
395	0.9015	5.274	7353	54
395	0.9015	6.143	8166	59
395	0.9015	7.029	8946	65
395	0.9527	0.5355	1438	16
395	0.9527	1.095	2234	20
395	0.9527	1.843	3222	25
395	0.9527	2.555	4105	30
395	0.9527	3.705	5428	39
395	0.9527	4.882	6637	49
395	0.9527	6.306	7949	57
395	0.9527	7.801	9157	66
395	1	0.719	1664	17
395	1	1.149	2226	19
395	1	1.876	3132	25
395	1	2.738	4143	31
395	1	4.442	5935	43
395	1	6.057	7404	54
395	1	7.785	8696	63
395	1	9.192	9735	70

System: methanol + carbon dioxide; phases: Liquid, Gas
Property: Vapor or sublimation pressure, kPa (Liquid); method: CCELL:UFactor:2
Temperature, K	Molality, mol/kg of carbon dioxide	Vapor or sublimation pressure, kPa	uncertainty
313.75	0.4403	296	12
313.75	1.201	724	14
313.75	2.127	1224	15
313.75	4.591	2385	22
313.75	7.584	3530	30
313.75	11.32	4626	37
313.75	16.88	5739	45
313.75	21.44	6349	50
313.75	25.02	6696	52
313.75	29.76	7036	53
313.75	40.28	7494	55
313.75	54.27	7745	95
313.75	70.71	7885	97
354.35	0.6109	799	13
354.35	1.764	1883	18
354.35	2.904	2864	23
354.35	4.228	3902	30
354.35	5.942	5088	38
354.35	8.858	6786	51
354.35	11.12	7844	58
354.35	14.77	9259	68
395	0.719	1664	17
395	1.149	2226	19
395	1.876	3132	25
395	2.738	4143	31
395	4.442	5935	43
395	6.057	7404	54
395	7.785	8696	63
395	9.192	9735	70
