Measured thermophysical data. High-Pressure Vapor-Liquid Equilibria in the System Carbon Dioxide + 1-Butanol at Temperatures from (293.15 to 324.15) K
Source: J. Chem. Eng. Data, 2004, 10.1021/je0499521
Compound 1: carbon dioxide, CO2, InChI=1S/CO2/c2-1-3, purity 99.7%
Compound 2: butan-1-ol, C4H10O, InChI=1S/C4H10O/c1-2-3-4-5/h5H,2-4H2,1H3, purity 99.8%

System: butan-1-ol + carbon dioxide; phases: Liquid, Gas
Property: Vapor or sublimation pressure, kPa (Liquid); method: CCELL:UFactor:16
Mole fraction of carbon dioxide	Temperature, K	Vapor or sublimation pressure, kPa	uncertainty
0.0281	303.15	520	110
0.0322	313.15	570	110
0.0444	293.15	630	90
0.0485	313.15	850	110
0.0539	303.15	960	100
0.0882	313.15	1450	120
0.0884	293.15	1230	100
0.0886	324.15	1650	140
0.1307	303.15	1930	130
0.1398	324.15	2580	170
0.1424	313.15	2340	150
0.1761	293.15	2260	130
0.1926	324.15	3600	210
0.1939	303.15	2890	160
0.2004	313.15	3250	190
0.254	293.15	3090	160
0.2543	313.15	4040	220
0.2554	324.15	4600	250
0.2591	303.15	3620	200
0.2867	313.15	4580	270
0.2876	313.15	4600	270
0.2969	303.15	4250	220
0.3026	324.15	5630	300
0.3193	313.15	5030	260
0.3367	313.15	5230	270
0.3592	324.15	6380	330
0.3618	303.15	4960	250
0.3867	293.15	4310	220
0.3939	313.15	6090	310
0.4223	313.15	6360	320
0.424	313.15	6410	320
0.4265	303.15	5510	280
0.4466	324.15	7580	380
0.4511	324.15	7630	380
0.46	313.15	6670	330
0.4655	313.15	6750	340
0.4832	313.15	6820	340
0.4927	293.15	4950	250
0.5363	313.15	7230	360
0.5411	324.15	8390	420
0.5496	303.15	6120	310
0.5785	324.15	9040	460
0.595	313.15	7550	380
0.6	324.15	9110	450
0.6394	303.15	6480	320
0.6407	313.15	7770	390
0.6585	324.15	9460	470
0.6693	313.15	7960	400
0.7053	313.15	8060	400
0.7245	313.15	8070	400
0.7414	293.15	5460	270
0.7638	303.15	6650	330
0.7799	303.15	6680	330
0.7821	313.15	8110	400
0.8119	303.15	6700	330
0.8183	324.15	10000	500
0.8231	324.15	10050	500
0.8367	303.15	6740	340
0.8815	324.15	10090	500

System: butan-1-ol + carbon dioxide; phases: Gas, Liquid
Property: Mole fraction of carbon dioxide (Gas); method: OTHER
Mole fraction of carbon dioxide	Temperature, K	Mole fraction of carbon dioxide	uncertainty
0.0281	303.15	0.9926	0.006
0.0322	313.15	0.9916	0.0061
0.0444	293.15	0.9847	0.0061
0.0485	313.15	0.9943	0.0057
0.0539	303.15	0.9941	0.0059
0.0882	313.15	0.9978	0.0022
0.0884	293.15	0.9919	0.006
0.0886	324.15	0.9892	0.006
0.1307	303.15	0.9948	0.0052
0.1398	324.15	0.9929	0.006
0.1424	313.15	0.9982	0.0018
0.1761	293.15	0.9934	0.006
0.1926	324.15	0.996	0.004
0.1939	303.15	0.9949	0.0051
0.2004	313.15	0.9986	0.0014
0.254	293.15	0.9932	0.006
0.2543	313.15	0.9986	0.0014
0.2554	324.15	0.9963	0.0037
0.2591	303.15	0.9951	0.0049
0.2867	313.15	0.9986	0.0014
0.2876	313.15	0.9985	0.0015
0.2969	303.15	0.9952	0.0048
0.3026	324.15	0.9962	0.0038
0.3193	313.15	0.9986	0.0014
0.3367	313.15	0.9986	0.0014
0.3592	324.15	0.9958	0.0042
0.3618	303.15	0.9949	0.0051
0.3867	293.15	0.9933	0.006
0.3939	313.15	0.9982	0.0018
0.4223	313.15	0.9982	0.0018
0.424	313.15	0.9982	0.0018
0.4265	303.15	0.9948	0.0052
0.4466	324.15	0.9944	0.0056
0.4511	324.15	0.9946	0.0054
0.46	313.15	0.9978	0.0022
0.4655	313.15	0.9978	0.0022
0.4832	313.15	0.9975	0.0025
0.4927	293.15	0.993	0.006
0.5363	313.15	0.9972	0.0028
0.5411	324.15	0.9942	0.0058
0.5496	303.15	0.9944	0.0056
0.5785	324.15	0.9933	0.006
0.595	313.15	0.9969	0.0031
0.6	324.15	0.9929	0.006
0.6394	303.15	0.9941	0.0059
0.6407	313.15	0.9961	0.0039
0.6585	324.15	0.9919	0.006
0.6693	313.15	0.9958	0.0042
0.7053	313.15	0.9954	0.0046
0.7245	313.15	0.9952	0.0048
0.7414	293.15	0.9923	0.006
0.7638	303.15	0.9932	0.006
0.7799	303.15	0.9929	0.006
0.7821	313.15	0.9921	0.006
0.8119	303.15	0.9915	0.006
0.8183	324.15	0.989	0.0067
0.8231	324.15	0.9867	0.0067
0.8367	303.15	0.9914	0.006
0.8815	324.15	0.989	0.006
