Measured thermophysical data. Solid-Liquid Phase Equilibria of Binary and Ternary Mixtures for 2,6-Dimethylnaphthalene and 2,7-Dimethylnaphthalene with Ethanol or Methanol
Source: J. Chem. Eng. Data, 2005, 10.1021/je049607b
Compound 1: 2,6-dimethylnaphthalene, C12H12, InChI=1S/C12H12/c1-9-3-5-12-8-10(2)4-6-11(12)7-9/h3-8H,1-2H3
Compound 2: 2,7-dimethylnaphthalene, C12H12, InChI=1S/C12H12/c1-9-3-5-11-6-4-10(2)8-12(11)7-9/h3-8H,1-2H3
Compound 3: methanol, CH4O, InChI=1S/CH4O/c1-2/h2H,1H3
Compound 4: ethanol, C2H6O, InChI=1S/C2H6O/c1-2-3/h3H,2H2,1H3

System: 2,6-dimethylnaphthalene; phases: Crystal, Liquid, Air at 1 atmosphere
Property: Normal melting temperature, K (Crystal); method: VISOBS:FP
Normal melting temperature, K	uncertainty
385	

System: 2,7-dimethylnaphthalene; phases: Crystal, Liquid, Air at 1 atmosphere
Property: Normal melting temperature, K (Crystal); method: VISOBS:FP
Normal melting temperature, K	uncertainty
369.1	3

System: 2,6-dimethylnaphthalene + 2,7-dimethylnaphthalene; phases: Liquid, Crystal
Fixed: Pressure, kPa = 101.3
Property: Solid-liquid equilibrium temperature, K (Liquid); method: VISOBS:UFactor:8
Mole fraction of 2,6-dimethylnaphthalene	Solid-liquid equilibrium temperature, K	uncertainty
0.4	343	1
0.5	355	1
0.6	362	1
0.7	368	1
0.8	374	1
0.9	379	1
1	385	1

System: 2,6-dimethylnaphthalene + 2,7-dimethylnaphthalene; phases: Liquid, Crystal
Fixed: Pressure, kPa = 101.3
Property: Solid-liquid equilibrium temperature, K (Liquid); method: DTA:UFactor:8
Mole fraction of 2,6-dimethylnaphthalene	Solid-liquid equilibrium temperature, K	uncertainty
0	369.1	3.1
0.1	364.4	3.1
0.2	357.8	3.1
0.3	353	3.1
0.35	347.6	3.1
0.37	343.1	3.1
0.4	340.4	3.1

System: 2,6-dimethylnaphthalene + 2,7-dimethylnaphthalene; phases: Liquid, Crystal
Fixed: Pressure, kPa = 101.3
Property: Solid-liquid equilibrium temperature, K (Liquid); method: DTA:UFactor:8
Mole fraction of 2,6-dimethylnaphthalene	Solid-liquid equilibrium temperature, K	uncertainty
0.41	339	3.1
0.42	344	3.1
0.45	349.3	3.1
0.5	354.5	3.1
0.6	360.6	3.1
0.7	368	3.1
0.8	372.4	3.1
0.9	377.3	3.1
1	384.8	3.1

System: 2,6-dimethylnaphthalene + 2,7-dimethylnaphthalene; phases: Liquid, Crystal
Fixed: Pressure, kPa = 101.3
Property: Solid-liquid equilibrium temperature, K (Liquid); method: VISOBS:UFactor:8
Mole fraction of 2,6-dimethylnaphthalene	Solid-liquid equilibrium temperature, K	uncertainty
0	370	1
0.1	366	1
0.2	361	1
0.3	354	1

System: methanol + 2,7-dimethylnaphthalene; phases: Liquid, Crystal
Fixed: Pressure, kPa = 101.3
Property: Solid-liquid equilibrium temperature, K (Liquid); method: VISOBS:UFactor:16
Mole fraction of 2,7-dimethylnaphthalene	Solid-liquid equilibrium temperature, K	uncertainty
0.0094	248.5	2.5
0.013	257.1	2.5
0.0187	263	2.5
0.0261	270	2.5
0.0353	277.2	2.5
0.0414	281.4	2.5
0.068	291.1	2.5
0.0912	298.4	2.5
0.1291	305.1	2.5
0.1727	313.8	2.5
0.2353	323.3	2.5
0.2792	329	2.5
0.2959	331.8	2.5
0.3249	333	2.5

System: methanol + 2,7-dimethylnaphthalene; phases: Liquid, Crystal
Fixed: Pressure, kPa = 101.3
Property: Solid-liquid equilibrium temperature, K (Liquid); method: VISOBS:UFactor:16
Mole fraction of 2,7-dimethylnaphthalene	Solid-liquid equilibrium temperature, K	uncertainty
0.00699	273.15	2.48
0.01091	283.15	2.48
0.01678	293.15	2.48
0.02581	303.15	2.48
0.0397	313.15	2.48
0.06195	323.15	2.48
0.07683	328.15	2.48
0.09529	333.15	2.48

System: ethanol + 2,7-dimethylnaphthalene; phases: Liquid, Crystal
Fixed: Pressure, kPa = 101.3
Property: Solid-liquid equilibrium temperature, K (Liquid); method: VISOBS:UFactor:16
Mole fraction of 2,7-dimethylnaphthalene	Solid-liquid equilibrium temperature, K	uncertainty
0.0094	246.3	2.5
0.0153	258	2.5
0.0208	267	2.5
0.0303	276.1	2.5
0.0378	280.8	2.5
0.0537	288.5	2.5
0.0693	295.8	2.5
0.0846	301	2.5
0.1047	306.4	2.5
0.1249	309.8	2.5
0.148	314.3	2.5
0.2014	323.4	2.5
0.2458	329.3	2.5
0.2762	335.6	2.5
0.3407	341.1	2.5
0.3963	347.3	2.5

System: ethanol + 2,7-dimethylnaphthalene; phases: Liquid, Crystal
Fixed: Pressure, kPa = 101.3
Property: Solid-liquid equilibrium temperature, K (Liquid); method: VISOBS:UFactor:16
Mole fraction of 2,7-dimethylnaphthalene	Solid-liquid equilibrium temperature, K	uncertainty
0.00938	273.15	2.48
0.01413	283.15	2.48
0.0316	293.15	2.48
0.04758	303.15	2.48
0.07065	313.15	2.48
0.08609	323.15	2.48
0.1064	328.15	2.48
0.13043	333.15	2.48

System: methanol + 2,6-dimethylnaphthalene; phases: Liquid, Crystal
Fixed: Pressure, kPa = 101.3
Property: Solid-liquid equilibrium temperature, K (Liquid); method: VISOBS:UFactor:16
Mole fraction of 2,6-dimethylnaphthalene	Solid-liquid equilibrium temperature, K	uncertainty
0.00488	273.15	2.48
0.0076	283.15	2.48
0.01168	293.15	2.48
0.01795	303.15	2.48
0.02798	313.15	2.48
0.04298	323.15	2.48
0.05328	328.15	2.48
0.06604	333.15	2.48

System: ethanol + 2,6-dimethylnaphthalene; phases: Liquid, Crystal
Fixed: Pressure, kPa = 101.3
Property: Solid-liquid equilibrium temperature, K (Liquid); method: VISOBS:UFactor:16
Mole fraction of 2,6-dimethylnaphthalene	Solid-liquid equilibrium temperature, K	uncertainty
0.00601	273.15	2.48
0.00934	283.15	2.48
0.01885	293.15	2.48
0.02502	303.15	2.48
0.03447	313.15	2.48
0.04062	323.15	2.48
0.04597	328.15	2.48
0.05213	333.15	2.48

System: methanol + 2,6-dimethylnaphthalene + 2,7-dimethylnaphthalene; phases: Liquid, Crystal
Fixed: Pressure, kPa = 101.3
Property: Solid-liquid equilibrium temperature, K (Liquid); method: VISOBS:UFactor:16
Mole fraction of 2,6-dimethylnaphthalene	Mole fraction of 2,7-dimethylnaphthalene	Solid-liquid equilibrium temperature, K	uncertainty
0	0.00699	273.15	2.48
0	0.01091	283.15	2.48
0	0.01678	293.15	2.48
0	0.02581	303.15	2.48
0	0.0397	313.15	2.48
0	0.06195	323.15	2.48
0	0.07683	328.15	2.48
0	0.09529	333.15	2.48
0.0009	0.00812	273.15	2.48
0.00133	0.01199	283.15	2.48
0.00196	0.01769	293.15	2.48
0.0029	0.0261	303.15	2.48
0.00428	0.03852	313.15	2.48
0.00451	0.0105	273.15	2.48
0.00488	0	273.15	2.48
0.00592	0.00058	273.15	2.48
0.00622	0.01452	283.15	2.48
0.00632	0.05685	323.15	2.48
0.00728	0.00313	273.15	2.48
0.0076	0	283.15	2.48
0.00762	0.0686	328.15	2.48
0.00839	0.0084	273.15	2.48
0.0086	0.02007	293.15	2.48
0.00906	0.0009	283.15	2.48
0.0092	0.08278	333.15	2.48
0.01062	0.00455	283.15	2.48
0.01168	0	293.15	2.48
0.01189	0.02774	303.15	2.48
0.01209	0.01209	283.15	2.48
0.01234	0.01851	273.15	2.48
0.01372	0.00136	293.15	2.48
0.01568	0.00672	293.15	2.48
0.01643	0.03834	313.15	2.48
0.01692	0.02538	283.15	2.48
0.01719	0.01719	293.15	2.48
0.01795	0	303.15	2.48
0.02076	0.00205	303.15	2.48
0.02271	0.053	323.15	2.48
0.02285	0.00979	303.15	2.48
0.02321	0.03481	293.15	2.48
0.02474	0.02474	303.15	2.48
0.02685	0.06266	328.15	2.48
0.02798	0	313.15	2.48
0.03139	0.07325	333.15	2.48
0.03182	0.00315	313.15	2.48
0.03183	0.04774	303.15	2.48
0.03374	0.01446	313.15	2.48
0.03561	0.03561	313.15	2.48
0.04298	0	323.15	2.48
0.04366	0.06548	313.15	2.48
0.04814	0.00477	323.15	2.48
0.04982	0.02135	323.15	2.48
0.05065	0.05065	323.15	2.48
0.05328	0	328.15	2.48
0.05922	0.00586	328.15	2.48
0.05987	0.08981	323.15	2.48
0.06013	0.02577	328.15	2.48
0.06076	0.06076	328.15	2.48
0.06604	0	333.15	2.48
0.0705	0.10576	328.15	2.48
0.07191	0.00711	333.15	2.48
0.07202	0.07202	333.15	2.48
0.07258	0.03111	333.15	2.48
0.08212	0.12318	333.15	2.48

System: ethanol + 2,6-dimethylnaphthalene + 2,7-dimethylnaphthalene; phases: Liquid, Crystal
Fixed: Pressure, kPa = 101.3
Property: Solid-liquid equilibrium temperature, K (Liquid); method: VISOBS:UFactor:16
Mole fraction of 2,6-dimethylnaphthalene	Mole fraction of 2,7-dimethylnaphthalene	Solid-liquid equilibrium temperature, K	uncertainty
0	0.00938	273.15	2.48
0	0.01413	283.15	2.48
0	0.0316	293.15	2.48
0	0.04758	303.15	2.48
0	0.07065	313.15	2.48
0	0.08609	323.15	2.48
0	0.1064	328.15	2.48
0	0.13043	333.15	2.48
0.00109	0.00989	273.15	2.48
0.0017	0.01528	283.15	2.48
0.00344	0.03136	293.15	2.48
0.00387	0.00904	273.15	2.48
0.00489	0.04375	303.15	2.48
0.00594	0.00066	273.15	2.48
0.00601	0	273.15	2.48
0.00632	0.00633	273.15	2.48
0.00639	0.01492	283.15	2.48
0.00655	0.00282	273.15	2.48
0.00719	0.06263	313.15	2.48
0.00795	0.01193	273.15	2.48
0.00849	0.0747	323.15	2.48
0.00934	0	283.15	2.48
0.00934	0.00104	283.15	2.48
0.00999	0.00998	283.15	2.48
0.01019	0.0926	328.15	2.48
0.01044	0.00447	283.15	2.48
0.01195	0.01793	283.15	2.48
0.01228	0.11053	333.15	2.48
0.0142	0.03398	293.15	2.48
0.01801	0.00212	293.15	2.48
0.01885	0	293.15	2.48
0.01888	0.01888	293.15	2.48
0.01894	0.00804	293.15	2.48
0.02108	0.0036	303.15	2.48
0.02398	0.04995	303.15	2.48
0.02502	0	303.15	2.48
0.02523	0.02523	303.15	2.48
0.02524	0.01225	303.15	2.48
0.02601	0.03902	293.15	2.48
0.02955	0.00542	313.15	2.48
0.03447	0	313.15	2.48
0.03488	0.01633	313.15	2.48
0.03491	0.03491	313.15	2.48
0.03498	0.00652	323.15	2.48
0.03792	0.07784	313.15	2.48
0.03861	0.05792	303.15	2.48
0.04062	0	323.15	2.48
0.04133	0.01886	323.15	2.48
0.04138	0.04138	323.15	2.48
0.04142	0.00773	328.15	2.48
0.04597	0	328.15	2.48
0.04653	0.09208	323.15	2.48
0.04901	0.02099	328.15	2.48
0.04902	0.04902	328.15	2.48
0.05094	0.00566	333.15	2.48
0.05213	0	333.15	2.48
0.05357	0.05357	333.15	2.48
0.0541	0.12623	333.15	2.48
0.05773	0.10763	328.15	2.48
0.0578	0.02477	333.15	2.48
0.05806	0.08709	313.15	2.48
0.07029	0.10544	323.15	2.48
0.08619	0.12929	328.15	2.48
0.11429	0.17143	333.15	2.48
