Measured thermophysical data. Thermodynamics of Phase and Chemical Equilibrium in a Strongly Nonideal Esterification System.
Source: J. Chem. Eng. Data, 2005, 10.1021/je0498199
Compound 1: acetic acid, C2H4O2, InChI=1S/C2H4O2/c1-2(3)4/h1H3,(H,3,4), purity 99.8%
Compound 2: butan-1-ol, C4H10O, InChI=1S/C4H10O/c1-2-3-4-5/h5H,2-4H2,1H3, purity 99.8%
Compound 3: butyl ethanoate, C6H12O2, InChI=1S/C6H12O2/c1-3-4-5-8-6(2)7/h3-5H2,1-2H3, purity 99.5%
Compound 4: water, H2O, InChI=1S/H2O/h1H2

System: butyl ethanoate + water; phases: Liquid mixture 1, Liquid mixture 2
Fixed: Pressure, kPa = 101
Property: Mole fraction of water (Liquid mixture 1); method: Chromatography
Temperature, K	Mole fraction of water	uncertainty
348.15	0.092	0.001
353.15	0.118	0.001
358.15	0.102	0.001
363.15	0.129	0.001
368.15	0.125	0.001
373.15	0.15	0.002
378.15	0.146	0.002
383.15	0.166	0.002
388.15	0.2	0.002
393.15	0.21	0.002
398.15	0.213	0.002

System: butyl ethanoate + water; phases: Liquid mixture 2, Liquid mixture 1
Fixed: Pressure, kPa = 101
Property: Mole fraction of water (Liquid mixture 2); method: Chromatography
Temperature, K	Mole fraction of water	uncertainty
348.15	0.995	0.001
353.15	0.997	0.001
358.15	0.99	0.001
363.15	0.994	0.001
368.15	0.992	0.001
373.15	0.993	0.001
378.15	0.994	0.001
383.15	0.991	0.001
388.15	0.985	0.001
393.15	0.99	0.001
398.15	0.994	0.001

System: butan-1-ol + butyl ethanoate + water; phases: Liquid mixture 2, Liquid mixture 1
Fixed: Pressure, kPa = 101
Property: Mole fraction of butyl ethanoate (Liquid mixture 2); method: Chromatography
Temperature, K	Mole fraction of water	Mole fraction of butyl ethanoate	uncertainty
353.15	0.125	0.792	0.002
353.15	0.196	0.602	0.004
353.15	0.288	0.409	0.004
353.15	0.386	0.233	0.002
353.15	0.503	0.08	0.001
373.15	0.169	0.762	0.002
373.15	0.22	0.587	0.004
373.15	0.319	0.387	0.004
373.15	0.432	0.209	0.002
373.15	0.57	0.064	0.001
393.15	0.267	0.578	0.004
393.15	0.346	0.401	0.004
393.15	0.591	0.095	0.001
393.15	0.473	0.191	0.002
393.15	0.241	0.626	0.004

System: butan-1-ol + butyl ethanoate + water; phases: Liquid mixture 1, Liquid mixture 2
Fixed: Pressure, kPa = 101
Property: Mole fraction of butan-1-ol (Liquid mixture 1); method: Chromatography
Temperature, K	Mole fraction of butyl ethanoate	Mole fraction of butan-1-ol	uncertainty
353.15	0.003	0.003	0.001
353.15	0.002	0.006	0.001
353.15	0.003	0.009	0.001
353.15	0.002	0.013	0.001
353.15	0.001	0.017	0.001
373.15	0.008	0.003	0.001
373.15	0.005	0.007	0.001
373.15	0.006	0.012	0.001
373.15	0.003	0.015	0.001
373.15	0.002	0.021	0.001
393.15	0.005	0.005	0.001
393.15	0.006	0.012	0.001
393.15	0.003	0.026	0.001
393.15	0.003	0.018	0.001
393.15	0.009	0.006	0.001

Reaction: -1 acetic acid + -1 butan-1-ol + 1 butyl ethanoate + 1 water
Property: Equilibrium constant in terms of mole fraction
5
2.7
3.1
4.5
6.2
4.1
5.7
7.5
9.2
5.6
6.7
4.6
7.8
4
3.4
2.9
6.4
5.5
6.5
3.1
6
5.2
5
2.7
4.2
4.5
4.2
4.8
5.3
5.2
4.4
5.5
2.9
2.4
4
5.7
7.2
7.2
7.2
5.2
3.9
6.8
4.6
9.4
6.3
4
6.5
6.5
8
6.6
5.6
3.1
3.2
3
3
4.9
1.7
2.5
4.4
4.3
4.2
4.1
4.7
4.2
5.2
6.1
4.5
5.3
3.2
3.8
5.8
3.1
4.6
3
6.6
5.2
2.4
2.3
11.2
4.4
4.2
4.2
4
4.4
4.2
4.8
4.9
4.4
5
5
2.9
