Measured thermophysical data. Octanol/Water Partition Coefficient of Selected Herbicides: Determination Using Shake-Flask Method and Reversed-Phase High-Performance Liquid Chromatography
Source: J. Chem. Eng. Data, 2004, 10.1021/je049947x
Compound 1: 2-chloro-N-(2,6-dimethylphenyl)-N-(1H-pyrazol-1-ylmethyl)acetamide, C14H16ClN3O, InChI=1S/C14H16ClN3O/c1-11-5-3-6-12(2)14(11)18(13(19)9-15)10-17-8-4-7-16-17/h3-8H,9-10H2,1-2H3
Compound 2: methabenzthiazuron, C10H11N3OS, InChI=1S/C10H11N3OS/c1-11-9(14)13(2)10-12-7-5-3-4-6-8(7)15-10/h3-6H,1-2H3,(H,11,14)
Compound 3: N'-[4-(4-chlorophenoxy)phenyl]-N,N-dimethylurea, C15H15ClN2O2, InChI=1S/C15H15ClN2O2/c1-18(2)15(19)17-12-5-9-14(10-6-12)20-13-7-3-11(16)4-8-13/h3-10H,1-2H3,(H,17,19)
Compound 4: s-triazine, 2-amino-4-chloro-6-(ethylamino)-, C5H8ClN5, InChI=1S/C5H8ClN5/c1-2-8-5-10-3(6)9-4(7)11-5/h2H2,1H3,(H3,7,8,9,10,11)
Compound 5: s-triazine, 2-amino-4-chloro-6-(isopropylamino)-, C6H10ClN5, InChI=1S/C6H10ClN5/c1-3(2)9-6-11-4(7)10-5(8)12-6/h3H,1-2H3,(H3,8,9,10,11,12)
Compound 6: 6-chloro-N-ethyl-N'-(1-methylpropyl)-1,3,5-triazine-2,4-diamine, C9H16ClN5, InChI=1S/C9H16ClN5/c1-4-6(3)12-9-14-7(10)13-8(15-9)11-5-2/h6H,4-5H2,1-3H3,(H2,11,12,13,14,15)
Compound 7: 6-chloro-N-ethyl-N'-(1-methylethyl)-1,3,5-triazine-2,4-diamine, C8H14ClN5, InChI=1S/C8H14ClN5/c1-4-10-7-12-6(9)13-8(14-7)11-5(2)3/h5H,4H2,1-3H3,(H2,10,11,12,13,14)
Compound 8: water, H2O, InChI=1S/H2O/h1H2
Compound 9: octan-1-ol, C8H18O, InChI=1S/C8H18O/c1-2-3-4-5-6-7-8-9/h9H,2-8H2,1H3

System: octan-1-ol + water + methabenzthiazuron; phases: Liquid mixture 1, Liquid mixture 2
Property: Amount concentration (molarity), mol/dm3 of methabenzthiazuron (Liquid mixture 1); method: OTHER
Temperature, K	Amount concentration (molarity), mol/dm3 of methabenzthiazuron	Pressure, kPa	Amount concentration (molarity), mol/dm3 of methabenzthiazuron	uncertainty
298.15	0	101.3	339	16

System: octan-1-ol + N'-[4-(4-chlorophenoxy)phenyl]-N,N-dimethylurea + water; phases: Liquid mixture 1, Liquid mixture 2
Property: Amount concentration (molarity), mol/dm3 of water (Liquid mixture 1); method: OTHER
Temperature, K	Amount concentration (molarity), mol/dm3 of N'-[4-(4-chlorophenoxy)phenyl]-N,N-dimethylurea	Pressure, kPa	Amount concentration (molarity), mol/dm3 of water	uncertainty
298.15	0	101.3	6166	1962

System: octan-1-ol + s-triazine, 2-amino-4-chloro-6-(ethylamino)- + water; phases: Liquid mixture 1, Liquid mixture 2
Property: Amount concentration (molarity), mol/dm3 of water (Liquid mixture 1); method: OTHER
Temperature, K	Amount concentration (molarity), mol/dm3 of s-triazine, 2-amino-4-chloro-6-(ethylamino)-	Pressure, kPa	Amount concentration (molarity), mol/dm3 of water	uncertainty
298.15	0	101.3	11	1

System: octan-1-ol + s-triazine, 2-amino-4-chloro-6-(isopropylamino)- + water; phases: Liquid mixture 1, Liquid mixture 2
Property: Amount concentration (molarity), mol/dm3 of water (Liquid mixture 1); method: OTHER
Temperature, K	Amount concentration (molarity), mol/dm3 of s-triazine, 2-amino-4-chloro-6-(isopropylamino)-	Pressure, kPa	Amount concentration (molarity), mol/dm3 of water	uncertainty
298.15	0	101.3	30.9	0.8

System: octan-1-ol + 6-chloro-N-ethyl-N'-(1-methylpropyl)-1,3,5-triazine-2,4-diamine + water; phases: Liquid mixture 1, Liquid mixture 2
Property: Amount concentration (molarity), mol/dm3 of water (Liquid mixture 1); method: OTHER
Temperature, K	Amount concentration (molarity), mol/dm3 of 6-chloro-N-ethyl-N'-(1-methylpropyl)-1,3,5-triazine-2,4-diamine	Pressure, kPa	Amount concentration (molarity), mol/dm3 of water	uncertainty
298.15	0	101.3	1698	252

System: octan-1-ol + 6-chloro-N-ethyl-N'-(1-methylethyl)-1,3,5-triazine-2,4-diamine + water; phases: Liquid mixture 1, Liquid mixture 2
Property: Amount concentration (molarity), mol/dm3 of water (Liquid mixture 1); method: OTHER
Temperature, K	Amount concentration (molarity), mol/dm3 of 6-chloro-N-ethyl-N'-(1-methylethyl)-1,3,5-triazine-2,4-diamine	Pressure, kPa	Amount concentration (molarity), mol/dm3 of water	uncertainty
298.15	0	101.3	427	74

System: octan-1-ol + water + 2-chloro-N-(2,6-dimethylphenyl)-N-(1H-pyrazol-1-ylmethyl)acetamide; phases: Liquid mixture 1, Liquid mixture 2
Property: Amount concentration (molarity), mol/dm3 of water (Liquid mixture 1); method: OTHER
Temperature, K	Amount concentration (molarity), mol/dm3 of 2-chloro-N-(2,6-dimethylphenyl)-N-(1H-pyrazol-1-ylmethyl)acetamide	Pressure, kPa	Amount concentration (molarity), mol/dm3 of water	uncertainty
298.15	0	101.3	166	12
