Measured thermophysical data. Acoustical Properties of Aqueous Solutions of Urea: Reference Data for the Ultrasonic Spectrometry of Liquids
Source: J. Chem. Eng. Data, 2004, 10.1021/je049971a
Compound 1: urea, CH4N2O, InChI=1S/CH4N2O/c2-1(3)4/h(H4,2,3,4)
Compound 2: water, H2O, InChI=1S/H2O/h1H2

System: urea + water; phases: Liquid
Fixed: Pressure, kPa = 101
Property: Speed of sound, m/s (Liquid); method: Pulse-echo method
Amount concentration (molarity), mol/dm3 of urea	Temperature, K	Speed of sound, m/s	uncertainty
2.051	308.15	1564.8	2.5
2.059	298.15	1548.9	2.5
2.065	288.15	1527.2	2.4
3.124	308.15	1587.1	2.5
3.139	298.15	1574.8	2.5
3.148	288.15	1557.2	2.5
4.232	308.15	1610.9	2.5
4.253	298.15	1601.1	2.5
4.269	288.15	1587.6	2.5
4.275	283.1	1578.8	2.5
5.378	308.15	1633.2	2.6
5.405	298.15	1627.1	2.6
5.421	288.15	1617	2.5
7.765	308.15	1680.9	2.6
7.802	298.15	1680.3	2.6
7.839	288.15	1676.8	2.6
9.021	308.15	1704.1	2.7
9.069	298.15	1706.3	2.7
9.106	288.15	1706.5	2.7

System: urea + water; phases: Liquid
Fixed: Pressure, kPa = 101
Property: Mass density, kg/m3 (Liquid); method: VIBTUB:UFactor:64
Amount concentration (molarity), mol/dm3 of urea	Temperature, K	Mass density, kg/m3	uncertainty
2.051	308.15	1026	3
2.059	298.15	1030	3
2.065	288.15	1032	3
3.124	308.15	1041	4
3.139	298.15	1047	4
3.148	288.15	1049	4
4.232	308.15	1058	4
4.253	298.15	1063	4
4.269	288.15	1067	4
4.275	283.1	1069	4
5.378	308.15	1076	4
5.405	298.15	1081	4
5.421	288.15	1084	4
7.765	308.15	1109	5
7.802	298.15	1115	5
7.839	288.15	1120	5
9.021	308.15	1128	5
9.069	298.15	1134	5
9.106	288.15	1138	6
