Measured thermophysical data. Isochoric PVTx measurements for CO2 + N2O binary system
Source: J. Chem. Eng. Data, 2005, 10.1021/je049633+
Compound 1: nitrous oxide, N2O, InChI=1S/N2O/c1-2-3
Compound 2: carbon dioxide, CO2, InChI=1S/CO2/c2-1-3

System: carbon dioxide + nitrous oxide; phases: Gas
Property: Molar volume, m3/mol (Gas); method: ISOCHOR
Temperature, K	Pressure, kPa	Mole fraction of carbon dioxide	Molar volume, m3/mol	uncertainty
238.1	1004.5	0.5959	0.001705	3e-06
238.1	1194.6	0.6953	0.001286	3e-06
243.07	1032.4	0.5959	0.001705	3e-06
243.09	1317	0.6953	0.001286	3e-06
248.05	1059.7	0.5959	0.001706	3e-06
248.11	1355.8	0.6953	0.001286	3e-06
253.04	1086.8	0.5959	0.001706	3e-06
253.1	1393.5	0.6953	0.001287	3e-06
258.09	2081.3	0.1499	0.000805	2e-06
258.11	1431.2	0.6953	0.001287	3e-06
263.02	2626.7	0.9071	0.000638	1e-06
263.06	2148.3	0.1499	0.000805	2e-06
263.08	1140.7	0.5959	0.001707	3e-06
263.08	1469	0.6953	0.001287	3e-06
263.09	2245.7	0.2607	0.000759	2e-06
263.1	2436.3	0.4754	0.000668	1e-06
268.02	2719.9	0.9071	0.000635	1e-06
268.03	2212.6	0.1499	0.000806	2e-06
268.04	1168.2	0.5959	0.001707	3e-06
268.05	1505.5	0.6953	0.001287	3e-06
268.08	2515.8	0.4754	0.000669	1e-06
268.08	2813.7	0.3585	0.000579	1e-06
268.08	2907.1	0.7478	0.000559	1e-06
272.93	1194.4	0.5959	0.001708	3e-06
272.93	3330.4	0.6929	0.000486	1e-06
272.94	1541.4	0.6953	0.001288	3e-06
272.95	2909.1	0.3585	0.00058	1e-06
272.98	3090.5	0.0902	0.000512	1e-06
273.04	2808.9	0.9071	0.000636	1e-06
273.05	2384.1	0.2607	0.000759	2e-06
273.06	3007.9	0.7478	0.000559	1e-06
273.07	2593.6	0.4754	0.000669	1e-06
273.12	2276.8	0.1499	0.000806	2e-06
277.82	3196.6	0.0902	0.000513	1e-06
277.86	3791	0.6099	0.000401	1e-06
277.87	3104	0.7478	0.000559	1e-06
277.94	3453.5	0.6929	0.000486	1e-06
282.66	3300.1	0.0902	0.000513	1e-06
282.82	2743.7	0.4754	0.000669	1e-06
282.82	3939.5	0.6099	0.000401	1e-06
282.83	1245.4	0.5959	0.001708	3e-06
282.83	1612.9	0.6953	0.001288	3e-06
282.83	4250.2	0.8378	0.00036	1e-06
282.84	3094.9	0.3585	0.00058	1e-06
282.9	2980	0.9071	0.000636	1e-06
283.01	2401.3	0.1499	0.000806	2e-06
283.01	2518.2	0.2607	0.000759	2e-06
283.01	3203.9	0.7478	0.00056	1e-06
283.01	3574.6	0.6929	0.000486	1e-06
292.79	3511.2	0.0902	0.000513	1e-06
292.89	4229.6	0.6099	0.000401	1e-06
292.97	1685.2	0.6953	0.001289	3e-06
292.97	2524.4	0.1499	0.000806	2e-06
292.98	1297.8	0.5959	0.001709	3e-06
292.98	3279.6	0.3585	0.00058	1e-06
292.99	3397	0.7478	0.00056	1e-06
292.99	4597	0.8378	0.00036	1e-06
293.06	2897.6	0.4754	0.000669	1e-06
293.06	3153.2	0.9071	0.000636	1e-06
293.06	3809.7	0.6929	0.000486	1e-06
293.11	2651.8	0.2607	0.00076	2e-06
297.92	4370.8	0.6099	0.000401	1e-06
298.04	1323.7	0.5959	0.001709	3e-06
298.04	2970.8	0.4754	0.000669	1e-06
298.04	3235.8	0.9071	0.000636	1e-06
298.04	3923.4	0.6929	0.000486	1e-06
298.05	3617.5	0.0902	0.000513	1e-06
298.06	3490.8	0.7478	0.00056	1e-06
299.02	4795.1	0.8378	0.00036	1e-06
302.04	2647.7	0.1499	0.000807	2e-06
303.02	3458.7	0.3585	0.00058	1e-06
303.13	2781.5	0.2607	0.00076	2e-06
307.87	4646.1	0.6099	0.000401	1e-06
307.97	3546.3	0.3585	0.00058	1e-06
308	1375.9	0.5959	0.00171	3e-06
308	1790.6	0.6953	0.00129	3e-06
308	4148.1	0.6929	0.000486	1e-06
308.01	3399.4	0.9071	0.000637	1e-06
308.02	3818.3	0.0902	0.000513	1e-06
308.03	3676.1	0.7478	0.00056	1e-06
308.07	2845	0.2607	0.00076	2e-06
308.09	5087.6	0.8378	0.00036	1e-06
308.13	3117.6	0.4754	0.00067	1e-06
312.22	2766.9	0.1499	0.000807	2e-06
317.84	4915.4	0.6099	0.000401	1e-06
318.01	2971.6	0.2607	0.000761	2e-06
318.02	5401.8	0.8378	0.000361	1e-06
318.04	3722.1	0.3585	0.000581	1e-06
318.05	4013.5	0.0902	0.000513	1e-06
318.11	1427.6	0.5959	0.001711	3e-06
318.11	3261.7	0.4754	0.00067	1e-06
318.12	1861.3	0.6953	0.00129	3e-06
318.12	3563	0.9071	0.000637	1e-06
318.12	4371.8	0.6929	0.000486	1e-06
318.13	3860.5	0.7478	0.00056	1e-06
322.91	5554.6	0.8378	0.000361	1e-06
323.11	2885.7	0.1499	0.000807	2e-06
323.12	5055.4	0.6099	0.000401	1e-06
327.94	3893.1	0.3585	0.000581	1e-06
327.98	3097.5	0.2607	0.000761	2e-06
328	5712	0.8378	0.000361	1e-06
328.09	1478.4	0.5959	0.001712	3e-06
328.09	3404	0.4754	0.00067	1e-06
328.1	1930.7	0.6953	0.001291	3e-06
328.1	3722.5	0.9071	0.000637	1e-06
328.1	4040.6	0.7478	0.000561	1e-06
328.1	4589.4	0.6929	0.000487	1e-06
328.11	4212.5	0.0902	0.000514	1e-06
328.11	5188.2	0.6099	0.000402	1e-06
333.09	3003.3	0.1499	0.000808	2e-06
333.1	5868.1	0.8378	0.000361	1e-06
338.03	4402.1	0.0902	0.000514	1e-06
338.07	1529	0.5959	0.001712	3e-06
338.07	4218.4	0.7478	0.000561	1e-06
338.07	4804.3	0.6929	0.000487	1e-06
338.08	1999.6	0.6953	0.001291	3e-06
338.08	3880.7	0.9071	0.000637	1e-06
338.08	4065.8	0.3585	0.000581	1e-06
338.09	3223.8	0.2607	0.000761	2e-06
338.09	5449.4	0.6099	0.000402	1e-06
338.11	3545.6	0.4754	0.000671	1e-06
343.08	3119.8	0.1499	0.000808	2e-06
343.08	5578.9	0.6099	0.000402	1e-06
348.02	4592.8	0.0902	0.000514	1e-06
348.05	3346.9	0.2607	0.000762	2e-06
348.05	3684.7	0.4754	0.000671	1e-06
348.06	1579.5	0.5959	0.001713	3e-06
348.06	2068.1	0.6953	0.001292	3e-06
348.06	4036.9	0.9071	0.000638	1e-06
348.06	4394.9	0.7478	0.000561	1e-06
348.06	5017.1	0.6929	0.000487	1e-06
348.07	4234.7	0.3585	0.000582	1e-06
353.04	3235.1	0.1499	0.000809	2e-06
357.91	4567	0.7478	0.000561	1e-06
357.95	2135.6	0.6953	0.001293	3e-06
357.99	1629.5	0.5959	0.001714	4e-06
357.99	5226.8	0.6929	0.000487	1e-06
358.02	3469.7	0.2607	0.000762	2e-06
358.02	3823.2	0.4754	0.000671	1e-06
358.03	4191.9	0.9071	0.000638	1e-06
358.04	3292.6	0.1499	0.000809	2e-06
358.04	4401.6	0.3585	0.000582	1e-06
