Measured thermophysical data. Speed of Sound, Density, and Compressibility of Alkyl-Benzenes as a Function of Pressure and Temperature: Heptadecylbenzene and Octadecylbenzene
Source: J. Chem. Eng. Data, 2004, 10.1021/je049973v
Compound 1: heptadecane, 1-phenyl-, C23H40, InChI=1S/C23H40/c1-2-3-4-5-6-7-8-9-10-11-12-13-14-15-17-20-23-21-18-16-19-22-23/h16,18-19,21-22H,2-15,17,20H2,1H3
Compound 2: octadecylbenzene, C24H42, InChI=1S/C24H42/c1-2-3-4-5-6-7-8-9-10-11-12-13-14-15-16-18-21-24-22-19-17-20-23-24/h17,19-20,22-23H,2-16,18,21H2,1H3

System: heptadecane, 1-phenyl-; phases: Liquid
Property: Speed of sound, m/s (Liquid); method: Pulse-echo method
Pressure, kPa	Temperature, K	Speed of sound, m/s	uncertainty
100	303.15	1422.6	3.5
100	313.15	1387.1	3.5
100	323.15	1352.6	3.4
100	333.15	1319.9	3.4
100	343.15	1287	3.3
100	353.15	1255.2	3.3
100	363.15	1223.6	3.2
100	373.15	1193	3.2
10000	303.15	1467.5	3.6
10000	313.15	1433.6	3.6
10000	323.15	1402.3	3.5
10000	333.15	1370.2	3.5
10000	343.15	1338.7	3.4
10000	353.15	1308.6	3.3
10000	363.15	1278.7	3.3
10000	373.15	1249.5	3.3
20000	303.15	1510.9	3.7
20000	313.15	1479.2	3.6
20000	323.15	1447.9	3.6
20000	333.15	1417.3	3.5
20000	343.15	1387.3	3.5
20000	353.15	1359.3	3.4
20000	363.15	1330.3	3.4
20000	373.15	1302.6	3.3
30000	303.15	1552	3.8
30000	313.15	1520.4	3.7
30000	323.15	1490.8	3.7
30000	333.15	1461.4	3.6
30000	343.15	1432.3	3.6
30000	353.15	1405.3	3.5
30000	363.15	1378	3.5
30000	373.15	1351.4	3.4
40000	303.15	1590.5	3.8
40000	313.15	1559.7	3.8
40000	323.15	1531.1	3.7
40000	333.15	1502.9	3.7
40000	343.15	1475.5	3.6
40000	353.15	1448.5	3.6
40000	363.15	1422.2	3.5
40000	373.15	1396.8	3.5
50000	303.15	1627.2	3.9
50000	313.15	1597.9	3.8
50000	323.15	1569.2	3.8
50000	333.15	1542.1	3.7
50000	343.15	1515.3	3.7
50000	353.15	1489.5	3.7
50000	363.15	1464	3.6
50000	373.15	1439.2	3.6
60000	303.15	1661.9	3.9
60000	313.15	1633.6	3.9
60000	323.15	1605.8	3.9
60000	333.15	1579.2	3.8
60000	343.15	1553.3	3.8
60000	353.15	1528.3	3.7
60000	363.15	1503.3	3.7
60000	373.15	1479.7	3.6
70000	303.15	1695.6	4
70000	313.15	1667.3	4
70000	323.15	1640.7	3.9
70000	333.15	1614.6	3.9
70000	343.15	1589.5	3.8
70000	353.15	1564.8	3.8
70000	363.15	1541.1	3.7
70000	373.15	1517.7	3.7
80000	313.15	1700	4
80000	323.15	1673.9	4
80000	333.15	1648.7	3.9
80000	343.15	1624.1	3.9
80000	353.15	1600.1	3.8
80000	363.15	1576.4	3.8
80000	373.15	1553.8	3.8
90000	313.15	1731.8	4.1
90000	323.15	1705.8	4
90000	333.15	1681.3	4
90000	343.15	1657.2	3.9
90000	353.15	1633.4	3.9
90000	363.15	1610.7	3.9
90000	373.15	1588.6	3.8
100000	313.15	1762	4.1
100000	323.15	1736.6	4.1
100000	333.15	1712.2	4
100000	343.15	1688	4
100000	353.15	1665.5	4
100000	363.15	1643.4	3.9
100000	373.15	1621.8	3.9
110000	313.15	1790.2	4.2
110000	323.15	1766.3	4.1
110000	333.15	1742.3	4.1
110000	343.15	1719.2	4
110000	353.15	1696.9	4
110000	363.15	1674.6	4
110000	373.15	1653.6	3.9
120000	313.15	1818.7	4.2
120000	323.15	1794.9	4.2
120000	333.15	1771.7	4.1
120000	343.15	1748.7	4.1
120000	353.15	1726.9	4.1
120000	363.15	1705	4
120000	373.15	1684.3	4
130000	313.15	1847.1	4.3
130000	323.15	1822.8	4.2
130000	333.15	1799.8	4.2
130000	343.15	1777.4	4.2
130000	353.15	1755.8	4.1
130000	363.15	1734.4	4.1
130000	373.15	1713.8	4
140000	323.15	1849.3	4.3
140000	333.15	1826.9	4.2
140000	343.15	1805	4.2
140000	353.15	1783.8	4.2
140000	363.15	1763.3	4.1
140000	373.15	1742.7	4.1
150000	323.15	1875.5	4.3
150000	333.15	1853.6	4.3
150000	343.15	1832	4.2
150000	353.15	1811.1	4.2
150000	363.15	1790	4.2
150000	373.15	1770.5	4.1

System: heptadecane, 1-phenyl-; phases: Liquid
Property: Mass density, kg/m3 (Liquid); method: Vibrating tube method
Pressure, kPa	Temperature, K	Mass density, kg/m3	uncertainty
100	303.15	847.62	0.87
100	313.15	840.87	0.87
100	323.15	834.27	0.86
100	333.15	827.59	0.86
100	343.15	820.95	0.85
100	353.15	814.43	0.84
100	363.15	807.8	0.84
100	373.15	801.11	0.83
5000	303.15	850.37	0.88
5000	313.15	843.75	0.87
5000	323.15	837.23	0.87
5000	333.15	830.84	0.86
5000	343.15	824.32	0.86
5000	353.15	817.93	0.85
5000	363.15	811.3	0.84
5000	373.15	805.07	0.84
10000	303.15	853.14	0.89
10000	313.15	846.65	0.88
10000	323.15	840.29	0.87
10000	333.15	833.94	0.87
10000	343.15	827.71	0.86
10000	353.15	821.35	0.86
10000	363.15	815.14	0.85
10000	373.15	808.86	0.85
15000	303.15	855.85	0.89
15000	313.15	849.47	0.89
15000	323.15	843.15	0.88
15000	333.15	837.13	0.88
15000	343.15	830.75	0.87
15000	353.15	824.69	0.87
15000	363.15	818.57	0.86
15000	373.15	812.48	0.86
20000	303.15	858.47	0.9
20000	313.15	852.17	0.89
20000	323.15	845.93	0.89
20000	333.15	839.97	0.89
20000	343.15	833.93	0.88
20000	353.15	827.9	0.88
20000	363.15	821.81	0.87
20000	373.15	815.93	0.87
25000	303.15	861	0.91
25000	313.15	854.73	0.9
25000	323.15	848.7	0.9
25000	333.15	842.84	0.89
25000	343.15	836.75	0.89
25000	353.15	830.86	0.89
25000	363.15	824.97	0.88
25000	373.15	819.17	0.88
30000	303.15	863.37	0.91
30000	313.15	857.38	0.91
30000	323.15	851.34	0.91
30000	333.15	845.52	0.9
30000	343.15	839.62	0.9
30000	353.15	833.85	0.9
30000	363.15	828	0.9
30000	373.15	822.4	0.89
35000	303.15	865.81	0.92
35000	313.15	859.9	0.92
35000	323.15	853.89	0.92
35000	333.15	848.14	0.91
35000	343.15	842.4	0.91
35000	353.15	836.9	0.91
35000	363.15	830.94	0.91
35000	373.15	825.42	0.91
40000	303.15	868.19	0.93
40000	313.15	862.24	0.93
40000	323.15	856.43	0.93
40000	333.15	850.62	0.93
40000	343.15	845.11	0.92
40000	353.15	839.55	0.92
40000	363.15	833.81	0.92
40000	373.15	828.43	0.92
45000	303.15	870.43	0.94
45000	313.15	864.56	0.94
45000	323.15	858.84	0.94
45000	333.15	853.3	0.94
45000	343.15	847.75	0.94
45000	353.15	842.1	0.93
45000	363.15	836.5	0.93
45000	373.15	831.28	0.93
50000	303.15	872.65	0.95
50000	313.15	866.8	0.95
50000	323.15	861.35	0.95
50000	333.15	855.69	0.95
50000	343.15	850.31	0.95
50000	353.15	844.78	0.95
50000	363.15	839.26	0.95
50000	373.15	834.03	0.95
55000	303.15	874.7	0.96
55000	313.15	869.08	0.96
55000	323.15	863.55	0.96
55000	333.15	858	0.96
55000	343.15	852.73	0.96
55000	353.15	847.34	0.96
55000	363.15	841.95	0.96
55000	373.15	836.72	0.96
60000	303.15	876.93	0.97
60000	313.15	870.6	0.97
60000	323.15	865.8	0.97
60000	333.15	860.35	0.97
60000	343.15	855.09	0.97
60000	353.15	849.77	0.97
60000	363.15	844.41	0.97
60000	373.15	839.37	0.98

System: octadecylbenzene; phases: Liquid
Property: Speed of sound, m/s (Liquid); method: Pulse-echo method
Pressure, kPa	Temperature, K	Speed of sound, m/s	uncertainty
100	313.15	1392.9	3.5
100	323.15	1357.8	3.4
100	333.15	1325.5	3.4
100	343.15	1292.7	3.3
100	353.15	1260.7	3.3
100	363.15	1229.5	3.2
100	373.15	1198.7	3.2
10000	313.15	1439.6	3.6
10000	323.15	1406.8	3.5
10000	333.15	1374.8	3.5
10000	343.15	1344.1	3.4
10000	353.15	1313.4	3.4
10000	363.15	1284.8	3.3
10000	373.15	1255.2	3.3
20000	313.15	1484.1	3.6
20000	323.15	1452.4	3.6
20000	333.15	1422.6	3.5
20000	343.15	1392.8	3.5
20000	353.15	1364.1	3.4
20000	363.15	1334.9	3.4
20000	373.15	1308.3	3.3
30000	313.15	1525.8	3.7
30000	323.15	1495.5	3.7
30000	333.15	1466.1	3.6
30000	343.15	1437.7	3.6
30000	353.15	1410	3.5
30000	363.15	1382.7	3.5
30000	373.15	1356.6	3.4
40000	313.15	1564.8	3.8
40000	323.15	1535.6	3.7
40000	333.15	1507.5	3.7
40000	343.15	1480.2	3.6
40000	353.15	1454	3.6
40000	363.15	1427.1	3.5
40000	373.15	1401.7	3.5
50000	313.15	1602.4	3.8
50000	323.15	1574	3.8
50000	333.15	1546.7	3.7
50000	343.15	1519.9	3.7
50000	353.15	1494.4	3.7
50000	363.15	1469.1	3.6
50000	373.15	1444.5	3.6
60000	313.15	1638.1	3.9
60000	323.15	1610.3	3.9
60000	333.15	1583.5	3.8
60000	343.15	1558.1	3.8
60000	353.15	1532.6	3.7
60000	363.15	1508.3	3.7
60000	373.15	1484.7	3.6
70000	313.15	1672.1	4
70000	323.15	1645.1	3.9
70000	333.15	1619.1	3.9
70000	343.15	1594.2	3.8
70000	353.15	1569.2	3.8
70000	363.15	1545.7	3.7
70000	373.15	1522	3.7
80000	313.15	1704.7	4
80000	323.15	1678.7	4
80000	333.15	1652.8	3.9
80000	343.15	1628.6	3.9
80000	353.15	1604.3	3.8
80000	363.15	1581.7	3.8
80000	373.15	1558.6	3.8
90000	323.15	1710.4	4
90000	333.15	1685.7	4
90000	343.15	1661.5	3.9
90000	353.15	1638.2	3.9
90000	363.15	1615.7	3.9
90000	373.15	1592.9	3.8
100000	323.15	1741.3	4.1
100000	333.15	1717	4
100000	343.15	1693.1	4
100000	353.15	1670.3	4
100000	363.15	1648.3	3.9
100000	373.15	1626.3	3.9
110000	323.15	1771.2	4.1
110000	333.15	1747.3	4.1
110000	343.15	1723.6	4.1
110000	353.15	1701.4	4
110000	363.15	1679.8	4
110000	373.15	1657.9	3.9
120000	323.15	1799.2	4.2
120000	333.15	1775.7	4.1
120000	343.15	1753.5	4.1
120000	353.15	1731.3	4.1
120000	363.15	1710	4
120000	373.15	1688.5	4
130000	333.15	1803.9	4.2
130000	343.15	1781.9	4.2
130000	353.15	1759.9	4.1
130000	363.15	1739.2	4.1
130000	373.15	1718.7	4
140000	333.15	1830.9	4.2
140000	343.15	1809.4	4.2
140000	353.15	1788.8	4.2
140000	363.15	1767.5	4.1
140000	373.15	1746.6	4.1
150000	333.15	1857.5	4.3
150000	343.15	1836.3	4.3
150000	353.15	1815.1	4.2
150000	363.15	1795.5	4.2
150000	373.15	1774.6	4.1

System: octadecylbenzene; phases: Liquid
Property: Mass density, kg/m3 (Liquid); method: Vibrating tube method
Pressure, kPa	Temperature, K	Mass density, kg/m3	uncertainty
100	313.15	840.55	1.2
100	323.15	833.94	1.19
100	333.15	827.32	1.19
100	343.15	820.78	1.18
100	353.15	814.1	1.17
100	363.15	807.7	1.16
100	373.15	800.89	1.15
5000	313.15	843.37	1.21
5000	323.15	836.91	1.2
5000	333.15	830.4	1.19
5000	343.15	824.1	1.18
5000	353.15	817.72	1.18
5000	363.15	811.19	1.17
5000	373.15	804.86	1.16
10000	313.15	846.27	1.22
10000	323.15	840.02	1.21
10000	333.15	833.56	1.2
10000	343.15	827.33	1.19
10000	353.15	821.14	1.18
10000	363.15	814.87	1.18
10000	373.15	808.59	1.17
15000	313.15	849.15	1.22
15000	323.15	842.88	1.22
15000	333.15	836.59	1.21
15000	343.15	830.48	1.2
15000	353.15	824.47	1.19
15000	363.15	818.14	1.18
15000	373.15	812.16	1.18
25000	313.15	854.46	1.24
25000	323.15	848.32	1.23
25000	333.15	842.3	1.22
25000	343.15	836.54	1.22
25000	353.15	830.64	1.21
25000	363.15	824.7	1.2
25000	373.15	818.84	1.2
30000	313.15	856.89	1.25
30000	323.15	850.96	1.24
30000	333.15	845.04	1.23
30000	343.15	839.35	1.23
30000	353.15	833.58	1.22
30000	363.15	827.83	1.21
30000	373.15	821.97	1.21
35000	313.15	859.36	1.25
35000	323.15	853.46	1.25
35000	333.15	847.71	1.24
35000	343.15	841.97	1.24
35000	353.15	836.52	1.23
35000	363.15	830.62	1.22
35000	373.15	825.09	1.22
40000	313.15	861.48	1.26
40000	323.15	856	1.26
40000	333.15	850.3	1.25
40000	343.15	844.62	1.24
40000	353.15	839.12	1.24
40000	363.15	833.38	1.23
40000	373.15	828	1.23
45000	313.15	864.12	1.27
45000	323.15	858.41	1.26
45000	333.15	852.76	1.26
45000	343.15	847.32	1.25
45000	353.15	841.72	1.25
45000	363.15	836.17	1.24
45000	373.15	830.8	1.24
50000	313.15	866.37	1.28
50000	323.15	860.91	1.27
50000	333.15	855.26	1.27
50000	343.15	849.82	1.26
50000	353.15	844.35	1.26
50000	363.15	838.78	1.25
50000	373.15	833.6	1.25
55000	313.15	868.59	1.28
55000	323.15	863.12	1.28
55000	333.15	857.46	1.28
55000	343.15	852.25	1.27
55000	353.15	846.91	1.27
55000	363.15	841.42	1.26
55000	373.15	836.29	1.26
60000	313.15	870.16	1.29
60000	323.15	865.36	1.29
60000	333.15	859.86	1.28
60000	343.15	854.6	1.28
60000	353.15	849.39	1.28
60000	363.15	843.92	1.28
60000	373.15	838.88	1.27
