Measured thermophysical data. Solid-liquid Equilibria of 1,4-Benzenedicarboxylic Acid in Binary Acetic Acid + Water Solvent Mixtures at Elevated Temperatures
Source: J. Chem. Eng. Data, 2005, 10.1021/je049697k
Compound 1: 1,4-benzenedicarboxylic acid, C8H6O4, InChI=1S/C8H6O4/c9-7(10)5-1-2-6(4-3-5)8(11)12/h1-4H,(H,9,10)(H,11,12), purity 99.5%
Compound 2: water, H2O, InChI=1S/H2O/h1H2, purity 99%
Compound 3: acetic acid, C2H4O2, InChI=1S/C2H4O2/c1-2(3)4/h1H3,(H,3,4), purity 99%

System: acetic acid + 1,4-benzenedicarboxylic acid + water; phases: Liquid, Crystal
Fixed: Pressure, kPa = 101.3
Property: Mass ratio of solute to solvent of 1,4-benzenedicarboxylic acid (Liquid); method: OTHER
Temperature, K	Solvent: Mass fraction of acetic acid	Mass ratio of solute to solvent of 1,4-benzenedicarboxylic acid	uncertainty
433.2	0.6	0.0152	0.0013
433.2	0.7	0.0103	0.0009
433.2	0.8	0.0095	0.0009
433.2	1	0.0061	0.0005
443.2	0.6	0.0205	0.0018
443.2	0.7	0.0153	0.0013
443.2	0.8	0.013	0.0011
443.2	1	0.0082	0.0007
453.2	0.6	0.0277	0.0024
453.2	0.7	0.0206	0.0018
453.2	0.8	0.0168	0.0014
453.2	1	0.0102	0.0008
463.2	0.6	0.0373	0.0032
463.2	0.7	0.0285	0.0024
463.2	0.8	0.0218	0.0018
463.2	1	0.0127	0.0011
473.2	0.6	0.0502	0.0043
473.2	0.7	0.0376	0.0032
473.2	0.8	0.0282	0.0024
473.2	1	0.0159	0.0013
483.2	0.6	0.0676	0.0058
483.2	0.7	0.0498	0.0042
483.2	0.8	0.0366	0.0031
483.2	1	0.0198	0.0016
493.2	0.6	0.0911	0.0078
493.2	0.7	0.0658	0.0056
493.2	0.8	0.0475	0.004
493.2	1	0.0248	0.0021
503.2	0.6	0.1227	0.0105
503.2	0.7	0.0869	0.0074
503.2	0.8	0.0616	0.0052
503.2	1	0.0309	0.0026
513.2	0.6	0.1653	0.0139
513.2	0.7	0.1149	0.0098
513.2	0.8	0.0798	0.0068
513.2	1	0.0386	0.0032
