Measured thermophysical data. Density and Relative Permittivity of 2-Methoxyethanol + Dipropylamine Mixtures at Various Temperatures
Source: J. Chem. Eng. Data, 2004, 10.1021/je040006u
Compound 1: 2-methoxyethan-1-ol, C3H8O2, InChI=1S/C3H8O2/c1-5-3-2-4/h4H,2-3H2,1H3
Compound 2: dipropylamine, C6H15N, InChI=1S/C6H15N/c1-3-5-7-6-4-2/h7H,3-6H2,1-2H3

System: 2-methoxyethan-1-ol; phases: Liquid
Fixed: Pressure, kPa = 101.3
Property: Mass density, kg/m3 (Liquid); method: Pycnometric method
Temperature, K	Mass density, kg/m3	uncertainty
291.15	966.52	2.63
293.15	964.88	2.63
298.15	960.29	2.63
303.15	955.76	2.62
308.15	951.1	2.61

System: dipropylamine; phases: Liquid
Fixed: Pressure, kPa = 101.3
Property: Mass density, kg/m3 (Liquid); method: Pycnometric method
Temperature, K	Mass density, kg/m3	uncertainty
291.15	738.47	2
293.15	737.2	2.04
298.15	732.56	2.04
303.15	728.2	2.03
308.15	723.64	2.02

System: 2-methoxyethan-1-ol + dipropylamine; phases: Liquid
Fixed: Pressure, kPa = 101.3
Property: Mass density, kg/m3 (Liquid); method: Pycnometric method
Mole fraction of 2-methoxyethan-1-ol	Temperature, K	Mass density, kg/m3	uncertainty
0	291.15	738.47	2
0	293.15	737.2	2.04
0	298.15	732.56	2.04
0	303.15	728.2	2.03
0	308.15	723.64	2.02
0.0501	291.15	746.83	2.05
0.0501	293.15	745.26	2.08
0.0501	298.15	740.37	2.07
0.0501	303.15	735.86	2.06
0.0501	308.15	731.07	2.04
0.1	291.15	754.98	2.08
0.1	293.15	753.42	2.1
0.1	298.15	748.52	2.09
0.1	303.15	743.91	2.08
0.1	308.15	739.04	2.07
0.1502	291.15	763.4	2.1
0.1502	293.15	761.9	2.13
0.1502	298.15	756.9	2.12
0.1502	303.15	752.27	2.1
0.1502	308.15	747.36	2.1
0.2001	291.15	772.06	2.12
0.2001	293.15	770.51	2.15
0.2001	298.15	765.5	2.14
0.2001	303.15	760.85	2.13
0.2001	308.15	755.94	2.12
0.2508	291.15	781.14	2.15
0.2508	293.15	779.61	2.17
0.2508	298.15	774.59	2.16
0.2508	303.15	769.92	2.15
0.2508	308.15	764.98	2.14
0.2999	291.15	790.26	2.18
0.2999	293.15	788.66	2.2
0.2999	298.15	783.68	2.19
0.2999	303.15	778.97	2.17
0.2999	308.15	774.07	2.16
0.3502	291.15	799.92	2.2
0.3502	293.15	798.35	2.22
0.3502	298.15	793.28	2.21
0.3502	303.15	788.57	2.2
0.3502	308.15	783.65	2.19
0.4	291.15	809.92	2.24
0.4	293.15	808.21	2.25
0.4	298.15	803.2	2.24
0.4	303.15	798.45	2.23
0.4	308.15	793.51	2.21
0.45	291.15	820.34	2.26
0.45	293.15	818.67	2.28
0.45	298.15	813.61	2.27
0.45	303.15	808.82	2.25
0.45	308.15	803.85	2.24
0.4999	291.15	831.06	2.3
0.4999	293.15	829.4	2.31
0.4999	298.15	824.3	2.29
0.4999	303.15	819.53	2.28
0.4999	308.15	814.5	2.27
0.5507	291.15	842.47	2.32
0.5507	293.15	840.75	2.34
0.5507	298.15	835.6	2.32
0.5507	303.15	830.8	2.31
0.5507	308.15	825.78	2.3
0.5982	291.15	853.45	2.36
0.5982	293.15	851.69	2.37
0.5982	298.15	846.6	2.35
0.5982	303.15	841.77	2.34
0.5982	308.15	836.69	2.33
0.6502	291.15	866.02	2.39
0.6502	293.15	864.26	2.4
0.6502	298.15	859.11	2.38
0.6502	303.15	854.24	2.37
0.6502	308.15	849.17	2.36
0.6999	291.15	878.41	2.43
0.6999	293.15	876.59	2.43
0.6999	298.15	871.47	2.42
0.6999	303.15	866.58	2.4
0.6999	308.15	861.5	2.39
0.7489	291.15	891.21	2.47
0.7489	293.15	889.34	2.46
0.7489	298.15	884.21	2.45
0.7489	303.15	879.3	2.44
0.7489	308.15	874.18	2.42
0.8015	291.15	905.66	2.51
0.8015	293.15	903.7	2.5
0.8015	298.15	898.54	2.49
0.8015	303.15	893.64	2.47
0.8015	308.15	888.51	2.46
0.8496	291.15	919.22	2.56
0.8496	293.15	917.32	2.54
0.8496	298.15	912.15	2.52
0.8496	303.15	907.23	2.51
0.8496	308.15	902.13	2.49
0.8997	291.15	934.42	2.6
0.8997	293.15	932.35	2.58
0.8997	298.15	927.21	2.56
0.8997	303.15	922.3	2.55
0.8997	308.15	917.11	2.53
0.9497	291.15	950.19	2.63
0.9497	293.15	948.22	2.61
0.9497	298.15	943.1	2.6
0.9497	303.15	938.3	2.58
0.9497	308.15	933.24	2.56
1	291.15	966.52	2.63
1	293.15	964.88	2.63
1	298.15	960.29	2.63
1	303.15	955.76	2.62
1	308.15	951.1	2.61
