Measured thermophysical data. Densities and Viscosities for Binary and Ternary Mixtures of Ethanol, 2-Butanone, and 2,2,4-Trimethylpentane at T = (298.15, 308.15, and 318.15) K
Source: J. Chem. Eng. Data, 2005, 10.1021/je049655w
Compound 1: ethanol, C2H6O, InChI=1S/C2H6O/c1-2-3/h3H,2H2,1H3, purity 99.8%
Compound 2: butanone, C4H8O, InChI=1S/C4H8O/c1-3-4(2)5/h3H2,1-2H3, purity 99.8%
Compound 3: 2,2,4-trimethylpentane, C8H18, InChI=1S/C8H18/c1-7(2)6-8(3,4)5/h7H,6H2,1-5H3, purity 99.7%

System: ethanol; phases: Liquid
Property: Refractive index (Na D-line) (Liquid); method: Standard Abbe refractometry
Temperature, K	Pressure, kPa	Refractive index (Na D-line)	uncertainty
298.15	101.325	1.35949	0.00072

System: ethanol; phases: Liquid
Fixed: Pressure, kPa = 100.8
Property: Viscosity, Pa*s (Liquid); method: CAPTUB:UFactor:2
Temperature, K	Viscosity, Pa*s	uncertainty
298.15	0.001088	2.1e-05
308.15	0.000904	1.8e-05
318.15	0.000763	1.5e-05

System: ethanol; phases: Liquid
Fixed: Pressure, kPa = 100.8
Property: Mass density, kg/m3 (Liquid); method: VIBTUB:UFactor:2
Temperature, K	Mass density, kg/m3	uncertainty
298.15	785.1	0.3
308.15	776.5	0.3
318.15	767.7	0.3

System: butanone; phases: Liquid
Property: Refractive index (Na D-line) (Liquid); method: Standard Abbe refractometry
Temperature, K	Pressure, kPa	Refractive index (Na D-line)	uncertainty
298.15	101.325	1.37623	0.00072

System: butanone; phases: Liquid
Fixed: Pressure, kPa = 100.8
Property: Viscosity, Pa*s (Liquid); method: CAPTUB:UFactor:2
Temperature, K	Viscosity, Pa*s	uncertainty
298.15	0.000378	8e-06
308.15	0.000341	7e-06
318.15	0.000307	7e-06

System: butanone; phases: Liquid
Fixed: Pressure, kPa = 100.8
Property: Mass density, kg/m3 (Liquid); method: VIBTUB:UFactor:2
Temperature, K	Mass density, kg/m3	uncertainty
298.15	799.7	0.3
308.15	789.2	0.3
318.15	778.4	0.3

System: 2,2,4-trimethylpentane; phases: Liquid
Property: Refractive index (Na D-line) (Liquid); method: Standard Abbe refractometry
Temperature, K	Pressure, kPa	Refractive index (Na D-line)	uncertainty
298.15	101.325	1.38902	0.00072

System: 2,2,4-trimethylpentane; phases: Liquid
Fixed: Pressure, kPa = 100.8
Property: Viscosity, Pa*s (Liquid); method: CAPTUB:UFactor:2
Temperature, K	Viscosity, Pa*s	uncertainty
298.15	0.000474	1e-05
308.15	0.000422	9e-06
308.15	0.000426	9e-06
318.15	0.000382	8e-06

System: 2,2,4-trimethylpentane; phases: Liquid
Fixed: Pressure, kPa = 100.8
Property: Mass density, kg/m3 (Liquid); method: VIBTUB:UFactor:2
Temperature, K	Mass density, kg/m3	uncertainty
298.15	687.8	0.4
308.15	679.5	0.4
318.15	671	0.4

System: ethanol + butanone; phases: Liquid
Fixed: Pressure, kPa = 100.8
Property: Viscosity, Pa*s (Liquid); method: CAPTUB:UFactor:2
Temperature, K	Mole fraction of ethanol	Viscosity, Pa*s	uncertainty
298.15	0	0.000378	8e-06
298.15	0.05	0.00038	8e-06
298.15	0.1	0.000386	8e-06
298.15	0.15	0.000393	8e-06
298.15	0.2	0.0004	8e-06
298.15	0.25	0.000409	9e-06
298.15	0.3	0.00042	9e-06
298.15	0.35	0.000431	9e-06
298.15	0.4	0.000446	9e-06
298.15	0.45	0.000469	1e-05
298.15	0.5	0.00049	1e-05
298.15	0.55	0.000512	1e-05
298.15	0.6	0.000539	1.1e-05
298.15	0.65	0.000576	1.2e-05
298.15	0.7	0.000618	1.2e-05
298.15	0.75	0.000673	1.3e-05
298.15	0.8	0.000734	1.5e-05
298.15	0.85	0.000799	1.6e-05
298.15	0.9	0.000869	1.7e-05
298.15	0.95	0.000961	1.9e-05
298.15	1	0.001088	2.1e-05
308.15	0	0.000341	7e-06
308.15	0.05	0.000345	7e-06
308.15	0.1	0.000349	7e-06
308.15	0.15	0.000353	8e-06
308.15	0.2	0.000359	8e-06
308.15	0.25	0.000366	8e-06
308.15	0.3	0.000376	8e-06
308.15	0.35	0.000387	8e-06
308.15	0.4	0.000397	8e-06
308.15	0.45	0.000412	9e-06
308.15	0.5	0.000426	9e-06
308.15	0.55	0.000443	9e-06
308.15	0.6	0.000467	1e-05
308.15	0.65	0.000493	1e-05
308.15	0.7	0.000526	1.1e-05
308.15	0.75	0.00056	1.1e-05
308.15	0.8	0.000601	1.2e-05
308.15	0.85	0.000654	1.3e-05
308.15	0.9	0.000722	1.4e-05
308.15	0.95	0.000803	1.6e-05
308.15	1	0.000904	1.8e-05
318.15	0	0.000307	7e-06
318.15	0.05	0.000313	7e-06
318.15	0.1	0.000316	7e-06
318.15	0.15	0.00032	7e-06
318.15	0.2	0.000324	7e-06
318.15	0.25	0.00033	7e-06
318.15	0.3	0.000337	7e-06
318.15	0.35	0.000345	7e-06
318.15	0.4	0.000355	8e-06
318.15	0.45	0.000365	8e-06
318.15	0.5	0.000381	8e-06
318.15	0.55	0.000398	8e-06
318.15	0.6	0.000412	9e-06
318.15	0.65	0.000434	9e-06
318.15	0.7	0.000456	9e-06
318.15	0.75	0.000482	1e-05
318.15	0.8	0.000519	1.1e-05
318.15	0.85	0.00056	1.1e-05
318.15	0.9	0.000613	1.2e-05
318.15	0.95	0.000676	1.4e-05
318.15	1	0.000763	1.5e-05

System: ethanol + butanone; phases: Liquid
Fixed: Pressure, kPa = 100.8
Property: Mass density, kg/m3 (Liquid); method: VIBTUB:UFactor:2
Temperature, K	Mole fraction of ethanol	Mass density, kg/m3	uncertainty
298.15	0	799.7	0.3
298.15	0.05	799.3	0.3
298.15	0.1	798.9	0.3
298.15	0.15	798.4	0.3
298.15	0.2	797.9	0.3
298.15	0.25	797.4	0.3
298.15	0.3	796.9	0.3
298.15	0.35	796.4	0.3
298.15	0.4	795.8	0.3
298.15	0.45	795.2	0.3
298.15	0.5	794.6	0.3
298.15	0.55	794	0.3
298.15	0.6	793.3	0.3
298.15	0.65	792.6	0.3
298.15	0.7	791.8	0.3
298.15	0.75	790.9	0.3
298.15	0.8	790	0.3
298.15	0.85	788.9	0.3
298.15	0.9	787.8	0.3
298.15	0.95	786.6	0.3
298.15	1	785.1	0.3
308.15	0	789.2	0.3
308.15	0.05	788.8	0.3
308.15	0.1	788.3	0.3
308.15	0.15	787.9	0.3
308.15	0.2	787.4	0.3
308.15	0.25	787	0.3
308.15	0.3	786.5	0.3
308.15	0.35	786.1	0.3
308.15	0.4	785.6	0.3
308.15	0.45	785.1	0.3
308.15	0.5	784.6	0.3
308.15	0.55	784	0.3
308.15	0.6	783.4	0.3
308.15	0.65	782.8	0.3
308.15	0.7	782.1	0.3
308.15	0.75	781.4	0.3
308.15	0.8	780.6	0.3
308.15	0.85	779.7	0.3
308.15	0.9	778.7	0.3
308.15	0.95	777.7	0.3
308.15	1	776.5	0.3
318.15	0	778.4	0.3
318.15	0.05	778	0.3
318.15	0.1	777.6	0.3
318.15	0.15	777.2	0.3
318.15	0.2	776.8	0.3
318.15	0.25	776.4	0.3
318.15	0.3	776	0.3
318.15	0.35	775.6	0.3
318.15	0.4	775.2	0.3
318.15	0.45	774.7	0.3
318.15	0.5	774.3	0.3
318.15	0.55	773.8	0.3
318.15	0.6	773.3	0.3
318.15	0.65	772.8	0.3
318.15	0.7	772.2	0.3
318.15	0.75	771.6	0.3
318.15	0.8	771	0.3
318.15	0.85	770.3	0.3
318.15	0.9	769.5	0.3
318.15	0.95	768.6	0.3
318.15	1	767.7	0.3

System: ethanol + 2,2,4-trimethylpentane; phases: Liquid
Fixed: Pressure, kPa = 100.8
Property: Viscosity, Pa*s (Liquid); method: CAPTUB:UFactor:2
Temperature, K	Mole fraction of ethanol	Viscosity, Pa*s	uncertainty
298.15	0	0.000474	1e-05
298.15	0.05	0.000476	1e-05
298.15	0.1	0.000478	1e-05
298.15	0.15	0.00048	1e-05
298.15	0.2	0.000484	1e-05
298.15	0.25	0.000494	1e-05
298.15	0.3	0.000507	1e-05
298.15	0.35	0.000521	1.1e-05
298.15	0.4	0.00054	1.1e-05
298.15	0.45	0.000561	1.1e-05
298.15	0.5	0.000586	1.2e-05
298.15	0.55	0.000613	1.2e-05
298.15	0.6	0.000643	1.3e-05
298.15	0.65	0.000678	1.4e-05
298.15	0.7	0.000718	1.4e-05
298.15	0.75	0.00076	1.5e-05
298.15	0.8	0.000806	1.6e-05
298.15	0.85	0.000861	1.7e-05
298.15	0.9	0.000929	1.8e-05
298.15	0.95	0.000999	2e-05
298.15	1	0.001088	2.1e-05
308.15	0	0.000422	9e-06
308.15	0.05	0.000424	9e-06
308.15	0.1	0.000426	9e-06
308.15	0.15	0.000429	9e-06
308.15	0.2	0.000433	9e-06
308.15	0.25	0.000439	9e-06
308.15	0.3	0.00045	9e-06
308.15	0.35	0.000462	1e-05
308.15	0.4	0.000474	1e-05
308.15	0.45	0.000487	1e-05
308.15	0.5	0.000506	1e-05
308.15	0.55	0.000527	1.1e-05
308.15	0.6	0.00055	1.1e-05
308.15	0.65	0.000576	1.2e-05
308.15	0.7	0.000606	1.2e-05
308.15	0.75	0.000641	1.3e-05
308.15	0.8	0.000677	1.4e-05
308.15	0.85	0.00072	1.4e-05
308.15	0.9	0.000768	1.5e-05
308.15	0.95	0.000829	1.6e-05
308.15	1	0.000904	1.8e-05
318.15	0	0.000382	8e-06
318.15	0.05	0.000384	8e-06
318.15	0.1	0.000385	8e-06
318.15	0.15	0.000389	8e-06
318.15	0.2	0.000391	8e-06
318.15	0.25	0.000397	8e-06
318.15	0.3	0.000404	8e-06
318.15	0.35	0.000412	9e-06
318.15	0.4	0.000422	9e-06
318.15	0.45	0.000433	9e-06
318.15	0.5	0.000446	9e-06
318.15	0.55	0.000463	1e-05
318.15	0.6	0.00048	1e-05
318.15	0.65	0.0005	1e-05
318.15	0.7	0.000524	1.1e-05
318.15	0.75	0.00055	1.1e-05
318.15	0.8	0.00058	1.2e-05
318.15	0.85	0.000616	1.2e-05
318.15	0.9	0.000657	1.3e-05
318.15	0.95	0.000702	1.4e-05
318.15	1	0.000763	1.5e-05

System: ethanol + 2,2,4-trimethylpentane; phases: Liquid
Fixed: Pressure, kPa = 100.8
Property: Mass density, kg/m3 (Liquid); method: VIBTUB:UFactor:2
Temperature, K	Mole fraction of ethanol	Mass density, kg/m3	uncertainty
298.15	0	687.8	0.4
298.15	0.05	688.8	0.4
298.15	0.1	690.3	0.4
298.15	0.15	692.1	0.4
298.15	0.2	694	0.4
298.15	0.25	696.2	0.4
298.15	0.3	698.5	0.3
298.15	0.35	701.1	0.3
298.15	0.4	704	0.3
298.15	0.45	707.1	0.3
298.15	0.5	710.6	0.3
298.15	0.55	714.5	0.3
298.15	0.6	718.8	0.3
298.15	0.65	723.6	0.3
298.15	0.7	729.1	0.3
298.15	0.75	735.4	0.3
298.15	0.8	742.3	0.3
298.15	0.85	750.5	0.3
298.15	0.9	760.1	0.3
298.15	0.95	771.5	0.3
298.15	1	785.1	0.3
308.15	0	679.5	0.4
308.15	0.05	680.4	0.4
308.15	0.1	681.8	0.4
308.15	0.15	683.5	0.4
308.15	0.2	685.4	0.4
308.15	0.25	687.5	0.4
308.15	0.3	689.8	0.4
308.15	0.35	692.4	0.4
308.15	0.4	695.2	0.4
308.15	0.45	698.3	0.3
308.15	0.5	701.8	0.3
308.15	0.55	705.7	0.3
308.15	0.6	710	0.3
308.15	0.65	714.9	0.3
308.15	0.7	720.3	0.3
308.15	0.75	726.6	0.3
308.15	0.8	733.6	0.3
308.15	0.85	741.7	0.3
308.15	0.9	751.4	0.3
308.15	0.95	762.8	0.3
308.15	1	776.5	0.3
318.15	0	671	0.4
318.15	0.05	671.7	0.4
318.15	0.1	673	0.4
318.15	0.15	674.7	0.4
318.15	0.2	676.5	0.4
318.15	0.25	678.6	0.4
318.15	0.3	680.9	0.4
318.15	0.35	683.4	0.4
318.15	0.4	686.2	0.4
318.15	0.45	689.3	0.4
318.15	0.5	692.8	0.4
318.15	0.55	696.6	0.4
318.15	0.6	700.9	0.3
318.15	0.65	705.8	0.3
318.15	0.7	711.3	0.3
318.15	0.75	717.6	0.3
318.15	0.8	724.7	0.3
318.15	0.85	732.9	0.3
318.15	0.9	742.5	0.3
318.15	0.95	753.9	0.3
318.15	1	767.7	0.3

System: butanone + 2,2,4-trimethylpentane; phases: Liquid
Fixed: Pressure, kPa = 100.8
Property: Viscosity, Pa*s (Liquid); method: CAPTUB:UFactor:2
Temperature, K	Mole fraction of butanone	Viscosity, Pa*s	uncertainty
298.15	0	0.000474	1e-05
298.15	0.05	0.000461	1e-05
298.15	0.1	0.000451	9e-06
298.15	0.15	0.000443	9e-06
298.15	0.2	0.000436	9e-06
298.15	0.25	0.000429	9e-06
298.15	0.3	0.000423	9e-06
298.15	0.35	0.000417	9e-06
298.15	0.4	0.000412	9e-06
298.15	0.45	0.000407	9e-06
298.15	0.5	0.000402	8e-06
298.15	0.55	0.000398	8e-06
298.15	0.6	0.000394	8e-06
298.15	0.65	0.00039	8e-06
298.15	0.7	0.000387	8e-06
298.15	0.75	0.000384	8e-06
298.15	0.8	0.000381	8e-06
298.15	0.85	0.000379	8e-06
298.15	0.9	0.000377	8e-06
298.15	0.95	0.000377	8e-06
298.15	1	0.000378	8e-06
308.15	0	0.000426	9e-06
308.15	0.05	0.000416	9e-06
308.15	0.1	0.000408	9e-06
308.15	0.15	0.0004	8e-06
308.15	0.2	0.000394	8e-06
308.15	0.25	0.000388	8e-06
308.15	0.3	0.000382	8e-06
308.15	0.35	0.000377	8e-06
308.15	0.4	0.000372	8e-06
308.15	0.45	0.000368	8e-06
308.15	0.5	0.000363	8e-06
308.15	0.55	0.00036	8e-06
308.15	0.6	0.000356	8e-06
308.15	0.65	0.000353	8e-06
308.15	0.7	0.00035	7e-06
308.15	0.75	0.000347	7e-06
308.15	0.8	0.000345	7e-06
308.15	0.85	0.000343	7e-06
308.15	0.9	0.000342	7e-06
308.15	0.95	0.000341	7e-06
308.15	1	0.000341	7e-06
318.15	0	0.000382	8e-06
318.15	0.05	0.000374	8e-06
318.15	0.1	0.000367	8e-06
318.15	0.15	0.00036	8e-06
318.15	0.2	0.000354	8e-06
318.15	0.25	0.000349	7e-06
318.15	0.3	0.000344	7e-06
318.15	0.35	0.000339	7e-06
318.15	0.4	0.000335	7e-06
318.15	0.45	0.000331	7e-06
318.15	0.5	0.000328	7e-06
318.15	0.55	0.000325	7e-06
318.15	0.6	0.000322	7e-06
318.15	0.65	0.00032	7e-06
318.15	0.7	0.000317	7e-06
318.15	0.75	0.000315	7e-06
318.15	0.8	0.000313	7e-06
318.15	0.85	0.000311	7e-06
318.15	0.9	0.000309	7e-06
318.15	0.95	0.000308	7e-06
318.15	1	0.000307	7e-06

System: butanone + 2,2,4-trimethylpentane; phases: Liquid
Fixed: Pressure, kPa = 100.8
Property: Mass density, kg/m3 (Liquid); method: VIBTUB:UFactor:2
Temperature, K	Mole fraction of butanone	Mass density, kg/m3	uncertainty
298.15	0	687.8	0.4
298.15	0.05	690.1	0.4
298.15	0.1	692.7	0.4
298.15	0.15	695.6	0.4
298.15	0.2	698.7	0.3
298.15	0.25	702.2	0.3
298.15	0.3	705.9	0.3
298.15	0.35	709.9	0.3
298.15	0.4	714.1	0.3
298.15	0.45	718.7	0.3
298.15	0.5	723.6	0.3
298.15	0.55	728.8	0.3
298.15	0.6	734.5	0.3
298.15	0.65	740.6	0.3
298.15	0.7	747.2	0.3
298.15	0.75	754.2	0.3
298.15	0.8	761.9	0.3
298.15	0.85	770.4	0.3
298.15	0.9	779.3	0.3
298.15	0.95	789.2	0.3
298.15	1	799.7	0.3
308.15	0	679.5	0.4
308.15	0.05	681.7	0.4
308.15	0.1	684.2	0.4
308.15	0.15	687	0.4
308.15	0.2	690.1	0.4
308.15	0.25	693.4	0.4
308.15	0.3	697	0.3
308.15	0.35	700.9	0.3
308.15	0.4	705.1	0.3
308.15	0.45	709.5	0.3
308.15	0.5	714.3	0.3
308.15	0.55	719.4	0.3
308.15	0.6	724.9	0.3
308.15	0.65	731	0.3
308.15	0.7	737.4	0.3
308.15	0.75	744.3	0.3
308.15	0.8	751.9	0.3
308.15	0.85	760.2	0.3
308.15	0.9	769	0.3
308.15	0.95	778.8	0.3
308.15	1	789.2	0.3
318.15	0	671	0.4
318.15	0.05	673.1	0.4
318.15	0.1	675.4	0.4
318.15	0.15	678.2	0.4
318.15	0.2	681.1	0.4
318.15	0.25	684.3	0.4
318.15	0.3	687.8	0.4
318.15	0.35	691.6	0.4
318.15	0.4	695.7	0.3
318.15	0.45	700.1	0.3
318.15	0.5	704.8	0.3
318.15	0.55	709.8	0.3
318.15	0.6	715.3	0.3
318.15	0.65	721.2	0.3
318.15	0.7	727.5	0.3
318.15	0.75	734.3	0.3
318.15	0.8	741.7	0.3
318.15	0.85	749.9	0.3
318.15	0.9	758.6	0.3
318.15	0.95	768.2	0.3
318.15	1	778.4	0.3

System: ethanol + butanone + 2,2,4-trimethylpentane; phases: Liquid
Fixed: Pressure, kPa = 100.8
Property: Viscosity, Pa*s (Liquid); method: CAPTUB:UFactor:4
Temperature, K	Mole fraction of ethanol	Mole fraction of butanone	Viscosity, Pa*s	uncertainty
298.15	0.05	0.0501	0.000462	1.4e-05
298.15	0.05	0.1001	0.000456	1.4e-05
298.15	0.05	0.3001	0.000427	1.3e-05
298.15	0.05	0.4	0.000416	1.3e-05
298.15	0.05	0.4999	0.000412	1.3e-05
298.15	0.05	0.6001	0.000407	1.3e-05
298.15	0.05	0.9	0.000392	1.2e-05
298.15	0.0501	0.2	0.000447	1.4e-05
298.15	0.0501	0.6999	0.000407	1.3e-05
298.15	0.0501	0.7999	0.000401	1.3e-05
298.15	0.1	0.15	0.000468	1.4e-05
298.15	0.1	0.3499	0.000433	1.3e-05
298.15	0.1	0.45	0.000414	1.3e-05
298.15	0.1	0.55	0.000404	1.3e-05
298.15	0.1	0.65	0.000397	1.2e-05
298.15	0.1	0.7501	0.000388	1.2e-05
298.15	0.1	0.85	0.000383	1.2e-05
298.15	0.1001	0.05	0.000483	1.5e-05
298.15	0.1001	0.2499	0.000456	1.4e-05
298.15	0.1999	0.25	0.00045	1.4e-05
298.15	0.1999	0.6501	0.00041	1.3e-05
298.15	0.2	0.15	0.000459	1.4e-05
298.15	0.2	0.45	0.000431	1.3e-05
298.15	0.2	0.75	0.0004	1.3e-05
298.15	0.2001	0.05	0.000475	1.4e-05
298.15	0.2001	0.3499	0.00044	1.4e-05
298.15	0.2001	0.5499	0.00042	1.3e-05
298.15	0.2999	0.05	0.000499	1.5e-05
298.15	0.2999	0.35	0.000451	1.4e-05
298.15	0.2999	0.5501	0.00043	1.3e-05
298.15	0.3	0.15	0.000482	1.5e-05
298.15	0.3	0.45	0.000438	1.3e-05
298.15	0.3001	0.2499	0.000466	1.4e-05
298.15	0.3001	0.6499	0.000424	1.3e-05
298.15	0.3999	0.05	0.000528	1.6e-05
298.15	0.3999	0.15	0.000506	1.5e-05
298.15	0.4	0.2499	0.000495	1.5e-05
298.15	0.4	0.35	0.000476	1.4e-05
298.15	0.4	0.45	0.000462	1.4e-05
298.15	0.4	0.55	0.000448	1.4e-05
298.15	0.4999	0.25	0.000522	1.6e-05
298.15	0.5	0.05	0.000582	1.7e-05
298.15	0.5	0.15	0.00056	1.7e-05
298.15	0.5001	0.3499	0.000499	1.5e-05
298.15	0.5001	0.4499	0.000488	1.5e-05
298.15	0.5999	0.15	0.000593	1.7e-05
298.15	0.6	0.05	0.000626	1.8e-05
298.15	0.6	0.35	0.000549	1.6e-05
298.15	0.6001	0.25	0.000566	1.7e-05
298.15	0.7	0.05	0.000728	2.1e-05
298.15	0.7	0.15	0.000688	2e-05
298.15	0.7001	0.2499	0.000622	1.8e-05
298.15	0.8	0.05	0.000813	2.3e-05
298.15	0.8	0.15	0.000771	2.2e-05
298.15	0.9	0.05	0.000914	2.5e-05
308.15	0.05	0.0501	0.000424	1.3e-05
308.15	0.05	0.1001	0.000414	1.3e-05
308.15	0.05	0.3001	0.000397	1.2e-05
308.15	0.05	0.4	0.000386	1.2e-05
308.15	0.05	0.4999	0.000381	1.2e-05
308.15	0.05	0.6001	0.000376	1.2e-05
308.15	0.05	0.9	0.000353	1.1e-05
308.15	0.0501	0.2	0.000406	1.3e-05
308.15	0.0501	0.6999	0.000368	1.2e-05
308.15	0.0501	0.7999	0.000361	1.2e-05
308.15	0.1	0.15	0.000411	1.3e-05
308.15	0.1	0.3499	0.000392	1.2e-05
308.15	0.1	0.45	0.000384	1.2e-05
308.15	0.1	0.55	0.000378	1.2e-05
308.15	0.1	0.65	0.00037	1.2e-05
308.15	0.1	0.7501	0.000366	1.2e-05
308.15	0.1	0.85	0.000361	1.2e-05
308.15	0.1001	0.05	0.000428	1.3e-05
308.15	0.1001	0.2499	0.000403	1.3e-05
308.15	0.1999	0.25	0.000399	1.2e-05
308.15	0.1999	0.6501	0.000377	1.2e-05
308.15	0.2	0.15	0.00041	1.3e-05
308.15	0.2	0.45	0.00038	1.2e-05
308.15	0.2	0.75	0.000377	1.2e-05
308.15	0.2001	0.05	0.000422	1.3e-05
308.15	0.2001	0.3499	0.000388	1.2e-05
308.15	0.2001	0.5499	0.000378	1.2e-05
308.15	0.2999	0.05	0.000441	1.4e-05
308.15	0.2999	0.35	0.000401	1.3e-05
308.15	0.2999	0.5501	0.000382	1.2e-05
308.15	0.3	0.15	0.000425	1.3e-05
308.15	0.3	0.45	0.000391	1.2e-05
308.15	0.3001	0.2499	0.000411	1.3e-05
308.15	0.3001	0.6499	0.000376	1.2e-05
308.15	0.3999	0.05	0.000461	1.4e-05
308.15	0.3999	0.15	0.000445	1.4e-05
308.15	0.4	0.2499	0.000431	1.3e-05
308.15	0.4	0.35	0.000416	1.3e-05
308.15	0.4	0.45	0.000407	1.3e-05
308.15	0.4	0.55	0.000397	1.2e-05
308.15	0.4999	0.25	0.000454	1.4e-05
308.15	0.5	0.05	0.000492	1.5e-05
308.15	0.5	0.15	0.000471	1.4e-05
308.15	0.5001	0.3499	0.00044	1.4e-05
308.15	0.5001	0.4499	0.000427	1.3e-05
308.15	0.5999	0.15	0.000506	1.5e-05
308.15	0.6	0.05	0.000531	1.6e-05
308.15	0.6	0.35	0.000471	1.4e-05
308.15	0.6001	0.25	0.000485	1.5e-05
308.15	0.7	0.05	0.000589	1.7e-05
308.15	0.7	0.15	0.000552	1.6e-05
308.15	0.7001	0.2499	0.000529	1.6e-05
308.15	0.8	0.05	0.000653	1.9e-05
308.15	0.8	0.15	0.000619	1.8e-05
308.15	0.9	0.05	0.000748	2.1e-05
318.15	0.05	0.0501	0.000371	1.2e-05
318.15	0.05	0.1001	0.000364	1.2e-05
318.15	0.05	0.3001	0.000346	1.1e-05
318.15	0.05	0.4	0.000338	1.1e-05
318.15	0.05	0.4999	0.000333	1.1e-05
318.15	0.05	0.6001	0.000328	1.1e-05
318.15	0.05	0.9	0.00032	1.1e-05
318.15	0.0501	0.2	0.000356	1.1e-05
318.15	0.0501	0.6999	0.000323	1.1e-05
318.15	0.0501	0.7999	0.000319	1e-05
318.15	0.1	0.15	0.000368	1.2e-05
318.15	0.1	0.3499	0.000356	1.1e-05
318.15	0.1	0.45	0.000352	1.1e-05
318.15	0.1	0.55	0.000345	1.1e-05
318.15	0.1	0.65	0.000341	1.1e-05
318.15	0.1	0.7501	0.00033	1.1e-05
318.15	0.1	0.85	0.000327	1.1e-05
318.15	0.1001	0.05	0.000377	1.2e-05
318.15	0.1001	0.2499	0.000358	1.1e-05
318.15	0.1999	0.25	0.000355	1.1e-05
318.15	0.1999	0.6501	0.000337	1.1e-05
318.15	0.2	0.15	0.000366	1.2e-05
318.15	0.2	0.45	0.000341	1.1e-05
318.15	0.2	0.75	0.000338	1.1e-05
318.15	0.2001	0.05	0.000379	1.2e-05
318.15	0.2001	0.3499	0.000348	1.1e-05
318.15	0.2001	0.5499	0.000342	1.1e-05
318.15	0.2999	0.05	0.000389	1.2e-05
318.15	0.2999	0.35	0.000358	1.1e-05
318.15	0.2999	0.5501	0.000342	1.1e-05
318.15	0.3	0.15	0.000377	1.2e-05
318.15	0.3	0.45	0.000349	1.1e-05
318.15	0.3001	0.2499	0.000366	1.2e-05
318.15	0.3001	0.6499	0.000339	1.1e-05
318.15	0.3999	0.05	0.000411	1.3e-05
318.15	0.3999	0.15	0.000399	1.2e-05
318.15	0.4	0.2499	0.000388	1.2e-05
318.15	0.4	0.35	0.000375	1.2e-05
318.15	0.4	0.45	0.000367	1.2e-05
318.15	0.4	0.55	0.000361	1.2e-05
318.15	0.4999	0.25	0.000403	1.3e-05
318.15	0.5	0.05	0.00044	1.4e-05
318.15	0.5	0.15	0.000419	1.3e-05
318.15	0.5001	0.3499	0.000392	1.2e-05
318.15	0.5001	0.4499	0.000385	1.2e-05
318.15	0.5999	0.15	0.000449	1.4e-05
318.15	0.6	0.05	0.000466	1.4e-05
318.15	0.6	0.35	0.000422	1.3e-05
318.15	0.6001	0.25	0.000433	1.3e-05
318.15	0.7	0.05	0.000506	1.5e-05
318.15	0.7	0.15	0.000484	1.5e-05
318.15	0.7001	0.2499	0.000468	1.4e-05
318.15	0.8	0.05	0.000559	1.7e-05
318.15	0.8	0.15	0.000534	1.6e-05
318.15	0.9	0.05	0.000632	1.8e-05

System: ethanol + butanone + 2,2,4-trimethylpentane; phases: Liquid
Fixed: Pressure, kPa = 100.8
Property: Mass density, kg/m3 (Liquid); method: VIBTUB:UFactor:2
Temperature, K	Mole fraction of ethanol	Mole fraction of butanone	Mass density, kg/m3	uncertainty
298.15	0.05	0.0501	691.7	0.4
298.15	0.05	0.1001	694.5	0.4
298.15	0.05	0.3001	708.7	0.3
298.15	0.05	0.4	717.5	0.3
298.15	0.05	0.4999	727.6	0.3
298.15	0.05	0.6001	739.4	0.3
298.15	0.05	0.9	788.2	0.3
298.15	0.0501	0.2	701	0.3
298.15	0.0501	0.6999	753	0.3
298.15	0.0501	0.7999	769	0.3
298.15	0.1	0.15	699.9	0.3
298.15	0.1	0.3499	716.3	0.3
298.15	0.1	0.45	726.5	0.3
298.15	0.1	0.55	738.3	0.3
298.15	0.1	0.65	752.1	0.3
298.15	0.1	0.7501	768.4	0.3
298.15	0.1	0.85	787.8	0.3
298.15	0.1001	0.05	693.3	0.4
298.15	0.1001	0.2499	707.5	0.3
298.15	0.1999	0.25	713.9	0.3
298.15	0.1999	0.6501	766.7	0.3
298.15	0.2	0.15	705	0.3
298.15	0.2	0.45	736.2	0.3
298.15	0.2	0.75	786.8	0.3
298.15	0.2001	0.05	697.5	0.3
298.15	0.2001	0.3499	724.1	0.3
298.15	0.2001	0.5499	750	0.3
298.15	0.2999	0.05	702.5	0.3
298.15	0.2999	0.35	733.8	0.3
298.15	0.2999	0.5501	764.7	0.3
298.15	0.3	0.15	711.2	0.3
298.15	0.3	0.45	747.9	0.3
298.15	0.3001	0.2499	721.6	0.3
298.15	0.3001	0.6499	785.4	0.3
298.15	0.3999	0.05	708.7	0.3
298.15	0.3999	0.15	718.9	0.3
298.15	0.4	0.2499	731	0.3
298.15	0.4	0.35	745.3	0.3
298.15	0.4	0.45	762.6	0.3
298.15	0.4	0.55	783.8	0.3
298.15	0.4999	0.25	742.8	0.3
298.15	0.5	0.05	716.2	0.3
298.15	0.5	0.15	728.2	0.3
298.15	0.5001	0.3499	760.4	0.3
298.15	0.5001	0.4499	782	0.3
298.15	0.5999	0.15	740.2	0.3
298.15	0.6	0.05	725.6	0.3
298.15	0.6	0.35	780.3	0.3
298.15	0.6001	0.25	758.3	0.3
298.15	0.7	0.05	737.2	0.3
298.15	0.7	0.15	755.4	0.3
298.15	0.7001	0.2499	778.4	0.3
298.15	0.8	0.05	752.5	0.3
298.15	0.8	0.15	776.1	0.3
298.15	0.9	0.05	773	0.3
308.15	0.05	0.0501	683	0.4
308.15	0.05	0.1001	685.8	0.4
308.15	0.05	0.3001	699.7	0.3
308.15	0.05	0.4	708.3	0.3
308.15	0.05	0.4999	718.3	0.3
308.15	0.05	0.6001	729.8	0.3
308.15	0.05	0.9	778	0.3
308.15	0.0501	0.2	692.2	0.4
308.15	0.0501	0.6999	743.2	0.3
308.15	0.0501	0.7999	759.2	0.3
308.15	0.1	0.15	691.1	0.4
308.15	0.1	0.3499	707.1	0.3
308.15	0.1	0.45	717.1	0.3
308.15	0.1	0.55	728.7	0.3
308.15	0.1	0.65	742.3	0.3
308.15	0.1	0.7501	758.4	0.3
308.15	0.1	0.85	777.4	0.3
308.15	0.1001	0.05	684.7	0.4
308.15	0.1001	0.2499	698.5	0.3
308.15	0.1999	0.25	704.8	0.3
308.15	0.1999	0.6501	756.7	0.3
308.15	0.2	0.15	696.2	0.3
308.15	0.2	0.45	726.5	0.3
308.15	0.2	0.75	776.4	0.3
308.15	0.2001	0.05	688.8	0.4
308.15	0.2001	0.3499	714.8	0.3
308.15	0.2001	0.5499	740.2	0.3
308.15	0.2999	0.05	693.8	0.4
308.15	0.2999	0.35	724.2	0.3
308.15	0.2999	0.5501	754.7	0.3
308.15	0.3	0.15	702.3	0.3
308.15	0.3	0.45	738.1	0.3
308.15	0.3001	0.2499	712.4	0.3
308.15	0.3001	0.6499	774.9	0.3
308.15	0.3999	0.05	699.9	0.3
308.15	0.3999	0.15	710.3	0.3
308.15	0.4	0.2499	722.1	0.3
308.15	0.4	0.35	735.9	0.3
308.15	0.4	0.45	753	0.3
308.15	0.4	0.55	773.7	0.3
308.15	0.4999	0.25	733.5	0.3
308.15	0.5	0.05	707.3	0.3
308.15	0.5	0.15	719.1	0.3
308.15	0.5001	0.3499	750.8	0.3
308.15	0.5001	0.4499	772.1	0.3
308.15	0.5999	0.15	731.3	0.3
308.15	0.6	0.05	716.7	0.3
308.15	0.6	0.35	770.6	0.3
308.15	0.6001	0.25	748.6	0.3
308.15	0.7	0.05	728.3	0.3
308.15	0.7	0.15	746.2	0.3
308.15	0.7001	0.2499	768.8	0.3
308.15	0.8	0.05	743.4	0.3
308.15	0.8	0.15	766.7	0.3
308.15	0.9	0.05	764.2	0.3
318.15	0.05	0.0501	674.3	0.4
318.15	0.05	0.1001	677	0.4
318.15	0.05	0.3001	690.5	0.4
318.15	0.05	0.4	698.9	0.3
318.15	0.05	0.4999	708.6	0.3
318.15	0.05	0.6001	719.9	0.3
318.15	0.05	0.9	767.2	0.3
318.15	0.0501	0.2	683.2	0.4
318.15	0.0501	0.6999	733.1	0.3
318.15	0.0501	0.7999	748.7	0.3
318.15	0.1	0.15	682.1	0.4
318.15	0.1	0.3499	697.7	0.3
318.15	0.1	0.45	707.5	0.3
318.15	0.1	0.55	718.9	0.3
318.15	0.1	0.65	732.2	0.3
318.15	0.1	0.7501	748	0.3
318.15	0.1	0.85	766.9	0.3
318.15	0.1001	0.05	675.9	0.4
318.15	0.1001	0.2499	689.3	0.4
318.15	0.1999	0.25	695.5	0.3
318.15	0.1999	0.6501	746.4	0.3
318.15	0.2	0.15	687.1	0.4
318.15	0.2	0.45	717	0.3
318.15	0.2	0.75	765.6	0.3
318.15	0.2001	0.05	679.9	0.4
318.15	0.2001	0.3499	705.4	0.3
318.15	0.2001	0.5499	730.4	0.3
318.15	0.2999	0.05	684.8	0.4
318.15	0.2999	0.35	714.7	0.3
318.15	0.2999	0.5501	744.7	0.3
318.15	0.3	0.15	693.1	0.4
318.15	0.3	0.45	728.3	0.3
318.15	0.3001	0.2499	703	0.3
318.15	0.3001	0.6499	764.6	0.3
318.15	0.3999	0.05	690.8	0.4
318.15	0.3999	0.15	700.7	0.3
318.15	0.4	0.2499	712.3	0.3
318.15	0.4	0.35	726.1	0.3
318.15	0.4	0.45	743	0.3
318.15	0.4	0.55	763.4	0.3
318.15	0.4999	0.25	724	0.3
318.15	0.5	0.05	698.3	0.3
318.15	0.5	0.15	709.8	0.3
318.15	0.5001	0.3499	741	0.3
318.15	0.5001	0.4499	762.1	0.3
318.15	0.5999	0.15	722	0.3
318.15	0.6	0.05	707.7	0.3
318.15	0.6	0.35	760.7	0.3
318.15	0.6001	0.25	739	0.3
318.15	0.7	0.05	719	0.3
318.15	0.7	0.15	736.6	0.3
318.15	0.7001	0.2499	758.9	0.3
318.15	0.8	0.05	734.1	0.3
318.15	0.8	0.15	757.2	0.3
318.15	0.9	0.05	754.9	0.3
