Measured thermophysical data. Thermochemistry of Benzyl Alcohol: Reaction Equilibria Involving Benzyl Alcohol and tert-Alkyl Ethers
Source: J. Chem. Eng. Data, 2004, 10.1021/je049823k
Compound 1: carbon dioxide, CO2, InChI=1S/CO2/c2-1-3
Compound 2: water, H2O, InChI=1S/H2O/h1H2
Compound 3: oxygen, O2, InChI=1S/O2/c1-2
Compound 4: benzenemethanol, C7H8O, InChI=1S/C7H8O/c8-6-7-4-2-1-3-5-7/h1-5,8H,6H2
Compound 5: butan-1-ol, C4H10O, InChI=1S/C4H10O/c1-2-3-4-5/h5H,2-4H2,1H3, purity 99.9%
Compound 6: benzyl tert-amyl ether, C12H18O, InChI=1S/C12H18O/c1-4-12(2,3)13-10-11-8-6-5-7-9-11/h5-9H,4,10H2,1-3H3
Compound 7: ether, benzyl tert-butyl, C11H16O, InChI=1S/C11H16O/c1-11(2,3)12-9-10-7-5-4-6-8-10/h4-8H,9H2,1-3H3
Compound 8: butane, 1-(1,1-dimethylethoxy)-, C8H18O, InChI=1S/C8H18O/c1-5-6-7-9-8(2,3)4/h5-7H2,1-4H3
Compound 9: butyl 1,1-dimethylpropyl ether, C9H20O, InChI=1S/C9H20O/c1-5-7-8-10-9(3,4)6-2/h5-8H2,1-4H3
Compound 10: 2-methyl-2-butene, C5H10, InChI=1S/C5H10/c1-4-5(2)3/h4H,1-3H3

System: benzenemethanol; phases: Liquid, Gas
Property: Vapor or sublimation pressure, kPa (Liquid); method: Transpiration method
Temperature, K	Vapor or sublimation pressure, kPa	uncertainty
282.9	0.00306	0.00022
285.9	0.00407	0.00029
288.9	0.00532	0.00038
292.1	0.00738	0.00052
295.3	0.00983	0.00069
298.2	0.01251	0.00088
301.2	0.01645	0.00116
302.8	0.01923	0.00136
305.8	0.02541	0.00179
308.8	0.03192	0.00224
311.7	0.03999	0.00281
314.9	0.05172	0.00364
318.1	0.06709	0.00471
321.1	0.08348	0.00585

System: ether, benzyl tert-butyl; phases: Liquid, Gas
Property: Vapor or sublimation pressure, kPa (Liquid); method: Transpiration method
Temperature, K	Vapor or sublimation pressure, kPa	uncertainty
277.8	0.00512	0.00036
278.1	0.00528	0.00037
279.1	0.00577	0.00041
281.3	0.00698	0.00049
282.9	0.00797	0.00056
284.3	0.00893	0.00063
286.2	0.01095	0.00077
287.3	0.01177	0.00082
287.8	0.01209	0.00085
288.2	0.0131	0.00095
290	0.01485	0.00104
292.2	0.0182	0.00128
293	0.01888	0.00132
293.2	0.01908	0.00133
295.2	0.02312	0.00162
296.2	0.02445	0.00171
297.2	0.02652	0.00186
298	0.02843	0.00202
298.2	0.02924	0.00208
299.2	0.03085	0.00216
300.3	0.03419	0.0024
302.2	0.03875	0.00271
303.1	0.04177	0.00318
303.2	0.04305	0.00326
308	0.05754	0.00402

Reaction: -1 ether, benzyl tert-butyl + 11 carbon dioxide + 8 water + -14.5 oxygen
Property: Specific internal energy of reaction at constant volume, J/g
-38754.04

Reaction: 1 butan-1-ol + -1 benzenemethanol + -1 butane, 1-(1,1-dimethylethoxy)- + 1 ether, benzyl tert-butyl
Property: Equilibrium constant in terms of mole fraction
2
1.75
1.51
1.42
1.45
1.41
1.28
1.18
1.21
1.05
1.08
1.04
1.03

Reaction: 1 butan-1-ol + -1 benzenemethanol + -1 butyl 1,1-dimethylpropyl ether + 1 benzyl tert-amyl ether
Property: Equilibrium constant in terms of mole fraction
0.917
1.76
1.49
0.854
0.952
1.31
0.882
1.11
0.84
0.796
0.746

Reaction: -1 benzenemethanol + -1 2-methyl-2-butene + 1 benzyl tert-amyl ether
Property: Equilibrium constant in terms of mole fraction
76.8
26.2
25.1
18.2
15.6
18
9.8
10.2
23.2
9.68
10.9
9.8
6.99
6.8
6.68
5.41
6.29
3.81
4.2
3.74
2.65
2.38
2.67
2.45
3.63
2.68
1.59
1.51
1.43
0.995
0.975
0.833
0.754
1.66

Reaction: -1 butan-1-ol + -1 2-methyl-2-butene + 1 butyl 1,1-dimethylpropyl ether
Property: Equilibrium constant in terms of mole fraction
19.7
8.86
6.62
11.9
5.18
5.16
3.02
2.21
1.7
1.25
1.32
