Measured thermophysical data. Viscosity, Density, and Refractive Index of Some (Ester + Hydrocarbon) Binary Mixtures at 303.15 K and 313.15 K
Source: J. Chem. Eng. Data, 2005, 10.1021/je0400052
Compound 1: ethyl methanoate, C3H6O2, InChI=1S/C3H6O2/c1-2-5-3-4/h3H,2H2,1H3
Compound 2: ethyl benzoate, C9H10O2, InChI=1S/C9H10O2/c1-2-11-9(10)8-6-4-3-5-7-8/h3-7H,2H2,1H3
Compound 3: 1,2-dimethylbenzene, C8H10, InChI=1S/C8H10/c1-7-5-3-4-6-8(7)2/h3-6H,1-2H3
Compound 4: 1,3-dimethylbenzene, C8H10, InChI=1S/C8H10/c1-7-4-3-5-8(2)6-7/h3-6H,1-2H3
Compound 5: 1,4-dimethylbenzene, C8H10, InChI=1S/C8H10/c1-7-3-5-8(2)6-4-7/h3-6H,1-2H3
Compound 6: ethylbenzene, C8H10, InChI=1S/C8H10/c1-2-8-6-4-3-5-7-8/h3-7H,2H2,1H3

System: ethyl methanoate; phases: Liquid
Fixed: Pressure, kPa = 101.325
Property: Viscosity, Pa*s (Liquid); method: CAPTUB:UFactor:4
Temperature, K	Viscosity, Pa*s	uncertainty
303.15	0.000366	1.1e-05
313.15	0.000339	1.1e-05

System: ethyl methanoate; phases: Liquid
Fixed: Pressure, kPa = 101.325
Property: Refractive index (Na D-line) (Liquid); method: ABBE:UFactor:8
Temperature, K	Refractive index (Na D-line)	uncertainty
303.15	1.3552	0.0032
313.15	1.3549	0.0032

System: ethyl methanoate; phases: Liquid
Fixed: Pressure, kPa = 101.325
Property: Mass density, kg/m3 (Liquid); method: PYCNOM:UFactor:8
Temperature, K	Mass density, kg/m3	uncertainty
303.15	908.1	2.1
313.15	894.9	2.2

System: ethyl benzoate; phases: Liquid
Fixed: Pressure, kPa = 101.325
Property: Viscosity, Pa*s (Liquid); method: CAPTUB:UFactor:4
Temperature, K	Viscosity, Pa*s	uncertainty
303.15	0.001748	4.2e-05
313.15	0.001438	3.5e-05

System: ethyl benzoate; phases: Liquid
Fixed: Pressure, kPa = 101.325
Property: Refractive index (Na D-line) (Liquid); method: ABBE:UFactor:8
Temperature, K	Refractive index (Na D-line)	uncertainty
303.15	1.5009	0.0025
313.15	1.4997	0.0025

System: ethyl benzoate; phases: Liquid
Fixed: Pressure, kPa = 101.325
Property: Mass density, kg/m3 (Liquid); method: PYCNOM:UFactor:8
Temperature, K	Mass density, kg/m3	uncertainty
303.15	1037.4	2.3
313.15	1028.5	2.4

System: 1,2-dimethylbenzene; phases: Liquid
Fixed: Pressure, kPa = 101.325
Property: Viscosity, Pa*s (Liquid); method: CAPTUB:UFactor:4
Temperature, K	Viscosity, Pa*s	uncertainty
303.15	0.000695	1.8e-05
313.15	0.000621	1.7e-05

System: 1,2-dimethylbenzene; phases: Liquid
Fixed: Pressure, kPa = 101.325
Property: Refractive index (Na D-line) (Liquid); method: ABBE:UFactor:8
Temperature, K	Refractive index (Na D-line)	uncertainty
303.15	1.5001	0.0025
313.15	1.4981	0.0025

System: 1,2-dimethylbenzene; phases: Liquid
Fixed: Pressure, kPa = 101.325
Property: Mass density, kg/m3 (Liquid); method: PYCNOM:UFactor:8
Temperature, K	Mass density, kg/m3	uncertainty
303.15	870.8	1.9
313.15	863.3	2

System: 1,3-dimethylbenzene; phases: Liquid
Fixed: Pressure, kPa = 101.325
Property: Viscosity, Pa*s (Liquid); method: CAPTUB:UFactor:4
Temperature, K	Viscosity, Pa*s	uncertainty
303.15	0.000557	1.5e-05
313.15	0.000508	1.4e-05

System: 1,3-dimethylbenzene; phases: Liquid
Fixed: Pressure, kPa = 101.325
Property: Refractive index (Na D-line) (Liquid); method: ABBE:UFactor:8
Temperature, K	Refractive index (Na D-line)	uncertainty
303.15	1.492	0.0025
313.15	1.4901	0.0025

System: 1,3-dimethylbenzene; phases: Liquid
Fixed: Pressure, kPa = 101.325
Property: Mass density, kg/m3 (Liquid); method: PYCNOM:UFactor:8
Temperature, K	Mass density, kg/m3	uncertainty
303.15	855.3	1.8
313.15	847.1	2

System: 1,4-dimethylbenzene; phases: Liquid
Fixed: Pressure, kPa = 101.325
Property: Viscosity, Pa*s (Liquid); method: CAPTUB:UFactor:4
Temperature, K	Viscosity, Pa*s	uncertainty
303.15	0.000566	1.6e-05
313.15	0.000517	1.5e-05

System: 1,4-dimethylbenzene; phases: Liquid
Fixed: Pressure, kPa = 101.325
Property: Refractive index (Na D-line) (Liquid); method: ABBE:UFactor:8
Temperature, K	Refractive index (Na D-line)	uncertainty
303.15	1.4911	0.0025
313.15	1.4902	0.0025

System: 1,4-dimethylbenzene; phases: Liquid
Fixed: Pressure, kPa = 101.325
Property: Mass density, kg/m3 (Liquid); method: PYCNOM:UFactor:8
Temperature, K	Mass density, kg/m3	uncertainty
303.15	851.9	1.8
313.15	844	2

System: ethylbenzene; phases: Liquid
Fixed: Pressure, kPa = 101.325
Property: Viscosity, Pa*s (Liquid); method: CAPTUB:UFactor:4
Temperature, K	Viscosity, Pa*s	uncertainty
303.15	0.000597	1.6e-05
313.15	0.000538	1.5e-05

System: ethylbenzene; phases: Liquid
Fixed: Pressure, kPa = 101.325
Property: Refractive index (Na D-line) (Liquid); method: ABBE:UFactor:8
Temperature, K	Refractive index (Na D-line)	uncertainty
303.15	1.491	0.0025
313.15	1.4891	0.0025

System: ethylbenzene; phases: Liquid
Fixed: Pressure, kPa = 101.325
Property: Mass density, kg/m3 (Liquid); method: PYCNOM:UFactor:8
Temperature, K	Mass density, kg/m3	uncertainty
303.15	857.6	1.8
313.15	849.2	2

System: 1,2-dimethylbenzene + ethyl methanoate; phases: Liquid
Fixed: Pressure, kPa = 101.3
Property: Viscosity, Pa*s (Liquid); method: CAPTUB:UFactor:4
Temperature, K	Mole fraction of ethyl methanoate	Viscosity, Pa*s	uncertainty
303.15	0.1467	0.00063	1.7e-05
303.15	0.2667	0.000586	1.6e-05
303.15	0.3779	0.000544	1.5e-05
303.15	0.4984	0.000502	1.4e-05
303.15	0.5936	0.000471	1.4e-05
303.15	0.694	0.000444	1.3e-05
303.15	0.7791	0.00042	1.2e-05
303.15	0.8563	0.0004	1.2e-05
303.15	0.9337	0.000378	1.1e-05
313.15	0.1467	0.000558	1.5e-05
313.15	0.2667	0.000521	1.5e-05
313.15	0.3779	0.000487	1.4e-05
313.15	0.4984	0.000452	1.3e-05
313.15	0.5936	0.00043	1.3e-05
313.15	0.694	0.000402	1.2e-05
313.15	0.7791	0.000382	1.2e-05
313.15	0.8563	0.000366	1.1e-05
313.15	0.9337	0.000359	1.1e-05

System: 1,2-dimethylbenzene + ethyl methanoate; phases: Liquid
Fixed: Pressure, kPa = 101.3
Property: Refractive index (Na D-line) (Liquid); method: ABBE:UFactor:32
Temperature, K	Mole fraction of ethyl methanoate	Refractive index (Na D-line)	uncertainty
303.15	0.1467	1.4906	0.0099
303.15	0.2667	1.4873	0.0099
303.15	0.3779	1.4786	0.0099
303.15	0.4984	1.4721	0.0099
303.15	0.5936	1.4631	0.0099
303.15	0.694	1.4347	0.01
303.15	0.7791	1.4072	0.0099
303.15	0.8563	1.3981	0.0099
303.15	0.9337	1.3729	0.0099
313.15	0.1467	1.4896	0.0099
313.15	0.2667	1.4819	0.0099
313.15	0.3779	1.4735	0.0099
313.15	0.4984	1.4671	0.0099
313.15	0.5936	1.4612	0.01
313.15	0.694	1.4216	0.0099
313.15	0.7791	1.4061	0.0099
313.15	0.8563	1.3969	0.0099
313.15	0.9337	1.3701	0.0099

System: 1,2-dimethylbenzene + ethyl methanoate; phases: Liquid
Fixed: Pressure, kPa = 101.3
Property: Mass density, kg/m3 (Liquid); method: PYCNOM:UFactor:16
Temperature, K	Mole fraction of ethyl methanoate	Mass density, kg/m3	uncertainty
303.15	0.1467	872.7	3.5
303.15	0.2667	877.4	3.6
303.15	0.3779	880	3.6
303.15	0.4984	882.6	3.6
303.15	0.5936	886.9	3.6
303.15	0.694	891.2	3.7
303.15	0.7791	896.7	3.7
303.15	0.8563	901.2	3.7
303.15	0.9337	903.7	3.8
313.15	0.1467	864.6	3.9
313.15	0.2667	868.5	3.9
313.15	0.3779	871.9	3.9
313.15	0.4984	873.7	3.9
313.15	0.5936	876.9	3.9
313.15	0.694	881.6	4
313.15	0.7791	885.9	4
313.15	0.8563	889.6	4
313.15	0.9337	891.1	4.1

System: 1,3-dimethylbenzene + ethyl methanoate; phases: Liquid
Fixed: Pressure, kPa = 101.3
Property: Viscosity, Pa*s (Liquid); method: CAPTUB:UFactor:4
Temperature, K	Mole fraction of ethyl methanoate	Viscosity, Pa*s	uncertainty
303.15	0.1348	0.000524	1.5e-05
303.15	0.2728	0.000494	1.4e-05
303.15	0.3968	0.000467	1.3e-05
303.15	0.4988	0.000449	1.3e-05
303.15	0.6032	0.00043	1.3e-05
303.15	0.6923	0.000414	1.2e-05
303.15	0.7867	0.000398	1.2e-05
303.15	0.8591	0.000386	1.2e-05
303.15	0.9379	0.000373	1.1e-05
313.15	0.1348	0.000479	1.4e-05
313.15	0.2728	0.000453	1.3e-05
313.15	0.3968	0.000431	1.3e-05
313.15	0.4988	0.000412	1.2e-05
313.15	0.6032	0.000397	1.2e-05
313.15	0.6923	0.000384	1.2e-05
313.15	0.7867	0.000369	1.1e-05
313.15	0.8591	0.000357	1.1e-05
313.15	0.9379	0.000347	1.1e-05

System: 1,3-dimethylbenzene + ethyl methanoate; phases: Liquid
Fixed: Pressure, kPa = 101.3
Property: Refractive index (Na D-line) (Liquid); method: ABBE:UFactor:32
Temperature, K	Mole fraction of ethyl methanoate	Refractive index (Na D-line)	uncertainty
303.15	0.1348	1.4892	0.0099
303.15	0.2728	1.4695	0.0099
303.15	0.3968	1.4561	0.0099
303.15	0.4988	1.4391	0.0099
303.15	0.6032	1.4288	0.0099
303.15	0.6923	1.4265	0.0099
303.15	0.7867	1.4055	0.0099
303.15	0.8591	1.3875	0.01
303.15	0.9379	1.3856	0.0099
313.15	0.1348	1.482	0.0099
313.15	0.2728	1.4679	0.0099
313.15	0.3968	1.4578	0.0099
313.15	0.4988	1.438	0.0099
313.15	0.6032	1.4276	0.0099
313.15	0.6923	1.4253	0.0099
313.15	0.7867	1.4043	0.0099
313.15	0.8591	1.385	0.0099
313.15	0.9379	1.3841	0.0099

System: 1,3-dimethylbenzene + ethyl methanoate; phases: Liquid
Fixed: Pressure, kPa = 101.3
Property: Mass density, kg/m3 (Liquid); method: PYCNOM:UFactor:16
Temperature, K	Mole fraction of ethyl methanoate	Mass density, kg/m3	uncertainty
303.15	0.1348	858.3	3.5
303.15	0.2728	863.3	3.5
303.15	0.3968	868.7	3.5
303.15	0.4988	873.1	3.6
303.15	0.6032	877.7	3.6
303.15	0.6923	882.8	3.6
303.15	0.7867	888.4	3.6
303.15	0.8591	895	3.7
303.15	0.9379	900.1	3.7
313.15	0.1348	849.8	3.8
313.15	0.2728	854.4	3.8
313.15	0.3968	859.5	3.8
313.15	0.4988	864.3	3.9
313.15	0.6032	869.2	3.9
313.15	0.6923	874.3	3.9
313.15	0.7867	880.1	3.9
313.15	0.8591	884.1	4
313.15	0.9379	889.7	4

System: 1,4-dimethylbenzene + ethyl methanoate; phases: Liquid
Fixed: Pressure, kPa = 101.3
Property: Viscosity, Pa*s (Liquid); method: CAPTUB:UFactor:4
Temperature, K	Mole fraction of ethyl methanoate	Viscosity, Pa*s	uncertainty
303.15	0.1658	0.000523	1.5e-05
303.15	0.2572	0.000503	1.4e-05
303.15	0.4068	0.000472	1.4e-05
303.15	0.5039	0.000452	1.3e-05
303.15	0.6037	0.000434	1.3e-05
303.15	0.6916	0.000418	1.2e-05
303.15	0.7854	0.000403	1.2e-05
303.15	0.8588	0.00039	1.2e-05
303.15	0.9381	0.000375	1.1e-05
313.15	0.1658	0.000477	1.4e-05
313.15	0.2572	0.000451	1.3e-05
313.15	0.4068	0.000424	1.2e-05
313.15	0.5039	0.000407	1.2e-05
313.15	0.6037	0.000393	1.2e-05
313.15	0.6916	0.00038	1.1e-05
313.15	0.7854	0.000371	1.1e-05
313.15	0.8588	0.00036	1.1e-05
313.15	0.9381	0.000348	1.1e-05

System: 1,4-dimethylbenzene + ethyl methanoate; phases: Liquid
Fixed: Pressure, kPa = 101.3
Property: Refractive index (Na D-line) (Liquid); method: ABBE:UFactor:32
Temperature, K	Mole fraction of ethyl methanoate	Refractive index (Na D-line)	uncertainty
303.15	0.1658	1.4785	0.0099
303.15	0.2572	1.4746	0.0099
303.15	0.4068	1.4671	0.0099
303.15	0.5039	1.4532	0.0099
303.15	0.6037	1.451	0.0099
303.15	0.6916	1.4239	0.01
303.15	0.7854	1.4121	0.0099
303.15	0.8588	1.3901	0.0099
303.15	0.9381	1.3711	0.0099
313.15	0.1658	1.4779	0.0099
313.15	0.2572	1.4732	0.0099
313.15	0.4068	1.4611	0.0099
313.15	0.5039	1.4499	0.0099
313.15	0.6037	1.4491	0.01
313.15	0.6916	1.4201	0.0099
313.15	0.7854	1.4091	0.0099
313.15	0.8588	1.3891	0.0099
313.15	0.9381	1.3689	0.0099

System: 1,4-dimethylbenzene + ethyl methanoate; phases: Liquid
Fixed: Pressure, kPa = 101.3
Property: Mass density, kg/m3 (Liquid); method: PYCNOM:UFactor:16
Temperature, K	Mole fraction of ethyl methanoate	Mass density, kg/m3	uncertainty
303.15	0.1658	857.7	3.5
303.15	0.2572	861.1	3.5
303.15	0.4068	868.2	3.5
303.15	0.5039	871.6	3.6
303.15	0.6037	878.8	3.6
303.15	0.6916	883.4	3.6
303.15	0.7854	889.6	3.7
303.15	0.8588	896	3.7
303.15	0.9381	902.9	3.7
313.15	0.1658	849	3.8
313.15	0.2572	851.7	3.8
313.15	0.4068	858.8	3.9
313.15	0.5039	861.8	3.9
313.15	0.6037	868.8	3.9
313.15	0.6916	873.5	3.9
313.15	0.7854	877.8	4
313.15	0.8588	884.7	4
313.15	0.9381	891	4

System: ethylbenzene + ethyl methanoate; phases: Liquid
Fixed: Pressure, kPa = 101.3
Property: Viscosity, Pa*s (Liquid); method: CAPTUB:UFactor:4
Temperature, K	Mole fraction of ethyl methanoate	Viscosity, Pa*s	uncertainty
303.15	0.1478	0.000558	1.5e-05
303.15	0.2728	0.000527	1.5e-05
303.15	0.3884	0.000499	1.4e-05
303.15	0.4978	0.000473	1.4e-05
303.15	0.6	0.00045	1.3e-05
303.15	0.6925	0.00043	1.3e-05
303.15	0.7768	0.000413	1.2e-05
303.15	0.851	0.000397	1.2e-05
303.15	0.9309	0.00038	1.1e-05
313.15	0.1478	0.000502	1.4e-05
313.15	0.2728	0.000476	1.4e-05
313.15	0.3884	0.000452	1.3e-05
313.15	0.4978	0.00042	1.2e-05
313.15	0.6	0.000409	1.2e-05
313.15	0.6925	0.000391	1.2e-05
313.15	0.7768	0.000376	1.1e-05
313.15	0.851	0.000363	1.1e-05
313.15	0.9309	0.000351	1.1e-05

System: ethylbenzene + ethyl methanoate; phases: Liquid
Fixed: Pressure, kPa = 101.3
Property: Refractive index (Na D-line) (Liquid); method: ABBE:UFactor:16
Temperature, K	Mole fraction of ethyl methanoate	Refractive index (Na D-line)	uncertainty
303.15	0.1478	1.4809	0.005
303.15	0.2728	1.4691	0.005
303.15	0.3884	1.4568	0.005
303.15	0.4978	1.4431	0.005
303.15	0.6	1.4286	0.005
303.15	0.6925	1.4157	0.005
303.15	0.7768	1.4058	0.005
303.15	0.851	1.3938	0.005
303.15	0.9309	1.3709	0.005
313.15	0.1478	1.4791	0.005
313.15	0.2728	1.4682	0.005
313.15	0.3884	1.4532	0.005
313.15	0.4978	1.4415	0.005
313.15	0.6	1.4269	0.005
313.15	0.6925	1.4142	0.005
313.15	0.7768	1.4042	0.005
313.15	0.851	1.3921	0.005
313.15	0.9309	1.3695	0.005

System: ethylbenzene + ethyl methanoate; phases: Liquid
Fixed: Pressure, kPa = 101.3
Property: Mass density, kg/m3 (Liquid); method: PYCNOM:UFactor:16
Temperature, K	Mole fraction of ethyl methanoate	Mass density, kg/m3	uncertainty
303.15	0.1478	862.2	3.5
303.15	0.2728	869.9	3.6
303.15	0.3884	871.2	3.6
303.15	0.4978	876.3	3.6
303.15	0.6	881.8	3.6
303.15	0.6925	886.6	3.6
303.15	0.7768	891	3.7
303.15	0.851	896.6	3.7
303.15	0.9309	903.7	3.7
313.15	0.1478	853.7	3.8
313.15	0.2728	857.7	3.9
313.15	0.3884	861.8	3.9
313.15	0.4978	866.3	3.9
313.15	0.6	873.2	3.9
313.15	0.6925	875.9	3.9
313.15	0.7768	880	4
313.15	0.851	885.1	4
313.15	0.9309	891.7	4

System: ethyl benzoate + 1,2-dimethylbenzene; phases: Liquid
Fixed: Pressure, kPa = 101.3
Property: Viscosity, Pa*s (Liquid); method: CAPTUB:UFactor:4
Temperature, K	Mole fraction of ethyl benzoate	Viscosity, Pa*s	uncertainty
303.15	0.0847	0.000758	2e-05
303.15	0.1749	0.000837	2.2e-05
303.15	0.2686	0.000909	2.3e-05
303.15	0.3579	0.001	2.5e-05
303.15	0.4613	0.001085	2.7e-05
303.15	0.56	0.00119	2.9e-05
303.15	0.6668	0.001312	3.2e-05
303.15	0.7675	0.001433	3.5e-05
303.15	0.8768	0.001566	3.8e-05
313.15	0.0847	0.000676	1.8e-05
313.15	0.1749	0.000732	1.9e-05
313.15	0.2686	0.0008	2.1e-05
313.15	0.3579	0.000864	2.2e-05
313.15	0.4613	0.000937	2.4e-05
313.15	0.56	0.001015	2.6e-05
313.15	0.6668	0.001113	2.8e-05
313.15	0.7675	0.001208	3e-05
313.15	0.8768	0.00131	3.2e-05

System: ethyl benzoate + 1,2-dimethylbenzene; phases: Liquid
Fixed: Pressure, kPa = 101.3
Property: Refractive index (Na D-line) (Liquid); method: ABBE:UFactor:16
Temperature, K	Mole fraction of ethyl benzoate	Refractive index (Na D-line)	uncertainty
303.15	0.0847	1.4994	0.005
303.15	0.1749	1.4996	0.005
303.15	0.2686	1.4999	0.005
303.15	0.3579	1.5001	0.005
303.15	0.4613	1.5007	0.005
303.15	0.56	1.5009	0.005
303.15	0.6668	1.501	0.005
303.15	0.7675	1.5011	0.005
303.15	0.8768	1.5013	0.005
313.15	0.0847	1.4983	0.005
313.15	0.1749	1.4986	0.005
313.15	0.2686	1.4989	0.005
313.15	0.3579	1.4993	0.005
313.15	0.4613	1.4995	0.005
313.15	0.56	1.4997	0.005
313.15	0.6668	1.4999	0.005
313.15	0.7675	1.5001	0.005
313.15	0.8768	1.5003	0.005

System: ethyl benzoate + 1,2-dimethylbenzene; phases: Liquid
Fixed: Pressure, kPa = 101.3
Property: Mass density, kg/m3 (Liquid); method: PYCNOM:UFactor:16
Temperature, K	Mole fraction of ethyl benzoate	Mass density, kg/m3	uncertainty
303.15	0.0847	887.3	3.6
303.15	0.1749	904.2	3.7
303.15	0.2686	920.9	3.8
303.15	0.3579	937.5	3.8
303.15	0.4613	954	4
303.15	0.56	972.3	4
303.15	0.6668	988.1	4.1
303.15	0.7675	1001.3	4.2
303.15	0.8768	1021.1	4.3
313.15	0.0847	879.3	3.9
313.15	0.1749	896.1	4
313.15	0.2686	913.1	4.1
313.15	0.3579	930.2	4.2
313.15	0.4613	945.7	4.3
313.15	0.56	963.8	4.4
313.15	0.6668	980.8	4.4
313.15	0.7675	992.7	4.5
313.15	0.8768	1010.9	4.6

System: ethyl benzoate + 1,3-dimethylbenzene; phases: Liquid
Fixed: Pressure, kPa = 101.3
Property: Viscosity, Pa*s (Liquid); method: CAPTUB:UFactor:4
Temperature, K	Mole fraction of ethyl benzoate	Viscosity, Pa*s	uncertainty
303.15	0.0887	0.000612	1.7e-05
303.15	0.1713	0.000676	1.8e-05
303.15	0.2626	0.000759	2e-05
303.15	0.3553	0.000837	2.2e-05
303.15	0.4588	0.000931	2.4e-05
303.15	0.5707	0.001055	2.6e-05
303.15	0.6576	0.001161	2.9e-05
303.15	0.7831	0.001352	3.3e-05
303.15	0.8832	0.0015	3.6e-05
313.15	0.0887	0.000547	1.5e-05
313.15	0.1713	0.000601	1.6e-05
313.15	0.2626	0.000664	1.8e-05
313.15	0.3553	0.000732	1.9e-05
313.15	0.4588	0.000809	2.1e-05
313.15	0.5707	0.00091	2.3e-05
313.15	0.6576	0.000997	2.5e-05
313.15	0.7831	0.001146	2.8e-05
313.15	0.8832	0.001274	3.1e-05

System: ethyl benzoate + 1,3-dimethylbenzene; phases: Liquid
Fixed: Pressure, kPa = 101.3
Property: Refractive index (Na D-line) (Liquid); method: ABBE:UFactor:16
Temperature, K	Mole fraction of ethyl benzoate	Refractive index (Na D-line)	uncertainty
303.15	0.0887	1.4946	0.005
303.15	0.1713	1.4957	0.005
303.15	0.2626	1.4964	0.005
303.15	0.3553	1.497	0.005
303.15	0.4588	1.4974	0.005
303.15	0.5707	1.499	0.005
303.15	0.6576	1.4995	0.005
303.15	0.7831	1.5003	0.005
303.15	0.8832	1.5011	0.005
313.15	0.0887	1.4917	0.005
313.15	0.1713	1.4925	0.005
313.15	0.2626	1.4939	0.005
313.15	0.3553	1.4955	0.005
313.15	0.4588	1.4963	0.005
313.15	0.5707	1.4979	0.005
313.15	0.6576	1.4984	0.005
313.15	0.7831	1.4988	0.005
313.15	0.8832	1.4993	0.005

System: ethyl benzoate + 1,3-dimethylbenzene; phases: Liquid
Fixed: Pressure, kPa = 101.3
Property: Mass density, kg/m3 (Liquid); method: PYCNOM:UFactor:16
Temperature, K	Mole fraction of ethyl benzoate	Mass density, kg/m3	uncertainty
303.15	0.0887	871.6	3.6
303.15	0.1713	887.2	3.7
303.15	0.2626	905.2	3.7
303.15	0.3553	926	3.8
303.15	0.4588	946.8	3.9
303.15	0.5707	966.5	4
303.15	0.6576	981.7	4.1
303.15	0.7831	1002.2	4.2
303.15	0.8832	1018.5	4.3
313.15	0.0887	857.3	3.9
313.15	0.1713	875	4
313.15	0.2626	895.5	4
313.15	0.3553	917.5	4.1
313.15	0.4588	937.2	4.2
313.15	0.5707	966.5	4.4
313.15	0.6576	971.7	4.4
313.15	0.7831	993.7	4.5
313.15	0.8832	1009.8	4.6

System: ethyl benzoate + 1,4-dimethylbenzene; phases: Liquid
Fixed: Pressure, kPa = 101.3
Property: Viscosity, Pa*s (Liquid); method: CAPTUB:UFactor:4
Temperature, K	Mole fraction of ethyl benzoate	Viscosity, Pa*s	uncertainty
303.15	0.0916	0.000622	1.7e-05
303.15	0.1757	0.000679	1.8e-05
303.15	0.2719	0.000765	2e-05
303.15	0.3616	0.000837	2.2e-05
303.15	0.4681	0.000951	2.4e-05
303.15	0.5703	0.001045	2.6e-05
303.15	0.673	0.001181	2.9e-05
303.15	0.7781	0.001325	3.2e-05
303.15	0.8651	0.001469	3.5e-05
303.15	0.937	0.001603	3.8e-05
313.15	0.0916	0.00055	1.5e-05
313.15	0.1757	0.000606	1.6e-05
313.15	0.2719	0.000686	1.8e-05
313.15	0.3616	0.000739	1.9e-05
313.15	0.4681	0.000825	2.1e-05
313.15	0.5703	0.0009	2.3e-05
313.15	0.673	0.001008	2.5e-05
313.15	0.7781	0.001126	2.8e-05
313.15	0.8651	0.001239	3e-05
313.15	0.937	0.001339	3.3e-05

System: ethyl benzoate + 1,4-dimethylbenzene; phases: Liquid
Fixed: Pressure, kPa = 101.3
Property: Refractive index (Na D-line) (Liquid); method: ABBE:UFactor:16
Temperature, K	Mole fraction of ethyl benzoate	Refractive index (Na D-line)	uncertainty
303.15	0.0916	1.4931	0.005
303.15	0.1757	1.4939	0.005
303.15	0.2719	1.4951	0.005
303.15	0.3616	1.4957	0.005
303.15	0.4681	1.4965	0.005
303.15	0.5703	1.497	0.005
303.15	0.673	1.4983	0.005
303.15	0.7781	1.4988	0.005
303.15	0.8651	1.4995	0.005
303.15	0.937	1.5001	0.005
313.15	0.0916	1.4912	0.005
313.15	0.1757	1.4924	0.005
313.15	0.2719	1.4948	0.005
313.15	0.3616	1.495	0.005
313.15	0.4681	1.4956	0.005
313.15	0.5703	1.4963	0.005
313.15	0.673	1.4972	0.005
313.15	0.7781	1.4979	0.005
313.15	0.8651	1.4989	0.005
313.15	0.937	1.4996	0.005

System: ethyl benzoate + 1,4-dimethylbenzene; phases: Liquid
Fixed: Pressure, kPa = 101.3
Property: Mass density, kg/m3 (Liquid); method: PYCNOM:UFactor:16
Temperature, K	Mole fraction of ethyl benzoate	Mass density, kg/m3	uncertainty
303.15	0.0916	871.1	3.5
303.15	0.1757	889.3	3.6
303.15	0.2719	908.4	3.7
303.15	0.3616	925.3	3.8
303.15	0.4681	947.1	3.9
303.15	0.5703	964.8	4
303.15	0.673	982.8	4.1
303.15	0.7781	1000.8	4.2
303.15	0.8651	1022.8	4.3
303.15	0.937	1040.8	4.4
313.15	0.0916	863	3.9
313.15	0.1757	880.9	4
313.15	0.2719	899.9	4
313.15	0.3616	917.3	4.1
313.15	0.4681	937.5	4.2
313.15	0.5703	956	4.3
313.15	0.673	974	4.4
313.15	0.7781	993.2	4.5
313.15	0.8651	1010.2	4.6
313.15	0.937	1028.2	4.7

System: ethyl benzoate + ethylbenzene; phases: Liquid
Fixed: Pressure, kPa = 101.3
Property: Viscosity, Pa*s (Liquid); method: CAPTUB:UFactor:4
Temperature, K	Mole fraction of ethyl benzoate	Viscosity, Pa*s	uncertainty
303.15	0.0862	0.000643	1.7e-05
303.15	0.1804	0.000711	1.9e-05
303.15	0.2589	0.000767	2e-05
303.15	0.3522	0.000857	2.2e-05
303.15	0.472	0.00097	2.5e-05
303.15	0.5625	0.001071	2.7e-05
303.15	0.6722	0.001206	3e-05
303.15	0.7675	0.00133	3.2e-05
303.15	0.8678	0.001496	3.6e-05
303.15	0.9325	0.001615	3.9e-05
313.15	0.0862	0.00057	1.6e-05
313.15	0.1804	0.000629	1.7e-05
313.15	0.2589	0.000682	1.8e-05
313.15	0.3522	0.000745	2e-05
313.15	0.472	0.000844	2.2e-05
313.15	0.5625	0.000937	2.4e-05
313.15	0.6722	0.001063	2.7e-05
313.15	0.7675	0.001169	2.9e-05
313.15	0.8678	0.001268	3.1e-05
313.15	0.9325	0.001335	3.3e-05

System: ethyl benzoate + ethylbenzene; phases: Liquid
Fixed: Pressure, kPa = 101.3
Property: Refractive index (Na D-line) (Liquid); method: ABBE:UFactor:16
Temperature, K	Mole fraction of ethyl benzoate	Refractive index (Na D-line)	uncertainty
303.15	0.0862	1.492	0.005
303.15	0.1804	1.4932	0.005
303.15	0.2589	1.4934	0.005
303.15	0.3522	1.4942	0.005
303.15	0.472	1.496	0.005
303.15	0.5625	1.4968	0.005
303.15	0.6722	1.4971	0.005
303.15	0.7675	1.4992	0.005
303.15	0.8678	1.4998	0.005
303.15	0.9325	1.5003	0.005
313.15	0.0862	1.4911	0.005
313.15	0.1804	1.4921	0.005
313.15	0.2589	1.493	0.005
313.15	0.3522	1.4937	0.005
313.15	0.472	1.4954	0.005
313.15	0.5625	1.4959	0.005
313.15	0.6722	1.4963	0.005
313.15	0.7675	1.4981	0.005
313.15	0.8678	1.4992	0.005
313.15	0.9325	1.4996	0.005

System: ethyl benzoate + ethylbenzene; phases: Liquid
Fixed: Pressure, kPa = 101.3
Property: Mass density, kg/m3 (Liquid); method: PYCNOM:UFactor:16
Temperature, K	Mole fraction of ethyl benzoate	Mass density, kg/m3	uncertainty
303.15	0.0862	875.1	3.6
303.15	0.1804	892.6	3.7
303.15	0.2589	910.2	3.7
303.15	0.3522	927.2	3.8
303.15	0.472	950.1	3.9
303.15	0.5625	967	4
303.15	0.6722	984.9	4.1
303.15	0.7675	1002	4.2
303.15	0.8678	1019	4.3
303.15	0.9325	1040.9	4.4
313.15	0.0862	867	3.9
313.15	0.1804	884.3	4
313.15	0.2589	901.3	4.1
313.15	0.3522	918.1	4.1
313.15	0.472	941.4	4.2
313.15	0.5625	960.4	4.3
313.15	0.6722	976.2	4.4
313.15	0.7675	993	4.5
313.15	0.8678	1009.7	4.6
313.15	0.9325	1027.4	4.7
