Measured thermophysical data. Vibrating Wire Viscometer with Wire Diameters of (0.05 and 0.15) mm: Results for Methylbenzene and Two Fluids with Nominal Viscosities at T = 298 K and p = 0.01 MPa of (14 and 232) mPa*s at Temperatures between (298 and 373) K and Pressures below 40 MPa
Source: J. Chem. Eng. Data, 2005, 10.1021/je049636m
Compound 1: toluene, C7H8, InChI=1S/C7H8/c1-7-5-3-2-4-6-7/h2-6H,1H3
Compound 2: methane, CH4, InChI=1S/CH4/h1H4, purity 0.9999%
Compound 3: propane, C3H8, InChI=1S/C3H8/c1-3-2/h3H2,1-2H3, purity 0.9985%

System: toluene; phases: Liquid
Property: Viscosity, Pa*s (Liquid); method: VIBWIR:UFactor:0.5
Temperature, K	Pressure, kPa	Viscosity, Pa*s	uncertainty
298.15	100	0.000555	4.5e-06
298.15	2110	0.0005649	4.5e-06
298.15	4100	0.0005743	4.6e-06
298.15	6100	0.000585	4.6e-06
298.15	8110	0.0005937	4.7e-06
298.15	10110	0.0006024	4.7e-06
323.15	100	0.0004188	3.7e-06
323.15	2080	0.000429	3.7e-06
323.15	4110	0.0004348	3.8e-06
323.15	6000	0.0004409	3.9e-06
323.15	8120	0.0004493	3.9e-06
323.15	10050	0.000455	3.9e-06
323.15	12210	0.0004637	3.9e-06
323.15	15000	0.0004736	3.9e-06
348.15	100	0.0003331	3.2e-06
348.15	2120	0.0003382	3.2e-06
348.15	12110	0.0003664	3.4e-06
348.15	15210	0.0003759	3.4e-06

System: toluene; phases: Liquid
Property: Viscosity, Pa*s (Liquid); method: Vibrating wire viscometry
Temperature, K	Pressure, kPa	Viscosity, Pa*s	uncertainty
298.15	100	0.0005551	6.5e-06
298.15	10000	0.0006003	6.8e-06
298.15	20000	0.0006445	7.1e-06
298.15	30000	0.0006953	7.4e-06
298.15	40000	0.000751	7.8e-06
323.15	100	0.0004223	5.7e-06
323.15	10000	0.0004573	5.9e-06
323.15	20000	0.0004945	6.2e-06
323.15	30000	0.0005313	6.4e-06
323.15	40000	0.0005718	6.7e-06
348.15	100	0.0003285	5.2e-06
348.15	10000	0.0003583	5.3e-06
348.15	20000	0.0003875	5.5e-06
348.15	30000	0.0004165	5.7e-06
348.15	40000	0.0004483	5.9e-06

System: methane + propane; phases: Gas, Liquid
Fixed: Mole fraction of propane = 0.5974
Property: Vapor or sublimation pressure, kPa (Gas); method: Reentrant cavity resonator
Temperature, K	Vapor or sublimation pressure, kPa	uncertainty
315.53	2870.9	569.4
320.95	3332.2	660.8
324.16	3642.4	722.2
325.99	3856.3	764.7
329.11	4213.6	835.3
331.38	4520.5	896.1
333.83	4892.2	969.8
335.69	5268.3	1044.7
337.06	5573.4	1106.6
340.38	6826	1356
