Measured thermophysical data. Heat Capacity Measurements of 13 Methyl Esters of n-Carboxylic Acids from Methyloctanoate to Methyleicosanoate between 5 K and 350 K
Source: J. Chem. Eng. Data, 2004, 10.1021/je0499364
Compound 1: methyl octanoate, C9H18O2, InChI=1S/C9H18O2/c1-3-4-5-6-7-8-9(10)11-2/h3-8H2,1-2H3, purity 99.8%
Compound 2: methyl nonanoate, C10H20O2, InChI=1S/C10H20O2/c1-3-4-5-6-7-8-9-10(11)12-2/h3-9H2,1-2H3, purity 99.7%
Compound 3: methyl decanoate, C11H22O2, InChI=1S/C11H22O2/c1-3-4-5-6-7-8-9-10-11(12)13-2/h3-10H2,1-2H3, purity 99.8%
Compound 4: methyl undecanoate, C12H24O2, InChI=1S/C12H24O2/c1-3-4-5-6-7-8-9-10-11-12(13)14-2/h3-11H2,1-2H3, purity 99.5%
Compound 5: methyl dodecanoate, C13H26O2, InChI=1S/C13H26O2/c1-3-4-5-6-7-8-9-10-11-12-13(14)15-2/h3-12H2,1-2H3, purity 99.5%
Compound 6: methyl tridecanoate, C14H28O2, InChI=1S/C14H28O2/c1-3-4-5-6-7-8-9-10-11-12-13-14(15)16-2/h3-13H2,1-2H3, purity 99.9%
Compound 7: methyl tetradecanoate, C15H30O2, InChI=1S/C15H30O2/c1-3-4-5-6-7-8-9-10-11-12-13-14-15(16)17-2/h3-14H2,1-2H3, purity 99.5%
Compound 8: methyl pentadecanoate, C16H32O2, InChI=1S/C16H32O2/c1-3-4-5-6-7-8-9-10-11-12-13-14-15-16(17)18-2/h3-15H2,1-2H3, purity 99.6%
Compound 9: methyl hexadecanoate, C17H34O2, InChI=1S/C17H34O2/c1-3-4-5-6-7-8-9-10-11-12-13-14-15-16-17(18)19-2/h3-16H2,1-2H3, purity 99.3%
Compound 10: methyl heptadecanoate, C18H36O2, InChI=1S/C18H36O2/c1-3-4-5-6-7-8-9-10-11-12-13-14-15-16-17-18(19)20-2/h3-17H2,1-2H3, purity 99%
Compound 11: methyl octadecanoate, C19H38O2, InChI=1S/C19H38O2/c1-3-4-5-6-7-8-9-10-11-12-13-14-15-16-17-18-19(20)21-2/h3-18H2,1-2H3, purity 99%
Compound 12: methyl nonadecanoate, C20H40O2, InChI=1S/C20H40O2/c1-3-4-5-6-7-8-9-10-11-12-13-14-15-16-17-18-19-20(21)22-2/h3-19H2,1-2H3, purity 99.7%
Compound 13: methyl eicosanoate, C21H42O2, InChI=1S/C21H42O2/c1-3-4-5-6-7-8-9-10-11-12-13-14-15-16-17-18-19-20-21(22)23-2/h3-20H2,1-2H3, purity 99.1%

System: methyl octanoate; phases: Crystal, Liquid, Gas
Property: Molar enthalpy of transition or fusion, kJ/mol (Crystal); method: Adiabatic calorimetry
Molar enthalpy of transition or fusion, kJ/mol	uncertainty
25.636	0.506

System: methyl octanoate; phases: Crystal, Liquid, Gas
Property: Triple point temperature, K (Crystal); method: ADIACA:UFactor:4
Triple point temperature, K	uncertainty
236.2	0.2

System: methyl octanoate; phases: Crystal
Fixed: Pressure, kPa = 101.325
Property: Molar heat capacity at constant pressure, J/K/mol (Crystal); method: VADIAC:UFactor:2
Temperature, K	Molar heat capacity at constant pressure, J/K/mol	uncertainty
5	0.38	0.03
10	3.03	0.07
20	18.19	0.23
30	33.71	0.22
40	50.53	0.28
50	66.36	0.35
60	79.75	0.4
70	92.33	0.45
80	103.39	0.49
90	113.4	0.63
100	122.25	0.64
110	131.1	0.66
120	138.74	0.68
130	146.18	0.69
140	153.44	0.71
150	160.31	0.72
160	167.13	0.73
170	174.18	0.75
180	181.34	0.76
190	188.84	0.78
200	196.94	0.79
210	205.99	0.81
220	217.68	0.84
230	242.75	0.89

System: methyl octanoate; phases: Liquid
Fixed: Pressure, kPa = 101.325
Property: Molar heat capacity at constant pressure, J/K/mol (Liquid); method: VADIAC:UFactor:2
Temperature, K	Molar heat capacity at constant pressure, J/K/mol	uncertainty
240	301.67	1
250	301.39	1
260	303.17	1.01
270	305.83	1.01
280	308.83	1.02
290	312.81	1.03
300	316.17	1.03
310	320.13	1.04
320	323.19	1.05
330	327.93	1.06
340	332.21	1.06
350	336.19	1.07

System: methyl octanoate; phases: Crystal
Fixed: Pressure, kPa = 101.325
Property: Molar enthalpy, kJ/mol (Crystal); method: VADIAC:UFactor:2
Temperature, K	Molar enthalpy, kJ/mol	uncertainty
5	0.00048	0.00011
10	0.00765	0.00035
20	0.1076	0.0016
30	0.366	0.004
40	0.788	0.006
50	1.374	0.01
60	2.108	0.013
70	2.968	0.018
80	3.945	0.022
90	5.03	0.046
100	6.211	0.052
110	7.48	0.059
120	8.83	0.066
130	10.255	0.073
140	11.753	0.08
150	13.322	0.087
160	14.959	0.094
170	16.664	0.101
180	18.442	0.109
190	20.292	0.117
200	22.22	0.125
210	24.234	0.133
220	26.349	0.141
230	28.621	0.149

System: methyl octanoate; phases: Liquid
Fixed: Pressure, kPa = 101.325
Property: Molar enthalpy, kJ/mol (Liquid); method: VADIAC:UFactor:2
Temperature, K	Molar enthalpy, kJ/mol	uncertainty
240	57.286	0.211
250	60.294	0.221
260	63.317	0.231
270	66.362	0.241
280	69.435	0.251
290	72.543	0.261
300	75.688	0.271
310	78.87	0.282
320	82.086	0.292
330	85.342	0.303
340	88.643	0.313
350	91.985	0.324

System: methyl octanoate; phases: Crystal
Fixed: Pressure, kPa = 101.325
Property: Molar entropy, J/K/mol (Crystal); method: VADIAC:UFactor:2
Temperature, K	Molar entropy, J/K/mol	uncertainty
5	0.13	0.03
10	1.04	0.06
20	7.36	0.15
30	17.65	0.23
40	29.66	0.3
50	42.67	0.38
60	56.01	0.46
70	69.26	0.54
80	82.28	0.61
90	95.04	0.89
100	107.48	0.92
110	119.57	0.96
120	131.31	0.99
130	142.71	1.03
140	153.81	1.06
150	164.63	1.09
160	175.2	1.13
170	185.53	1.16
180	195.69	1.19
190	205.69	1.22
200	215.58	1.25
210	225.99	1.28
220	235.24	1.31
230	245.34	1.34

System: methyl octanoate; phases: Liquid
Fixed: Pressure, kPa = 101.325
Property: Molar entropy, J/K/mol (Liquid); method: VADIAC:UFactor:2
Temperature, K	Molar entropy, J/K/mol	uncertainty
240	366.89	1.7
250	379.17	1.74
260	391.02	1.77
270	402.52	1.81
280	413.69	1.84
290	424.59	1.87
300	435.25	1.91
310	445.67	1.94
320	455.9	2
330	465.92	2
340	475.77	2.03
350	485.46	2.06

System: methyl nonanoate; phases: Crystal, Liquid, Gas
Property: Molar enthalpy of transition or fusion, kJ/mol (Crystal); method: ADIACA:UFactor:4
Molar enthalpy of transition or fusion, kJ/mol	uncertainty
27.342	0.507

System: methyl nonanoate; phases: Crystal, Liquid, Air at 1 atmosphere
Property: Triple point temperature, K (Crystal); method: ADIACA:UFactor:4
Triple point temperature, K	uncertainty
238.72	0.16

System: methyl nonanoate; phases: Crystal
Fixed: Pressure, kPa = 101.325
Property: Molar heat capacity at constant pressure, J/K/mol (Crystal); method: VADIAC:UFactor:2
Temperature, K	Molar heat capacity at constant pressure, J/K/mol	uncertainty
5	0.39	0.03
10	2.96	0.07
20	17.17	0.21
30	34.66	0.22
40	53.39	0.3
50	71.31	0.37
60	86.46	0.43
70	100.55	0.48
80	113.08	0.53
90	123.98	0.65
100	134.32	0.67
110	143.79	0.69
120	152.28	0.7
130	160.47	0.72
140	168.48	0.74
150	175.96	0.75
160	183.23	0.77
170	190.85	0.78
180	198.49	0.8
190	206.56	0.81
200	215.27	0.83
210	224.62	0.85
220	236.53	0.87
230	265.31	0.93

System: methyl nonanoate; phases: Liquid
Fixed: Pressure, kPa = 101.325
Property: Molar heat capacity at constant pressure, J/K/mol (Liquid); method: VADIAC:UFactor:2
Temperature, K	Molar heat capacity at constant pressure, J/K/mol	uncertainty
240	330.8	1.06
250	330.84	1.06
260	333.42	1.07
270	335.9	1.07
280	338.72	1.08
290	342.82	1.09
300	346.27	1.09
310	350.79	1.1
320	354.3	1.1
330	359.1	1.12
340	363.82	1.13
350	368.16	1.14

System: methyl nonanoate; phases: Crystal
Fixed: Pressure, kPa = 101.325
Property: Molar enthalpy, kJ/mol (Crystal); method: VADIAC:UFactor:2
Temperature, K	Molar enthalpy, kJ/mol	uncertainty
5	0.00048	0.00011
10	0.00769	0.00035
20	0.1036	0.0016
30	0.361	0.004
40	0.801	0.007
50	1.426	0.01
60	2.216	0.014
70	3.152	0.018
80	4.222	0.023
90	5.407	0.047
100	6.701	0.053
110	8.092	0.06
120	9.572	0.067
130	11.136	0.074
140	12.782	0.082
150	14.504	0.089
160	16.301	0.097
170	18.17	0.104
180	20.116	0.112
190	22.142	0.12
200	24.25	0.129
210	26.449	0.137
220	28.751	0.146
230	31.219	0.155

System: methyl nonanoate; phases: Liquid
Fixed: Pressure, kPa = 101.325
Property: Molar enthalpy, kJ/mol (Liquid); method: VADIAC:UFactor:2
Temperature, K	Molar enthalpy, kJ/mol	uncertainty
240	61.702	0.22
250	65.148	0.23
260	68.471	0.241
270	71.816	0.252
280	75.188	0.262
290	78.595	0.273
300	82.04	0.284
310	85.526	0.295
320	89.051	0.306
330	92.618	0.317
340	96.232	0.329
350	99.892	0.34

System: methyl nonanoate; phases: Crystal
Fixed: Pressure, kPa = 101.325
Property: Molar entropy, J/K/mol (Crystal); method: VADIAC:UFactor:2
Temperature, K	Molar entropy, J/K/mol	uncertainty
5	0.13	0.03
10	1.03	0.06
20	7.11	0.15
30	17.3	0.23
40	29.83	0.3
50	43.7	0.38
60	58.06	0.47
70	72.47	0.56
80	86.73	0.64
90	100.68	0.9
100	114.3	0.94
110	127.55	0.98
120	140.43	1.02
130	152.94	1.06
140	165.13	1.1
150	177.01	1.13
160	188.61	1.17
170	199.93	1.2
180	211.06	1.23
190	222	1.27
200	232.82	1.3
210	243.54	1.33
220	254.26	1.36
230	265.22	1.4

System: methyl nonanoate; phases: Liquid
Fixed: Pressure, kPa = 101.325
Property: Molar entropy, J/K/mol (Liquid); method: VADIAC:UFactor:2
Temperature, K	Molar entropy, J/K/mol	uncertainty
240	395.87	1.79
250	409.95	1.83
260	422.98	1.87
270	435.62	1.91
280	447.87	1.94
290	459.82	1.98
300	471.49	2.01
310	482.91	2.05
320	494.1	2.08
330	505.08	2.12
340	515.87	2.15
350	526.47	2.18

System: methyl decanoate; phases: Crystal, Liquid, Gas
Property: Molar enthalpy of transition or fusion, kJ/mol (Crystal); method: ADIACA:UFactor:4
Molar enthalpy of transition or fusion, kJ/mol	uncertainty
35.917	0.511

System: methyl decanoate; phases: Crystal, Liquid, Gas
Property: Triple point temperature, K (Crystal); method: ADIACA:UFactor:4
Triple point temperature, K	uncertainty
260.33	0.16

System: methyl decanoate; phases: Crystal
Fixed: Pressure, kPa = 101.325
Property: Molar heat capacity at constant pressure, J/K/mol (Crystal); method: VADIAC:UFactor:2
Temperature, K	Molar heat capacity at constant pressure, J/K/mol	uncertainty
5	0.45	0.03
10	3.7	0.08
20	20.01	0.25
30	37.87	0.23
40	57.28	0.31
50	75.63	0.38
60	91.46	0.45
70	105.95	0.5
80	119.09	0.56
90	131.08	0.66
100	141.62	0.68
110	151.65	0.7
120	160.63	0.72
130	169.23	0.74
140	177.35	0.75
150	185.25	0.77
160	192.99	0.79
170	200.77	0.8
180	209.01	0.82
190	217.44	0.84
200	226.26	0.85
210	234.91	0.87
220	245.06	0.89
230	256.05	0.91
240	269.17	0.94
250	300.63	1

System: methyl decanoate; phases: Liquid
Fixed: Pressure, kPa = 101.325
Property: Molar heat capacity at constant pressure, J/K/mol (Liquid); method: VADIAC:UFactor:2
Temperature, K	Molar heat capacity at constant pressure, J/K/mol	uncertainty
270	361.09	8
280	368.72	1.14
290	372.12	1.14
300	376.14	1.15
310	380.31	1.16
320	385.19	1.17
330	389.78	1.18
340	394.95	1.19
350	400.2	1.2

System: methyl decanoate; phases: Crystal
Fixed: Pressure, kPa = 101.325
Property: Molar enthalpy, kJ/mol (Crystal); method: VADIAC:UFactor:2
Temperature, K	Molar enthalpy, kJ/mol	uncertainty
5	0.00056	0.00011
10	0.00836	0.00037
20	0.1196	0.0018
30	0.408	0.004
40	0.884	0.007
50	1.55	0.01
60	2.386	0.014
70	3.374	0.019
80	4.501	0.025
90	5.754	0.048
100	7.12	0.054
110	8.588	0.061
120	10.15	0.068
130	11.799	0.076
140	13.532	0.083
150	15.345	0.091
160	17.238	0.099
170	19.206	0.106
180	21.256	0.115
190	23.387	0.123
200	25.606	0.131
210	27.913	0.14
220	30.311	0.149
230	32.814	0.158
240	35.44	0.167
250	38.258	0.177
260	41.29	0.187

System: methyl decanoate; phases: Liquid
Fixed: Pressure, kPa = 101.325
Property: Molar enthalpy, kJ/mol (Liquid); method: VADIAC:UFactor:2
Temperature, K	Molar enthalpy, kJ/mol	uncertainty
270	80.09	0.268
280	83.762	0.28
290	87.467	0.291
300	91.208	0.303
310	94.992	0.314
320	98.821	0.326
330	102.695	0.337
340	106.62	0.349
350	110.592	0.361

System: methyl decanoate; phases: Crystal
Fixed: Pressure, kPa = 101.325
Property: Molar entropy, J/K/mol (Crystal); method: VADIAC:UFactor:2
Temperature, K	Molar entropy, J/K/mol	uncertainty
5	0.15	0.03
10	1.12	0.06
20	8.17	0.17
30	19.64	0.24
40	33.19	0.32
50	47.99	0.41
60	63.18	0.5
70	78.38	0.59
80	93.41	0.68
90	108.15	0.92
100	122.53	0.97
110	136.52	1.01
120	150.1	1.05
130	163.3	1.09
140	176.14	1.13
150	188.64	1.17
160	200.86	1.2
170	212.79	1.24
180	224.5	1.27
190	235.02	1.31
200	247.4	1.34
210	258.65	1.38
220	269.81	1.41
230	280.93	1.44
240	292.11	1.48
250	303.61	1.51
260	320	1.56

System: methyl decanoate; phases: Liquid
Fixed: Pressure, kPa = 101.325
Property: Molar entropy, J/K/mol (Liquid); method: VADIAC:UFactor:2
Temperature, K	Molar entropy, J/K/mol	uncertainty
270	465.32	2
280	478.68	2.04
290	491.68	2.08
300	504.36	2.11
310	516.77	2.15
320	528.93	2.19
330	540.85	2.22
340	552.56	2.26
350	564.07	2.29

System: methyl undecanoate; phases: Crystal, Liquid, Gas
Property: Molar enthalpy of transition or fusion, kJ/mol (Crystal); method: ADIACA:UFactor:4
Molar enthalpy of transition or fusion, kJ/mol	uncertainty
36.204	0.512

System: methyl undecanoate; phases: Crystal, Liquid, Gas
Property: Triple point temperature, K (Crystal); method: ADIACA:UFactor:4
Triple point temperature, K	uncertainty
261.8	0.16

System: methyl undecanoate; phases: Crystal
Fixed: Pressure, kPa = 101.325
Property: Molar heat capacity at constant pressure, J/K/mol (Crystal); method: VADIAC:UFactor:2
Temperature, K	Molar heat capacity at constant pressure, J/K/mol	uncertainty
5	0.42	0.03
10	3.28	0.08
20	18.49	0.23
30	38.09	0.24
40	59.59	0.32
50	80.21	0.4
60	97.96	0.47
70	113.74	0.54
80	128.03	0.59
90	141.39	0.68
100	152.92	0.71
110	163.81	0.73
120	173.57	0.75
130	182.89	0.77
140	191.72	0.78
150	200.53	0.8
160	209.38	0.82
170	217.78	0.84
180	226.5	0.85
190	235.38	0.87
200	244.52	0.89
210	253.93	0.91
220	264.97	0.93
230	276.95	0.95
240	291.77	0.98
250	320.5	1.04

System: methyl undecanoate; phases: Liquid
Fixed: Pressure, kPa = 101.325
Property: Molar heat capacity at constant pressure, J/K/mol (Liquid); method: VADIAC:UFactor:2
Temperature, K	Molar heat capacity at constant pressure, J/K/mol	uncertainty
270	395.83	1.19
280	398.95	1.2
290	402.95	1.21
300	406.99	1.21
310	411.22	1.22
320	416.08	1.23
330	421.78	1.24
340	426.55	1.25
350	431.52	1.26

System: methyl undecanoate; phases: Crystal
Fixed: Pressure, kPa = 101.325
Property: Molar enthalpy, kJ/mol (Crystal); method: VADIAC:UFactor:2
Temperature, K	Molar enthalpy, kJ/mol	uncertainty
5	0.00052	0.00011
10	0.00836	0.00037
20	0.1109	0.0017
30	0.391	0.004
40	0.879	0.007
50	1.58	0.01
60	2.471	0.015
70	3.53	0.02
80	4.742	0.026
90	6.089	0.048
100	7.563	0.055
110	9.147	0.062
120	10.835	0.07
130	12.617	0.077
140	14.491	0.085
150	16.451	0.093
160	18.503	0.101
170	20.638	0.109
180	22.859	0.118
190	25.169	0.126
200	27.568	0.135
210	30.06	0.144
220	32.654	0.153
230	35.363	0.163
240	38.203	0.173
250	41.235	0.183
260	43.904	0.192

System: methyl undecanoate; phases: Liquid
Fixed: Pressure, kPa = 101.325
Property: Molar enthalpy, kJ/mol (Liquid); method: VADIAC:UFactor:2
Temperature, K	Molar enthalpy, kJ/mol	uncertainty
270	85.677	0.279
280	89.654	0.291
290	93.662	0.303
300	97.708	0.316
310	101.798	0.328
320	105.936	0.34
330	110.128	0.352
340	114.37	0.365
350	118.66	0.377

System: methyl undecanoate; phases: Crystal
Fixed: Pressure, kPa = 101.325
Property: Molar entropy, J/K/mol (Crystal); method: VADIAC:UFactor:2
Temperature, K	Molar entropy, J/K/mol	uncertainty
5	0.14	0.03
10	1.12	0.06
20	7.63	0.16
30	18.72	0.23
40	32.61	0.32
50	48.17	0.41
60	64.37	0.51
70	80.66	0.6
80	96.83	0.7
90	112.68	0.94
100	128.19	0.99
110	143.29	1.03
120	157.96	1.07
130	172.23	1.12
140	186.11	1.16
150	199.63	1.2
160	212.87	1.24
170	225.81	1.28
180	238.5	1.32
190	250	1.35
200	263.29	1.39
210	275.45	1.43
220	287.51	1.46
230	299.55	1.5
240	311.64	1.54
250	324.01	1.57
260	340	1.62

System: methyl undecanoate; phases: Liquid
Fixed: Pressure, kPa = 101.325
Property: Molar entropy, J/K/mol (Liquid); method: Vacuum adiabatic calorimetry
Temperature, K	Molar entropy, J/K/mol	uncertainty
270	494.94	1.04
280	509.4	1.06
290	523.47	1.09
300	537.18	1.11
310	550.6	1.13
320	563.73	1.15
330	576.61	1.17
340	589.27	1.18
350	601.73	1.2

System: methyl dodecanoate; phases: Crystal, Liquid, Gas
Property: Molar enthalpy of transition or fusion, kJ/mol (Crystal); method: ADIACA:UFactor:4
Molar enthalpy of transition or fusion, kJ/mol	uncertainty
43.147	0.516

System: methyl dodecanoate; phases: Crystal, Liquid, Gas
Property: Triple point temperature, K (Crystal); method: ADIACA:UFactor:4
Triple point temperature, K	uncertainty
278.18	0.16

System: methyl dodecanoate; phases: Crystal
Fixed: Pressure, kPa = 101.325
Property: Molar heat capacity at constant pressure, J/K/mol (Crystal); method: VADIAC:UFactor:2
Temperature, K	Molar heat capacity at constant pressure, J/K/mol	uncertainty
5	0.5	0.03
10	4.31	0.09
20	19.62	0.24
30	40.21	0.24
40	63.08	0.34
50	85.07	0.42
60	103.02	0.49
70	119.02	0.56
80	134.57	0.62
90	148.81	0.7
100	160.46	0.72
110	171.83	0.74
120	181.94	0.76
130	191.82	0.78
140	201.16	0.8
150	209.76	0.82
160	218.85	0.84
170	227.97	0.86
180	237.26	0.87
190	246.66	0.89
200	256.21	0.91
210	265.84	0.93
220	277.21	0.95
230	288.57	0.98
240	299.95	1
250	315.69	1.03
260	335.52	1.07
270	392.98	1.19

System: methyl dodecanoate; phases: Liquid
Fixed: Pressure, kPa = 101.325
Property: Molar heat capacity at constant pressure, J/K/mol (Liquid); method: VADIAC:UFactor:2
Temperature, K	Molar heat capacity at constant pressure, J/K/mol	uncertainty
280	428	1.26
290	432.76	1.27
300	438.82	1.28
310	443.32	1.29
320	448.38	1.3
330	453.83	1.31
340	460.08	1.32
350	467.86	1.34

System: methyl dodecanoate; phases: Crystal
Fixed: Pressure, kPa = 101.325
Property: Molar enthalpy, kJ/mol (Crystal); method: VADIAC:UFactor:2
Temperature, K	Molar enthalpy, kJ/mol	uncertainty
5	0.00062	0.00012
10	0.00995	0.00039
20	0.122	0.002
30	0.418	0.004
40	0.934	0.007
50	1.677	0.011
60	2.622	0.015
70	3.738	0.021
80	5.014	0.027
90	6.43	0.049
100	7.975	0.056
110	9.638	0.063
120	11.406	0.071
130	13.276	0.079
140	15.241	0.087
150	17.297	0.095
160	19.444	0.103
170	21.678	0.111
180	24.005	0.12
190	26.424	0.129
200	28.938	0.138
210	31.548	0.147
220	34.26	0.157
230	37.09	0.166
240	40.033	0.176
250	43.115	0.186
260	46.364	0.197
270	49.905	0.208

System: methyl dodecanoate; phases: Liquid
Fixed: Pressure, kPa = 101.325
Property: Molar enthalpy, kJ/mol (Liquid); method: VADIAC:UFactor:2
Temperature, K	Molar enthalpy, kJ/mol	uncertainty
280	97.029	0.306
290	101.511	0.319
300	105.869	0.332
310	110.28	0.345
320	114.738	0.358
330	119.249	0.371
340	123.819	0.384
350	128.458	0.397

System: methyl dodecanoate; phases: Crystal
Fixed: Pressure, kPa = 101.325
Property: Molar entropy, J/K/mol (Crystal); method: VADIAC:UFactor:2
Temperature, K	Molar entropy, J/K/mol	uncertainty
5	0.17	0.04
10	1.33	0.06
20	8.52	0.17
30	20.22	0.24
40	34.91	0.33
50	51.39	0.43
60	68.57	0.53
70	85.73	0.64
80	103.76	0.74
90	119.42	0.96
100	135.69	1.01
110	151.52	1.06
120	166.91	1.1
130	181.87	1.15
140	196.43	1.19
150	210.61	1.23
160	224.46	1.27
170	238	1.31
180	251.3	1.35
190	264.37	1.39
200	277.27	1.43
210	290	1.47
220	302.62	1.51
230	315.19	1.55
240	327.72	1.58
250	340.29	1.62
260	353.03	1.66
270	366.39	1.7

System: methyl dodecanoate; phases: Liquid
Fixed: Pressure, kPa = 101.325
Property: Molar entropy, J/K/mol (Liquid); method: VADIAC:UFactor:2
Temperature, K	Molar entropy, J/K/mol	uncertainty
280	535.85	2.21
290	551.59	2.25
300	566.39	2.3
310	580.85	2.34
320	595.01	2.39
330	608.89	2.43
340	622.53	2.47
350	635.95	2.51

System: methyl tridecanoate; phases: Crystal, Liquid, Gas
Property: Molar enthalpy of transition or fusion, kJ/mol (Crystal); method: ADIACA:UFactor:4
Molar enthalpy of transition or fusion, kJ/mol	uncertainty
45.566	0.517

System: methyl tridecanoate; phases: Crystal, Liquid, Gas
Property: Triple point temperature, K (Crystal); method: ADIACA:UFactor:4
Triple point temperature, K	uncertainty
279.07	0.16

System: methyl tridecanoate; phases: Crystal
Fixed: Pressure, kPa = 101.325
Property: Molar heat capacity at constant pressure, J/K/mol (Crystal); method: VADIAC:UFactor:2
Temperature, K	Molar heat capacity at constant pressure, J/K/mol	uncertainty
5	0.53	0.03
10	4.03	0.09
20	19.77	0.24
30	41.39	0.25
40	65.69	0.35
50	89.16	0.44
60	108.8	0.52
70	127.88	0.59
80	144.45	0.66
90	158.95	0.72
100	171.63	0.74
110	183.91	0.77
120	195.21	0.79
130	205.64	0.81
140	215.67	0.83
150	225.37	0.85
160	234.95	0.87
170	244.5	0.89
180	254.1	0.91
190	264.04	0.93
200	274.24	0.95
210	284.88	0.97
220	296.06	0.99
230	307.94	1.02
240	321.07	1.04
250	336.07	1.07
260	350.98	1.1
270	371.61	1.14

System: methyl tridecanoate; phases: Liquid
Fixed: Pressure, kPa = 101.325
Property: Molar heat capacity at constant pressure, J/K/mol (Liquid); method: VADIAC:UFactor:2
Temperature, K	Molar heat capacity at constant pressure, J/K/mol	uncertainty
290	463.91	1.33
300	469.05	1.34
310	473.89	1.35
320	479.3	1.36
330	485.18	1.37
340	491.82	1.38

System: methyl tridecanoate; phases: Crystal
Fixed: Pressure, kPa = 101.325
Property: Molar enthalpy, kJ/mol (Crystal); method: VADIAC:UFactor:2
Temperature, K	Molar enthalpy, kJ/mol	uncertainty
5	0.0006	0.0001
10	0.01058	0.0004
20	0.12	0.002
30	0.422	0.004
40	0.957	0.007
50	1.734	0.011
60	2.726	0.016
70	3.909	0.021
80	5.269	0.028
90	6.781	0.05
100	8.43	0.057
110	10.209	0.065
120	12.105	0.072
130	14.11	0.08
140	16.217	0.089
150	18.422	0.097
160	20.724	0.106
170	23.121	0.114
180	25.614	0.123
190	28.205	0.133
200	30.896	0.142
210	33.691	0.151
220	36.595	0.161
230	39.614	0.171
240	42.759	0.182
250	46.044	0.192
260	49.476	0.203
270	53.083	0.214

System: methyl tridecanoate; phases: Liquid
Fixed: Pressure, kPa = 101.325
Property: Molar enthalpy, kJ/mol (Liquid); method: VADIAC:UFactor:2
Temperature, K	Molar enthalpy, kJ/mol	uncertainty
290	108.019	0.332
300	112.68	0.345
310	117.394	0.359
320	122.159	0.372
330	126.981	0.386
340	131.868	0.4

System: methyl tridecanoate; phases: Crystal
Fixed: Pressure, kPa = 101.325
Property: Molar entropy, J/K/mol (Crystal); method: VADIAC:UFactor:2
Temperature, K	Molar entropy, J/K/mol	uncertainty
5	0.16	0.03
10	1.28	0.06
20	8.36	0.17
30	20.31	0.24
40	35.52	0.33
50	52.75	0.44
60	70.79	0.55
70	88.99	0.65
80	107.13	0.76
90	124.91	0.98
100	142.28	1.03
110	159.22	1.08
120	175.72	1.13
130	191.76	1.18
140	207.37	1.22
150	222.58	1.27
160	237.43	1.31
170	251.96	1.36
180	266.21	1.4
190	280.21	1.44
200	294.01	1.48
210	307.65	1.52
220	321.16	1.56
230	334.58	1.6
240	347.96	1.64
250	361.36	1.68
260	374.82	1.72
270	388.43	1.77

System: methyl tridecanoate; phases: Liquid
Fixed: Pressure, kPa = 101.325
Property: Molar entropy, J/K/mol (Liquid); method: VADIAC:UFactor:2
Temperature, K	Molar entropy, J/K/mol	uncertainty
290	584.21	2.35
300	600.01	2.4
310	615.47	2.45
320	630.59	2.49
330	645.43	2.54
340	660.01	2.58

System: methyl tetradecanoate; phases: Crystal, Liquid, Gas
Property: Molar enthalpy of transition or fusion, kJ/mol (Crystal); method: ADIACA:UFactor:4
Molar enthalpy of transition or fusion, kJ/mol	uncertainty
52.008	0.523

System: methyl tetradecanoate; phases: Crystal, Liquid, Gas
Property: Triple point temperature, K (Crystal); method: ADIACA:UFactor:4
Triple point temperature, K	uncertainty
292.14	0.16

System: methyl tetradecanoate; phases: Crystal
Fixed: Pressure, kPa = 101.325
Property: Molar heat capacity at constant pressure, J/K/mol (Crystal); method: VADIAC:UFactor:2
Temperature, K	Molar heat capacity at constant pressure, J/K/mol	uncertainty
5	0.55	0.03
10	4.56	0.1
20	21.34	0.26
30	43.99	0.26
40	69.2	0.36
50	93.62	0.46
60	113.9	0.54
70	133.41	0.61
80	150.35	0.68
90	165.54	0.73
100	179.38	0.76
110	192.06	0.78
120	203.55	0.81
130	214.52	0.83
140	224.93	0.85
150	235.23	0.87
160	244.79	0.89
170	254.91	0.91
180	265.19	0.93
190	275.63	0.95
200	286.07	0.97
210	296.67	0.99
220	308.85	1.02
230	321.05	1.04
240	334.49	1.07
250	349.48	1.1
260	368.64	1.14
270	388.14	1.18
280	429.3	1.26

System: methyl tetradecanoate; phases: Liquid
Fixed: Pressure, kPa = 101.325
Property: Molar heat capacity at constant pressure, J/K/mol (Liquid); method: VADIAC:UFactor:2
Temperature, K	Molar heat capacity at constant pressure, J/K/mol	uncertainty
300	500.03	1.4
310	504.66	1.41
320	510	1.42
330	515.86	1.43
340	522.03	1.44
350	528.04	1.46

System: methyl tetradecanoate; phases: Crystal
Fixed: Pressure, kPa = 101.325
Property: Molar enthalpy, kJ/mol (Crystal); method: VADIAC:UFactor:2
Temperature, K	Molar enthalpy, kJ/mol	uncertainty
5	0.00068	0.00012
10	0.01093	0.00042
20	0.1347	0.002
30	0.458	0.004
40	1.023	0.007
50	1.839	0.012
60	2.882	0.016
70	4.121	0.022
80	5.542	0.029
90	7.122	0.05
100	8.848	0.058
110	10.707	0.066
120	12.685	0.073
130	14.776	0.082
140	16.973	0.09
150	19.274	0.099
160	21.675	0.107
170	24.173	0.116
180	26.774	0.126
190	29.478	0.135
200	32.287	0.145
210	35.201	0.155
220	38.225	0.165
230	41.373	0.175
240	44.65	0.185
250	48.067	0.196
260	51.655	0.207
270	55.435	0.219
280	59.48	0.231

System: methyl tetradecanoate; phases: Liquid
Fixed: Pressure, kPa = 101.325
Property: Molar enthalpy, kJ/mol (Liquid); method: VADIAC:UFactor:2
Temperature, K	Molar enthalpy, kJ/mol	uncertainty
300	118.932	0.358
310	123.954	0.372
320	129.028	0.386
330	134.156	0.4
340	139.345	0.415
350	144.58	0.429

System: methyl tetradecanoate; phases: Crystal
Fixed: Pressure, kPa = 101.325
Property: Molar entropy, J/K/mol (Crystal); method: VADIAC:UFactor:2
Temperature, K	Molar entropy, J/K/mol	uncertainty
5	0.18	0.04
10	1.46	0.07
20	9.38	0.19
30	22.18	0.25
40	38.26	0.35
50	56.37	0.46
60	75.32	0.57
70	94.38	0.69
80	113.34	0.8
90	131.92	1
100	150.09	1.05
110	167.8	1.1
120	185.01	1.16
130	201.74	1.21
140	218.02	1.25
150	233.89	1.3
160	249.38	1.35
170	264.52	1.39
180	279.39	1.44
190	294	1.48
200	308.41	1.53
210	322.62	1.57
220	336.69	1.61
230	350.68	1.65
240	364.62	1.69
250	378.57	1.74
260	392.64	1.78
270	406.9	1.82
280	421.61	1.87

System: methyl tetradecanoate; phases: Liquid
Fixed: Pressure, kPa = 101.325
Property: Molar entropy, J/K/mol (Liquid); method: VADIAC:UFactor:2
Temperature, K	Molar entropy, J/K/mol	uncertainty
300	624.53	2.47
310	641	2.52
320	657.11	2.57
330	672.89	2.62
340	688.38	2.67
350	703.6	2.71

System: methyl pentadecanoate; phases: Crystal, Liquid, Gas
Property: Molar enthalpy of transition or fusion, kJ/mol (Crystal); method: ADIACA:UFactor:4
Molar enthalpy of transition or fusion, kJ/mol	uncertainty
54.283	0.524

System: methyl pentadecanoate; phases: Crystal, Liquid, Gas
Property: Triple point temperature, K (Crystal); method: ADIACA:UFactor:4
Triple point temperature, K	uncertainty
292.35	0.16

System: methyl pentadecanoate; phases: Crystal
Fixed: Pressure, kPa = 101.325
Property: Molar heat capacity at constant pressure, J/K/mol (Crystal); method: VADIAC:UFactor:2
Temperature, K	Molar heat capacity at constant pressure, J/K/mol	uncertainty
5	0.5	0.03
10	4.15	0.09
20	21.13	0.26
30	43.92	0.26
40	71.36	0.37
50	97.58	0.47
60	120.37	0.56
70	141.42	0.65
80	159.35	0.72
90	175.8	0.75
100	190.15	0.78
110	203.86	0.81
120	216.45	0.83
130	228.03	0.86
140	239.15	0.88
150	249.97	0.9
160	260.57	0.92
170	272.29	0.94
180	282.1	0.96
190	293.1	0.99
200	304.43	1.01
210	316.28	1.03
220	328.72	1.06
230	341.8	1.08
240	355.9	1.11
250	371.28	1.14
260	387.35	1.18
270	403.92	1.21
280	432.13	1.27

System: methyl pentadecanoate; phases: Liquid
Fixed: Pressure, kPa = 101.325
Property: Molar heat capacity at constant pressure, J/K/mol (Liquid); method: VADIAC:UFactor:2
Temperature, K	Molar heat capacity at constant pressure, J/K/mol	uncertainty
300	524.33	1.45
310	534.12	1.47
320	539.26	1.48
330	544.8	1.49
340	551.15	1.5

System: methyl pentadecanoate; phases: Crystal
Fixed: Pressure, kPa = 101.325
Property: Molar enthalpy, kJ/mol (Crystal); method: VADIAC:UFactor:2
Temperature, K	Molar enthalpy, kJ/mol	uncertainty
5	0.00063	0.00012
10	0.01005	0.0004
20	0.125	0.002
30	0.441	0.004
40	1.016	0.007
50	1.865	0.012
60	2.954	0.017
70	4.265	0.023
80	5.769	0.03
90	7.444	0.051
100	9.273	0.059
110	11.244	0.067
120	13.347	0.075
130	15.57	0.083
140	17.906	0.092
150	20.352	0.101
160	22.904	0.11
170	25.564	0.119
180	28.33	0.129
190	31.206	0.139
200	34.193	0.149
210	37.297	0.159
220	40.521	0.169
230	43.873	0.18
240	47.36	0.191
250	50.994	0.202
260	54.788	0.214
270	58.735	0.226
280	62.911	0.238
290	67.386	0.251

System: methyl pentadecanoate; phases: Liquid
Fixed: Pressure, kPa = 101.325
Property: Molar enthalpy, kJ/mol (Liquid); method: VADIAC:UFactor:2
Temperature, K	Molar enthalpy, kJ/mol	uncertainty
300	125.101	0.37
310	130.483	0.385
320	135.85	0.4
330	141.27	0.415
340	146.75	0.43

System: methyl pentadecanoate; phases: Crystal
Fixed: Pressure, kPa = 101.325
Property: Molar entropy, J/K/mol (Crystal); method: VADIAC:UFactor:2
Temperature, K	Molar entropy, J/K/mol	uncertainty
5	0.17	0.04
10	1.34	0.06
20	8.62	0.18
30	21.1	0.25
40	37.46	0.35
50	56.3	0.46
60	76.1	0.58
70	96.26	0.7
80	116.32	0.82
90	136.02	1.01
100	155.28	1.07
110	174.06	1.12
120	192.35	1.18
130	210.13	1.23
140	227.44	1.28
150	244.31	1.33
160	260.78	1.38
170	276.9	1.43
180	292.71	1.48
190	308.26	1.53
200	323.58	1.57
210	338.72	1.62
220	353.71	1.66
230	368.61	1.71
240	383.45	1.75
250	398.28	1.8
260	413.16	1.84
270	428.06	1.88
280	443.24	1.93
290	458.95	1.98

System: methyl pentadecanoate; phases: Liquid
Fixed: Pressure, kPa = 101.325
Property: Molar entropy, J/K/mol (Liquid); method: VADIAC:UFactor:2
Temperature, K	Molar entropy, J/K/mol	uncertainty
300	655.54	2.57
310	672.98	2.62
320	690.02	2.67
330	706.7	2.72
340	723.05	2.77

System: methyl hexadecanoate; phases: Crystal, Liquid, Gas
Property: Molar enthalpy of transition or fusion, kJ/mol (Crystal); method: ADIACA:UFactor:4
Molar enthalpy of transition or fusion, kJ/mol	uncertainty
60.039	0.53

System: methyl hexadecanoate; phases: Crystal, Liquid, Gas
Property: Triple point temperature, K (Crystal); method: Adiabatic calorimetry
Triple point temperature, K	uncertainty
302.71	0.16

System: methyl hexadecanoate; phases: Crystal
Fixed: Pressure, kPa = 101.325
Property: Molar heat capacity at constant pressure, J/K/mol (Crystal); method: VADIAC:UFactor:2
Temperature, K	Molar heat capacity at constant pressure, J/K/mol	uncertainty
5	0.66	0.04
10	5.56	0.11
20	23.7	0.29
30	47.98	0.28
40	75.87	0.39
50	104.12	0.5
60	129.69	0.6
70	151.19	0.69
80	167.13	0.75
90	184.19	0.77
100	198.32	0.8
110	213.49	0.83
120	226.5	0.85
130	238.62	0.88
140	250.27	0.9
150	261.54	0.92
160	272.73	0.95
170	284.03	0.97
180	295.27	0.99
190	306.8	1.01
200	318.65	1.04
210	330.97	1.06
220	343.93	1.09
230	357.74	1.12
240	372.37	1.15
250	388.24	1.18
260	405.39	1.21
270	423.81	1.25
280	448.6	1.3
290	482.7	1.4
300	740.48	1.95

System: methyl hexadecanoate; phases: Liquid
Fixed: Pressure, kPa = 101.325
Property: Molar heat capacity at constant pressure, J/K/mol (Liquid); method: VADIAC:UFactor:2
Temperature, K	Molar heat capacity at constant pressure, J/K/mol	uncertainty
310	570.55	1.54
320	576.47	1.55
330	583.02	1.57
340	590.14	1.58
350	597.66	1.6

System: methyl hexadecanoate; phases: Crystal
Fixed: Pressure, kPa = 101.325
Property: Molar enthalpy, kJ/mol (Crystal); method: VADIAC:UFactor:2
Temperature, K	Molar enthalpy, kJ/mol	uncertainty
5	0.00083	0.00013
10	0.0132	0.00046
20	0.149	0.002
30	0.503	0.005
40	1.12	0.008
50	2.021	0.012
60	3.194	0.018
70	4.61	0.024
80	6.193	0.031
90	7.949	0.052
100	9.858	0.06
110	11.921	0.068
120	14.123	0.076
130	16.449	0.085
140	18.894	0.094
150	21.453	0.103
160	24.125	0.112
170	26.908	0.122
180	29.804	0.132
190	32.814	0.142
200	35.941	0.152
210	39.189	0.163
220	42.564	0.173
230	46.072	0.184
240	49.721	0.196
250	53.522	0.207
260	57.49	0.219
270	61.636	0.231
280	65.993	0.244
290	70.668	0.258
300	76.774	0.274

System: methyl hexadecanoate; phases: Liquid
Fixed: Pressure, kPa = 101.325
Property: Molar enthalpy, kJ/mol (Liquid); method: VADIAC:UFactor:2
Temperature, K	Molar enthalpy, kJ/mol	uncertainty
310	138.668	0.402
320	144.404	0.417
330	150.201	0.433
340	156.066	0.448
350	162.005	0.464

System: methyl hexadecanoate; phases: Crystal
Fixed: Pressure, kPa = 101.325
Property: Molar entropy, J/K/mol (Crystal); method: VADIAC:UFactor:2
Temperature, K	Molar entropy, J/K/mol	uncertainty
5	0.22	0.04
10	1.76	0.07
20	10.48	0.21
30	24.47	0.27
40	42.05	0.37
50	62.04	0.49
60	83.35	0.62
70	105.13	0.75
80	126.24	0.88
90	146.91	1.04
100	167.01	1.1
110	186.66	1.16
120	205.81	1.22
130	224.42	1.27
140	242.54	1.33
150	260.19	1.38
160	277.43	1.43
170	294.3	1.48
180	310.85	1.53
190	327.12	1.58
200	343.16	1.63
210	359	1.68
220	374.7	1.72
230	390.29	1.77
240	405.82	1.82
250	421.33	1.86
260	436.89	1.91
270	452.54	1.96
280	468.38	2.01
290	484.81	2.05
300	505.48	2.12

System: methyl hexadecanoate; phases: Liquid
Fixed: Pressure, kPa = 101.325
Property: Molar entropy, J/K/mol (Liquid); method: VADIAC:UFactor:2
Temperature, K	Molar entropy, J/K/mol	uncertainty
310	708.87	2.73
320	727.67	2.78
330	746.08	2.84
340	764.13	2.89
350	781.86	2.95

System: methyl heptadecanoate; phases: Crystal, Liquid, Gas
Property: Molar enthalpy of transition or fusion, kJ/mol (Crystal); method: ADIACA:UFactor:4
Molar enthalpy of transition or fusion, kJ/mol	uncertainty
63.895	0.535

System: methyl heptadecanoate; phases: Crystal, Liquid, Gas
Property: Triple point temperature, K (Crystal); method: ADIACA:UFactor:4
Triple point temperature, K	uncertainty
303.09	0.16

System: methyl heptadecanoate; phases: Crystal
Fixed: Pressure, kPa = 101.325
Property: Molar heat capacity at constant pressure, J/K/mol (Crystal); method: VADIAC:UFactor:4
Temperature, K	Molar heat capacity at constant pressure, J/K/mol	uncertainty
5	0.56	0.06
10	4.36	0.18
20	23.27	0.56
30	48.82	0.55
40	77.97	0.79
50	106.88	1.02
60	131.71	1.21
70	154.68	1.4
80	175.53	1.56
90	192.9	1.57
100	208.51	1.63
110	224.09	1.7
120	238.4	1.75
130	252.69	1.81
140	265.74	1.86
150	275.72	1.9
160	284.57	1.94
170	302.09	2.01
180	313.76	2.06
190	326.38	2.11
200	340.04	2.16
210	355.66	2.22
220	367.89	2.27
230	382.88	2.33
240	399.49	2.4
250	418.37	2.47
260	438.62	2.55
270	456.93	2.63
280	480.24	2.72
290	517.76	2.87

System: methyl heptadecanoate; phases: Liquid
Fixed: Pressure, kPa = 101.325
Property: Molar heat capacity at constant pressure, J/K/mol (Liquid); method: VADIAC:UFactor:2
Temperature, K	Molar heat capacity at constant pressure, J/K/mol	uncertainty
310	599.17	1.6
320	605.44	1.61
330	609.25	1.62
340	615.4	1.63
350	622.81	1.65

System: methyl heptadecanoate; phases: Crystal
Fixed: Pressure, kPa = 101.325
Property: Molar enthalpy, kJ/mol (Crystal); method: VADIAC:UFactor:2
Temperature, K	Molar enthalpy, kJ/mol	uncertainty
5	0.00073	0.00012
10	0.0117	0.00043
20	0.145	0.002
30	0.5	0.005
40	1.133	0.008
50	2.059	0.012
60	3.257	0.018
70	4.696	0.025
80	6.35	0.032
90	8.193	0.053
100	10.201	0.061
110	12.367	0.069
120	14.684	0.078
130	17.14	0.086
140	19.73	0.096
150	22.428	0.105
160	25.25	0.115
170	28.181	0.125
180	31.259	0.135
190	34.461	0.145
200	37.769	0.156
210	41.248	0.167
220	44.859	0.178
230	48.603	0.189
240	52.514	0.201
250	56.6	0.213
260	60.882	0.226
270	65.363	0.239
280	70.042	0.252
290	75.007	0.266
300	80.605	0.281

System: methyl heptadecanoate; phases: Liquid
Fixed: Pressure, kPa = 101.325
Property: Molar enthalpy, kJ/mol (Liquid); method: VADIAC:UFactor:2
Temperature, K	Molar enthalpy, kJ/mol	uncertainty
310	147.001	0.418
320	152.746	0.434
330	158.82	0.45
340	165.221	0.467
350	171.411	0.483

System: methyl heptadecanoate; phases: Crystal
Fixed: Pressure, kPa = 101.325
Property: Molar entropy, J/K/mol (Crystal); method: VADIAC:UFactor:2
Temperature, K	Molar entropy, J/K/mol	uncertainty
5	0.2	0.04
10	1.56	0.07
20	10.05	0.2
30	24.13	0.27
40	42.13	0.37
50	62.67	0.5
60	84.44	0.63
70	106.58	0.76
80	128.63	0.89
90	150.31	1.05
100	171.45	1.12
110	192.08	1.18
120	212.23	1.24
130	231.88	1.3
140	251.06	1.35
150	269.67	1.41
160	287.87	1.46
170	305.64	1.52
180	323.23	1.57
190	340.53	1.62
200	357.5	1.67
210	374.47	1.72
220	391.26	1.77
230	407.9	1.82
240	424.55	1.87
250	441.22	1.92
260	458.02	1.97
270	474.93	2.03
280	491.94	2.08
290	509.36	2.13
300	528.34	2.19

System: methyl heptadecanoate; phases: Liquid
Fixed: Pressure, kPa = 101.325
Property: Molar entropy, J/K/mol (Liquid); method: VADIAC:UFactor:2
Temperature, K	Molar entropy, J/K/mol	uncertainty
310	746.03	2.84
320	764.27	2.89
330	782.96	2.95
340	802.1	3
350	820.06	3.06

System: methyl octadecanoate; phases: Crystal, Liquid, Gas
Property: Molar enthalpy of transition or fusion, kJ/mol (Crystal); method: ADIACA:UFactor:4
Molar enthalpy of transition or fusion, kJ/mol	uncertainty
66.354	0.537

System: methyl octadecanoate; phases: Crystal, Liquid, Gas
Property: Triple point temperature, K (Crystal); method: ADIACA:UFactor:4
Triple point temperature, K	uncertainty
311.84	0.16

System: methyl octadecanoate; phases: Crystal
Fixed: Pressure, kPa = 101.325
Property: Molar heat capacity at constant pressure, J/K/mol (Crystal); method: VADIAC:UFactor:2
Temperature, K	Molar heat capacity at constant pressure, J/K/mol	uncertainty
5	0.82	0.04
10	5.96	0.12
20	26.2	0.32
30	52.72	0.3
40	82.6	0.41
50	112.11	0.53
60	137.8	0.63
70	162.71	0.73
80	182.89	0.81
90	201.46	0.8
100	217.35	0.84
110	234.15	0.87
120	248.17	0.9
130	261.72	0.92
140	274.54	0.95
150	286.99	0.97
160	299.33	1
170	312.93	1.03
180	327.18	1.05
190	341.65	1.08
200	354.7	1.11
210	368.18	1.14
220	382.77	1.17
230	397.82	1.2
240	413.11	1.23
250	428.51	1.26
260	446.92	1.29
270	468.64	1.34
280	497.34	1.4
290	541.05	1.5

System: methyl octadecanoate; phases: Liquid
Fixed: Pressure, kPa = 101.325
Property: Molar heat capacity at constant pressure, J/K/mol (Liquid); method: VADIAC:UFactor:2
Temperature, K	Molar heat capacity at constant pressure, J/K/mol	uncertainty
320	639	1.68
330	646.44	1.69
340	655.14	1.71
350	664.03	1.73

System: methyl octadecanoate; phases: Crystal
Fixed: Pressure, kPa = 101.325
Property: Molar enthalpy, kJ/mol (Crystal); method: VADIAC:UFactor:2
Temperature, K	Molar enthalpy, kJ/mol	uncertainty
5	0.00093	0.00013
10	0.01649	0.00051
20	0.168	0.002
30	0.599	0.005
40	1.234	0.008
50	2.21	0.013
60	3.462	0.019
70	4.966	0.026
80	6.686	0.033
90	8.614	0.053
100	10.709	0.062
110	12.97	0.07
120	15.377	0.079
130	17.927	0.088
140	20.608	0.097
150	23.416	0.107
160	26.348	0.117
170	29.403	0.127
180	32.609	0.137
190	35.965	0.148
200	39.438	0.159
210	43.052	0.17
220	46.806	0.182
230	50.708	0.194
240	54.763	0.206
250	58.971	0.218
260	63.342	0.231
270	67.917	0.244
280	72.743	0.258
290	77.908	0.272
300	83.874	0.288

System: methyl octadecanoate; phases: Liquid
Fixed: Pressure, kPa = 101.325
Property: Molar enthalpy, kJ/mol (Liquid); method: VADIAC:UFactor:2
Temperature, K	Molar enthalpy, kJ/mol	uncertainty
320	159.212	0.447
330	165.638	0.463
340	172.153	0.48
350	178.743	0.498

System: methyl octadecanoate; phases: Crystal
Fixed: Pressure, kPa = 101.325
Property: Molar entropy, J/K/mol (Crystal); method: VADIAC:UFactor:2
Temperature, K	Molar entropy, J/K/mol	uncertainty
5	0.28	0.04
10	2.2	0.08
20	12.05	0.23
30	27.52	0.29
40	46.74	0.4
50	68.38	0.53
60	91.14	0.67
70	114.27	0.81
80	137.22	0.94
90	159.9	1.08
100	181.95	1.15
110	203.49	1.21
120	224.83	1.28
130	244.83	1.34
140	264.69	1.39
150	284.06	1.45
160	302.97	1.51
170	321.5	1.56
180	339.81	1.62
190	357.91	1.67
200	375.77	1.73
210	393.93	1.78
220	410.86	1.83
230	428.2	1.88
240	445.45	1.94
250	462.63	1.99
260	479.77	2.04
270	497.03	2.09
280	514.58	2.14
290	532.7	2.2
300	552.91	2.26

System: methyl octadecanoate; phases: Liquid
Fixed: Pressure, kPa = 101.325
Property: Molar entropy, J/K/mol (Liquid); method: VADIAC:UFactor:2
Temperature, K	Molar entropy, J/K/mol	uncertainty
320	792.61	2.98
330	812.38	3.04
340	831.8	3.1
350	850.92	3.15

System: methyl nonadecanoate; phases: Crystal, Liquid, Gas
Property: Molar enthalpy of transition or fusion, kJ/mol (Crystal); method: ADIACA:UFactor:4
Molar enthalpy of transition or fusion, kJ/mol	uncertainty
70.925	0.54

System: methyl nonadecanoate; phases: Crystal, Liquid, Gas
Property: Triple point temperature, K (Crystal); method: ADIACA:UFactor:4
Triple point temperature, K	uncertainty
311.49	0.16

System: methyl nonadecanoate; phases: Crystal
Fixed: Pressure, kPa = 101.325
Property: Molar heat capacity at constant pressure, J/K/mol (Crystal); method: VADIAC:UFactor:2
Temperature, K	Molar heat capacity at constant pressure, J/K/mol	uncertainty
5	0.69	0.04
10	5.1	0.11
20	26.27	0.32
30	55.13	0.31
40	87.37	0.43
50	117.8	0.55
60	143.77	0.66
70	168.98	0.76
80	190.79	0.84
90	210.18	0.82
100	228.66	0.86
110	244.31	0.89
120	259.07	0.92
130	273.22	0.95
140	286.84	0.97
150	300.17	1
160	313.53	1.03
170	327.31	1.05
180	339.52	1.08
190	353.2	1.11
200	367.35	1.14
210	380.94	1.16
220	397.52	1.2
230	413.93	1.23
240	432.32	1.27
250	450.65	1.3
260	469.65	1.34
270	491.94	1.38
280	518.01	1.44
290	549.43	1.5
300	586.63	1.58

System: methyl nonadecanoate; phases: Liquid
Fixed: Pressure, kPa = 101.325
Property: Molar heat capacity at constant pressure, J/K/mol (Liquid); method: VADIAC:UFactor:2
Temperature, K	Molar heat capacity at constant pressure, J/K/mol	uncertainty
320	691.61	1.78
330	677.17	1.75
340	684.76	1.77
350	693.78	1.79

System: methyl nonadecanoate; phases: Crystal
Fixed: Pressure, kPa = 101.325
Property: Molar enthalpy, kJ/mol (Crystal); method: VADIAC:UFactor:2
Temperature, K	Molar enthalpy, kJ/mol	uncertainty
5	0.00089	0.00013
10	0.0139	0.00048
20	0.171	0.002
30	0.574	0.005
40	1.285	0.009
50	2.308	0.013
60	3.619	0.019
70	5.186	0.027
80	6.988	0.035
90	8.993	0.054
100	11.19	0.063
110	13.557	0.071
120	16.074	0.08
130	18.734	0.09
140	21.536	0.099
150	24.471	0.109
160	27.539	0.119
170	30.737	0.13
180	34.068	0.14
190	37.531	0.151
200	41.133	0.162
210	44.875	0.174
220	48.768	0.186
230	52.825	0.198
240	57.053	0.21
250	61.47	0.223
260	66.067	0.236
270	70.874	0.25
280	75.924	0.264
290	81.252	0.279
300	86.928	0.294

System: methyl nonadecanoate; phases: Liquid
Fixed: Pressure, kPa = 101.325
Property: Molar enthalpy, kJ/mol (Liquid); method: VADIAC:UFactor:2
Temperature, K	Molar enthalpy, kJ/mol	uncertainty
320	166.761	0.462
330	173.605	0.479
340	180.415	0.497
350	187.307	0.515

System: methyl nonadecanoate; phases: Crystal
Fixed: Pressure, kPa = 101.325
Property: Molar entropy, J/K/mol (Crystal); method: VADIAC:UFactor:2
Temperature, K	Molar entropy, J/K/mol	uncertainty
5	0.23	0.04
10	1.85	0.08
20	11.96	0.23
30	27.91	0.29
40	48.15	0.41
50	70.82	0.55
60	94.67	0.69
70	118.77	0.83
80	142.79	0.98
90	166.39	1.1
100	189.53	1.17
110	212.06	1.24
120	233.96	1.3
130	255.26	1.37
140	276.01	1.43
150	296.25	1.49
160	316.04	1.55
170	335.43	1.61
180	354.46	1.66
190	373.18	1.72
200	391.66	1.78
210	409.91	1.83
220	428.02	1.88
230	446.04	1.94
240	464.04	1.99
250	482.07	2.05
260	500.1	2.1
270	518.24	2.16
280	536.6	2.21
290	555.29	2.27
300	574.53	2.32

System: methyl nonadecanoate; phases: Liquid
Fixed: Pressure, kPa = 101.325
Property: Molar entropy, J/K/mol (Liquid); method: VADIAC:UFactor:2
Temperature, K	Molar entropy, J/K/mol	uncertainty
320	829.73	3.09
330	850.79	3.15
340	871.12	3.21
350	891.09	3.27

System: methyl eicosanoate; phases: Crystal, Liquid, Gas
Property: Molar enthalpy of transition or fusion, kJ/mol (Crystal); method: ADIACA:UFactor:4
Molar enthalpy of transition or fusion, kJ/mol	uncertainty
78.794	0.55

System: methyl eicosanoate; phases: Crystal, Liquid, Gas
Property: Triple point temperature, K (Crystal); method: ADIACA:UFactor:4
Triple point temperature, K	uncertainty
319.48	0.16

System: methyl eicosanoate; phases: Crystal
Fixed: Pressure, kPa = 101.325
Property: Molar heat capacity at constant pressure, J/K/mol (Crystal); method: VADIAC:UFactor:2
Temperature, K	Molar heat capacity at constant pressure, J/K/mol	uncertainty
5	0.75	0.04
10	5.46	0.11
20	28.85	0.35
30	56.97	0.31
40	89.89	0.44
50	122.31	0.57
60	149.98	0.68
70	176.8	0.79
80	199.8	0.88
90	220.14	0.84
100	235.76	0.87
110	255.12	0.91
120	271.01	0.94
130	285.48	0.97
140	299.45	1
150	313.11	1.03
160	326.52	1.05
170	339.86	1.08
180	353.31	1.11
190	366.99	1.13
200	381.11	1.16
210	395.71	1.19
220	411.05	1.22
230	427.04	1.25
240	443.77	1.29
250	461.58	1.32
260	480.5	1.36
270	501.55	1.4
280	525.09	1.45
290	551.06	1.5
300	585.33	1.57

System: methyl eicosanoate; phases: Liquid
Fixed: Pressure, kPa = 101.325
Property: Molar heat capacity at constant pressure, J/K/mol (Liquid); method: VADIAC:UFactor:2
Temperature, K	Molar heat capacity at constant pressure, J/K/mol	uncertainty
330	714.47	1.83
340	722.28	1.84
350	732.2	1.86

System: methyl eicosanoate; phases: Crystal
Fixed: Pressure, kPa = 101.325
Property: Molar enthalpy, kJ/mol (Crystal); method: VADIAC:UFactor:2
Temperature, K	Molar enthalpy, kJ/mol	uncertainty
5	0.00094	0.00013
10	0.015	0.001
20	0.186	0.003
30	0.605	0.005
40	1.338	0.009
50	2.402	0.014
60	3.768	0.02
70	5.408	0.027
80	7.289	0.036
90	9.388	0.055
100	11.682	0.064
110	14.144	0.072
120	16.774	0.082
130	19.558	0.091
140	22.483	0.101
150	25.547	0.111
160	28.745	0.122
170	32.077	0.132
180	35.543	0.143
190	39.144	0.154
200	42.884	0.166
210	46.767	0.178
220	50.801	0.19
230	54.991	0.202
240	59.344	0.215
250	63.871	0.228
260	68.582	0.241
270	73.486	0.255
280	78.617	0.269
290	83.997	0.284
300	89.676	0.3
310	95.838	0.316

System: methyl eicosanoate; phases: Liquid
Fixed: Pressure, kPa = 101.325
Property: Molar enthalpy, kJ/mol (Liquid); method: VADIAC:UFactor:2
Temperature, K	Molar enthalpy, kJ/mol	uncertainty
330	183.976	0.5
340	191.159	0.519
350	198.432	0.537

System: methyl eicosanoate; phases: Crystal
Fixed: Pressure, kPa = 101.325
Property: Molar entropy, J/K/mol (Crystal); method: VADIAC:UFactor:2
Temperature, K	Molar entropy, J/K/mol	uncertainty
5	0.25	0.04
10	2	0.08
20	13	0.25
30	29.6	0.3
40	50.46	0.43
50	74.05	0.57
60	98.89	0.72
70	124.12	0.87
80	149.2	1.02
90	173.9	1.12
100	198.05	1.2
110	221.5	1.27
120	244.38	1.33
130	266.65	1.4
140	288.33	1.47
150	309.46	1.53
160	330.09	1.59
170	350.29	1.65
180	370.09	1.71
190	389.56	1.77
200	408.74	1.83
210	427.69	1.88
220	446.45	1.94
230	465.07	2
240	483.6	2.05
250	502.07	2.11
260	520.55	2.16
270	539.06	2.22
280	557.71	2.27
290	576.59	2.33
300	595.84	2.39
310	616.03	2.45

System: methyl eicosanoate; phases: Liquid
Fixed: Pressure, kPa = 101.325
Property: Molar entropy, J/K/mol (Liquid); method: VADIAC:UFactor:2
Temperature, K	Molar entropy, J/K/mol	uncertainty
330	890.2	3.27
340	911.64	3.34
350	932.71	3.4
