Measured thermophysical data. Solubility and Density of 2,6-Dimethylnaphthalene in C1-C7 1-Alkanols
Source: J. Chem. Eng. Data, 2004, 10.1021/je049967z
Compound 1: hexan-1-ol, C6H14O, InChI=1S/C6H14O/c1-2-3-4-5-6-7/h7H,2-6H2,1H3
Compound 2: heptan-1-ol, C7H16O, InChI=1S/C7H16O/c1-2-3-4-5-6-7-8/h8H,2-7H2,1H3
Compound 3: 2,6-dimethylnaphthalene, C12H12, InChI=1S/C12H12/c1-9-3-5-12-8-10(2)4-6-11(12)7-9/h3-8H,1-2H3
Compound 4: methanol, CH4O, InChI=1S/CH4O/c1-2/h2H,1H3
Compound 5: ethanol, C2H6O, InChI=1S/C2H6O/c1-2-3/h3H,2H2,1H3
Compound 6: propan-1-ol, C3H8O, InChI=1S/C3H8O/c1-2-3-4/h4H,2-3H2,1H3
Compound 7: butan-1-ol, C4H10O, InChI=1S/C4H10O/c1-2-3-4-5/h5H,2-4H2,1H3
Compound 8: pentan-1-ol, C5H12O, InChI=1S/C5H12O/c1-2-3-4-5-6/h6H,2-5H2,1H3

System: methanol + 2,6-dimethylnaphthalene; phases: Liquid, Crystal
Fixed: Pressure, kPa = 101.3
Property: Solid-liquid equilibrium temperature, K (Liquid); method: VISOBS:UFactor:8
Mole fraction of 2,6-dimethylnaphthalene	Solid-liquid equilibrium temperature, K	uncertainty
0.0074	251.15	1.24
0.0097	257.15	1.24
0.0175	266.35	1.24
0.0232	274.15	1.24
0.033	281.15	1.24
0.047	289.85	1.24
0.0712	300.15	1.24
0.1064	310.15	1.24
0.1285	314.45	1.24
0.1588	321.25	1.24
0.1808	324.55	1.24
0.2044	328.45	1.24
0.2388	332.65	1.24
0.2639	335.55	1.24

System: ethanol + 2,6-dimethylnaphthalene; phases: Liquid, Crystal
Fixed: Pressure, kPa = 101.3
Property: Solid-liquid equilibrium temperature, K (Liquid); method: VISOBS:UFactor:8
Mole fraction of 2,6-dimethylnaphthalene	Solid-liquid equilibrium temperature, K	uncertainty
0.0057	247.15	1.24
0.0119	259.55	1.24
0.0188	270.75	1.24
0.0314	282.05	1.24
0.0414	290.35	1.24
0.0523	296.15	1.24
0.0736	304.75	1.24
0.0806	307.05	1.24
0.0907	309.95	1.24
0.1058	315.65	1.24
0.1268	320.15	1.24
0.1535	327.15	1.24
0.1884	332.15	1.24
0.2096	336.15	1.24

System: propan-1-ol + 2,6-dimethylnaphthalene; phases: Liquid, Crystal
Fixed: Pressure, kPa = 101.3
Property: Solid-liquid equilibrium temperature, K (Liquid); method: VISOBS:UFactor:8
Mole fraction of 2,6-dimethylnaphthalene	Solid-liquid equilibrium temperature, K	uncertainty
0.0045	248.75	1.24
0.0096	259.95	1.24
0.0165	271.15	1.24
0.0258	281.95	1.24
0.0469	295.15	1.24
0.0601	301.85	1.24
0.0699	304.65	1.24
0.0783	307.35	1.24
0.0928	312.45	1.24
0.105	316.05	1.24
0.1155	318.15	1.24
0.1418	323.15	1.24
0.1818	329.15	1.24
0.2037	333.15	1.24

System: butan-1-ol + 2,6-dimethylnaphthalene; phases: Liquid, Crystal
Fixed: Pressure, kPa = 101.3
Property: Solid-liquid equilibrium temperature, K (Liquid); method: VISOBS:UFactor:8
Mole fraction of 2,6-dimethylnaphthalene	Solid-liquid equilibrium temperature, K	uncertainty
0.004	247.55	1.24
0.0084	257.95	1.24
0.0142	269.35	1.24
0.0266	284.05	1.24
0.0384	293.15	1.24
0.0543	300.05	1.24
0.0637	303.35	1.24
0.0781	308.55	1.24
0.099	313.25	1.24
0.1176	318.05	1.24
0.1372	323.35	1.24
0.1557	327.95	1.24
0.1834	333.45	1.24
0.193	336.35	1.24

System: pentan-1-ol + 2,6-dimethylnaphthalene; phases: Liquid, Crystal
Fixed: Pressure, kPa = 101.3
Property: Solid-liquid equilibrium temperature, K (Liquid); method: VISOBS:UFactor:8
Mole fraction of 2,6-dimethylnaphthalene	Solid-liquid equilibrium temperature, K	uncertainty
0.0044	252.65	1.24
0.0075	261.95	1.24
0.0152	274.25	1.24
0.0255	285.25	1.24
0.0418	294.15	1.24
0.0507	298.25	1.24
0.075	306.25	1.24
0.0832	308.95	1.24
0.0943	311.55	1.24
0.1121	315.75	1.24
0.1447	321.45	1.24
0.1808	326.75	1.24
0.2152	332.05	1.24
0.2651	338.65	1.24

System: hexan-1-ol + 2,6-dimethylnaphthalene; phases: Liquid, Crystal
Fixed: Pressure, kPa = 101.3
Property: Solid-liquid equilibrium temperature, K (Liquid); method: VISOBS:UFactor:8
Mole fraction of 2,6-dimethylnaphthalene	Solid-liquid equilibrium temperature, K	uncertainty
0.003	246.15	1.24
0.0107	269.95	1.24
0.0216	282.85	1.24
0.0315	289.95	1.24
0.0426	296.15	1.24
0.06	303.05	1.24
0.0713	306.15	1.24
0.0868	310.05	1.24
0.1011	313.25	1.24
0.1205	317.45	1.24
0.149	322.05	1.24
0.1915	327.45	1.24
0.2228	331.55	1.24
0.2464	335.15	1.24

System: heptan-1-ol + 2,6-dimethylnaphthalene; phases: Liquid, Crystal
Fixed: Pressure, kPa = 101.3
Property: Solid-liquid equilibrium temperature, K (Liquid); method: VISOBS:UFactor:8
Mole fraction of 2,6-dimethylnaphthalene	Solid-liquid equilibrium temperature, K	uncertainty
0.0015	246.35	1.24
0.0043	266.05	1.24
0.0097	277.85	1.24
0.0187	285.45	1.24
0.0302	293.15	1.24
0.0421	298.15	1.24
0.0605	303.55	1.24
0.0764	308.15	1.24
0.0921	311.85	1.24
0.1149	316.05	1.24
0.139	320.15	1.24
0.1615	323.85	1.24
0.1806	326.95	1.24
0.2081	331.05	1.24
0.2329	333.45	1.24
0.283	339.05	1.24
