Measured thermophysical data. Determination of Henry s Law Constants and Activity Coefficients at Infinite Dilution of Flavor Compounds in Water at 298 K with a Gas-Chromatographic Method
Source: J. Chem. Eng. Data, 2005, 10.1021/je0495942
Compound 1: ethanol, C2H6O, InChI=1S/C2H6O/c1-2-3/h3H,2H2,1H3, purity 99.8%
Compound 2: propan-1-ol, C3H8O, InChI=1S/C3H8O/c1-2-3-4/h4H,2-3H2,1H3, purity 99%
Compound 3: acetone, C3H6O, InChI=1S/C3H6O/c1-3(2)4/h1-2H3, purity 99.5%
Compound 4: butanone, C4H8O, InChI=1S/C4H8O/c1-3-4(2)5/h3H2,1-2H3, purity 99%
Compound 5: pentan-2-one, C5H10O, InChI=1S/C5H10O/c1-3-4-5(2)6/h3-4H2,1-2H3, purity 99%
Compound 6: 2-hexanone, C6H12O, InChI=1S/C6H12O/c1-3-4-5-6(2)7/h3-5H2,1-2H3, purity 99%
Compound 7: 2,3-butanedione, C4H6O2, InChI=1S/C4H6O2/c1-3(5)4(2)6/h1-2H3
Compound 8: 2-thiapropane, C2H6S, InChI=1S/C2H6S/c1-3-2/h1-2H3, purity 99%
Compound 9: (Z)-4-heptenal, C7H12O, InChI=1S/C7H12O/c1-2-3-4-5-6-7-8/h3-4,7H,2,5-6H2,1H3/b4-3-, purity 96%
Compound 10: 2,3-butanolone, C4H8O2, InChI=1S/C4H8O2/c1-3(5)4(2)6/h3,5H,1-2H3
Compound 11: ethanal, C2H4O, InChI=1S/C2H4O/c1-2-3/h2H,1H3, purity 99.5%
Compound 12: water, H2O, InChI=1S/H2O/h1H2

System: ethanol + water; phases: Liquid
Property: Activity coefficient of ethanol (Liquid); method: Chromatography
Temperature, K	Pressure, kPa	Mole fraction of ethanol	Activity coefficient of ethanol	uncertainty
298.15	101.325	0	3.77	0.17

System: ethanol + water; phases: Liquid, Gas
Property: Henry's Law constant (mole fraction scale), kPa of ethanol (Liquid); method: Chromatography
Temperature, K	Mole fraction of ethanol	Henry's Law constant (mole fraction scale), kPa of ethanol	uncertainty
298.15	0	29.7	1.2

System: propan-1-ol + water; phases: Liquid
Fixed: Pressure, kPa = 101.325
Fixed: Mole fraction of propan-1-ol = 0
Property: Activity coefficient of propan-1-ol (Liquid); method: Chromatography
Temperature, K	Activity coefficient of propan-1-ol	uncertainty
298.01	13.4	0.6
298.03	13.3	0.6
298.04	13.3	0.6
298.1	13.4	0.6
298.1	13.3	0.6

System: propan-1-ol + water; phases: Liquid, Gas
Fixed: Mole fraction of propan-1-ol = 0
Property: Henry's Law constant (mole fraction scale), kPa of propan-1-ol (Liquid); method: Chromatography
Temperature, K	Henry's Law constant (mole fraction scale), kPa of propan-1-ol	uncertainty
298.01	37.2	1.5
298.03	37.1	1.5
298.04	37.1	1.5
298.1	37.3	1.5
298.1	37.2	1.5

System: acetone + water; phases: Liquid
Fixed: Pressure, kPa = 101.325
Fixed: Mole fraction of acetone = 0
Property: Activity coefficient of acetone (Liquid); method: Chromatography
Temperature, K	Activity coefficient of acetone	uncertainty
298.01	7.62	0.34
298.01	7.68	0.34
298.03	7.64	0.34
298.03	7.7	0.34
298.04	7.68	0.34
298.04	7.74	0.34
298.17	7.7	0.34

System: acetone + water; phases: Liquid, Gas
Fixed: Mole fraction of acetone = 0
Property: Henry's Law constant (mole fraction scale), kPa of acetone (Liquid); method: Chromatography
Temperature, K	Henry's Law constant (mole fraction scale), kPa of acetone	uncertainty
298.01	233	9
298.01	235	10
298.03	234	9
298.03	236	10
298.04	236	10
298.04	237	10
298.17	237	10

System: butanone + water; phases: Liquid
Fixed: Pressure, kPa = 101.325
Fixed: Mole fraction of butanone = 0
Property: Activity coefficient of butanone (Liquid); method: Chromatography
Temperature, K	Activity coefficient of butanone	uncertainty
297.85	25.8	1.1
298.15	26.1	1.2

System: butanone + water; phases: Liquid, Gas
Fixed: Mole fraction of butanone = 0
Property: Henry's Law constant (mole fraction scale), kPa of butanone (Liquid); method: Chromatography
Temperature, K	Henry's Law constant (mole fraction scale), kPa of butanone	uncertainty
297.85	322	13
298.15	330	13

System: pentan-2-one + water; phases: Liquid
Fixed: Pressure, kPa = 101.325
Fixed: Mole fraction of pentan-2-one = 0
Property: Activity coefficient of pentan-2-one (Liquid); method: Chromatography
Temperature, K	Activity coefficient of pentan-2-one	uncertainty
297.85	129	6
298.15	148	7

System: pentan-2-one + water; phases: Liquid, Gas
Fixed: Mole fraction of pentan-2-one = 0
Property: Henry's Law constant (mole fraction scale), kPa of pentan-2-one (Liquid); method: Chromatography
Temperature, K	Henry's Law constant (mole fraction scale), kPa of pentan-2-one	uncertainty
297.85	597	25
298.15	696	29

System: 2-hexanone + water; phases: Liquid
Fixed: Pressure, kPa = 101.325
Fixed: Mole fraction of 2-hexanone = 0
Property: Activity coefficient of 2-hexanone (Liquid); method: Chromatography
Temperature, K	Activity coefficient of 2-hexanone	uncertainty
297.85	319	14
298.15	265	12

System: 2-hexanone + water; phases: Liquid, Gas
Fixed: Mole fraction of 2-hexanone = 0
Property: Henry's Law constant (mole fraction scale), kPa of 2-hexanone (Liquid); method: Chromatography
Temperature, K	Henry's Law constant (mole fraction scale), kPa of 2-hexanone	uncertainty
297.85	319	13
298.15	265	11

System: 2,3-butanedione + water; phases: Liquid
Fixed: Pressure, kPa = 101.325
Fixed: Mole fraction of 2,3-butanedione = 0
Property: Activity coefficient of 2,3-butanedione (Liquid); method: Chromatography
Temperature, K	Activity coefficient of 2,3-butanedione	uncertainty
298.1	13.3	0.6
298.1	13.3	0.6
298.1	13.2	0.6
298.17	13.2	0.6
298.17	13.1	0.6
298.17	13.2	0.6

System: 2,3-butanedione + water; phases: Liquid, Gas
Fixed: Mole fraction of 2,3-butanedione = 0
Property: Henry's Law constant (mole fraction scale), kPa of 2,3-butanedione (Liquid); method: Chromatography
Temperature, K	Henry's Law constant (mole fraction scale), kPa of 2,3-butanedione	uncertainty
298.1	100.4	4
298.1	101	4.1
298.1	98.5	4
298.17	98.3	3.9
298.17	97.9	3.9
298.17	98.1	3.9

System: 2-thiapropane + water; phases: Liquid
Fixed: Pressure, kPa = 101.325
Fixed: Mole fraction of 2-thiapropane = 0
Property: Activity coefficient of 2-thiapropane (Liquid); method: Chromatography
Temperature, K	Activity coefficient of 2-thiapropane	uncertainty
298.01	175	12
298.01	173	12
298.01	171	12
298.02	184	13
298.02	185	13
298.03	170	12
298.03	173	12
298.07	178	12

System: 2-thiapropane + water; phases: Liquid, Gas
Fixed: Mole fraction of 2-thiapropane = 0
Property: Henry's Law constant (mole fraction scale), kPa of 2-thiapropane (Liquid); method: Chromatography
Temperature, K	Henry's Law constant (mole fraction scale), kPa of 2-thiapropane	uncertainty
298.01	11260	677
298.01	11096	667
298.01	10952	658
298.02	11810	710
298.02	11868	713
298.03	10912	656
298.03	11140	670
298.07	11475	690

System: (Z)-4-heptenal + water; phases: Liquid, Gas
Fixed: Temperature, K = 298.07
Fixed: Mole fraction of (Z)-4-heptenal = 0
Property: Henry's Law constant (mole fraction scale), kPa of (Z)-4-heptenal (Liquid); method: Chromatography
Henry's Law constant (mole fraction scale), kPa of (Z)-4-heptenal	uncertainty
625.4	25.1
624.4	25.1
640.3	25.7

System: 2,3-butanolone + water; phases: Liquid, Gas
Fixed: Mole fraction of 2,3-butanolone = 0
Property: Henry's Law constant (mole fraction scale), kPa of 2,3-butanolone (Liquid); method: Chromatography
Temperature, K	Henry's Law constant (mole fraction scale), kPa of 2,3-butanolone	uncertainty
298.09	97.6	3.9
298.09	99.3	4
298.1	96	3.9
298.11	96.8	3.9
298.12	98.1	3.9

System: ethanal + water; phases: Liquid
Fixed: Pressure, kPa = 101.325
Fixed: Mole fraction of ethanal = 0
Property: Activity coefficient of ethanal (Liquid); method: Chromatography
Temperature, K	Activity coefficient of ethanal	uncertainty
298.13	4.08	0.19
298.13	4.11	0.19
298.13	4.13	0.19
298.13	4.18	0.19
298.15	4.14	0.19

System: ethanal + water; phases: Liquid, Gas
Fixed: Mole fraction of ethanal = 0
Property: Henry's Law constant (mole fraction scale), kPa of ethanal (Liquid); method: Chromatography
Temperature, K	Henry's Law constant (mole fraction scale), kPa of ethanal	uncertainty
298.13	488	20
298.13	492	20
298.13	495	20
298.13	501	20
298.15	496	20
