Measured thermophysical data. PpT Measurements and EoS Predictions of Glycol Ethers from (283.15 to 353.15) K at Pressures up to 25 MPa
Source: J. Chem. Eng. Data, 2004, 10.1021/je049893r
Compound 1: 3,6-dioxa-1-decanol, C8H18O3, InChI=1S/C8H18O3/c1-2-3-5-10-7-8-11-6-4-9/h9H,2-8H2,1H3, purity 99%
Compound 2: 1-propoxy-2-propanol, C6H14O2, InChI=1S/C6H14O2/c1-3-4-8-5-6(2)7/h6-7H,3-5H2,1-2H3, purity 98.5%

System: 3,6-dioxa-1-decanol; phases: Liquid
Property: Mass density, kg/m3 (Liquid); method: Vibrating tube method
Temperature, K	Pressure, kPa	Mass density, kg/m3	uncertainty
283.15	100	960.5	0.5
283.15	1000	961	0.5
283.15	2500	961.9	0.5
283.15	5000	963.4	0.5
283.15	7500	964.9	0.5
283.15	10000	966.3	0.5
283.15	15000	969.1	0.5
283.15	20000	971.8	0.5
283.15	25000	974.4	0.5
293.15	100	952.2	0.5
293.15	1000	952.7	0.5
293.15	2500	953.7	0.5
293.15	5000	955.2	0.5
293.15	7500	956.7	0.5
293.15	10000	958.2	0.5
293.15	15000	961.1	0.5
293.15	20000	963.9	0.5
293.15	25000	966.7	0.5
303.15	100	943.8	0.5
303.15	1000	944.3	0.5
303.15	2500	945.3	0.5
303.15	5000	946.9	0.5
303.15	7500	948.5	0.5
303.15	10000	950.1	0.5
303.15	15000	953.1	0.5
303.15	20000	956.1	0.5
303.15	25000	959	0.5
313.15	100	935.3	0.5
313.15	1000	935.9	0.5
313.15	2500	936.9	0.5
313.15	5000	938.6	0.5
313.15	7500	940.3	0.5
313.15	10000	941.9	0.5
313.15	15000	945.1	0.5
313.15	20000	948.2	0.5
313.15	25000	951.2	0.5
323.15	100	926.6	0.5
323.15	1000	927.2	0.5
323.15	2500	928.3	0.5
323.15	5000	930.1	0.5
323.15	7500	931.8	0.5
323.15	10000	933.5	0.5
323.15	15000	936.9	0.5
323.15	20000	940.1	0.5
323.15	25000	943.2	0.5
333.15	100	917.8	0.5
333.15	1000	918.5	0.5
333.15	2500	919.7	0.5
333.15	5000	921.6	0.5
333.15	7500	923.4	0.5
333.15	10000	925.2	0.5
333.15	15000	928.7	0.5
333.15	20000	932	0.5
333.15	25000	935.2	0.5
343.15	100	909.7	0.5
343.15	1000	910.4	0.5
343.15	2500	911.6	0.5
343.15	5000	913.6	0.5
343.15	7500	915.5	0.5
343.15	10000	917.4	0.5
343.15	15000	921.1	0.5
343.15	20000	924.6	0.5
343.15	25000	928	0.5
353.15	100	900.9	0.5
353.15	1000	901.7	0.5
353.15	2500	903	0.5
353.15	5000	905	0.5
353.15	7500	907.1	0.5
353.15	10000	909.1	0.5
353.15	15000	912.9	0.5
353.15	20000	916.6	0.5
353.15	25000	920.1	0.5

System: 1-propoxy-2-propanol; phases: Liquid
Property: Mass density, kg/m3 (Liquid); method: Vibrating tube method
Temperature, K	Pressure, kPa	Mass density, kg/m3	uncertainty
283.15	100	895.1	0.7
283.15	1000	895.7	0.7
283.15	2500	896.7	0.7
283.15	5000	898.5	0.7
283.15	7500	900.1	0.7
283.15	10000	901.8	0.7
283.15	15000	905	0.7
283.15	20000	908.1	0.7
283.15	25000	911.1	0.7
293.15	100	886	0.7
293.15	1000	886.6	0.7
293.15	2500	887.7	0.7
293.15	5000	889.6	0.7
293.15	7500	891.3	0.7
293.15	10000	893.1	0.7
293.15	15000	896.5	0.7
293.15	20000	899.8	0.7
293.15	25000	902.9	0.7
303.15	100	876.4	0.7
303.15	1000	877.2	0.7
303.15	2500	878.4	0.7
303.15	5000	880.3	0.7
303.15	7500	882.2	0.7
303.15	10000	884	0.7
303.15	15000	887.6	0.7
303.15	20000	891.1	0.7
303.15	25000	894.4	0.7
313.15	100	866.9	0.7
313.15	1000	867.6	0.7
313.15	2500	868.9	0.7
313.15	5000	871	0.7
313.15	7500	873	0.7
313.15	10000	875	0.7
313.15	15000	878.8	0.7
313.15	20000	882.4	0.7
313.15	25000	885.9	0.7
323.15	100	857.2	0.7
323.15	1000	858	0.7
323.15	2500	859.3	0.7
323.15	5000	861.4	0.7
323.15	7500	863.5	0.7
323.15	10000	865.6	0.7
323.15	15000	869.6	0.7
323.15	20000	873.5	0.7
323.15	25000	877.2	0.7
333.15	100	847.1	0.7
333.15	1000	847.9	0.7
333.15	2500	849.3	0.7
333.15	5000	851.7	0.7
333.15	7500	853.9	0.7
333.15	10000	856.1	0.7
333.15	15000	860.3	0.7
333.15	20000	864.3	0.7
333.15	25000	868.1	0.7
343.15	100	837.5	0.7
343.15	1000	838.4	0.7
343.15	2500	840	0.7
343.15	5000	842.4	0.7
343.15	7500	844.9	0.7
343.15	10000	847.2	0.7
343.15	15000	851.8	0.7
343.15	20000	856	0.7
343.15	25000	860.1	0.7
353.15	100	827.3	0.6
353.15	1000	828.3	0.6
353.15	2500	829.9	0.7
353.15	5000	832.6	0.7
353.15	7500	835.2	0.7
353.15	10000	837.7	0.7
353.15	15000	842.5	0.7
353.15	20000	847	0.7
353.15	25000	851.3	0.7
