Measured thermophysical data. The thermodynamic properties of 2-methylquinoline and 8 methylquinoline
Source: J. Chem. Eng. Data, 2005, 10.1021/je049595u
Compound 1: carbon dioxide, CO2, InChI=1S/CO2/c2-1-3
Compound 2: nitrogen, N2, InChI=1S/N2/c1-2
Compound 3: water, H2O, InChI=1S/H2O/h1H2
Compound 4: oxygen, O2, InChI=1S/O2/c1-2
Compound 5: 2-methylquinoline, C10H9N, InChI=1S/C10H9N/c1-8-6-7-9-4-2-3-5-10(9)11-8/h2-7H,1H3
Compound 6: 8-methylquinoline, C10H9N, InChI=1S/C10H9N/c1-8-4-2-5-9-6-3-7-11-10(8)9/h2-7H,1H3

System: 2-methylquinoline; phases: Crystal, Liquid, Gas
Property: Molar enthalpy of transition or fusion, kJ/mol (Crystal); method: ADIACA:FP
Molar enthalpy of transition or fusion, kJ/mol	uncertainty
12.52	0.013

System: 2-methylquinoline; phases: Crystal, Liquid, Gas
Property: Triple point temperature, K (Crystal); method: ADIACA:FP
Triple point temperature, K	uncertainty
270.48	0.05

System: 2-methylquinoline; phases: Liquid, Gas
Property: Critical temperature, K (Liquid); method: DTA:FP
Critical temperature, K	uncertainty
778	2

System: 2-methylquinoline; phases: Crystal, Gas
Property: Molar heat capacity at saturation pressure, J/K/mol (Crystal); method: Vacuum adiabatic calorimetry
Temperature, K	Molar heat capacity at saturation pressure, J/K/mol	uncertainty
5.565	0.62	0.02
6.404	0.956	0.02
7.354	1.4	0.02
8.354	1.96	0.03
9.372	2.64	0.03
10.395	3.48	0.04
11.525	4.41	0.05
12.8	5.65	0.06
14.207	7.09	0.07
15.748	8.78	0.07
17.456	10.78	0.083
19.364	13.04	0.091
21.488	15.56	0.091
23.827	18.39	0.1
26.425	21.5	0.1
29.313	24.82	0.1
32.521	28.38	0.1
36.118	32.14	0.108
39.676	35.64	0.116
43.663	39.34	0.116
48.556	43.53	0.125
52.536	46.74	0.133
53.493	47.45	0.133
53.982	47.92	0.141
57.457	50.56	0.141
58.644	51.46	0.141
60.029	52.29	0.141
63.196	54.47	0.15
64.469	55.29	0.15
69.557	58.68	0.158
76.519	62.82	0.166
84.084	67.08	0.175
89.02	69.74	0.183
92.314	71.48	0.274
97.212	73.97	0.274
101.283	76.06	0.274
106.317	78.59	0.283
110.83	80.82	0.283
116.092	83.369	0.283
125.969	88.15	0.291
135.922	92.981	0.291
145.887	97.82	0.299
155.924	102.78	0.299
166.033	107.81	0.308
176.218	112.93	0.316
187.413	118.71	0.316
190.571	120.24	0.324
199.527	125.07	0.324
205.563	128.27	0.333
211.512	131.45	0.333
222.269	136.99	0.341
223.465	137.78	0.341
223.489	138.03	0.341
235.038	144.29	0.341
235.463	144.65	0.349
239.039	146.8	0.349
241.522	148.31	0.349
247.485	151.95	0.349
250.701	154.08	0.358
257.751	159.11	0.358
259.671	160.66	0.358
261.219	161.55	0.366

System: 2-methylquinoline; phases: Liquid, Gas
Property: Molar heat capacity at saturation pressure, J/K/mol (Liquid); method: Vacuum adiabatic calorimetry
Temperature, K	Molar heat capacity at saturation pressure, J/K/mol	uncertainty
251.778	205.82	0.407
256.023	207.51	0.407
263.547	210.39	0.407
272.705	213.77	0.416
277.131	215.45	0.416
278.519	216.02	0.416
285.396	218.72	0.416
286.607	219.19	0.416
294.192	222.16	0.424
300.519	224.72	0.424
310.635	228.85	0.432
327.127	235.7	0.432
343.642	242.54	0.441
360.173	249.47	0.449
376.729	256.39	0.457
393.311	263.29	0.466
409.824	270.1	0.474
426.331	276.86	0.474
439.475	282.23	0.482

System: 2-methylquinoline; phases: Crystal, Gas
Property: Molar heat capacity at saturation pressure, J/K/mol (Crystal); method: Vacuum adiabatic calorimetry
Temperature, K	Molar heat capacity at saturation pressure, J/K/mol	uncertainty
5	0.46	0.02
10	3.14	0.04
20	13.79	0.091
30	25.6	0.091
40	35.96	0.116
50	44.72	0.133
60	52.34	0.141
70	58.93	0.158
80	64.8	0.166
90	70.27	0.274
100	75.42	0.274
120	85.265	0.283
140	94.96	0.291
160	104.8	0.308
180	114.86	0.316
200	125.32	0.324
220	135.9	0.333
240	147.3	0.349
260	160.12	0.358
270.48	167.45	0.366

System: 2-methylquinoline; phases: Liquid, Gas
Property: Molar heat capacity at saturation pressure, J/K/mol (Liquid); method: Vacuum adiabatic calorimetry
Temperature, K	Molar heat capacity at saturation pressure, J/K/mol	uncertainty
250	205.2	0.407
260	209.03	0.407
270.48	212.97	0.416
280	216.58	0.416
298.15	223.78	0.424
300	224.52	0.424
320	232.73	0.432
340	241.04	0.441
360	249.4	0.449
380	257.77	0.457
400	266.05	0.466
420	274.27	0.474
440	282.48	0.482

System: 2-methylquinoline; phases: Liquid, Gas
Property: Molar heat capacity at saturation pressure, J/K/mol (Liquid); method: SDSC:UFactor:0.5
Temperature, K	Molar heat capacity at saturation pressure, J/K/mol	uncertainty
460	291.16	2.9101
480	299.73	2.9932
500	308.3	3.0847
520	316.87	3.1678
540	325.39	3.251
560	333.78	3.3341
580	341.97	3.4172
600	349.93	3.5004
620	357.61	3.5752
640	365.01	3.6501
660	372.23	3.7249
680	379.58	3.7997
700	387.75	3.8745

System: 2-methylquinoline; phases: Crystal
Fixed: Pressure, kPa = 101.325
Property: Molar enthalpy function {Hm(T)-Hm(0)}/T, J/K/mol (Crystal); method: Vacuum adiabatic calorimetry
Temperature, K	Molar enthalpy function {Hm(T)-Hm(0)}/T, J/K/mol	uncertainty
5	0.12	0.008
10	0.848	0.02
20	4.48	0.03
30	9.578	0.06
40	14.92	0.07
50	20.02	0.083
60	24.79	0.091
70	29.21	0.1
80	33.29	0.108
90	37.1	0.241
100	40.67	0.241
120	47.29	0.249
140	53.41	0.249
160	59.22	0.258
180	64.84	0.266
200	70.37	0.274
220	75.84	0.274
240	81.31	0.283
260	86.87	0.291
270.48	89.846	0.291

System: 2-methylquinoline; phases: Liquid
Fixed: Pressure, kPa = 101.325
Property: Molar enthalpy function {Hm(T)-Hm(0)}/T, J/K/mol (Liquid); method: Vacuum adiabatic calorimetry
Temperature, K	Molar enthalpy function {Hm(T)-Hm(0)}/T, J/K/mol	uncertainty
250	130.15	0.333
260	133.11	0.333
270.48	136.13	0.333
280	138.81	0.341
298.15	143.76	0.341
300	144.26	0.341
320	149.53	0.349
340	154.67	0.358
360	159.7	0.358
380	164.63	0.366
400	169.5	0.366
420	174.3	0.374
440	179.03	0.382

System: 2-methylquinoline; phases: Liquid, Gas
Property: Vapor or sublimation pressure, kPa (Liquid); method: Inclined piston gauge
Temperature, K	Vapor or sublimation pressure, kPa	uncertainty
319.989	0.0315	0.001
329.984	0.063	0.0011
339.987	0.1198	0.0011
349.98	0.2174	0.0013
364.979	0.4962	0.0016
374.984	0.8233	0.002
384.974	1.3227	0.0026
394.971	2.0656	0.0036
404.97	3.1406	0.0047

System: 2-methylquinoline; phases: Liquid, Gas
Property: Vapor or sublimation pressure, kPa (Liquid); method: Twin ebulliometer
Temperature, K	Vapor or sublimation pressure, kPa	uncertainty
394.236	2	0.0104
411.02	3.9999	0.0105
418.528	5.333	0.0111
429.677	7.9989	0.0117
438.045	10.6661	0.0127
444.81	13.332	0.014
451.838	16.665	0.015
457.677	19.933	0.017
465.361	25.023	0.018
465.364	25.023	0.018
473.099	31.177	0.021
480.886	38.565	0.024
488.723	47.375	0.028
496.61	57.817	0.032
504.548	70.12	0.036
512.535	84.533	0.042
520.572	101.325	0.048
528.659	120.79	0.05
536.797	143.25	0.06
544.981	169.02	0.07
553.218	198.49	0.08
561.5	232.02	0.09
569.828	270.02	0.1

System: 2-methylquinoline; phases: Crystal
Fixed: Pressure, kPa = 101.325
Property: Molar entropy, J/K/mol (Crystal); method: Vacuum adiabatic calorimetry
Temperature, K	Molar entropy, J/K/mol	uncertainty
5	0.15	0.02
10	1.15	0.03
20	6.35	0.07
30	14.2	0.108
40	23.03	0.133
50	32.02	0.158
60	40.87	0.183
70	49.44	0.208
80	57.69	0.233
90	65.65	0.399
100	73.32	0.407
120	87.95	0.432
140	101.82	0.449
160	115.14	0.474
180	128.06	0.491
200	140.7	0.507
220	153.14	0.532
240	165.44	0.549
260	177.73	0.565
270.48	184.2	0.574

System: 2-methylquinoline; phases: Liquid
Fixed: Pressure, kPa = 101.325
Property: Molar entropy, J/K/mol (Liquid); method: Vacuum adiabatic calorimetry
Temperature, K	Molar entropy, J/K/mol	uncertainty
250	214.03	0.624
260	222.15	0.632
270.48	230.49	0.649
280	237.92	0.657
298.15	251.75	0.682
300	253.13	0.682
320	267.88	0.698
340	282.23	0.723
360	296.25	0.748
380	309.96	0.765
400	323.39	0.782
420	336.57	0.807
440	349.52	0.823

System: 2-methylquinoline; phases: Liquid, Gas
Property: Mass density, kg/m3 (Liquid); method: VIBTUB:UFactor:8
Temperature, K	Mass density, kg/m3	uncertainty
323.14	1035.2	0.5
348.14	1015.9	0.4
373.12	996.1	0.4
398.12	973.9	0.5
423.11	952.8	0.6
448.11	931.9	0.7
473.11	910.8	0.9
498.11	888.8	1.1
523.11	865.1	1.4

System: 2-methylquinoline; phases: Gas, Liquid
Property: Mass density, kg/m3 (Gas); method: Measured as part of TC determination by DSC
Temperature, K	Mass density, kg/m3	uncertainty
762.9	163.3	16.3
775.2	236.6	23.8
777.9	292.9	29.4

System: 2-methylquinoline; phases: Liquid, Gas
Property: Mass density, kg/m3 (Liquid); method: Measured as part of TC determination by DSC
Temperature, K	Mass density, kg/m3	uncertainty
773.9	410.8	41.2
775.9	355.4	35.7

System: 8-methylquinoline; phases: Crystal, Liquid, Gas
Property: Molar enthalpy of transition or fusion, kJ/mol (Crystal); method: ADIACA:FP
Molar enthalpy of transition or fusion, kJ/mol	uncertainty
10.732	0.013

System: 8-methylquinoline; phases: Crystal, Liquid, Gas
Property: Triple point temperature, K (Crystal); method: ADIACA:FP
Triple point temperature, K	uncertainty
246.94	0.05

System: 8-methylquinoline; phases: Liquid, Gas
Property: Critical temperature, K (Liquid); method: DTA:FP
Critical temperature, K	uncertainty
787	2

System: 8-methylquinoline; phases: Crystal, Gas
Property: Molar heat capacity at saturation pressure, J/K/mol (Crystal); method: Vacuum adiabatic calorimetry
Temperature, K	Molar heat capacity at saturation pressure, J/K/mol	uncertainty
6.105	0.81	0.02
7.027	1.26	0.02
8.004	1.86	0.03
9.004	2.64	0.03
10.058	3.58	0.04
11.207	4.73	0.05
12.474	6.05	0.06
13.87	7.66	0.07
15.424	9.47	0.07
17.144	11.51	0.083
19.041	13.71	0.091
21.132	16.07	0.1
23.437	18.64	0.1
25.981	21.32	0.1
28.806	24.19	0.1
31.942	27.23	0.1
35.444	30.44	0.1
39.363	33.85	0.108
43.726	37.46	0.116
48.586	41.21	0.125
52.434	44.08	0.133
53.968	45.21	0.133
57.175	47.47	0.133
59.941	49.35	0.141
62.717	51.23	0.141
69.002	55.27	0.15
75.986	59.46	0.158
83.657	63.9	0.166
86.444	65.46	0.175
91.886	68.5	0.266
94.092	69.68	0.266
100.745	73.28	0.274
103.064	74.5	0.274
112.708	79.57	0.283
123.652	85.248	0.283
135.628	91.492	0.291
147.533	97.645	0.299
160.436	104.42	0.308
174.36	111.83	0.316
175.636	112.44	0.316
186.907	118.52	0.316
188.792	119.55	0.316
199.749	125.65	0.324
203.201	127.63	0.324
212.458	132.96	0.333
215.194	134.54	0.333
224.456	140.5	0.341
225.286	140.97	0.341
235.367	150.91	0.349

System: 8-methylquinoline; phases: Liquid, Gas
Property: Molar heat capacity at saturation pressure, J/K/mol (Liquid); method: Vacuum adiabatic calorimetry
Temperature, K	Molar heat capacity at saturation pressure, J/K/mol	uncertainty
175.791	185.73	0.382
181.223	186.55	0.382
186.716	187.58	0.391
232.541	199.61	0.399
238.699	201.71	0.399
245.879	204	0.407
253.584	206.7	0.407
253.723	206.81	0.407
254.073	206.89	0.407
256.362	207.75	0.407
257.672	208.16	0.407
265.24	210.84	0.407
269.688	212.52	0.416
282.822	217.48	0.416
296.934	222.97	0.424
310.972	228.56	0.432
312.23	229.08	0.432
326.773	234.98	0.432
341.893	241.17	0.441
357.579	247.68	0.449
373.8	254.38	0.457
389.626	260.93	0.457
405.689	267.5	0.466
422.454	274.32	0.474
437.107	280.26	0.482

System: 8-methylquinoline; phases: Crystal, Gas
Property: Molar heat capacity at saturation pressure, J/K/mol (Crystal); method: Vacuum adiabatic calorimetry
Temperature, K	Molar heat capacity at saturation pressure, J/K/mol	uncertainty
5	0.45	0.02
10	3.53	0.04
20	14.8	0.091
30	25.37	0.091
40	34.39	0.108
50	42.28	0.125
60	49.4	0.141
70	55.87	0.15
80	61.81	0.166
90	67.47	0.266
100	72.87	0.274
120	83.319	0.283
140	93.696	0.291
160	104.11	0.308
180	114.69	0.316
200	125.52	0.324
220	136.62	0.341
240	147.98	0.349
246.94	151.99	0.349

System: 8-methylquinoline; phases: Liquid, Gas
Property: Molar heat capacity at saturation pressure, J/K/mol (Liquid); method: Vacuum adiabatic calorimetry
Temperature, K	Molar heat capacity at saturation pressure, J/K/mol	uncertainty
170	184.91	0.382
180	186.36	0.382
200	190.48	0.391
220	195.81	0.399
240	202.12	0.399
246.94	204.38	0.407
260	208.99	0.407
280	216.4	0.416
298.15	223.45	0.424
300	224.18	0.424
320	232.22	0.432
340	240.4	0.441
360	248.69	0.449
380	256.96	0.457
400	265.18	0.466
420	273.33	0.474
440	281.4	0.482

System: 8-methylquinoline; phases: Liquid, Gas
Property: Molar heat capacity at saturation pressure, J/K/mol (Liquid); method: SDSC:UFactor:0.5
Temperature, K	Molar heat capacity at saturation pressure, J/K/mol	uncertainty
460	289.36	2.8934
480	297.35	2.9766
500	305.31	3.0514
520	313.17	3.1346
540	320.92	3.2094
560	328.51	3.2842
580	335.9	3.359
600	343.02	3.4339
620	349.87	3.5004
640	356.47	3.5669
660	362.89	3.6251
680	369.38	3.6916
700	376.44	3.7665

System: 8-methylquinoline; phases: Crystal
Fixed: Pressure, kPa = 101.325
Property: Molar enthalpy function {Hm(T)-Hm(0)}/T, J/K/mol (Crystal); method: Vacuum adiabatic calorimetry
Temperature, K	Molar enthalpy function {Hm(T)-Hm(0)}/T, J/K/mol	uncertainty
5	0.12	0.008
10	0.898	0.02
20	4.97	0.04
30	10.05	0.06
40	15.04	0.07
50	19.71	0.083
60	24.08	0.091
70	28.17	0.1
80	32	0.108
90	35.64	0.233
100	39.09	0.241
120	45.59	0.249
140	51.72	0.249
160	57.62	0.258
180	63.37	0.266
200	69.04	0.266
220	74.68	0.274
240	80.31	0.283
246.94	82.26	0.283

System: 8-methylquinoline; phases: Liquid
Fixed: Pressure, kPa = 101.325
Property: Molar enthalpy function {Hm(T)-Hm(0)}/T, J/K/mol (Liquid); method: Vacuum adiabatic calorimetry
Temperature, K	Molar enthalpy function {Hm(T)-Hm(0)}/T, J/K/mol	uncertainty
170	95.151	0.299
180	100.17	0.299
200	108.99	0.308
220	116.64	0.316
240	123.49	0.324
246.94	125.72	0.324
260	129.8	0.333
280	135.71	0.333
298.15	140.84	0.341
300	141.35	0.341
320	146.78	0.349
340	152.05	0.349
360	157.19	0.358
380	162.22	0.366
400	167.15	0.366
420	172.02	0.374
440	176.81	0.374

System: 8-methylquinoline; phases: Liquid, Gas
Property: Vapor or sublimation pressure, kPa (Liquid); method: Inclined piston gauge
Temperature, K	Vapor or sublimation pressure, kPa	uncertainty
315.614	0.0242	0.001
324.984	0.0466	0.0011
334.987	0.0905	0.0011
344.982	0.1674	0.0012
354.978	0.2975	0.0013
364.976	0.5091	0.0016
374.976	0.8418	0.002
384.976	1.3496	0.0027
394.974	2.1024	0.0036
404.974	3.1902	0.0047

System: 8-methylquinoline; phases: Liquid, Gas
Property: Vapor or sublimation pressure, kPa (Liquid); method: Twin ebulliometer
Temperature, K	Vapor or sublimation pressure, kPa	uncertainty
393.84	2.0014	0.0103
400.595	2.6651	0.0104
410.696	4.0039	0.0106
418.203	5.3361	0.0112
429.382	8.0019	0.0118
437.771	10.6685	0.0127
444.5	13.31	0.014
451.611	16.671	0.015
457.459	19.934	0.017
465.161	25.018	0.019
465.162	25.019	0.019
465.167	25.024	0.019
472.938	31.185	0.021
480.744	38.566	0.024
488.597	47.364	0.028
496.506	57.798	0.032
504.487	70.123	0.037
512.497	84.527	0.043
520.559	101.31	0.049
528.685	120.8	0.06
536.845	143.23	0.06
545.061	169	0.07
553.324	198.45	0.08
553.325	198.45	0.08
561.646	232	0.09
570.01	270	0.1

System: 8-methylquinoline; phases: Crystal
Fixed: Pressure, kPa = 101.325
Property: Molar entropy, J/K/mol (Crystal); method: Vacuum adiabatic calorimetry
Temperature, K	Molar entropy, J/K/mol	uncertainty
5	0.15	0.02
10	1.21	0.03
20	7.01	0.07
30	15.07	0.108
40	23.63	0.133
50	32.17	0.158
60	40.52	0.183
70	48.63	0.208
80	56.48	0.233
90	64.1	0.399
100	71.48	0.407
120	85.697	0.432
140	99.316	0.449
160	112.5	0.466
180	125.38	0.491
200	138.02	0.507
220	150.5	0.524
240	162.87	0.54
246.94	167.15	0.549

System: 8-methylquinoline; phases: Liquid
Fixed: Pressure, kPa = 101.325
Property: Molar entropy, J/K/mol (Liquid); method: Vacuum adiabatic calorimetry
Temperature, K	Molar entropy, J/K/mol	uncertainty
170	138.67	0.507
180	149.28	0.524
200	169.12	0.557
220	187.52	0.582
240	204.82	0.607
246.94	210.61	0.615
260	221.26	0.632
280	237.01	0.657
298.15	250.82	0.673
300	252.21	0.682
320	266.94	0.698
340	281.25	0.723
360	295.23	0.74
380	308.9	0.765
400	322.29	0.782
420	335.42	0.807
440	348.33	0.823

System: 8-methylquinoline; phases: Liquid, Gas
Property: Mass density, kg/m3 (Liquid); method: VIBTUB:UFactor:8
Temperature, K	Mass density, kg/m3	uncertainty
323.14	1049.3	0.5
348.13	1029	0.5
373.12	1009.5	0.4
398.12	988.5	0.4
423.11	967.8	0.5
448.11	947.5	0.6
473.11	926.6	0.8
498.11	904	1

System: 8-methylquinoline; phases: Liquid, Gas
Property: Mass density, kg/m3 (Liquid); method: Measured as part of TC determination by DSC
Temperature, K	Mass density, kg/m3	uncertainty
775.8	444.6	44.5
785.1	349.8	35

System: 8-methylquinoline; phases: Gas, Liquid
Property: Mass density, kg/m3 (Gas); method: Measured as part of TC determination by DSC
Temperature, K	Mass density, kg/m3	uncertainty
769.9	160.5	16.1
784	244.7	24.9
786	318.7	32.2

Reaction: -1 2-methylquinoline + 10 carbon dioxide + .5 nitrogen + 4.5 water + -12.25 oxygen
Property: Specific internal energy of reaction at constant volume, J/g
-37099

Reaction: -1 8-methylquinoline + 10 carbon dioxide + .5 nitrogen + 4.5 water + -12.25 oxygen
Property: Specific internal energy of reaction at constant volume, J/g
-37155.4
