Measured thermophysical data. Measurement of Diffusion Coefficients in Thermodynamically Nonideal Systems
Source: J. Chem. Eng. Data, 2005, 10.1021/je0497303
Compound 1: water, H2O, InChI=1S/H2O/h1H2
Compound 2: methanol, CH4O, InChI=1S/CH4O/c1-2/h2H,1H3
Compound 3: ethanol, C2H6O, InChI=1S/C2H6O/c1-2-3/h3H,2H2,1H3
Compound 4: propan-1-ol, C3H8O, InChI=1S/C3H8O/c1-2-3-4/h4H,2-3H2,1H3
Compound 5: butan-1-ol, C4H10O, InChI=1S/C4H10O/c1-2-3-4-5/h5H,2-4H2,1H3
Compound 6: tetrachloromethane, CCl4, InChI=1S/CCl4/c2-1(3,4)5
Compound 7: toluene, C7H8, InChI=1S/C7H8/c1-7-5-3-2-4-6-7/h2-6H,1H3
Compound 8: hexane, C6H14, InChI=1S/C6H14/c1-3-5-6-4-2/h3-6H2,1-2H3
Compound 9: cyclohexane, C6H12, InChI=1S/C6H12/c1-2-4-6-5-3-1/h1-6H2

System: methanol + water; phases: Liquid
Fixed: Temperature, K = 298.15
Fixed: Pressure, kPa = 101.3
Property: Binary diffusion coefficient, m2/s (Liquid); method: Taylor dispersion method
Mole fraction of methanol	Binary diffusion coefficient, m2/s	uncertainty
0	1.57e-09	0.07
0.1	1.22e-09	0.06
0.3	9.5e-10	0.06
0.5	1.03e-09	0.06
0.7	1.37e-09	0.07
0.9	1.87e-09	0.07
0.97	2.05e-09	0.07

System: ethanol + water; phases: Liquid
Fixed: Temperature, K = 298.15
Fixed: Pressure, kPa = 101.3
Property: Binary diffusion coefficient, m2/s (Liquid); method: Taylor dispersion method
Mole fraction of ethanol	Binary diffusion coefficient, m2/s	uncertainty
0.1	7e-10	0.06
0.2	4.1e-10	0.06
0.3	3.8e-10	0.06
0.5	5.1e-10	0.06
0.7	7.6e-10	0.06
0.9	1.08e-09	0.06

System: tetrachloromethane + ethanol; phases: Liquid
Fixed: Pressure, kPa = 101.3
Property: Binary diffusion coefficient, m2/s (Liquid); method: Taylor dispersion method
Temperature, K	Mole fraction of ethanol	Binary diffusion coefficient, m2/s	uncertainty
298.15	0	1.9e-09	0.09
298.15	0.03	1.06e-09	0.08
298.15	0.1	8.2e-10	0.07
298.15	0.3	6.4e-10	0.07
298.15	0.5	7.3e-10	0.06
298.15	0.7	9.9e-10	0.07
298.15	0.9	1.32e-09	0.07
298.15	0.97	1.43e-09	0.07
298.15	1	1.47e-09	0.07
303.15	0	2.15e-09	0.08
303.15	0.03	1.6e-09	0.1
303.15	0.1	9.9e-10	0.07
303.15	0.3	8.3e-10	0.07
303.15	0.5	8.7e-10	0.07
303.15	0.7	1.14e-09	0.07
303.15	0.9	1.45e-09	0.07
303.15	0.97	1.56e-09	0.07
303.15	1	1.61e-09	0.08
308.15	0	2.24e-09	0.07
308.15	0.03	1.8e-09	0.09
308.15	0.1	1.1e-09	0.1
308.15	0.3	9.5e-10	0.07
308.15	0.5	9.9e-10	0.08
308.15	0.7	1.28e-09	0.07
308.15	0.9	1.6e-09	0.08
308.15	0.97	1.76e-09	0.08
308.15	1	1.82e-09	0.08

System: tetrachloromethane + propan-1-ol; phases: Liquid
Fixed: Temperature, K = 298.15
Fixed: Pressure, kPa = 101.3
Property: Binary diffusion coefficient, m2/s (Liquid); method: Taylor dispersion method
Mole fraction of propan-1-ol	Binary diffusion coefficient, m2/s	uncertainty
0	1.61e-09	0.07
0.03	8.3e-10	0.06
0.1	6.1e-10	0.06
0.3	3.9e-10	0.06
0.5	4.6e-10	0.06
0.7	6.6e-10	0.06
0.9	8.3e-10	0.06
0.97	9.1e-10	0.06
1	9.5e-10	0.06

System: tetrachloromethane + butan-1-ol; phases: Liquid
Fixed: Pressure, kPa = 101.3
Property: Binary diffusion coefficient, m2/s (Liquid); method: Taylor dispersion method
Temperature, K	Mole fraction of butan-1-ol	Binary diffusion coefficient, m2/s	uncertainty
298.15	0	1.47e-09	0.07
298.15	0.03	7e-10	0.06
298.15	0.1	5e-10	0.06
298.15	0.3	2.9e-10	0.06
298.15	0.5	3.2e-10	0.06
298.15	0.7	5.4e-10	0.06
298.15	0.9	6.5e-10	0.06
298.15	0.97	6.9e-10	0.07
298.15	1	7.2e-10	0.07
308.15	0	1.74e-09	0.07
308.15	0.03	9.3e-10	0.08
308.15	0.1	7.1e-10	0.07
308.15	0.3	5.2e-10	0.07
308.15	0.5	5.6e-10	0.07
308.15	0.7	6.5e-10	0.06
308.15	0.9	8e-10	0.07
308.15	0.97	8.9e-10	0.07
308.15	1	9.4e-10	0.07

System: ethanol + toluene; phases: Liquid
Fixed: Pressure, kPa = 101.3
Property: Binary diffusion coefficient, m2/s (Liquid); method: Taylor dispersion method
Temperature, K	Mole fraction of ethanol	Binary diffusion coefficient, m2/s	uncertainty
298.15	0	3.12e-09	0.09
298.15	0.03	2.94e-09	0.09
298.15	0.1	2.41e-09	0.09
298.15	0.3	1.22e-09	0.07
298.15	0.5	9.8e-10	0.07
298.15	0.7	1.16e-09	0.07
298.15	0.9	1.55e-09	0.07
298.15	0.97	1.7e-09	0.08
298.15	1	1.74e-09	0.08
308.15	0	3.61e-09	0.1
308.15	0.03	3.4e-09	0.09
308.15	0.1	2.9e-09	0.09
308.15	0.3	1.7e-09	0.1
308.15	0.5	1.35e-09	0.09
308.15	0.7	1.59e-09	0.08
308.15	0.9	1.89e-09	0.08
308.15	0.97	2.04e-09	0.08
308.15	1	2.11e-09	0.08

System: propan-1-ol + toluene; phases: Liquid
Fixed: Temperature, K = 298.15
Fixed: Pressure, kPa = 101.3
Property: Binary diffusion coefficient, m2/s (Liquid); method: Taylor dispersion method
Mole fraction of propan-1-ol	Binary diffusion coefficient, m2/s	uncertainty
0	2.67e-09	0.08
0.03	2.37e-09	0.07
0.1	1.81e-09	0.07
0.3	1e-09	0.06
0.5	8.5e-10	0.06
0.7	1.01e-09	0.06
0.9	1.28e-09	0.07
0.97	1.4e-09	0.07
1	1.46e-09	0.07

System: ethanol + hexane; phases: Liquid
Fixed: Temperature, K = 298.15
Fixed: Pressure, kPa = 101.3
Property: Binary diffusion coefficient, m2/s (Liquid); method: Taylor dispersion method
Mole fraction of ethanol	Binary diffusion coefficient, m2/s	uncertainty
0	5.74e-09	0.11
0.03	4.07e-09	0.09
0.1	2.41e-09	0.07
0.3	1.54e-09	0.07
0.5	1.3e-09	0.07
0.7	1.3e-09	0.07
0.9	1.43e-09	0.07
0.97	1.54e-09	0.07
1	1.6e-09	0.07

System: propan-1-ol + hexane; phases: Liquid
Fixed: Temperature, K = 298.15
Fixed: Pressure, kPa = 101.3
Property: Binary diffusion coefficient, m2/s (Liquid); method: Taylor dispersion method
Mole fraction of propan-1-ol	Binary diffusion coefficient, m2/s	uncertainty
0	5.2e-09	0.1
0.03	3.37e-09	0.08
0.1	2.17e-09	0.07
0.3	1.38e-09	0.07
0.5	1.15e-09	0.06
0.7	1.08e-09	0.06
0.9	1.09e-09	0.06
0.97	1.03e-09	0.06
1	1.02e-09	0.06

System: ethanol + cyclohexane; phases: Liquid
Fixed: Temperature, K = 298.15
Fixed: Pressure, kPa = 101.3
Property: Binary diffusion coefficient, m2/s (Liquid); method: Taylor dispersion method
Mole fraction of ethanol	Binary diffusion coefficient, m2/s	uncertainty
0.03	9.9e-10	0.06
0.1	7.7e-10	0.06
0.3	4.3e-10	0.06
0.5	4.6e-10	0.06
0.7	7.3e-10	0.06
0.9	1.23e-09	0.07
0.97	1.41e-09	0.07

System: propan-1-ol + cyclohexane; phases: Liquid
Fixed: Temperature, K = 298.15
Fixed: Pressure, kPa = 101.3
Property: Binary diffusion coefficient, m2/s (Liquid); method: Taylor dispersion method
Mole fraction of propan-1-ol	Binary diffusion coefficient, m2/s	uncertainty
0.03	8.3e-10	0.06
0.1	6.6e-10	0.06
0.3	3.9e-10	0.06
0.5	4.2e-10	0.06
0.7	6.5e-10	0.06
0.9	1e-09	0.06
0.97	1.15e-09	0.06
