Measured thermophysical data. Speeds of Sound in Dense Liquid and Vapor Pressures for 1,1-Difluoroethane.
Source: J. Chem. Eng. Data, 2004, 10.1021/je049925a
Compound 1: 1,1-difluoroethane, C2H4F2, InChI=1S/C2H4F2/c1-2(3)4/h2H,1H3

System: 1,1-difluoroethane; phases: Liquid, Gas
Property: Vapor or sublimation pressure, kPa (Liquid); method: Closed cell (Static) method
Temperature, K	Vapor or sublimation pressure, kPa	uncertainty
243.15	73	5
263.15	179	5
283.15	372	5
298.15	595	5
313.15	907	5
333.15	1499	5

System: 1,1-difluoroethane; phases: Liquid
Property: Speed of sound, m/s (Liquid); method: Sing-around technique in a fixed-path interferometer
Temperature, K	Pressure, kPa	Speed of sound, m/s	uncertainty
243.15	138	920.2	1.9
243.15	442	922.3	1.9
243.15	595	923.2	1.9
243.15	1302	927.8	1.9
243.15	1815	931	1.9
243.15	2160	933.1	1.9
243.15	2762	936.9	1.9
243.15	3217	939.9	1.9
243.15	3854	943.7	1.9
243.15	4428	947.1	2
243.15	5359	952.7	2
243.15	6355	958.6	2
243.15	7657	966.2	2
243.15	8846	973.1	2
243.15	10231	981	2
243.15	11681	989	2
243.15	13279	997.6	2.1
243.15	14943	1005.5	2.1
243.15	16723	1015.9	2.1
243.15	17442	1019.5	2.1
243.15	18731	1026.3	2.1
243.15	20194	1033.7	2.1
243.15	22819	1046.4	2.2
243.15	25117	1058.6	2.2
243.15	27154	1068.9	2.2
243.15	30242	1084.3	2.2
243.15	8846	973.1	2
243.15	18731	1026.3	2.1
263.15	407	822.3	1.7
263.15	581	823.3	1.7
263.15	759	824.6	1.7
263.15	928	825.5	1.7
263.15	1550	831.3	1.7
263.15	2228	835.9	1.7
263.15	2461	837.6	1.7
263.15	3130	842.9	1.7
263.15	3429	844.7	1.7
263.15	3914	848.6	1.8
263.15	5038	856.2	1.8
263.15	5789	861.4	1.8
263.15	6568	866.7	1.8
263.15	7201	871	1.8
263.15	7967	876.3	1.8
263.15	8899	881.9	1.8
263.15	9893	888.5	1.8
263.15	11531	898.7	1.9
263.15	13616	912	1.9
263.15	15466	922.7	1.9
263.15	17421	934.4	1.9
263.15	18552	941	1.9
263.15	19791	947.4	2
263.15	21881	959.5	2
263.15	25895	980.9	2
263.15	27572	989.5	2
263.15	29409	998.8	2.1
283.15	547	722.7	1.5
283.15	750	724.6	1.5
283.15	1038	727.4	1.5
283.15	1402	731.2	1.5
283.15	1697	733.8	1.5
283.15	2322	739.5	1.5
283.15	2793	743.7	1.5
283.15	3256	747.8	1.6
283.15	3975	754	1.6
283.15	4329	756.9	1.6
283.15	5020	762.5	1.6
283.15	6373	773.5	1.6
283.15	7420	781.9	1.6
283.15	8061	787	1.6
283.15	9151	795.4	1.6
283.15	10246	803.6	1.7
283.15	11356	811.6	1.7
283.15	13100	824	1.7
283.15	14824	835.9	1.7
283.15	16147	844.8	1.7
283.15	18020	857	1.8
283.15	19869	868.3	1.8
283.15	22681	885.6	1.8
283.15	24751	897.6	1.9
283.15	27174	911.6	1.9
283.15	29569	925.1	1.9
298.15	660	648	1.4
298.15	1153	653.4	1.4
298.15	1656	658.8	1.4
298.15	2142	663.6	1.4
298.15	3104	674.1	1.4
298.15	3609	679.2	1.4
298.15	4115	684.3	1.4
298.15	5023	692.9	1.4
298.15	5998	702.2	1.5
298.15	6939	710.9	1.5
298.15	8037	720.6	1.5
298.15	9271	731.2	1.5
298.15	10321	740.1	1.5
298.15	11735	751.5	1.6
298.15	13300	763.9	1.6
298.15	14789	775.3	1.6
298.15	16388	787.1	1.6
298.15	18041	799	1.7
298.15	19521	809.3	1.7
298.15	20530	816.2	1.7
298.15	22781	831.1	1.7
298.15	24289	840.6	1.7
298.15	26870	856.4	1.8
298.15	30717	878.8	1.8
313.15	1222	575.1	1.2
313.15	1721	581.7	1.2
313.15	2288	589.2	1.2
313.15	2776	595.3	1.2
313.15	3587	605.3	1.3
313.15	4184	612.4	1.3
313.15	4942	621	1.3
313.15	6282	635.8	1.3
313.15	7106	644.5	1.3
313.15	8134	655.1	1.4
313.15	9180	665.6	1.4
313.15	9927	672.7	1.4
313.15	11390	686.3	1.4
313.15	12765	698.6	1.5
313.15	15195	719.2	1.5
313.15	16072	726.4	1.5
313.15	17264	736	1.5
313.15	19072	749.8	1.6
313.15	21055	764.7	1.6
313.15	22659	776.2	1.6
313.15	25122	793.3	1.6
313.15	27530	808.2	1.7
313.15	29895	822.3	1.7
333.15	2129	478.7	1
333.15	2606	487.2	1
333.15	3860	507.8	1.1
333.15	4725	520.6	1.1
333.15	5932	538	1.1
333.15	7142	552.1	1.2
333.15	8008	565.1	1.2
333.15	9016	577.2	1.2
333.15	10079	589.7	1.2
333.15	11228	602.3	1.3
333.15	13279	623.8	1.3
333.15	15330	643.8	1.3
333.15	17092	660.1	1.4
333.15	18393	671.6	1.4
333.15	19875	684.3	1.4
333.15	22222	702.8	1.5
333.15	24752	723.7	1.5
333.15	24836	723.7	1.5
333.15	26902	738.8	1.5
333.15	29698	758.6	1.6
