Measured thermophysical data. Volumetric Properties of Water + Monoethanolamine + Methanol Mixtures at Atmospheric Pressure from 283.15 to 353.15 K
Source: J. Chem. Eng. Data, 2005, 10.1021/je049691v
Compound 1: water, H2O, InChI=1S/H2O/h1H2
Compound 2: 2-aminoethan-1-ol, C2H7NO, InChI=1S/C2H7NO/c3-1-2-4/h4H,1-3H2
Compound 3: methanol, CH4O, InChI=1S/CH4O/c1-2/h2H,1H3

System: 2-aminoethan-1-ol; phases: Liquid
Property: Mass density, kg/m3 (Liquid); method: Vibrating tube method
Temperature, K	Pressure, kPa	Mass density, kg/m3	uncertainty
297.15	101.325	1012.94	0.13

System: methanol; phases: Liquid
Property: Mass density, kg/m3 (Liquid); method: Vibrating tube method
Temperature, K	Pressure, kPa	Mass density, kg/m3	uncertainty
298.15	101.325	786.58	0.13

System: methanol + water; phases: Liquid, Gas
Property: Mass density, kg/m3 (Liquid); method: VIBTUB:UFactor:2
Temperature, K	Mole fraction of water	Mass density, kg/m3	uncertainty
283.15	0.08	813.74	0.29
283.15	0.1581	827.14	0.28
283.15	0.2401	842.01	0.27
283.15	0.3206	857.15	0.25
283.15	0.3987	872.39	0.24
283.15	0.4799	888.59	0.23
283.15	0.56	905.16	0.22
283.15	0.6407	922.05	0.2
283.15	0.7201	938.63	0.19
283.15	0.8	954.82	0.17
283.15	0.8801	970.45	0.17
283.15	0.9603	988.05	0.16
288.15	0.08	809.22	0.29
288.15	0.1581	822.75	0.28
288.15	0.2401	837.75	0.27
288.15	0.3206	853.02	0.26
288.15	0.3987	868.39	0.25
288.15	0.4799	884.77	0.23
288.15	0.56	901.56	0.22
288.15	0.6407	918.74	0.21
288.15	0.7201	935.71	0.19
288.15	0.8	952.47	0.18
288.15	0.8801	968.91	0.17
288.15	0.9603	987.31	0.17
293.15	0.08	804.67	0.3
293.15	0.1581	818.33	0.29
293.15	0.2401	833.45	0.27
293.15	0.3206	848.84	0.26
293.15	0.3987	864.35	0.25
293.15	0.4799	880.88	0.24
293.15	0.56	897.88	0.22
293.15	0.6407	915.33	0.21
293.15	0.7201	932.67	0.2
293.15	0.8	949.98	0.18
293.15	0.8801	967.17	0.18
293.15	0.9603	986.29	0.17
298.15	0.08	800.1	0.3
298.15	0.1581	813.88	0.29
298.15	0.2401	829.11	0.28
298.15	0.3206	844.62	0.27
298.15	0.3987	860.25	0.25
298.15	0.4799	876.94	0.24
298.15	0.56	894.14	0.23
298.15	0.6407	911.85	0.22
298.15	0.7201	929.54	0.2
298.15	0.8	947.37	0.19
298.15	0.8801	965.23	0.18
298.15	0.9603	985.01	0.18
303.15	0.08	795.52	0.31
303.15	0.1581	809.4	0.3
303.15	0.2401	824.74	0.28
303.15	0.3206	840.35	0.27
303.15	0.3987	856.1	0.26
303.15	0.4799	872.93	0.25
303.15	0.56	890.32	0.23
303.15	0.6407	908.28	0.22
303.15	0.7201	926.31	0.21
303.15	0.8	944.61	0.19
303.15	0.8801	963.12	0.19
303.15	0.9603	983.49	0.18
308.15	0.08	790.9	0.31
308.15	0.1581	804.88	0.3
308.15	0.2401	820.31	0.29
308.15	0.3206	836.03	0.27
308.15	0.3987	851.89	0.26
308.15	0.4799	868.86	0.25
308.15	0.56	886.42	0.24
308.15	0.6407	904.62	0.22
308.15	0.7201	922.97	0.21
308.15	0.8	941.73	0.2
308.15	0.8801	960.83	0.19
308.15	0.9603	981.76	0.18
313.15	0.08	786.24	0.32
313.15	0.1581	800.3	0.3
313.15	0.2401	815.84	0.29
313.15	0.3206	831.64	0.28
313.15	0.3987	847.61	0.27
313.15	0.4799	864.71	0.25
313.15	0.56	882.44	0.24
313.15	0.6407	900.87	0.23
313.15	0.7201	919.53	0.22
313.15	0.8	938.72	0.2
313.15	0.8801	958.38	0.2
313.15	0.9603	979.82	0.19
318.15	0.08	781.54	0.32
318.15	0.1581	795.69	0.31
318.15	0.2401	811.3	0.3
318.15	0.3206	827.2	0.28
318.15	0.3987	843.26	0.27
318.15	0.4799	860.49	0.26
318.15	0.56	878.38	0.25
318.15	0.6407	897.03	0.23
318.15	0.7201	915.98	0.22
318.15	0.8	935.58	0.21
318.15	0.8801	955.76	0.2
318.15	0.9603	977.69	0.19
323.15	0.08	776.8	0.33
323.15	0.1581	791.04	0.31
323.15	0.2401	806.71	0.3
323.15	0.3206	822.69	0.29
323.15	0.3987	838.85	0.27
323.15	0.4799	856.2	0.26
323.15	0.56	874.24	0.25
323.15	0.6407	893.1	0.24
323.15	0.7201	912.32	0.23
323.15	0.8	932.31	0.21
323.15	0.8801	952.99	0.21
323.15	0.9603	975.39	0.2
328.15	0.08	772.01	0.33
328.15	0.1581	786.32	0.32
328.15	0.2401	802.07	0.31
328.15	0.3206	818.11	0.29
328.15	0.3987	834.36	0.28
328.15	0.4799	851.82	0.27
328.15	0.56	870.01	0.25
328.15	0.6407	889.07	0.24
328.15	0.7201	908.56	0.23
328.15	0.8	928.92	0.22
328.15	0.8801	950.06	0.21
328.15	0.9603	972.92	0.2
333.15	0.08	767.16	0.34
333.15	0.1581	781.54	0.32
333.15	0.2401	797.35	0.31
333.15	0.3206	813.44	0.3
333.15	0.3987	829.79	0.28
333.15	0.4799	847.36	0.27
333.15	0.56	865.69	0.26
333.15	0.6407	884.94	0.25
333.15	0.7201	904.69	0.23
333.15	0.8	925.41	0.22
333.15	0.8801	947	0.22
333.15	0.9603	970.28	0.21
338.15	0.08	762.24	0.34
338.15	0.1581	776.67	0.33
338.15	0.2401	792.56	0.31
338.15	0.3206	808.71	0.3
338.15	0.3987	825.13	0.29
338.15	0.4799	842.81	0.28
338.15	0.56	861.28	0.26
338.15	0.6407	880.72	0.25
338.15	0.7201	900.71	0.24
338.15	0.8	921.77	0.23
338.15	0.8801	943.79	0.22
338.15	0.9603	967.5	0.21
343.15	0.08	757.24	0.35
343.15	0.1581	771.74	0.33
343.15	0.2401	787.68	0.32
343.15	0.3206	803.91	0.31
343.15	0.3987	820.39	0.29
343.15	0.4799	838.17	0.28
343.15	0.56	856.77	0.27
343.15	0.6407	876.4	0.25
343.15	0.7201	896.64	0.24
343.15	0.8	918.02	0.23
343.15	0.8801	940.45	0.22
343.15	0.9603	964.57	0.21
348.15	0.08	752.17	0.35
348.15	0.1581	766.72	0.34
348.15	0.2401	782.71	0.32
348.15	0.3206	799	0.31
348.15	0.3987	815.56	0.3
348.15	0.4799	833.44	0.28
348.15	0.56	852.18	0.27
348.15	0.6407	871.97	0.26
348.15	0.7201	892.45	0.25
348.15	0.8	914.14	0.24
348.15	0.8801	936.97	0.23
348.15	0.9603	961.5	0.22
353.15	0.08	747.01	0.36
353.15	0.1581	761.6	0.34
353.15	0.2401	777.65	0.33
353.15	0.3206	794	0.32
353.15	0.3987	810.62	0.3
353.15	0.4799	828.62	0.29
353.15	0.56	847.48	0.28
353.15	0.6407	867.48	0.26
353.15	0.7201	888.15	0.25
353.15	0.8	910.15	0.24
353.15	0.8801	933.37	0.23
353.15	0.9603	958.3	0.22

System: methanol + 2-aminoethan-1-ol + water; phases: Liquid, Gas
Property: Mass density, kg/m3 (Liquid); method: VIBTUB:UFactor:2
Mole fraction of water	Mole fraction of 2-aminoethan-1-ol	Temperature, K	Mass density, kg/m3	uncertainty
0.1357	0.5601	283.15	982.73	0.42
0.1357	0.5601	288.15	978.74	0.42
0.1357	0.5601	293.15	974.74	0.42
0.1357	0.5601	298.15	970.71	0.42
0.1357	0.5601	303.15	966.67	0.42
0.1357	0.5601	308.15	962.62	0.43
0.1357	0.5601	313.15	958.54	0.43
0.1357	0.5601	318.15	954.43	0.43
0.1357	0.5601	323.15	950.31	0.43
0.1357	0.5601	328.15	946.15	0.43
0.1357	0.5601	333.15	941.97	0.43
0.1357	0.5601	338.15	937.75	0.43
0.1357	0.5601	343.15	933.49	0.43
0.1357	0.5601	348.15	929.2	0.44
0.1357	0.5601	353.15	924.87	0.44
0.1914	0.1676	283.15	896.26	0.42
0.1914	0.1676	288.15	892.12	0.42
0.1914	0.1676	293.15	887.95	0.42
0.1914	0.1676	298.15	883.76	0.43
0.1914	0.1676	303.15	879.54	0.43
0.1914	0.1676	308.15	875.29	0.43
0.1914	0.1676	313.15	871	0.44
0.1914	0.1676	318.15	866.68	0.44
0.1914	0.1676	323.15	862.31	0.44
0.1914	0.1676	328.15	857.9	0.45
0.1914	0.1676	333.15	853.43	0.45
0.1914	0.1676	338.15	848.91	0.45
0.1914	0.1676	343.15	844.32	0.46
0.1914	0.1676	348.15	839.67	0.46
0.1914	0.1676	353.15	834.97	0.46
0.1998	0.2359	283.15	918.87	0.4
0.1998	0.2359	288.15	914.8	0.4
0.1998	0.2359	293.15	910.7	0.41
0.1998	0.2359	298.15	906.57	0.41
0.1998	0.2359	303.15	902.42	0.41
0.1998	0.2359	308.15	898.24	0.42
0.1998	0.2359	313.15	894.02	0.42
0.1998	0.2359	318.15	889.78	0.42
0.1998	0.2359	323.15	885.49	0.42
0.1998	0.2359	328.15	881.16	0.43
0.1998	0.2359	333.15	876.79	0.43
0.1998	0.2359	338.15	872.37	0.43
0.1998	0.2359	343.15	867.88	0.44
0.1998	0.2359	348.15	863.34	0.44
0.1998	0.2359	353.15	858.75	0.44
0.2118	0.3122	283.15	942	0.38
0.2118	0.3122	288.15	937.99	0.38
0.2118	0.3122	293.15	933.95	0.38
0.2118	0.3122	298.15	929.89	0.39
0.2118	0.3122	303.15	925.81	0.39
0.2118	0.3122	308.15	921.69	0.39
0.2118	0.3122	313.15	917.55	0.39
0.2118	0.3122	318.15	913.37	0.4
0.2118	0.3122	323.15	909.16	0.4
0.2118	0.3122	328.15	904.91	0.4
0.2118	0.3122	333.15	900.62	0.4
0.2118	0.3122	338.15	896.28	0.41
0.2118	0.3122	343.15	891.89	0.41
0.2118	0.3122	348.15	887.45	0.41
0.2118	0.3122	353.15	882.95	0.42
0.2244	0.3971	283.15	963.62	0.38
0.2244	0.3971	288.15	959.67	0.38
0.2244	0.3971	293.15	955.68	0.38
0.2244	0.3971	298.15	951.68	0.38
0.2244	0.3971	303.15	947.66	0.38
0.2244	0.3971	308.15	943.6	0.39
0.2244	0.3971	313.15	939.52	0.39
0.2244	0.3971	318.15	935.42	0.39
0.2244	0.3971	323.15	931.27	0.39
0.2244	0.3971	328.15	927.1	0.39
0.2244	0.3971	333.15	922.88	0.4
0.2244	0.3971	338.15	918.61	0.4
0.2244	0.3971	343.15	914.31	0.4
0.2244	0.3971	348.15	909.96	0.4
0.2244	0.3971	353.15	905.56	0.41
0.2384	0.4922	283.15	987.17	0.4
0.2384	0.4922	288.15	983.29	0.4
0.2384	0.4922	293.15	979.35	0.4
0.2384	0.4922	298.15	975.41	0.4
0.2384	0.4922	303.15	971.44	0.4
0.2384	0.4922	308.15	967.44	0.4
0.2384	0.4922	313.15	963.43	0.4
0.2384	0.4922	318.15	959.39	0.41
0.2384	0.4922	323.15	955.32	0.41
0.2384	0.4922	328.15	951.21	0.41
0.2384	0.4922	333.15	947.07	0.41
0.2384	0.4922	338.15	942.89	0.41
0.2384	0.4922	343.15	938.67	0.41
0.2384	0.4922	348.15	934.42	0.41
0.2384	0.4922	353.15	930.11	0.42
0.2408	0.178	283.15	908.7	0.41
0.2408	0.178	288.15	904.63	0.42
0.2408	0.178	293.15	900.54	0.42
0.2408	0.178	298.15	896.42	0.42
0.2408	0.178	303.15	892.26	0.42
0.2408	0.178	308.15	888.08	0.43
0.2408	0.178	313.15	883.85	0.43
0.2408	0.178	318.15	879.59	0.43
0.2408	0.178	323.15	875.28	0.44
0.2408	0.178	328.15	870.93	0.44
0.2408	0.178	333.15	866.52	0.44
0.2408	0.178	338.15	862.05	0.45
0.2408	0.178	343.15	857.53	0.45
0.2408	0.178	348.15	852.94	0.45
0.2408	0.178	353.15	848.27	0.46
0.3514	0.1552	283.15	922.21	0.4
0.3514	0.1552	288.15	918.28	0.4
0.3514	0.1552	293.15	914.31	0.4
0.3514	0.1552	298.15	910.31	0.41
0.3514	0.1552	303.15	906.27	0.41
0.3514	0.1552	308.15	902.19	0.41
0.3514	0.1552	313.15	898.07	0.42
0.3514	0.1552	318.15	893.9	0.42
0.3514	0.1552	323.15	889.67	0.42
0.3514	0.1552	328.15	885.4	0.43
0.3514	0.1552	333.15	881.06	0.43
0.3514	0.1552	338.15	876.66	0.43
0.3514	0.1552	343.15	872.2	0.44
0.3514	0.1552	348.15	867.67	0.44
0.3514	0.1552	353.15	863.06	0.44
0.3874	0.2856	283.15	967.78	0.37
0.3874	0.2856	288.15	963.98	0.37
0.3874	0.2856	293.15	960.14	0.37
0.3874	0.2856	298.15	956.28	0.37
0.3874	0.2856	303.15	952.38	0.38
0.3874	0.2856	308.15	948.45	0.38
0.3874	0.2856	313.15	944.48	0.38
0.3874	0.2856	318.15	940.46	0.38
0.3874	0.2856	323.15	936.41	0.39
0.3874	0.2856	328.15	932.31	0.39
0.3874	0.2856	333.15	928.16	0.39
0.3874	0.2856	338.15	923.95	0.39
0.3874	0.2856	343.15	919.69	0.4
0.3874	0.2856	348.15	915.38	0.4
0.3874	0.2856	353.15	911	0.4
0.4042	0.3576	283.15	988.83	0.38
0.4042	0.3576	288.15	985.09	0.38
0.4042	0.3576	293.15	981.3	0.38
0.4042	0.3576	298.15	977.49	0.38
0.4042	0.3576	303.15	973.65	0.38
0.4042	0.3576	308.15	969.78	0.39
0.4042	0.3576	313.15	965.87	0.39
0.4042	0.3576	318.15	961.92	0.39
0.4042	0.3576	323.15	957.94	0.39
0.4042	0.3576	328.15	953.91	0.39
0.4042	0.3576	333.15	949.84	0.4
0.4042	0.3576	338.15	945.72	0.4
0.4042	0.3576	343.15	941.55	0.4
0.4042	0.3576	348.15	937.32	0.4
0.4042	0.3576	353.15	933.04	0.4
0.4226	0.1496	283.15	934.56	0.39
0.4226	0.1496	288.15	930.75	0.4
0.4226	0.1496	293.15	926.88	0.4
0.4226	0.1496	298.15	922.98	0.4
0.4226	0.1496	303.15	919.04	0.4
0.4226	0.1496	308.15	915.05	0.41
0.4226	0.1496	313.15	911.01	0.41
0.4226	0.1496	318.15	906.92	0.41
0.4226	0.1496	323.15	902.78	0.42
0.4226	0.1496	328.15	898.57	0.42
0.4226	0.1496	333.15	894.31	0.42
0.4226	0.1496	338.15	889.98	0.43
0.4226	0.1496	343.15	885.58	0.43
0.4226	0.1496	348.15	881.11	0.43
0.4226	0.1496	353.15	876.57	0.44
0.4721	0.0904	283.15	923.72	0.44
0.4721	0.0904	288.15	919.96	0.45
0.4721	0.0904	293.15	916.14	0.45
0.4721	0.0904	298.15	912.27	0.45
0.4721	0.0904	303.15	908.36	0.45
0.4721	0.0904	308.15	904.38	0.46
0.4721	0.0904	313.15	900.35	0.46
0.4721	0.0904	318.15	896.26	0.46
0.4721	0.0904	323.15	892.11	0.47
0.4721	0.0904	328.15	887.88	0.47
0.4721	0.0904	333.15	883.59	0.48
0.4721	0.0904	338.15	879.23	0.48
0.4721	0.0904	343.15	874.79	0.48
0.4721	0.0904	348.15	870.27	0.49
0.4721	0.0904	353.15	865.66	0.49
0.4857	0.1422	283.15	944.82	0.44
0.4857	0.1422	288.15	941.11	0.44
0.4857	0.1422	293.15	937.36	0.45
0.4857	0.1422	298.15	933.57	0.45
0.4857	0.1422	303.15	929.72	0.45
0.4857	0.1422	308.15	925.83	0.46
0.4857	0.1422	313.15	921.88	0.46
0.4857	0.1422	318.15	917.87	0.46
0.4857	0.1422	323.15	913.81	0.47
0.4857	0.1422	328.15	909.68	0.47
0.4857	0.1422	333.15	905.49	0.47
0.4857	0.1422	338.15	901.23	0.48
0.4857	0.1422	343.15	896.91	0.48
0.4857	0.1422	348.15	892.5	0.48
0.4857	0.1422	353.15	888.14	0.49
0.5116	0.2011	283.15	968.87	0.38
0.5116	0.2011	288.15	965.25	0.38
0.5116	0.2011	293.15	961.58	0.38
0.5116	0.2011	298.15	957.87	0.38
0.5116	0.2011	303.15	954.11	0.39
0.5116	0.2011	308.15	950.31	0.39
0.5116	0.2011	313.15	946.46	0.39
0.5116	0.2011	318.15	942.56	0.39
0.5116	0.2011	323.15	938.6	0.39
0.5116	0.2011	328.15	934.58	0.4
0.5116	0.2011	333.15	930.51	0.4
0.5116	0.2011	338.15	926.37	0.4
0.5116	0.2011	343.15	922.16	0.4
0.5116	0.2011	348.15	917.89	0.41
0.5116	0.2011	353.15	913.55	0.41
0.5353	0.2633	283.15	991.39	0.39
0.5353	0.2633	288.15	987.84	0.39
0.5353	0.2633	293.15	984.24	0.39
0.5353	0.2633	298.15	980.61	0.39
0.5353	0.2633	303.15	976.93	0.4
0.5353	0.2633	308.15	973.22	0.4
0.5353	0.2633	313.15	969.45	0.4
0.5353	0.2633	318.15	965.63	0.4
0.5353	0.2633	323.15	961.77	0.4
0.5353	0.2633	328.15	957.85	0.41
0.5353	0.2633	333.15	953.87	0.41
0.5353	0.2633	338.15	949.84	0.41
0.5353	0.2633	343.15	945.74	0.41
0.5353	0.2633	348.15	941.59	0.42
0.5353	0.2633	353.15	937.37	0.42
0.5864	0.0854	283.15	945.58	0.44
0.5864	0.0854	288.15	942.1	0.44
0.5864	0.0854	293.15	938.56	0.44
0.5864	0.0854	298.15	934.95	0.45
0.5864	0.0854	303.15	931.29	0.45
0.5864	0.0854	308.15	927.55	0.45
0.5864	0.0854	313.15	923.75	0.45
0.5864	0.0854	318.15	919.88	0.46
0.5864	0.0854	323.15	915.93	0.46
0.5864	0.0854	328.15	911.91	0.46
0.5864	0.0854	333.15	907.81	0.47
0.5864	0.0854	338.15	903.64	0.47
0.5864	0.0854	343.15	899.38	0.48
0.5864	0.0854	348.15	895.05	0.48
0.5864	0.0854	353.15	890.62	0.48
0.6087	0.1347	283.15	967.77	0.43
0.6087	0.1347	288.15	964.38	0.44
0.6087	0.1347	293.15	960.93	0.44
0.6087	0.1347	298.15	957.42	0.44
0.6087	0.1347	303.15	953.85	0.45
0.6087	0.1347	308.15	950.22	0.45
0.6087	0.1347	313.15	946.52	0.45
0.6087	0.1347	318.15	942.76	0.46
0.6087	0.1347	323.15	938.93	0.46
0.6087	0.1347	328.15	935.03	0.46
0.6087	0.1347	333.15	931.05	0.47
0.6087	0.1347	338.15	927.01	0.47
0.6087	0.1347	343.15	922.88	0.48
0.6087	0.1347	348.15	918.68	0.48
0.6087	0.1347	353.15	914.4	0.49
0.6355	0.1863	283.15	989.86	0.41
0.6355	0.1863	288.15	986.56	0.41
0.6355	0.1863	293.15	983.2	0.41
0.6355	0.1863	298.15	979.8	0.41
0.6355	0.1863	303.15	976.33	0.42
0.6355	0.1863	308.15	972.81	0.42
0.6355	0.1863	313.15	969.22	0.42
0.6355	0.1863	318.15	965.57	0.42
0.6355	0.1863	323.15	961.86	0.43
0.6355	0.1863	328.15	958.08	0.43
0.6355	0.1863	333.15	954.23	0.43
0.6355	0.1863	338.15	950.31	0.44
0.6355	0.1863	343.15	946.32	0.44
0.6355	0.1863	348.15	942.25	0.44
0.6355	0.1863	353.15	938.12	0.45
0.6376	0.0836	283.15	955.71	0.43
0.6376	0.0836	288.15	952.41	0.43
0.6376	0.0836	293.15	949.03	0.44
0.6376	0.0836	298.15	945.59	0.44
0.6376	0.0836	303.15	942.08	0.45
0.6376	0.0836	308.15	938.5	0.45
0.6376	0.0836	313.15	934.83	0.45
0.6376	0.0836	318.15	931.1	0.46
0.6376	0.0836	323.15	927.28	0.46
0.6376	0.0836	328.15	923.39	0.47
0.6376	0.0836	333.15	919.41	0.47
0.6376	0.0836	338.15	915.35	0.47
0.6376	0.0836	343.15	911.21	0.48
0.6376	0.0836	348.15	906.98	0.48
0.6376	0.0836	353.15	902.67	0.49
0.6483	0.0762	283.15	955.02	0.42
0.6483	0.0762	288.15	951.76	0.42
0.6483	0.0762	293.15	948.42	0.43
0.6483	0.0762	298.15	945.02	0.43
0.6483	0.0762	303.15	941.54	0.43
0.6483	0.0762	308.15	937.98	0.44
0.6483	0.0762	313.15	934.35	0.44
0.6483	0.0762	318.15	930.63	0.44
0.6483	0.0762	323.15	926.84	0.45
0.6483	0.0762	328.15	922.97	0.45
0.6483	0.0762	333.15	919.01	0.46
0.6483	0.0762	338.15	914.97	0.46
0.6483	0.0762	343.15	910.84	0.46
0.6483	0.0762	348.15	906.62	0.47
0.6483	0.0762	353.15	902.31	0.47
0.713	0.1257	283.15	986.15	0.44
0.713	0.1257	288.15	983.18	0.44
0.713	0.1257	293.15	980.13	0.44
0.713	0.1257	298.15	977	0.44
0.713	0.1257	303.15	973.8	0.44
0.713	0.1257	308.15	970.52	0.44
0.713	0.1257	313.15	967.16	0.44
0.713	0.1257	318.15	963.71	0.44
0.713	0.1257	323.15	960.19	0.45
0.713	0.1257	328.15	956.58	0.45
0.713	0.1257	333.15	952.9	0.45
0.713	0.1257	338.15	949.12	0.45
0.713	0.1257	343.15	945.27	0.46
0.713	0.1257	348.15	941.33	0.46
0.713	0.1257	353.15	937.3	0.46
0.7722	0.0751	283.15	979.86	0.43
0.7722	0.0751	288.15	977.25	0.43
0.7722	0.0751	293.15	974.54	0.44
0.7722	0.0751	298.15	971.72	0.44
0.7722	0.0751	303.15	968.81	0.44
0.7722	0.0751	308.15	965.79	0.44
0.7722	0.0751	313.15	962.67	0.45
0.7722	0.0751	318.15	959.45	0.45
0.7722	0.0751	323.15	956.12	0.45
0.7722	0.0751	328.15	952.7	0.46
0.7722	0.0751	333.15	949.18	0.46
0.7722	0.0751	338.15	945.56	0.46
0.7722	0.0751	343.15	941.83	0.47
0.7722	0.0751	348.15	938.01	0.47
0.7722	0.0751	353.15	934.1	0.48
0.8198	0.0738	283.15	988.9	0.4
0.8198	0.0738	288.15	986.64	0.4
0.8198	0.0738	293.15	984.25	0.41
0.8198	0.0738	298.15	981.75	0.42
0.8198	0.0738	303.15	979.12	0.42
0.8198	0.0738	308.15	976.38	0.43
0.8198	0.0738	313.15	973.52	0.44
0.8198	0.0738	318.15	970.55	0.44
0.8198	0.0738	323.15	967.46	0.45
0.8198	0.0738	328.15	964.27	0.45
0.8198	0.0738	333.15	960.96	0.46
0.8198	0.0738	338.15	957.55	0.47
0.8198	0.0738	343.15	954.04	0.47
0.8198	0.0738	348.15	950.42	0.48
0.8198	0.0738	353.15	946.7	0.49
0.8585	0.0723	283.15	995.82	0.39
0.8585	0.0723	288.15	993.87	0.39
0.8585	0.0723	293.15	991.77	0.4
0.8585	0.0723	298.15	989.53	0.41
0.8585	0.0723	303.15	987.17	0.41
0.8585	0.0723	308.15	984.66	0.42
0.8585	0.0723	313.15	982.03	0.43
0.8585	0.0723	318.15	979.28	0.43
0.8585	0.0723	323.15	976.4	0.44
0.8585	0.0723	328.15	973.4	0.45
0.8585	0.0723	333.15	970.29	0.45
0.8585	0.0723	338.15	967.09	0.46
0.8585	0.0723	343.15	963.74	0.47
0.8585	0.0723	348.15	960.26	0.47
0.8585	0.0723	353.15	956.76	0.48
