Measured thermophysical data. Measurement of the Phase Behavior of the Ternary System Carbon Dioxide + Acetone + Phenanthrene
Source: J. Chem. Eng. Data, 2006, 10.1021/je0496239
Compound 1: carbon dioxide, CO2, InChI=1S/CO2/c2-1-3, purity 99.995%
Compound 2: acetone, C3H6O, InChI=1S/C3H6O/c1-3(2)4/h1-2H3, purity 99%
Compound 3: phenanthrene, C14H10, InChI=1S/C14H10/c1-3-7-13-11(5-1)9-10-12-6-2-4-8-14(12)13/h1-10H, purity 99.5%

System: acetone + phenanthrene + carbon dioxide; phases: Gas, Liquid
Property: Vapor or sublimation pressure, kPa (Gas); method: CCELL:UFactor:6
Temperature, K	Mole fraction of carbon dioxide	Mole fraction of phenanthrene	Vapor or sublimation pressure, kPa	uncertainty
288.58	0.3643	0.0136	1716	32
295.26	0.3643	0.0136	1956	37
295.4	0.2715	0.0363	1537	29
298.33	0.2715	0.0363	1627	30
298.35	0.3643	0.0136	2072	39
298.79	0.3043	0.0691	1942	36
300.73	0.5997	0.02	3851	72
303.28	0.2715	0.0363	1777	33
303.28	0.3043	0.0691	2102	39
305.21	0.3643	0.0136	2346	44
308.21	0.3043	0.0691	2292	43
308.22	0.2715	0.0363	1932	36
308.22	0.3643	0.0136	2471	46
313.17	0.2715	0.0363	2097	39
313.19	0.3043	0.0691	2492	47
313.22	0.5997	0.02	4801	89
313.52	0.3008	0.1383	2785	52
315.04	0.6007	0.0397	5110	95
315.19	0.3643	0.0136	2781	52
316.2	0.3008	0.1383	2910	54
316.61	0.7504	0.0124	6572	122
318.13	0.3043	0.0691	2697	50
318.13	0.6007	0.0397	5380	100
318.16	0.2715	0.0363	2267	42
318.16	0.5997	0.02	5226	97
318.17	0.3643	0.0136	2906	54
318.22	0.3008	0.1383	3001	56
320.38	0.3008	0.1383	3100	58
321.81	0.3033	0.2103	3621	68
322.91	0.3008	0.1383	3226	60
323.05	0.3033	0.2103	3665	68
323.07	0.3043	0.0691	2907	54
323.09	0.2715	0.0363	2442	46
323.12	0.5997	0.02	5641	105
323.15	0.7504	0.0124	7312	136
324.99	0.3008	0.1383	3320	62
325.04	0.3643	0.0136	3241	61
326.7	0.6004	0.0603	6792	127
327.94	0.3033	0.2103	3960	74
327.95	0.3008	0.1383	3466	65
327.99	0.3043	0.0691	3127	58
328	0.6007	0.0397	6285	117
328.02	0.2715	0.0363	2587	48
328.06	0.7504	0.0124	7882	147
328.08	0.5997	0.02	6081	113
328.1	0.3643	0.0136	3386	63
329.84	0.6004	0.0603	7132	133
330.87	0.3008	0.1383	3716	69
332.9	0.6004	0.0603	7476	139
332.92	0.3033	0.2103	4245	79
332.94	0.6007	0.0397	6760	126
332.98	0.2715	0.0363	2817	53
333.02	0.5997	0.02	6516	121
333.07	0.7504	0.0124	8472	158
334.9	0.3643	0.0136	3731	70
337.8	0.6004	0.0603	8026	149
337.85	0.6007	0.0397	7245	138
337.86	0.3033	0.2103	4535	85
337.91	0.2715	0.0363	3012	56
337.93	0.7504	0.0124	9072	169
337.94	0.3643	0.0136	3891	73
337.97	0.5997	0.02	6976	130
337.97	0.6007	0.0397	7245	138
342.75	0.3643	0.0136	4146	77
342.78	0.6004	0.0603	8601	160
342.81	0.3033	0.2103	4835	90
342.82	0.6007	0.0397	7745	144
342.87	0.2715	0.0363	3217	60
342.93	0.5997	0.02	7446	139
342.93	0.7504	0.0124	9667	180
347.74	0.3033	0.2103	5140	96

System: acetone + phenanthrene + carbon dioxide; phases: Liquid, Crystal
Property: Vapor or sublimation pressure, kPa (Liquid); method: CCELL:UFactor:4
Mole fraction of phenanthrene	Mole fraction of acetone	Temperature, K	Vapor or sublimation pressure, kPa	uncertainty
0.3008	0.1383	312.88	2752	338
0.3008	0.1383	313.2	5452	267
0.3008	0.1383	313.58	7452	211
0.3033	0.2103	321.79	5450	348
0.3033	0.2103	321.81	3621	729
0.3033	0.2103	322.02	7450	729
0.3043	0.0691	298.71	5452	667
0.3043	0.0691	298.79	1942	321
0.3043	0.0691	298.83	7452	667
0.5997	0.02	300.72	5451	667
0.5997	0.02	300.73	3851	1309
0.5997	0.02	300.84	7451	932
0.6004	0.0603	326.7	6792	54
0.6004	0.0603	326.7	8452	36
0.6007	0.0397	315.04	5450	615
0.6007	0.0397	315.17	7450	616
0.6007	0.0397	315.04	5110	720
0.7504	0.0124	316.61	6572	16
0.7504	0.0124	316.62	7452	16
0.7504	0.0124	316.62	8203	17
0.9001	0.005	338.54	10353	25
0.9001	0.005	338.54	11953	29
