Measured thermophysical data. Measurement and Prediction of Thermochemical Properties. Improved Benson-Type Increments for the Estimation of Enthalpies of Vaporization and Standard Enthalpies of Formation of Aliphatic Alcohols
Source: J. Chem. Eng. Data, 2005, 10.1021/je049561m
Compound 1: hexan-1-ol, C6H14O, InChI=1S/C6H14O/c1-2-3-4-5-6-7/h7H,2-6H2,1H3
Compound 2: heptan-1-ol, C7H16O, InChI=1S/C7H16O/c1-2-3-4-5-6-7-8/h8H,2-7H2,1H3
Compound 3: nonan-1-ol, C9H20O, InChI=1S/C9H20O/c1-2-3-4-5-6-7-8-9-10/h10H,2-9H2,1H3
Compound 4: 2-hexanol, C6H14O, InChI=1S/C6H14O/c1-3-4-5-6(2)7/h6-7H,3-5H2,1-2H3
Compound 5: 5-methyl-3-hexanol, C7H16O, InChI=1S/C7H16O/c1-4-7(8)5-6(2)3/h6-8H,4-5H2,1-3H3
Compound 6: 2-methyl-2-hexanol, C7H16O, InChI=1S/C7H16O/c1-4-5-6-7(2,3)8/h8H,4-6H2,1-3H3
Compound 7: 3-ethyl-3-pentanol, C7H16O, InChI=1S/C7H16O/c1-4-7(8,5-2)6-3/h8H,4-6H2,1-3H3
Compound 8: 2-heptanol, 2-methyl-, C8H18O, InChI=1S/C8H18O/c1-4-5-6-7-8(2,3)9/h9H,4-7H2,1-3H3
Compound 9: 2-ethyl-1-hexanol, C8H18O, InChI=1S/C8H18O/c1-3-5-6-8(4-2)7-9/h8-9H,3-7H2,1-2H3
Compound 10: 3,5,5-trimethyl-1-hexanol, C9H20O, InChI=1S/C9H20O/c1-8(5-6-10)7-9(2,3)4/h8,10H,5-7H2,1-4H3
Compound 11: 2,6-dimethyl-4-heptanol, C9H20O, InChI=1S/C9H20O/c1-7(2)5-9(10)6-8(3)4/h7-10H,5-6H2,1-4H3

System: hexan-1-ol; phases: Liquid, Gas
Property: Vapor or sublimation pressure, kPa (Liquid); method: TRANSPIR:UFactor:1.5
Temperature, K	Vapor or sublimation pressure, kPa	uncertainty
265	0.00468	0.00037
268.2	0.00664	0.00052
273.4	0.01085	0.00084
278.2	0.01748	0.00136
283.2	0.02816	0.00219
288.1	0.04536	0.00352
293.2	0.07404	0.00573
293.3	0.07246	0.00561
298.2	0.11597	0.00891
298.3	0.11193	0.00861
303.2	0.167	0.01284
303.2	0.16613	0.01278
303.3	0.16779	0.0129
308.2	0.2524	0.01929
308.3	0.25275	0.01931
310.4	0.30055	0.02299
313.1	0.36088	0.0277
313.2	0.37007	0.02837
318.2	0.52695	0.04024
318.2	0.52777	0.0403
323.2	0.74808	0.05702
323.2	0.71441	0.05453
328.1	1.02971	0.07846
328.2	1.01221	0.07716
333.1	1.43275	0.10918
333.2	1.45784	0.11103
338.2	1.97641	0.1501
343.2	2.63931	0.20021
348.2	3.47538	0.26371
353.2	4.63936	0.35169
357.2	5.78511	0.43788
358.2	6.13147	0.46505
363.2	7.87465	0.5947

System: heptan-1-ol; phases: Liquid, Gas
Property: Vapor or sublimation pressure, kPa (Liquid); method: Transpiration method
Temperature, K	Vapor or sublimation pressure, kPa	uncertainty
283.4	0.00768	0.00043
286.2	0.01049	0.00057
289.2	0.01405	0.00076
292.2	0.01919	0.00102
292.2	0.01892	0.00101
293.2	0.02131	0.00115
293.7	0.02238	0.0012
295.2	0.02575	0.00136
295.2	0.02455	0.0013
296.7	0.0288	0.00149
298.2	0.03157	0.0017
298.3	0.03194	0.00171
301.2	0.04245	0.00226
303.2	0.05096	0.00269
304.2	0.05561	0.00305
307.2	0.07551	0.00392
308.2	0.07539	0.00398
310.2	0.0933	0.00502
313.2	0.12141	0.00639
313.2	0.11471	0.00607
316.2	0.15305	0.00791
318.2	0.17104	0.00884
319.2	0.18781	0.01003
323.2	0.2588	0.01342

System: nonan-1-ol; phases: Liquid, Gas
Property: Vapor or sublimation pressure, kPa (Liquid); method: Transpiration method
Temperature, K	Vapor or sublimation pressure, kPa	uncertainty
284.3	0.00086	5e-05
288.2	0.00136	8e-05
292.2	0.0022	0.00012
296.2	0.00338	0.00018
300.2	0.00509	0.00027
304.2	0.00705	0.00038
308.2	0.01073	0.00057
308.2	0.01036	0.00056
311.3	0.01434	0.00076
313.3	0.01698	0.00089
314.3	0.0185	0.00098
317.2	0.02325	0.00122
318.2	0.02566	0.00136
320.3	0.03027	0.00162
323.2	0.03987	0.00211
323.3	0.03915	0.00208
326.2	0.05093	0.00269
326.3	0.04858	0.00258
329.2	0.06446	0.00342
329.3	0.06423	0.00341
332.2	0.08236	0.0043
332.3	0.07923	0.00415
335.4	0.1017	0.0053
338.3	0.12368	0.00649
341.2	0.15919	0.00834
344.3	0.19811	0.01026
347.3	0.24057	0.01257
350.3	0.30762	0.016
353.4	0.37505	0.01925

System: 2-hexanol; phases: Liquid, Gas
Property: Vapor or sublimation pressure, kPa (Liquid); method: Transpiration method
Temperature, K	Vapor or sublimation pressure, kPa	uncertainty
274.5	0.03884	0.00209
275.5	0.04269	0.00226
276.3	0.04552	0.00245
276.5	0.04685	0.00251
278.3	0.05512	0.00288
279.5	0.05939	0.0032
281.3	0.07253	0.00391
282.2	0.079	0.00412
282.5	0.07909	0.00396
284.3	0.09529	0.00507
285.4	0.10396	0.00543
285.5	0.09977	0.00525
287.5	0.12042	0.00633
288.4	0.12797	0.00683
290.5	0.15538	0.00822
291.4	0.16856	0.00893
292.1	0.17895	0.00931
293.2	0.19197	0.00998
293.4	0.20478	0.01061
294.4	0.21012	0.01093
296.2	0.24522	0.01389
296.5	0.25502	0.0132
297.4	0.26708	0.01424
299.5	0.32666	0.01712
300.4	0.3421	0.01797
302.5	0.407	0.02105
303.4	0.41995	0.02234
305.5	0.51626	0.02699
306.4	0.53395	0.02791
307.6	0.60007	0.03168
309.4	0.68706	0.03569

System: 5-methyl-3-hexanol; phases: Liquid, Gas
Property: Vapor or sublimation pressure, kPa (Liquid); method: Transpiration method
Temperature, K	Vapor or sublimation pressure, kPa	uncertainty
275.2	0.02715	0.00149
278.2	0.03644	0.00195
281.2	0.04762	0.00253
284.2	0.06236	0.0033
287.2	0.08014	0.00425
290.2	0.10463	0.00555
293.2	0.13541	0.00727
296.2	0.18386	0.00973
299.2	0.2307	0.01204
302.2	0.28703	0.01502
305.3	0.36598	0.01917
308.2	0.45824	0.02391
311.2	0.56751	0.0293

System: 2-methyl-2-hexanol; phases: Liquid, Gas
Property: Vapor or sublimation pressure, kPa (Liquid); method: Transpiration method
Temperature, K	Vapor or sublimation pressure, kPa	uncertainty
274.4	0.03489	0.00175
274.8	0.03515	0.00176
276.5	0.04316	0.00237
279.5	0.05815	0.00309
282.4	0.0741	0.00393
285.3	0.09625	0.0051
288.3	0.1236	0.00653
291.3	0.1597	0.00845
294.3	0.2061	0.01095
294.4	0.2134	0.01129
298.3	0.2886	0.01515
301.3	0.374	0.01944
304.3	0.4483	0.02319
306.2	0.5217	0.02721

System: 3-ethyl-3-pentanol; phases: Liquid, Gas
Property: Vapor or sublimation pressure, kPa (Liquid); method: Transpiration method
Temperature, K	Vapor or sublimation pressure, kPa	uncertainty
275.3	0.05333	0.0029
278.4	0.07085	0.00379
281.3	0.09381	0.00499
284.3	0.12133	0.00641
287.3	0.15612	0.00826
290.3	0.20255	0.01068
293.3	0.25803	0.01353
296.3	0.3249	0.01697
299.3	0.40549	0.02134
302.2	0.52199	0.02753
305.2	0.66397	0.03454
308.2	0.80814	0.04201
311.2	1.00903	0.0522

System: 2-heptanol, 2-methyl-; phases: Liquid, Gas
Property: Vapor or sublimation pressure, kPa (Liquid); method: Transpiration method
Temperature, K	Vapor or sublimation pressure, kPa	uncertainty
275.4	0.01178	0.00064
278.4	0.01566	0.00084
281.2	0.02075	0.00112
284.2	0.02821	0.0015
287.2	0.03622	0.00192
290.2	0.04745	0.00254
293.2	0.06317	0.00335
296.2	0.08071	0.00428
299.3	0.1066	0.00565
302.3	0.1375	0.00728
305.2	0.1774	0.00936
308.2	0.226	0.01183
311.3	0.2844	0.01484
314.2	0.3532	0.01829

System: 2-ethyl-1-hexanol; phases: Liquid, Gas
Property: Vapor or sublimation pressure, kPa (Liquid); method: Transpiration method
Temperature, K	Vapor or sublimation pressure, kPa	uncertainty
293.8	0.01536	0.00086
298.7	0.0246	0.0013
301.6	0.0316	0.00169
304.5	0.04171	0.00222
307.4	0.05371	0.00284
310.3	0.06841	0.0036
313.3	0.08721	0.00458
316.3	0.11005	0.00579
319.2	0.14019	0.00733
322.2	0.17322	0.00906
325.2	0.22045	0.01156
328.2	0.27819	0.01448
331.2	0.34097	0.01755

System: 3,5,5-trimethyl-1-hexanol; phases: Liquid, Gas
Property: Vapor or sublimation pressure, kPa (Liquid); method: Transpiration method
Temperature, K	Vapor or sublimation pressure, kPa	uncertainty
288.2	0.00672	0.00037
291.3	0.00915	0.0005
294.4	0.01257	0.00068
297.4	0.01708	0.00091
300.4	0.02214	0.00117
303.4	0.02841	0.00151
306.4	0.03771	0.00198
309.4	0.0468	0.00246
312.4	0.06052	0.00319
315.4	0.07667	0.00402
318.4	0.0972	0.00515
321.4	0.1277	0.00668
324.4	0.1557	0.00801

System: 2,6-dimethyl-4-heptanol; phases: Liquid, Gas
Property: Vapor or sublimation pressure, kPa (Liquid); method: Transpiration method
Temperature, K	Vapor or sublimation pressure, kPa	uncertainty
278.2	0.00491	0.00027
283.3	0.0079	0.00042
288.2	0.01257	0.00066
291.2	0.01652	0.00088
294.2	0.02161	0.00116
297.2	0.0295	0.00156
300.2	0.03699	0.00195
303.2	0.04805	0.00253
306.2	0.06055	0.00327
312.2	0.1024	0.00533
315.2	0.128	0.00675
318.2	0.1669	0.00877
321.2	0.2088	0.01081
