Measured thermophysical data. Density and Viscosity Measurement of n-Butylamine with Hexyl Alcohol Isomer Binary Systems
Source: J. Chem. Eng. Data, 2004, 10.1021/je0498053
Compound 1: 1-butanamine, C4H11N, InChI=1S/C4H11N/c1-2-3-4-5/h2-5H2,1H3, purity 99%
Compound 2: 2-hexanol, C6H14O, InChI=1S/C6H14O/c1-3-4-5-6(2)7/h6-7H,3-5H2,1-2H3, purity 99%
Compound 3: 3-hexanol, C6H14O, InChI=1S/C6H14O/c1-3-5-6(7)4-2/h6-7H,3-5H2,1-2H3, purity 98%
Compound 4: 2-methyl-1-pentanol, C6H14O, InChI=1S/C6H14O/c1-3-4-6(2)5-7/h6-7H,3-5H2,1-2H3, purity 98%
Compound 5: 2-methyl-2-pentanol, C6H14O, InChI=1S/C6H14O/c1-4-5-6(2,3)7/h7H,4-5H2,1-3H3, purity 99%
Compound 6: 4-methyl-2-pentanol, C6H14O, InChI=1S/C6H14O/c1-5(2)4-6(3)7/h5-7H,4H2,1-3H3, purity 99%

System: 1-butanamine; phases: Liquid
Fixed: Pressure, kPa = 101.3
Property: Viscosity, Pa*s (Liquid); method: CAPTUB:UFactor:8
Temperature, K	Viscosity, Pa*s	uncertainty
303.15	0.00046	3e-05
313.15	0.0004	2e-05
323.15	0.00036	2e-05

System: 1-butanamine; phases: Liquid
Fixed: Pressure, kPa = 101.3
Property: Mass density, kg/m3 (Liquid); method: VIBTUB:UFactor:8
Temperature, K	Mass density, kg/m3	uncertainty
303.15	732.1	1.2
313.15	722.9	1.2
323.15	712.7	1.2

System: 2-hexanol; phases: Liquid
Fixed: Pressure, kPa = 101.3
Property: Viscosity, Pa*s (Liquid); method: CAPTUB:UFactor:8
Temperature, K	Viscosity, Pa*s	uncertainty
303.15	0.00323	0.00015
313.15	0.00229	0.00011
323.15	0.00164	8e-05

System: 2-hexanol; phases: Liquid
Fixed: Pressure, kPa = 101.3
Property: Mass density, kg/m3 (Liquid); method: VIBTUB:UFactor:8
Temperature, K	Mass density, kg/m3	uncertainty
303.15	806.4	0.9
313.15	798.4	1
323.15	790.1	1

System: 3-hexanol; phases: Liquid
Fixed: Pressure, kPa = 101.3
Property: Viscosity, Pa*s (Liquid); method: CAPTUB:UFactor:8
Temperature, K	Viscosity, Pa*s	uncertainty
303.15	0.00352	0.00016
313.15	0.00234	0.00011
323.15	0.00158	8e-05

System: 3-hexanol; phases: Liquid
Fixed: Pressure, kPa = 101.3
Property: Mass density, kg/m3 (Liquid); method: VIBTUB:UFactor:8
Temperature, K	Mass density, kg/m3	uncertainty
303.15	810.2	1.2
313.15	801.7	1.2
323.15	792.8	1.2

System: 2-methyl-1-pentanol; phases: Liquid
Fixed: Pressure, kPa = 101.3
Property: Viscosity, Pa*s (Liquid); method: CAPTUB:UFactor:8
Temperature, K	Viscosity, Pa*s	uncertainty
303.15	0.00455	0.00021
313.15	0.00318	0.00015
323.15	0.00225	0.00011

System: 2-methyl-1-pentanol; phases: Liquid
Fixed: Pressure, kPa = 101.3
Property: Mass density, kg/m3 (Liquid); method: VIBTUB:UFactor:8
Temperature, K	Mass density, kg/m3	uncertainty
303.15	816.8	1.2
313.15	809.5	1.2
323.15	801.5	1.2

System: 2-methyl-2-pentanol; phases: Liquid
Fixed: Pressure, kPa = 101.3
Property: Viscosity, Pa*s (Liquid); method: CAPTUB:UFactor:8
Temperature, K	Viscosity, Pa*s	uncertainty
303.15	0.00293	0.00013
313.15	0.00206	0.0001
323.15	0.00146	7e-05

System: 2-methyl-2-pentanol; phases: Liquid
Fixed: Pressure, kPa = 101.3
Property: Mass density, kg/m3 (Liquid); method: VIBTUB:UFactor:8
Temperature, K	Mass density, kg/m3	uncertainty
303.15	810.8	0.9
313.15	802.4	1
323.15	793.5	1

System: 4-methyl-2-pentanol; phases: Liquid
Fixed: Pressure, kPa = 101.3
Property: Viscosity, Pa*s (Liquid); method: CAPTUB:UFactor:8
Temperature, K	Viscosity, Pa*s	uncertainty
303.15	0.00323	0.00015
313.15	0.00224	0.0001
323.15	0.00155	7e-05

System: 4-methyl-2-pentanol; phases: Liquid
Fixed: Pressure, kPa = 101.3
Property: Mass density, kg/m3 (Liquid); method: VIBTUB:UFactor:8
Temperature, K	Mass density, kg/m3	uncertainty
303.15	799.3	1
313.15	790.7	1
323.15	782	1

System: 1-butanamine + 2-hexanol; phases: Liquid
Fixed: Pressure, kPa = 101.3
Property: Viscosity, Pa*s (Liquid); method: CAPTUB:UFactor:8
Temperature, K	Mole fraction of 1-butanamine	Viscosity, Pa*s	uncertainty
303.15	0	0.00323	0.00015
303.15	0.1	0.00267	0.00012
303.15	0.2	0.00219	0.0001
303.15	0.3	0.00178	8e-05
303.15	0.4	0.00147	7e-05
303.15	0.5	0.0012	6e-05
303.15	0.6	0.00097	5e-05
303.15	0.6999	0.00079	4e-05
303.15	0.8	0.00065	3e-05
303.15	0.9	0.00053	3e-05
303.15	1	0.00046	3e-05
313.15	0	0.00229	0.00011
313.15	0.1	0.00197	9e-05
313.15	0.2	0.00168	8e-05
313.15	0.3	0.0014	7e-05
313.15	0.4	0.00117	6e-05
313.15	0.5	0.00098	5e-05
313.15	0.6	0.00081	4e-05
313.15	0.6999	0.00068	4e-05
313.15	0.8	0.00056	3e-05
313.15	0.9	0.00047	3e-05
313.15	1	0.0004	2e-05
323.15	0	0.00164	8e-05
323.15	0.1	0.00145	7e-05
323.15	0.2	0.00126	6e-05
323.15	0.3	0.0011	5e-05
323.15	0.4	0.00093	5e-05
323.15	0.5	0.00079	4e-05
323.15	0.6	0.00067	4e-05
323.15	0.6999	0.00057	3e-05
323.15	0.8	0.00047	3e-05
323.15	0.9	0.0004	2e-05
323.15	1	0.00036	2e-05

System: 1-butanamine + 2-hexanol; phases: Liquid
Fixed: Pressure, kPa = 101.3
Property: Mass density, kg/m3 (Liquid); method: VIBTUB:UFactor:8
Temperature, K	Mole fraction of 1-butanamine	Mass density, kg/m3	uncertainty
303.15	0	806.4	0.9
303.15	0.1	802	1
303.15	0.2	796.7	1
303.15	0.3	791.5	1
303.15	0.4	785	1
303.15	0.5	777.7	1
303.15	0.6	769.8	1
303.15	0.6999	760.7	1.1
303.15	0.8	751.3	1.1
303.15	0.9	742.1	1.1
303.15	1	732.1	1.2
313.15	0	798.4	1
313.15	0.1	794.2	1
313.15	0.2	788.9	1
313.15	0.3	783.7	1
313.15	0.4	776.9	1
313.15	0.5	769.4	1
313.15	0.6	761.4	1.1
313.15	0.6999	752.1	1.1
313.15	0.8	742.7	1.1
313.15	0.9	732.9	1.1
313.15	1	722.9	1.2
323.15	0	790.1	1
323.15	0.1	786	1
323.15	0.2	780.6	1
323.15	0.3	775.3	1
323.15	0.4	768.5	1
323.15	0.5	760.8	1.1
323.15	0.6	751.1	1.1
323.15	0.6999	741.6	1.1
323.15	0.8	732.4	1.1
323.15	0.9	722.9	1.2
323.15	1	712.7	1.2

System: 1-butanamine + 3-hexanol; phases: Liquid
Fixed: Pressure, kPa = 101.3
Property: Viscosity, Pa*s (Liquid); method: CAPTUB:UFactor:8
Temperature, K	Mole fraction of 1-butanamine	Viscosity, Pa*s	uncertainty
303.15	0	0.00352	0.00016
303.15	0.1	0.00285	0.00013
303.15	0.2	0.00226	0.00011
303.15	0.3	0.00178	8e-05
303.15	0.3999	0.00141	7e-05
303.15	0.5	0.00113	6e-05
303.15	0.5999	0.00092	5e-05
303.15	0.7	0.00076	4e-05
303.15	0.7999	0.00065	3e-05
303.15	0.9	0.00054	3e-05
303.15	1	0.00046	3e-05
313.15	0	0.00234	0.00011
313.15	0.1	0.0022	0.0001
313.15	0.2	0.00179	9e-05
313.15	0.3	0.00139	7e-05
313.15	0.3999	0.00109	5e-05
313.15	0.5	0.00089	5e-05
313.15	0.5999	0.00078	4e-05
313.15	0.7	0.00068	4e-05
313.15	0.7999	0.00058	3e-05
313.15	0.9	0.00046	3e-05
313.15	1	0.0004	2e-05
323.15	0	0.00158	8e-05
323.15	0.1	0.00144	7e-05
323.15	0.2	0.00124	6e-05
323.15	0.3	0.00107	5e-05
323.15	0.3999	0.00091	5e-05
323.15	0.5	0.00076	4e-05
323.15	0.5999	0.00065	4e-05
323.15	0.7	0.00055	3e-05
323.15	0.7999	0.00048	3e-05
323.15	0.9	0.0004	2e-05
323.15	1	0.00036	2e-05

System: 1-butanamine + 3-hexanol; phases: Liquid
Fixed: Pressure, kPa = 101.3
Property: Mass density, kg/m3 (Liquid); method: VIBTUB:UFactor:8
Temperature, K	Mole fraction of 1-butanamine	Mass density, kg/m3	uncertainty
303.15	0	810.2	1.2
303.15	0.1	806.4	1.2
303.15	0.2	801.4	1.1
303.15	0.3	795.6	1.1
303.15	0.3999	788.6	1.1
303.15	0.5	780.4	1.1
303.15	0.5999	772	1.1
303.15	0.7	762.9	1.1
303.15	0.7999	753	1.1
303.15	0.9	742	1.1
303.15	1	732.1	1.2
313.15	0	801.7	1.2
313.15	0.1	798.4	1.2
313.15	0.2	793.5	1.2
313.15	0.3	787.5	1.1
313.15	0.3999	780.5	1.1
313.15	0.5	772	1.1
313.15	0.5999	763.5	1.1
313.15	0.7	754.1	1.1
313.15	0.7999	743.6	1.1
313.15	0.9	732.7	1.2
313.15	1	722.9	1.2
323.15	0	792.8	1.2
323.15	0.1	789.8	1.2
323.15	0.2	785	1.2
323.15	0.3	776.9	1.2
323.15	0.3999	770	1.2
323.15	0.5	763.2	1.1
323.15	0.5999	754.5	1.2
323.15	0.7	745.2	1.2
323.15	0.7999	734.4	1.2
323.15	0.9	723.2	1.2
323.15	1	712.7	1.2

System: 2-methyl-1-pentanol + 1-butanamine; phases: Liquid
Fixed: Pressure, kPa = 101.3
Property: Viscosity, Pa*s (Liquid); method: CAPTUB:UFactor:8
Temperature, K	Mole fraction of 1-butanamine	Viscosity, Pa*s	uncertainty
303.15	0	0.00455	0.00021
303.15	0.1	0.00338	0.00016
303.15	0.2	0.00267	0.00012
303.15	0.2999	0.0021	0.0001
303.15	0.4	0.00167	8e-05
303.15	0.5	0.00137	7e-05
303.15	0.6	0.0011	5e-05
303.15	0.6999	0.00089	5e-05
303.15	0.8	0.00069	4e-05
303.15	0.8999	0.00054	3e-05
303.15	1	0.00046	3e-05
313.15	0	0.00318	0.00015
313.15	0.1	0.00251	0.00012
313.15	0.2	0.00206	0.0001
313.15	0.2999	0.00165	8e-05
313.15	0.4	0.00135	7e-05
313.15	0.5	0.00111	6e-05
313.15	0.6	0.0009	5e-05
313.15	0.6999	0.00072	4e-05
313.15	0.8	0.00059	3e-05
313.15	0.8999	0.00048	3e-05
313.15	1	0.0004	2e-05
323.15	0	0.00225	0.00011
323.15	0.1	0.00185	9e-05
323.15	0.2	0.00157	8e-05
323.15	0.2999	0.00132	6e-05
323.15	0.4	0.00108	5e-05
323.15	0.5	0.00091	5e-05
323.15	0.6	0.00075	4e-05
323.15	0.6999	0.0006	3e-05
323.15	0.8	0.0005	3e-05
323.15	0.8999	0.00042	3e-05
323.15	1	0.00036	2e-05

System: 2-methyl-1-pentanol + 1-butanamine; phases: Liquid
Fixed: Pressure, kPa = 101.3
Property: Mass density, kg/m3 (Liquid); method: VIBTUB:UFactor:8
Temperature, K	Mole fraction of 1-butanamine	Mass density, kg/m3	uncertainty
303.15	0	816.8	1.2
303.15	0.1	810.3	1.2
303.15	0.2	804.8	1.1
303.15	0.2999	798.2	1.1
303.15	0.4	791	1.1
303.15	0.5	783.6	1.1
303.15	0.6	774.5	1.1
303.15	0.6999	764.7	1.1
303.15	0.8	753.9	1.1
303.15	0.8999	742.9	1.1
303.15	1	732.1	1.2
313.15	0	809.5	1.2
313.15	0.1	803	1.2
313.15	0.2	797.4	1.1
313.15	0.2999	790.6	1.1
313.15	0.4	783.2	1.1
313.15	0.5	775.7	1.1
313.15	0.6	766.3	1.1
313.15	0.6999	756.2	1.1
313.15	0.8	745.2	1.1
313.15	0.8999	734.5	1.2
313.15	1	722.9	1.2
323.15	0	801.5	1.2
323.15	0.1	795.3	1.2
323.15	0.2	789.6	1.2
323.15	0.2999	782.6	1.2
323.15	0.4	775	1.1
323.15	0.5	767.2	1.1
323.15	0.6	757.7	1.1
323.15	0.6999	747.4	1.2
323.15	0.8	736.1	1.2
323.15	0.8999	724.3	1.2
323.15	1	712.7	1.2

System: 1-butanamine + 2-methyl-2-pentanol; phases: Liquid
Fixed: Pressure, kPa = 101.3
Property: Viscosity, Pa*s (Liquid); method: CAPTUB:UFactor:8
Temperature, K	Mole fraction of 1-butanamine	Viscosity, Pa*s	uncertainty
303.15	0	0.00293	0.00013
303.15	0.1	0.00262	0.00012
303.15	0.2	0.00225	0.0001
303.15	0.3	0.00186	9e-05
303.15	0.4	0.00155	7e-05
303.15	0.4999	0.00126	6e-05
303.15	0.5999	0.00101	5e-05
303.15	0.7	0.00082	4e-05
303.15	0.8	0.00066	4e-05
303.15	0.9	0.00054	3e-05
303.15	1	0.00046	3e-05
313.15	0	0.00206	0.0001
313.15	0.1	0.00188	9e-05
313.15	0.2	0.00166	8e-05
313.15	0.3	0.00141	7e-05
313.15	0.4	0.0012	6e-05
313.15	0.4999	0.001	5e-05
313.15	0.5999	0.00083	4e-05
313.15	0.7	0.00069	4e-05
313.15	0.8	0.00057	3e-05
313.15	0.9	0.00047	3e-05
313.15	1	0.0004	2e-05
323.15	0	0.00146	7e-05
323.15	0.1	0.00134	6e-05
323.15	0.2	0.0012	6e-05
323.15	0.3	0.00104	5e-05
323.15	0.4	0.00092	5e-05
323.15	0.4999	0.00079	4e-05
323.15	0.5999	0.00067	4e-05
323.15	0.7	0.00057	3e-05
323.15	0.8	0.00048	3e-05
323.15	0.9	0.00041	2e-05
323.15	1	0.00036	2e-05

System: 1-butanamine + 2-methyl-2-pentanol; phases: Liquid
Fixed: Pressure, kPa = 101.3
Property: Mass density, kg/m3 (Liquid); method: VIBTUB:UFactor:8
Temperature, K	Mole fraction of 1-butanamine	Mass density, kg/m3	uncertainty
303.15	0	810.8	0.9
303.15	0.1	806.7	0.9
303.15	0.2	801.5	1
303.15	0.3	795.7	1
303.15	0.4	788.8	1
303.15	0.4999	781.4	1
303.15	0.5999	772.9	1
303.15	0.7	763.8	1.1
303.15	0.8	753.4	1.1
303.15	0.9	742.4	1.1
303.15	1	732.1	1.2
313.15	0	802.4	1
313.15	0.1	798.2	1
313.15	0.2	793.1	1
313.15	0.3	787.2	1
313.15	0.4	780.2	1
313.15	0.4999	772.8	1
313.15	0.5999	764.2	1.1
313.15	0.7	755	1.1
313.15	0.8	744.3	1.1
313.15	0.9	733.3	1.1
313.15	1	722.9	1.2
323.15	0	793.5	1
323.15	0.1	789.2	1
323.15	0.2	784	1
323.15	0.3	778.2	1
323.15	0.4	771.2	1
323.15	0.4999	763.7	1.1
323.15	0.5999	754.7	1.1
323.15	0.7	745.1	1.1
323.15	0.8	734.3	1.1
323.15	0.9	723.6	1.2
323.15	1	712.7	1.2

System: 4-methyl-2-pentanol + 1-butanamine; phases: Liquid
Fixed: Pressure, kPa = 101.3
Property: Viscosity, Pa*s (Liquid); method: CAPTUB:UFactor:8
Temperature, K	Mole fraction of 1-butanamine	Viscosity, Pa*s	uncertainty
303.15	0	0.00323	0.00015
303.15	0.1	0.00261	0.00012
303.15	0.2	0.00206	0.0001
303.15	0.3	0.00166	8e-05
303.15	0.3999	0.00135	7e-05
303.15	0.5	0.00109	5e-05
303.15	0.6	0.00092	5e-05
303.15	0.6999	0.00077	4e-05
303.15	0.7999	0.00064	3e-05
303.15	0.9	0.00056	3e-05
303.15	1	0.00046	3e-05
313.15	0	0.00224	0.0001
313.15	0.1	0.00191	9e-05
313.15	0.2	0.00157	7e-05
313.15	0.3	0.00131	6e-05
313.15	0.3999	0.00109	5e-05
313.15	0.5	0.00091	5e-05
313.15	0.6	0.00077	4e-05
313.15	0.6999	0.00065	3e-05
313.15	0.7999	0.00055	3e-05
313.15	0.9	0.00048	3e-05
313.15	1	0.0004	2e-05
323.15	0	0.00155	7e-05
323.15	0.1	0.0014	7e-05
323.15	0.2	0.00121	6e-05
323.15	0.3	0.00102	5e-05
323.15	0.3999	0.00087	4e-05
323.15	0.5	0.00075	4e-05
323.15	0.6	0.00064	3e-05
323.15	0.6999	0.00054	3e-05
323.15	0.7999	0.00047	3e-05
323.15	0.9	0.00041	2e-05
323.15	1	0.00036	2e-05

System: 4-methyl-2-pentanol + 1-butanamine; phases: Liquid
Fixed: Pressure, kPa = 101.3
Property: Mass density, kg/m3 (Liquid); method: VIBTUB:UFactor:8
Temperature, K	Mole fraction of 1-butanamine	Mass density, kg/m3	uncertainty
303.15	0	799.3	1
303.15	0.1	794.8	1
303.15	0.2	790.7	1
303.15	0.3	785.2	1
303.15	0.3999	779.6	1
303.15	0.5	772.8	1
303.15	0.6	766	1.1
303.15	0.6999	758	1.1
303.15	0.7999	749.7	1.1
303.15	0.9	740.8	1.1
303.15	1	732.1	1.2
313.15	0	790.7	1
313.15	0.1	787	1
313.15	0.2	782.9	1
313.15	0.3	777.3	1
313.15	0.3999	771.5	1
313.15	0.5	764.6	1.1
313.15	0.6	757.5	1.1
313.15	0.6999	749.4	1.1
313.15	0.7999	740.9	1.1
313.15	0.9	731.7	1.2
313.15	1	722.9	1.2
323.15	0	782	1
323.15	0.1	778.6	1
323.15	0.2	774.5	1
323.15	0.3	768.9	1
323.15	0.3999	763	1.1
323.15	0.5	755.9	1.1
323.15	0.6	748.6	1.1
323.15	0.6999	740.3	1.1
323.15	0.7999	731.1	1.2
323.15	0.9	721.7	1.2
323.15	1	712.7	1.2
