Measured thermophysical data. Measurement and Correlation of Densities, Ultrasonic Velocities, and Compressibilities for Binary Aqueous Poly(ethylene glycol), Disodium Succinate, or Sodium Formate and Ternary Aqueous Poly(ethylene glycol) Systems Containing Disodium Succinate or Sodium Formate at T = (298.15, 308.15, and 318.15) K
Source: J. Chem. Eng. Data, 2005, 10.1021/je0496600
Compound 1: disodium succinate, C4H4Na2O4, InChI=1S/C4H6O4.2Na/c5-3(6)1-2-4(7)8;;/h1-2H2,(H,5,6)(H,7,8);;/q;2*+1/p-2
Compound 2: sodium methanoate, CHNaO2, InChI=1S/CH2O2.Na/c2-1-3;/h1H,(H,2,3);/q;+1/p-1
Compound 3: water, H2O, InChI=1S/H2O/h1H2

System: disodium succinate + water; phases: Liquid
Fixed: Pressure, kPa = 101.3
Property: Speed of sound, m/s (Liquid); method: Sing-around technique in a fixed-path interferometer
Temperature, K	Molality, mol/kg of disodium succinate	Speed of sound, m/s	uncertainty
298.15	0.0188	1500.17	0.98
298.15	0.0239	1501.06	0.98
298.15	0.0336	1502.72	0.98
298.15	0.0373	1503.37	0.98
298.15	0.0452	1504.86	0.98
298.15	0.0489	1505.36	0.99
298.15	0.0546	1506.32	0.99
298.15	0.0593	1507.12	0.99
298.15	0.068	1508.96	0.99
298.15	0.0763	1510.55	0.99
298.15	0.0864	1511.65	0.99
298.15	0.0935	1512.84	0.99
298.15	0.1221	1517.51	0.99
298.15	0.2589	1539.79	1
298.15	0.3292	1550.97	1.01
298.15	0.4019	1562.44	1.01
298.15	0.4364	1567.81	1.02
298.15	0.5252	1581.96	1.02
298.15	0.6535	1601.19	1.03
298.15	0.7422	1615.07	1.04
298.15	0.9099	1639.8	1.05
298.15	1.168	1675.66	1.07
298.15	1.4298	1711.25	1.1
298.15	1.7483	1752.42	1.12
308.15	0.0188	1523.19	0.99
308.15	0.0239	1524.08	0.99
308.15	0.0336	1525.61	0.99
308.15	0.0373	1526.24	0.99
308.15	0.0452	1527.45	0.99
308.15	0.0489	1528.05	0.99
308.15	0.0546	1528.94	0.99
308.15	0.0593	1529.68	0.99
308.15	0.068	1531.7	0.99
308.15	0.0763	1532.43	0.99
308.15	0.0864	1533.94	0.99
308.15	0.0935	1535.12	0.99
308.15	0.1221	1539.46	0.99
308.15	0.2589	1560.34	1.01
308.15	0.3292	1570.83	1.01
308.15	0.4019	1581.56	1.02
308.15	0.4364	1586.6	1.02
308.15	0.5252	1599.55	1.03
308.15	0.6535	1617.79	1.04
308.15	0.7422	1630.47	1.04
308.15	0.9099	1653.28	1.06
308.15	1.168	1687.5	1.08
308.15	1.4298	1720.94	1.1
308.15	1.7483	1758.97	1.12
318.15	0.0188	1539.88	0.99
318.15	0.0239	1540.57	0.99
318.15	0.0336	1542.06	0.99
318.15	0.0373	1542.66	0.99
318.15	0.0452	1543.96	0.99
318.15	0.0489	1544.56	0.99
318.15	0.0546	1545.35	0.99
318.15	0.0593	1546.56	0.99
318.15	0.068	1547.51	0.99
318.15	0.0763	1548.55	0.99
318.15	0.0864	1549.94	0.99
318.15	0.0935	1551.21	1
318.15	0.1221	1555.21	1
318.15	0.2589	1575.12	1.01
318.15	0.3292	1585.21	1.01
318.15	0.4019	1595.83	1.02
318.15	0.4364	1600.65	1.02
318.15	0.5252	1611.98	1.03
318.15	0.6535	1629.25	1.04
318.15	0.7422	1640.99	1.05
318.15	0.9099	1662.74	1.06
318.15	1.168	1694.94	1.08
318.15	1.4298	1726.24	1.1
318.15	1.7483	1762.5	1.13

System: disodium succinate + water; phases: Liquid
Fixed: Pressure, kPa = 101.3
Property: Mass density, kg/m3 (Liquid); method: VIBTUB:UFactor:8
Temperature, K	Molality, mol/kg of disodium succinate	Mass density, kg/m3	uncertainty
298.15	0.0188	999.052	0.344
298.15	0.0239	999.583	0.343
298.15	0.0336	1000.611	0.344
298.15	0.0373	1000.999	0.345
298.15	0.0452	1001.818	0.348
298.15	0.0489	1002.201	0.349
298.15	0.0546	1002.791	0.352
298.15	0.0593	1003.28	0.354
298.15	0.068	1004.182	0.357
298.15	0.0763	1005.049	0.36
298.15	0.0864	1006.09	0.364
298.15	0.0935	1006.823	0.367
298.15	0.1221	1009.741	0.379
298.15	0.2589	1023.441	0.432
298.15	0.3292	1030.316	0.459
298.15	0.4019	1037.296	0.487
298.15	0.4364	1040.568	0.5
298.15	0.5252	1048.893	0.534
298.15	0.6535	1060.587	0.581
298.15	0.7422	1068.47	0.612
298.15	0.9099	1083.028	0.671
298.15	1.168	1104.444	0.759
298.15	1.4298	1125.04	0.843
298.15	1.7483	1148.68	0.94
308.15	0.0188	996.011	0.374
308.15	0.0239	996.544	0.356
308.15	0.0336	997.55	0.347
308.15	0.0373	997.934	0.351
308.15	0.0452	998.747	0.343
308.15	0.0489	999.13	0.346
308.15	0.0546	999.711	0.341
308.15	0.0593	1000.189	0.344
308.15	0.068	1001.084	0.345
308.15	0.0763	1001.939	0.349
308.15	0.0864	1002.963	0.351
308.15	0.0935	1003.687	0.346
308.15	0.1221	1006.557	0.364
308.15	0.2589	1020.074	0.419
308.15	0.3292	1026.847	0.446
308.15	0.4019	1033.746	0.473
308.15	0.4364	1036.978	0.486
308.15	0.5252	1045.201	0.519
308.15	0.6535	1056.741	0.565
308.15	0.7422	1064.553	0.597
308.15	0.9099	1078.936	0.655
308.15	1.168	1100.126	0.741
308.15	1.4298	1120.371	0.824
308.15	1.7483	1143.92	0.921
318.15	0.0188	992.179	0.37
318.15	0.0239	992.703	0.368
318.15	0.0336	993.703	0.365
318.15	0.0373	994.083	0.363
318.15	0.0452	994.887	0.36
318.15	0.0489	995.266	0.358
318.15	0.0546	995.841	0.356
318.15	0.0593	996.315	0.355
318.15	0.068	997.197	0.351
318.15	0.0763	998.046	0.348
318.15	0.0864	999.064	0.344
318.15	0.0935	999.785	0.342
318.15	0.1221	1002.635	0.351
318.15	0.2589	1016.029	0.403
318.15	0.3292	1022.73	0.43
318.15	0.4019	1029.564	0.457
318.15	0.4364	1032.771	0.469
318.15	0.5252	1040.919	0.502
318.15	0.6535	1052.373	0.548
318.15	0.7422	1060.126	0.579
318.15	0.9099	1074.414	0.637
318.15	1.168	1095.451	0.723
318.15	1.4298	1115.738	0.806
318.15	1.7483	1138.952	0.901

System: sodium methanoate + water; phases: Liquid
Fixed: Pressure, kPa = 101.3
Property: Speed of sound, m/s (Liquid); method: Sing-around technique in a fixed-path interferometer
Temperature, K	Molality, mol/kg of sodium methanoate	Speed of sound, m/s	uncertainty
298.15	0.0263	1498.6	0.98
298.15	0.0331	1499.09	0.98
298.15	0.0437	1499.69	0.98
298.15	0.0497	1500.09	0.98
298.15	0.057	1500.58	0.98
298.15	0.0682	1501.23	0.98
298.15	0.0747	1501.62	0.98
298.15	0.0811	1502.06	0.98
298.15	0.0909	1502.65	0.98
298.15	0.0975	1503.04	0.98
298.15	0.1428	1505.88	0.99
298.15	0.2955	1515.09	0.99
298.15	0.4697	1525.23	0.99
298.15	0.6887	1537.74	1
298.15	0.8366	1546.05	1
298.15	0.9653	1553.09	1.01
298.15	1.1394	1562.43	1.01
298.15	1.2332	1567.47	1.01
298.15	1.4958	1581.19	1.02
298.15	2.1876	1615.33	1.04
298.15	2.7834	1642.77	1.06
298.15	3.4585	1671.67	1.08
298.15	4.2011	1701.06	1.1
298.15	4.9659	1729.12	1.12
298.15	6.5612	1779.39	1.17
298.15	7.7367	1811.1	1.19
298.15	8.5511	1830.55	1.21
298.15	10.0471	1862.1	1.24
308.15	0.0263	1521.69	0.99
308.15	0.0331	1522.13	0.99
308.15	0.0437	1522.71	0.99
308.15	0.0497	1523.1	0.99
308.15	0.057	1523.48	0.99
308.15	0.0682	1524.17	0.99
308.15	0.0747	1524.55	0.99
308.15	0.0811	1524.92	0.99
308.15	0.0909	1525.46	0.99
308.15	0.0975	1525.88	0.99
308.15	0.1428	1528.46	0.99
308.15	0.2955	1536.86	0.99
308.15	0.4697	1546.22	1
308.15	0.6887	1557.73	1
308.15	0.8366	1565.3	1.01
308.15	0.9653	1571.77	1.01
308.15	1.1394	1580.37	1.02
308.15	1.2332	1584.96	1.02
308.15	1.4958	1597.52	1.03
308.15	2.1876	1628.82	1.04
308.15	2.7834	1653.9	1.06
308.15	3.4585	1680.37	1.08
308.15	4.2011	1707.21	1.1
308.15	4.9659	1732.73	1.12
308.15	6.5612	1778.71	1.16
308.15	7.7367	1807.59	1.19
308.15	8.5511	1825.29	1.2
308.15	10.0471	1854.07	1.23
318.15	0.0263	1538.33	0.99
318.15	0.0331	1538.8	0.99
318.15	0.0437	1539.28	0.99
318.15	0.0497	1539.6	0.99
318.15	0.057	1539.95	0.99
318.15	0.0682	1540.64	0.99
318.15	0.0747	1540.95	0.99
318.15	0.0811	1541.3	0.99
318.15	0.0909	1541.94	0.99
318.15	0.0975	1542.38	0.99
318.15	0.1428	1544.54	0.99
318.15	0.2955	1552.53	1
318.15	0.4697	1561.2	1
318.15	0.6887	1572.6	1.01
318.15	0.8366	1579.03	1.01
318.15	0.9653	1584.91	1.01
318.15	1.1394	1593.25	1.02
318.15	1.2332	1597.27	1.02
318.15	1.4958	1609.2	1.03
318.15	2.1876	1638.32	1.05
318.15	2.7834	1661.42	1.06
318.15	3.4585	1685.66	1.08
318.15	4.2011	1709.88	1.1
318.15	4.9659	1733.38	1.12
318.15	6.5612	1775.66	1.16
318.15	7.7367	1802.05	1.19
318.15	8.5511	1818.29	1.2
318.15	10.0471	1844.61	1.23

System: sodium methanoate + water; phases: Liquid
Fixed: Pressure, kPa = 101.3
Property: Mass density, kg/m3 (Liquid); method: VIBTUB:UFactor:8
Temperature, K	Molality, mol/kg of sodium methanoate	Mass density, kg/m3	uncertainty
298.15	0.0263	998.164	0.334
298.15	0.0331	998.451	0.333
298.15	0.0437	998.896	0.331
298.15	0.0497	999.147	0.33
298.15	0.057	999.452	0.329
298.15	0.0682	999.921	0.328
298.15	0.0747	1000.198	0.328
298.15	0.0811	1000.463	0.329
298.15	0.0909	1000.875	0.331
298.15	0.0975	1001.153	0.332
298.15	0.1428	1003.035	0.34
298.15	0.2955	1009.333	0.365
298.15	0.4697	1016.336	0.394
298.15	0.6887	1024.987	0.429
298.15	0.8366	1030.689	0.452
298.15	0.9653	1035.608	0.473
298.15	1.1394	1042.153	0.499
298.15	1.2332	1045.633	0.514
298.15	1.4958	1055.235	0.553
298.15	2.1876	1079.463	0.653
298.15	2.7834	1099.17	0.734
298.15	3.4585	1120.322	0.821
298.15	4.2011	1142.288	0.912
298.15	4.9659	1163.546	1
298.15	6.5612	1204.09	1.168
298.15	7.7367	1230.992	1.279
298.15	8.5511	1248.266	1.351
298.15	10.0471	1277.623	1.473
308.15	0.0263	995.129	0.347
308.15	0.0331	995.412	0.346
308.15	0.0437	995.851	0.344
308.15	0.0497	996.099	0.343
308.15	0.057	996.397	0.341
308.15	0.0682	996.863	0.34
308.15	0.0747	997.131	0.338
308.15	0.0811	997.398	0.337
308.15	0.0909	997.799	0.336
308.15	0.0975	998.074	0.335
308.15	0.1428	999.916	0.328
308.15	0.2955	1006.106	0.352
308.15	0.4697	1012.98	0.38
308.15	0.6887	1021.489	0.415
308.15	0.8366	1027.111	0.438
308.15	0.9653	1031.93	0.458
308.15	1.1394	1038.379	0.484
308.15	1.2332	1041.809	0.499
308.15	1.4958	1051.273	0.537
308.15	2.1876	1075.153	0.636
308.15	2.7834	1094.605	0.716
308.15	3.4585	1115.481	0.802
308.15	4.2011	1137.225	0.892
308.15	4.9659	1158.26	0.979
308.15	6.5612	1198.397	1.145
308.15	7.7367	1225.045	1.255
308.15	8.5511	1242.148	1.326
308.15	10.0471	1271.224	1.447
318.15	0.0263	991.308	0.361
318.15	0.0331	991.587	0.36
318.15	0.0437	992.021	0.359
318.15	0.0497	992.265	0.358
318.15	0.057	992.559	0.357
318.15	0.0682	993.016	0.355
318.15	0.0747	993.282	0.354
318.15	0.0811	993.545	0.353
318.15	0.0909	993.945	0.351
318.15	0.0975	994.215	0.35
318.15	0.1428	996.044	0.343
318.15	0.2955	1002.183	0.337
318.15	0.4697	1008.947	0.365
318.15	0.6887	1017.376	0.399
318.15	0.8366	1022.93	0.422
318.15	0.9653	1027.664	0.441
318.15	1.1394	1034.044	0.467
318.15	1.2332	1037.432	0.481
318.15	1.4958	1046.787	0.52
318.15	2.1876	1070.431	0.617
318.15	2.7834	1089.573	0.696
318.15	3.4585	1110.109	0.781
318.15	4.2011	1131.783	0.87
318.15	4.9659	1152.832	0.957
318.15	6.5612	1192.369	1.121
318.15	7.7367	1218.867	1.231
318.15	8.5511	1235.765	1.301
318.15	10.0471	1264.599	1.421
