Measured thermophysical data. Vapor-Liquid Equilibrium for Benzene + 2-Methylpentane and Allyl Alcohol + 1-Propanol
Source: J. Chem. Eng. Data, 2004, 10.1021/je0499519
Compound 1: benzene, C6H6, InChI=1S/C6H6/c1-2-4-6-5-3-1/h1-6H, purity 99.69%
Compound 2: 2-methylpentane, C6H14, InChI=1S/C6H14/c1-4-5-6(2)3/h6H,4-5H2,1-3H3, purity 99.82%
Compound 3: 2-propenol, C3H6O, InChI=1S/C3H6O/c1-2-3-4/h2,4H,1,3H2, purity 99.75%
Compound 4: propan-1-ol, C3H8O, InChI=1S/C3H8O/c1-2-3-4/h4H,2-3H2,1H3, purity 99.9%

System: benzene; phases: Liquid, Gas
Property: Vapor or sublimation pressure, kPa (Liquid); method: EBULLIO:UFactor:4
Temperature, K	Vapor or sublimation pressure, kPa	uncertainty
313.14	24.35	0.385
323.137	36.15	0.422
333.134	52.17	0.472

System: 2-methylpentane; phases: Liquid, Gas
Property: Vapor or sublimation pressure, kPa (Liquid); method: EBULLIO:UFactor:4
Temperature, K	Vapor or sublimation pressure, kPa	uncertainty
313.14	50.65	0.468
323.137	72.2	0.535
333.134	100.4	0.623

System: 2-propenol; phases: Liquid, Gas
Property: Vapor or sublimation pressure, kPa (Liquid); method: EBULLIO:UFactor:4
Temperature, K	Vapor or sublimation pressure, kPa	uncertainty
311.42	6.954	0.037
313.15	7.672	0.334
315.81	8.869	0.037
319.97	11.079	0.038
326.7	15.672	0.039
331.84	20.194	0.041
333.15	21.51	0.377
334.2	22.603	0.042
337.96	26.943	0.043
341.54	31.723	0.045
344.27	35.822	0.047
346.97	40.304	0.049
351.37	48.613	0.052
353.15	52.334	0.054
353.15	52.336	0.473
353.59	53.299	0.054
355.7	58.108	0.056

System: propan-1-ol; phases: Liquid, Gas
Property: Vapor or sublimation pressure, kPa (Liquid); method: EBULLIO:UFactor:4
Temperature, K	Vapor or sublimation pressure, kPa	uncertainty
310.17	5.876	0.036
313.15	6.983	0.036
314.84	7.693	0.037
319.89	10.176	0.037
324.71	13.142	0.038
328.14	15.748	0.039
332.18	19.313	0.041
333.15	20.268	0.041
335.34	22.559	0.042
339.01	26.907	0.043
342.11	31.121	0.045
345.18	35.819	0.046
347.71	40.123	0.048
349.93	44.262	0.05
352.44	49.359	0.051
353.15	50.951	0.468
353.17	50.949	0.052
356.7	59.13	0.055

System: benzene + 2-methylpentane; phases: Liquid, Gas
Property: Vapor or sublimation pressure, kPa (Liquid); method: EBULLIO:UFactor:4
Mole fraction of benzene	Temperature, K	Vapor or sublimation pressure, kPa	uncertainty
0	313.14	50.65	0.468
0	323.137	72.2	0.535
0	333.134	100.4	0.623
0.1124	323.137	70.448	0.53
0.1143	313.14	49.389	0.464
0.1163	333.134	98.167	0.616
0.2298	313.14	47.676	0.459
0.2302	323.137	68.153	0.522
0.2309	333.134	95.014	0.606
0.3127	333.134	92.276	0.598
0.3166	313.14	46.293	0.454
0.3179	323.137	66.175	0.516
0.441	333.134	88.33	0.586
0.4427	323.137	63.203	0.507
0.4461	313.14	44.11	0.447
0.5486	333.134	83.984	0.572
0.5533	323.137	60.112	0.498
0.5558	313.14	41.932	0.441
0.6292	333.134	80.684	0.563
0.6322	323.137	57.605	0.49
0.6331	313.14	40.112	0.435
0.715	323.137	54.417	0.481
0.7152	333.134	76.35	0.55
0.7154	313.14	37.907	0.429
0.782	323.137	51.023	0.471
0.787	313.14	35.318	0.421
0.7916	333.134	72.075	0.538
0.8518	323.137	47.765	0.461
0.8543	313.14	33.025	0.414
0.8546	333.134	67.362	0.525
0.8908	333.134	63.997	0.518
0.8925	323.137	45.216	0.456
0.8941	313.14	31.087	0.41
0.9313	313.14	28.731	0.404
0.9327	323.137	41.952	0.447
0.934	333.134	59.779	0.506
0.9538	333.134	57.408	0.502
0.9565	323.137	39.907	0.444
0.9574	313.14	27.14	0.399
1	313.14	24.35	0.385
1	323.137	36.15	0.422
1	333.134	52.17	0.472

System: benzene + 2-methylpentane; phases: Gas, Liquid
Property: Mole fraction of benzene (Gas); method: CHROM:UFactor:4
Mole fraction of benzene	Temperature, K	Mole fraction of benzene	uncertainty
0	313.14	0	0.0001
0	323.137	0	0.0001
0	333.134	0	0.0001
0.1124	323.137	0.0911	0.0037
0.1143	313.14	0.0867	0.0036
0.1163	333.134	0.0861	0.0036
0.2298	313.14	0.158	0.0065
0.2302	323.137	0.1558	0.0063
0.2309	333.134	0.1578	0.0065
0.3127	333.134	0.2046	0.0083
0.3166	313.14	0.2137	0.0087
0.3179	323.137	0.2054	0.0084
0.441	333.134	0.2703	0.0112
0.4427	323.137	0.2752	0.0114
0.4461	313.14	0.2835	0.0115
0.5486	333.134	0.3398	0.0145
0.5533	323.137	0.3411	0.0145
0.5558	313.14	0.3396	0.0142
0.6292	333.134	0.3929	0.0174
0.6322	323.137	0.3951	0.0175
0.6331	313.14	0.3925	0.0176
0.715	323.137	0.4629	0.022
0.7152	333.134	0.4653	0.0216
0.7154	313.14	0.4627	0.022
0.782	323.137	0.5399	0.025
0.787	313.14	0.5401	0.0242
0.7916	333.134	0.5392	0.0241
0.8518	323.137	0.6233	0.0266
0.8543	313.14	0.6133	0.0276
0.8546	333.134	0.6144	0.0312
0.8908	333.134	0.705	0.042
0.8925	323.137	0.6938	0.0388
0.8941	313.14	0.6913	0.0416
0.9313	313.14	0.7844	0.0505
0.9327	323.137	0.7899	0.0488
0.934	333.134	0.7939	0.0445
0.9538	333.134	0.8539	0.0605
0.9565	323.137	0.8597	0.061
0.9574	313.14	0.8596	0.0612
1	313.14	1	0.0001
1	323.137	1	0.0001
1	333.134	1	0.0001

System: propan-1-ol + 2-propenol; phases: Liquid, Gas
Property: Vapor or sublimation pressure, kPa (Liquid); method: EBULLIO:UFactor:4
Mole fraction of 2-propenol	Temperature, K	Vapor or sublimation pressure, kPa	uncertainty
0	313.15	6.983	0.332
0	333.15	20.268	0.373
0	353.15	50.951	0.468
0.0781	313.15	7.057	0.332
0.0781	353.15	51.133	0.469
0.0785	333.15	20.393	0.373
0.1798	313.15	7.148	0.332
0.18	333.15	20.576	0.374
0.1813	353.15	51.361	0.469
0.2697	313.15	7.211	0.332
0.2697	353.15	51.516	0.47
0.2698	333.15	20.716	0.374
0.3547	313.15	7.292	0.333
0.3563	333.15	20.854	0.375
0.3568	353.15	51.739	0.471
0.4074	353.15	51.845	0.471
0.4271	313.15	7.348	0.333
0.4276	333.15	20.953	0.375
0.4661	353.15	51.953	0.471
0.4833	353.15	51.999	0.472
0.4863	313.15	7.401	0.333
0.4866	333.15	21.052	0.568
0.4982	313.15	7.407	0.333
0.5008	333.15	21.063	0.441
0.5611	353.15	52.088	0.472
0.5798	333.15	21.181	0.376
0.58	313.15	7.47	0.333
0.6604	353.15	52.233	0.472
0.6794	313.15	7.532	0.333
0.6802	333.15	21.276	0.376
0.7447	333.15	21.327	0.376
0.7449	353.15	52.269	0.473
0.745	313.15	7.569	0.333
0.7949	313.15	7.584	0.333
0.795	333.15	21.365	0.377
0.796	353.15	52.296	0.473
0.9043	333.15	21.454	0.377
0.9044	353.15	52.322	0.473
0.9045	313.15	7.632	0.334
1	313.15	7.672	0.334
1	333.15	21.51	0.377
1	353.15	52.336	0.473

System: propan-1-ol + 2-propenol; phases: Gas, Liquid
Property: Mole fraction of 2-propenol (Gas); method: CHROM:UFactor:4
Mole fraction of 2-propenol	Temperature, K	Mole fraction of 2-propenol	uncertainty
0	313.15	0	0.0001
0	333.15	0	0.0001
0	353.15	0	0.0001
0.0781	313.15	0.0882	0.0033
0.0781	353.15	0.0827	0.0031
0.0785	333.15	0.0851	0.0032
0.1798	313.15	0.1988	0.0074
0.18	333.15	0.1943	0.0072
0.1813	353.15	0.1885	0.007
0.2697	313.15	0.2917	0.0109
0.2697	353.15	0.279	0.0104
0.2698	333.15	0.2861	0.0107
0.3547	313.15	0.3802	0.0142
0.3563	333.15	0.373	0.0139
0.3568	353.15	0.3666	0.0137
0.4074	353.15	0.436	0.0162
0.4271	313.15	0.451	0.0168
0.4276	333.15	0.4444	0.0166
0.4661	353.15	0.4896	0.0182
0.4833	353.15	0.512	0.0182
0.4863	313.15	0.509	0.0183
0.4866	333.15	0.5023	0.0185
0.4982	313.15	0.5235	0.0178
0.5008	333.15	0.5164	0.018
0.5611	353.15	0.5847	0.0155
0.5798	333.15	0.594	0.0152
0.58	313.15	0.602	0.0149
0.6604	353.15	0.6849	0.0128
0.6794	313.15	0.697	0.0125
0.6802	333.15	0.6902	0.0127
0.7447	333.15	0.7538	0.0114
0.7449	353.15	0.7483	0.0114
0.745	313.15	0.757	0.0113
0.7949	313.15	0.8072	0.0105
0.795	333.15	0.8019	0.0106
0.796	353.15	0.7951	0.0107
0.9043	333.15	0.9073	0.0098
0.9044	353.15	0.9042	0.0098
0.9045	313.15	0.9095	0.0098
1	313.15	1	0.0001
1	333.15	1	0.0001
1	353.15	1	0.0001
