Measured thermophysical data. Liquid-Liquid Equilibria in Binary Mixtures of Water with Malonitrile, Succinonitrile, and Glutaronitrile
Source: J. Chem. Eng. Data, 2004, 10.1021/je049806v
Compound 1: water, H2O, InChI=1S/H2O/h1H2
Compound 2: propanedinitrile, C3H2N2, InChI=1S/C3H2N2/c4-2-1-3-5/h1H2
Compound 3: butanedinitrile, C4H4N2, InChI=1S/C4H4N2/c5-3-1-2-4-6/h1-2H2
Compound 4: pentanedinitrile, C5H6N2, InChI=1S/C5H6N2/c6-4-2-1-3-5-7/h1-3H2

System: propanedinitrile + water; phases: Liquid mixture 1, Liquid mixture 2
Fixed: Pressure, kPa = 101.3
Property: Liquid-liquid equilibrium temperature, K (Liquid mixture 1); method: OTHER
Mole fraction of propanedinitrile	Liquid-liquid equilibrium temperature, K	uncertainty
0.03	299	1
0.038	303	1
0.044	306	1
0.05	309	1
0.054	312	1
0.062	315	1
0.072	318	1
0.078	320	1
0.085	322	1
0.09	324	1
0.1	326	1
0.114	328	1
0.15	330	1
0.2	331	1
0.3	331	1
0.362	330	1
0.4	328	1
0.46	326	1
0.5	324	1
0.525	322	1
0.55	320	1
0.572	318	1
0.6	315	1
0.62	312	1
0.642	309	1
0.662	306	1
0.68	303	1
0.7	299	1

System: butanedinitrile + water; phases: Liquid mixture 1, Liquid mixture 2
Fixed: Pressure, kPa = 101.3
Property: Liquid-liquid equilibrium temperature, K (Liquid mixture 1); method: OTHER
Mole fraction of butanedinitrile	Liquid-liquid equilibrium temperature, K	uncertainty
0.034	305	1
0.04	308	1
0.044	310	1
0.052	313	1
0.06	316	1
0.064	318	1
0.072	320	1
0.082	323	1
0.089	324	1
0.11	327	1
0.13	328	1
0.184	329	1
0.199	329	1
0.23	328	1
0.253	327	1
0.346	324	1
0.36	323	1
0.41	320	1
0.442	318	1
0.473	316	1
0.514	313	1
0.544	310	1
0.56	308	1
0.579	305	1

System: pentanedinitrile + water; phases: Liquid mixture 1, Liquid mixture 2
Fixed: Pressure, kPa = 101.3
Property: Liquid-liquid equilibrium temperature, K (Liquid mixture 1); method: OTHER
Mole fraction of pentanedinitrile	Liquid-liquid equilibrium temperature, K	uncertainty
0.018	290	1
0.019	293	1
0.019	295	1
0.02	298	1
0.02	308	1
0.021	301	1
0.022	311	1
0.023	303	1
0.026	313	1
0.032	318	1
0.04	323	1
0.044	327	1
0.051	330	1
0.053	332	1
0.06	333	1
0.069	335	1
0.074	337	1
0.083	339	1
0.092	340	1
0.1	341	1
0.12	342	1
0.13	342	1
0.224	341	1
0.262	340	1
0.3	339	1
0.334	337	1
0.36	335	1
0.382	333	1
0.39	332	1
0.405	330	1
0.425	327	1
0.457	323	1
0.494	318	1
0.535	313	1
0.55	311	1
0.57	308	1
0.607	303	1
0.62	301	1
0.645	298	1
0.668	295	1
0.685	293	1
0.707	290	1
