Measured thermophysical data. Solubility of Rofecoxib in the Presence of Mannitol, Poly(vinylpyrrolidone) K30, Urea, Polyethylene Glycol 4000, and Polyethylene Glycol 6000 at (298.15, 303.15, and 308.15) K
Source: J. Chem. Eng. Data, 2005, 10.1021/je049631p
Compound 1: water, H2O, InChI=1S/H2O/h1H2
Compound 2: rofecoxib, C17H14O4S, InChI=1S/C17H14O4S/c1-22(19,20)14-9-7-12(8-10-14)15-11-21-17(18)16(15)13-5-3-2-4-6-13/h2-10H,11H2,1H3
Compound 3: mannitol, C6H14O6, InChI=1S/C6H14O6/c7-1-3(9)5(11)6(12)4(10)2-8/h3-12H,1-2H2/t3-,4-,5-,6-/m1/s1
Compound 4: urea, CH4N2O, InChI=1S/CH4N2O/c2-1(3)4/h(H4,2,3,4)

System: water + rofecoxib; phases: Liquid, Crystal
Fixed: Pressure, kPa = 101.3
Property: Mass concentration, kg/m3 of rofecoxib (Liquid); method: Chromatography
Temperature, K	Mass concentration, kg/m3 of rofecoxib	uncertainty
298.15	0.0082	0.0001
303.15	0.0095	0.0001
308.15	0.0113	0.0001

System: mannitol + water + rofecoxib; phases: Liquid, Crystal
Fixed: Pressure, kPa = 101.3
Property: Mass concentration, kg/m3 of rofecoxib (Liquid); method: Chromatography
Temperature, K	Solvent: Mass fraction of mannitol	Mass concentration, kg/m3 of rofecoxib	uncertainty
298.15	0	0.0082	0.0001
298.15	0.01	0.0137	0.0001
298.15	0.02	0.014	0.0001
298.15	0.05	0.0142	0.0001
298.15	0.1	0.0143	0.0001
303.15	0	0.0095	0.0001
303.15	0.01	0.0143	0.0001
303.15	0.02	0.0144	0.0001
303.15	0.05	0.0145	0.0001
303.15	0.1	0.0147	0.0001
308.15	0	0.0113	0.0001
308.15	0.01	0.0145	0.0001
308.15	0.02	0.0146	0.0001
308.15	0.05	0.0147	0.0001
308.15	0.1	0.0148	0.0001

System: urea + water + rofecoxib; phases: Liquid, Crystal
Fixed: Pressure, kPa = 101.3
Property: Mass concentration, kg/m3 of rofecoxib (Liquid); method: Chromatography
Temperature, K	Solvent: Mass fraction of urea	Mass concentration, kg/m3 of rofecoxib	uncertainty
298.15	0	0.0082	0.0001
298.15	0.01	0.0192	0.0001
298.15	0.02	0.0387	0.0001
298.15	0.05	0.0615	0.0001
298.15	0.1	0.0956	0.0001
303.15	0	0.0095	0.0001
303.15	0.01	0.0234	0.0001
303.15	0.02	0.0456	0.0001
303.15	0.05	0.0806	0.0001
303.15	0.1	0.1202	0.0001
308.15	0	0.0113	0.0001
308.15	0.01	0.0286	0.0001
308.15	0.02	0.0586	0.0001
308.15	0.05	0.1157	0.0001
308.15	0.1	0.1558	0.0001
