Measured thermophysical data. Vapor-Liquid Equilibria of the Binary n-Butane (HC-600) + Difluoromethane (HFC-32), + Pentafluoroethane (HFC-125), + 1,1,1,2-Tetrafluoroethane (HFC-134a) Mixture Systems
Source: J. Chem. Eng. Data, 2005, 10.1021/je049817o
Compound 1: difluoromethane, CH2F2, InChI=1S/CH2F2/c2-1-3/h1H2, purity 99.8%
Compound 2: butane, C4H10, InChI=1S/C4H10/c1-3-4-2/h3-4H2,1-2H3, purity 99.5%
Compound 3: pentafluoroethane, C2HF5, InChI=1S/C2HF5/c3-1(4)2(5,6)7/h1H, purity 99.8%
Compound 4: 1,1,1,2-tetrafluoroethane, C2H2F4, InChI=1S/C2H2F4/c3-1-2(4,5)6/h1H2, purity 99.8%

System: difluoromethane; phases: Liquid, Gas
Property: Vapor or sublimation pressure, kPa (Liquid); method: EBULLIO:UFactor:8
Temperature, K	Vapor or sublimation pressure, kPa	uncertainty
313.15	2476	77
323.15	3137	97
333.15	3933	122

System: butane; phases: Liquid, Gas
Property: Vapor or sublimation pressure, kPa (Liquid); method: EBULLIO:UFactor:8
Temperature, K	Vapor or sublimation pressure, kPa	uncertainty
313.15	378	12
323.15	496	15
333.15	638	20

System: pentafluoroethane; phases: Liquid, Gas
Property: Vapor or sublimation pressure, kPa (Liquid); method: EBULLIO:UFactor:16
Temperature, K	Vapor or sublimation pressure, kPa	uncertainty
313.15	1988	123
323.15	2505	155
333.15	3157	196

System: 1,1,1,2-tetrafluoroethane; phases: Liquid, Gas
Property: Vapor or sublimation pressure, kPa (Liquid); method: EBULLIO:UFactor:8
Temperature, K	Vapor or sublimation pressure, kPa	uncertainty
313.15	1013	32
323.15	1308	41
333.15	1671	52

System: difluoromethane + butane; phases: Liquid, Gas
Property: Vapor or sublimation pressure, kPa (Liquid); method: EBULLIO:UFactor:8
Mole fraction of difluoromethane	Temperature, K	Vapor or sublimation pressure, kPa	uncertainty
0	313.15	378	12
0	323.15	496	15
0	333.15	638	20
0.007	333.15	699	28
0.01	313.15	457	20
0.016	323.15	624	25
0.02	313.15	524	21
0.027	323.15	715	27
0.027	333.15	868	32
0.041	313.15	668	24
0.041	323.15	813	29
0.059	333.15	1130	38
0.083	313.15	922	30
0.112	333.15	1515	48
0.12	323.15	1255	40
0.169	313.15	1256	40
0.181	333.15	1869	59
0.188	323.15	1606	51
0.239	313.15	1534	48
0.265	333.15	2276	71
0.306	323.15	2069	64
0.375	333.15	2703	84
0.391	313.15	1904	59
0.47	333.15	2992	93
0.502	323.15	2537	79
0.533	313.15	2102	65
0.606	333.15	3317	103
0.646	313.15	2233	69
0.694	323.15	2828	88
0.732	333.15	3584	111
0.763	313.15	2338	73
0.778	333.15	3669	114
0.831	333.15	3762	117
0.844	323.15	3026	94
0.849	313.15	2405	75
0.863	323.15	3044	94
0.865	333.15	3809	118
0.885	313.15	2434	75
0.891	323.15	3068	95
0.897	323.15	3079	96
0.922	313.15	2469	77
0.925	313.15	2459	77
0.927	333.15	3893	121
0.928	323.15	3115	97
0.94	323.15	3127	97
0.95	333.15	3911	121
0.951	313.15	2473	77
0.965	313.15	2479	77
0.965	323.15	3138	97
0.965	333.15	3923	122
1	313.15	2476	77
1	323.15	3137	97
1	333.15	3933	122

System: difluoromethane + butane; phases: Gas, Liquid
Property: Mole fraction of difluoromethane (Gas); method: CHROM:UFactor:4
Mole fraction of difluoromethane	Temperature, K	Mole fraction of difluoromethane	uncertainty
0	313.15	0	
0	323.15	0	
0	333.15	0	
0.007	333.15	0.093	0.018
0.01	313.15	0.137	0.025
0.016	323.15	0.214	0.024
0.02	313.15	0.241	0.019
0.027	323.15	0.301	0.017
0.027	333.15	0.249	0.015
0.041	313.15	0.401	0.018
0.041	323.15	0.372	0.017
0.059	333.15	0.404	0.016
0.083	313.15	0.546	0.017
0.112	333.15	0.541	0.017
0.12	323.15	0.572	0.016
0.169	313.15	0.664	0.013
0.181	333.15	0.614	0.015
0.188	323.15	0.676	0.012
0.239	313.15	0.73	0.01
0.265	333.15	0.699	0.011
0.306	323.15	0.753	0.009
0.375	333.15	0.751	0.009
0.391	313.15	0.793	0.008
0.47	333.15	0.782	0.008
0.502	323.15	0.812	0.007
0.533	313.15	0.823	0.007
0.606	333.15	0.815	0.007
0.646	313.15	0.847	0.006
0.694	323.15	0.854	0.006
0.732	333.15	0.851	0.006
0.763	313.15	0.873	0.005
0.778	333.15	0.868	0.005
0.831	333.15	0.888	0.004
0.844	323.15	0.901	0.004
0.849	313.15	0.901	0.004
0.863	323.15	0.904	0.004
0.865	333.15	0.904	0.004
0.885	313.15	0.915	0.004
0.891	323.15	0.917	0.004
0.897	323.15	0.922	0.004
0.922	313.15	0.938	0.003
0.925	313.15	0.937	0.003
0.927	333.15	0.939	0.003
0.928	323.15	0.939	0.003
0.94	323.15	0.948	0.003
0.95	333.15	0.955	0.003
0.951	313.15	0.954	0.003
0.965	313.15	0.966	0.003
0.965	323.15	0.966	0.003
0.965	333.15	0.967	0.003
1	313.15	1	
1	323.15	1	
1	333.15	1	

System: butane + pentafluoroethane; phases: Liquid, Gas
Property: Vapor or sublimation pressure, kPa (Liquid); method: EBULLIO:UFactor:16
Mole fraction of pentafluoroethane	Temperature, K	Vapor or sublimation pressure, kPa	uncertainty
0	313.15	378	23
0	323.15	496	31
0	333.15	638	40
0.016	323.15	586	85
0.017	313.15	465	84
0.021	333.15	766	127
0.035	323.15	698	110
0.047	313.15	605	91
0.049	333.15	928	124
0.079	323.15	900	98
0.091	333.15	1152	116
0.094	313.15	788	83
0.152	323.15	1170	97
0.154	333.15	1411	115
0.16	313.15	990	80
0.222	333.15	1644	121
0.24	323.15	1417	99
0.253	313.15	1197	84
0.314	333.15	1930	131
0.361	313.15	1396	91
0.392	323.15	1727	115
0.426	333.15	2193	142
0.515	323.15	2005	128
0.518	313.15	1585	101
0.591	333.15	2513	160
0.669	323.15	2163	136
0.676	313.15	1742	110
0.786	333.15	2860	181
0.837	333.15	2943	186
0.866	323.15	2409	151
0.867	313.15	1913	120
0.87	333.15	3009	189
0.924	333.15	3082	192
0.928	313.15	1959	122
0.928	323.15	2469	154
1	313.15	1988	123
1	323.15	2505	155
1	333.15	3157	196

System: butane + pentafluoroethane; phases: Gas, Liquid
Property: Mole fraction of pentafluoroethane (Gas); method: CHROM:UFactor:8
Mole fraction of pentafluoroethane	Temperature, K	Mole fraction of pentafluoroethane	uncertainty
0	313.15	0	
0	323.15	0	
0	333.15	0	
0.016	323.15	0.138	0.018
0.017	313.15	0.177	0.02
0.021	333.15	0.148	0.016
0.035	323.15	0.263	0.021
0.047	313.15	0.355	0.028
0.049	333.15	0.283	0.022
0.079	323.15	0.418	0.031
0.091	333.15	0.409	0.031
0.094	313.15	0.498	0.037
0.152	323.15	0.547	0.034
0.154	333.15	0.503	0.037
0.16	313.15	0.599	0.03
0.222	333.15	0.578	0.031
0.24	323.15	0.627	0.028
0.253	313.15	0.672	0.024
0.314	333.15	0.645	0.026
0.361	313.15	0.729	0.02
0.392	323.15	0.703	0.022
0.426	333.15	0.696	0.023
0.515	323.15	0.768	0.017
0.518	313.15	0.778	0.017
0.591	333.15	0.757	0.018
0.669	323.15	0.812	0.014
0.676	313.15	0.826	0.013
0.786	333.15	0.844	0.012
0.837	333.15	0.874	0.009
0.866	323.15	0.904	0.007
0.867	313.15	0.905	0.007
0.87	333.15	0.904	0.007
0.924	333.15	0.939	0.005
0.928	313.15	0.943	0.005
0.928	323.15	0.941	0.005
1	313.15	1	
1	323.15	1	
1	333.15	1	

System: butane + 1,1,1,2-tetrafluoroethane; phases: Liquid, Gas
Property: Azeotropic composition: mole fraction of 1,1,1,2-tetrafluoroethane (Liquid); method: By X=Y
Temperature, K	Azeotropic composition: mole fraction of 1,1,1,2-tetrafluoroethane	uncertainty
313.15	0.83	0.003
323.15	0.839	0.003
333.15	0.847	0.003

System: butane + 1,1,1,2-tetrafluoroethane; phases: Liquid, Gas
Property: Azeotropic composition: mole fraction of 1,1,1,2-tetrafluoroethane (Liquid); method: By X=Y
Pressure, kPa	Azeotropic composition: mole fraction of 1,1,1,2-tetrafluoroethane	uncertainty
1071	0.83	0.003
1381	0.839	0.003
1755	0.847	0.003

System: butane + 1,1,1,2-tetrafluoroethane; phases: Liquid, Gas
Property: Vapor or sublimation pressure, kPa (Liquid); method: EBULLIO:UFactor:8
Mole fraction of 1,1,1,2-tetrafluoroethane	Temperature, K	Vapor or sublimation pressure, kPa	uncertainty
0	313.15	378	12
0	323.15	496	16
0.017	323.15	560	19
0.018	333.15	714	24
0.026	313.15	459	16
0.034	323.15	617	20
0.04	333.15	798	26
0.05	313.15	527	17
0.07	313.15	566	18
0.071	323.15	732	24
0.075	333.15	925	30
0.115	313.15	673	22
0.117	323.15	848	27
0.128	333.15	1072	34
0.16	313.15	746	24
0.179	323.15	966	30
0.259	333.15	1332	42
0.267	323.15	1091	34
0.315	313.15	907	28
0.384	333.15	1496	47
0.479	323.15	1264	40
0.514	323.15	1283	40
0.532	333.15	1621	51
0.619	313.15	1043	33
0.647	333.15	1689	53
0.651	323.15	1341	42
0.701	313.15	1057	33
0.764	313.15	1071	34
0.779	333.15	1735	54
0.791	333.15	1740	54
0.792	323.15	1375	43
0.833	313.15	1072	34
0.849	323.15	1376	43
0.849	333.15	1745	54
0.884	323.15	1374	43
0.885	313.15	1068	33
0.894	333.15	1740	54
0.918	323.15	1363	43
0.918	323.15	1363	43
0.938	333.15	1724	54
0.956	313.15	1046	33
0.958	333.15	1711	53
0.971	313.15	1036	32
0.976	323.15	1327	41
1	313.15	1013	32
1	323.15	1308	41
1	333.15	1671	52

System: butane + 1,1,1,2-tetrafluoroethane; phases: Gas, Liquid
Property: Mole fraction of 1,1,1,2-tetrafluoroethane (Gas); method: CHROM:UFactor:4
Mole fraction of 1,1,1,2-tetrafluoroethane	Temperature, K	Mole fraction of 1,1,1,2-tetrafluoroethane	uncertainty
0	313.15	0	
0	323.15	0	
0.017	323.15	0.104	0.011
0.018	333.15	0.104	0.009
0.026	313.15	0.167	0.012
0.034	323.15	0.177	0.01
0.04	333.15	0.193	0.01
0.05	313.15	0.268	0.012
0.07	313.15	0.315	0.013
0.071	323.15	0.299	0.012
0.075	333.15	0.302	0.012
0.115	313.15	0.422	0.016
0.117	323.15	0.393	0.015
0.128	333.15	0.402	0.015
0.16	313.15	0.496	0.019
0.179	323.15	0.467	0.018
0.259	333.15	0.54	0.017
0.267	323.15	0.544	0.017
0.315	313.15	0.613	0.014
0.384	333.15	0.615	0.014
0.479	323.15	0.664	0.013
0.514	323.15	0.677	0.012
0.532	333.15	0.68	0.012
0.619	313.15	0.728	0.01
0.647	333.15	0.733	0.01
0.651	323.15	0.733	0.01
0.701	313.15	0.754	0.009
0.764	313.15	0.79	0.008
0.779	333.15	0.8	0.008
0.791	333.15	0.808	0.007
0.792	323.15	0.795	0.008
0.833	313.15	0.827	0.007
0.849	323.15	0.838	0.006
0.849	333.15	0.846	0.006
0.884	323.15	0.87	0.005
0.885	313.15	0.865	0.005
0.894	333.15	0.882	0.005
0.918	323.15	0.899	0.005
0.918	323.15	0.899	0.005
0.938	333.15	0.922	0.004
0.956	313.15	0.936	0.004
0.958	333.15	0.946	0.004
0.971	313.15	0.956	0.004
0.976	323.15	0.965	0.003
1	313.15	1	
1	323.15	1	
1	333.15	1	
