Measured thermophysical data. Concentration Dependence of Surface Tension for Very Dilute Aqueous Solutions of Organic Non-Electrolytes
Source: J. Chem. Eng. Data, 2004, 10.1021/je049955d
Compound 1: butan-1-ol, C4H10O, InChI=1S/C4H10O/c1-2-3-4-5/h5H,2-4H2,1H3
Compound 2: butan-2-ol, C4H10O, InChI=1S/C4H10O/c1-3-4(2)5/h4-5H,3H2,1-2H3
Compound 3: cyclopentanol, C5H10O, InChI=1S/C5H10O/c6-5-3-1-2-4-5/h5-6H,1-4H2
Compound 4: 1,2-ethanediol, C2H6O2, InChI=1S/C2H6O2/c3-1-2-4/h3-4H,1-2H2
Compound 5: water, H2O, InChI=1S/H2O/h1H2
Compound 6: butanone, C4H8O, InChI=1S/C4H8O/c1-3-4(2)5/h3H2,1-2H3
Compound 7: cyclopentanone, C5H8O, InChI=1S/C5H8O/c6-5-3-1-2-4-5/h1-4H2
Compound 8: 2,4-pentanedione, C5H8O2, InChI=1S/C5H8O2/c1-4(6)3-5(2)7/h3H2,1-2H3
Compound 9: ethyl acetate, C4H8O2, InChI=1S/C4H8O2/c1-3-6-4(2)5/h3H2,1-2H3
Compound 10: methyl 3-oxobutanoate, C5H8O3, InChI=1S/C5H8O3/c1-4(6)3-5(7)8-2/h3H2,1-2H3
Compound 11: 2-ethoxyethyl ethanoate, C6H12O3, InChI=1S/C6H12O3/c1-3-8-4-5-9-6(2)7/h3-5H2,1-2H3
Compound 12: propanenitrile, C3H5N, InChI=1S/C3H5N/c1-2-3-4/h2H2,1H3

System: butan-1-ol; phases: Liquid, Air at 1 atmosphere
Property: Surface tension liquid-gas, N/m (Liquid); method: Ring tensiometer
Temperature, K	Surface tension liquid-gas, N/m	uncertainty
298.15	0.0243	0.0004

System: butan-2-ol; phases: Liquid, Air at 1 atmosphere
Property: Surface tension liquid-gas, N/m (Liquid); method: Ring tensiometer
Temperature, K	Surface tension liquid-gas, N/m	uncertainty
298.15	0.0233	0.0004

System: cyclopentanol; phases: Liquid, Air at 1 atmosphere
Property: Surface tension liquid-gas, N/m (Liquid); method: Ring tensiometer
Temperature, K	Surface tension liquid-gas, N/m	uncertainty
298.15	0.0328	0.0005

System: 1,2-ethanediol; phases: Liquid, Air at 1 atmosphere
Property: Surface tension liquid-gas, N/m (Liquid); method: Ring tensiometer
Temperature, K	Surface tension liquid-gas, N/m	uncertainty
298.15	0.0478	0.0006

System: water; phases: Liquid, Air at 1 atmosphere
Property: Surface tension liquid-gas, N/m (Liquid); method: Ring tensiometer
Temperature, K	Surface tension liquid-gas, N/m	uncertainty
298.15	0.07195	0.00202

System: butanone; phases: Liquid, Air at 1 atmosphere
Property: Surface tension liquid-gas, N/m (Liquid); method: Ring tensiometer
Temperature, K	Surface tension liquid-gas, N/m	uncertainty
298.15	0.0242	0.0004

System: cyclopentanone; phases: Liquid, Air at 1 atmosphere
Property: Surface tension liquid-gas, N/m (Liquid); method: Ring tensiometer
Temperature, K	Surface tension liquid-gas, N/m	uncertainty
298.15	0.033	0.0005

System: 2,4-pentanedione; phases: Liquid, Air at 1 atmosphere
Property: Surface tension liquid-gas, N/m (Liquid); method: Ring tensiometer
Temperature, K	Surface tension liquid-gas, N/m	uncertainty
298.15	0.0309	0.0005

System: ethyl acetate; phases: Liquid, Air at 1 atmosphere
Property: Surface tension liquid-gas, N/m (Liquid); method: Ring tensiometer
Temperature, K	Surface tension liquid-gas, N/m	uncertainty
298.15	0.0237	0.0004

System: methyl 3-oxobutanoate; phases: Liquid, Air at 1 atmosphere
Property: Surface tension liquid-gas, N/m (Liquid); method: Ring tensiometer
Temperature, K	Surface tension liquid-gas, N/m	uncertainty
298.15	0.0357	0.0005

System: 2-ethoxyethyl ethanoate; phases: Liquid, Air at 1 atmosphere
Property: Surface tension liquid-gas, N/m (Liquid); method: Ring tensiometer
Temperature, K	Surface tension liquid-gas, N/m	uncertainty
298.15	0.0287	0.0005

System: propanenitrile; phases: Liquid, Air at 1 atmosphere
Property: Surface tension liquid-gas, N/m (Liquid); method: Ring tensiometer
Temperature, K	Surface tension liquid-gas, N/m	uncertainty
298.15	0.0269	0.0004

System: butan-1-ol + water; phases: Liquid, Air at 1 atmosphere
Fixed: Temperature, K = 298.15
Property: Surface tension liquid-gas, N/m (Liquid); method: Ring tensiometer
Mole fraction of butan-1-ol	Surface tension liquid-gas, N/m	uncertainty
0.000138	0.0694	0.0019
0.000235	0.0688	0.0019
0.000292	0.0681	0.0019
0.000392	0.0669	0.0019
0.000596	0.0644	0.0018
0.000778	0.0625	0.0018
0.001004	0.0604	0.0017
0.001457	0.0565	0.0016
0.001997	0.0539	0.0015
0.002872	0.0492	0.0014
0.003931	0.0458	0.0013
0.006003	0.0407	0.0012
0.006847	0.0383	0.0011
0.008156	0.0364	0.001
0.010125	0.0337	0.001
0.012038	0.0311	0.0009
0.012883	0.0299	0.0009
0.01411	0.0291	0.0008

System: butan-2-ol + water; phases: Liquid, Air at 1 atmosphere
Fixed: Temperature, K = 298.15
Property: Surface tension liquid-gas, N/m (Liquid); method: Ring tensiometer
Mole fraction of butan-2-ol	Surface tension liquid-gas, N/m	uncertainty
0.000154	0.0702	0.002
0.000211	0.0697	0.002
0.000443	0.0673	0.0019
0.000718	0.0648	0.0018
0.001	0.0626	0.0018
0.001994	0.0575	0.0016
0.003914	0.0509	0.0014
0.005882	0.0464	0.0013
0.00799	0.0431	0.0012
0.009938	0.0406	0.0012
0.011986	0.0385	0.0011
0.01394	0.0368	0.0011

System: cyclopentanol + water; phases: Liquid, Air at 1 atmosphere
Fixed: Temperature, K = 298.15
Property: Surface tension liquid-gas, N/m (Liquid); method: Ring tensiometer
Mole fraction of cyclopentanol	Surface tension liquid-gas, N/m	uncertainty
0.000201	0.0708	0.002
0.000369	0.0696	0.002
0.000525	0.0685	0.0019
0.000574	0.068	0.002
0.000713	0.0673	0.0019
0.000986	0.0651	0.0018
0.001816	0.0602	0.0017
0.002519	0.0575	0.0016
0.002728	0.0563	0.0016
0.003934	0.0526	0.0015
0.005255	0.0496	0.0014
0.005987	0.0483	0.0014
0.008154	0.0448	0.0013
0.010253	0.0424	0.0012
0.011894	0.0406	0.0011
0.014477	0.0384	0.0011

System: 1,2-ethanediol + water; phases: Liquid, Air at 1 atmosphere
Fixed: Temperature, K = 298.15
Property: Surface tension liquid-gas, N/m (Liquid); method: Ring tensiometer
Mole fraction of 1,2-ethanediol	Surface tension liquid-gas, N/m	uncertainty
0.008251	0.0708	0.002
0.010123	0.0707	0.002
0.01185	0.0704	0.002
0.014233	0.0702	0.0019
0.015846	0.0697	0.0019
0.018225	0.0696	0.0019
0.020003	0.0694	0.0019
0.021976	0.0692	0.0019
0.024884	0.0688	0.0019
0.029922	0.0682	0.0019
0.035421	0.0677	0.0019
0.040102	0.0673	0.0018
0.045192	0.0666	0.0018
0.100976	0.0625	0.0016
0.199955	0.0579	0.0014

System: butanone + water; phases: Liquid, Air at 1 atmosphere
Fixed: Temperature, K = 298.15
Property: Surface tension liquid-gas, N/m (Liquid); method: Ring tensiometer
Mole fraction of butanone	Surface tension liquid-gas, N/m	uncertainty
5.71e-05	0.0718	0.002
7.54e-05	0.0717	0.002
8.96e-05	0.0715	0.002
0.000112	0.0713	0.002
0.000296	0.07	0.002
0.000522	0.0689	0.0019
0.000741	0.0678	0.0019
0.000855	0.0673	0.0019
0.000997	0.0668	0.0019
0.002056	0.0631	0.0018
0.00405	0.0586	0.0016
0.006112	0.0551	0.0015
0.008019	0.0527	0.0015
0.010219	0.0504	0.0014
0.012048	0.0488	0.0014
0.014135	0.0474	0.0013

System: cyclopentanone + water; phases: Liquid, Air at 1 atmosphere
Fixed: Temperature, K = 298.15
Property: Surface tension liquid-gas, N/m (Liquid); method: Ring tensiometer
Mole fraction of cyclopentanone	Surface tension liquid-gas, N/m	uncertainty
0.000186	0.0711	0.002
0.000367	0.0703	0.002
0.000559	0.0696	0.002
0.000768	0.0689	0.0019
0.000966	0.0683	0.0019
0.001362	0.067	0.0019
0.002445	0.0636	0.0018
0.003863	0.0611	0.0017
0.006022	0.0578	0.0016
0.007908	0.0555	0.0016
0.009964	0.0537	0.0015
0.01215	0.052	0.0015
0.014276	0.0503	0.0014

System: 2,4-pentanedione + water; phases: Liquid, Air at 1 atmosphere
Fixed: Temperature, K = 298.15
Property: Surface tension liquid-gas, N/m (Liquid); method: Ring tensiometer
Mole fraction of 2,4-pentanedione	Surface tension liquid-gas, N/m	uncertainty
0.000205	0.0707	0.002
0.000412	0.0701	0.002
0.00049	0.0699	0.002
0.000578	0.0695	0.0019
0.000783	0.0691	0.0019
0.001016	0.0683	0.0019
0.001976	0.0655	0.0018
0.004045	0.0614	0.0017
0.004973	0.0598	0.0017
0.006054	0.0583	0.0016
0.008089	0.0556	0.0016
0.0103	0.0533	0.0015

System: ethyl acetate + water; phases: Liquid, Air at 1 atmosphere
Fixed: Temperature, K = 298.15
Property: Surface tension liquid-gas, N/m (Liquid); method: Ring tensiometer
Mole fraction of ethyl acetate	Surface tension liquid-gas, N/m	uncertainty
0.000189	0.0696	0.002
0.000351	0.0677	0.0019
0.000617	0.0652	0.0018
0.000819	0.0637	0.0018
0.000997	0.0623	0.0018
0.002074	0.0573	0.0016
0.003938	0.0512	0.0014
0.006035	0.0467	0.0013
0.008035	0.0434	0.0012
0.009946	0.0405	0.0011
0.01195	0.0378	0.0011
0.014011	0.0352	0.001

System: methyl 3-oxobutanoate + water; phases: Liquid, Air at 1 atmosphere
Fixed: Temperature, K = 298.15
Property: Surface tension liquid-gas, N/m (Liquid); method: Ring tensiometer
Mole fraction of methyl 3-oxobutanoate	Surface tension liquid-gas, N/m	uncertainty
0.000186	0.0711	0.002
0.000411	0.0704	0.002
0.000609	0.0699	0.002
0.000793	0.0693	0.0019
0.001003	0.0686	0.0019
0.001822	0.0666	0.0019
0.003971	0.0624	0.0018
0.005842	0.0602	0.0017
0.008086	0.0578	0.0016
0.00996	0.0561	0.0016
0.012061	0.0545	0.0015
0.01404	0.0532	0.0015

System: 2-ethoxyethyl ethanoate + water; phases: Liquid, Air at 1 atmosphere
Fixed: Temperature, K = 298.15
Property: Surface tension liquid-gas, N/m (Liquid); method: Ring tensiometer
Mole fraction of 2-ethoxyethyl ethanoate	Surface tension liquid-gas, N/m	uncertainty
0.000101	0.07	0.002
0.000178	0.0689	0.0019
0.00019	0.0684	0.0019
0.000221	0.0679	0.0019
0.000407	0.066	0.0019
0.00046	0.0656	0.0018
0.000582	0.0645	0.0018
0.000777	0.0635	0.0018
0.000958	0.0624	0.0018
0.001352	0.0603	0.0017
0.003046	0.0552	0.0016
0.005086	0.0512	0.0014
0.007004	0.0486	0.0014
0.010908	0.0447	0.0013
0.013003	0.0432	0.0012
0.014967	0.0414	0.0012

System: propanenitrile + water; phases: Liquid, Air at 1 atmosphere
Fixed: Temperature, K = 298.15
Property: Surface tension liquid-gas, N/m (Liquid); method: Ring tensiometer
Mole fraction of propanenitrile	Surface tension liquid-gas, N/m	uncertainty
0.000183	0.0716	0.002
0.000368	0.071	0.002
0.000563	0.0703	0.002
0.000784	0.0695	0.0019
0.000963	0.0692	0.0019
0.001988	0.0666	0.0019
0.003895	0.0629	0.0018
0.005968	0.0595	0.0017
0.008178	0.0566	0.0016
0.010153	0.0542	0.0015
0.012002	0.0524	0.0015
0.014338	0.0499	0.0014
