Measured thermophysical data. Solubility of Propyl p-hydroxybenzoate in Supercritical Carbon Dioxide with and without Cosolvent
Source: J. Chem. Eng. Data, 2005, 10.1021/je049752p
Compound 1: propyl 4-hydroxybenzoate, C10H12O3, InChI=1S/C10H12O3/c1-2-7-13-10(12)8-3-5-9(11)6-4-8/h3-6,11H,2,7H2,1H3, purity 99%
Compound 2: cyclohexane, C6H12, InChI=1S/C6H12/c1-2-4-6-5-3-1/h1-6H2, purity 99.5%
Compound 3: acetone, C3H6O, InChI=1S/C3H6O/c1-3(2)4/h1-2H3, purity 99.5%
Compound 4: carbon dioxide, CO2, InChI=1S/CO2/c2-1-3

System: propyl 4-hydroxybenzoate + carbon dioxide; phases: Fluid (supercritical or subcritical phases), Crystal
Property: Mole fraction of propyl 4-hydroxybenzoate (Fluid (supercritical or subcritical phases)); method: OTHER
Temperature, K	Pressure, kPa	Mole fraction of propyl 4-hydroxybenzoate	uncertainty
308.15	8000	3.461e-05	1.039e-05
308.15	11000	6.595e-05	1.979e-05
308.15	13000	7.592e-05	2.279e-05
308.15	17000	0.00010059	3.019e-05
308.15	20000	0.00019504	5.854e-05
308.15	23000	0.0002699	8.1e-05
318.15	8000	2.335e-05	7.01e-06
318.15	11000	6.242e-05	1.873e-05
318.15	13000	0.0001332	3.998e-05
318.15	17000	0.00026708	8.016e-05
318.15	20000	0.00033589	0.00010081
318.15	23000	0.00040853	0.00012261
328.15	8000	3.78e-06	1.13e-06
328.15	11000	7.004e-05	2.102e-05
328.15	13000	0.00016064	4.821e-05
328.15	17000	0.0004437	0.00013317
328.15	20000	0.00053255	0.00015983
328.15	23000	0.00061751	0.00018533

System: propyl 4-hydroxybenzoate + cyclohexane + carbon dioxide; phases: Fluid (supercritical or subcritical phases), Crystal
Fixed: Temperature, K = 308.15
Fixed: Solvent: Mole fraction of cyclohexane = 0.035
Property: Mole fraction of propyl 4-hydroxybenzoate (Fluid (supercritical or subcritical phases)); method: flow-type phase equilibrium apparatus
Pressure, kPa	Mole fraction of propyl 4-hydroxybenzoate	uncertainty
8000	4.405e-05	1.322e-05
11000	0.00014983	4.495e-05
13000	0.00016149	4.845e-05
17000	0.00019176	5.753e-05
20000	0.00024504	7.352e-05
23000	0.00034228	0.00010269

System: acetone + propyl 4-hydroxybenzoate + carbon dioxide; phases: Fluid (supercritical or subcritical phases), Crystal
Fixed: Temperature, K = 308.15
Fixed: Solvent: Mole fraction of acetone = 0.035
Property: Mole fraction of propyl 4-hydroxybenzoate (Fluid (supercritical or subcritical phases)); method: flow-type phase equilibrium apparatus
Pressure, kPa	Mole fraction of propyl 4-hydroxybenzoate	uncertainty
8000	4.472e-05	1.342e-05
11000	0.00040538	0.00012162
13000	0.00072101	0.00021632
17000	0.00106505	0.00031954
20000	0.00131172	0.00039355
23000	0.00141332	0.00042403
