Measured thermophysical data. Solubility of DL-p-hydroxyphenylglycine Sulfate in Binary Acetone + Water Solvent Mixtures
Source: J. Chem. Eng. Data, 2004, 10.1021/je049908l
Compound 1: acetone, C3H6O, InChI=1S/C3H6O/c1-3(2)4/h1-2H3
Compound 2: water, H2O, InChI=1S/H2O/h1H2
Compound 3: DL-p-hydroxyphenylglycine sulfate, C8H11NO7S, InChI=1S/C8H9NO3.H2O4S/c9-7(8(11)12)5-1-3-6(10)4-2-5;1-5(2,3)4/h1-4,7,10H,9H2,(H,11,12);(H2,1,2,3,4), purity 99.8%

System: DL-p-hydroxyphenylglycine sulfate; phases: Crystal, Liquid, Air at 1 atmosphere
Property: Molar enthalpy of transition or fusion, kJ/mol (Crystal); method: DSC
Molar enthalpy of transition or fusion, kJ/mol	uncertainty
44.88	2.85

System: DL-p-hydroxyphenylglycine sulfate; phases: Crystal, Liquid, Air at 1 atmosphere
Property: Normal melting temperature, K (Crystal); method: DTA
Normal melting temperature, K	uncertainty
344.95	2.13

System: acetone + DL-p-hydroxyphenylglycine sulfate; phases: Liquid, Crystal
Fixed: Pressure, kPa = 101
Property: Mole fraction of DL-p-hydroxyphenylglycine sulfate (Liquid); method: OTHER
Temperature, K	Mole fraction of DL-p-hydroxyphenylglycine sulfate	uncertainty
303.15	2.18e-05	9e-07
308.45	2.7e-05	1.1e-06
314.2	3.37e-05	1.4e-06
319.05	3.54e-05	1.5e-06
323	4e-05	1.6e-06

System: water + DL-p-hydroxyphenylglycine sulfate; phases: Liquid, Crystal
Fixed: Pressure, kPa = 101
Property: Mole fraction of DL-p-hydroxyphenylglycine sulfate (Liquid); method: OTHER
Temperature, K	Mole fraction of DL-p-hydroxyphenylglycine sulfate	uncertainty
303.15	0.0012842	5.29e-05
308.45	0.0017522	7.21e-05
314.2	0.0023387	9.61e-05
319.05	0.0026328	0.0001081
323	0.0028866	0.0001186

System: acetone + water + DL-p-hydroxyphenylglycine sulfate; phases: Liquid, Crystal
Fixed: Pressure, kPa = 101
Property: Mole fraction of DL-p-hydroxyphenylglycine sulfate (Liquid); method: OTHER
Temperature, K	Solvent: Mole fraction of water	Mole fraction of DL-p-hydroxyphenylglycine sulfate	uncertainty
303.15	0	2.18e-05	9e-07
303.15	0.2437	1.5e-05	6e-07
303.15	0.3919	3.22e-05	1.3e-06
303.15	0.4916	6.99e-05	2.9e-06
303.15	0.5631	0.0001293	5.3e-06
303.15	0.6591	0.0002951	1.21e-05
303.15	0.7205	0.0004964	2.04e-05
303.15	0.7632	0.0006611	2.71e-05
303.15	0.8011	0.0008303	3.41e-05
303.15	0.843	0.0010434	4.28e-05
303.15	0.8896	0.0012366	5.08e-05
303.15	0.9415	0.0013517	5.56e-05
303.15	1	0.0012842	5.29e-05
308.45	0	2.7e-05	1.1e-06
308.45	0.2437	1.47e-05	6e-07
308.45	0.3919	3.41e-05	1.4e-06
308.45	0.4916	7.8e-05	3.2e-06
308.45	0.5631	0.0001461	6e-06
308.45	0.6591	0.000336	1.38e-05
308.45	0.7205	0.0005428	2.23e-05
308.45	0.7632	0.0007346	3.02e-05
308.45	0.8011	0.0009401	3.86e-05
308.45	0.843	0.00117	4.8e-05
308.45	0.8896	0.0014311	5.88e-05
308.45	0.9415	0.0016484	6.77e-05
308.45	1	0.0017522	7.21e-05
314.2	0	3.37e-05	1.4e-06
314.2	0.2437	1.56e-05	6e-07
314.2	0.3919	3.7e-05	1.5e-06
314.2	0.4916	8.68e-05	3.6e-06
314.2	0.5631	0.0001624	6.7e-06
314.2	0.6591	0.0003774	1.55e-05
314.2	0.7205	0.0006096	2.5e-05
314.2	0.7632	0.0008276	3.4e-05
314.2	0.8011	0.0010658	4.38e-05
314.2	0.843	0.0013446	5.52e-05
314.2	0.8896	0.001689	6.94e-05
314.2	0.9415	0.0020435	8.39e-05
314.2	1	0.0023387	9.61e-05
319.05	0	3.54e-05	1.5e-06
319.05	0.2437	1.63e-05	7e-07
319.05	0.3919	4.05e-05	1.7e-06
319.05	0.4916	9.4e-05	3.9e-06
319.05	0.5631	0.0001794	7.4e-06
319.05	0.6591	0.0004138	1.7e-05
319.05	0.7205	0.0006707	2.75e-05
319.05	0.7632	0.000915	3.76e-05
319.05	0.8011	0.0011609	4.77e-05
319.05	0.843	0.0014742	6.05e-05
319.05	0.8896	0.0018538	7.61e-05
319.05	0.9415	0.0022546	9.26e-05
319.05	1	0.0026328	0.0001081
323	0	4e-05	1.6e-06
323	0.2437	1.83e-05	8e-07
323	0.3919	4.48e-05	1.9e-06
323	0.4916	0.0001049	4.3e-06
323	0.5631	0.0001993	8.2e-06
323	0.6591	0.0004516	1.86e-05
323	0.7205	0.0007364	3.02e-05
323	0.7632	0.0009869	4.05e-05
323	0.8011	0.0012581	5.17e-05
323	0.843	0.0015856	6.51e-05
323	0.8896	0.0020007	8.21e-05
323	0.9415	0.002451	0.0001006
323	1	0.0028866	0.0001186
