Measured thermophysical data. Vapor-Liquid Equilibrium and Density of the Binary System 1-Phenylethylamine + Toluene
Source: J. Chem. Eng. Data, 2005, 10.1021/je0499059
Compound 1: 1-phenylethanamine, C8H11N, InChI=1S/C8H11N/c1-7(9)8-5-3-2-4-6-8/h2-7H,9H2,1H3, purity 98%
Compound 2: toluene, C7H8, InChI=1S/C7H8/c1-7-5-3-2-4-6-7/h2-6H,1H3

System: 1-phenylethanamine; phases: Liquid
Property: Refractive index (Na D-line) (Liquid); method: DIPPING:visual:monoch
Temperature, K	Pressure, kPa	Refractive index (Na D-line)	uncertainty
298.15	101.325	1.52437	0.00013

System: 1-phenylethanamine; phases: Liquid, Gas
Property: Vapor or sublimation pressure, kPa (Liquid); method: EBULLIO:UFactor:16
Temperature, K	Vapor or sublimation pressure, kPa	uncertainty
363.78	3.762	0.142
367.95	4.487	0.143
372.3	5.443	0.144
375.4	6.236	0.144
379.54	7.477	0.146
379.58	7.429	0.146
383.04	8.528	0.147
387.04	10.029	0.148
387.53	10.283	0.148
390.62	11.561	0.15
394.2	13.286	0.151
396.84	14.638	0.153
397.71	15.122	0.153
399.45	16.102	0.154
400.49	16.694	0.155
402.81	18.2	0.156
405.53	20.048	0.158
407.62	21.539	0.16
410.22	23.641	0.162
414.91	27.665	0.166
419.25	31.857	0.17

System: 1-phenylethanamine; phases: Liquid
Property: Mass density, kg/m3 (Liquid); method: VIBTUB::UFactor:2
Temperature, K	Pressure, kPa	Mass density, kg/m3	uncertainty
298.15	101.325	949.58	0.28

System: toluene; phases: Liquid
Property: Refractive index (Na D-line) (Liquid); method: DIPPING:visual:monoch
Temperature, K	Pressure, kPa	Refractive index (Na D-line)	uncertainty
298.15	101.325	1.49419	0.0001

System: toluene; phases: Liquid, Gas
Property: Vapor or sublimation pressure, kPa (Liquid); method: EBULLIO:UFactor:16
Temperature, K	Vapor or sublimation pressure, kPa	uncertainty
363.15	54.25	1.92

System: toluene; phases: Liquid
Property: Mass density, kg/m3 (Liquid); method: VIBTUB::UFactor:2
Temperature, K	Pressure, kPa	Mass density, kg/m3	uncertainty
298.15	101.325	862.39	0.22

System: toluene + 1-phenylethanamine; phases: Liquid, Gas
Fixed: Pressure, kPa = 98.71
Property: Boiling temperature at pressure P, K (Liquid); method: EBULLIO:UFactor:16
Mole fraction of 1-phenylethanamine	Boiling temperature at pressure P, K	uncertainty
0.0122	383.4	0.5
0.0409	384.4	0.5
0.0859	385.8	0.5
0.1331	387.5	0.5
0.1862	389.4	0.5
0.2572	391.9	0.5
0.2841	392.7	0.5
0.328	394.5	0.6
0.3721	396.3	0.6
0.4716	401.2	0.6
0.5214	404.5	0.6
0.587	408.8	0.7
0.6667	414.7	0.8
0.6726	414.1	0.8
0.7148	417.6	0.8
0.7572	422.1	0.8

System: toluene + 1-phenylethanamine; phases: Liquid
Fixed: Temperature, K = 298.15
Fixed: Pressure, kPa = 101.325
Property: Mass density, kg/m3 (Liquid); method: VIBTUB:UFactor:2
Mole fraction of 1-phenylethanamine	Mass density, kg/m3	uncertainty
0	862.39	0.22
0.102	872.57	0.63
0.1916	881.33	0.62
0.2817	889.87	0.6
0.3886	899.68	0.59
0.4767	907.56	0.58
0.5984	918.14	0.57
0.6953	926.22	0.55
0.8206	936.21	0.54
0.8832	941.03	0.52
1	949.58	0.28

System: toluene + 1-phenylethanamine; phases: Gas, Liquid
Fixed: Pressure, kPa = 98.71
Property: Mole fraction of 1-phenylethanamine (Gas); method: RIXVDN
Mole fraction of 1-phenylethanamine	Mole fraction of 1-phenylethanamine	uncertainty
0.0122	0.0001	0.0001
0.0409	0.0005	0.0005
0.0859	0.005	0.005
0.1331	0.0113	0.0113
0.1862	0.0256	0.012
0.2572	0.0211	0.012
0.2841	0.0292	0.0123
0.328	0.0382	0.0121
0.3721	0.0418	0.0122
0.4716	0.0643	0.0122
0.5214	0.067	0.0121
0.587	0.0778	0.0136
0.6667	0.1432	0.055
0.6726	0.1168	0.055
0.7148	0.156	0.0176
0.7572	0.2073	0.0188

System: toluene + 1-phenylethanamine; phases: Gas, Liquid
Property: Vapor or sublimation pressure, kPa (Gas); method: EBULLIO:UFactor:16
Temperature, K	Mole fraction of 1-phenylethanamine	Vapor or sublimation pressure, kPa	uncertainty
363.15	0	54.25	1.92
363.15	0.0253	53.89	1.93
363.15	0.077	51.14	1.91
363.15	0.1731	45.04	1.83
363.15	0.2897	39.76	1.76
363.15	0.5495	28.34	1.62
363.15	0.6206	25.07	1.58
363.15	0.65	22.93	1.55
363.15	0.707	19.58	1.51
363.15	0.7889	14.33	1.45
363.15	0.8462	11.29	1.41
363.15	0.8591	11.73	1.42
363.15	0.9254	7.88	1.37
383.15	0.0262	98.29	2.55
383.15	0.0458	96.06	2.57
383.15	0.058	93.85	2.64
383.15	0.1841	81.77	2.32
383.15	0.271	74.36	2.21
383.15	0.35	69.18	2.15
383.15	0.5393	54.35	1.98
383.15	0.6836	40.64	1.83
383.15	0.777	33.35	1.77
383.15	0.8047	27.17	2.69
383.15	0.8086	28.53	2.7
383.15	0.8541	22.4	1.69
383.15	0.8937	18.24	1.6

System: toluene + 1-phenylethanamine; phases: Gas, Liquid
Property: Mole fraction of 1-phenylethanamine (Gas); method: RIXVDN
Temperature, K	Mole fraction of 1-phenylethanamine	Mole fraction of 1-phenylethanamine	uncertainty
363.15	0	0	0.0001
363.15	0.0253	0.005	0.005
363.15	0.077	0.005	0.005
363.15	0.1731	0.0086	0.0086
363.15	0.2897	0.0165	0.0121
363.15	0.5495	0.0768	0.0122
363.15	0.6206	0.1047	0.0122
363.15	0.65	0.1105	0.0122
363.15	0.707	0.1348	0.0123
363.15	0.7889	0.1993	0.0124
363.15	0.8462	0.2565	0.0126
363.15	0.8591	0.2773	0.0126
363.15	0.9254	0.4817	0.0131
383.15	0.0262	0.0094	0.0094
383.15	0.0458	0.0086	0.0086
383.15	0.058	0.0103	0.0103
383.15	0.1841	0.0156	0.012
383.15	0.271	0.0262	0.0121
383.15	0.35	0.0387	0.0122
383.15	0.5393	0.0695	0.0126
383.15	0.6836	0.1475	0.0132
383.15	0.777	0.1786	0.0144
383.15	0.8047	0.2403	0.0167
383.15	0.8086	0.2366	0.0167
383.15	0.8541	0.3141	0.028
383.15	0.8937	0.4155	0.0332
