Measured thermophysical data. Heat Capacities of 1-chloroalkanes and 1-bromoalkanes within the temperature range from 284.15 K to 353.15 K. A group additivity and molecular connectivity analysis
Source: J. Chem. Eng. Data, 2005, 10.1021/je049652j
Compound 1: 1-chloropropane, C3H7Cl, InChI=1S/C3H7Cl/c1-2-3-4/h2-3H2,1H3, purity 98%
Compound 2: 1-chlorobutane, C4H9Cl, InChI=1S/C4H9Cl/c1-2-3-4-5/h2-4H2,1H3, purity 99.5%
Compound 3: 1-chloropentane, C5H11Cl, InChI=1S/C5H11Cl/c1-2-3-4-5-6/h2-5H2,1H3, purity 99%
Compound 4: 1-chlorohexane, C6H13Cl, InChI=1S/C6H13Cl/c1-2-3-4-5-6-7/h2-6H2,1H3, purity 99%
Compound 5: 1-chloroheptane, C7H15Cl, InChI=1S/C7H15Cl/c1-2-3-4-5-6-7-8/h2-7H2,1H3, purity 99%
Compound 6: 1-chlorooctane, C8H17Cl, InChI=1S/C8H17Cl/c1-2-3-4-5-6-7-8-9/h2-8H2,1H3
Compound 7: 1-chlorodecane, C10H21Cl, InChI=1S/C10H21Cl/c1-2-3-4-5-6-7-8-9-10-11/h2-10H2,1H3, purity 98%
Compound 8: bromoethane, C2H5Br, InChI=1S/C2H5Br/c1-2-3/h2H2,1H3, purity 99%
Compound 9: 1-bromopropane, C3H7Br, InChI=1S/C3H7Br/c1-2-3-4/h2-3H2,1H3, purity 99%
Compound 10: 1-bromobutane, C4H9Br, InChI=1S/C4H9Br/c1-2-3-4-5/h2-4H2,1H3, purity 99%
Compound 11: 1-bromopentane, C5H11Br, InChI=1S/C5H11Br/c1-2-3-4-5-6/h2-5H2,1H3, purity 99%
Compound 12: 1-bromohexane, C6H13Br, InChI=1S/C6H13Br/c1-2-3-4-5-6-7/h2-6H2,1H3, purity 98%
Compound 13: 1-bromoheptane, C7H15Br, InChI=1S/C7H15Br/c1-2-3-4-5-6-7-8/h2-7H2,1H3, purity 99%
Compound 14: 1-bromononane, C9H19Br, InChI=1S/C9H19Br/c1-2-3-4-5-6-7-8-9-10/h2-9H2,1H3, purity 99%
Compound 15: 1-bromodecane, C10H21Br, InChI=1S/C10H21Br/c1-2-3-4-5-6-7-8-9-10-11/h2-10H2,1H3, purity 98%

System: 1-chloropropane; phases: Liquid
Fixed: Pressure, kPa = 101.325
Property: Molar heat capacity at constant pressure, J/K/mol (Liquid); method: LDSC:UFactor:0.25
Temperature, K	Molar heat capacity at constant pressure, J/K/mol	uncertainty
284.15	128.63	0.64
286.65	128.99	0.64
289.15	129.53	0.65
291.65	130.1	0.65
294.15	130.47	0.65
296.65	130.95	0.65
299.15	131.33	0.66
301.65	131.88	0.66
304.15	132.37	0.66
306.65	132.94	0.66
309.15	133.4	0.67
311.65	133.92	0.67
314.15	134.38	0.67

System: 1-chlorobutane; phases: Liquid
Fixed: Pressure, kPa = 101.325
Property: Molar heat capacity at constant pressure, J/K/mol (Liquid); method: LDSC:UFactor:0.25
Temperature, K	Molar heat capacity at constant pressure, J/K/mol	uncertainty
284.15	156.22	0.78
286.65	156.75	0.78
289.15	157.28	0.79
291.65	157.7	0.79
294.15	158.27	0.79
296.65	158.86	0.79
299.15	159.48	0.8
301.65	160.05	0.8
304.15	160.5	0.8
306.65	161.06	0.81
309.15	161.59	0.81
311.65	162.24	0.81
314.15	162.92	0.81
316.65	163.42	0.82
319.15	164.11	0.82
321.65	164.82	0.82
324.15	165	0.83
326.65	165.97	0.83
329.15	166.72	0.83
331.65	167.29	0.84
334.15	167.78	0.84
336.65	168.53	0.84
339.15	169.12	0.85
341.65	170.01	0.85
344.15	170.43	0.85
346.65	170.49	0.85
349.15	171.5	0.86
351.65	173.02	0.87
353.15	173.09	0.87

System: 1-chloropentane; phases: Liquid
Fixed: Pressure, kPa = 101.325
Property: Molar heat capacity at constant pressure, J/K/mol (Liquid); method: LDSC:UFactor:0.25
Temperature, K	Molar heat capacity at constant pressure, J/K/mol	uncertainty
284.15	184.57	0.92
286.65	185.29	0.93
289.15	185.95	0.93
291.65	186.52	0.93
294.15	187.16	0.94
296.65	187.66	0.94
299.15	188.46	0.94
301.65	189.19	0.95
304.15	189.81	0.95
306.65	190.32	0.95
309.15	190.99	0.95
311.65	191.89	0.96
314.15	192.65	0.96
316.65	193.22	0.97
319.15	194.09	0.97
321.65	194.69	0.97
324.15	195.06	0.98
326.65	196.14	0.98
329.15	196.99	0.98
331.65	197.64	0.99
334.15	198.46	0.99
336.65	199.23	1
339.15	199.92	1
341.65	200.41	1
344.15	201.19	1.01
346.65	201.73	1.01
349.15	202.54	1.01
351.65	203.57	1.02
353.15	204.24	1.02

System: 1-chlorohexane; phases: Liquid
Fixed: Pressure, kPa = 101.325
Property: Molar heat capacity at constant pressure, J/K/mol (Liquid); method: LDSC:UFactor:0.25
Temperature, K	Molar heat capacity at constant pressure, J/K/mol	uncertainty
284.15	212.36	1.06
286.65	213.23	1.07
289.15	213.91	1.07
291.65	214.63	1.07
294.15	215.4	1.08
296.65	216.12	1.08
299.15	216.95	1.08
301.65	217.75	1.09
304.15	218.44	1.09
306.65	219.22	1.1
309.15	219.99	1.1
311.65	221	1.11
314.15	221.78	1.11
316.65	222.49	1.11
319.15	223.43	1.12
321.65	224.31	1.12
324.15	224.7	1.12
326.65	226.02	1.13
329.15	227.13	1.14
331.65	228.86	1.14
334.15	228.99	1.14
336.65	229.44	1.15
339.15	230.06	1.15
341.65	231.22	1.16
344.15	231.83	1.16
346.65	232.32	1.16
349.15	233.18	1.17
351.65	234.56	1.17
353.15	235.17	1.18

System: 1-chloroheptane; phases: Liquid
Fixed: Pressure, kPa = 101.325
Property: Molar heat capacity at constant pressure, J/K/mol (Liquid); method: LDSC:UFactor:0.25
Temperature, K	Molar heat capacity at constant pressure, J/K/mol	uncertainty
284.15	240.95	1.2
286.65	241.75	1.21
289.15	242.67	1.21
291.65	243.4	1.22
294.15	244.29	1.22
296.65	245.23	1.23
299.15	246.05	1.23
301.65	247.03	1.24
304.15	247.61	1.24
306.65	248.53	1.24
309.15	249.54	1.25
311.65	250.65	1.25
314.15	251.6	1.26
316.65	252.2	1.26
319.15	253.36	1.27
321.65	254.42	1.27
324.15	254.76	1.27
326.65	256.19	1.28
329.15	257.57	1.29
331.65	258.06	1.29
334.15	258.84	1.29
336.65	259.88	1.3
339.15	261.01	1.31
341.65	261.55	1.31
344.15	262.9	1.31
346.65	263.26	1.32
349.15	264.3	1.32
351.65	266.04	1.33
353.15	266.51	1.33

System: 1-chlorooctane; phases: Liquid
Fixed: Pressure, kPa = 101.325
Property: Molar heat capacity at constant pressure, J/K/mol (Liquid); method: LDSC:UFactor:0.25
Temperature, K	Molar heat capacity at constant pressure, J/K/mol	uncertainty
284.15	269.76	1.35
286.65	270.79	1.35
289.15	271.83	1.36
291.65	272.66	1.36
294.15	273.66	1.37
296.65	274.53	1.37
299.15	275.61	1.38
301.65	276.52	1.38
304.15	277.29	1.39
306.65	278.37	1.39
309.15	279.28	1.4
311.65	280.5	1.4
314.15	281.58	1.41
316.65	282.47	1.41
319.15	283.79	1.42
321.65	284.92	1.42
324.15	285.45	1.43
326.65	286.81	1.43
329.15	288.43	1.44
331.65	289.95	1.45
334.15	290.13	1.45
336.65	291.34	1.46
339.15	291.91	1.46
341.65	293.56	1.47
344.15	294.16	1.47
346.65	294.82	1.47
349.15	295.79	1.48
351.65	297.21	1.49
353.15	298.14	1.49

System: 1-chlorodecane; phases: Liquid
Fixed: Pressure, kPa = 101.325
Property: Molar heat capacity at constant pressure, J/K/mol (Liquid); method: LDSC:UFactor:0.25
Temperature, K	Molar heat capacity at constant pressure, J/K/mol	uncertainty
284.15	328.57	1.64
286.65	329.82	1.65
289.15	331	1.66
291.65	332.01	1.66
294.15	333.14	1.67
296.65	334.13	1.67
299.15	335.39	1.68
301.65	336.61	1.68
304.15	337.47	1.69
306.65	338.66	1.69
309.15	339.83	1.7
311.65	341.39	1.71
314.15	342.42	1.71
316.65	343.41	1.72
319.15	345.04	1.73
321.65	346.36	1.73
324.15	346.99	1.73
326.65	348.75	1.74
329.15	350.01	1.75
331.65	351.31	1.76
334.15	352.76	1.76
336.65	353.39	1.77
339.15	355.52	1.78
341.65	356.17	1.78
344.15	357.74	1.79
346.65	358.38	1.79
349.15	359.65	1.8
351.65	361.49	1.81
353.15	362.49	1.81

System: bromoethane; phases: Liquid
Fixed: Pressure, kPa = 101.325
Property: Molar heat capacity at constant pressure, J/K/mol (Liquid); method: LDSC:UFactor:0.25
Temperature, K	Molar heat capacity at constant pressure, J/K/mol	uncertainty
269.15	104.07	0.52
271.65	104.37	0.52
274.15	104.6	0.52
276.65	104.85	0.52
279.15	105.14	0.53
281.65	105.42	0.53
284.15	105.63	0.53
286.65	105.91	0.53
289.15	106.14	0.53
291.65	106.42	0.53
294.15	106.75	0.53
296.65	107.09	0.54
299.15	107.42	0.54

System: 1-bromopropane; phases: Liquid
Fixed: Pressure, kPa = 101.325
Property: Molar heat capacity at constant pressure, J/K/mol (Liquid); method: LDSC:UFactor:0.25
Temperature, K	Molar heat capacity at constant pressure, J/K/mol	uncertainty
269.15	129.02	0.65
271.65	129.44	0.65
274.15	129.78	0.65
276.65	130.1	0.65
279.15	130.48	0.65
281.65	130.86	0.65
284.15	131.2	0.66
286.65	131.64	0.66
289.15	132.01	0.66
291.65	132.46	0.66
294.15	132.78	0.66
296.65	133.2	0.67
299.15	133.64	0.67
301.65	134	0.67
304.15	134.55	0.67
306.65	134.93	0.67
309.15	135.35	0.68
311.65	135.8	0.68
314.15	136.23	0.68
316.65	136.68	0.68
319.15	137.16	0.69
321.65	137.6	0.69
324.15	138.11	0.69
326.65	138.55	0.69

System: 1-bromobutane; phases: Liquid
Fixed: Pressure, kPa = 101.325
Property: Molar heat capacity at constant pressure, J/K/mol (Liquid); method: LDSC:UFactor:0.25
Temperature, K	Molar heat capacity at constant pressure, J/K/mol	uncertainty
284.15	159.45	0.8
286.65	159.98	0.8
289.15	160.53	0.8
291.65	161.01	0.81
294.15	161.52	0.81
296.65	162.08	0.81
299.15	162.6	0.81
301.65	163.08	0.82
304.15	163.72	0.82
306.65	164.22	0.82
309.15	164.78	0.82
311.65	165.34	0.83
314.15	165.94	0.83
316.65	166.49	0.83
319.15	167.09	0.84
321.65	167.67	0.84
324.15	168.29	0.84
326.65	168.83	0.84
329.15	169.45	0.85
331.65	170.09	0.85
334.15	170.63	0.85
336.65	171	0.86
339.15	171.94	0.86
341.65	172.57	0.86
344.15	173.26	0.87
346.65	173.89	0.87
349.15	174.51	0.87
351.65	175.19	0.88
353.15	175.47	0.88

System: 1-bromopentane; phases: Liquid
Fixed: Pressure, kPa = 101.325
Property: Molar heat capacity at constant pressure, J/K/mol (Liquid); method: LDSC:UFactor:0.25
Temperature, K	Molar heat capacity at constant pressure, J/K/mol	uncertainty
284.15	187.88	0.94
286.65	188.46	0.94
289.15	189.17	0.95
291.65	189.85	0.95
294.15	190.33	0.95
296.65	190.94	0.95
299.15	191.57	0.96
301.65	192.17	0.96
304.15	193.01	0.97
306.65	193.53	0.97
309.15	194.17	0.97
311.65	194.86	0.97
314.15	195.6	0.98
316.65	196.21	0.98
319.15	196.98	0.98
321.65	197.61	0.99
324.15	198.35	0.99
326.65	199.09	1
329.15	199.8	1
331.65	200.47	1
334.15	201.48	1.01
336.65	201.57	1.01
339.15	202.76	1.01
341.65	203.58	1.02
344.15	204.33	1.02
346.65	205.07	1.03
349.15	205.89	1.03
351.65	206.69	1.03
353.15	207.05	1.04

System: 1-bromohexane; phases: Liquid
Fixed: Pressure, kPa = 101.325
Property: Molar heat capacity at constant pressure, J/K/mol (Liquid); method: LDSC:UFactor:0.25
Temperature, K	Molar heat capacity at constant pressure, J/K/mol	uncertainty
284.15	215.54	1.08
286.65	216.29	1.08
289.15	217.08	1.09
291.65	217.78	1.09
294.15	218.54	1.09
296.65	219.26	1.1
299.15	219.99	1.1
301.65	220.68	1.1
304.15	221.38	1.11
306.65	222.22	1.11
309.15	222.98	1.11
311.65	223.79	1.12
314.15	224.63	1.12
316.65	225.37	1.13
319.15	226.2	1.13
321.65	227.01	1.14
324.15	227.86	1.14
326.65	228.67	1.14
329.15	229.55	1.15
331.65	230.39	1.15
334.15	231.21	1.16
336.65	231.59	1.16
339.15	233.25	1.17
341.65	233.77	1.17
344.15	234.73	1.17
346.65	235.64	1.18
349.15	236.55	1.18
351.65	237.39	1.19
353.15	237.85	1.19

System: 1-bromoheptane; phases: Liquid
Fixed: Pressure, kPa = 101.325
Property: Molar heat capacity at constant pressure, J/K/mol (Liquid); method: LDSC:UFactor:0.25
Temperature, K	Molar heat capacity at constant pressure, J/K/mol	uncertainty
284.15	244.73	1.22
286.65	245.56	1.23
289.15	246.44	1.23
291.65	247.28	1.24
294.15	248.12	1.24
296.65	248.93	1.24
299.15	249.7	1.25
301.65	250.38	1.25
304.15	251.56	1.26
306.65	252.33	1.26
309.15	253.19	1.27
311.65	254.14	1.27
314.15	255	1.28
316.65	255.97	1.28
319.15	256.84	1.28
321.65	257.85	1.29
324.15	258.76	1.29
326.65	259.71	1.3
329.15	260.68	1.3
331.65	261.61	1.31
334.15	262.5	1.31
336.65	262.97	1.31
339.15	264.64	1.32
341.65	265.49	1.33
344.15	266.52	1.33
346.65	267.46	1.34
349.15	268.47	1.34
351.65	269.51	1.35
353.15	270.03	1.35

System: 1-bromononane; phases: Liquid
Fixed: Pressure, kPa = 101.325
Property: Molar heat capacity at constant pressure, J/K/mol (Liquid); method: LDSC:UFactor:0.25
Temperature, K	Molar heat capacity at constant pressure, J/K/mol	uncertainty
284.15	302.55	1.51
286.65	303.54	1.52
289.15	304.62	1.52
291.65	305.57	1.53
294.15	306.69	1.53
296.65	307.68	1.54
299.15	308.8	1.54
301.65	309.82	1.55
304.15	310.95	1.55
306.65	311.91	1.56
309.15	313.01	1.57
311.65	314.1	1.57
314.15	315.18	1.58
316.65	316.32	1.58
319.15	317.44	1.59
321.65	318.7	1.59
324.15	319.8	1.6
326.65	320.96	1.6
329.15	322.16	1.61
331.65	323.32	1.62
334.15	324.63	1.62
336.65	325	1.63
339.15	326.99	1.64
341.65	328.13	1.64
344.15	329.39	1.65
346.65	330.49	1.65
349.15	331.79	1.66
351.65	333.04	1.67
353.15	333.74	1.67

System: 1-bromodecane; phases: Liquid
Fixed: Pressure, kPa = 101.325
Property: Molar heat capacity at constant pressure, J/K/mol (Liquid); method: LDSC:UFactor:0.25
Temperature, K	Molar heat capacity at constant pressure, J/K/mol	uncertainty
284.15	332.6	1.7
286.65	333.65	1.67
289.15	335	1.68
291.65	336.08	1.68
294.15	336.9	1.68
296.65	338.2	1.69
299.15	339.29	1.7
301.65	340.37	1.7
304.15	341.48	1.71
306.65	342.74	1.71
309.15	343.89	1.72
311.65	345.13	1.73
314.15	346.34	1.73
316.65	347.51	1.74
319.15	348.84	1.74
321.65	350.1	1.75
324.15	351.41	1.76
326.65	352.71	1.76
329.15	354.02	1.77
331.65	355.32	1.78
334.15	356.14	1.78
336.65	357.34	1.79
339.15	359.3	1.8
341.65	360.7	1.8
344.15	362.13	1.81
346.65	363.37	1.82
349.15	364.86	1.82
351.65	366.38	1.83
353.15	367.07	1.84
