Measured thermophysical data. Experimental Data on Binary and Ternary Mixtures of Perfluoromethylcyclohexane with Methane and n-Decane at 373.15 K
Source: J. Chem. Eng. Data, 2005, 10.1021/je049550t
Compound 1: perfluoro(methylcyclohexane), C7F14, InChI=1S/C7F14/c8-1(7(19,20)21)2(9,10)4(13,14)6(17,18)5(15,16)3(1,11)12, purity 95%
Compound 2: methane, CH4, InChI=1S/CH4/h1H4
Compound 3: decane, C10H22, InChI=1S/C10H22/c1-3-5-7-9-10-8-6-4-2/h3-10H2,1-2H3, purity 99%

System: methane + perfluoro(methylcyclohexane); phases: Liquid, Gas
Fixed: Temperature, K = 373.15
Property: Vapor or sublimation pressure, kPa (Liquid); method: Ebulliometric method (Recirculating still)
Mole fraction of perfluoro(methylcyclohexane)	Vapor or sublimation pressure, kPa	uncertainty
0.25	16730	180
0.3	16560	180
0.4999	12760	160
0.799	4900	140

System: methane + perfluoro(methylcyclohexane); phases: Gas, Liquid
Fixed: Temperature, K = 373.15
Property: Vapor or sublimation pressure, kPa (Gas); method: Ebulliometric method (Recirculating still)
Mole fraction of perfluoro(methylcyclohexane)	Vapor or sublimation pressure, kPa	uncertainty
0.1008	13860	150
0.15	16150	180
0.2001	16690	180

System: decane + perfluoro(methylcyclohexane); phases: Liquid, Gas
Fixed: Temperature, K = 373.15
Property: Vapor or sublimation pressure, kPa (Liquid); method: Closed cell (Static) method
Mole fraction of perfluoro(methylcyclohexane)	Vapor or sublimation pressure, kPa	uncertainty
0.1999	258	10
0.4372	287	11
0.8001	300	11

System: decane + perfluoro(methylcyclohexane); phases: Fluid (supercritical or subcritical phases)
Property: Mass density, kg/m3 (Fluid (supercritical or subcritical phases)); method: Vibrating tube method
Mole fraction of perfluoro(methylcyclohexane)	Temperature, K	Pressure, kPa	Mass density, kg/m3	uncertainty
0.4372	373.15	34470	1115	7

System: methane + decane + perfluoro(methylcyclohexane); phases: Liquid, Gas
Fixed: Temperature, K = 373.15
Property: Vapor or sublimation pressure, kPa (Liquid); method: Ebulliometric method (Recirculating still)
Mole fraction of perfluoro(methylcyclohexane)	Mole fraction of decane	Vapor or sublimation pressure, kPa	uncertainty
0.1958	0.252	15170	170
0.3486	0.4487	4520	80

System: methane + decane + perfluoro(methylcyclohexane); phases: Gas, Liquid
Fixed: Temperature, K = 373.15
Property: Vapor or sublimation pressure, kPa (Gas); method: Ebulliometric method (Recirculating still)
Mole fraction of perfluoro(methylcyclohexane)	Mole fraction of decane	Vapor or sublimation pressure, kPa	uncertainty
0.0138	0.0178	20960	290
0.1121	0.016	23010	250

System: methane + decane + perfluoro(methylcyclohexane); phases: Fluid (supercritical or subcritical phases)
Fixed: Temperature, K = 373.15
Fixed: Pressure, kPa = 34470
Property: Mass density, kg/m3 (Fluid (supercritical or subcritical phases)); method: Vibrating tube method
Mole fraction of perfluoro(methylcyclohexane)	Mole fraction of decane	Mass density, kg/m3	uncertainty
0.0138	0.0178	234	1
0.1121	0.016	549	5
0.1958	0.252	883	2
0.3486	0.4487	1058	2
