Measured thermophysical data. Molar heat capacity and thermodynamic properties of 4-Methyl-4-cyclohexene-1,2-dicarboxylic anhydride [C9H10O3]
Source: J. Chem. Eng. Data, 2005, 10.1021/je049585t
Compound 1: 4-methyl-cyclohex-4-ene-1, 2-dicarboxylic acid anhydride, C9H10O3, InChI=1S/C9H10O3/c1-5-2-3-6-7(4-5)9(11)12-8(6)10/h2,6-7H,3-4H2,1H3, purity 99.4%

System: 4-methyl-cyclohex-4-ene-1, 2-dicarboxylic acid anhydride; phases: Crystal, Liquid, Gas
Property: Molar enthalpy of transition or fusion, kJ/mol (Crystal); method: ADIACA:UFactor:4:FP
Molar enthalpy of transition or fusion, kJ/mol	uncertainty
17.67	0.1

System: 4-methyl-cyclohex-4-ene-1, 2-dicarboxylic acid anhydride; phases: Crystal, Liquid, Air at 1 atmosphere
Property: Normal melting temperature, K (Crystal); method: ADIACA:corrimpFP:UFactor:4:FP
Normal melting temperature, K	uncertainty
335.54	0.83

System: 4-methyl-cyclohex-4-ene-1, 2-dicarboxylic acid anhydride; phases: Crystal
Fixed: Pressure, kPa = 101.325
Property: Molar heat capacity at constant pressure, J/K/mol (Crystal); method: VADIAC:UFactor:4
Temperature, K	Molar heat capacity at constant pressure, J/K/mol	uncertainty
80	65.23	0.621
85	64.372	0.614
90	64.761	0.844
95	66.053	0.851
100	67.967	0.861
105	70.279	0.873
110	72.812	0.887
115	75.437	0.901
120	78.058	0.915
125	80.616	0.93
130	83.076	0.943
135	85.426	0.956
140	87.674	0.969
145	89.84	0.981
150	91.955	0.993
155	94.058	1.005
160	96.189	1.017
165	98.391	1.03
170	100.705	1.043
175	103.169	1.058
180	105.815	1.073
185	108.67	1.09
190	111.75	1.108
195	115.066	1.127
200	118.619	1.148
205	122.4	1.171
210	126.393	1.195
215	130.573	1.22
220	134.909	1.246
225	139.364	1.273
230	143.896	1.301
235	148.461	1.329
240	153.018	1.357
245	157.524	1.384
250	161.946	1.412
255	166.258	1.438
260	170.447	1.464
265	174.519	1.49
270	178.498	1.514
275	182.435	1.539
280	186.412	1.564
285	190.547	1.59
290	195	1.618
295	199.979	1.649
298.15	203.501	1.671
300	205.745	1.686
305	212.622	1.729
310	220.998	1.783
315	231.342	1.849
320	244.2	1.931
325	260.213	2.034
330	280.12	2.162

System: 4-methyl-cyclohex-4-ene-1, 2-dicarboxylic acid anhydride; phases: Liquid
Fixed: Pressure, kPa = 101.325
Property: Molar heat capacity at constant pressure, J/K/mol (Liquid); method: VADIAC:UFactor:4
Temperature, K	Molar heat capacity at constant pressure, J/K/mol	uncertainty
340	306.938	2.334
345	308.182	2.342
350	313.285	2.375
355	320.241	2.42
360	327.599	2.468

System: 4-methyl-cyclohex-4-ene-1, 2-dicarboxylic acid anhydride; phases: Crystal
Fixed: Pressure, kPa = 101.325
Property: Molar heat capacity at constant pressure, J/K/mol (Crystal); method: VADIAC:UFactor:4
Temperature, K	Molar heat capacity at constant pressure, J/K/mol	uncertainty
80.446	63.17	0.607
81.951	63.26	0.607
83.525	63.39	0.607
85.169	63.65	0.607
86.782	64.05	0.615
88.377	64.45	0.615
89.948	65.12	0.624
91.497	65.63	0.8481
93.028	66.26	0.8481
94.537	66.83	0.8564
96.029	67.49	0.8564
97.509	68.15	0.8647
98.968	68.87	0.8647
100.412	69.38	0.8647
101.842	69.93	0.873
103.257	70.47	0.873
104.66	71.22	0.8813
106.051	71.84	0.8813
107.429	72.36	0.8813
108.796	72.92	0.8896
110.151	73.65	0.8896
111.495	74.07	0.8896
112.828	74.66	0.898
114.152	75.18	0.898
115.465	75.87	0.9063
116.77	76.33	0.9063
118.066	76.91	0.9063
119.353	77.54	0.9146
120.631	78.18	0.9146
121.901	78.77	0.9229
123.163	79.3	0.9229
124.418	79.75	0.9229
125.66	80.33	0.9312
126.903	80.87	0.9312
128.136	81.35	0.9312
129.358	81.93	0.9395
130.58	82.44	0.9395
131.834	82.95	0.9395
132.964	83.776	0.9478
134.164	84.15	0.9478
135.381	84.591	0.9478
136.592	85.281	0.9562
137.716	85.938	0.9562
138.927	86.204	0.9645
140.138	86.686	0.9645
141.268	86.969	0.9645
142.478	87.651	0.9728
143.599	88.224	0.9728
144.723	88.898	0.9728
145.848	89.28	0.9811
146.978	89.921	0.9811
148.097	90.419	0.9811
149.216	90.835	0.9894
150.433	91.65	0.9894
151.552	91.974	0.9894
153.011	92.739	0.9977
154.666	93.612	1.006
156.32	94.643	1.006
158.04	95.258	1.0144
159.694	95.957	1.0144
161.348	96.78	1.0227
162.97	97.803	1.0227
164.625	98.825	1.031
166.247	99.648	1.0393
167.804	100.5	1.0393
169.458	101.34	1.0476
171.372	102.49	1.0559
173.611	103.54	1.0559
175.849	104.8	1.0642
178.12	106.11	1.0726
180.277	107.31	1.0809
182.434	108.56	1.0892
184.607	109.77	1.0975
186.684	111.17	1.1058
188.841	112.46	1.1141
190.917	113.85	1.1224
192.993	115.1	1.1308
195.069	116.42	1.1391
197.135	117.72	1.1391
199.146	118.98	1.1474
201.222	120.78	1.164
203.201	121.75	1.164
205.18	123.46	1.1806
207.191	124.73	1.189
209.137	126.14	1.1973
211.09	127.51	1.2056
213.03	128.87	1.2056
214.965	130.45	1.2222
216.903	132.32	1.2305
218.837	133.96	1.2388
220.75	135.72	1.2472
222.697	137.13	1.2555
224.578	138.58	1.2721
226.557	139.98	1.2804
228.408	141.35	1.2887
230.19	142.86	1.2971
232.007	144.4	1.3054
233.858	145.93	1.3137
235.737	147.41	1.322
237.587	149.22	1.3303
239.369	150.76	1.3386
241.155	152.29	1.3553
242.939	153.83	1.3636
244.818	155.45	1.3719
246.54	157.09	1.3802
248.356	158.9	1.3968
250.173	160.56	1.4051
251.99	162.22	1.4135
253.806	163.9	1.4218
255.536	165.36	1.4301
257.364	167.29	1.4467
259.094	168.63	1.455
260.824	170.5	1.4633
262.608	172.01	1.4717
264.313	173.55	1.48
266.122	175.31	1.4966
267.825	177.02	1.5049
269.529	178.52	1.5132
271.28	180.17	1.5215
273.313	181.94	1.5382
275.346	183.81	1.5465
277.03	185.45	1.5548
278.733	187.1	1.5714
280.363	188.67	1.5797
282.45	190.66	1.5881
284.97	193.03	1.6047
287.457	195.7	1.6213
289.884	197.97	1.6379
292.312	200.61	1.6546
294.669	203.16	1.6712
297.102	205.53	1.6878
299.373	207.64	1.6961
301.806	210.9	1.7211
304.158	213.44	1.7377
306.51	215.82	1.746
308.807	218.8	1.771
311.132	221.26	1.7876
313.434	224.91	1.8042
315.718	227.54	1.8209
317.98	230.32	1.8458
320.221	234.71	1.8707
322.437	240.42	1.904
324.603	251.25	1.9788
326.702	266.66	2.0869
328.697	300.96	2.3197

System: 4-methyl-cyclohex-4-ene-1, 2-dicarboxylic acid anhydride; phases: Liquid
Fixed: Pressure, kPa = 101.325
Property: Molar heat capacity at constant pressure, J/K/mol (Liquid); method: VADIAC:UFactor:4
Temperature, K	Molar heat capacity at constant pressure, J/K/mol	uncertainty
337.337	308.51	2.3447
339.252	307.6	2.3364
341.155	306.76	2.3364
343.057	306.95	2.3364
344.964	308.07	2.3447
346.864	309.65	2.353
348.764	311.73	2.3613
350.672	314.26	2.3779
352.571	316.99	2.4029
354.471	319.51	2.4195
356.364	322.01	2.4278
358.256	324.95	2.4528
360.133	327.9	2.4694

System: 4-methyl-cyclohex-4-ene-1, 2-dicarboxylic acid anhydride; phases: Liquid
Fixed: Pressure, kPa = 101.325
Property: Molar enthalpy, kJ/mol (Liquid); method: VADIAC:UFactor:4
Temperature, K	Molar enthalpy, kJ/mol	uncertainty
340	25.913	0.308
345	27.449	0.319
350	29.001	0.33
355	30.585	0.341
360	32.204	0.352

System: 4-methyl-cyclohex-4-ene-1, 2-dicarboxylic acid anhydride; phases: Crystal
Fixed: Pressure, kPa = 101.325
Property: Molar enthalpy, kJ/mol (Crystal); method: VADIAC:UFactor:4
Temperature, K	Molar enthalpy, kJ/mol	uncertainty
80	-26.258	0.21
85	-25.935	0.207
90	-25.613	0.155
95	-25.287	0.153
100	-24.953	0.15
105	-24.607	0.148
110	-24.25	0.146
115	-23.88	0.143
120	-23.496	0.141
125	-23.099	0.139
130	-22.69	0.136
135	-22.269	0.134
140	-21.837	0.132
145	-21.393	0.13
150	-20.938	0.128
155	-20.473	0.126
160	-19.998	0.125
165	-19.511	0.123
170	-19.014	0.122
175	-18.504	0.12
180	-17.982	0.119
185	-17.446	0.118
190	-16.895	0.118
195	-16.328	0.117
200	-15.744	0.117
205	-15.141	0.117
210	-14.519	0.117
215	-13.877	0.117
220	-13.213	0.118
225	-12.528	0.119
230	-11.82	0.12
235	-11.089	0.121
240	-10.335	0.123
245	-9.559	0.125
250	-8.76	0.128
255	-7.94	0.133
260	-7.098	0.139
265	-6.235	0.145
270	-5.353	0.151
275	-4.451	0.157
280	-3.529	0.163
285	-2.586	0.169
290	-1.623	0.175
295	-0.635	0.181
298.15	0	0.239
300	0.379	0.187
305	1.424	0.193
310	2.508	0.2
315	3.638	0.207
320	4.826	0.213
325	6.086	0.22
330	7.436	0.228

System: 4-methyl-cyclohex-4-ene-1, 2-dicarboxylic acid anhydride; phases: Crystal
Fixed: Pressure, kPa = 101.325
Property: Molar entropy, J/K/mol (Crystal); method: VADIAC:UFactor:4
Temperature, K	Molar entropy, J/K/mol	uncertainty
80	-130.979	1.509
85	-128.936	1.484
90	-126.86	1.183
95	-124.726	1.167
100	-122.514	1.151
105	-120.217	1.134
110	-117.829	1.116
115	-115.352	1.099
120	-112.79	1.08
125	-110.15	1.062
130	-107.441	1.044
135	-104.672	1.025
140	-101.855	1.007
145	-98.997	0.989
150	-96.109	0.971
155	-93.199	0.953
160	-90.274	0.936
165	-87.339	0.92
170	-84.4	0.904
175	-81.458	0.889
180	-78.515	0.875
185	-75.571	0.861
190	-72.625	0.848
195	-69.674	0.836
200	-66.716	0.825
205	-63.745	0.815
210	-60.758	0.805
215	-57.749	0.797
220	-54.714	0.789
225	-51.646	0.783
230	-48.542	0.777
235	-45.395	0.773
240	-42.201	0.77
245	-38.956	0.768
250	-35.656	0.768
255	-32.296	0.78
260	-28.873	0.795
265	-25.383	0.812
270	-21.819	0.828
275	-18.178	0.845
280	-14.449	0.862
285	-10.625	0.88
290	-6.691	0.899
295	-2.632	0.917
298.15	0	1.2
300	1.576	0.937
305	5.959	0.957
310	10.555	0.979
315	15.406	1.001
320	20.569	1.025
325	26.111	1.051
330	32.115	1.079

System: 4-methyl-cyclohex-4-ene-1, 2-dicarboxylic acid anhydride; phases: Liquid
Fixed: Pressure, kPa = 101.325
Property: Molar entropy, J/K/mol (Liquid); method: VADIAC:UFactor:4
Temperature, K	Molar entropy, J/K/mol	uncertainty
340	87.199	1.449
345	91.683	1.487
350	96.151	1.526
355	100.643	1.565
360	105.173	1.604
