Measured thermophysical data. Densities and Viscosities of Binary Mixtures of 1-Chlorobutane with Butanol Isomers at Several Temperatures
Source: J. Chem. Eng. Data, 2005, 10.1021/je0496140
Compound 1: 1-chlorobutane, C4H9Cl, InChI=1S/C4H9Cl/c1-2-3-4-5/h2-4H2,1H3, purity 99.5%
Compound 2: butan-1-ol, C4H10O, InChI=1S/C4H10O/c1-2-3-4-5/h5H,2-4H2,1H3, purity 99.8%
Compound 3: 2-methyl-1-propanol, C4H10O, InChI=1S/C4H10O/c1-4(2)3-5/h4-5H,3H2,1-2H3, purity 99.5%
Compound 4: butan-2-ol, C4H10O, InChI=1S/C4H10O/c1-3-4(2)5/h4-5H,3H2,1-2H3, purity 99%
Compound 5: 2-methylpropan-2-ol, C4H10O, InChI=1S/C4H10O/c1-4(2,3)5/h5H,1-3H3, purity 99.5%

System: 1-chlorobutane; phases: Liquid
Fixed: Pressure, kPa = 101.325
Property: Viscosity, Pa*s (Liquid); method: CAPTUB:UFactor:2
Temperature, K	Viscosity, Pa*s	uncertainty
288.15	0.000477	7e-06
298.15	0.000429	6e-06
303.15	0.000409	6e-06
308.15	0.00039	6e-06
313.15	0.000372	6e-06
318.15	0.000354	5e-06

System: 1-chlorobutane; phases: Liquid
Fixed: Pressure, kPa = 101.325
Property: Mass density, kg/m3 (Liquid); method: VIBTUB:UFactor:4
Temperature, K	Mass density, kg/m3	uncertainty
288.15	891.87	0.37
298.15	880.18	0.39
303.15	875.19	0.39
308.15	869.64	0.4
313.15	863.94	0.4
318.15	858.31	0.41

System: butan-1-ol; phases: Liquid
Fixed: Pressure, kPa = 101.325
Property: Viscosity, Pa*s (Liquid); method: CAPTUB:UFactor:2
Temperature, K	Viscosity, Pa*s	uncertainty
288.15	0.003346	3.8e-05
298.15	0.00256	2.9e-05
308.15	0.001991	2.3e-05
318.15	0.001569	1.9e-05

System: butan-1-ol; phases: Liquid
Fixed: Pressure, kPa = 101.325
Property: Mass density, kg/m3 (Liquid); method: VIBTUB:UFactor:4
Temperature, K	Mass density, kg/m3	uncertainty
288.15	813.42	0.43
298.15	805.4	0.44
308.15	798.14	0.45
318.15	790.19	0.47

System: 2-methyl-1-propanol; phases: Liquid
Fixed: Pressure, kPa = 101.325
Property: Viscosity, Pa*s (Liquid); method: CAPTUB:UFactor:2
Temperature, K	Viscosity, Pa*s	uncertainty
288.15	0.004805	5.5e-05
298.15	0.003435	4e-05
308.15	0.002508	2.9e-05
318.15	0.00187	2.2e-05

System: 2-methyl-1-propanol; phases: Liquid
Fixed: Pressure, kPa = 101.325
Property: Mass density, kg/m3 (Liquid); method: VIBTUB:UFactor:4
Temperature, K	Mass density, kg/m3	uncertainty
288.15	805.47	0.48
298.15	797.37	0.49
308.15	790.1	0.5
318.15	781.99	0.51

System: butan-2-ol; phases: Liquid
Fixed: Pressure, kPa = 101.325
Property: Viscosity, Pa*s (Liquid); method: CAPTUB:UFactor:2
Temperature, K	Viscosity, Pa*s	uncertainty
288.15	0.004509	5.5e-05
298.15	0.003035	3.8e-05
308.15	0.002111	2.7e-05
318.15	0.001523	2e-05

System: butan-2-ol; phases: Liquid
Fixed: Pressure, kPa = 101.325
Property: Mass density, kg/m3 (Liquid); method: VIBTUB:UFactor:4
Temperature, K	Mass density, kg/m3	uncertainty
288.15	810.72	0.59
298.15	801.82	0.6
308.15	794.07	0.6
318.15	785.15	0.61

System: 2-methylpropan-2-ol; phases: Liquid
Fixed: Pressure, kPa = 101.325
Property: Viscosity, Pa*s (Liquid); method: CAPTUB:UFactor:2
Temperature, K	Viscosity, Pa*s	uncertainty
298.15	0.004433	5.1e-05
303.15	0.003355	3.9e-05
308.15	0.002611	3.1e-05
313.15	0.002074	2.5e-05
318.15	0.001685	2e-05

System: 2-methylpropan-2-ol; phases: Liquid
Fixed: Pressure, kPa = 101.325
Property: Mass density, kg/m3 (Liquid); method: VIBTUB:UFactor:4
Temperature, K	Mass density, kg/m3	uncertainty
298.15	779.96	0.51
303.15	775.3	0.52
308.15	770.19	0.53
313.15	764.83	0.54
318.15	759.52	0.54

System: butan-1-ol + 1-chlorobutane; phases: Liquid
Fixed: Pressure, kPa = 101.325
Property: Viscosity, Pa*s (Liquid); method: CAPTUB:UFactor:2
Temperature, K	Mole fraction of butan-1-ol	Viscosity, Pa*s	uncertainty
288.15	0.0949	0.000509	7e-06
288.15	0.1964	0.00057	8e-06
288.15	0.2961	0.000655	9e-06
288.15	0.3949	0.000774	1e-05
288.15	0.4941	0.00094	1.2e-05
288.15	0.5915	0.001175	1.4e-05
288.15	0.6954	0.001503	1.8e-05
288.15	0.794	0.001934	2.3e-05
288.15	0.892	0.002529	2.9e-05
298.15	0.0949	0.000452	7e-06
298.15	0.1964	0.000504	7e-06
298.15	0.2961	0.00057	8e-06
298.15	0.3949	0.000661	9e-06
298.15	0.4941	0.000788	1e-05
298.15	0.5915	0.000955	1.2e-05
298.15	0.6954	0.001204	1.5e-05
298.15	0.794	0.001525	1.8e-05
298.15	0.892	0.001955	2.3e-05
308.15	0.0949	0.000407	6e-06
308.15	0.1964	0.000448	6e-06
308.15	0.2961	0.000501	7e-06
308.15	0.3949	0.000576	8e-06
308.15	0.4941	0.00067	9e-06
308.15	0.5915	0.000797	1e-05
308.15	0.6954	0.000984	1.2e-05
308.15	0.794	0.001226	1.5e-05
308.15	0.892	0.001547	1.8e-05
318.15	0.0949	0.000367	6e-06
318.15	0.1964	0.000401	6e-06
318.15	0.2961	0.000444	6e-06
318.15	0.3949	0.000503	7e-06
318.15	0.4941	0.000577	8e-06
318.15	0.5915	0.000674	9e-06
318.15	0.6954	0.000816	1e-05
318.15	0.794	0.000993	1.2e-05
318.15	0.892	0.001238	1.5e-05

System: butan-1-ol + 1-chlorobutane; phases: Liquid
Fixed: Pressure, kPa = 101.325
Property: Mass density, kg/m3 (Liquid); method: VIBTUB:UFactor:4
Temperature, K	Mole fraction of butan-1-ol	Mass density, kg/m3	uncertainty
288.15	0.062	886.96	0.37
288.15	0.1027	883.98	0.37
288.15	0.1383	881.38	0.37
288.15	0.2032	876.67	0.37
288.15	0.2597	872.57	0.37
288.15	0.2859	870.67	0.37
288.15	0.3764	864.06	0.38
288.15	0.3967	862.58	0.38
288.15	0.4541	858.3	0.38
288.15	0.4822	856.17	0.38
288.15	0.5076	854.25	0.38
288.15	0.5466	851.25	0.39
288.15	0.5818	848.53	0.39
288.15	0.6332	844.49	0.39
288.15	0.6747	841.19	0.39
288.15	0.7342	836.4	0.4
288.15	0.7698	833.49	0.4
288.15	0.8509	826.62	0.41
288.15	0.9022	822.13	0.41
288.15	0.9582	817.04	0.42
308.15	0.1056	861.88	0.4
308.15	0.1979	855.62	0.4
308.15	0.2842	849.82	0.4
308.15	0.3908	842.67	0.4
308.15	0.4964	835.5	0.41
308.15	0.5913	828.95	0.41
308.15	0.6908	821.85	0.42
308.15	0.7917	814.48	0.43
308.15	0.9003	806.19	0.44
318.15	0.0612	853.78	0.41
318.15	0.0913	851.66	0.41
318.15	0.1849	845.48	0.41
318.15	0.2759	839.66	0.41
318.15	0.3836	832.82	0.42
318.15	0.4858	826.26	0.42
318.15	0.5859	819.71	0.43
318.15	0.6868	812.99	0.43
318.15	0.7868	806.09	0.44
318.15	0.8906	798.56	0.45

System: 2-methyl-1-propanol + 1-chlorobutane; phases: Liquid
Fixed: Pressure, kPa = 101.325
Property: Viscosity, Pa*s (Liquid); method: CAPTUB:UFactor:2
Temperature, K	Mole fraction of 2-methyl-1-propanol	Viscosity, Pa*s	uncertainty
288.15	0.1003	0.000511	7e-06
288.15	0.1993	0.000568	8e-06
288.15	0.2979	0.000654	9e-06
288.15	0.3954	0.000784	1e-05
288.15	0.496	0.000948	1.2e-05
288.15	0.5936	0.001198	1.5e-05
288.15	0.6894	0.00157	1.9e-05
288.15	0.7923	0.002196	2.6e-05
288.15	0.8912	0.003098	3.6e-05
298.15	0.1003	0.000454	7e-06
298.15	0.1993	0.000499	7e-06
298.15	0.2979	0.000567	8e-06
298.15	0.3954	0.000663	9e-06
298.15	0.496	0.000787	1e-05
298.15	0.5936	0.00097	1.2e-05
298.15	0.6894	0.00123	1.5e-05
298.15	0.7923	0.001669	2e-05
298.15	0.8912	0.002284	2.7e-05
308.15	0.1003	0.000408	6e-06
308.15	0.1993	0.000445	6e-06
308.15	0.2979	0.000497	7e-06
308.15	0.3954	0.000574	8e-06
308.15	0.496	0.000663	9e-06
308.15	0.5936	0.000801	1e-05
308.15	0.6894	0.000986	1.2e-05
308.15	0.7923	0.001295	1.6e-05
308.15	0.8912	0.001724	2.1e-05
318.15	0.1003	0.000369	6e-06
318.15	0.1993	0.000397	6e-06
318.15	0.2979	0.00044	6e-06
318.15	0.3954	0.000498	7e-06
318.15	0.496	0.000567	8e-06
318.15	0.5936	0.000682	9e-06
318.15	0.6894	0.000808	1e-05
318.15	0.7923	0.001025	1.3e-05
318.15	0.8912	0.00133	1.6e-05

System: 2-methyl-1-propanol + 1-chlorobutane; phases: Liquid
Fixed: Pressure, kPa = 101.325
Property: Mass density, kg/m3 (Liquid); method: VIBTUB:UFactor:4
Temperature, K	Mole fraction of 2-methyl-1-propanol	Mass density, kg/m3	uncertainty
288.15	0.0369	888.52	0.37
288.15	0.0769	885.16	0.38
288.15	0.1526	878.94	0.38
288.15	0.2287	872.74	0.39
288.15	0.2853	868.15	0.4
288.15	0.3791	860.52	0.41
288.15	0.4421	855.33	0.41
288.15	0.5564	845.76	0.42
288.15	0.5739	844.3	0.43
288.15	0.625	839.91	0.43
288.15	0.6843	834.73	0.44
288.15	0.7309	830.64	0.44
288.15	0.7517	828.8	0.44
288.15	0.7555	828.45	0.45
288.15	0.7567	828.35	0.45
288.15	0.849	819.9	0.46
288.15	0.9196	813.2	0.46
288.15	0.9806	807.26	0.47
308.15	0.1006	861.12	0.4
308.15	0.1959	853.68	0.41
308.15	0.277	847.47	0.42
308.15	0.3894	838.94	0.43
308.15	0.4895	831.33	0.44
308.15	0.5863	823.9	0.45
308.15	0.6914	815.7	0.46
308.15	0.7941	807.44	0.47
308.15	0.8989	798.78	0.48
318.15	0.0905	850.62	0.42
318.15	0.1869	843.28	0.43
318.15	0.2712	837.05	0.43
318.15	0.3772	829.29	0.44
318.15	0.4806	821.73	0.45
318.15	0.5812	814.29	0.46
318.15	0.6819	806.85	0.47
318.15	0.7816	799.34	0.48
318.15	0.8896	791.03	0.49

System: butan-2-ol + 1-chlorobutane; phases: Liquid
Fixed: Pressure, kPa = 101.325
Property: Viscosity, Pa*s (Liquid); method: CAPTUB:UFactor:2
Temperature, K	Mole fraction of butan-2-ol	Viscosity, Pa*s	uncertainty
288.15	0.0965	0.000496	7e-06
288.15	0.1973	0.000542	8e-06
288.15	0.2962	0.000601	8e-06
288.15	0.3934	0.000688	9e-06
288.15	0.4917	0.000805	1.1e-05
288.15	0.5923	0.000995	1.3e-05
288.15	0.6919	0.001286	1.6e-05
288.15	0.7931	0.001764	2.2e-05
288.15	0.8933	0.002648	3.3e-05
298.15	0.0965	0.000444	6e-06
298.15	0.1973	0.000478	7e-06
298.15	0.2962	0.000524	7e-06
298.15	0.3934	0.000587	8e-06
298.15	0.4917	0.000675	9e-06
298.15	0.5923	0.000811	1.1e-05
298.15	0.6919	0.001011	1.3e-05
298.15	0.7931	0.001334	1.7e-05
298.15	0.8933	0.001901	2.4e-05
308.15	0.0965	0.000399	6e-06
308.15	0.1973	0.000426	6e-06
308.15	0.2962	0.000462	7e-06
308.15	0.3934	0.00051	7e-06
308.15	0.4917	0.000577	8e-06
308.15	0.5923	0.000676	9e-06
308.15	0.6919	0.000818	1.1e-05
308.15	0.7931	0.001034	1.4e-05
308.15	0.8933	0.001419	1.8e-05
318.15	0.0965	0.000362	6e-06
318.15	0.1973	0.000382	6e-06
318.15	0.2962	0.00041	6e-06
318.15	0.3934	0.00045	7e-06
318.15	0.4917	0.000498	7e-06
318.15	0.5923	0.000571	8e-06
318.15	0.6919	0.000676	9e-06
318.15	0.7931	0.000825	1.1e-05
318.15	0.8933	0.001072	1.4e-05

System: butan-2-ol + 1-chlorobutane; phases: Liquid
Fixed: Pressure, kPa = 101.325
Property: Mass density, kg/m3 (Liquid); method: VIBTUB:UFactor:4
Temperature, K	Mole fraction of butan-2-ol	Mass density, kg/m3	uncertainty
288.15	0.05	887.1	0.38
288.15	0.1177	881.38	0.4
288.15	0.1435	879.24	0.4
288.15	0.1962	874.99	0.41
288.15	0.2227	872.88	0.42
288.15	0.34	863.63	0.45
288.15	0.4058	858.45	0.46
288.15	0.4104	858.09	0.46
288.15	0.4986	851.12	0.48
288.15	0.5241	849.12	0.49
288.15	0.5527	846.87	0.49
288.15	0.6114	842.23	0.51
288.15	0.6634	838.14	0.52
288.15	0.7388	832.24	0.53
288.15	0.7984	827.45	0.54
288.15	0.8286	824.99	0.55
288.15	0.884	820.5	0.56
288.15	0.9367	816.07	0.57
308.15	0.1007	860.49	0.42
308.15	0.1941	853.08	0.44
308.15	0.2775	846.72	0.46
308.15	0.3881	838.47	0.48
308.15	0.4876	831.15	0.5
308.15	0.5897	823.73	0.52
308.15	0.6927	816.37	0.54
308.15	0.795	808.99	0.56
308.15	0.8963	801.67	0.58
318.15	0.0864	850.35	0.43
318.15	0.1906	842.1	0.45
318.15	0.2732	835.88	0.47
318.15	0.382	828	0.49
318.15	0.4862	820.61	0.51
318.15	0.5852	813.65	0.53
318.15	0.6823	806.95	0.55
318.15	0.7865	799.78	0.57
318.15	0.8928	792.59	0.59

System: 2-methylpropan-2-ol + 1-chlorobutane; phases: Liquid
Fixed: Pressure, kPa = 101.325
Property: Viscosity, Pa*s (Liquid); method: CAPTUB:UFactor:2
Temperature, K	Mole fraction of 2-methylpropan-2-ol	Viscosity, Pa*s	uncertainty
298.15	0.0966	0.000442	6e-06
298.15	0.2	0.000476	7e-06
298.15	0.2904	0.000517	7e-06
298.15	0.3901	0.000577	8e-06
298.15	0.4897	0.000662	9e-06
298.15	0.5956	0.000799	1e-05
298.15	0.6919	0.001	1.3e-05
298.15	0.8008	0.001425	1.7e-05
298.15	0.8889	0.002112	2.5e-05
303.15	0.0966	0.000419	6e-06
303.15	0.2	0.000449	7e-06
303.15	0.2904	0.000486	7e-06
303.15	0.3901	0.000537	7e-06
303.15	0.4897	0.000611	8e-06
303.15	0.5956	0.000727	1e-05
303.15	0.6919	0.000892	1.1e-05
303.15	0.8008	0.001232	1.5e-05
303.15	0.8889	0.001752	2.1e-05
308.15	0.0966	0.000397	6e-06
308.15	0.2	0.000423	6e-06
308.15	0.2904	0.000456	7e-06
308.15	0.3901	0.000502	7e-06
308.15	0.4897	0.000565	8e-06
308.15	0.5956	0.000664	9e-06
308.15	0.6919	0.000801	1e-05
308.15	0.8008	0.001081	1.4e-05
308.15	0.8889	0.001474	1.8e-05
313.15	0.0966	0.000378	6e-06
313.15	0.2	0.0004	6e-06
313.15	0.2904	0.000428	6e-06
313.15	0.3901	0.000468	7e-06
313.15	0.4897	0.000525	7e-06
313.15	0.5956	0.000608	8e-06
313.15	0.6919	0.000724	1e-05
313.15	0.8008	0.000947	1.2e-05
313.15	0.8889	0.001255	1.5e-05
318.15	0.0966	0.000359	6e-06
318.15	0.2	0.00038	6e-06
318.15	0.2904	0.000404	6e-06
318.15	0.3901	0.000439	6e-06
318.15	0.4897	0.000488	7e-06
318.15	0.5956	0.00056	8e-06
318.15	0.6919	0.000658	9e-06
318.15	0.8008	0.000841	1.1e-05
318.15	0.8889	0.001083	1.4e-05

System: 2-methylpropan-2-ol + 1-chlorobutane; phases: Liquid
Fixed: Pressure, kPa = 101.325
Property: Mass density, kg/m3 (Liquid); method: VIBTUB:UFactor:4
Temperature, K	Mole fraction of 2-methylpropan-2-ol	Mass density, kg/m3	uncertainty
303.15	0.0924	864.09	0.4
303.15	0.1915	853.49	0.41
303.15	0.2758	844.75	0.43
303.15	0.38	834.23	0.44
303.15	0.481	824.02	0.45
303.15	0.5729	814.91	0.46
303.15	0.6749	804.89	0.48
303.15	0.7778	795.09	0.49
303.15	0.8938	784.46	0.5
308.15	0.0969	857.96	0.41
308.15	0.1912	847.87	0.42
308.15	0.2786	838.9	0.43
308.15	0.3839	828.23	0.45
308.15	0.4811	818.5	0.46
308.15	0.5844	808.35	0.47
308.15	0.6849	798.55	0.48
308.15	0.7881	788.78	0.5
308.15	0.8957	779.05	0.51
313.15	0.093	852.6	0.42
313.15	0.1869	842.51	0.43
313.15	0.2685	834.13	0.44
313.15	0.3778	823.11	0.45
313.15	0.4841	812.56	0.47
313.15	0.5777	803.43	0.48
313.15	0.6796	793.58	0.49
313.15	0.7766	784.47	0.5
313.15	0.8972	773.57	0.52
318.15	0.0918	847.04	0.42
318.15	0.1839	837.08	0.43
318.15	0.2674	828.47	0.45
318.15	0.3797	817.22	0.46
318.15	0.4809	807.29	0.47
318.15	0.5799	797.62	0.49
318.15	0.678	788.38	0.5
318.15	0.7833	778.42	0.51
318.15	0.8905	768.84	0.52
