Measured thermophysical data. Determination of Heat Capacities and Thermodynamic Properties of 2-(Chloromethylthio)benzothiazole by an Adiabatic Calorimeter
Source: J. Chem. Eng. Data, 2005, 10.1021/je049678a
Compound 1: 2-(chloromethylthio)benzothiazole, C8H6ClNS2, InChI=1S/C8H6ClNS2/c9-5-11-8-10-6-3-1-2-4-7(6)12-8/h1-4H,5H2, purity 99.21%

System: 2-(chloromethylthio)benzothiazole; phases: Crystal, Liquid, Gas
Property: Molar enthalpy of transition or fusion, kJ/mol (Crystal); method: ADIACA:UFactor:8:FP
Molar enthalpy of transition or fusion, kJ/mol	uncertainty
17.02	0.12

System: 2-(chloromethylthio)benzothiazole; phases: Crystal, Liquid, Gas
Property: Triple point temperature, K (Crystal); method: ADIACA:UFactor:8:FP
Triple point temperature, K	uncertainty
315.11	0.31

System: 2-(chloromethylthio)benzothiazole; phases: Crystal
Fixed: Pressure, kPa = 101.325
Property: Molar heat capacity at constant pressure, J/K/mol (Crystal); method: VADIAC:UFactor:8
Temperature, K	Molar heat capacity at constant pressure, J/K/mol	uncertainty
80.927	102.3	2
84.537	106.6	2
88.029	110.9	2.1
91.402	114	2.5
94.665	118.9	2.6
97.853	122.4	2.6
100.97	124.9	2.6
104.023	127.4	2.6
107.005	129.9	2.6
109.957	132.3	2.7
112.836	135	2.7
115.69	137	2.7
118.496	140.1	2.7
121.273	141.4	2.7
124.012	144	2.8
126.719	146.3	2.8
129.395	148.7	2.8
132.041	150.4	2.8
134.665	152.4	2.8
137.259	154.1	2.8
139.831	155.6	2.8
142.374	157.4	2.9
145.381	159.2	2.9
148.83	161.3	2.9
152.246	163.4	2.9
155.625	165.2	2.9
158.969	167.1	2.9
162.291	168.8	3
165.584	170.2	3
168.862	172.2	3
172.121	174.3	3
175.363	176.9	3
178.588	179.2	3
181.801	180.3	3
185.005	182	3.1
188.201	184.3	3.1
191.385	186	3.1
194.562	187.3	3.1
197.73	189	3.1
200.904	191.1	3.1
204.068	193.3	3.1
207.197	196.3	3.2
210.32	198.5	3.2
213.413	200.5	3.2
216.476	202.5	3.2
219.498	203.4	3.2
222.48	205.3	3.2
225.406	206.9	3.3
228.251	208.2	3.3
231.007	210.1	3.3
233.737	213.4	3.3
236.448	215.3	3.3
239.123	217	3.3
241.718	218.9	3.4
244.352	221	3.4
247.031	222.4	3.4
249.689	224.2	3.4
252.315	225.6	3.4
254.916	227.4	3.4
257.491	228.6	3.4
260.864	230.5	3.4
265.095	232.4	3.5
269.256	234.1	3.5
273.68	236.1	3.5
278.043	238.1	3.5
282.062	240.7	3.5
286.072	242.2	3.5
290.054	244.5	3.6
293.901	246.6	3.6
297.722	249.5	3.6
301.512	252.5	3.6
305.286	255.1	3.6

System: 2-(chloromethylthio)benzothiazole; phases: Liquid
Fixed: Pressure, kPa = 101.325
Property: Molar heat capacity at constant pressure, J/K/mol (Liquid); method: VADIAC:UFactor:4
Temperature, K	Molar heat capacity at constant pressure, J/K/mol	uncertainty
316.595	328.2	2.1
320.288	330.2	2.1
323.952	331.6	2.1
327.473	334.4	2.1
330.94	335.8	2.1
334.437	337.4	2.2
337.976	340.2	2.2
341.562	342.7	2.2
345.165	345.4	2.2
348.805	348.3	2.2
