Measured thermophysical data. Density Measurements under Pressure for the Binary System 1-Propanol + Toluene
Source: J. Chem. Eng. Data, 2005, 10.1021/je049685z
Compound 1: propan-1-ol, C3H8O, InChI=1S/C3H8O/c1-2-3-4/h4H,2-3H2,1H3
Compound 2: toluene, C7H8, InChI=1S/C7H8/c1-7-5-3-2-4-6-7/h2-6H,1H3

System: propan-1-ol; phases: Liquid
Property: Mass density, kg/m3 (Liquid); method: VIBTUB:UFactor:2
Temperature, K	Pressure, kPa	Mass density, kg/m3	uncertainty
303.15	100	795.6	0.4
303.15	5000	799.5	0.4
303.15	10000	803.4	0.5
303.15	15000	807	0.6
303.15	20000	810.5	0.7
303.15	25000	813.9	0.8
303.15	30000	817.2	0.9
313.15	100	787.6	0.4
313.15	5000	791.6	0.5
313.15	10000	795.7	0.5
313.15	15000	799.5	0.6
313.15	20000	803.2	0.7
313.15	25000	806.7	0.8
313.15	30000	810.1	0.9
323.15	100	779.1	0.4
323.15	5000	783.4	0.5
323.15	10000	787.7	0.6
323.15	15000	791.7	0.7
323.15	20000	795.6	0.7
323.15	25000	799.3	0.8
323.15	30000	802.9	0.9
333.15	100	770.6	0.4
333.15	5000	775.1	0.5
333.15	10000	779.6	0.6
333.15	15000	783.9	0.7
333.15	20000	787.9	0.8
333.15	25000	791.8	0.9
333.15	30000	795.5	1

System: toluene; phases: Liquid
Property: Mass density, kg/m3 (Liquid); method: VIBTUB:UFactor:2
Temperature, K	Pressure, kPa	Mass density, kg/m3	uncertainty
303.15	100	857.4	0.3
303.15	5000	861.3	0.3
303.15	10000	865.1	0.4
303.15	15000	868.7	0.4
303.15	20000	872.3	0.5
303.15	25000	875.6	0.6
303.15	30000	878.9	0.6
313.15	100	848.1	0.3
313.15	5000	852.1	0.3
313.15	10000	856.2	0.4
313.15	15000	860	0.5
313.15	20000	863.7	0.5
313.15	25000	867.2	0.6
313.15	30000	870.7	0.6
323.15	100	838.6	0.3
323.15	5000	842.9	0.3
323.15	10000	847.2	0.4
323.15	15000	851.2	0.5
323.15	20000	855.1	0.5
323.15	25000	858.9	0.6
323.15	30000	862.5	0.7
333.15	100	829.2	0.3
333.15	5000	833.7	0.4
333.15	10000	838.2	0.4
333.15	15000	842.5	0.5
333.15	20000	846.6	0.6
333.15	25000	850.5	0.6
333.15	30000	854.3	0.7

System: propan-1-ol + toluene; phases: Liquid
Property: Mass density, kg/m3 (Liquid); method: VIBTUB:UFactor:2
Temperature, K	Pressure, kPa	Mole fraction of propan-1-ol	Mass density, kg/m3	uncertainty
303.15	100	0	857.4	0.3
303.15	100	0.2	847.5	0.3
303.15	100	0.4	837.2	0.3
303.15	100	0.6	825.9	0.3
303.15	100	0.8	812.4	0.3
303.15	100	1	795.6	0.4
303.15	5000	0	861.3	0.3
303.15	5000	0.2	851.5	0.3
303.15	5000	0.4	841.2	5.1
303.15	5000	0.6	829.9	0.9
303.15	5000	0.8	816.4	3.1
303.15	5000	1	799.5	0.4
303.15	10000	0	865.1	0.4
303.15	10000	0.2	855.3	0.4
303.15	10000	0.4	845	0.4
303.15	10000	0.6	833.7	0.5
303.15	10000	0.8	820.2	0.5
303.15	10000	1	803.4	0.5
303.15	15000	0	868.7	0.4
303.15	15000	0.2	859	0.5
303.15	15000	0.4	848.7	0.5
303.15	15000	0.6	837.4	0.5
303.15	15000	0.8	823.8	0.6
303.15	15000	1	807	0.6
303.15	20000	0	872.3	0.5
303.15	20000	0.2	862.5	0.5
303.15	20000	0.4	852.2	0.6
303.15	20000	0.6	840.9	0.6
303.15	20000	0.8	827.3	0.6
303.15	20000	1	810.5	0.7
303.15	25000	0	875.6	0.6
303.15	25000	0.2	865.9	0.6
303.15	25000	0.4	855.7	0.6
303.15	25000	0.6	844.3	0.7
303.15	25000	0.8	830.7	0.7
303.15	25000	1	813.9	0.8
303.15	30000	0	878.9	0.6
303.15	30000	0.2	869.2	0.6
303.15	30000	0.4	858.9	3.2
303.15	30000	0.6	847.5	1.6
303.15	30000	0.8	834	1.4
303.15	30000	1	817.2	0.9
313.15	100	0	848.1	0.3
313.15	100	0.2	838.1	0.3
313.15	100	0.4	828	0.3
313.15	100	0.6	816.9	0.3
313.15	100	0.8	803.8	0.3
313.15	100	1	787.6	0.4
313.15	5000	0	852.1	0.3
313.15	5000	0.2	842.2	0.3
313.15	5000	0.4	832	0.4
313.15	5000	0.6	821	0.4
313.15	5000	0.8	807.8	0.4
313.15	5000	1	791.6	0.5
313.15	10000	0	856.2	0.4
313.15	10000	0.2	846.3	0.4
313.15	10000	0.4	836.1	0.4
313.15	10000	0.6	825	0.5
313.15	10000	0.8	811.9	0.5
313.15	10000	1	795.7	0.5
313.15	15000	0	860	0.5
313.15	15000	0.2	850.2	0.5
313.15	15000	0.4	840	0.5
313.15	15000	0.6	828.9	0.5
313.15	15000	0.8	815.8	0.6
313.15	15000	1	799.5	0.6
313.15	20000	0	863.7	0.5
313.15	20000	0.2	853.9	0.6
313.15	20000	0.4	843.7	0.6
313.15	20000	0.6	832.6	0.6
313.15	20000	0.8	819.4	0.7
313.15	20000	1	803.2	0.7
313.15	25000	0	867.2	0.6
313.15	25000	0.2	857.5	0.6
313.15	25000	0.4	847.3	0.7
313.15	25000	0.6	836.1	0.7
313.15	25000	0.8	823	0.7
313.15	25000	1	806.7	0.8
313.15	30000	0	870.7	0.6
313.15	30000	0.2	860.9	0.7
313.15	30000	0.4	850.7	0.7
313.15	30000	0.6	839.5	0.8
313.15	30000	0.8	826.3	0.8
313.15	30000	1	810.1	0.9
323.15	100	0	838.6	0.3
323.15	100	0.2	828.5	0.3
323.15	100	0.4	818.3	0.3
323.15	100	0.6	807.4	0.3
323.15	100	0.8	794.7	0.3
323.15	100	1	779.1	0.4
323.15	5000	0	842.9	0.3
323.15	5000	0.2	832.9	0.4
323.15	5000	0.4	822.7	0.4
323.15	5000	0.6	811.8	0.4
323.15	5000	0.8	799.1	0.4
323.15	5000	1	783.4	0.5
323.15	10000	0	847.2	0.4
323.15	10000	0.2	837.2	0.4
323.15	10000	0.4	827	0.5
323.15	10000	0.6	816.1	0.5
323.15	10000	0.8	803.4	0.5
323.15	10000	1	787.7	0.6
323.15	15000	0	851.2	0.5
323.15	15000	0.2	841.3	0.5
323.15	15000	0.4	831.1	0.5
323.15	15000	0.6	820.2	0.6
323.15	15000	0.8	807.4	0.6
323.15	15000	1	791.7	0.7
323.15	20000	0	855.1	0.5
323.15	20000	0.2	845.2	0.6
323.15	20000	0.4	835	0.6
323.15	20000	0.6	824.1	0.7
323.15	20000	0.8	811.3	0.7
323.15	20000	1	795.6	0.7
323.15	25000	0	858.9	0.6
323.15	25000	0.2	849	0.6
323.15	25000	0.4	838.8	0.7
323.15	25000	0.6	827.9	0.7
323.15	25000	0.8	815	0.8
323.15	25000	1	799.3	0.8
323.15	30000	0	862.5	0.7
323.15	30000	0.2	852.6	0.7
323.15	30000	0.4	842.4	0.8
323.15	30000	0.6	831.5	0.8
323.15	30000	0.8	818.6	0.8
323.15	30000	1	802.9	0.9
333.15	100	0	829.2	0.3
333.15	100	0.2	818.7	0.3
333.15	100	0.4	808.5	0.3
333.15	100	0.6	797.9	0.3
333.15	100	0.8	785.6	0.4
333.15	100	1	770.6	0.4
333.15	5000	0	833.7	0.4
333.15	5000	0.2	823.3	0.4
333.15	5000	0.4	813.1	6.6
333.15	5000	0.6	802.5	1.2
333.15	5000	0.8	790.2	4.5
333.15	5000	1	775.1	0.5
333.15	10000	0	838.2	0.4
333.15	10000	0.2	827.9	0.5
333.15	10000	0.4	817.8	0.5
333.15	10000	0.6	807.1	0.5
333.15	10000	0.8	794.7	0.5
333.15	10000	1	779.6	0.6
333.15	15000	0	842.5	0.5
333.15	15000	0.2	832.3	0.5
333.15	15000	0.4	822.1	0.6
333.15	15000	0.6	811.4	0.6
333.15	15000	0.8	799	0.6
333.15	15000	1	783.9	0.7
333.15	20000	0	846.6	0.6
333.15	20000	0.2	836.4	0.6
333.15	20000	0.4	826.3	0.6
333.15	20000	0.6	815.6	0.7
333.15	20000	0.8	803.1	0.7
333.15	20000	1	787.9	0.8
333.15	25000	0	850.5	0.6
333.15	25000	0.2	840.4	0.7
333.15	25000	0.4	830.3	0.7
333.15	25000	0.6	819.5	0.8
333.15	25000	0.8	807	0.8
333.15	25000	1	791.8	0.9
333.15	30000	0	854.3	0.7
333.15	30000	0.2	844.2	0.7
333.15	30000	0.4	834.1	0.8
333.15	30000	0.6	823.3	1.3
333.15	30000	0.8	810.8	1.4
333.15	30000	1	795.5	1
