Measured thermophysical data. Solubilities of 1,3-benzenedicarboxylic acid in Water+ Acetic Acid Solutions
Source: J. Chem. Eng. Data, 2005, 10.1021/je049784c
Compound 1: acetic acid, C2H4O2, InChI=1S/C2H4O2/c1-2(3)4/h1H3,(H,3,4), purity 99.6%
Compound 2: 1,3-benzenedicarboxylic acid, C8H6O4, InChI=1S/C8H6O4/c9-7(10)5-2-1-3-6(4-5)8(11)12/h1-4H,(H,9,10)(H,11,12), purity 99.8%
Compound 3: water, H2O, InChI=1S/H2O/h1H2, purity 99.9%

System: acetic acid + 1,3-benzenedicarboxylic acid + water; phases: Liquid, Crystal
Fixed: Pressure, kPa = 101
Property: Mole fraction of 1,3-benzenedicarboxylic acid (Liquid); method: Gravimetric
Solvent: Mass fraction of acetic acid	Temperature, K	Mole fraction of 1,3-benzenedicarboxylic acid	uncertainty
0	301.45	1.963e-05	7.9e-07
0	314.15	2.982e-05	1.19e-06
0	325.15	4.565e-05	1.83e-06
0	338.15	7.243e-05	2.9e-06
0	349.65	0.0001128	4.5e-06
0	356.65	0.0001496	6e-06
0	359.63	0.0001702	6.8e-06
0	366.58	0.0002302	9.2e-06
0.2056	301.65	3.761e-05	1.51e-06
0.2056	308.85	5.631e-05	2.26e-06
0.2056	318.45	9.181e-05	3.68e-06
0.2056	328.35	0.0001393	5.6e-06
0.2056	338.05	0.0002118	8.5e-06
0.2056	348.45	0.0003294	1.32e-05
0.2056	358.35	0.0005006	2.01e-05
0.2056	368.35	0.0007448	2.98e-05
0.4083	298.65	0.0001031	4.1e-06
0.4083	308.15	0.0001708	6.8e-06
0.4083	318.35	0.0002605	1.04e-05
0.4083	328.35	0.0003771	1.51e-05
0.4083	338.35	0.0005643	2.26e-05
0.4083	348.35	0.0008231	3.3e-05
0.4083	358.15	0.00118	4.7e-05
0.4083	368.15	0.001697	6.8e-05
0.6082	298.95	0.0002341	9.4e-06
0.6082	308.55	0.0003626	1.45e-05
0.6082	318.45	0.0005193	2.08e-05
0.6082	328.15	0.0007584	3.04e-05
0.6082	337.95	0.001063	4.3e-05
0.6082	347.95	0.001464	5.9e-05
0.6082	358.15	0.002069	8.3e-05
0.6082	368.15	0.002835	0.000114
1	300.55	0.0008007	3.21e-05
1	316.55	0.0012	4.8e-05
1	330.25	0.001718	6.9e-05
1	338	0.002106	8.4e-05
1	347.85	0.002827	0.000113
1	355.35	0.003791	0.000152
1	364.03	0.004742	0.00019
1	370.13	0.0053	0.000212

System: 1,3-benzenedicarboxylic acid + water; phases: Liquid, Crystal
Fixed: Pressure, kPa = 101
Property: Mole fraction of 1,3-benzenedicarboxylic acid (Liquid); method: Gravimetric
Temperature, K	Mole fraction of 1,3-benzenedicarboxylic acid	uncertainty
301.45	1.963e-05	7.9e-07
314.15	2.982e-05	1.19e-06
325.15	4.565e-05	1.83e-06
338.15	7.243e-05	2.9e-06
349.65	0.0001128	4.5e-06
356.65	0.0001496	6e-06
359.63	0.0001702	6.8e-06
366.58	0.0002302	9.2e-06

System: acetic acid + 1,3-benzenedicarboxylic acid; phases: Liquid, Crystal
Fixed: Pressure, kPa = 101
Property: Mole fraction of 1,3-benzenedicarboxylic acid (Liquid); method: Gravimetric
Temperature, K	Mole fraction of 1,3-benzenedicarboxylic acid	uncertainty
300.55	0.0008007	3.21e-05
316.55	0.0012	4.8e-05
330.25	0.001718	6.9e-05
338	0.002106	8.4e-05
347.85	0.002827	0.000113
355.35	0.003791	0.000152
364.03	0.004742	0.00019
370.13	0.0053	0.000212
