Measured thermophysical data. Excess Properties of Binary Mixtures of Esters of Carbonic Acid + Three Aryl Alcohols at 308.15 K
Source: J. Chem. Eng. Data, 2005, 10.1021/je0497395
Compound 1: dimethyl carbonate, C3H6O3, InChI=1S/C3H6O3/c1-5-3(4)6-2/h1-2H3, purity 99%
Compound 2: diethyl carbonate, C5H10O3, InChI=1S/C5H10O3/c1-3-7-5(6)8-4-2/h3-4H2,1-2H3, purity 99.8%
Compound 3: 4-methyl-1,3-dioxolan-2-one, C4H6O3, InChI=1S/C4H6O3/c1-3-2-6-4(5)7-3/h3H,2H2,1H3, purity 99.7%
Compound 4: benzenemethanol, C7H8O, InChI=1S/C7H8O/c8-6-7-4-2-1-3-5-7/h1-5,8H,6H2, purity 99.8%
Compound 5: 2-phenylethanol, C8H10O, InChI=1S/C8H10O/c9-7-6-8-4-2-1-3-5-8/h1-5,9H,6-7H2, purity 99%
Compound 6: 3-phenyl-1-propanol, C9H12O, InChI=1S/C9H12O/c10-8-4-7-9-5-2-1-3-6-9/h1-3,5-6,10H,4,7-8H2, purity 99%

System: dimethyl carbonate; phases: Liquid
Property: Mass density, kg/m3 (Liquid); method: VIBTUB:UFactor:2
Temperature, K	Pressure, kPa	Mass density, kg/m3	uncertainty
298.15	101.325	1063.35	0.56

System: dimethyl carbonate; phases: Liquid
Property: Mass density, kg/m3 (Liquid); method: VIBTUB:UFactor:2
Temperature, K	Pressure, kPa	Mass density, kg/m3	uncertainty
308.15	101.325	1050.04	0.16

System: diethyl carbonate; phases: Liquid
Property: Mass density, kg/m3 (Liquid); method: VIBTUB:UFactor:2
Temperature, K	Pressure, kPa	Mass density, kg/m3	uncertainty
298.15	101.325	969.23	0.17

System: diethyl carbonate; phases: Liquid
Property: Mass density, kg/m3 (Liquid); method: VIBTUB:UFactor:2
Temperature, K	Pressure, kPa	Mass density, kg/m3	uncertainty
308.15	101.325	957.73	0.33

System: 4-methyl-1,3-dioxolan-2-one; phases: Liquid
Property: Mass density, kg/m3 (Liquid); method: VIBTUB:UFactor:2
Temperature, K	Pressure, kPa	Mass density, kg/m3	uncertainty
308.15	101.325	1188.89	0.34

System: 4-methyl-1,3-dioxolan-2-one; phases: Liquid
Property: Mass density, kg/m3 (Liquid); method: VIBTUB:UFactor:2
Temperature, K	Pressure, kPa	Mass density, kg/m3	uncertainty
298.15	101.325	1199.57	0.17

System: benzenemethanol; phases: Liquid
Property: Mass density, kg/m3 (Liquid); method: VIBTUB:UFactor:2
Temperature, K	Pressure, kPa	Mass density, kg/m3	uncertainty
298.15	101.325	1041.46	0.16

System: benzenemethanol; phases: Liquid
Property: Mass density, kg/m3 (Liquid); method: VIBTUB:UFactor:2
Temperature, K	Pressure, kPa	Mass density, kg/m3	uncertainty
308.15	101.325	1033.69	0.52

System: 2-phenylethanol; phases: Liquid
Property: Mass density, kg/m3 (Liquid); method: VIBTUB:UFactor:2
Temperature, K	Pressure, kPa	Mass density, kg/m3	uncertainty
308.15	101.325	1008.72	0.51

System: 3-phenyl-1-propanol; phases: Liquid
Property: Mass density, kg/m3 (Liquid); method: VIBTUB:UFactor:2
Temperature, K	Pressure, kPa	Mass density, kg/m3	uncertainty
308.15	101.325	990.81	0.51

System: benzenemethanol + dimethyl carbonate; phases: Liquid
Fixed: Temperature, K = 308.15
Fixed: Pressure, kPa = 101.3
Property: Excess molar enthalpy (molar enthalpy of mixing), kJ/mol (Liquid); method: FLOW:UFactor:2
Mole fraction of dimethyl carbonate	Excess molar enthalpy (molar enthalpy of mixing), kJ/mol	uncertainty
0.0483	0.202	0.005
0.0922	0.393	0.008
0.1322	0.565	0.011
0.1689	0.692	0.013
0.2336	0.938	0.017
0.289	1.089	0.02
0.3787	1.254	0.023
0.4483	1.311	0.024
0.5494	1.366	0.025
0.6466	1.308	0.024
0.7092	1.252	0.023
0.7854	1.132	0.021
0.8298	1.002	0.019
0.8798	0.841	0.016
0.907	0.733	0.014
0.936	0.56	0.011
0.967	0.311	0.007

System: benzenemethanol + dimethyl carbonate; phases: Liquid
Fixed: Temperature, K = 308.15
Fixed: Pressure, kPa = 101.3
Property: Mass density, kg/m3 (Liquid); method: VIBTUB:UFactor:2
Mole fraction of dimethyl carbonate	Mass density, kg/m3	uncertainty
0.0478	1034.62	0.16
0.0879	1035.4	0.18
0.2007	1037.52	0.22
0.2997	1039.3	0.25
0.3788	1040.7	0.29
0.5552	1043.69	0.36
0.6255	1044.81	0.39
0.7081	1046.06	0.42
0.7924	1047.28	0.45
0.8424	1047.96	0.48
0.9314	1049.17	0.51
0.9574	1049.51	0.52

System: 2-phenylethanol + dimethyl carbonate; phases: Liquid
Fixed: Temperature, K = 308.15
Fixed: Pressure, kPa = 101.3
Property: Excess molar enthalpy (molar enthalpy of mixing), kJ/mol (Liquid); method: FLOW:UFactor:2
Mole fraction of dimethyl carbonate	Excess molar enthalpy (molar enthalpy of mixing), kJ/mol	uncertainty
0.0555	0.22	0.005
0.1052	0.453	0.009
0.15	0.657	0.013
0.1904	0.831	0.016
0.2608	1.11	0.02
0.32	1.254	0.023
0.4138	1.423	0.026
0.4847	1.489	0.027
0.5852	1.494	0.027
0.6792	1.427	0.026
0.7384	1.35	0.025
0.809	1.218	0.022
0.8495	1.096	0.02
0.8944	0.912	0.017
0.9186	0.755	0.014
0.9443	0.565	0.011
0.9713	0.32	0.007

System: 2-phenylethanol + dimethyl carbonate; phases: Liquid
Fixed: Temperature, K = 308.15
Fixed: Pressure, kPa = 101.3
Property: Mass density, kg/m3 (Liquid); method: VIBTUB:UFactor:2
Mole fraction of dimethyl carbonate	Mass density, kg/m3	uncertainty
0.0774	1011.18	0.52
0.1146	1012.4	0.52
0.219	1015.92	0.52
0.3247	1019.68	0.52
0.4211	1023.28	0.53
0.4991	1026.31	0.53
0.588	1029.95	0.53
0.7335	1036.37	0.53
0.8154	1040.26	0.54
0.8704	1043.02	0.54
0.9473	1047.1	0.54
0.9705	1048.38	0.54

System: 3-phenyl-1-propanol + dimethyl carbonate; phases: Liquid
Fixed: Temperature, K = 308.15
Fixed: Pressure, kPa = 101.3
Property: Excess molar enthalpy (molar enthalpy of mixing), kJ/mol (Liquid); method: FLOW:UFactor:2
Mole fraction of dimethyl carbonate	Excess molar enthalpy (molar enthalpy of mixing), kJ/mol	uncertainty
0.0626	0.318	0.007
0.1178	0.599	0.012
0.1668	0.851	0.016
0.2107	1.033	0.019
0.286	1.328	0.024
0.3481	1.487	0.027
0.4448	1.674	0.03
0.5164	1.712	0.031
0.6157	1.701	0.031
0.7062	1.598	0.029
0.7621	1.52	0.027
0.8278	1.334	0.024
0.865	1.187	0.022
0.9017	0.975	0.018
0.9276	0.784	0.015
0.9506	0.579	0.011
0.9747	0.324	0.007

System: 3-phenyl-1-propanol + dimethyl carbonate; phases: Liquid
Fixed: Temperature, K = 308.15
Fixed: Pressure, kPa = 101.3
Property: Mass density, kg/m3 (Liquid); method: VIBTUB:UFactor:2
Mole fraction of dimethyl carbonate	Mass density, kg/m3	uncertainty
0.0675	993.25	0.51
0.1509	996.38	0.51
0.2665	1001.18	0.51
0.376	1006.21	0.52
0.4574	1010.33	0.52
0.5285	1014.22	0.52
0.6176	1019.48	0.52
0.7605	1029.1	0.53
0.826	1034.17	0.53
0.895	1039.92	0.54
0.9445	1044.46	0.54
0.968	1046.74	0.54

System: benzenemethanol + diethyl carbonate; phases: Liquid
Fixed: Temperature, K = 308.15
Fixed: Pressure, kPa = 101.3
Property: Excess molar enthalpy (molar enthalpy of mixing), kJ/mol (Liquid); method: FLOW:UFactor:2
Mole fraction of diethyl carbonate	Excess molar enthalpy (molar enthalpy of mixing), kJ/mol	uncertainty
0.0341	0.094	0.003
0.066	0.204	0.005
0.0959	0.267	0.006
0.1236	0.358	0.007
0.175	0.504	0.01
0.2204	0.623	0.012
0.2978	0.786	0.015
0.3612	0.874	0.016
0.459	0.987	0.018
0.56	1.023	0.019
0.6292	1.031	0.019
0.7179	0.987	0.018
0.7724	0.927	0.017
0.8358	0.82	0.015
0.8716	0.731	0.014
0.9106	0.578	0.011
0.9532	0.349	0.007

System: benzenemethanol + diethyl carbonate; phases: Liquid
Fixed: Temperature, K = 308.15
Fixed: Pressure, kPa = 101.3
Property: Mass density, kg/m3 (Liquid); method: VIBTUB:UFactor:2
Mole fraction of diethyl carbonate	Mass density, kg/m3	uncertainty
0.0461	1030.49	0.15
0.0626	1029.34	0.15
0.1509	1023.07	0.14
0.2205	1018	0.14
0.2959	1012.43	0.14
0.4666	999.54	0.14
0.5738	991.28	0.14
0.6238	987.38	0.14
0.711	980.55	0.14
0.8166	972.24	0.14
0.9056	965.19	0.14
0.944	962.15	0.14

System: 2-phenylethanol + diethyl carbonate; phases: Liquid
Fixed: Temperature, K = 308.15
Fixed: Pressure, kPa = 101.3
Property: Excess molar enthalpy (molar enthalpy of mixing), kJ/mol (Liquid); method: FLOW:UFactor:2
Mole fraction of diethyl carbonate	Excess molar enthalpy (molar enthalpy of mixing), kJ/mol	uncertainty
0.0393	0.141	0.004
0.0756	0.246	0.006
0.1093	0.373	0.008
0.1404	0.48	0.01
0.1971	0.643	0.012
0.2466	0.759	0.014
0.3293	0.922	0.017
0.3957	1.023	0.019
0.4955	1.166	0.021
0.5957	1.199	0.022
0.6626	1.206	0.022
0.7466	1.118	0.021
0.7971	1.04	0.019
0.8549	0.877	0.016
0.8871	0.756	0.014
0.9218	0.576	0.011
0.9593	0.335	0.007

System: 2-phenylethanol + diethyl carbonate; phases: Liquid
Fixed: Temperature, K = 308.15
Fixed: Pressure, kPa = 101.3
Property: Mass density, kg/m3 (Liquid); method: VIBTUB:UFactor:2
Mole fraction of diethyl carbonate	Mass density, kg/m3	uncertainty
0.0617	1006.29	0.49
0.1025	1004.63	0.47
0.1776	1001.44	0.44
0.2457	998.43	0.41
0.3209	994.96	0.38
0.4937	986.43	0.31
0.5827	981.79	0.28
0.6519	978.02	0.25
0.7544	972.27	0.22
0.8291	967.95	0.19
0.9071	963.32	0.17
0.959	960.21	0.15

System: diethyl carbonate + 3-phenyl-1-propanol; phases: Liquid
Fixed: Temperature, K = 308.15
Fixed: Pressure, kPa = 101.3
Property: Excess molar enthalpy (molar enthalpy of mixing), kJ/mol (Liquid); method: FLOW:UFactor:2
Mole fraction of diethyl carbonate	Excess molar enthalpy (molar enthalpy of mixing), kJ/mol	uncertainty
0.0444	0.138	0.004
0.085	0.276	0.006
0.1223	0.41	0.008
0.1564	0.534	0.01
0.2179	0.726	0.014
0.2709	0.89	0.017
0.3579	1.062	0.02
0.4263	1.164	0.021
0.5272	1.246	0.023
0.6258	1.293	0.024
0.6903	1.292	0.024
0.7698	1.202	0.022
0.8168	1.107	0.02
0.8645	0.96	0.018
0.8992	0.801	0.015
0.9304	0.618	0.012
0.964	0.359	0.007

System: diethyl carbonate + 3-phenyl-1-propanol; phases: Liquid
Fixed: Temperature, K = 308.15
Fixed: Pressure, kPa = 101.3
Property: Mass density, kg/m3 (Liquid); method: VIBTUB:UFactor:2
Mole fraction of diethyl carbonate	Mass density, kg/m3	uncertainty
0.0297	990.19	0.5
0.0786	989.1	0.48
0.1968	986.23	0.43
0.2732	984.21	0.4
0.3516	982	0.37
0.4434	979.21	0.33
0.5247	976.56	0.3
0.6119	973.54	0.27
0.6917	970.58	0.24
0.7678	967.62	0.21
0.851	964.2	0.19
0.9538	959.78	0.16

System: benzenemethanol + 4-methyl-1,3-dioxolan-2-one; phases: Liquid
Fixed: Temperature, K = 308.15
Fixed: Pressure, kPa = 101.3
Property: Excess molar enthalpy (molar enthalpy of mixing), kJ/mol (Liquid); method: FLOW:UFactor:2
Mole fraction of 4-methyl-1,3-dioxolan-2-one	Excess molar enthalpy (molar enthalpy of mixing), kJ/mol	uncertainty
0.0483	0.219	0.005
0.0922	0.398	0.008
0.1323	0.532	0.01
0.1689	0.61	0.012
0.2337	0.792	0.015
0.289	0.912	0.017
0.3788	1.003	0.019
0.4484	1.057	0.019
0.5491	1.079	0.02
0.6467	1.025	0.019
0.7092	0.955	0.018
0.7854	0.807	0.015
0.8299	0.697	0.013
0.8798	0.545	0.011
0.907	0.427	0.009
0.9361	0.313	0.007
0.967	0.17	0.004

System: benzenemethanol + 4-methyl-1,3-dioxolan-2-one; phases: Liquid
Fixed: Temperature, K = 308.15
Fixed: Pressure, kPa = 101.3
Property: Mass density, kg/m3 (Liquid); method: VIBTUB:UFactor:2
Mole fraction of 4-methyl-1,3-dioxolan-2-one	Mass density, kg/m3	uncertainty
0.067	1042.52	0.16
0.1226	1049.95	0.16
0.2053	1061.18	0.17
0.2974	1073.98	0.19
0.371	1084.51	0.2
0.4658	1098.41	0.21
0.5509	1111.38	0.23
0.6243	1122.92	0.23
0.7096	1136.8	0.24
0.7868	1149.86	0.25
0.8608	1162.9	0.26
0.9111	1172.03	0.27

System: 2-phenylethanol + 4-methyl-1,3-dioxolan-2-one; phases: Liquid
Fixed: Temperature, K = 308.15
Fixed: Pressure, kPa = 101.3
Property: Excess molar enthalpy (molar enthalpy of mixing), kJ/mol (Liquid); method: FLOW:UFactor:2
Mole fraction of 4-methyl-1,3-dioxolan-2-one	Excess molar enthalpy (molar enthalpy of mixing), kJ/mol	uncertainty
0.0556	0.263	0.006
0.1053	0.462	0.009
0.15	0.587	0.011
0.1905	0.718	0.014
0.2609	0.876	0.016
0.32	0.986	0.018
0.4138	1.07	0.02
0.4138	1.07	0.02
0.4849	1.107	0.02
0.5854	1.12	0.021
0.6793	1.049	0.019
0.7385	0.971	0.018
0.809	0.811	0.015
0.8496	0.686	0.013
0.8944	0.534	0.01
0.9187	0.433	0.009
0.9443	0.297	0.006
0.9713	0.168	0.004

System: 2-phenylethanol + 4-methyl-1,3-dioxolan-2-one; phases: Liquid
Fixed: Temperature, K = 308.15
Fixed: Pressure, kPa = 101.3
Property: Mass density, kg/m3 (Liquid); method: VIBTUB:UFactor:2
Mole fraction of 4-methyl-1,3-dioxolan-2-one	Mass density, kg/m3	uncertainty
0.0824	1019.74	0.49
0.1091	1023.37	0.49
0.2327	1040.87	0.45
0.316	1053.33	0.43
0.4136	1068.72	0.41
0.486	1080.78	0.39
0.582	1097.72	0.37
0.6619	1112.8	0.35
0.7441	1129.28	0.33
0.8014	1141.47	0.31
0.8747	1157.96	0.3
0.9551	1177.39	0.29

System: 4-methyl-1,3-dioxolan-2-one + 3-phenyl-1-propanol; phases: Liquid
Fixed: Temperature, K = 308.15
Fixed: Pressure, kPa = 101.3
Property: Excess molar enthalpy (molar enthalpy of mixing), kJ/mol (Liquid); method: FLOW:UFactor:2
Mole fraction of 4-methyl-1,3-dioxolan-2-one	Excess molar enthalpy (molar enthalpy of mixing), kJ/mol	uncertainty
0.0626	0.373	0.008
0.1178	0.621	0.012
0.1669	0.773	0.015
0.2108	0.908	0.017
0.2861	1.06	0.02
0.3482	1.157	0.021
0.4448	1.238	0.023
0.5165	1.245	0.023
0.6159	1.261	0.023
0.7063	1.176	0.022
0.7622	1.122	0.021
0.8278	0.959	0.018
0.8651	0.808	0.015
0.9058	0.63	0.012
0.9276	0.508	0.01
0.9506	0.35	0.007
0.9747	0.197	0.005

System: 4-methyl-1,3-dioxolan-2-one + 3-phenyl-1-propanol; phases: Liquid
Fixed: Temperature, K = 308.15
Fixed: Pressure, kPa = 101.3
Property: Mass density, kg/m3 (Liquid); method: VIBTUB:UFactor:2
Mole fraction of 4-methyl-1,3-dioxolan-2-one	Mass density, kg/m3	uncertainty
0.0731	1000.11	0.49
0.1339	1008.12	0.47
0.2574	1025.55	0.44
0.354	1040.41	0.41
0.4362	1054.14	0.4
0.5404	1073.09	0.37
0.61	1086.9	0.35
0.6937	1104.94	0.33
0.7618	1120.88	0.32
0.8268	1137.43	0.3
0.889	1154.58	0.29
0.9548	1174.29	0.29
