Measured thermophysical data. Solubility of CO2 in Sulfonate Ionic Liquids at High Pressure
Source: J. Chem. Eng. Data, 2005, 10.1021/je0497193
Compound 1: carbon dioxide, CO2, InChI=1S/CO2/c2-1-3
Compound 2: trihexyl(tetradecyl)phosphonium dodecyl-benzenesulfonate, C50H97O3PS, InChI=1S/C32H68P.C18H30O3S/c1-5-9-13-17-18-19-20-21-22-23-24-28-32-33(29-25-14-10-6-2,30-26-15-11-7-3)31-27-16-12-8-4;1-2-3-4-5-6-7-8-9-10-11-12-17-13-15-18(16-14-17)22(19,20)21/h5-32H2,1-4H3;13-16H,2-12H2,1H3,(H,19,20,21)/q+1;/p-1
Compound 3: trihexyltetradecylphosphonium methanesulfonate, C33H71O3PS, InChI=1S/C32H68P.CH4O3S/c1-5-9-13-17-18-19-20-21-22-23-24-28-32-33(29-25-14-10-6-2,30-26-15-11-7-3)31-27-16-12-8-4;1-5(2,3)4/h5-32H2,1-4H3;1H3,(H,2,3,4)/q+1;/p-1

System: carbon dioxide + trihexyl(tetradecyl)phosphonium dodecyl-benzenesulfonate; phases: Liquid, Gas
Property: Molality, mol/kg of carbon dioxide (Liquid); method: gravimetric method
Temperature, K	Pressure, kPa	Molality, mol/kg of carbon dioxide	uncertainty
322.15	8960	3.92	0.13
322.15	8580	3.45	0.11
322.15	8130	3.1	0.1
322.15	7800	2.88	0.09
322.15	7040	2.61	0.08
322.15	6090	2.23	0.07
322.15	5220	1.91	0.06
317.45	8630	4.03	0.14
317.45	8280	3.56	0.12
317.45	7790	3.23	0.1
317.45	7480	3	0.09
317.45	6740	2.71	0.08
317.45	5850	2.3	0.07
317.45	5040	1.97	0.06
312.45	8280	3.95	0.13
312.45	7900	3.58	0.11
312.45	7480	3.28	0.1
312.45	7160	3.13	0.1
312.45	6470	2.8	0.09
312.45	5620	2.39	0.08
312.45	4840	2.06	0.07
307.55	7920	4.25	0.16
307.55	7620	3.68	0.12
307.55	7140	3.39	0.11
307.55	6860	3.19	0.1
307.55	6190	2.89	0.09
307.55	5380	2.47	0.08
307.55	4630	2.17	0.07

System: carbon dioxide + trihexyltetradecylphosphonium methanesulfonate; phases: Liquid, Gas
Property: Molality, mol/kg of carbon dioxide (Liquid); method: gravimetric method
Temperature, K	Pressure, kPa	Molality, mol/kg of carbon dioxide	uncertainty
322.15	8730	4.15	0.27
322.15	8440	3.6	0.23
322.15	7640	3.24	0.2
322.15	6960	3	0.19
322.15	6380	2.7	0.17
322.15	5720	2.39	0.15
322.15	5120	2.17	0.14
317.45	8320	4.25	0.27
317.45	8030	3.84	0.24
317.45	7280	3.41	0.21
317.45	6660	3.1	0.19
317.45	6090	2.82	0.18
317.45	5470	2.48	0.16
317.45	4940	2.23	0.14
312.45	7910	4.52	0.3
312.45	7640	3.98	0.25
312.45	6930	3.61	0.22
312.45	6350	3.33	0.21
312.45	5810	2.96	0.19
312.45	5220	2.63	0.17
312.45	4740	2.36	0.15
307.55	7480	4.87	0.32
307.55	7230	4.27	0.27
307.55	6570	3.75	0.24
307.55	6030	3.39	0.21
307.55	5530	3.06	0.19
307.55	4970	2.72	0.17
307.55	4480	2.48	0.16
