Measured thermophysical data. VLE and LLE Data for the System Cyclohexane + Cyclohexene + Water + Cyclohexanol
Source: J. Chem. Eng. Data, 2004, 10.1021/je049902w
Compound 1: cyclohexane, C6H12, InChI=1S/C6H12/c1-2-4-6-5-3-1/h1-6H2
Compound 2: cyclohexene, C6H10, InChI=1S/C6H10/c1-2-4-6-5-3-1/h1-2H,3-6H2
Compound 3: cyclohexanol, C6H12O, InChI=1S/C6H12O/c7-6-4-2-1-3-5-6/h6-7H,1-5H2
Compound 4: water, H2O, InChI=1S/H2O/h1H2

System: cyclohexane; phases: Liquid, Gas
Property: Vapor or sublimation pressure, kPa (Liquid); method: Ebulliometric method (Recirculating still)
Temperature, K	Vapor or sublimation pressure, kPa	uncertainty
308.15	19.8	0.3
318.3	29.7	0.3
325.95	39.7	0.4
332.1	49.7	0.4
337.45	59.7	0.4
342.05	69.8	0.4
346.25	79.9	0.4
350	90.05	0.44
354.05	101.75	0.44

System: cyclohexene; phases: Liquid, Gas
Property: Vapor or sublimation pressure, kPa (Liquid); method: Ebulliometric method (Recirculating still)
Temperature, K	Vapor or sublimation pressure, kPa	uncertainty
310.15	19.8	0.3
320.35	29.7	0.3
328.05	39.7	0.4
334.2	49.6	0.4
339.55	59.6	0.4
344.25	69.7	0.4
348.45	79.8	0.4
352.2	89.8	0.4
356.35	101.8	0.4

System: cyclohexanol; phases: Liquid, Gas
Property: Vapor or sublimation pressure, kPa (Liquid); method: Ebulliometric method (Recirculating still)
Temperature, K	Vapor or sublimation pressure, kPa	uncertainty
322.25	0.5	0.3
330.95	1	0.32
341.7	2	0.32
353.8	3.95	0.32
367.25	7.9	0.32
382.4	15.85	0.33
399.5	31.75	0.35
419.05	63.75	0.38
433.3	100.05	0.42

System: water; phases: Liquid, Gas
Property: Vapor or sublimation pressure, kPa (Liquid); method: Ebulliometric method (Recirculating still)
Temperature, K	Vapor or sublimation pressure, kPa	uncertainty
306.3	4.9	0.32
319.25	9.85	0.32
333.35	19.85	0.33
342.4	29.75	0.34
349.1	39.7	0.36
354.6	49.65	0.38
359.1	59.65	0.4
363.15	69.8	0.41
366.75	79.85	0.44
369.9	89.9	0.46
372.9	99.95	0.46

System: cyclohexanol + cyclohexene; phases: Liquid, Gas
Property: Boiling temperature at pressure P, K (Liquid); method: EBULLIO:UFactor:128
Mole fraction of cyclohexene	Pressure, kPa	Boiling temperature at pressure P, K	uncertainty
0.026	100.5	427.4	4
0.062	100.5	418.1	4
0.088	100.5	411.1	4
0.114	100.5	403.6	4
0.146	101.4	403.3	3.9
0.191	102.3	392.3	3.9
0.221	100.4	388.4	4
0.251	100.4	385.5	4
0.277	100.4	383.7	4
0.291	100.3	381.1	4
0.329	101.1	380.5	3.9
0.366	100.5	375.9	4
0.388	100.5	375	4
0.413	100.5	373.8	4
0.447	100.6	370.6	4
0.469	100.6	372.3	4
0.503	100.6	372.1	4
0.52	100.6	368.1	4
0.557	100.7	367.5	4
0.583	100.4	365.3	4
0.624	100.4	364.3	4
0.676	100.9	364.6	3.9
0.707	100.9	362.6	3.9
0.752	101	362.2	3.9
0.828	100.4	359.3	4
0.881	98.9	358.6	4
0.912	100.4	357.8	4
0.964	101.1	357.9	3.9
0.99982	101.2	356.8	3.9

System: cyclohexanol + cyclohexene; phases: Gas, Liquid
Property: Mole fraction of cyclohexene (Gas); method: CHROM:UFactor:4
Mole fraction of cyclohexene	Pressure, kPa	Mole fraction of cyclohexene	uncertainty
0.026	100.5	0.285	0.138
0.062	100.5	0.534	0.077
0.088	100.5	0.606	0.023
0.114	100.5	0.677	0.022
0.146	101.4	0.745	0.017
0.191	102.3	0.808	0.02
0.221	100.4	0.861	0.025
0.251	100.4	0.878	0.008
0.277	100.4	0.895	0.013
0.291	100.3	0.901	0.04
0.329	101.1	0.928	0.007
0.366	100.5	0.936	0.007
0.388	100.5	0.941	0.007
0.413	100.5	0.947	0.007
0.447	100.6	0.953	0.011
0.469	100.6	0.955	0.01
0.503	100.6	0.959	0.022
0.52	100.6	0.961	0.007
0.557	100.7	0.965	0.006
0.583	100.4	0.967	0.006
0.624	100.4	0.97	0.006
0.676	100.9	0.973	0.006
0.707	100.9	0.976	0.006
0.752	101	0.979	0.006
0.828	100.4	0.983	0.006
0.881	98.9	0.986	0.006
0.912	100.4	0.989	0.006
0.964	101.1	0.9938	0.006
0.99983	101.2	0.999962	3.8e-05

System: cyclohexanol + cyclohexane; phases: Liquid, Gas
Property: Boiling temperature at pressure P, K (Liquid); method: EBULLIO:UFactor:128
Mole fraction of cyclohexane	Pressure, kPa	Boiling temperature at pressure P, K	uncertainty
0.001	101.4	433.2	9.6
0.002	101.4	433.1	9.6
0.01	101.4	430.2	9.6
0.029	101.1	423.8	9.6
0.092	101.2	407	9.6
0.196	101.2	390.3	9.6
0.23	100.6	382	9.7
0.331	100.6	380.7	9.7
0.394	100.4	370.2	9.7
0.469	101.6	367.8	9.6
0.497	100.6	363.4	9.7
0.502	100.6	362	9.7
0.584	100.6	358.7	9.7
0.601	100.4	360.3	9.7
0.698	100.5	356.3	9.7
0.738	100.5	355.9	9.7
0.758	100.7	358.7	9.7
0.828	100.7	356.8	9.7
0.878	100.5	355.1	9.7
0.902	100.5	355.7	9.7
0.936	100.5	354.7	9.7
0.986	100.4	354.2	9.7

System: cyclohexanol + cyclohexane; phases: Gas, Liquid
Property: Mole fraction of cyclohexane (Gas); method: CHROM:UFactor:16
Mole fraction of cyclohexane	Pressure, kPa	Mole fraction of cyclohexane	uncertainty
0.001	101.4	0.019	0.019
0.002	101.4	0.018	0.018
0.01	101.4	0.115	0.115
0.029	101.1	0.309	0.202
0.092	101.2	0.639	0.361
0.196	101.2	0.841	0.035
0.23	100.6	0.883	0.03
0.331	100.6	0.918	0.014
0.394	100.4	0.95	0.05
0.469	101.6	0.962	0.03
0.497	100.6	0.96	0.009
0.502	100.6	0.967	0.008
0.584	100.6	0.965	0.009
0.601	100.4	0.965	0.009
0.698	100.5	0.98	0.008
0.738	100.5	0.98	0.007
0.758	100.7	0.982	0.007
0.828	100.7	0.985	0.008
0.878	100.5	0.985	0.015
0.902	100.5	0.988	0.008
0.936	100.5	0.985	0.015
0.986	100.4	0.996	0.004

System: cyclohexanol + water; phases: Liquid, Gas
Property: Boiling temperature at pressure P, K (Liquid); method: EBULLIO:UFactor:128
Mole fraction of water	Pressure, kPa	Boiling temperature at pressure P, K	uncertainty
0.008	101	423.9	3.9
0.011	102.4	429.2	3.9
0.028	100.8	422.1	4
0.033	100.9	419.8	3.9
0.058	101.1	411.2	3.9
0.077	101	404	3.9
0.104	101	396.3	3.9
0.12	100.4	398.3	4
0.146	100.3	389.7	4
0.166	99.9	385.5	4
0.186	100.1	385.9	4
0.222	100.9	383.1	3.9
0.303	100.1	381	4

System: cyclohexanol + water; phases: Gas, Liquid
Property: Mole fraction of water (Gas); method: CHROM:UFactor:8
Mole fraction of water	Pressure, kPa	Mole fraction of water	uncertainty
0.008	101	0.174	0.077
0.011	102.4	0.214	0.082
0.028	100.8	0.441	0.115
0.033	100.9	0.491	0.116
0.058	101.1	0.618	0.076
0.077	101	0.666	0.073
0.104	101	0.763	0.033
0.12	100.4	0.787	0.021
0.146	100.3	0.84	0.028
0.166	99.9	0.86	0.017
0.186	100.1	0.867	0.011
0.222	100.9	0.88	0.015
0.303	100.1	0.887	0.01

System: cyclohexane + cyclohexene; phases: Liquid, Gas
Property: Boiling temperature at pressure P, K (Liquid); method: EBULLIO:UFactor:32
Mole fraction of cyclohexene	Pressure, kPa	Boiling temperature at pressure P, K	uncertainty
0.001	98.9	353.4	1
0.099	99	354.5	1
0.186	99.1	353.5	1
0.285	99.1	353.6	1
0.344	100.2	354.1	1
0.398	100.9	354.6	1
0.421	100.3	354.4	1
0.466	100.9	354.7	1
0.483	100.4	354.5	1
0.52	101	354.8	1
0.545	100.5	354.8	1
0.565	101	355	1
0.602	100.6	354.8	1
0.637	101.1	355.1	1
0.704	101.2	355.3	1
0.79	101.1	355.5	1
0.877	101.1	355.7	1
0.9973	101.1	356.1	1

System: cyclohexane + cyclohexene; phases: Gas, Liquid
Property: Mole fraction of cyclohexene (Gas); method: CHROM:UFactor:4
Mole fraction of cyclohexene	Pressure, kPa	Mole fraction of cyclohexene	uncertainty
0.001	98.9	0.0011	0.0011
0.099	99	0.096	0.009
0.186	99.1	0.181	0.01
0.285	99.1	0.276	0.013
0.344	100.2	0.338	0.014
0.398	100.9	0.383	0.016
0.421	100.3	0.408	0.016
0.466	100.9	0.452	0.018
0.483	100.4	0.469	0.019
0.52	101	0.505	0.02
0.545	100.5	0.531	0.019
0.565	101	0.548	0.02
0.602	100.6	0.593	0.017
0.637	101.1	0.622	0.016
0.704	101.2	0.693	0.014
0.79	101.1	0.775	0.013
0.877	101.1	0.867	0.016
0.9973	101.1	0.997	0.003

System: cyclohexanol + cyclohexene + water; phases: Liquid mixture 1, Liquid mixture 2
Fixed: Temperature, K = 295
Fixed: Pressure, kPa = 101.3
Property: Mole fraction of cyclohexanol (Liquid mixture 1); method: CHROM:UFactor:4
Property: Mole fraction of cyclohexene (Liquid mixture 2); method: CHROM:UFactor:4
Property: Mole fraction of cyclohexanol (Liquid mixture 2); method: CHROM:UFactor:4
Mole fraction of cyclohexene	Mole fraction of cyclohexanol	uncertainty	Mole fraction of cyclohexene	uncertainty	Mole fraction of cyclohexanol	uncertainty
0	0.546059	0.014172	0	1e-06	0.006291	
0.051021	0.565626	0.013719	3e-05	3e-05	0.005978	
0.096953	0.563899	0.013754	1.5e-05	1.5e-05	0.00533	
0.151279	0.548987	0.014253	5.8e-05	5.8e-05	0.004349	
0.185599	0.532123	0.014595	1.9e-05	1.9e-05	0.004927	
0.221235	0.532851	0.014645	4.2e-05	4.2e-05	0.00573	
0.267061	0.506331	0.015742	2.4e-05	2.4e-05	0.004572	
0.289508	0.49	0.015375	1.4e-05	1.4e-05	0.00451	
0.316466	0.485921	0.01523	6.2e-05	6.2e-05	0.004247	
0.363777	0.462636	0.014775	5.8e-05	5.8e-05	0.004101	
0.397617	0.440586	0.014285	5.8e-05	5.8e-05	0.003982	
0.445408	0.413817	0.013598	6.3e-05	6.3e-05	0.003834	
0.510828	0.375539	0.012737	5.3e-05	5.3e-05	0.004413	
0.561194	0.343024	0.012003	5.9e-05	5.9e-05	0.003284	
0.614017	0.311315	0.01134	4.8e-05	4.8e-05	0.004155	
0.674812	0.269668	0.010707	8.4e-05	8.4e-05	0.003854	
0.704872	0.241733	0.010191	6.1e-05	6.1e-05	0.003308	
0.759814	0.203694	0.009405	5.2e-05	5.2e-05	0.003458	
0.816076	0.160394	0.008801	5.8e-05	5.8e-05	0.003453	
0.833869	0.147476	0.008507	7.6e-05	7.6e-05	0.003225	
0.915531	0.076405	0.008335	6.6e-05	6.6e-05	0.001528	
0.998744	0	1e-06	7.8e-05	7.8e-05	0	

System: cyclohexanol + cyclohexane + water; phases: Liquid mixture 1, Liquid mixture 2
Fixed: Temperature, K = 295
Fixed: Pressure, kPa = 101.3
Property: Mole fraction of water (Liquid mixture 1); method: CHROM:UFactor:16
Property: Mole fraction of water (Liquid mixture 2); method: CHROM:UFactor:16
Property: Mole fraction of cyclohexanol (Liquid mixture 2); method: CHROM:UFactor:16
Mole fraction of cyclohexanol	Mole fraction of water	uncertainty	Mole fraction of water	uncertainty	Mole fraction of cyclohexanol	uncertainty
0.546	0.454	0.056267	0.99371	0.00629	0.00629	
0.583	0.385	0.047715	0.994018	0.005982	0.00598	
0.559	0.379	0.046972	0.994476	0.005524	0.00552	
0.555	0.351	0.043501	0.994646	0.005354	0.00535	
0.562	0.314	0.038916	0.994734	0.005266	0.00526	
0.546	0.303	0.037552	0.994766	0.005234	0.00523	
0.548	0.274	0.033958	0.994836	0.005164	0.00516	
0.5	0.251	0.031108	0.995264	0.004736	0.00473	
0.494	0.226	0.028009	0.995256	0.004744	0.00474	
0.487	0.2	0.024787	0.995434	0.004566	0.00456	
0.453	0.162	0.020078	0.99541	0.00459	0.00458	
0.413	0.148	0.018342	0.99544	0.00456	0.00455	
0.389	0.134	0.016607	0.995451	0.004549	0.00454	
0.36	0.113	0.014122	0.995592	0.004408	0.0044	
0.329	0.1	0.012806	0.995598	0.004402	0.00439	
0.29	0.075	0.010392	0.99583	0.00417	0.00416	
0.255	0.055	0.008644	0.99617	0.00383	0.00382	
0.197	0.034	0.007127	0.99615	0.00385	0.00384	
0.136	0.02	0.006412	0.99645	0.00355	0.00354	
0.07	0.0077	0.006063	0.997185	0.002815	0.0028	
0	0.00037	0.00037	0.999988	1.2e-05	0	
