Measured thermophysical data. Vapor-Liquid Equilibrium Measurements of MTBE and TAME with Toluene
Source: J. Chem. Eng. Data, 2005, 10.1021/je049867t
Compound 1: 2-methoxy-2-methylpropane, C5H12O, InChI=1S/C5H12O/c1-5(2,3)6-4/h1-4H3
Compound 2: 2-methoxy-2-methylbutane, C6H14O, InChI=1S/C6H14O/c1-5-6(2,3)7-4/h5H2,1-4H3
Compound 3: toluene, C7H8, InChI=1S/C7H8/c1-7-5-3-2-4-6-7/h2-6H,1H3

System: 2-methoxy-2-methylpropane; phases: Liquid
Property: Refractive index (Na D-line) (Liquid); method: Standard Abbe refractometry
Temperature, K	Pressure, kPa	Refractive index (Na D-line)	uncertainty
293.15	101.325	1.3698	0.0007

System: 2-methoxy-2-methylpropane; phases: Liquid, Gas
Property: Vapor or sublimation pressure, kPa (Liquid); method: Ebulliometric method (Recirculating still)
Temperature, K	Vapor or sublimation pressure, kPa	uncertainty
308.15	49.48	0.15
318.15	71.41	0.17
323.15	84.91	0.18

System: 2-methoxy-2-methylbutane; phases: Liquid
Property: Refractive index (Na D-line) (Liquid); method: Standard Abbe refractometry
Temperature, K	Pressure, kPa	Refractive index (Na D-line)	uncertainty
293.15	101.325	1.3862	0.0009

System: 2-methoxy-2-methylbutane; phases: Liquid, Gas
Property: Vapor or sublimation pressure, kPa (Liquid); method: EBULLIO:UFactor:8
Temperature, K	Vapor or sublimation pressure, kPa	uncertainty
298.02	10	0.09
306.98	15	0.1
318.15	23.99	0.19
319.2	25	0.13
327.9	35	0.15
334.78	45	0.18
340.52	55	0.21
345.48	65	0.24
349.85	75	0.27
353.81	85	0.3
355.64	90	0.32

System: toluene; phases: Liquid
Property: Refractive index (Na D-line) (Liquid); method: Standard Abbe refractometry
Temperature, K	Pressure, kPa	Refractive index (Na D-line)	uncertainty
293.15	101.325	1.4965	0.0007

System: toluene; phases: Liquid, Gas
Property: Vapor or sublimation pressure, kPa (Liquid); method: Ebulliometric method (Recirculating still)
Temperature, K	Vapor or sublimation pressure, kPa	uncertainty
308.15	6.18	0.1
318.15	9.88	0.1
323.15	12.28	0.1

System: toluene + 2-methoxy-2-methylpropane; phases: Liquid, Gas
Property: Vapor or sublimation pressure, kPa (Liquid); method: Ebulliometric method (Recirculating still)
Mole fraction of 2-methoxy-2-methylpropane	Temperature, K	Vapor or sublimation pressure, kPa	uncertainty
0	308.15	6.18	0.1
0	318.15	9.88	0.1
0	323.15	12.28	0.1
0.011	323.15	13.2	0.35
0.015	318.15	10.99	0.31
0.018	308.15	7.12	0.23
0.023	318.15	11.57	0.31
0.024	308.15	7.44	0.22
0.028	323.15	14.65	0.35
0.036	318.15	12.46	0.39
0.037	308.15	8.04	0.22
0.043	323.15	15.89	0.34
0.071	323.15	18.18	0.34
0.082	308.15	10.32	0.22
0.088	318.15	16.05	0.29
0.158	323.15	25.19	0.32
0.212	308.15	16.5	0.21
0.224	318.15	25.27	0.28
0.393	323.15	42.78	0.32
0.417	318.15	37.36	0.27
0.433	308.15	26.28	0.21
0.594	323.15	56.76	0.31
0.656	318.15	51.24	0.27
0.671	308.15	36.06	0.21
0.826	323.15	72.55	0.32
0.839	318.15	61.73	0.28
0.859	308.15	43.6	0.21
0.921	308.15	46.14	0.22
0.926	318.15	66.87	0.3
0.931	323.15	79.92	0.33
0.966	308.15	48.05	0.23
0.971	318.15	69.61	0.33
0.977	323.15	83.21	0.35
0.984	308.15	48.83	0.23
0.985	323.15	83.8	0.35
0.989	318.15	70.74	0.27
1	308.15	49.48	0.15
1	318.15	71.41	0.17
1	323.15	84.91	0.18

System: toluene + 2-methoxy-2-methylpropane; phases: Gas, Liquid
Property: Mole fraction of 2-methoxy-2-methylpropane (Gas); method: Chromatography
Mole fraction of 2-methoxy-2-methylpropane	Temperature, K	Mole fraction of 2-methoxy-2-methylpropane	uncertainty
0	308.15	0	0.001
0	318.15	0	0.001
0	323.15	0	0.001
0.011	323.15	0.08	0.026
0.015	318.15	0.114	0.029
0.018	308.15	0.147	0.032
0.023	318.15	0.165	0.023
0.024	308.15	0.185	0.022
0.028	323.15	0.181	0.022
0.036	318.15	0.234	0.02
0.037	308.15	0.251	0.018
0.043	323.15	0.254	0.018
0.071	323.15	0.366	0.012
0.082	308.15	0.434	0.011
0.088	318.15	0.435	0.011
0.158	323.15	0.584	0.008
0.212	308.15	0.698	0.007
0.224	318.15	0.693	0.007
0.393	323.15	0.82	0.005
0.417	318.15	0.841	0.005
0.433	308.15	0.86	0.01
0.594	323.15	0.901	0.004
0.656	318.15	0.929	0.004
0.671	308.15	0.936	0.004
0.826	323.15	0.966	0.004
0.839	318.15	0.97	0.004
0.859	308.15	0.977	0.004
0.921	308.15	0.988	0.004
0.926	318.15	0.987	0.004
0.931	323.15	0.987	0.004
0.966	308.15	0.995	0.004
0.971	318.15	0.995	0.004
0.977	323.15	0.996	0.004
0.984	308.15	0.997	0.003
0.985	323.15	0.997	0.003
0.989	318.15	0.998	0.002
1	308.15	1	0.001
1	318.15	1	0.001
1	323.15	1	0.001

System: toluene + 2-methoxy-2-methylbutane; phases: Liquid, Gas
Fixed: Temperature, K = 318.15
Property: Vapor or sublimation pressure, kPa (Liquid); method: Ebulliometric method (Recirculating still)
Mole fraction of 2-methoxy-2-methylbutane	Vapor or sublimation pressure, kPa	uncertainty
0	9.88	0.1
0.021	10.27	0.12
0.044	10.69	0.12
0.063	11.01	0.12
0.124	11.87	0.12
0.257	13.9	0.12
0.413	16.27	0.13
0.569	18.45	0.14
0.806	21.65	0.16
0.909	22.91	0.18
0.935	23.24	0.18
0.979	23.74	0.19
1	23.99	0.19

System: toluene + 2-methoxy-2-methylbutane; phases: Gas, Liquid
Fixed: Temperature, K = 318.15
Property: Mole fraction of 2-methoxy-2-methylbutane (Gas); method: Chromatography
Mole fraction of 2-methoxy-2-methylbutane	Mole fraction of 2-methoxy-2-methylbutane	uncertainty
0	0	0.001
0.021	0.058	0.011
0.044	0.115	0.01
0.063	0.155	0.008
0.124	0.263	0.008
0.257	0.456	0.009
0.413	0.625	0.009
0.569	0.753	0.008
0.806	0.897	0.006
0.909	0.953	0.005
0.935	0.966	0.005
0.979	0.989	0.005
1	1	0.001
