Measured thermophysical data. Viscosities, Densities, and Ultrasonic Velocities of Binary Mixtures of Ethylbenzene with Ethanol, 1-Propanol, and 1-Butanol at (298.15 and 308.15)K
Source: J. Chem. Eng. Data, 2004, 10.1021/je049912x
Compound 1: ethylbenzene, C8H10, InChI=1S/C8H10/c1-2-8-6-4-3-5-7-8/h3-7H,2H2,1H3
Compound 2: ethanol, C2H6O, InChI=1S/C2H6O/c1-2-3/h3H,2H2,1H3
Compound 3: propan-1-ol, C3H8O, InChI=1S/C3H8O/c1-2-3-4/h4H,2-3H2,1H3
Compound 4: butan-1-ol, C4H10O, InChI=1S/C4H10O/c1-2-3-4-5/h5H,2-4H2,1H3

System: ethylbenzene; phases: Liquid
Fixed: Pressure, kPa = 101.325
Property: Viscosity, Pa*s (Liquid); method: CAPTUB:UFactor:4
Temperature, K	Viscosity, Pa*s	uncertainty
298.15	0.000628	1.7e-05
308.15	0.000553	1.5e-05

System: ethylbenzene; phases: Liquid
Fixed: Pressure, kPa = 101.325
Property: Speed of sound, m/s (Liquid); method: FPINT:UFactor:16
Temperature, K	Speed of sound, m/s	uncertainty
298.15	1312	11
308.15	1276	10

System: ethylbenzene; phases: Liquid
Fixed: Pressure, kPa = 101.325
Property: Mass density, kg/m3 (Liquid); method: PYCNOM:UFactor:16
Temperature, K	Mass density, kg/m3	uncertainty
298.15	862	3.3
308.15	855.5	3.6

System: ethanol; phases: Liquid
Fixed: Pressure, kPa = 101.325
Property: Viscosity, Pa*s (Liquid); method: CAPTUB::UFactor:4
Temperature, K	Viscosity, Pa*s	uncertainty
298.15	0.001117	2.7e-05
308.15	0.000935	2.4e-05

System: ethanol; phases: Liquid
Fixed: Pressure, kPa = 101.325
Property: Speed of sound, m/s (Liquid); method: FPINT::UFactor:16
Temperature, K	Speed of sound, m/s	uncertainty
298.15	1160	10
308.15	1112	9

System: ethanol; phases: Liquid
Fixed: Pressure, kPa = 101.325
Property: Mass density, kg/m3 (Liquid); method: PYCNOM::UFactor:16
Temperature, K	Mass density, kg/m3	uncertainty
298.15	785.5	2.9
308.15	776.3	3.2

System: propan-1-ol; phases: Liquid
Fixed: Pressure, kPa = 101.325
Property: Viscosity, Pa*s (Liquid); method: CAPTUB::UFactor:4
Temperature, K	Viscosity, Pa*s	uncertainty
298.15	0.002042	4.9e-05
308.15	0.001565	3.9e-05

System: propan-1-ol; phases: Liquid
Fixed: Pressure, kPa = 101.325
Property: Speed of sound, m/s (Liquid); method: FPINT::UFactor:16
Temperature, K	Speed of sound, m/s	uncertainty
298.15	1213	10
308.15	1182	10

System: propan-1-ol; phases: Liquid
Fixed: Pressure, kPa = 101.325
Property: Mass density, kg/m3 (Liquid); method: PYCNOM::UFactor:16
Temperature, K	Mass density, kg/m3	uncertainty
298.15	799.6	3
308.15	792	3.3

System: butan-1-ol; phases: Liquid
Fixed: Pressure, kPa = 101.325
Property: Viscosity, Pa*s (Liquid); method: CAPTUB::UFactor:8
Temperature, K	Viscosity, Pa*s	uncertainty
298.15	0.002564	0.000117
308.15	0.002	9.3e-05

System: butan-1-ol; phases: Liquid
Fixed: Pressure, kPa = 101.325
Property: Speed of sound, m/s (Liquid); method: FPINT::UFactor:16
Temperature, K	Speed of sound, m/s	uncertainty
298.15	1238	10
308.15	1211	10

System: butan-1-ol; phases: Liquid
Fixed: Pressure, kPa = 101.325
Property: Mass density, kg/m3 (Liquid); method: PYCNOM::UFactor:16
Temperature, K	Mass density, kg/m3	uncertainty
298.15	807.7	3
308.15	800.1	3.4

System: ethanol + ethylbenzene; phases: Liquid
Fixed: Pressure, kPa = 101.325
Property: Viscosity, Pa*s (Liquid); method: CAPTUB:UFactor:4
Temperature, K	Mole fraction of ethylbenzene	Viscosity, Pa*s	uncertainty
298.15	0	0.001117	2.7e-05
298.15	0.0712	0.001026	2.6e-05
298.15	0.1551	0.000947	2.4e-05
298.15	0.2404	0.000864	2.2e-05
298.15	0.352	0.000789	2e-05
298.15	0.4053	0.000764	2e-05
298.15	0.553	0.000684	1.8e-05
298.15	0.7382	0.000639	1.7e-05
298.15	0.8805	0.000623	1.7e-05
298.15	1	0.000628	1.7e-05
308.15	0	0.000935	2.4e-05
308.15	0.0712	0.000856	2.2e-05
308.15	0.1551	0.000788	2e-05
308.15	0.2404	0.000719	1.9e-05
308.15	0.352	0.000656	1.8e-05
308.15	0.4053	0.000629	1.7e-05
308.15	0.553	0.000587	1.6e-05
308.15	0.7382	0.000548	1.5e-05
308.15	0.8805	0.000544	1.5e-05
308.15	1	0.000553	1.5e-05

System: ethanol + ethylbenzene; phases: Liquid
Fixed: Pressure, kPa = 101.325
Property: Speed of sound, m/s (Liquid); method: FPINT:UFactor:16
Temperature, K	Mole fraction of ethylbenzene	Speed of sound, m/s	uncertainty
298.15	0	1160	10
298.15	0.0712	1170	10
298.15	0.1551	1185	10
298.15	0.2404	1203	10
298.15	0.352	1228	10
298.15	0.4053	1235	10
298.15	0.553	1261	10
298.15	0.7382	1278	10
298.15	0.8805	1291	11
298.15	1	1312	11
308.15	0	1112	9
308.15	0.0712	1133	10
308.15	0.1551	1155	10
308.15	0.2404	1173	10
308.15	0.352	1195	10
308.15	0.4053	1203	10
308.15	0.553	1223	10
308.15	0.7382	1250	10
308.15	0.8805	1266	10
308.15	1	1276	10

System: ethanol + ethylbenzene; phases: Liquid
Fixed: Pressure, kPa = 101.325
Property: Mass density, kg/m3 (Liquid); method: PYCNOM:UFactor:16
Temperature, K	Mole fraction of ethylbenzene	Mass density, kg/m3	uncertainty
298.15	0	785.5	2.9
298.15	0.0712	795	2.9
298.15	0.1551	807.2	3
298.15	0.2404	817.6	3
298.15	0.352	827	3.1
298.15	0.4053	836	3.2
298.15	0.553	842.3	3.2
298.15	0.7382	853.6	3.3
298.15	0.8805	858.5	3.3
298.15	1	862	3.3
308.15	0	776.3	3.2
308.15	0.0712	789.6	3.3
308.15	0.1551	801.6	3.3
308.15	0.2404	811.7	3.4
308.15	0.352	820	3.4
308.15	0.4053	823.2	3.5
308.15	0.553	835.8	3.5
308.15	0.7382	842.8	3.6
308.15	0.8805	851.2	3.6
308.15	1	855.5	3.6

System: propan-1-ol + ethylbenzene; phases: Liquid
Fixed: Pressure, kPa = 101.325
Property: Viscosity, Pa*s (Liquid); method: CAPTUB:UFactor:4
Temperature, K	Mole fraction of ethylbenzene	Viscosity, Pa*s	uncertainty
298.15	0	0.002042	4.9e-05
298.15	0.109	0.001543	3.8e-05
298.15	0.1677	0.001375	3.4e-05
298.15	0.3777	0.000976	2.5e-05
298.15	0.5006	0.000839	2.2e-05
298.15	0.6429	0.000712	1.9e-05
298.15	0.8074	0.000638	1.7e-05
298.15	0.8951	0.000606	1.7e-05
298.15	1	0.000628	1.7e-05
308.15	0	0.001565	3.9e-05
308.15	0.109	0.001226	3.1e-05
308.15	0.1677	0.001098	2.8e-05
308.15	0.3777	0.000809	2.1e-05
308.15	0.5006	0.000702	1.9e-05
308.15	0.6429	0.000616	1.7e-05
308.15	0.8074	0.000562	1.6e-05
308.15	0.8951	0.000542	1.5e-05
308.15	1	0.000553	1.5e-05

System: propan-1-ol + ethylbenzene; phases: Liquid
Fixed: Pressure, kPa = 101.325
Property: Speed of sound, m/s (Liquid); method: FPINT:UFactor:16
Temperature, K	Mole fraction of ethylbenzene	Speed of sound, m/s	uncertainty
298.15	0	1213	10
298.15	0.109	1227	10
298.15	0.1677	1233	10
298.15	0.3777	1257	10
298.15	0.5006	1266	10
298.15	0.6429	1277	10
298.15	0.8074	1287	11
298.15	0.8951	1299	11
298.15	1	1312	11
308.15	0	1182	10
308.15	0.109	1194	10
308.15	0.1677	1202	10
308.15	0.3777	1224	10
308.15	0.5006	1233	10
308.15	0.6429	1245	10
308.15	0.8074	1258	10
308.15	0.8951	1264	10
308.15	1	1276	10

System: propan-1-ol + ethylbenzene; phases: Liquid
Fixed: Pressure, kPa = 101.325
Property: Mass density, kg/m3 (Liquid); method: PYCNOM:UFactor:16
Temperature, K	Mole fraction of ethylbenzene	Mass density, kg/m3	uncertainty
298.15	0	799.6	3
298.15	0.109	811.4	3
298.15	0.1677	817.3	3.1
298.15	0.3777	828.5	3.1
298.15	0.5006	837.9	3.1
298.15	0.6429	845.1	3.2
298.15	0.8074	853.3	3.3
298.15	0.8951	857	3.3
298.15	1	862	3.3
308.15	0	792	3.3
308.15	0.109	803.7	3.4
308.15	0.1677	807.1	3.4
308.15	0.3777	823.5	3.5
308.15	0.5006	833.1	3.5
308.15	0.6429	839	3.5
308.15	0.8074	844.3	3.6
308.15	0.8951	850	3.6
308.15	1	855.5	3.6

System: butan-1-ol + ethylbenzene; phases: Liquid
Fixed: Pressure, kPa = 101.325
Property: Viscosity, Pa*s (Liquid); method: CAPTUB:UFactor:8
Temperature, K	Mole fraction of ethylbenzene	Viscosity, Pa*s	uncertainty
298.15	0	0.002564	0.000117
298.15	0.1035	0.001985	9.2e-05
298.15	0.205	0.001565	7.4e-05
298.15	0.3221	0.001236	6e-05
298.15	0.365	0.001147	5.6e-05
298.15	0.5071	0.000916	4.6e-05
298.15	0.6494	0.000764	3.9e-05
298.15	0.8136	0.000693	3.6e-05
298.15	0.91	0.000649	3.4e-05
298.15	1	0.000628	3.4e-05
308.15	0	0.002	9.3e-05
308.15	0.1035	0.001569	7.4e-05
308.15	0.205	0.001253	6.1e-05
308.15	0.3221	0.001102	5.4e-05
308.15	0.365	0.000941	4.7e-05
308.15	0.5071	0.000765	4e-05
308.15	0.6494	0.000651	3.5e-05
308.15	0.8136	0.000577	3.1e-05
308.15	0.91	0.000566	3.1e-05
308.15	1	0.000553	3e-05

System: butan-1-ol + ethylbenzene; phases: Liquid
Fixed: Pressure, kPa = 101.325
Property: Speed of sound, m/s (Liquid); method: FPINT:UFactor:16
Temperature, K	Mole fraction of ethylbenzene	Speed of sound, m/s	uncertainty
298.15	0	1238	10
298.15	0.1035	1246	10
298.15	0.205	1256	10
298.15	0.3221	1264	10
298.15	0.365	1267	10
298.15	0.5071	1277	10
298.15	0.6494	1288	11
298.15	0.8136	1301	11
298.15	0.91	1307	11
298.15	1	1312	11
308.15	0	1211	10
308.15	0.1035	1217	10
308.15	0.205	1223	10
308.15	0.3221	1229	10
308.15	0.365	1231	10
308.15	0.5071	1239	10
308.15	0.6494	1249	10
308.15	0.8136	1262	10
308.15	0.91	1268	10
308.15	1	1276	10

System: butan-1-ol + ethylbenzene; phases: Liquid
Fixed: Pressure, kPa = 101.325
Property: Mass density, kg/m3 (Liquid); method: PYCNOM:UFactor:16
Temperature, K	Mole fraction of ethylbenzene	Mass density, kg/m3	uncertainty
298.15	0	807.7	3
298.15	0.1035	816.7	3.1
298.15	0.205	821.2	3.1
298.15	0.3221	828.1	3.1
298.15	0.365	831.1	3.1
298.15	0.5071	839.6	3.2
298.15	0.6494	845.7	3.2
298.15	0.8136	854.5	3.3
298.15	0.91	858.6	3.3
298.15	1	862	3.3
308.15	0	800.1	3.4
308.15	0.1035	808.9	3.4
308.15	0.205	815.3	3.4
308.15	0.3221	822	3.5
308.15	0.365	824.5	3.5
308.15	0.5071	832.1	3.5
308.15	0.6494	839.1	3.5
308.15	0.8136	846	3.6
308.15	0.91	852.6	3.6
308.15	1	855.5	3.6
