Measured thermophysical data. PVT Properties of Dinitrogen Monoxide
Source: J. Chem. Eng. Data, 2004, 10.1021/je049842u
Compound 1: nitrous oxide, N2O, InChI=1S/N2O/c1-2-3

System: nitrous oxide; phases: Liquid, Gas
Property: Vapor or sublimation pressure, kPa (Liquid); method: Closed cell (Static) method
Temperature, K	Vapor or sublimation pressure, kPa	uncertainty
219.24	554.7	1.3
222.28	626.3	1.4
223.31	652.8	1.5
227.32	759.6	1.6
227.36	760.6	1.6
232.37	912.1	2.2
232.43	915.4	2.2
237.49	1092.9	2.1
242.57	1294.7	2.4
247.65	1521.9	2.8
252.73	1777	3.2
257.8	2061.8	3.6
257.87	2065.4	3.6
262.9	2379	4.2
262.95	2381.8	4.2
267.98	2730.6	4.8
268.03	2734	4.8
273.08	3119.9	5.4

System: nitrous oxide; phases: Gas
Property: Compressibility factor (Gas); method: Burnett expansion method
Temperature, K	Pressure, kPa	Compressibility factor	uncertainty
283.5	207.4	0.9884	0.001
283.5	308.1	0.9809	0.001
283.5	456.3	0.9705	0.001
283.5	672.4	0.9554	0.001
283.5	983.6	0.9337	0.0009
283.5	1422.1	0.9019	0.0009
283.5	2020	0.8558	0.0009
283.5	2788.1	0.7891	0.0008
283.5	3680.3	0.6958	0.0007
283.51	170.6	0.9917	0.001
283.51	253.7	0.9848	0.001
283.51	376.3	0.9761	0.001
283.51	556.2	0.9636	0.001
283.51	816.9	0.9456	0.0009
283.51	1188.9	0.9193	0.0009
283.51	1705.3	0.8809	0.0009
283.51	2390.6	0.825	0.0008
283.51	3232.1	0.7451	0.0007
304.09	194	0.99	0.001
304.09	288.7	0.9846	0.001
304.09	429.3	0.9779	0.001
304.09	635.2	0.9666	0.001
304.09	935.6	0.9511	0.001
304.09	1366.6	0.9281	0.0009
304.09	1968.7	0.8932	0.0009
304.09	2781.3	0.843	0.0008
304.09	3812.3	0.772	0.0008
304.1	204	0.9912	0.001
304.1	303.6	0.9853	0.001
304.1	450.8	0.9772	0.001
304.1	666.7	0.9655	0.001
304.1	980.2	0.9484	0.001
304.1	1428.5	0.9233	0.0009
304.1	2054.5	0.8871	0.0009
304.1	2893.4	0.8347	0.0008
304.1	3945.6	0.7604	0.0008
314.41	193.8	0.9927	0.001
314.41	288.6	0.9878	0.001
314.41	429	0.9808	0.001
314.41	635.5	0.9706	0.001
314.41	936.8	0.9558	0.001
314.41	1371.3	0.9347	0.0009
314.41	1984.4	0.9036	0.0009
314.41	2822.9	0.8587	0.0009
314.41	3911.4	0.7949	0.0008
314.42	201.1	0.992	0.001
314.42	299.5	0.9869	0.001
314.42	445.1	0.9798	0.001
314.42	659.3	0.9696	0.001
314.42	971.5	0.9545	0.001
314.42	1420.6	0.9324	0.0009
314.42	2052.9	0.9001	0.0009
314.42	2915.1	0.8539	0.0009
314.42	4027.4	0.7881	0.0008
324.78	182.9	0.9923	0.001
324.78	272.8	0.9888	0.001
324.78	406.1	0.9831	0.001
324.78	602.6	0.9746	0.001
324.78	891.4	0.9631	0.001
324.78	1309.1	0.9449	0.0009
324.78	1904.7	0.9185	0.0009
324.78	2731.6	0.88	0.0009
324.78	3833.8	0.8251	0.0008
324.79	183.9	0.9933	0.001
324.79	274.1	0.9891	0.001
324.79	407.9	0.9833	0.001
324.79	605.3	0.9748	0.001
324.79	894.5	0.9623	0.001
324.79	1313.6	0.9441	0.0009
324.79	1910.8	0.9174	0.0009
324.79	2740	0.8789	0.0009
324.79	3845.5	0.824	0.0008
335.16	175.4	0.9949	0.001
335.16	261.7	0.9913	0.001
335.16	389.8	0.9864	0.001
335.16	579.2	0.9792	0.001
335.16	857.6	0.9686	0.001
335.16	1263.2	0.9531	0.001
335.16	1845.9	0.9304	0.0009
335.16	2665.8	0.8977	0.0009
335.16	3777.8	0.8498	0.0009
335.18	188.5	0.9942	0.001
335.18	281	0.9902	0.001
335.18	418.3	0.9847	0.001
335.18	621.3	0.9772	0.001
335.18	919.2	0.9658	0.001
335.18	1352.3	0.9492	0.001
335.18	1972.3	0.9248	0.0009
335.18	2839.6	0.8895	0.0009
335.18	4008.4	0.8389	0.0008
345.51	185.8	0.9943	0.001
345.51	277.2	0.991	0.001
345.51	413	0.9863	0.001
345.51	613.8	0.9794	0.001
345.51	909.5	0.9693	0.001
345.51	1340.3	0.9543	0.001
345.51	1960.2	0.9324	0.0009
345.51	2834.5	0.9008	0.0009
345.51	4029	0.8553	0.0009
345.58	184.6	0.9943	0.001
345.58	275.5	0.9911	0.001
345.58	410.4	0.9865	0.001
345.58	610.1	0.9797	0.001
345.58	903.9	0.9697	0.001
345.58	1332.3	0.9548	0.001
345.58	1949.3	0.9332	0.0009
345.58	2819.4	0.9017	0.0009
345.58	4008.9	0.8565	0.0009
364.36	207.6	0.9928	0.001
364.36	241.7	0.9925	0.001
364.36	309.9	0.9907	0.001
364.36	360.3	0.9889	0.001
364.36	462	0.9871	0.001
364.36	536.5	0.9843	0.001
364.36	687.1	0.9812	0.001
364.36	797.5	0.9779	0.001
364.36	1018.5	0.9723	0.001
364.36	1179.8	0.967	0.001
364.36	1502.7	0.9588	0.001
364.36	1737	0.9517	0.001
364.36	2201.5	0.9389	0.0009
364.36	2535.6	0.9285	0.0009
364.36	3191.1	0.9097	0.0009
364.36	3655.3	0.8947	0.0009
364.36	4555	0.8679	0.0009
364.36	5179.9	0.8475	0.0008
