Measured thermophysical data. Equilibrium Surface Tensions of Benzyl Alcohol + Ethylene Glycol Mixtures
Source: J. Chem. Eng. Data, 2005, 10.1021/je049591p
Compound 1: 1,2-ethanediol, C2H6O2, InChI=1S/C2H6O2/c3-1-2-4/h3-4H,1-2H2
Compound 2: benzenemethanol, C7H8O, InChI=1S/C7H8O/c8-6-7-4-2-1-3-5-7/h1-5,8H,6H2

System: 1,2-ethanediol; phases: Liquid, Gas
Property: Surface tension liquid-gas, N/m (Liquid); method: Ring tensiometer
Temperature, K	Surface tension liquid-gas, N/m	uncertainty
293.15	0.04842	0.00084
298.15	0.04803	0.00083
303.15	0.04757	0.00082
308.15	0.0472	0.00082
313.15	0.04678	0.00081
318.15	0.04642	0.0008
323.15	0.04602	0.0008

System: 1,2-ethanediol; phases: Liquid
Fixed: Pressure, kPa = 101.325
Property: Mass density, kg/m3 (Liquid); method: VIBTUB:UFactor:4
Temperature, K	Mass density, kg/m3	uncertainty
293.15	1113.34	1.02
298.15	1109.87	0.97
303.15	1106.36	0.93
308.15	1102.82	0.88
313.15	1098.39	0.84
318.15	1095.72	0.81
323.15	1091.05	0.77

System: benzenemethanol; phases: Liquid, Gas
Property: Surface tension liquid-gas, N/m (Liquid); method: Ring tensiometer
Temperature, K	Surface tension liquid-gas, N/m	uncertainty
293.15	0.03905	0.00071
298.15	0.03858	0.00071
303.15	0.03812	0.0007
308.15	0.03763	0.00069
313.15	0.03716	0.00068
318.15	0.03663	0.00068
323.15	0.03618	0.00067

System: benzenemethanol; phases: Liquid
Fixed: Pressure, kPa = 101.325
Property: Mass density, kg/m3 (Liquid); method: VIBTUB:UFactor:4
Temperature, K	Mass density, kg/m3	uncertainty
293.15	1045.2	1
298.15	1041.4	1
303.15	1037.5	0.9
308.15	1033.6	0.9
313.15	1029.8	0.8
318.15	1025.8	0.8
323.15	1021.9	0.8

System: benzenemethanol + 1,2-ethanediol; phases: Liquid, Gas
Property: Surface tension liquid-gas, N/m (Liquid); method: Ring tensiometer
Temperature, K	Mole fraction of benzenemethanol	Surface tension liquid-gas, N/m	uncertainty
293.15	0	0.04842	0.00084
293.15	0.0319	0.04778	0.00083
293.15	0.0535	0.04745	0.00082
293.15	0.0727	0.04713	0.00082
293.15	0.0854	0.04669	0.00081
293.15	0.1118	0.04587	0.0008
293.15	0.206	0.04407	0.00077
293.15	0.2633	0.04287	0.00076
293.15	0.3883	0.04153	0.00074
293.15	0.5596	0.04058	0.00073
293.15	0.7394	0.03944	0.00071
293.15	0.9101	0.03928	0.00071
293.15	1	0.03905	0.00071
298.15	0	0.04803	0.00083
298.15	0.0319	0.04735	0.00082
298.15	0.0535	0.04701	0.00081
298.15	0.0727	0.04667	0.00081
298.15	0.0854	0.04619	0.0008
298.15	0.1118	0.04543	0.00079
298.15	0.206	0.04361	0.00077
298.15	0.2633	0.04242	0.00075
298.15	0.3883	0.04107	0.00073
298.15	0.5596	0.04018	0.00072
298.15	0.7394	0.03895	0.00071
298.15	0.9101	0.03879	0.00071
298.15	1	0.03858	0.00071
303.15	0	0.04757	0.00082
303.15	0.0319	0.04692	0.00081
303.15	0.0535	0.04653	0.00081
303.15	0.0727	0.04615	0.0008
303.15	0.0854	0.04576	0.0008
303.15	0.1118	0.0449	0.00078
303.15	0.206	0.04308	0.00076
303.15	0.2633	0.04187	0.00074
303.15	0.3883	0.04061	0.00072
303.15	0.5596	0.03968	0.00071
303.15	0.7394	0.03845	0.0007
303.15	0.9101	0.0383	0.0007
303.15	1	0.03812	0.0007
308.15	0	0.0472	0.00082
308.15	0.0319	0.04654	0.00081
308.15	0.0535	0.04607	0.0008
308.15	0.0727	0.04572	0.0008
308.15	0.0854	0.04531	0.00079
308.15	0.1118	0.04446	0.00078
308.15	0.206	0.0426	0.00075
308.15	0.2633	0.04139	0.00073
308.15	0.3883	0.04014	0.00072
308.15	0.5596	0.03924	0.00071
308.15	0.7394	0.03794	0.00069
308.15	0.9101	0.03779	0.00069
308.15	1	0.03763	0.00069
313.15	0	0.04678	0.00081
313.15	0.0319	0.04614	0.0008
313.15	0.0535	0.04566	0.00079
313.15	0.0727	0.04526	0.00079
313.15	0.0854	0.04485	0.00078
313.15	0.1118	0.04404	0.00077
313.15	0.206	0.04212	0.00074
313.15	0.2633	0.04084	0.00072
313.15	0.3883	0.0397	0.00071
313.15	0.5596	0.03877	0.0007
313.15	0.7394	0.03751	0.00068
313.15	0.9101	0.03735	0.00068
313.15	1	0.03716	0.00068
318.15	0	0.04642	0.0008
318.15	0.0319	0.04571	0.00079
318.15	0.0535	0.04524	0.00079
318.15	0.0727	0.04486	0.00078
318.15	0.0854	0.04441	0.00078
318.15	0.1118	0.04353	0.00076
318.15	0.206	0.04167	0.00074
318.15	0.2633	0.0404	0.00072
318.15	0.3883	0.03924	0.0007
318.15	0.5596	0.03827	0.00069
318.15	0.7394	0.03699	0.00067
318.15	0.9101	0.03684	0.00068
318.15	1	0.03663	0.00068
323.15	0	0.04602	0.0008
323.15	0.0319	0.04526	0.00079
323.15	0.0535	0.04479	0.00078
323.15	0.0727	0.04432	0.00077
323.15	0.0854	0.04391	0.00077
323.15	0.1118	0.04306	0.00076
323.15	0.206	0.04116	0.00073
323.15	0.2633	0.0399	0.00071
323.15	0.3883	0.03876	0.00069
323.15	0.5596	0.03779	0.00068
323.15	0.7394	0.03653	0.00067
323.15	0.9101	0.03638	0.00067
323.15	1	0.03618	0.00067
