Measured thermophysical data. Critical Parameters Measurements of Four HFE + HFC Binary Systems: Pentafluoromethoxyethane (HFE-245Mc) + Pentafluoroethane (HFC-125), + 1,1,1,2-Tetrafluoroethane (HFC-134a), + 1,1,1,2,3,3,3-Heptafluoropropane (HFC-227ea), and + 1,1,1,2,3,3-Hexafluoropropane (HFC-236ea)
Source: J. Chem. Eng. Data, 2004, 10.1021/je0499420
Compound 1: methyl pentafluoroethyl ether, C3H3F5O, InChI=1S/C3H3F5O/c1-9-3(7,8)2(4,5)6/h1H3
Compound 2: pentafluoroethane, C2HF5, InChI=1S/C2HF5/c3-1(4)2(5,6)7/h1H
Compound 3: 1,1,1,2-tetrafluoroethane, C2H2F4, InChI=1S/C2H2F4/c3-1-2(4,5)6/h1H2
Compound 4: 1,1,1,2,3,3,3-heptafluoropropane, C3HF7, InChI=1S/C3HF7/c4-1(2(5,6)7)3(8,9)10/h1H
Compound 5: 1,1,1,2,3,3-hexafluoropropane, C3H2F6, InChI=1S/C3H2F6/c4-1(2(5)6)3(7,8)9/h1-2H

System: methyl pentafluoroethyl ether; phases: Liquid, Gas
Property: Critical pressure, kPa (Liquid); method: Direct measurement
Critical pressure, kPa	uncertainty
2885	12

System: methyl pentafluoroethyl ether; phases: Liquid, Gas
Property: Critical temperature, K (Liquid); method: Visual observation in an unstirred cell
Critical temperature, K	uncertainty
406.82	0.16

System: methyl pentafluoroethyl ether; phases: Liquid, Gas
Property: Critical density, kg/m3 (Liquid); method: OTHER
Critical density, kg/m3	uncertainty
491	11

System: pentafluoroethane; phases: Liquid, Gas
Property: Critical pressure, kPa (Liquid); method: Direct measurement
Critical pressure, kPa	uncertainty
3617	12

System: pentafluoroethane; phases: Liquid, Gas
Property: Critical temperature, K (Liquid); method: Visual observation in an unstirred cell
Critical temperature, K	uncertainty
339.2	0.16

System: pentafluoroethane; phases: Liquid, Gas
Property: Critical density, kg/m3 (Liquid); method: OTHER
Critical density, kg/m3	uncertainty
560	13

System: 1,1,1,2-tetrafluoroethane; phases: Liquid, Gas
Property: Critical pressure, kPa (Liquid); method: Direct measurement
Critical pressure, kPa	uncertainty
4053	12

System: 1,1,1,2-tetrafluoroethane; phases: Liquid, Gas
Property: Critical temperature, K (Liquid); method: Visual observation in an unstirred cell
Critical temperature, K	uncertainty
374.13	0.16

System: 1,1,1,2-tetrafluoroethane; phases: Liquid, Gas
Property: Critical density, kg/m3 (Liquid); method: OTHER
Critical density, kg/m3	uncertainty
508	12

System: 1,1,1,2,3,3,3-heptafluoropropane; phases: Liquid, Gas
Property: Critical pressure, kPa (Liquid); method: Direct measurement
Critical pressure, kPa	uncertainty
2930	12

System: 1,1,1,2,3,3,3-heptafluoropropane; phases: Liquid, Gas
Property: Critical temperature, K (Liquid); method: Visual observation in an unstirred cell
Critical temperature, K	uncertainty
375	0.16

System: 1,1,1,2,3,3,3-heptafluoropropane; phases: Liquid, Gas
Property: Critical density, kg/m3 (Liquid); method: OTHER
Critical density, kg/m3	uncertainty
598	14

System: 1,1,1,2,3,3-hexafluoropropane; phases: Liquid, Gas
Property: Critical pressure, kPa (Liquid); method: Direct measurement
Critical pressure, kPa	uncertainty
3416	12

System: 1,1,1,2,3,3-hexafluoropropane; phases: Liquid, Gas
Property: Critical temperature, K (Liquid); method: Visual observation in an unstirred cell
Critical temperature, K	uncertainty
412.41	0.16

System: 1,1,1,2,3,3-hexafluoropropane; phases: Liquid, Gas
Property: Critical density, kg/m3 (Liquid); method: OTHER
Critical density, kg/m3	uncertainty
562	13

System: pentafluoroethane + methyl pentafluoroethyl ether; phases: Liquid, Gas
Property: Critical pressure, kPa (Liquid); method: Direct measurement
Mole fraction of methyl pentafluoroethyl ether	Critical pressure, kPa	uncertainty
0	3617	12
0.1408	3714	12
0.2438	3720	12
0.4346	3634	12
0.5897	3483	12
0.7753	3232	12
1	2885	12

System: pentafluoroethane + methyl pentafluoroethyl ether; phases: Liquid, Gas
Property: Critical temperature, K (Liquid); method: Visual observation in an unstirred cell
Mole fraction of methyl pentafluoroethyl ether	Critical temperature, K	uncertainty
0	339.2	0.16
0.1408	351.46	0.16
0.2438	359.55	0.16
0.4346	373.59	0.16
0.5897	383.83	0.16
0.7753	395.14	0.16
1	406.82	0.16

System: pentafluoroethane + methyl pentafluoroethyl ether; phases: Liquid, Gas
Property: Critical density, kg/m3 (Liquid); method: OTHER
Mole fraction of methyl pentafluoroethyl ether	Critical density, kg/m3	uncertainty
0	560	13
0.1408	551	13
0.2438	543	13
0.4346	540	13
0.5897	536	12
0.7753	521	12
1	491	11

System: 1,1,1,2-tetrafluoroethane + methyl pentafluoroethyl ether; phases: Liquid, Gas
Property: Critical pressure, kPa (Liquid); method: Direct measurement
Mole fraction of methyl pentafluoroethyl ether	Critical pressure, kPa	uncertainty
0	4053	12
0.1167	3929	12
0.2446	3796	12
0.4299	3601	12
0.5886	3414	12
0.7674	3197	12
1	2885	12

System: 1,1,1,2-tetrafluoroethane + methyl pentafluoroethyl ether; phases: Liquid, Gas
Property: Critical temperature, K (Liquid); method: Visual observation in an unstirred cell
Mole fraction of methyl pentafluoroethyl ether	Critical temperature, K	uncertainty
0	374.13	0.16
0.1167	377.73	0.16
0.2446	381.88	0.16
0.4299	388.22	0.16
0.5886	393.69	0.16
0.7674	399.47	0.16
1	406.82	0.16

System: 1,1,1,2-tetrafluoroethane + methyl pentafluoroethyl ether; phases: Liquid, Gas
Property: Critical density, kg/m3 (Liquid); method: OTHER
Mole fraction of methyl pentafluoroethyl ether	Critical density, kg/m3	uncertainty
0	508	12
0.1167	508	12
0.2446	512	12
0.4299	509	12
0.5886	506	12
0.7674	503	12
1	491	11

System: 1,1,1,2,3,3,3-heptafluoropropane + methyl pentafluoroethyl ether; phases: Liquid, Gas
Property: Critical pressure, kPa (Liquid); method: Direct measurement
Mole fraction of methyl pentafluoroethyl ether	Critical pressure, kPa	uncertainty
0	2930	12
0.1823	2952	12
0.306	2959	12
0.4769	2958	12
0.6944	2941	12
0.8132	2923	12
1	2885	12

System: 1,1,1,2,3,3,3-heptafluoropropane + methyl pentafluoroethyl ether; phases: Liquid, Gas
Property: Critical temperature, K (Liquid); method: Visual observation in an unstirred cell
Mole fraction of methyl pentafluoroethyl ether	Critical temperature, K	uncertainty
0	375	0.16
0.1823	381.1	0.16
0.306	385.17	0.16
0.4769	390.66	0.16
0.6944	397.47	0.16
0.8132	401.1	0.16
1	406.82	0.16

System: 1,1,1,2,3,3,3-heptafluoropropane + methyl pentafluoroethyl ether; phases: Liquid, Gas
Property: Critical density, kg/m3 (Liquid); method: OTHER
Mole fraction of methyl pentafluoroethyl ether	Critical density, kg/m3	uncertainty
0	598	14
0.1823	584	14
0.306	558	13
0.4769	545	13
0.6944	531	12
0.8132	519	12
1	491	11

System: 1,1,1,2,3,3-hexafluoropropane + methyl pentafluoroethyl ether; phases: Liquid, Gas
Property: Critical pressure, kPa (Liquid); method: Direct measurement
Mole fraction of methyl pentafluoroethyl ether	Critical pressure, kPa	uncertainty
0	3416	12
0.1546	3322	12
0.3124	3233	12
0.4485	3157	12
0.6388	3059	12
0.7888	2985	12
1	2885	12

System: 1,1,1,2,3,3-hexafluoropropane + methyl pentafluoroethyl ether; phases: Liquid, Gas
Property: Critical temperature, K (Liquid); method: Visual observation in an unstirred cell
Mole fraction of methyl pentafluoroethyl ether	Critical temperature, K	uncertainty
0	412.41	0.16
0.1546	410.97	0.16
0.3124	409.73	0.16
0.4485	408.82	0.16
0.6388	407.86	0.16
0.7888	407.29	0.16
1	406.82	0.16

System: 1,1,1,2,3,3-hexafluoropropane + methyl pentafluoroethyl ether; phases: Liquid, Gas
Property: Critical density, kg/m3 (Liquid); method: OTHER
Mole fraction of methyl pentafluoroethyl ether	Critical density, kg/m3	uncertainty
0	562	13
0.1546	550	13
0.3124	535	12
0.4485	534	12
0.6388	520	12
0.7888	506	12
1	491	11
