Measured thermophysical data. Thermal Conductivity of Some Oxygenated Fuels and Additives in the Saturated Liquid Phase
Source: J. Chem. Eng. Data, 2005, 10.1021/je049818g
Compound 1: toluene, C7H8, InChI=1S/C7H8/c1-7-5-3-2-4-6-7/h2-6H,1H3, purity 99.9%
Compound 2: 2-butoxyethan-1-ol, C6H14O2, InChI=1S/C6H14O2/c1-2-3-5-8-6-4-7/h7H,2-6H2,1H3, purity 99%
Compound 3: dimethyl ether, C2H6O, InChI=1S/C2H6O/c1-3-2/h1-2H3, purity 99.95%
Compound 4: butanone, C4H8O, InChI=1S/C4H8O/c1-3-4(2)5/h3H2,1-2H3, purity 99%

System: toluene; phases: Liquid, Gas
Property: Thermal conductivity, W/m/K (Liquid); method: Hot wire method
Temperature, K	Thermal conductivity, W/m/K	uncertainty
234.6	0.1477	0.0059
254.58	0.1434	0.0058
273.17	0.1374	0.0055
293.23	0.1334	0.0054
314.68	0.1264	0.0051
334.99	0.1211	0.0049
354.89	0.1136	0.0046
373.92	0.1105	0.0044

System: 2-butoxyethan-1-ol; phases: Liquid, Gas
Property: Thermal conductivity, W/m/K (Liquid); method: Hot wire method
Temperature, K	Thermal conductivity, W/m/K	uncertainty
283.96	0.1381	0.0056
293.67	0.1365	0.0055
303.56	0.135	0.0054
314.25	0.1333	0.0054
323.88	0.1319	0.0053
333.98	0.1305	0.0053
344.05	0.129	0.0052
354.63	0.1272	0.0051
363.59	0.1258	0.0051
373.84	0.1241	0.005

System: dimethyl ether; phases: Liquid, Gas
Property: Thermal conductivity, W/m/K (Liquid); method: Hot wire method
Temperature, K	Thermal conductivity, W/m/K	uncertainty
229.67	0.1832	0.0074
244.98	0.1762	0.0071
254.6	0.1701	0.0068
271.55	0.1605	0.0064
281.76	0.1537	0.0062
291.33	0.1485	0.006

System: butanone; phases: Liquid, Gas
Property: Thermal conductivity, W/m/K (Liquid); method: Hot wire method
Temperature, K	Thermal conductivity, W/m/K	uncertainty
284.48	0.1501	0.006
294.42	0.1481	0.006
305.02	0.1459	0.0059
314.26	0.1435	0.0058
323.96	0.1414	0.0057
334.71	0.139	0.0056
344.54	0.1362	0.0055
354.33	0.1334	0.0054
364.46	0.1308	0.0053
374.56	0.1284	0.0052
