Measured thermophysical data. Quaternary Liquid-Liquid Equilibrium of Water + Acetic Acid +  Propionic Acid + Solvent (Amyl Alcohol, Cyclohexyl Acetate, or  Toluene) Systems
Source: J. Chem. Eng. Data, 2004, 10.1021/je049848j
Compound 1: acetic acid, C2H4O2, InChI=1S/C2H4O2/c1-2(3)4/h1H3,(H,3,4), purity 100%
Compound 2: propanoic acid, C3H6O2, InChI=1S/C3H6O2/c1-2-3(4)5/h2H2,1H3,(H,4,5), purity 99.99%
Compound 3: pentan-1-ol, C5H12O, InChI=1S/C5H12O/c1-2-3-4-5-6/h6H,2-5H2,1H3, purity 99%
Compound 4: cyclohexyl ethanoate, C8H14O2, InChI=1S/C8H14O2/c1-7(9)10-8-5-3-2-4-6-8/h8H,2-6H2,1H3, purity 98%
Compound 5: toluene, C7H8, InChI=1S/C7H8/c1-7-5-3-2-4-6-7/h2-6H,1H3, purity 99%

System: acetic acid; phases: Liquid
Property: Refractive index (Na D-line) (Liquid); method: Standard Abbe refractometry
Temperature, K	Pressure, kPa	Refractive index (Na D-line)	uncertainty
293	101.325	1.372	0.0011

System: acetic acid; phases: Liquid
Property: Mass density, kg/m3 (Liquid); method: Vibrating tube method
Temperature, K	Pressure, kPa	Mass density, kg/m3	uncertainty
293	101.325	1049.5	0.5

System: acetic acid; phases: Liquid, Gas
Property: Normal boiling temperature, K (Liquid); method: Fischer boiling apparatus
Normal boiling temperature, K	uncertainty
390.85	0.2

System: propanoic acid; phases: Liquid
Property: Refractive index (Na D-line) (Liquid); method: Standard Abbe refractometry
Temperature, K	Pressure, kPa	Refractive index (Na D-line)	uncertainty
293	101.325	1.3811	0.0011

System: propanoic acid; phases: Liquid
Property: Mass density, kg/m3 (Liquid); method: Vibrating tube method
Temperature, K	Pressure, kPa	Mass density, kg/m3	uncertainty
293	101.325	992.5	0.5

System: propanoic acid; phases: Liquid, Gas
Property: Normal boiling temperature, K (Liquid); method: Fischer boiling apparatus
Normal boiling temperature, K	uncertainty
414.05	0.2

System: pentan-1-ol; phases: Liquid
Property: Refractive index (Na D-line) (Liquid); method: Standard Abbe refractometry
Temperature, K	Pressure, kPa	Refractive index (Na D-line)	uncertainty
293	101.325	1.4104	0.0011

System: pentan-1-ol; phases: Liquid
Property: Mass density, kg/m3 (Liquid); method: Vibrating tube method
Temperature, K	Pressure, kPa	Mass density, kg/m3	uncertainty
293	101.325	814	0.5

System: pentan-1-ol; phases: Liquid, Gas
Property: Normal boiling temperature, K (Liquid); method: Fischer boiling apparatus
Normal boiling temperature, K	uncertainty
411.15	0.2

System: cyclohexyl ethanoate; phases: Liquid
Property: Refractive index (Na D-line) (Liquid); method: Standard Abbe refractometry
Temperature, K	Pressure, kPa	Refractive index (Na D-line)	uncertainty
293	101.325	1.4398	0.0011

System: cyclohexyl ethanoate; phases: Liquid
Property: Mass density, kg/m3 (Liquid); method: Vibrating tube method
Temperature, K	Pressure, kPa	Mass density, kg/m3	uncertainty
293	101.325	969.2	0.9

System: cyclohexyl ethanoate; phases: Liquid, Gas
Property: Normal boiling temperature, K (Liquid); method: Fischer boiling apparatus
Normal boiling temperature, K	uncertainty
445.75	0.2

System: toluene; phases: Liquid
Property: Refractive index (Na D-line) (Liquid); method: Standard Abbe refractometry
Temperature, K	Pressure, kPa	Refractive index (Na D-line)	uncertainty
293	101.325	1.496	0.0011

System: toluene; phases: Liquid
Property: Mass density, kg/m3 (Liquid); method: Vibrating tube method
Temperature, K	Pressure, kPa	Mass density, kg/m3	uncertainty
293	101.325	867.3	0.5

System: toluene; phases: Liquid, Gas
Property: Normal boiling temperature, K (Liquid); method: Fischer boiling apparatus
Normal boiling temperature, K	uncertainty
383.45	0.2
