Measured thermophysical data. Solubility of 11r-Hydroxy-16r,17r-Epoxyprogesterone in Different Solvents between 283 K and 323 K
Source: J. Chem. Eng. Data, 2005, 10.1021/je0495435
Compound 1: 11.alpha.-hydroxy-16.alpha.,17.alpha.-epoxyprogesterone, C21H28O4, InChI=1S/C21H28O4/c1-11(22)21-17(25-21)9-15-14-5-4-12-8-13(23)6-7-19(12,2)18(14)16(24)10-20(15,21)3/h8,14-18,24H,4-7,9-10H2,1-3H3/t14-,15-,16+,17+,18+,19-,20-,21+/m0/s1
Compound 2: methanol, CH4O, InChI=1S/CH4O/c1-2/h2H,1H3
Compound 3: ethanol, C2H6O, InChI=1S/C2H6O/c1-2-3/h3H,2H2,1H3
Compound 4: acetone, C3H6O, InChI=1S/C3H6O/c1-3(2)4/h1-2H3
Compound 5: ethyl acetate, C4H8O2, InChI=1S/C4H8O2/c1-3-6-4(2)5/h3H2,1-2H3
Compound 6: acetic acid, C2H4O2, InChI=1S/C2H4O2/c1-2(3)4/h1H3,(H,3,4)

System: ethanol + 11.alpha.-hydroxy-16.alpha.,17.alpha.-epoxyprogesterone; phases: Liquid, Crystal
Fixed: Pressure, kPa = 101
Property: Mole fraction of 11.alpha.-hydroxy-16.alpha.,17.alpha.-epoxyprogesterone (Liquid); method: laser monitoring observation technique
Temperature, K	Mole fraction of 11.alpha.-hydroxy-16.alpha.,17.alpha.-epoxyprogesterone	uncertainty
283.38	0.0004817	2.08e-05
287.57	0.0005563	2.4e-05
293.56	0.0006723	2.9e-05
298.2	0.0007946	3.43e-05
303.6	0.0009534	4.12e-05
308.06	0.001106	4.8e-05
308.55	0.001133	4.9e-05
313.3	0.001323	5.7e-05
318.78	0.001601	6.9e-05
324.6	0.001882	8.1e-05

System: methanol + 11.alpha.-hydroxy-16.alpha.,17.alpha.-epoxyprogesterone; phases: Liquid, Crystal
Fixed: Pressure, kPa = 101
Property: Mole fraction of 11.alpha.-hydroxy-16.alpha.,17.alpha.-epoxyprogesterone (Liquid); method: laser monitoring observation technique
Temperature, K	Mole fraction of 11.alpha.-hydroxy-16.alpha.,17.alpha.-epoxyprogesterone	uncertainty
284.57	0.0005982	2.76e-05
289.1	0.0006772	3.13e-05
293.35	0.0007822	3.61e-05
298.07	0.0009242	4.27e-05
302.85	0.001083	5e-05
308.05	0.001268	5.9e-05
312.57	0.001459	6.7e-05
318.01	0.001713	7.9e-05
322.56	0.002007	9.3e-05

System: acetone + 11.alpha.-hydroxy-16.alpha.,17.alpha.-epoxyprogesterone; phases: Liquid, Crystal
Fixed: Pressure, kPa = 101
Property: Mole fraction of 11.alpha.-hydroxy-16.alpha.,17.alpha.-epoxyprogesterone (Liquid); method: laser monitoring observation technique
Temperature, K	Mole fraction of 11.alpha.-hydroxy-16.alpha.,17.alpha.-epoxyprogesterone	uncertainty
283.37	0.001115	4.7e-05
288.25	0.001254	5.3e-05
292.05	0.001356	5.7e-05
293	0.001421	6e-05
298.35	0.001628	6.8e-05
303.6	0.001898	8e-05
308.5	0.002163	9.1e-05
313.25	0.002463	0.000103
318.75	0.00277	0.000116
323.65	0.003108	0.000131

System: ethyl acetate + 11.alpha.-hydroxy-16.alpha.,17.alpha.-epoxyprogesterone; phases: Liquid, Crystal
Fixed: Pressure, kPa = 101
Property: Mole fraction of 11.alpha.-hydroxy-16.alpha.,17.alpha.-epoxyprogesterone (Liquid); method: laser monitoring observation technique
Temperature, K	Mole fraction of 11.alpha.-hydroxy-16.alpha.,17.alpha.-epoxyprogesterone	uncertainty
281.77	0.0006591	2.7e-05
285.7	0.0007348	3.01e-05
290.45	0.0008238	3.37e-05
294.55	0.0009128	3.74e-05
298.53	0.0010366	4.25e-05
303.77	0.001193	4.9e-05
308.39	0.001354	5.5e-05
312.6	0.00154	6.3e-05
317.67	0.001741	7.1e-05
322.37	0.001957	8e-05

System: acetic acid + 11.alpha.-hydroxy-16.alpha.,17.alpha.-epoxyprogesterone; phases: Liquid, Crystal
Fixed: Pressure, kPa = 101
Property: Mole fraction of 11.alpha.-hydroxy-16.alpha.,17.alpha.-epoxyprogesterone (Liquid); method: laser monitoring observation technique
Temperature, K	Mole fraction of 11.alpha.-hydroxy-16.alpha.,17.alpha.-epoxyprogesterone	uncertainty
293.4	0.005377	0.000225
295.9	0.005636	0.000236
298.67	0.005974	0.00025
301.67	0.00651	0.000273
304.6	0.006989	0.000293
307.9	0.00767	0.000322
311.8	0.00842	0.000353
314.85	0.009242	0.000388
318.5	0.01034	0.00043
322.9	0.01155	0.00048
