Measured thermophysical data. Densities, Viscosities, and Derived Functions of Binary Mixtures: (Tetraethylene Glycol Dimethyl Ether + Water) from 298.15 K to 343.15 K
Source: J. Chem. Eng. Data, 2004, 10.1021/je049788h
Compound 1: 2,5,8,11,14-pentaoxapentadecane, C10H22O5, InChI=1S/C10H22O5/c1-11-3-5-13-7-9-15-10-8-14-6-4-12-2/h3-10H2,1-2H3
Compound 2: water, H2O, InChI=1S/H2O/h1H2

System: 2,5,8,11,14-pentaoxapentadecane; phases: Liquid
Fixed: Pressure, kPa = 101.3
Property: Viscosity, Pa*s (Liquid); method: Capillary tube (Ostwald; Ubbelohde) method
Temperature, K	Viscosity, Pa*s	uncertainty
298.15	0.00338	4e-05
313.15	0.00242	3e-05
323.15	0.002004	2.6e-05
333.15	0.00169	2e-05
343.15	0.00142	2e-05

System: 2,5,8,11,14-pentaoxapentadecane; phases: Liquid
Fixed: Pressure, kPa = 101.3
Property: Mass density, kg/m3 (Liquid); method: Vibrating tube method
Temperature, K	Mass density, kg/m3	uncertainty
298.15	1006.65	0.51
313.15	993.28	0.51
323.15	984.05	0.5
333.15	974.8	0.5
343.15	965.55	0.49

System: 2,5,8,11,14-pentaoxapentadecane + water; phases: Liquid
Fixed: Pressure, kPa = 101.3
Property: Viscosity, Pa*s (Liquid); method: Capillary tube (Ostwald; Ubbelohde) method
Temperature, K	Mole fraction of 2,5,8,11,14-pentaoxapentadecane	Viscosity, Pa*s	uncertainty
298.15	0.0199	0.00311	9e-05
298.15	0.051	0.00404	0.00011
298.15	0.1066	0.00617	0.00016
298.15	0.195	0.00622	0.00015
298.15	0.3008	0.00529	0.00012
298.15	0.4088	0.00459	0.0001
298.15	0.5116	0.00414	8e-05
298.15	0.6252	0.00381	7e-05
298.15	0.7016	0.00365	6e-05
298.15	0.8037	0.00351	5e-05
298.15	0.9044	0.00341	5e-05
298.15	0.9505	0.00337	5e-05
298.15	1	0.00338	4e-05
313.15	0.0199	0.00211	6e-05
313.15	0.051	0.00264	7e-05
313.15	0.1066	0.00362	0.0001
313.15	0.195	0.00377	9e-05
313.15	0.3008	0.00339	8e-05
313.15	0.4088	0.00308	6e-05
313.15	0.5116	0.00282	5e-05
313.15	0.6252	0.00265	5e-05
313.15	0.7016	0.00257	4e-05
313.15	0.8037	0.00249	4e-05
313.15	0.9044	0.00244	3e-05
313.15	0.9505	0.00242	3e-05
313.15	1	0.00242	3e-05
323.15	0.0199	0.00171	5e-05
323.15	0.051	0.00212	6e-05
323.15	0.1066	0.0027	7e-05
323.15	0.195	0.00286	7e-05
323.15	0.3008	0.00263	6e-05
323.15	0.4088	0.00242	5e-05
323.15	0.5116	0.00226	4e-05
323.15	0.6252	0.00215	4e-05
323.15	0.7016	0.0021	3e-05
323.15	0.8037	0.00206	3.1e-05
323.15	0.9044	0.00201	2.8e-05
323.15	0.9505	0.002002	2.7e-05
323.15	1	0.002004	2.6e-05
333.15	0.0199	0.00141	4e-05
333.15	0.051	0.00169	5e-05
333.15	0.1066	0.00208	5e-05
333.15	0.195	0.00224	5e-05
333.15	0.3008	0.00212	5e-05
333.15	0.4088	0.00197	4e-05
333.15	0.5116	0.00186	4e-05
333.15	0.6252	0.00178	3e-05
333.15	0.7016	0.00175	3e-05
333.15	0.8037	0.00173	3e-05
333.15	0.9044	0.00169	2e-05
333.15	0.9505	0.00169	2e-05
333.15	1	0.00169	2e-05
343.15	0.0199	0.00118	3e-05
343.15	0.051	0.00141	4e-05
343.15	0.1066	0.00167	4e-05
343.15	0.195	0.0018	4e-05
343.15	0.3008	0.00173	4e-05
343.15	0.4088	0.00165	3e-05
343.15	0.5116	0.00156	3e-05
343.15	0.6252	0.00151	3e-05
343.15	0.7016	0.0015	2e-05
343.15	0.8037	0.00147	2e-05
343.15	0.9044	0.00145	2e-05
343.15	0.9505	0.00141	2e-05
343.15	1	0.00142	2e-05

System: 2,5,8,11,14-pentaoxapentadecane + water; phases: Liquid
Fixed: Pressure, kPa = 101.3
Property: Mass density, kg/m3 (Liquid); method: Vibrating tube method
Temperature, K	Mole fraction of 2,5,8,11,14-pentaoxapentadecane	Mass density, kg/m3	uncertainty
298.15	0.0199	1013.95	2.62
298.15	0.051	1020.21	2.57
298.15	0.1066	1038.9	2.49
298.15	0.195	1033.66	2.28
298.15	0.3008	1026.07	2.03
298.15	0.4088	1020.42	1.78
298.15	0.5116	1016.56	1.55
298.15	0.6252	1013.52	1.3
298.15	0.7016	1011.64	1.14
298.15	0.8037	1009.81	0.92
298.15	0.9044	1008.44	0.71
298.15	0.9505	1007.83	0.62
298.15	1	1006.65	0.51
313.15	0.0199	1006.73	2.61
313.15	0.051	1011.89	2.55
313.15	0.1066	1025.7	2.46
313.15	0.195	1019.8	2.25
313.15	0.3008	1012.12	2
313.15	0.4088	1006.46	1.75
313.15	0.5116	1002.6	1.53
313.15	0.6252	999.55	1.28
313.15	0.7016	997.66	1.12
313.15	0.8037	995.86	0.91
313.15	0.9044	994.51	0.7
313.15	0.9505	993.92	0.61
313.15	1	993.28	0.51
323.15	0.0199	1001.25	2.59
323.15	0.051	1005.7	2.53
323.15	0.1066	1016.67	2.41
323.15	0.195	1010.4	2.23
323.15	0.3008	1002.75	1.98
323.15	0.4088	997.07	1.74
323.15	0.5116	993.21	1.51
323.15	0.6252	990.2	1.27
323.15	0.7016	988.33	1.11
323.15	0.8037	985.65	0.9
323.15	0.9044	985.23	0.69
323.15	0.9505	984.67	0.6
323.15	1	984.05	0.5
333.15	0.0199	995.13	2.58
333.15	0.051	999.35	2.52
333.15	0.1066	1007.47	2.42
333.15	0.195	1000.92	2.21
333.15	0.3008	993.27	1.96
333.15	0.4088	987.6	1.72
333.15	0.5116	983.77	1.5
333.15	0.6252	980.79	1.26
333.15	0.7016	978.95	1.1
333.15	0.8037	977.24	0.89
333.15	0.9044	975.95	0.69
333.15	0.9505	975.4	0.6
333.15	1	974.8	0.5
343.15	0.0199	988.58	2.56
343.15	0.051	991.92	2.5
343.15	0.1066	998.09	2.39
343.15	0.195	991.28	2.19
343.15	0.3008	983.67	1.94
343.15	0.4088	978.07	1.7
343.15	0.5116	974.27	1.48
343.15	0.6252	971.34	1.25
343.15	0.7016	969.56	1.09
343.15	0.8037	967.88	0.88
343.15	0.9044	966.66	0.68
343.15	0.9505	966.13	0.59
343.15	1	965.55	0.49
