Measured thermophysical data. Experimental P-T-G Measurements of Carbon Dioxide and 1,1-Difluoroethene Mixtures
Source: J. Chem. Eng. Data, 2005, 10.1021/je0499770
Compound 1: carbon dioxide, CO2, InChI=1S/CO2/c2-1-3, purity 99.99%
Compound 2: 1,1-difluoroethane, C2H4F2, InChI=1S/C2H4F2/c1-2(3)4/h2H,1H3, purity 99.8%

System: 1,1-difluoroethane + carbon dioxide; phases: Gas
Property: Amount density, mol/m3 (Gas); method: ISOCHOR
Mole fraction of carbon dioxide	Temperature, K	Pressure, kPa	Amount density, mol/m3	uncertainty
0.26206	311.5	7020	9120	70
0.26206	316.5	7880	9120	60
0.26206	322	8810	9120	50
0.26206	325.4	9360	9120	30
0.26206	325.4	9400	9120	50
0.26206	333.2	10680	9120	40
0.26206	335.9	11170	9120	40
0.26206	338.2	11510	9120	40
0.26206	338.7	11630	9120	40
0.26206	342.3	12240	9120	30
0.26206	347.6	13060	9120	40
0.26206	351.5	13710	9120	30
0.45026	311.5	9070	11460	120
0.45026	315.9	10140	11460	110
0.45026	320.9	11370	11460	100
0.45026	325.4	12500	11460	80
0.45026	331.5	14010	11460	70
0.45026	335.4	15040	11460	60
0.45026	340.9	16440	11460	50
0.45026	345.4	17430	11460	40
0.45026	347	17860	11460	50
0.45026	352.6	19150	11460	40
0.45026	353.2	19330	11460	40
0.45026	356.5	20190	11460	60
0.45026	359.8	20960	11460	40
0.46606	314.8	9180	10900	120
0.46606	317.6	9770	10900	110
0.46606	321.5	10640	10900	100
0.46606	327	11870	10900	90
0.46606	332	12930	10900	70
0.46606	339.8	14610	10900	60
0.46606	340.9	14880	10900	60
0.46606	347.6	16320	10900	50
0.46606	351.5	16950	10900	50
0.46606	356.5	18210	10900	40
0.46606	360.9	19200	10900	50
0.46606	361.5	19220	10900	40
0.54111	312	12060	13380	100
0.54111	317	13620	13380	90
0.54111	318.2	13970	13380	90
0.54111	319.8	14580	13380	90
0.54111	324.8	16310	13380	70
0.54111	326.5	16770	13380	70
0.54111	328.2	17340	13380	40
0.54111	329.5	17670	13380	60
0.54111	330.4	17940	13380	60
0.54111	331.5	18370	13380	60
0.54111	332.3	18610	13380	60
0.54111	333.2	18900	13380	60
0.54111	334.3	19240	13380	60
0.54111	334.8	19450	13380	60
0.54111	336.2	19870	13380	60
0.54111	338.4	20630	13380	50
0.54111	339.3	20920	13380	50
0.54936	310.9	8510	10940	90
0.54936	312.6	8840	10940	90
0.54936	327	11960	10940	100
0.54936	328.4	12200	10940	60
0.54936	328.4	12230	10940	60
0.54936	334	13430	10940	90
0.54936	342.9	15370	10940	70
0.54936	356.5	18260	10940	60
0.54936	365.9	20200	10940	50
0.54936	367	20500	10940	50
0.67361	311.5	9360	12010	260
0.67361	319.8	11360	12010	160
0.67361	322.6	12020	12010	50
0.67361	327.3	13270	12010	50
0.67361	328.2	13410	12010	50
0.67361	330.7	14030	12010	40
0.67361	332	14340	12010	40
0.67361	336.5	15490	12010	40
0.67361	341.5	16630	12010	40
0.67361	346.5	17880	12010	30
0.67361	350.9	18940	12010	30
0.67361	356.2	20230	12010	30
0.81644	310.9	8750	10950	60
0.81644	315.7	9690	10950	60
0.81644	321.5	10820	10950	50
0.81644	325.9	11680	10950	50
0.81644	331.5	12790	10950	40
0.81644	336.5	13790	10950	40
0.81644	342.6	14930	10950	40
0.81644	347.6	15810	10950	40
0.81644	352.6	16820	10950	30
0.81644	355.9	17450	10950	30
