Measured thermophysical data. Solid-Liquid Equilibria for 3-Aminophenol + 2-Aminophenol, 4-(Acetylamino)toluene + 2-(Acetylamino)toluene, and 3,4,5-Trimethoxybenzoic Acid + 2,4,5-Trimethoxybenzoic Acid
Source: J. Chem. Eng. Data, 2005, 10.1021/je049878m
Compound 1: 2-hydroxybenzenamine, C6H7NO, InChI=1S/C6H7NO/c7-5-3-1-2-4-6(5)8/h1-4,8H,7H2
Compound 2: 3-hydroxybenzenamine, C6H7NO, InChI=1S/C6H7NO/c7-5-2-1-3-6(8)4-5/h1-4,8H,7H2
Compound 3: o-acetotoluide, C9H11NO, InChI=1S/C9H11NO/c1-7-5-3-4-6-9(7)10-8(2)11/h3-6H,1-2H3,(H,10,11)
Compound 4: 1-acetamido-4-methylbenzene, C9H11NO, InChI=1S/C9H11NO/c1-7-3-5-9(6-4-7)10-8(2)11/h3-6H,1-2H3,(H,10,11)
Compound 5: 2,4,5-trimethoxybenzoic acid, C10H12O5, InChI=1S/C10H12O5/c1-13-7-5-9(15-3)8(14-2)4-6(7)10(11)12/h4-5H,1-3H3,(H,11,12)
Compound 6: 3,4,5-trimethoxybenzoic acid, C10H12O5, InChI=1S/C10H12O5/c1-13-7-4-6(10(11)12)5-8(14-2)9(7)15-3/h4-5H,1-3H3,(H,11,12)

System: 2-hydroxybenzenamine; phases: Crystal, Liquid, Air at 1 atmosphere
Property: Normal melting temperature, K (Crystal); method: DTA:UFactor:2:FP
Normal melting temperature, K	uncertainty
447.6	1

System: 3-hydroxybenzenamine; phases: Crystal, Liquid, Air at 1 atmosphere
Property: Normal melting temperature, K (Crystal); method: DTA:UFactor:2:FP
Normal melting temperature, K	uncertainty
396.8	1

System: o-acetotoluide; phases: Crystal, Liquid, Air at 1 atmosphere
Property: Normal melting temperature, K (Crystal); method: DTA:UFactor:2:FP
Normal melting temperature, K	uncertainty
382.7	1

System: 1-acetamido-4-methylbenzene; phases: Crystal, Liquid, Air at 1 atmosphere
Property: Normal melting temperature, K (Crystal); method: DTA:UFactor:2:FP
Normal melting temperature, K	uncertainty
424	1

System: 2,4,5-trimethoxybenzoic acid; phases: Crystal, Liquid, Air at 1 atmosphere
Property: Normal melting temperature, K (Crystal); method: DTA:UFactor:2:FP
Normal melting temperature, K	uncertainty
417.9	1

System: 3,4,5-trimethoxybenzoic acid; phases: Crystal, Liquid, Air at 1 atmosphere
Property: Normal melting temperature, K (Crystal); method: DTA:UFactor:2:FP
Normal melting temperature, K	uncertainty
444.5	1

System: 2-hydroxybenzenamine + 3-hydroxybenzenamine; phases: Crystal, Liquid, Crystal, Air at 1 atmosphere
Property: Eutectic temperature, K (Crystal); method: DIROBS:Method:DIROBS:UFactor:8
Eutectic temperature, K	uncertainty
376.7	2

System: 2-hydroxybenzenamine + 3-hydroxybenzenamine; phases: Liquid, Crystal
Fixed: Pressure, kPa = 101.3
Property: Solid-liquid equilibrium temperature, K (Liquid); method: DTA:UFactor:8
Mole fraction of 3-hydroxybenzenamine	Solid-liquid equilibrium temperature, K	uncertainty
0	447.6	3.1
0.05	442.1	3.1
0.1	439.2	3.1
0.15	435.8	3.1
0.2	433.7	3.1
0.251	431.1	3.1
0.301	428.2	3.1
0.318	426.3	3.1
0.401	422.9	3.1
0.513	413.7	3.1
0.55	407.1	3.1
0.65	399.7	3.1
0.701	396	3.1
0.75	389	3.2

System: 2-hydroxybenzenamine + 3-hydroxybenzenamine; phases: Liquid, Crystal
Fixed: Pressure, kPa = 101.3
Property: Solid-liquid equilibrium temperature, K (Liquid); method: DTA:UFactor:8
Mole fraction of 3-hydroxybenzenamine	Solid-liquid equilibrium temperature, K	uncertainty
0.899	384.2	3.2
0.95	391.6	3.1
1	396.8	3.1

System: 1-acetamido-4-methylbenzene + o-acetotoluide; phases: Crystal, Liquid, Crystal, Air at 1 atmosphere
Property: Eutectic temperature, K (Crystal); method: DIROBS
Eutectic temperature, K	uncertainty
357.3	2

System: 1-acetamido-4-methylbenzene + o-acetotoluide; phases: Liquid, Crystal
Fixed: Pressure, kPa = 101.3
Property: Solid-liquid equilibrium temperature, K (Liquid); method: DTA:UFactor:8
Mole fraction of 1-acetamido-4-methylbenzene	Solid-liquid equilibrium temperature, K	uncertainty
0	382.7	3.1
0.05	378.5	3.1
0.101	375.2	3.1
0.151	370.5	3.1
0.2	367.6	3.1

System: 1-acetamido-4-methylbenzene + o-acetotoluide; phases: Liquid, Crystal
Fixed: Pressure, kPa = 101.3
Property: Solid-liquid equilibrium temperature, K (Liquid); method: DTA:UFactor:8
Mole fraction of 1-acetamido-4-methylbenzene	Solid-liquid equilibrium temperature, K	uncertainty
0.399	372.9	3.2
0.45	380.3	3.1
0.499	384.8	3.1
0.547	388.8	3.1
0.6	394.6	3.1
0.65	397.3	3.1
0.699	401.3	3.1
0.799	409.1	3.1
0.85	412.5	3.1
0.898	415.8	3.1
0.949	418.4	3.1
1	424	3.1

System: 3,4,5-trimethoxybenzoic acid + 2,4,5-trimethoxybenzoic acid; phases: Crystal, Liquid, Crystal, Air at 1 atmosphere
Property: Eutectic temperature, K (Crystal); method: DIROBS
Eutectic temperature, K	uncertainty
395.9	2

System: 3,4,5-trimethoxybenzoic acid + 2,4,5-trimethoxybenzoic acid; phases: Liquid, Crystal
Fixed: Pressure, kPa = 101.3
Property: Solid-liquid equilibrium temperature, K (Liquid); method: DTA:UFactor:8
Mole fraction of 3,4,5-trimethoxybenzoic acid	Solid-liquid equilibrium temperature, K	uncertainty
0	417.9	3.1
0.05	414.6	3.1
0.1	412.1	3.1
0.15	408.7	3.1
0.2	406	3.1
0.25	402.5	3.1

System: 3,4,5-trimethoxybenzoic acid + 2,4,5-trimethoxybenzoic acid; phases: Liquid, Crystal
Fixed: Pressure, kPa = 101.3
Property: Solid-liquid equilibrium temperature, K (Liquid); method: DTA:UFactor:8
Mole fraction of 3,4,5-trimethoxybenzoic acid	Solid-liquid equilibrium temperature, K	uncertainty
0.401	405.7	3.1
0.451	408.6	3.1
0.5	412.7	3.1
0.6	421.6	3.1
0.65	424.2	3.1
0.699	428.1	3.1
0.8	433.3	3.1
0.85	435.5	3.1
0.9	438	3.1
0.95	441.4	3.1
1	444.5	3.1
