Measured thermophysical data. Solubilities of Terephthalic Acid in Dimethyl Sulfoxide + Water and in N,N-Dimethylformamide + Water from (301.4 to 373.7) K
Source: J. Chem. Eng. Data, 2005, 10.1021/je049577c
Compound 1: dimethyl sulfoxide, C2H6OS, InChI=1S/C2H6OS/c1-4(2)3/h1-2H3, purity 99%
Compound 2: 1,4-benzenedicarboxylic acid, C8H6O4, InChI=1S/C8H6O4/c9-7(10)5-1-2-6(4-3-5)8(11)12/h1-4H,(H,9,10)(H,11,12), purity 99.5%
Compound 3: water, H2O, InChI=1S/H2O/h1H2, purity 99%
Compound 4: dimethylformamide, C3H7NO, InChI=1S/C3H7NO/c1-4(2)3-5/h3H,1-2H3, purity 99%

System: dimethyl sulfoxide + 1,4-benzenedicarboxylic acid + water; phases: Liquid, Crystal
Fixed: Pressure, kPa = 100
Property: Amount concentration (molarity), mol/dm3 of 1,4-benzenedicarboxylic acid (Liquid); method: titration with standard sodium hydroxide solution using phenolphthalein as indicator
Solvent: Mass fraction of dimethyl sulfoxide	Temperature, K	Amount concentration (molarity), mol/dm3 of 1,4-benzenedicarboxylic acid	uncertainty
0.8	301.4	0.232	0.08
0.8	307.4	0.24	0.08
0.8	314.6	0.248	0.08
0.8	322.4	0.252	0.08
0.8	328.6	0.271	0.08
0.8	336.3	0.308	0.08
0.8	342	0.352	0.08
0.8	344.3	0.374	0.08
0.8	352.4	0.48	0.08
0.8	359.6	0.592	0.08
0.8	365.1	0.699	0.08
0.8	373.7	0.923	0.08
0.9	301.6	0.558	0.08
0.9	307.8	0.581	0.08
0.9	314.1	0.616	0.08
0.9	319.4	0.642	0.08
0.9	326.3	0.683	0.08
0.9	330.4	0.713	0.08
0.9	336.6	0.79	0.08
0.9	341.6	0.857	0.08
0.9	345.1	0.914	0.08
0.9	351.1	1.088	0.08
0.9	359.4	1.174	0.08
0.9	366.1	1.362	0.08
0.9	373.6	1.57	0.08
1	301.9	1.249	0.08
1	307.5	1.33	0.08
1	315	1.491	0.08
1	323	1.569	0.08
1	328.6	1.65	0.08
1	334.7	1.704	0.08
1	340.4	1.997	0.2
1	344.2	1.876	0.08
1	351.5	1.989	0.08
1	357.9	2.102	0.08
1	363.6	2.244	0.08
1	369.4	2.378	0.08
1	373.5	2.491	0.08

System: dimethylformamide + 1,4-benzenedicarboxylic acid + water; phases: Liquid, Crystal
Fixed: Pressure, kPa = 100
Property: Amount concentration (molarity), mol/dm3 of 1,4-benzenedicarboxylic acid (Liquid); method: titration with standard sodium hydroxide solution using phenolphthalein as indicator
Solvent: Mass fraction of dimethylformamide	Temperature, K	Amount concentration (molarity), mol/dm3 of 1,4-benzenedicarboxylic acid	uncertainty
0.8	301.4	0.072	0.04
0.8	307.4	0.081	0.04
0.8	314.6	0.091	0.04
0.8	322.4	0.101	0.04
0.8	328.6	0.107	0.04
0.8	336.3	0.115	0.04
0.8	342	0.124	0.04
0.8	344.3	0.127	0.04
0.8	352.4	0.136	0.04
0.8	359.6	0.146	0.04
0.8	365.1	0.158	0.04
0.8	373.7	0.174	0.04
0.9	301.6	0.204	0.04
0.9	307.8	0.218	0.04
0.9	314.1	0.212	0.04
0.9	319.4	0.225	0.04
0.9	326.3	0.249	0.04
0.9	330.4	0.255	0.04
0.9	336.6	0.262	0.04
0.9	341.6	0.274	0.04
0.9	345.1	0.285	0.04
0.9	351.1	0.299	0.04
0.9	359.4	0.321	0.04
0.9	366.1	0.348	0.04
0.9	373.6	0.369	0.04
1	301.9	0.381	0.04
1	307.5	0.392	0.04
1	315	0.418	0.04
1	323	0.44	0.04
1	328.6	0.452	0.04
1	334.7	0.474	0.04
1	340.4	0.49	0.04
1	344.2	0.52	0.04
1	351.5	0.539	0.04
1	357.9	0.552	0.04
1	363.6	0.575	0.04
1	369.4	0.611	0.04
1	373.5	0.621	0.04

System: dimethyl sulfoxide + 1,4-benzenedicarboxylic acid; phases: Liquid, Crystal
Fixed: Pressure, kPa = 100
Property: Amount concentration (molarity), mol/dm3 of 1,4-benzenedicarboxylic acid (Liquid); method: titration with standard sodium hydroxide solution using phenolphthalein as indicator
Temperature, K	Amount concentration (molarity), mol/dm3 of 1,4-benzenedicarboxylic acid	uncertainty
301.9	1.249	0.08
307.5	1.33	0.08
315	1.491	0.08
323	1.569	0.08
328.6	1.65	0.08
334.7	1.704	0.08
340.4	1.997	0.2
344.2	1.876	0.08
351.5	1.989	0.08
357.9	2.102	0.08
363.6	2.244	0.08
369.4	2.378	0.08
373.5	2.491	0.08

System: dimethylformamide + 1,4-benzenedicarboxylic acid; phases: Liquid, Crystal
Fixed: Pressure, kPa = 100
Property: Amount concentration (molarity), mol/dm3 of 1,4-benzenedicarboxylic acid (Liquid); method: titration with standard sodium hydroxide solution using phenolphthalein as indicator
Temperature, K	Amount concentration (molarity), mol/dm3 of 1,4-benzenedicarboxylic acid	uncertainty
301.9	0.381	0.04
307.5	0.392	0.04
315	0.418	0.04
323	0.44	0.04
328.6	0.452	0.04
334.7	0.474	0.04
340.4	0.49	0.04
344.2	0.52	0.04
351.5	0.539	0.04
357.9	0.552	0.04
363.6	0.575	0.04
369.4	0.611	0.04
373.5	0.621	0.04
