Measured thermophysical data. High-Pressure Phase Behavior of Systems with Ionic Liquids: Part IV. Binary System Carbon Dioxide + 1-Hexyl-3-methylimidazolium Tetrafluoroborate
Source: J. Chem. Eng. Data, 2005, 10.1021/je049870c
Compound 1: 1-hexyl-3-methylimidazolium tetrafluoroborate, C10H19BF4N2, InChI=1S/C10H19N2.BF4/c1-3-4-5-6-7-12-9-8-11(2)10-12;2-1(3,4)5/h8-10H,3-7H2,1-2H3;/q+1;-1
Compound 2: carbon dioxide, CO2, InChI=1S/CO2/c2-1-3

System: carbon dioxide + 1-hexyl-3-methylimidazolium tetrafluoroborate; phases: Liquid mixture 1, Liquid mixture 2, Gas
Property: Vapor or sublimation pressure, kPa (Liquid mixture 1); method: Closed cell (Static) method
Temperature, K	Vapor or sublimation pressure, kPa	uncertainty
278.7	4040	20
283.54	4560	20
288.49	5140	20
293.61	5800	20
298.49	6490	30
302.46	7110	30
303.51	7280	30
303.75	7320	30
303.86	7340	30
303.99	7360	30
304.09	7370	30

System: carbon dioxide + 1-hexyl-3-methylimidazolium tetrafluoroborate; phases: Liquid, Gas
Property: Vapor or sublimation pressure, kPa (Liquid); method: Closed cell (Static) method
Mole fraction of carbon dioxide	Temperature, K	Vapor or sublimation pressure, kPa	uncertainty
0.103	293.18	540	80
0.103	298.18	570	90
0.103	303.14	630	100
0.103	308.14	690	110
0.103	313.12	770	120
0.103	318.17	830	130
0.103	323.14	900	140
0.103	328.13	970	160
0.103	333.28	1050	170
0.103	338.1	1110	190
0.103	343.16	1200	200
0.103	348.1	1280	220
0.103	353.13	1370	230
0.103	358.15	1470	250
0.103	363.19	1570	260
0.103	368.14	1650	280
0.201	293.18	1090	80
0.201	298.14	1190	150
0.201	303.15	1320	110
0.201	308.17	1450	130
0.201	313.19	1620	140
0.201	318.13	1760	150
0.201	323.06	1910	170
0.201	328.14	2080	180
0.201	333.11	2250	200
0.201	338.15	2430	210
0.201	343.1	2610	230
0.201	348.15	2800	250
0.201	353.13	2990	270
0.201	358.12	3200	280
0.201	363.13	3400	300
0.201	368.16	3620	330
0.299	302.37	2170	150
0.299	308.66	2460	160
0.299	313.48	2690	180
0.299	318.4	2960	200
0.299	323.29	3230	220
0.299	327.96	3490	260
0.299	328.04	3520	260
0.299	332.64	3820	260
0.299	337.39	4090	290
0.299	342.41	4400	310
0.299	347.21	4740	340
0.299	351.75	5050	370
0.299	357.27	5420	400
0.299	363.33	5840	420
0.299	367.81	6180	460
0.404	303.39	3440	180
0.404	308.37	3810	200
0.404	313.39	4200	230
0.404	318.33	4630	260
0.404	323.27	5080	290
0.404	328.25	5560	320
0.404	333.25	6060	350
0.404	338.16	6580	390
0.404	343.13	7120	440
0.404	348.1	7700	480
0.404	352.98	8280	1180
0.404	358.23	8920	1260
0.404	362.98	9520	1350
0.404	367.82	10160	2080
0.498	303.63	4810	200
0.498	308.28	5320	230
0.498	313.39	5960	450
0.498	318.51	6640	590
0.498	323.07	7310	730
0.498	327.84	8040	860
0.498	332.91	8890	1000
0.498	337.87	9770	1120
0.498	342.82	10720	1240
0.498	348.15	11770	1360
0.602	313.07	10460	1500
0.602	317.88	12760	1650
0.602	322.98	15220	1850
0.602	327.97	17520	2040
0.602	332.8	19820	2220
0.602	338.05	22140	2380
0.602	342.88	24340	2540
0.602	347.81	26540	2710
0.602	352.87	28780	4880
0.602	357.77	30880	1940
0.602	362.68	32920	2180
0.653	312.95	24520	6400
0.653	318.08	27700	6510
0.653	323.07	30840	6620
0.653	327.91	33540	6740
0.653	332.97	36280	6840
0.653	337.93	38960	6990
0.653	342.8	41580	7080
0.653	347.88	44260	7220
0.653	352.94	46560	7320
0.653	358.04	48980	7420
0.653	362.94	51320	7460
0.703	313.03	56740	9010
0.703	318.04	59940	9040
0.703	323.02	63120	9050
0.703	327.95	66260	9150
0.703	333.04	69400	9280
0.703	337.84	72560	9390
0.703	342.93	75520	9520
0.703	347.82	78720	9630
0.703	352.92	81680	9840
0.703	357.64	84460	9920
0.703	362.58	86600	9930
