Measured thermophysical data. Experimental and Predicted Excess Molar Enthalpies of the Ternary System tert-Butyl Methyl Ether + 1-Pentanol + Decane at 298.15 K
Source: J. Chem. Eng. Data, 2004, 10.1021/je049836y
Compound 1: 2-methoxy-2-methylpropane, C5H12O, InChI=1S/C5H12O/c1-5(2,3)6-4/h1-4H3, purity 99%
Compound 2: pentan-1-ol, C5H12O, InChI=1S/C5H12O/c1-2-3-4-5-6/h6H,2-5H2,1H3, purity 99%
Compound 3: decane, C10H22, InChI=1S/C10H22/c1-3-5-7-9-10-8-6-4-2/h3-10H2,1-2H3, purity 99%

System: decane + 2-methoxy-2-methylpropane; phases: Liquid
Fixed: Temperature, K = 298.15
Fixed: Pressure, kPa = 101.3
Property: Excess molar enthalpy (molar enthalpy of mixing), kJ/mol (Liquid); method: Calvet calorimetry
Mole fraction of 2-methoxy-2-methylpropane	Excess molar enthalpy (molar enthalpy of mixing), kJ/mol	uncertainty
0.1155	0.1941	0.0044
0.1862	0.3015	0.0067
0.1927	0.3035	0.0067
0.2714	0.4046	0.0088
0.3516	0.4804	0.0104
0.4233	0.5143	0.0112
0.4962	0.5314	0.0115
0.4966	0.532	0.0115
0.6491	0.459	0.01
0.6832	0.4376	0.0095
0.6921	0.4292	0.0094
0.714	0.4153	0.0091
0.7339	0.4039	0.0088
0.7473	0.3911	0.0086
0.8334	0.302	0.0067
0.8461	0.2883	0.0064
0.8795	0.2385	0.0053
0.9235	0.1726	0.004
0.9459	0.1259	0.003
0.9573	0.1042	0.0025

System: pentan-1-ol + decane; phases: Liquid
Fixed: Temperature, K = 298.15
Fixed: Pressure, kPa = 101.3
Property: Excess molar enthalpy (molar enthalpy of mixing), kJ/mol (Liquid); method: Calvet calorimetry
Mole fraction of pentan-1-ol	Excess molar enthalpy (molar enthalpy of mixing), kJ/mol	uncertainty
0.0543	0.4276	0.0093
0.0877	0.5378	0.0117
0.1438	0.6225	0.0135
0.2023	0.6745	0.0146
0.2528	0.7095	0.0153
0.2871	0.7266	0.0157
0.3411	0.7412	0.016
0.4074	0.7485	0.0161
0.4312	0.7375	0.0159
0.5096	0.7155	0.0154
0.5334	0.6951	0.015
0.5981	0.6499	0.014
0.6431	0.6018	0.013
0.7033	0.517	0.0112
0.748	0.4544	0.0099
0.786	0.3827	0.0084
0.8531	0.2709	0.006
0.8886	0.2044	0.0046
0.9214	0.1421	0.0033

System: pentan-1-ol + decane + 2-methoxy-2-methylpropane; phases: Liquid
Fixed: Temperature, K = 298.15
Fixed: Pressure, kPa = 101.3
Property: Excess molar enthalpy (molar enthalpy of mixing), kJ/mol (Liquid); method: Calvet calorimetry
Solvent: Mole fraction of 2-methoxy-2-methylpropane	Mole fraction of decane	Excess molar enthalpy (molar enthalpy of mixing), kJ/mol	uncertainty
0.2452	0.03	0.075	0.002
0.2452	0.0532	0.131	0.003
0.2452	0.0899	0.21	0.005
0.2452	0.1168	0.266	0.006
0.2452	0.1545	0.327	0.007
0.2452	0.1914	0.396	0.009
0.2452	0.2285	0.45	0.01
0.2452	0.2697	0.513	0.011
0.2452	0.3196	0.56	0.012
0.2452	0.3479	0.59	0.013
0.2452	0.4203	0.655	0.014
0.2452	0.4543	0.658	0.014
0.2452	0.517	0.686	0.015
0.2452	0.5609	0.698	0.015
0.2452	0.6079	0.686	0.015
0.2452	0.7103	0.67	0.014
0.2452	0.7792	0.629	0.014
0.2452	0.8421	0.577	0.013
0.4974	0.0294	0.08	0.002
0.4974	0.0932	0.23	0.005
0.4974	0.1206	0.287	0.006
0.4974	0.1496	0.345	0.008
0.4974	0.2027	0.431	0.009
0.4974	0.2364	0.493	0.011
0.4974	0.2714	0.53	0.012
0.4974	0.3202	0.564	0.012
0.4974	0.3669	0.606	0.013
0.4974	0.4212	0.625	0.014
0.4974	0.4704	0.647	0.014
0.4974	0.5194	0.66	0.014
0.4974	0.5753	0.674	0.015
0.4974	0.6338	0.651	0.014
0.4974	0.7057	0.633	0.014
0.4974	0.7735	0.594	0.013
0.4974	0.8384	0.539	0.012
0.4974	0.9174	0.422	0.009
0.7391	0.03	0.08	0.002
0.7391	0.0613	0.177	0.004
0.7391	0.1316	0.31	0.007
0.7391	0.1719	0.383	0.008
0.7391	0.2019	0.429	0.009
0.7391	0.2562	0.498	0.011
0.7391	0.2956	0.542	0.012
0.7391	0.324	0.563	0.012
0.7391	0.3995	0.612	0.013
0.7391	0.4784	0.665	0.014
0.7391	0.5771	0.663	0.014
0.7391	0.6409	0.623	0.013
0.7391	0.7026	0.593	0.013
0.7391	0.7993	0.521	0.011
0.7391	0.8666	0.423	0.009
0.7391	0.9082	0.346	0.008
0.7391	0.9404	0.268	0.006
