Measured thermophysical data. Solubilities of Some Phenyl Derivatives of Dialkyl 1,4-Dihydro-2,6-dimethyl-4-(1-methyl-5-nitro-imidazol-2-yl)- 3,5-pyridinedicarboxylates in Supercritical Carbon Dioxide. Part II
Source: J. Chem. Eng. Data, 2005, 10.1021/je0497092
Compound 1: carbon dioxide, CO2, InChI=1S/CO2/c2-1-3
Compound 2: dibenzyl 2,6-dimethyl-4-(1-methyl-5-nitro-1H-imidazol-2-yl)-1,4-dihydropyridine-3,5-dicarboxylate, C27H26N4O6, InChI=1S/C27H26N4O6/c1-17-22(26(32)36-15-19-10-6-4-7-11-19)24(25-28-14-21(30(25)3)31(34)35)23(18(2)29-17)27(33)37-16-20-12-8-5-9-13-20/h4-14,24,29H,15-16H2,1-3H3, purity 99.5%
Compound 3: bis(4-phenylbutyl) 2,6-dimethyl-4-(1-methyl-5-nitro-1H-imidazol-2-yl)-1,4-dihydropyridine-3,5-dicarboxylate, C33H38N4O6, InChI=1S/C33H38N4O6/c1-23-28(32(38)42-20-12-10-18-25-14-6-4-7-15-25)30(31-34-22-27(36(31)3)37(40)41)29(24(2)35-23)33(39)43-21-13-11-19-26-16-8-5-9-17-26/h4-9,14-17,22,30,35H,10-13,18-21H2,1-3H3, purity 99.5%
Compound 4: bis(5-phenylpentyl) 2,6-dimethyl-4-(1-methyl-5-nitro-1H-imidazol-2-yl)-1,4-dihydropyridine-3,5-dicarboxylate, C35H42N4O6, InChI=1S/C35H42N4O6/c1-25-30(34(40)44-22-14-6-12-20-27-16-8-4-9-17-27)32(33-36-24-29(38(33)3)39(42)43)31(26(2)37-25)35(41)45-23-15-7-13-21-28-18-10-5-11-19-28/h4-5,8-11,16-19,24,32,37H,6-7,12-15,20-23H2,1-3H3, purity 99.5%
Compound 5: bis(3-phenylpropyl) 2,6-dimethyl-4-(1-methyl-5-nitro-1H-imidazol-2-yl)-1,4-dihydropyridine-3,5-dicarboxylate, C31H34N4O6, InChI=1S/C31H34N4O6/c1-21-26(30(36)40-18-10-16-23-12-6-4-7-13-23)28(29-32-20-25(34(29)3)35(38)39)27(22(2)33-21)31(37)41-19-11-17-24-14-8-5-9-15-24/h4-9,12-15,20,28,33H,10-11,16-19H2,1-3H3, purity 99.5%
Compound 6: bis(3-(p-tolyl)propyl) 2,6-dimethyl-4-(1-methyl-5-nitro-1H-imidazol-2-yl)-1,4-dihydropyridine-3,5-dicarboxylate, C33H38N4O6, InChI=1S/C33H38N4O6/c1-21-10-14-25(15-11-21)8-6-18-42-32(38)28-23(3)35-24(4)29(30(28)31-34-20-27(36(31)5)37(40)41)33(39)43-19-7-9-26-16-12-22(2)13-17-26/h10-17,20,30,35H,6-9,18-19H2,1-5H3, purity 99.5%
Compound 7: bis(2-phenylethyl) 2,6-dimethyl-4-(1-methyl-5-nitro-1H-imidazol-2-yl)-1,4-dihydropyridine-3,5-dicarboxylate, C29H30N4O6, InChI=1S/C29H30N4O6/c1-19-24(28(34)38-16-14-21-10-6-4-7-11-21)26(27-30-18-23(32(27)3)33(36)37)25(20(2)31-19)29(35)39-17-15-22-12-8-5-9-13-22/h4-13,18,26,31H,14-17H2,1-3H3, purity 99.5%

System: carbon dioxide + dibenzyl 2,6-dimethyl-4-(1-methyl-5-nitro-1H-imidazol-2-yl)-1,4-dihydropyridine-3,5-dicarboxylate; phases: Liquid, Crystal
Property: Mole fraction of dibenzyl 2,6-dimethyl-4-(1-methyl-5-nitro-1H-imidazol-2-yl)-1,4-dihydropyridine-3,5-dicarboxylate (Liquid); method: spectrophotometer
Pressure, kPa	Temperature, K	Mole fraction of dibenzyl 2,6-dimethyl-4-(1-methyl-5-nitro-1H-imidazol-2-yl)-1,4-dihydropyridine-3,5-dicarboxylate	uncertainty
338000	24.3	1e-07	1e-07
338000	27.4	2e-07	1e-07
338000	30.4	3e-07	1e-07
338000	33.4	4e-07	1e-07
338000	35.5	5e-07	1e-07
348000	24.3	2e-07	1e-07
348000	27.4	4e-07	1e-07
348000	30.4	6e-07	1e-07
348000	33.4	8e-07	3e-07
348000	35.5	1.3e-06	1e-06
358000	21.3	1e-07	1e-07
358000	24.3	7e-07	4e-07
358000	27.4	1.2e-06	3e-07
358000	30.4	1.7e-06	5e-07
358000	33.4	2.8e-06	8e-07
358000	35.5	3.6e-06	8e-07

System: carbon dioxide + bis(4-phenylbutyl) 2,6-dimethyl-4-(1-methyl-5-nitro-1H-imidazol-2-yl)-1,4-dihydropyridine-3,5-dicarboxylate; phases: Liquid, Crystal
Property: Mole fraction of bis(4-phenylbutyl) 2,6-dimethyl-4-(1-methyl-5-nitro-1H-imidazol-2-yl)-1,4-dihydropyridine-3,5-dicarboxylate (Liquid); method: spectrophotometer
Pressure, kPa	Temperature, K	Mole fraction of bis(4-phenylbutyl) 2,6-dimethyl-4-(1-methyl-5-nitro-1H-imidazol-2-yl)-1,4-dihydropyridine-3,5-dicarboxylate	uncertainty
338000	18.2	8e-07	1e-07
338000	21.3	9e-07	2e-07
338000	24.3	1.3e-06	5e-07
338000	27.4	2.3e-06	6e-07
338000	30.4	3e-06	5e-07
338000	33.4	3.7e-06	5e-07
338000	35.5	4.2e-06	5e-07
348000	18.2	4e-07	3e-07
348000	21.3	1e-06	4e-07
348000	24.3	1.5e-06	7e-07
348000	27.4	3.1e-06	9e-07
348000	30.4	4.2e-06	9e-07
348000	33.4	5.7e-06	9e-07
348000	35.5	6.2e-06	1.2e-06
358000	18.2	6e-07	5e-07
358000	21.3	1.4e-06	6e-07
358000	24.3	2.5e-06	1e-06
358000	27.4	4.3e-06	1.2e-06
358000	30.4	6.2e-06	1.3e-06
358000	33.4	8.2e-06	1.6e-06
358000	35.5	1.03e-05	2e-06

System: carbon dioxide + bis(5-phenylpentyl) 2,6-dimethyl-4-(1-methyl-5-nitro-1H-imidazol-2-yl)-1,4-dihydropyridine-3,5-dicarboxylate; phases: Liquid, Crystal
Property: Mole fraction of bis(5-phenylpentyl) 2,6-dimethyl-4-(1-methyl-5-nitro-1H-imidazol-2-yl)-1,4-dihydropyridine-3,5-dicarboxylate (Liquid); method: spectrophotometer
Pressure, kPa	Temperature, K	Mole fraction of bis(5-phenylpentyl) 2,6-dimethyl-4-(1-methyl-5-nitro-1H-imidazol-2-yl)-1,4-dihydropyridine-3,5-dicarboxylate	uncertainty
338000	18.2	2.8e-06	1e-07
338000	21.3	2.9e-06	4e-07
338000	24.3	4.1e-06	8e-07
338000	27.4	5.3e-06	9e-07
338000	30.4	6.6e-06	9e-07
338000	33.4	7.8e-06	1e-06
338000	35.5	8.9e-06	1.1e-06
348000	18.2	2.9e-06	2e-07
348000	21.3	3.1e-06	6e-07
348000	24.3	4.6e-06	1.1e-06
348000	27.4	6.5e-06	1.5e-06
348000	30.4	9e-06	1.5e-06
348000	33.4	1.07e-05	1.3e-06
348000	35.5	1.21e-05	1.8e-06
358000	18.2	3e-06	3e-07
358000	21.3	3.4e-06	1e-06
358000	24.3	6e-06	1.6e-06
358000	27.4	8.1e-06	1.5e-06
358000	30.4	1.06e-05	1.9e-06
358000	33.4	1.36e-05	2.4e-06
358000	35.5	1.66e-05	2.9e-06

System: carbon dioxide + bis(3-phenylpropyl) 2,6-dimethyl-4-(1-methyl-5-nitro-1H-imidazol-2-yl)-1,4-dihydropyridine-3,5-dicarboxylate; phases: Liquid, Crystal
Property: Mole fraction of bis(3-phenylpropyl) 2,6-dimethyl-4-(1-methyl-5-nitro-1H-imidazol-2-yl)-1,4-dihydropyridine-3,5-dicarboxylate (Liquid); method: spectrophotometer
Pressure, kPa	Temperature, K	Mole fraction of bis(3-phenylpropyl) 2,6-dimethyl-4-(1-methyl-5-nitro-1H-imidazol-2-yl)-1,4-dihydropyridine-3,5-dicarboxylate	uncertainty
338000	18.2	3.2e-06	2e-07
338000	21.3	3.5e-06	4e-07
338000	24.3	4.3e-06	1e-06
338000	27.4	6.4e-06	1.9e-06
338000	30.4	1e-05	2e-06
338000	33.4	1.22e-05	1.6e-06
338000	35.5	1.38e-05	1.6e-06
348000	18.2	2.8e-06	2e-07
348000	21.3	3.4e-06	7e-07
348000	24.3	4.9e-06	1.2e-06
348000	27.4	7.1e-06	1.3e-06
348000	30.4	8.8e-06	2.6e-06
348000	33.4	1.49e-05	3.4e-06
348000	35.5	1.69e-05	3e-06
358000	18.2	3.2e-06	9e-07
358000	21.3	4.6e-06	1e-06
358000	24.3	6.3e-06	1.2e-06
358000	27.4	8.2e-06	2e-06
358000	30.4	1.24e-05	3.7e-06
358000	33.4	1.92e-05	4.3e-06
358000	35.5	2.31e-05	3.8e-06

System: carbon dioxide + bis(3-(p-tolyl)propyl) 2,6-dimethyl-4-(1-methyl-5-nitro-1H-imidazol-2-yl)-1,4-dihydropyridine-3,5-dicarboxylate; phases: Liquid, Crystal
Property: Mole fraction of bis(3-(p-tolyl)propyl) 2,6-dimethyl-4-(1-methyl-5-nitro-1H-imidazol-2-yl)-1,4-dihydropyridine-3,5-dicarboxylate (Liquid); method: spectrophotometer
Pressure, kPa	Temperature, K	Mole fraction of bis(3-(p-tolyl)propyl) 2,6-dimethyl-4-(1-methyl-5-nitro-1H-imidazol-2-yl)-1,4-dihydropyridine-3,5-dicarboxylate	uncertainty
338000	15.2	7e-07	1e-07
338000	18.2	9e-07	6e-07
338000	21.3	2.5e-06	8e-07
338000	24.3	3.2e-06	4e-07
338000	27.4	3.5e-06	4e-07
338000	30.4	4.2e-06	4e-07
338000	33.4	4.6e-06	3e-07
338000	35.5	4.7e-06	2e-07
348000	15.2	7e-07	7e-07
348000	18.2	2.01e-06	6.6e-07
348000	21.3	2.7e-06	4e-07
348000	24.3	3.3e-06	6e-07
348000	27.4	4.6e-06	8e-07
348000	30.4	5.7e-06	8e-07
348000	33.4	6.9e-06	7e-07
348000	35.5	7.3e-06	8e-07
358000	15.2	1.4e-06	3e-07
358000	18.2	9e-07	6e-07
358000	21.3	3.1e-06	1.4e-06
358000	24.3	5e-06	1.1e-06
358000	27.4	6.5e-06	1.1e-06
358000	30.4	8.2e-06	1.1e-06
358000	33.4	9.5e-06	1.1e-06
358000	35.5	1.1e-05	1.5e-06

System: carbon dioxide + bis(2-phenylethyl) 2,6-dimethyl-4-(1-methyl-5-nitro-1H-imidazol-2-yl)-1,4-dihydropyridine-3,5-dicarboxylate; phases: Liquid, Crystal
Property: Mole fraction of bis(2-phenylethyl) 2,6-dimethyl-4-(1-methyl-5-nitro-1H-imidazol-2-yl)-1,4-dihydropyridine-3,5-dicarboxylate (Liquid); method: spectrophotometer
Pressure, kPa	Temperature, K	Mole fraction of bis(2-phenylethyl) 2,6-dimethyl-4-(1-methyl-5-nitro-1H-imidazol-2-yl)-1,4-dihydropyridine-3,5-dicarboxylate	uncertainty
338000	18.2	1.5e-06	7e-07
338000	21.3	2.6e-06	5e-07
338000	24.3	3.1e-06	3e-07
338000	27.4	3.5e-06	2e-07
338000	30.4	3.7e-06	2e-07
338000	33.4	4.1e-06	3e-07
338000	35.5	4.4e-06	3e-07
348000	18.2	1.8e-06	7e-07
348000	21.3	2.9e-06	6e-07
348000	24.3	3.6e-06	5e-07
348000	27.4	4.3e-06	6e-07
348000	30.4	5.2e-06	5e-07
348000	33.4	5.7e-06	4e-07
348000	35.5	5.9e-06	4e-07
358000	18.2	2.3e-06	6e-07
358000	21.3	3.2e-06	7e-07
358000	24.3	4.4e-06	7e-07
358000	27.4	5.4e-06	7e-07
358000	30.4	6.4e-06	6e-07
358000	33.4	7.2e-06	6e-07
358000	35.5	7.8e-06	6e-07
