Measured thermophysical data. Studies on the Diffusion Coefficients of Amino Acids in Aqueous Solutions
Source: J. Chem. Eng. Data, 2005, 10.1021/je049582g
Compound 1: water, H2O, InChI=1S/H2O/h1H2
Compound 2: potassium chloride, ClK, InChI=1S/ClH.K/h1H;/q;+1/p-1, purity 99.9%
Compound 3: D-sucrose, C12H22O11, InChI=1S/C12H22O11/c13-1-4-6(16)8(18)9(19)11(21-4)23-12(3-15)10(20)7(17)5(2-14)22-12/h4-11,13-20H,1-3H2/t4-,5-,6-,7-,8+,9-,10+,11-,12+/m1/s1, purity 99.9%
Compound 4: 2-aminoacetic acid, C2H5NO2, InChI=1S/C2H5NO2/c3-1-2(4)5/h1,3H2,(H,4,5), purity 99.7%
Compound 5: (S)-2-aminopropanoic acid, C3H7NO2, InChI=1S/C3H7NO2/c1-2(4)3(5)6/h2H,4H2,1H3,(H,5,6)/t2-/m0/s1, purity 99.7%
Compound 6: L-valine, C5H11NO2, InChI=1S/C5H11NO2/c1-3(2)4(6)5(7)8/h3-4H,6H2,1-2H3,(H,7,8)/t4-/m0/s1, purity 99.7%
Compound 7: L-serine, C3H7NO3, InChI=1S/C3H7NO3/c4-2(1-5)3(6)7/h2,5H,1,4H2,(H,6,7)/t2-/m0/s1, purity 99.7%
Compound 8: L-threonine, C4H9NO3, InChI=1S/C4H9NO3/c1-2(6)3(5)4(7)8/h2-3,6H,5H2,1H3,(H,7,8)/t2-,3+/m1/s1, purity 99.7%
Compound 9: L-arginine, C6H14N4O2, InChI=1S/C6H14N4O2/c7-4(5(11)12)2-1-3-10-6(8)9/h4H,1-3,7H2,(H,11,12)(H4,8,9,10)/t4-/m0/s1, purity 99.7%
Compound 10: 2-amino-3-methylpentanoic acid, C6H13NO2, InChI=1S/C6H13NO2/c1-3-4(2)5(7)6(8)9/h4-5H,3,7H2,1-2H3,(H,8,9)/t4-,5-/m0/s1, purity 99.7%
Compound 11: 3-aminopropanoic acid, C3H7NO2, InChI=1S/C3H7NO2/c4-2-1-3(5)6/h1-2,4H2,(H,5,6), purity 99.7%
Compound 12: (R)-(-)-.alpha.-aminobutyric acid, C4H9NO2, InChI=1S/C4H9NO2/c1-2-3(5)4(6)7/h3H,2,5H2,1H3,(H,6,7)/t3-/m1/s1, purity 99.7%
Compound 13: DL-2-aminopropanoic acid, C3H7NO2, InChI=1S/C3H7NO2/c1-2(4)3(5)6/h2H,4H2,1H3,(H,5,6), purity 99.7%
Compound 14: urea, CH4N2O, InChI=1S/CH4N2O/c2-1(3)4/h(H4,2,3,4), purity 99.7%

System: potassium chloride + water; phases: Liquid
Property: Binary diffusion coefficient, m2/s (Liquid); method: holographic interferometric technique
Amount concentration (molarity), mol/dm3 of potassium chloride	Pressure, kPa	Temperature, K	Binary diffusion coefficient, m2/s	uncertainty
0.33	101	298	1.83e-10	0.002

System: D-sucrose + water; phases: Liquid
Fixed: Pressure, kPa = 101
Fixed: Temperature, K = 298
Property: Binary diffusion coefficient, m2/s (Liquid); method: holographic interferometric technique
Amount concentration (molarity), mol/dm3 of D-sucrose	Binary diffusion coefficient, m2/s	uncertainty
0.1	4.89e-10	0.002
0.3	4.27e-10	0.002
0.5	3.67e-10	0.002
0.7	3.06e-10	0.002

System: 2-aminoacetic acid + water; phases: Liquid
Fixed: Pressure, kPa = 101
Fixed: Temperature, K = 298
Property: Binary diffusion coefficient, m2/s (Liquid); method: holographic interferometric technique
Amount concentration (molarity), mol/dm3 of 2-aminoacetic acid	Binary diffusion coefficient, m2/s	uncertainty
0.1057	1.04e-09	0.002
0.3056	1.0014e-09	0.002
0.5045	9.73e-10	0.002
0.7064	9.57e-10	0.002
0.9045	9.43e-10	0.002

System: (S)-2-aminopropanoic acid + water; phases: Liquid
Fixed: Pressure, kPa = 101
Fixed: Temperature, K = 298
Property: Binary diffusion coefficient, m2/s (Liquid); method: holographic interferometric technique
Amount concentration (molarity), mol/dm3 of (S)-2-aminopropanoic acid	Binary diffusion coefficient, m2/s	uncertainty
0.0997	9.04e-10	0.002
0.2996	8.59e-10	0.002
0.4996	8.34e-10	0.002
0.7002	8.12e-10	0.002
0.9006	7.92e-10	0.002

System: L-valine + water; phases: Liquid
Fixed: Pressure, kPa = 101
Fixed: Temperature, K = 298
Property: Binary diffusion coefficient, m2/s (Liquid); method: holographic interferometric technique
Amount concentration (molarity), mol/dm3 of L-valine	Binary diffusion coefficient, m2/s	uncertainty
0.1	7.12e-10	0.002
0.2	6.79e-10	0.002
0.2999	6.55e-10	0.002
0.4	6.45e-10	0.002
0.5001	6.33e-10	0.002

System: L-serine + water; phases: Liquid
Fixed: Pressure, kPa = 101
Fixed: Temperature, K = 298
Property: Binary diffusion coefficient, m2/s (Liquid); method: holographic interferometric technique
Amount concentration (molarity), mol/dm3 of L-serine	Binary diffusion coefficient, m2/s	uncertainty
0.01	9.16e-10	0.002
0.0301	8.91e-10	0.002
0.05	8.79e-10	0.002
0.07	8.71e-10	0.002
0.0902	8.65e-10	0.002

System: L-threonine + water; phases: Liquid
Fixed: Pressure, kPa = 101
Fixed: Temperature, K = 298
Property: Binary diffusion coefficient, m2/s (Liquid); method: holographic interferometric technique
Amount concentration (molarity), mol/dm3 of L-threonine	Binary diffusion coefficient, m2/s	uncertainty
0.1006	7.86e-10	0.002
0.2002	7.58e-10	0.002
0.2994	7.42e-10	0.002
0.4002	7.25e-10	0.002
0.5003	7.15e-10	0.002

System: L-arginine + water; phases: Liquid
Fixed: Pressure, kPa = 101
Fixed: Temperature, K = 298
Property: Binary diffusion coefficient, m2/s (Liquid); method: holographic interferometric technique
Amount concentration (molarity), mol/dm3 of L-arginine	Binary diffusion coefficient, m2/s	uncertainty
0.1002	7.01e-10	0.002
0.2	6.61e-10	0.002
0.2949	6.36e-10	0.002
0.4001	6.21e-10	0.002
0.5	6.04e-10	0.002

System: 2-amino-3-methylpentanoic acid + water; phases: Liquid
Fixed: Pressure, kPa = 101
Fixed: Temperature, K = 298
Property: Binary diffusion coefficient, m2/s (Liquid); method: holographic interferometric technique
Amount concentration (molarity), mol/dm3 of 2-amino-3-methylpentanoic acid	Binary diffusion coefficient, m2/s	uncertainty
0.0101	7.61e-10	0.002
0.0203	7.5e-10	0.002
0.0301	7.39e-10	0.002
0.0399	7.32e-10	0.002
0.05	7.25e-10	0.002

System: 3-aminopropanoic acid + water; phases: Liquid
Fixed: Pressure, kPa = 101
Fixed: Temperature, K = 298
Property: Binary diffusion coefficient, m2/s (Liquid); method: holographic interferometric technique
Amount concentration (molarity), mol/dm3 of 3-aminopropanoic acid	Binary diffusion coefficient, m2/s	uncertainty
0.0281	9.36e-10	0.002
0.0288	9.35e-10	0.002
0.0299	9.34e-10	0.002
0.0344	9.33e-10	0.002
0.111	9.18e-10	0.002
0.5605	8.67e-10	0.002
0.5886	8.68e-10	0.002
1.1225	8.18e-10	0.002
1.766	7.79e-10	0.002
2.3397	7.52e-10	0.002
2.6648	7.4e-10	0.002
3.0083	7.2e-10	0.002
3.9313	6.63e-10	0.002
4.5431	6.25e-10	0.002
5.4194	5.6e-10	0.002

System: (R)-(-)-.alpha.-aminobutyric acid + water; phases: Liquid
Fixed: Pressure, kPa = 101
Fixed: Temperature, K = 298
Property: Binary diffusion coefficient, m2/s (Liquid); method: holographic interferometric technique
Amount concentration (molarity), mol/dm3 of (R)-(-)-.alpha.-aminobutyric acid	Binary diffusion coefficient, m2/s	uncertainty
0.2	8e-10	0.002
0.4	7.72e-10	0.002
0.6	7.45e-10	0.002
0.8	7.2e-10	0.002
1	6.97e-10	0.002

System: DL-2-aminopropanoic acid + water; phases: Liquid
Fixed: Pressure, kPa = 101
Fixed: Temperature, K = 298
Property: Binary diffusion coefficient, m2/s (Liquid); method: holographic interferometric technique
Amount concentration (molarity), mol/dm3 of DL-2-aminopropanoic acid	Binary diffusion coefficient, m2/s	uncertainty
0.0271	9.11e-10	0.002
0.0281	9.11e-10	0.002
0.2233	8.84e-10	0.002
0.4374	8.56e-10	0.002
0.6786	8.27e-10	0.002
0.9025	8.02e-10	0.002
1.1948	7.72e-10	0.002
1.5406	7.41e-10	0.002

System: urea + water; phases: Liquid
Fixed: Pressure, kPa = 101
Fixed: Temperature, K = 298
Property: Binary diffusion coefficient, m2/s (Liquid); method: holographic interferometric technique
Amount concentration (molarity), mol/dm3 of urea	Binary diffusion coefficient, m2/s	uncertainty
0.125	1.373e-09	0.002
0.2475	1.363e-09	0.002
0.5	1.343e-09	0.002
0.75	1.326e-09	0.002
0.9782	1.309e-09	0.002
1	1.307e-09	0.002
1.5	1.274e-09	0.002
2	1.245e-09	0.002
3.0002	1.189e-09	0.002
3.9999	1.143e-09	0.002
