Measured thermophysical data. Mutual Solubility and Lower Critical Solution Temperature for Water + Glycol Ether Systems
Source: J. Chem. Eng. Data, 2005, 10.1021/je049635u
Compound 1: 2-butoxyethan-1-ol, C6H14O2, InChI=1S/C6H14O2/c1-2-3-5-8-6-4-7/h7H,2-6H2,1H3
Compound 2: 2-pentoxyethanol, C7H16O2, InChI=1S/C7H16O2/c1-2-3-4-6-9-7-5-8/h8H,2-7H2,1H3
Compound 3: diethylene glycol monopentyl ether, C9H20O3, InChI=1S/C9H20O3/c1-2-3-4-6-11-8-9-12-7-5-10/h10H,2-9H2,1H3
Compound 4: diethylene glycol 2-methyl 1-butyl ether, C9H20O3, InChI=1S/C9H20O3/c1-3-9(2)8-12-7-6-11-5-4-10/h9-10H,3-8H2,1-2H3
Compound 5: 2-hexyloxyethanol, C8H18O2, InChI=1S/C8H18O2/c1-2-3-4-5-7-10-8-6-9/h9H,2-8H2,1H3
Compound 6: 2-(2-hexyloxyethoxy)ethanol, C10H22O3, InChI=1S/C10H22O3/c1-2-3-4-5-7-12-9-10-13-8-6-11/h11H,2-10H2,1H3
Compound 7: triethylene glycol monohexyl ether, C12H26O4, InChI=1S/C12H26O4/c1-2-3-4-5-7-14-9-11-16-12-10-15-8-6-13/h13H,2-12H2,1H3
Compound 8: 2-(heptyloxy)ethanol, C9H20O2, InChI=1S/C9H20O2/c1-2-3-4-5-6-8-11-9-7-10/h10H,2-9H2,1H3
Compound 9: 2-[2-(heptyloxy)ethoxy]ethanol, C11H24O3, InChI=1S/C11H24O3/c1-2-3-4-5-6-8-13-10-11-14-9-7-12/h12H,2-11H2,1H3
Compound 10: triethylene glycol n-heptyl ether, C13H28O4, InChI=1S/C13H28O4/c1-2-3-4-5-6-8-15-10-12-17-13-11-16-9-7-14/h14H,2-13H2,1H3
Compound 11: 1-propoxy-2-propanol, C6H14O2, InChI=1S/C6H14O2/c1-3-4-8-5-6(2)7/h6-7H,3-5H2,1-2H3
Compound 12: 1-(1-methyl-2-propoxyethoxy)-2-propanol, C9H20O3, InChI=1S/C9H20O3/c1-4-5-11-7-9(3)12-6-8(2)10/h8-10H,4-7H2,1-3H3
Compound 13: 1-[1-methyl-2-(1-methyl-2-propoxyethoxy)ethoxy]-2-propanol, C12H26O4, InChI=1S/C12H26O4/c1-5-6-14-8-11(3)16-9-12(4)15-7-10(2)13/h10-13H,5-9H2,1-4H3
Compound 14: 1-butoxy-2-propanol, C7H16O2, InChI=1S/C7H16O2/c1-3-4-5-9-6-7(2)8/h7-8H,3-6H2,1-2H3
Compound 15: 2-propanol, 1-(2-butoxy-1-methylethoxy)-, C10H22O3, InChI=1S/C10H22O3/c1-4-5-6-12-8-10(3)13-7-9(2)11/h9-11H,4-8H2,1-3H3
Compound 16: tripropylene glycol monobutyl ether, C13H28O4, InChI=1S/C13H28O4/c1-5-6-7-15-9-12(3)17-10-13(4)16-8-11(2)14/h11-14H,5-10H2,1-4H3
Compound 17: ethylene glycol 2-methyl-1-butyl ether, C7H16O2, InChI=1S/C7H16O2/c1-3-7(2)6-9-5-4-8/h7-8H,3-6H2,1-2H3
Compound 18: water, H2O, InChI=1S/H2O/h1H2

System: water + ethylene glycol 2-methyl-1-butyl ether; phases: Liquid mixture 1, Liquid mixture 2
Fixed: Pressure, kPa = 101.325
Property: Mass fraction of ethylene glycol 2-methyl-1-butyl ether (Liquid mixture 1); method: Chromatography
Temperature, K	Mass fraction of ethylene glycol 2-methyl-1-butyl ether	uncertainty
293.15	0.0365	0.0018
313.15	0.027	0.0014
333.15	0.0239	0.0012
353.15	0.0231	0.0012

System: water + ethylene glycol 2-methyl-1-butyl ether; phases: Liquid mixture 2, Liquid mixture 1
Fixed: Pressure, kPa = 101.325
Property: Mass fraction of ethylene glycol 2-methyl-1-butyl ether (Liquid mixture 2); method: Chromatography
Temperature, K	Mass fraction of ethylene glycol 2-methyl-1-butyl ether	uncertainty
293.15	0.814	0.041
313.15	0.836	0.042
333.15	0.843	0.042
353.15	0.842	0.042

System: 2-butoxyethan-1-ol + water; phases: Liquid mixture 1, Liquid mixture 2
Fixed: Pressure, kPa = 101.325
Property: Mass fraction of 2-butoxyethan-1-ol (Liquid mixture 1); method: Chromatography
Temperature, K	Mass fraction of 2-butoxyethan-1-ol	uncertainty
323.15	0.188	0.0095
328.15	0.136	0.0069
333.15	0.118	0.006
343.15	0.102	0.0052
353.15	0.096	0.0048
363.15	0.0988	0.005
373.15	0.104	0.0053
383.15	0.12	0.0061
393.15	0.146	0.0074
401.15	0.213	0.0108

System: 2-butoxyethan-1-ol + water; phases: Liquid mixture 2, Liquid mixture 1
Fixed: Pressure, kPa = 101.325
Property: Mass fraction of 2-butoxyethan-1-ol (Liquid mixture 2); method: Chromatography
Temperature, K	Mass fraction of 2-butoxyethan-1-ol	uncertainty
323.15	0.416	0.021
328.15	0.5	0.025
333.15	0.541	0.027
343.15	0.583	0.029
353.15	0.6	0.03
363.15	0.603	0.03
373.15	0.596	0.03
383.15	0.573	0.029
393.15	0.54	0.027
401.15	0.446	0.023

System: 2-pentoxyethanol + water; phases: Liquid mixture 1, Liquid mixture 2
Fixed: Pressure, kPa = 101.325
Property: Mass fraction of 2-pentoxyethanol (Liquid mixture 1); method: Chromatography
Temperature, K	Mass fraction of 2-pentoxyethanol	uncertainty
293.15	0.0364	0.0018
313.15	0.0262	0.0013
333.15	0.0229	0.0012
353.15	0.0217	0.0011

System: 2-pentoxyethanol + water; phases: Liquid mixture 2, Liquid mixture 1
Fixed: Pressure, kPa = 101.325
Property: Mass fraction of 2-pentoxyethanol (Liquid mixture 2); method: Chromatography
Temperature, K	Mass fraction of 2-pentoxyethanol	uncertainty
293.15	0.711	0.036
313.15	0.771	0.039
333.15	0.796	0.04
353.15	0.803	0.04

System: water + diethylene glycol monopentyl ether; phases: Liquid mixture 1, Liquid mixture 2
Fixed: Pressure, kPa = 101.325
Property: Mass fraction of diethylene glycol monopentyl ether (Liquid mixture 1); method: Chromatography
Temperature, K	Mass fraction of diethylene glycol monopentyl ether	uncertainty
318.15	0.0538	0.0027
323.15	0.0418	0.0021
333.15	0.0342	0.0017
353.15	0.0296	0.0015
373.15	0.03	0.0015

System: water + diethylene glycol monopentyl ether; phases: Liquid mixture 2, Liquid mixture 1
Fixed: Pressure, kPa = 101.325
Property: Mass fraction of diethylene glycol monopentyl ether (Liquid mixture 2); method: Chromatography
Temperature, K	Mass fraction of diethylene glycol monopentyl ether	uncertainty
318.15	0.467	0.024
323.15	0.559	0.028
333.15	0.638	0.032
353.15	0.71	0.036
373.15	0.734	0.037

System: water + diethylene glycol 2-methyl 1-butyl ether; phases: Liquid mixture 2, Liquid mixture 1
Fixed: Pressure, kPa = 101.325
Property: Mass fraction of diethylene glycol 2-methyl 1-butyl ether (Liquid mixture 2); method: Chromatography
Temperature, K	Mass fraction of diethylene glycol 2-methyl 1-butyl ether	uncertainty
305.15	0.411	0.021
313.15	0.585	0.029
333.15	0.718	0.036
353.15	0.76	0.038

System: water + diethylene glycol 2-methyl 1-butyl ether; phases: Liquid mixture 1, Liquid mixture 2
Fixed: Pressure, kPa = 101.325
Property: Mass fraction of diethylene glycol 2-methyl 1-butyl ether (Liquid mixture 1); method: Chromatography
Temperature, K	Mass fraction of diethylene glycol 2-methyl 1-butyl ether	uncertainty
305.15	0.0857	0.0043
313.15	0.0471	0.0024
333.15	0.0351	0.0018
353.15	0.0298	0.0015

System: 2-hexyloxyethanol + water; phases: Liquid mixture 1, Liquid mixture 2
Fixed: Pressure, kPa = 101.325
Property: Mass fraction of 2-hexyloxyethanol (Liquid mixture 1); method: Chromatography
Temperature, K	Mass fraction of 2-hexyloxyethanol	uncertainty
293.15	0.00946	0.00048
313.15	0.00743	0.00038
333.15	0.00683	0.00034
353.15	0.00693	0.00035

System: 2-hexyloxyethanol + water; phases: Liquid mixture 2, Liquid mixture 1
Fixed: Pressure, kPa = 101.325
Property: Mass fraction of 2-hexyloxyethanol (Liquid mixture 2); method: Chromatography
Temperature, K	Mass fraction of 2-hexyloxyethanol	uncertainty
293.15	0.823	0.041
313.15	0.844	0.042
333.15	0.86	0.043
353.15	0.863	0.043

System: 2-(2-hexyloxyethoxy)ethanol + water; phases: Liquid mixture 1, Liquid mixture 2
Fixed: Pressure, kPa = 101.325
Property: Mass fraction of 2-(2-hexyloxyethoxy)ethanol (Liquid mixture 1); method: Chromatography
Temperature, K	Mass fraction of 2-(2-hexyloxyethoxy)ethanol	uncertainty
293.15	0.0199	0.001
313.15	0.013	0.00066
333.15	0.00996	0.0005
353.15	0.00949	0.00048

System: 2-(2-hexyloxyethoxy)ethanol + water; phases: Liquid mixture 2, Liquid mixture 1
Fixed: Pressure, kPa = 101.325
Property: Mass fraction of 2-(2-hexyloxyethoxy)ethanol (Liquid mixture 2); method: Chromatography
Temperature, K	Mass fraction of 2-(2-hexyloxyethoxy)ethanol	uncertainty
293.15	0.466	0.024
313.15	0.701	0.035
333.15	0.762	0.038
353.15	0.798	0.04

System: water + triethylene glycol monohexyl ether; phases: Liquid mixture 1, Liquid mixture 2
Fixed: Pressure, kPa = 101.325
Property: Mass fraction of triethylene glycol monohexyl ether (Liquid mixture 1); method: Chromatography
Temperature, K	Mass fraction of triethylene glycol monohexyl ether	uncertainty
323.15	0.0231	0.0012
333.15	0.0143	0.0007
343.15	0.0129	0.0007
353.15	0.0121	0.0006
363.15	0.0121	0.0006
373.15	0.0125	0.0006
383.15	0.0129	0.0007
393.15	0.0136	0.0007
403.15	0.015	0.0008

System: water + triethylene glycol monohexyl ether; phases: Liquid mixture 2, Liquid mixture 1
Fixed: Pressure, kPa = 101.325
Property: Mass fraction of triethylene glycol monohexyl ether (Liquid mixture 2); method: Chromatography
Temperature, K	Mass fraction of triethylene glycol monohexyl ether	uncertainty
323.15	0.4	0.02
333.15	0.569	0.029
343.15	0.655	0.033
353.15	0.707	0.035
363.15	0.738	0.037
373.15	0.759	0.038
383.15	0.769	0.038
393.15	0.773	0.039
403.15	0.775	0.039

System: 2-(heptyloxy)ethanol + water; phases: Liquid mixture 1, Liquid mixture 2
Fixed: Pressure, kPa = 101.325
Property: Mass fraction of 2-(heptyloxy)ethanol (Liquid mixture 1); method: Chromatography
Temperature, K	Mass fraction of 2-(heptyloxy)ethanol	uncertainty
303.15	0.00247	0.00012
313.15	0.00214	0.00011
333.15	0.00207	0.0001
353.15	0.00227	0.00011
373.15	0.00268	0.00014

System: 2-(heptyloxy)ethanol + water; phases: Liquid mixture 2, Liquid mixture 1
Fixed: Pressure, kPa = 101.325
Property: Mass fraction of 2-(heptyloxy)ethanol (Liquid mixture 2); method: Chromatography
Temperature, K	Mass fraction of 2-(heptyloxy)ethanol	uncertainty
303.15	0.865	0.043
313.15	0.875	0.044
333.15	0.888	0.044
353.15	0.892	0.045
373.15	0.892	0.045

System: water + 2-[2-(heptyloxy)ethoxy]ethanol; phases: Liquid mixture 1, Liquid mixture 2
Fixed: Pressure, kPa = 101.325
Property: Mass fraction of 2-[2-(heptyloxy)ethoxy]ethanol (Liquid mixture 1); method: Chromatography
Temperature, K	Mass fraction of 2-[2-(heptyloxy)ethoxy]ethanol	uncertainty
293.15	0.00517	0.00026
303.15	0.0042	0.00021
313.15	0.00355	0.00018
333.15	0.00313	0.00016
353.15	0.00308	0.00016
373.15	0.00359	0.00018

System: water + 2-[2-(heptyloxy)ethoxy]ethanol; phases: Liquid mixture 2, Liquid mixture 1
Fixed: Pressure, kPa = 101.325
Property: Mass fraction of 2-[2-(heptyloxy)ethoxy]ethanol (Liquid mixture 2); method: Chromatography
Temperature, K	Mass fraction of 2-[2-(heptyloxy)ethoxy]ethanol	uncertainty
293.15	0.584	0.029
303.15	0.656	0.033
313.15	0.726	0.036
333.15	0.804	0.04
353.15	0.836	0.042
373.15	0.849	0.042

System: water + triethylene glycol n-heptyl ether; phases: Liquid mixture 1, Liquid mixture 2
Fixed: Pressure, kPa = 101.325
Property: Mass fraction of triethylene glycol n-heptyl ether (Liquid mixture 1); method: Chromatography
Temperature, K	Mass fraction of triethylene glycol n-heptyl ether	uncertainty
303.15	0.0133	0.00067
313.15	0.00535	0.00027
323.15	0.00438	0.00022
333.15	0.00417	0.00021
353.15	0.00396	0.0002
373.15	0.00411	0.00021

System: water + triethylene glycol n-heptyl ether; phases: Liquid mixture 2, Liquid mixture 1
Fixed: Pressure, kPa = 101.325
Property: Mass fraction of triethylene glycol n-heptyl ether (Liquid mixture 2); method: Chromatography
Temperature, K	Mass fraction of triethylene glycol n-heptyl ether	uncertainty
303.15	0.229	0.012
313.15	0.466	0.024
323.15	0.568	0.029
333.15	0.655	0.033
353.15	0.764	0.038
373.15	0.8	0.04

System: 1-propoxy-2-propanol + water; phases: Liquid mixture 1, Liquid mixture 2
Fixed: Pressure, kPa = 101.325
Property: Mass fraction of 1-propoxy-2-propanol (Liquid mixture 1); method: Chromatography
Temperature, K	Mass fraction of 1-propoxy-2-propanol	uncertainty
306.15	0.364	0.018
309.15	0.28	0.014
310.15	0.257	0.013
315.15	0.24	0.012
333.15	0.185	0.009
338.15	0.169	0.009

System: 1-propoxy-2-propanol + water; phases: Liquid mixture 2, Liquid mixture 1
Fixed: Pressure, kPa = 101.325
Property: Mass fraction of 1-propoxy-2-propanol (Liquid mixture 2); method: Chromatography
Temperature, K	Mass fraction of 1-propoxy-2-propanol	uncertainty
306.15	0.574	0.029
309.15	0.629	0.032
310.15	0.64	0.032
315.15	0.686	0.034
333.15	0.738	0.037
338.15	0.745	0.037

System: water + 1-(1-methyl-2-propoxyethoxy)-2-propanol; phases: Liquid mixture 1, Liquid mixture 2
Fixed: Pressure, kPa = 101.325
Property: Mass fraction of 1-(1-methyl-2-propoxyethoxy)-2-propanol (Liquid mixture 1); method: Chromatography
Temperature, K	Mass fraction of 1-(1-methyl-2-propoxyethoxy)-2-propanol	uncertainty
288.15	0.291	0.0147
293.15	0.202	0.0102
303.15	0.13	0.0066
313.15	0.0932	0.0047
333.15	0.0544	0.0027

System: water + 1-(1-methyl-2-propoxyethoxy)-2-propanol; phases: Liquid mixture 2, Liquid mixture 1
Fixed: Pressure, kPa = 101.325
Property: Mass fraction of 1-(1-methyl-2-propoxyethoxy)-2-propanol (Liquid mixture 2); method: Chromatography
Temperature, K	Mass fraction of 1-(1-methyl-2-propoxyethoxy)-2-propanol	uncertainty
288.15	0.697	0.035
293.15	0.742	0.037
303.15	0.8	0.04
313.15	0.873	0.044
333.15	0.929	0.046

System: water + 1-[1-methyl-2-(1-methyl-2-propoxyethoxy)ethoxy]-2-propanol; phases: Liquid mixture 1, Liquid mixture 2
Fixed: Pressure, kPa = 101.325
Property: Mass fraction of 1-[1-methyl-2-(1-methyl-2-propoxyethoxy)ethoxy]-2-propanol (Liquid mixture 1); method: Chromatography
Temperature, K	Mass fraction of 1-[1-methyl-2-(1-methyl-2-propoxyethoxy)ethoxy]-2-propanol	uncertainty
283.15	0.257	0.013
293.15	0.165	0.0083
303.15	0.113	0.0057
313.15	0.0684	0.0035
333.15	0.0336	0.0017

System: water + 1-[1-methyl-2-(1-methyl-2-propoxyethoxy)ethoxy]-2-propanol; phases: Liquid mixture 2, Liquid mixture 1
Fixed: Pressure, kPa = 101.325
Property: Mass fraction of 1-[1-methyl-2-(1-methyl-2-propoxyethoxy)ethoxy]-2-propanol (Liquid mixture 2); method: Chromatography
Temperature, K	Mass fraction of 1-[1-methyl-2-(1-methyl-2-propoxyethoxy)ethoxy]-2-propanol	uncertainty
283.15	0.754	0.038
293.15	0.935	0.047
303.15	0.962	0.038
313.15	0.987	0.013
333.15	0.964	0.036

System: 1-butoxy-2-propanol + water; phases: Liquid mixture 2, Liquid mixture 1
Fixed: Pressure, kPa = 101.325
Property: Mass fraction of 1-butoxy-2-propanol (Liquid mixture 2); method: Chromatography
Temperature, K	Mass fraction of 1-butoxy-2-propanol	uncertainty
268.15	0.735	0.037
273.15	0.766	0.038
285.15	0.812	0.041
295.15	0.836	0.042
298.15	0.841	0.042
305.15	0.847	0.042
313.15	0.842	0.042
321.15	0.857	0.043
333.15	0.888	0.044

System: 1-butoxy-2-propanol + water; phases: Liquid mixture 1, Liquid mixture 2
Fixed: Pressure, kPa = 101.325
Property: Mass fraction of 1-butoxy-2-propanol (Liquid mixture 1); method: Chromatography
Temperature, K	Mass fraction of 1-butoxy-2-propanol	uncertainty
268.15	0.115	0.0058
273.15	0.0935	0.0047
285.15	0.076	0.0038
295.15	0.0691	0.0035
298.15	0.055	0.0028
305.15	0.05	0.0025
313.15	0.0327	0.0017
321.15	0.033	0.0017
333.15	0.0319	0.0016

System: water + 2-propanol, 1-(2-butoxy-1-methylethoxy)-; phases: Liquid mixture 1, Liquid mixture 2
Fixed: Pressure, kPa = 101.325
Property: Mass fraction of 2-propanol, 1-(2-butoxy-1-methylethoxy)- (Liquid mixture 1); method: Chromatography
Temperature, K	Mass fraction of 2-propanol, 1-(2-butoxy-1-methylethoxy)-	uncertainty
273.15	0.191	0.0096
277.15	0.144	0.0073
298.15	0.04	0.002
313.15	0.026	0.0013
333.15	0.015	0.0008
353.15	0.013	0.0007

System: water + 2-propanol, 1-(2-butoxy-1-methylethoxy)-; phases: Liquid mixture 2, Liquid mixture 1
Fixed: Pressure, kPa = 101.325
Property: Mass fraction of 2-propanol, 1-(2-butoxy-1-methylethoxy)- (Liquid mixture 2); method: Chromatography
Temperature, K	Mass fraction of 2-propanol, 1-(2-butoxy-1-methylethoxy)-	uncertainty
273.15	0.799	0.04
277.15	0.8	0.04
298.15	0.889	0.044
313.15	0.908	0.045
333.15	0.927	0.046
353.15	0.923	0.046

System: water + tripropylene glycol monobutyl ether; phases: Liquid mixture 1, Liquid mixture 2
Fixed: Pressure, kPa = 101.325
Property: Mass fraction of tripropylene glycol monobutyl ether (Liquid mixture 1); method: Chromatography
Temperature, K	Mass fraction of tripropylene glycol monobutyl ether	uncertainty
273.15	0.111	0.0056
283.15	0.0803	0.0041
293.15	0.0459	0.0023
313.15	0.017	0.0009
333.15	0.0084	0.0004

System: water + tripropylene glycol monobutyl ether; phases: Liquid mixture 2, Liquid mixture 1
Fixed: Pressure, kPa = 101.325
Property: Mass fraction of tripropylene glycol monobutyl ether (Liquid mixture 2); method: Chromatography
Temperature, K	Mass fraction of tripropylene glycol monobutyl ether	uncertainty
273.15	0.872	0.044
283.15	0.922	0.046
293.15	0.93	0.047
313.15	0.95	0.048
333.15	0.937	0.047
