Measured thermophysical data. Excess Molar Enthalpies and Hydrogen Bonding in Binary Mixtures Containing Glycols or Poly(Ethylene Glycols) and 2-Phenylethyl Alcohol at 308.15 K and Atmospheric Pressure
Source: J. Chem. Eng. Data, 2004, 10.1021/je049943s
Compound 1: 1,2-ethanediol, C2H6O2, InChI=1S/C2H6O2/c3-1-2-4/h3-4H,1-2H2
Compound 2: 1,2-propanediol, C3H8O2, InChI=1S/C3H8O2/c1-3(5)2-4/h3-5H,2H2,1H3
Compound 3: diethylene glycol, C4H10O3, InChI=1S/C4H10O3/c5-1-3-7-4-2-6/h5-6H,1-4H2
Compound 4: triethylene glycol, C6H14O4, InChI=1S/C6H14O4/c7-1-3-9-5-6-10-4-2-8/h7-8H,1-6H2
Compound 5: tetraethylene glycol, C8H18O5, InChI=1S/C8H18O5/c9-1-3-11-5-7-13-8-6-12-4-2-10/h9-10H,1-8H2
Compound 6: 2-phenylethanol, C8H10O, InChI=1S/C8H10O/c9-7-6-8-4-2-1-3-5-8/h1-5,9H,6-7H2

System: 1,2-ethanediol; phases: Liquid
Fixed: Pressure, kPa = 101.325
Property: Mass density, kg/m3 (Liquid); method: VIBTUB:UFactor:2
Temperature, K	Mass density, kg/m3	uncertainty
298.15	1109.8	0.58
308.15	1102.93	0.58

System: 1,2-propanediol; phases: Liquid
Property: Mass density, kg/m3 (Liquid); method: VIBTUB:UFactor:2
Temperature, K	Pressure, kPa	Mass density, kg/m3	uncertainty
308.15	101.325	1026.15	0.53

System: diethylene glycol; phases: Liquid
Fixed: Pressure, kPa = 101.325
Property: Mass density, kg/m3 (Liquid); method: VIBTUB:UFactor:2
Temperature, K	Mass density, kg/m3	uncertainty
298.15	1112.38	0.58
308.15	1105.88	0.58

System: triethylene glycol; phases: Liquid
Fixed: Pressure, kPa = 101.325
Property: Mass density, kg/m3 (Liquid); method: VIBTUB:UFactor:2
Temperature, K	Mass density, kg/m3	uncertainty
298.15	1119.78	0.59
308.15	1112.61	0.58

System: tetraethylene glycol; phases: Liquid
Property: Mass density, kg/m3 (Liquid); method: VIBTUB:UFactor:2
Temperature, K	Pressure, kPa	Mass density, kg/m3	uncertainty
298.15	101.325	1120.09	0.59

System: 2-phenylethanol; phases: Liquid
Property: Mass density, kg/m3 (Liquid); method: VIBTUB:UFactor:2
Temperature, K	Pressure, kPa	Mass density, kg/m3	uncertainty
308.15	101.325	1008.68	0.51

System: 2-phenylethanol + 1,2-ethanediol; phases: Liquid
Fixed: Temperature, K = 308.15
Fixed: Pressure, kPa = 101.325
Property: Excess molar enthalpy (molar enthalpy of mixing), kJ/mol (Liquid); method: FLOW:UFactor:2
Mole fraction of 1,2-ethanediol	Excess molar enthalpy (molar enthalpy of mixing), kJ/mol	uncertainty
0.0823	0.1061	0.0032
0.1521	0.1613	0.004
0.212	0.1908	0.0045
0.264	0.2034	0.0047
0.3498	0.2069	0.0048
0.4177	0.2001	0.0047
0.5183	0.1954	0.0046
0.5892	0.1864	0.0045
0.6827	0.1705	0.0042
0.7635	0.1505	0.0039
0.8115	0.131	0.0036
0.8659	0.1076	0.0032
0.8959	0.0897	0.0029
0.9281	0.0705	0.0026
0.9451	0.0562	0.0024
0.9627	0.0414	0.0022
0.981	0.0212	0.0019

System: 1,2-propanediol + 2-phenylethanol; phases: Liquid
Fixed: Temperature, K = 308.15
Fixed: Pressure, kPa = 101.325
Property: Excess molar enthalpy (molar enthalpy of mixing), kJ/mol (Liquid); method: FLOW:UFactor:2
Mole fraction of 1,2-propanediol	Excess molar enthalpy (molar enthalpy of mixing), kJ/mol	uncertainty
0.0637	0.1052	0.0032
0.1198	0.1687	0.0042
0.1695	0.2021	0.0047
0.2139	0.2292	0.0052
0.2858	0.2508	0.0056
0.3525	0.2545	0.0056
0.4495	0.2436	0.0054
0.5212	0.241	0.0054
0.6201	0.2256	0.0051
0.7101	0.2128	0.0049
0.7656	0.1979	0.0047
0.8305	0.1663	0.0041
0.8672	0.142	0.0038
0.9074	0.1113	0.0033
0.9289	0.0887	0.0029
0.9494	0.0663	0.0026
0.9751	0.0357	0.0021

System: 2-phenylethanol + diethylene glycol; phases: Liquid
Fixed: Temperature, K = 308.15
Fixed: Pressure, kPa = 101.325
Property: Excess molar enthalpy (molar enthalpy of mixing), kJ/mol (Liquid); method: FLOW:UFactor:2
Mole fraction of diethylene glycol	Excess molar enthalpy (molar enthalpy of mixing), kJ/mol	uncertainty
0.05	-0.1101	0.0033
0.0952	-0.1817	0.0044
0.1363	-0.2262	0.0051
0.1738	-0.2563	0.0057
0.2399	-0.2824	0.0061
0.2961	-0.3016	0.0064
0.3869	-0.3076	0.0065
0.4569	-0.3043	0.0065
0.5579	-0.2981	0.0064
0.6544	-0.2862	0.0062
0.7163	-0.2728	0.0059
0.7911	-0.2416	0.0054
0.8347	-0.2104	0.0049
0.8834	-0.1677	0.0041
0.9099	-0.1487	0.0039
0.9381	-0.1036	0.0032
0.968	-0.055	0.0024

System: 2-phenylethanol + triethylene glycol; phases: Liquid
Fixed: Temperature, K = 308.15
Fixed: Pressure, kPa = 101.325
Property: Excess molar enthalpy (molar enthalpy of mixing), kJ/mol (Liquid); method: FLOW:UFactor:2
Mole fraction of triethylene glycol	Excess molar enthalpy (molar enthalpy of mixing), kJ/mol	uncertainty
0.036	-0.1021	0.0031
0.0695	-0.1763	0.0043
0.1008	-0.2268	0.0051
0.13	-0.2603	0.0057
0.1832	-0.2982	0.0064
0.2296	-0.316	0.0067
0.3096	-0.3304	0.0069
0.3741	-0.3352	0.007
0.4728	-0.3368	0.007
0.5737	-0.3255	0.0068
0.6421	-0.3158	0.0067
0.7346	-0.2828	0.0061
0.782	-0.2509	0.0056
0.8433	-0.1981	0.0047
0.8777	-0.1657	0.0041
0.915	-0.1181	0.0034
0.9556	-0.0631	0.0025

System: 2-phenylethanol + tetraethylene glycol; phases: Liquid
Fixed: Temperature, K = 308.15
Fixed: Pressure, kPa = 101.325
Property: Excess molar enthalpy (molar enthalpy of mixing), kJ/mol (Liquid); method: FLOW:UFactor:2
Mole fraction of tetraethylene glycol	Excess molar enthalpy (molar enthalpy of mixing), kJ/mol	uncertainty
0.0281	-0.121	0.0034
0.0546	-0.2042	0.0048
0.0797	-0.2567	0.0057
0.1036	-0.2875	0.0062
0.1478	-0.3272	0.0069
0.1878	-0.3417	0.0071
0.2575	-0.3481	0.0072
0.3161	-0.3492	0.0073
0.4095	-0.3592	0.0074
0.5099	-0.3672	0.0076
0.5811	-0.3537	0.0073
0.6754	-0.3346	0.007
0.7351	-0.303	0.0065
0.8063	-0.2535	0.0056
0.8473	-0.2122	0.0049
0.8928	-0.1759	0.0043
0.9433	-0.1081	0.0032
