Measured thermophysical data. Vapor Pressures of n-Heptane Determined by Comparative Ebulliometry
Source: J. Chem. Eng. Data, 2005, 10.1021/je049562e
Compound 1: heptane, C7H16, InChI=1S/C7H16/c1-3-5-7-6-4-2/h3-7H2,1-2H3, purity 99.5%

System: heptane; phases: Liquid, Gas
Property: Vapor or sublimation pressure, kPa (Liquid); method: Twin ebulliometer
Temperature, K	Vapor or sublimation pressure, kPa	uncertainty
372.08	102.902	0.065
374.5	110.393	0.067
377.683	120.888	0.074
384.393	145.556	0.081
389.406	166.406	0.09
393.585	185.495	0.098
396.7	200.787	0.107
401.258	224.89	0.114
405.442	248.924	0.124
409.66	275.088	0.134
413.799	302.765	0.146
419.168	341.763	0.157
423.851	378.798	0.171
428.687	420.153	0.186
433.814	467.647	0.201
438.862	518.271	0.217
443.495	568.273	0.233
447.955	619.765	0.249
451.804	666.967	0.266
456.351	726.159	0.28
459.776	773.289	0.3
465.068	850.621	0.318
469.841	925.23	0.338
473.394	983.899	0.355
476.107	1030.553	0.372
479.566	1092.41	0.389
483.665	1169.382	0.408
487.361	1242.283	0.428
490.812	1313.388	0.447
494.112	1384.19	0.464
496.771	1443.398	0.484
500.015	1518.182	0.503
503.591	1604.134	0.525
507.388	1699.505	0.549
510.952	1793.008	0.577
515.266	1911.603	0.603
518.993	2019.086	0.631
522.22	2116.113	0.66
525.53	2219.702	0.685
528.304	2309.807	0.713
531.468	2416.5	0.741
534.573	2525.679	0.772
537.195	2621.761	0.791
