Measured thermophysical data. Excess Enthalpies of {CH3(CH2)nCN, n = 5 to 12} + Methyl Methylthiomethyl Sulfoxide or + Dimethyl Sulfoxide at 298.15 K
Source: J. Chem. Eng. Data, 2004, 10.1021/je0499317
Compound 1: hexanenitrile, C6H11N, InChI=1S/C6H11N/c1-2-3-4-5-6-7/h2-5H2,1H3
Compound 2: 1-methylsulfinyl-2-thiapropane, C3H8OS2, InChI=1S/C3H8OS2/c1-5-3-6(2)4/h3H2,1-2H3, purity 99.5%
Compound 3: heptanenitrile, C7H13N, InChI=1S/C7H13N/c1-2-3-4-5-6-7-8/h2-6H2,1H3
Compound 4: octanenitrile, C8H15N, InChI=1S/C8H15N/c1-2-3-4-5-6-7-8-9/h2-7H2,1H3
Compound 5: nonanenitrile, C9H17N, InChI=1S/C9H17N/c1-2-3-4-5-6-7-8-9-10/h2-8H2,1H3
Compound 6: 1-decanenitrile, C10H19N, InChI=1S/C10H19N/c1-2-3-4-5-6-7-8-9-10-11/h2-9H2,1H3
Compound 7: 1-decylcyanide, C11H21N, InChI=1S/C11H21N/c1-2-3-4-5-6-7-8-9-10-11-12/h2-10H2,1H3
Compound 8: n-dodecanenitrile, C12H23N, InChI=1S/C12H23N/c1-2-3-4-5-6-7-8-9-10-11-12-13/h2-11H2,1H3
Compound 9: dodecanecarbonitrile, C13H25N, InChI=1S/C13H25N/c1-2-3-4-5-6-7-8-9-10-11-12-13-14/h2-12H2,1H3
Compound 10: tetradecanenitrile, C14H27N, InChI=1S/C14H27N/c1-2-3-4-5-6-7-8-9-10-11-12-13-14-15/h2-13H2,1H3
Compound 11: dimethyl sulfoxide, C2H6OS, InChI=1S/C2H6OS/c1-4(2)3/h1-2H3, purity 99.5%

System: hexanenitrile + 1-methylsulfinyl-2-thiapropane; phases: Liquid
Fixed: Temperature, K = 298.15
Fixed: Pressure, kPa = 101.325
Property: Excess molar enthalpy (molar enthalpy of mixing), kJ/mol (Liquid); method: CALVET:UFactor:2
Mole fraction of 1-methylsulfinyl-2-thiapropane	Excess molar enthalpy (molar enthalpy of mixing), kJ/mol	uncertainty
0.01678	0.05423	0.00239
0.02979	0.10353	0.00315
0.05841	0.19729	0.00461
0.07605	0.24661	0.00537
0.14347	0.43266	0.00825
0.19443	0.54547	0.01
0.21844	0.59092	0.0107
0.2608	0.66031	0.01178
0.38263	0.78711	0.01374
0.43816	0.80747	0.01406
0.47847	0.81115	0.01412
0.57507	0.7828	0.01368
0.73069	0.628	0.01128
0.83732	0.44927	0.00851
0.91768	0.25491	0.0055
0.93924	0.19582	0.00458
0.97844	0.07447	0.0027

System: heptanenitrile + 1-methylsulfinyl-2-thiapropane; phases: Liquid
Fixed: Temperature, K = 298.15
Fixed: Pressure, kPa = 101.325
Property: Excess molar enthalpy (molar enthalpy of mixing), kJ/mol (Liquid); method: CALVET:UFactor:2
Mole fraction of 1-methylsulfinyl-2-thiapropane	Excess molar enthalpy (molar enthalpy of mixing), kJ/mol	uncertainty
0.02045	0.081779	0.002816
0.05221	0.20079	0.00466
0.08567	0.31876	0.00649
0.09776	0.35747	0.00709
0.19348	0.59917	0.01083
0.22081	0.65524	0.0117
0.27014	0.74181	0.01304
0.38932	0.86991	0.01503
0.49145	0.90228	0.01553
0.57903	0.88516	0.01526
0.74778	0.71435	0.01262
0.86087	0.46584	0.00877
0.93596	0.24739	0.00538
0.95755	0.16536	0.00411
0.97141	0.11526	0.00333

System: octanenitrile + 1-methylsulfinyl-2-thiapropane; phases: Liquid
Fixed: Temperature, K = 298.15
Fixed: Pressure, kPa = 101.325
Property: Excess molar enthalpy (molar enthalpy of mixing), kJ/mol (Liquid); method: CALVET:UFactor:2
Mole fraction of 1-methylsulfinyl-2-thiapropane	Excess molar enthalpy (molar enthalpy of mixing), kJ/mol	uncertainty
0.02232	0.0869	0.0029
0.06732	0.26786	0.0057
0.10826	0.40473	0.00782
0.16005	0.55795	0.01019
0.22318	0.70933	0.01254
0.34762	0.90551	0.01558
0.52073	0.99167	0.01691
0.62178	0.95217	0.0163
0.70864	0.8619	0.0149
0.77689	0.74167	0.01304
0.86897	0.50942	0.00944
0.91289	0.36726	0.00724
0.92657	0.32381	0.00657
0.95479	0.20785	0.00477
0.98789	0.06463	0.00255

System: nonanenitrile + 1-methylsulfinyl-2-thiapropane; phases: Liquid
Fixed: Temperature, K = 298.15
Fixed: Pressure, kPa = 101.325
Property: Excess molar enthalpy (molar enthalpy of mixing), kJ/mol (Liquid); method: CALVET:UFactor:2
Mole fraction of 1-methylsulfinyl-2-thiapropane	Excess molar enthalpy (molar enthalpy of mixing), kJ/mol	uncertainty
0.01839	0.08326	0.00284
0.03954	0.17205	0.00421
0.08357	0.33524	0.00674
0.11857	0.45392	0.00858
0.175	0.62433	0.01122
0.2257	0.7441	0.01308
0.26856	0.83053	0.01442
0.37211	0.9702	0.01658
0.38121	0.98075	0.01674
0.46544	1.044	0.0177
0.55644	1.0591	0.018
0.64093	1.0096	0.0172
0.77903	0.81518	0.01418
0.84168	0.65021	0.01162
0.88056	0.52763	0.00972
0.90583	0.44249	0.0084
0.95644	0.22226	0.00499
0.9784	0.11119	0.00327

System: 1-decanenitrile + 1-methylsulfinyl-2-thiapropane; phases: Liquid
Fixed: Temperature, K = 298.15
Fixed: Pressure, kPa = 101.325
Property: Excess molar enthalpy (molar enthalpy of mixing), kJ/mol (Liquid); method: CALVET:UFactor:2
Mole fraction of 1-methylsulfinyl-2-thiapropane	Excess molar enthalpy (molar enthalpy of mixing), kJ/mol	uncertainty
0.02311	0.09542	0.00303
0.02808	0.12143	0.00343
0.05736	0.24893	0.00541
0.07887	0.33815	0.00679
0.10586	0.45091	0.00853
0.12671	0.53529	0.00984
0.15155	0.62175	0.01118
0.186	0.73578	0.01295
0.22775	0.85145	0.01474
0.28933	0.97107	0.01659
0.33825	1.0496	0.0178
0.36567	1.082	0.0183
0.49346	1.1379	0.0192
0.55715	1.1253	0.019
0.65753	1.049	0.0178
0.70139	0.99861	0.01702
0.74821	0.91917	0.01579
0.78729	0.83935	0.01455
0.86093	0.65924	0.01176
0.94677	0.3046	0.00627
0.97599	0.14715	0.00383
0.98803	0.08065	0.0028

System: 1-decylcyanide + 1-methylsulfinyl-2-thiapropane; phases: Liquid
Fixed: Temperature, K = 298.15
Fixed: Pressure, kPa = 101.325
Property: Excess molar enthalpy (molar enthalpy of mixing), kJ/mol (Liquid); method: CALVET:UFactor:2
Mole fraction of 1-methylsulfinyl-2-thiapropane	Excess molar enthalpy (molar enthalpy of mixing), kJ/mol	uncertainty
0.02536	0.12139	0.00343
0.04055	0.19383	0.00455
0.04193	0.20748	0.00476
0.07582	0.35834	0.0071
0.07724	0.36293	0.00717
0.12169	0.53207	0.00979
0.14017	0.59345	0.01074
0.15961	0.66342	0.01183
0.1889	0.75875	0.0133
0.26285	0.93423	0.01602
0.27667	0.96771	0.01654
0.32337	1.05591	0.01791
0.42181	1.16488	0.0196
0.50518	1.19836	0.02011
0.76998	0.99059	0.0169
0.83161	0.84364	0.01462
0.86944	0.71258	0.01259
0.90428	0.57911	0.01052
0.9095	0.5503	0.01007
0.94642	0.36133	0.00715
0.9933	0.05476	0.0024

System: n-dodecanenitrile + 1-methylsulfinyl-2-thiapropane; phases: Liquid
Fixed: Temperature, K = 298.15
Fixed: Pressure, kPa = 101.325
Property: Excess molar enthalpy (molar enthalpy of mixing), kJ/mol (Liquid); method: CALVET:UFactor:2
Mole fraction of 1-methylsulfinyl-2-thiapropane	Excess molar enthalpy (molar enthalpy of mixing), kJ/mol	uncertainty
0.03008	0.15692	0.00398
0.03781	0.19917	0.00463
0.09203	0.44754	0.00848
0.10079	0.47639	0.00893
0.17895	0.74583	0.0131
0.20702	0.82639	0.01435
0.21522	0.85347	0.01477
0.31974	1.0907	0.0184
0.35167	1.1313	0.0191
0.50237	1.2569	0.021
0.58571	1.2611	0.0211
0.70835	1.1583	0.0195
0.81155	0.93403	0.01602
0.89791	0.61917	0.01114
0.95923	0.27917	0.00587
0.98647	0.0995	0.00309

System: dodecanecarbonitrile + 1-methylsulfinyl-2-thiapropane; phases: Liquid
Fixed: Temperature, K = 298.15
Fixed: Pressure, kPa = 101.325
Property: Excess molar enthalpy (molar enthalpy of mixing), kJ/mol (Liquid); method: CALVET:UFactor:2
Mole fraction of 1-methylsulfinyl-2-thiapropane	Excess molar enthalpy (molar enthalpy of mixing), kJ/mol	uncertainty
0.06513	0.32292	0.00655
0.0823	0.43331	0.00826
0.13165	0.62907	0.01129
0.20136	0.87319	0.01508
0.26496	1.0373	0.0176
0.35085	1.1784	0.0198
0.36704	1.2077	0.0203
0.4233	1.2601	0.0211
0.54426	1.2799	0.0214
0.6344	1.2315	0.0206
0.73408	1.1064	0.0187
0.78781	0.99181	0.01691
0.80393	0.94842	0.01624
0.90824	0.57813	0.01051
0.96829	0.24587	0.00536
0.98468	0.12254	0.00345

System: tetradecanenitrile + 1-methylsulfinyl-2-thiapropane; phases: Liquid
Fixed: Temperature, K = 298.15
Fixed: Pressure, kPa = 101.325
Property: Excess molar enthalpy (molar enthalpy of mixing), kJ/mol (Liquid); method: CALVET:UFactor:2
Mole fraction of 1-methylsulfinyl-2-thiapropane	Excess molar enthalpy (molar enthalpy of mixing), kJ/mol	uncertainty
0.03538	0.1725	0.00422
0.05372	0.28819	0.00601
0.08438	0.43194	0.00824
0.12886	0.63819	0.01144
0.1565	0.74097	0.01303
0.19838	0.87986	0.01518
0.33483	1.1764	0.0198
0.50497	1.2701	0.0212
0.63321	1.2168	0.0204
0.67208	1.1854	0.0199
0.8155	0.95625	0.01636
0.88669	0.71875	0.01268
0.91235	0.60504	0.01092
0.95664	0.36458	0.0072
0.98583	0.14716	0.00383

System: dimethyl sulfoxide + hexanenitrile; phases: Liquid
Fixed: Temperature, K = 298.15
Fixed: Pressure, kPa = 101.325
Property: Excess molar enthalpy (molar enthalpy of mixing), kJ/mol (Liquid); method: CALVET:UFactor:2
Mole fraction of dimethyl sulfoxide	Excess molar enthalpy (molar enthalpy of mixing), kJ/mol	uncertainty
0.07452	0.22827	0.00509
0.09271	0.27841	0.00586
0.14739	0.41867	0.00804
0.19522	0.52431	0.00967
0.25833	0.64547	0.01155
0.31349	0.72724	0.01282
0.3528	0.7726	0.01352
0.43434	0.84004	0.01456
0.49079	0.86511	0.01495
0.58063	0.85882	0.01485
0.71543	0.75858	0.0133
0.84202	0.54102	0.00993
0.88923	0.41173	0.00793
0.95592	0.19001	0.00449
0.98554	0.06233	0.00251

System: dimethyl sulfoxide + heptanenitrile; phases: Liquid
Fixed: Temperature, K = 298.15
Fixed: Pressure, kPa = 101.325
Property: Excess molar enthalpy (molar enthalpy of mixing), kJ/mol (Liquid); method: CALVET:UFactor:2
Mole fraction of dimethyl sulfoxide	Excess molar enthalpy (molar enthalpy of mixing), kJ/mol	uncertainty
0.02225	0.06548	0.00256
0.07063	0.20952	0.0048
0.08316	0.24702	0.00538
0.11901	0.34107	0.00683
0.17473	0.48393	0.00905
0.1851	0.51607	0.00954
0.22484	0.59524	0.01077
0.24226	0.63988	0.01146
0.3049	0.75025	0.01317
0.3581	0.83402	0.01447
0.36048	0.84286	0.01461
0.49352	0.9625	0.01646
0.57721	0.97509	0.01666
0.65219	0.9469	0.01622
0.70562	0.89643	0.01544
0.89461	0.47661	0.00893
0.95454	0.22973	0.00511
0.97925	0.11169	0.00328

System: dimethyl sulfoxide + octanenitrile; phases: Liquid
Fixed: Temperature, K = 298.15
Fixed: Pressure, kPa = 101.325
Property: Excess molar enthalpy (molar enthalpy of mixing), kJ/mol (Liquid); method: CALVET:UFactor:2
Mole fraction of dimethyl sulfoxide	Excess molar enthalpy (molar enthalpy of mixing), kJ/mol	uncertainty
0.02667	0.08139	0.00281
0.037	0.12269	0.00345
0.1176	0.37309	0.00733
0.17998	0.55878	0.01021
0.23991	0.70776	0.01251
0.32928	0.88942	0.01533
0.38769	0.97624	0.01667
0.46544	1.0485	0.0178
0.55198	1.0907	0.0184
0.62328	1.0724	0.0182
0.70216	1.0194	0.0173
0.8267	0.7899	0.01379
0.87848	0.62246	0.01119
0.95457	0.28431	0.00595
0.96158	0.23831	0.00524
0.99199	0.05639	0.00242

System: dimethyl sulfoxide + nonanenitrile; phases: Liquid
Fixed: Temperature, K = 298.15
Fixed: Pressure, kPa = 101.325
Property: Excess molar enthalpy (molar enthalpy of mixing), kJ/mol (Liquid); method: CALVET:UFactor:2
Mole fraction of dimethyl sulfoxide	Excess molar enthalpy (molar enthalpy of mixing), kJ/mol	uncertainty
0.05896	0.21405	0.00487
0.07322	0.26071	0.00559
0.09784	0.34554	0.0069
0.12851	0.44896	0.0085
0.17214	0.58958	0.01068
0.18985	0.63823	0.01144
0.2365	0.76471	0.0134
0.24082	0.78378	0.01369
0.26976	0.85221	0.01475
0.28359	0.88274	0.01522
0.38409	1.0546	0.0179
0.45767	1.1389	0.0192
0.54248	1.1915	0.02
0.54423	1.1925	0.02
0.55688	1.193	0.02
0.70302	1.1347	0.0191
0.77343	1.0263	0.0174
0.84959	0.82578	0.01434
0.89909	0.62791	0.01128
0.939	0.43005	0.00821
0.9712	0.22223	0.00499
0.99172	0.07098	0.002649

System: dimethyl sulfoxide + 1-decanenitrile; phases: Liquid
Fixed: Temperature, K = 298.15
Fixed: Pressure, kPa = 101.325
Property: Excess molar enthalpy (molar enthalpy of mixing), kJ/mol (Liquid); method: CALVET:UFactor:2
Mole fraction of dimethyl sulfoxide	Excess molar enthalpy (molar enthalpy of mixing), kJ/mol	uncertainty
0.03778	0.14151	0.00374
0.04533	0.17488	0.00426
0.07244	0.27013	0.00573
0.08356	0.31207	0.00638
0.14578	0.55325	0.01012
0.15156	0.5716	0.0104
0.15778	0.5917	0.01072
0.21378	0.76734	0.01344
0.232	0.81628	0.01419
0.34924	1.0729	0.0182
0.44044	1.192	0.02
0.52	1.2509	0.0209
0.54708	1.2631	0.0211
0.55644	1.27	0.0212
0.62527	1.2611	0.0211
0.7275	1.1806	0.0198
0.79786	1.0514	0.0178
0.92118	0.58252	0.01057
0.96202	0.32011	0.00651
0.98675	0.12334	0.00346

System: dimethyl sulfoxide + 1-decylcyanide; phases: Liquid
Fixed: Temperature, K = 298.15
Fixed: Pressure, kPa = 101.325
Property: Excess molar enthalpy (molar enthalpy of mixing), kJ/mol (Liquid); method: CALVET:UFactor:2
Mole fraction of dimethyl sulfoxide	Excess molar enthalpy (molar enthalpy of mixing), kJ/mol	uncertainty
0.02797	0.12026	0.00341
0.05445	0.22928	0.0051
0.09234	0.39181	0.00762
0.12073	0.49968	0.00929
0.1811	0.73113	0.01288
0.18531	0.7433	0.01306
0.28546	1.0424	0.0177
0.3924	1.2381	0.0207
0.51391	1.347	0.0224
0.5302	1.3482	0.0224
0.64232	1.3476	0.0224
0.71615	1.2874	0.0215
0.82916	1.0626	0.018
0.89166	0.81693	0.01421
0.92981	0.60751	0.01096
0.97725	0.22884	0.00509
0.98002	0.20549	0.00473
0.99269	0.08003	0.00279

System: dimethyl sulfoxide + n-dodecanenitrile; phases: Liquid
Fixed: Temperature, K = 298.15
Fixed: Pressure, kPa = 101.325
Property: Excess molar enthalpy (molar enthalpy of mixing), kJ/mol (Liquid); method: CALVET:UFactor:2
Mole fraction of dimethyl sulfoxide	Excess molar enthalpy (molar enthalpy of mixing), kJ/mol	uncertainty
0.02506	0.09681	0.00305
0.02612	0.10908	0.00324
0.07491	0.31977	0.0065
0.09988	0.4341	0.00827
0.16647	0.70195	0.01242
0.17912	0.77239	0.01352
0.19476	0.81173	0.01412
0.25217	1.0171	0.0173
0.33663	1.2241	0.0205
0.43079	1.3664	0.0227
0.56199	1.4259	0.0236
0.75923	1.2485	0.0209
0.8602	0.96565	0.01651
0.89559	0.80555	0.01403
0.9461	0.47828	0.00896
0.96487	0.33482	0.00674
0.98859	0.12016	0.00341

System: dimethyl sulfoxide + dodecanecarbonitrile; phases: Liquid
Fixed: Temperature, K = 298.15
Fixed: Pressure, kPa = 101.325
Property: Excess molar enthalpy (molar enthalpy of mixing), kJ/mol (Liquid); method: CALVET:UFactor:2
Mole fraction of dimethyl sulfoxide	Excess molar enthalpy (molar enthalpy of mixing), kJ/mol	uncertainty
0.02177	0.08254	0.00283
0.06754	0.28571	0.00598
0.09519	0.39841	0.00772
0.09988	0.4341	0.00827
0.1229	0.51855	0.00958
0.22021	0.8843	0.01525
0.25754	0.98968	0.01688
0.27092	1.0191	0.0173
0.27999	1.0571	0.0179
0.42317	1.2923	0.0216
0.54641	1.3458	0.0224
0.6358	1.3302	0.0222
0.73944	1.2437	0.0208
0.77528	1.1825	0.0199
0.80335	1.1252	0.019
0.86087	0.94656	0.01621
0.90007	0.75873	0.0133
0.92857	0.60159	0.01087
0.95707	0.401	0.00776
0.98207	0.19199	0.00452

System: dimethyl sulfoxide + tetradecanenitrile; phases: Liquid
Fixed: Temperature, K = 298.15
Fixed: Pressure, kPa = 101.325
Property: Excess molar enthalpy (molar enthalpy of mixing), kJ/mol (Liquid); method: CALVET:UFactor:2
Mole fraction of dimethyl sulfoxide	Excess molar enthalpy (molar enthalpy of mixing), kJ/mol	uncertainty
0.02407	0.12845	0.00354
0.06045	0.28075	0.0059
0.12189	0.55852	0.0102
0.14146	0.6423	0.0115
0.21933	0.91676	0.01575
0.25268	1.0189	0.0173
0.30633	1.1655	0.0196
0.41814	1.3512	0.0225
0.48769	1.4191	0.0235
0.61857	1.4425	0.0239
0.76189	1.2992	0.0217
0.87157	0.95952	0.01641
0.89619	0.83968	0.01456
0.91096	0.73609	0.01295
0.95318	0.45476	0.00859
0.96916	0.33175	0.00669
0.98093	0.20536	0.00473
