Measured thermophysical data. Effect of a Fluorinated Sodium Bis(2-ethylhexyl) Sulfosuccinate (Aerosol-OT, AOT) Analogue Surfactant on the Interfacial Tension of CO2 + Water and CO2 + Ni-Plating Solution in Near- and Supercritical CO2
Source: J. Chem. Eng. Data, 2005, 10.1021/je0499667
Compound 1: carbon dioxide, CO2, InChI=1S/CO2/c2-1-3
Compound 2: water, H2O, InChI=1S/H2O/h1H2

System: carbon dioxide + water; phases: Liquid, Gas
Property: Surface tension liquid-gas, N/m (Liquid); method: CAPRISE:UFactor:4
Temperature, K	Pressure, kPa	Surface tension liquid-gas, N/m	uncertainty
293.15	100	0.06569	0.00079
293.15	2430	0.05195	0.00068
293.15	3360	0.04627	0.00065
293.15	4150	0.04191	0.00051
293.15	4770	0.03795	0.00066
293.15	5660	0.01022	0.00027
293.15	6560	0.01792	0.00032
293.15	7710	0.01724	0.00032
293.15	8710	0.01837	0.00033
293.15	9850	0.01836	0.00033
293.15	11930	0.01568	0.00031
298.15	100	0.07801	0.00085
298.15	1120	0.0703	0.00066
298.15	2290	0.0633	0.0006
298.15	4810	0.04334	0.00048
298.15	6370	0.01294	0.00032
298.15	8080	0.02048	0.00033
298.15	10820	0.01476	0.0003
298.15	13320	0.01183	0.00037
311.15	1790	0.05661	0.00056
311.15	2800	0.0525	0.00053
311.15	4790	0.04117	0.00046
311.15	6930	0.03053	0.0004
311.15	14120	0.02728	0.00037
311.15	16280	0.02485	0.00036
311.15	20280	0.02055	0.00033
344.15	100	0.06484	0.00061
344.15	710	0.06335	0.0006
344.15	1230	0.062	0.00059
344.15	2200	0.05749	0.00056
344.15	2490	0.0577	0.00057
344.15	3290	0.05327	0.00054
344.15	4800	0.04872	0.00051
344.15	5440	0.04723	0.0005
344.15	6320	0.04618	0.0005
344.15	7450	0.04168	0.00047
344.15	8200	0.0384	0.00045
344.15	9540	0.03725	0.00046
344.15	9810	0.03537	0.00045
344.15	11820	0.03082	0.0004
344.15	12000	0.03142	0.0004
344.15	15690	0.02757	0.00037
344.15	17320	0.02683	0.00037
344.15	17650	0.02643	0.00037
344.15	100	0.0649	0.00061
