Measured thermophysical data. Solubility of 1,3,5-Trioxane in Methanol, Ethanol, and 2-Propanol
Source: J. Chem. Eng. Data, 2004, 10.1021/je049978s
Compound 1: 1,3,5-trioxane, C3H6O3, InChI=1S/C3H6O3/c1-4-2-6-3-5-1/h1-3H2
Compound 2: methanol, CH4O, InChI=1S/CH4O/c1-2/h2H,1H3
Compound 3: ethanol, C2H6O, InChI=1S/C2H6O/c1-2-3/h3H,2H2,1H3
Compound 4: propan-2-ol, C3H8O, InChI=1S/C3H8O/c1-3(2)4/h3-4H,1-2H3

System: methanol + 1,3,5-trioxane; phases: Liquid, Crystal
Fixed: Pressure, kPa = 101
Property: Mole fraction of 1,3,5-trioxane (Liquid); method: Chromatography
Temperature, K	Mole fraction of 1,3,5-trioxane	uncertainty
293.5	0.1188	0.0072
298.3	0.1745	0.0105
303.1	0.2589	0.0157
308.2	0.4175	0.0254
313.1	0.5874	0.0355
318.1	0.7139	0.0429
323.1	0.8214	0.0493
328.2	0.9122	0.0547

System: ethanol + 1,3,5-trioxane; phases: Liquid, Crystal
Fixed: Pressure, kPa = 101
Property: Mole fraction of 1,3,5-trioxane (Liquid); method: Chromatography
Temperature, K	Mole fraction of 1,3,5-trioxane	uncertainty
294.3	0.1212	0.0073
298.4	0.1534	0.0092
303.2	0.2081	0.0125
308.2	0.3278	0.0198
313.1	0.478	0.0289
318.1	0.6573	0.0395
323.1	0.8025	0.0482
328.3	0.9379	0.0563

System: propan-2-ol + 1,3,5-trioxane; phases: Liquid, Crystal
Fixed: Pressure, kPa = 101
Property: Mole fraction of 1,3,5-trioxane (Liquid); method: Chromatography
Temperature, K	Mole fraction of 1,3,5-trioxane	uncertainty
297.3	0.1204	0.0072
303.2	0.1866	0.0112
306.2	0.2359	0.0142
308.2	0.2859	0.0172
313.1	0.449	0.0271
318.1	0.6382	0.0383
323.1	0.7838	0.047
328.3	0.8962	0.0538
