Measured thermophysical data. Solubility of Valdecoxib in the Presence of Ethanol and Sodium Lauryl Sulfate at (298.15, 303.15, and 308.15) K
Source: J. Chem. Eng. Data, 2004, 10.1021/je0496948
Compound 1: water, H2O, InChI=1S/H2O/h1H2
Compound 2: valdecoxib, C16H14N2O3S, InChI=1S/C16H14N2O3S/c1-11-15(12-7-9-14(10-8-12)22(17,19)20)16(18-21-11)13-5-3-2-4-6-13/h2-10H,1H3,(H2,17,19,20)
Compound 3: sodium dodecyl sulfate, C12H25NaO4S, InChI=1S/C12H26O4S.Na/c1-2-3-4-5-6-7-8-9-10-11-12-16-17(13,14)15;/h2-12H2,1H3,(H,13,14,15);/q;+1/p-1
Compound 4: ethanol, C2H6O, InChI=1S/C2H6O/c1-2-3/h3H,2H2,1H3

System: water + valdecoxib; phases: Liquid, Crystal
Fixed: Pressure, kPa = 101.3
Property: Mass concentration, kg/m3 of valdecoxib (Liquid); method: OTHER
Temperature, K	Mass concentration, kg/m3 of valdecoxib	uncertainty
298.15	0.01025	0.00205
298.15	0.0103	0.0021
303.15	0.0104	0.0021
308.15	0.0111	0.0022

System: ethanol + water + valdecoxib; phases: Liquid, Crystal
Fixed: Pressure, kPa = 101.3
Property: Mass concentration, kg/m3 of valdecoxib (Liquid); method: OTHER
Temperature, K	Solvent: Mass fraction of ethanol	Mass concentration, kg/m3 of valdecoxib	uncertainty
298.15	0	0.01025	0.00205
298.15	0.2	0.125	0.025
298.15	0.4	3.092	0.618
298.15	0.6	6.639	1.328
298.15	0.8	14.289	2.858
298.15	1	9.645	1.929
303.15	0	0.0104	0.0021
303.15	0.2	0.223	0.045
303.15	0.4	4.18	0.836
303.15	0.6	9.791	1.958
303.15	0.8	16.133	3.227
303.15	1	13.557	2.711
308.15	0	0.0111	0.0022
308.15	0.2	0.248	0.05
308.15	0.4	5.698	1.14
308.15	0.6	14.334	2.867
308.15	0.8	20.973	4.195
308.15	1	15.491	3.098

System: sodium dodecyl sulfate + water + valdecoxib; phases: Liquid, Crystal
Fixed: Pressure, kPa = 101.3
Property: Mass concentration, kg/m3 of valdecoxib (Liquid); method: OTHER
Temperature, K	Solvent: Mass fraction of sodium dodecyl sulfate	Mass concentration, kg/m3 of valdecoxib	uncertainty
298.15	0	0.0103	0.0021
298.15	0.0025	0.0994	0.0199
298.15	0.005	0.191	0.0382
298.15	0.0075	0.3199	0.064
298.15	0.01	0.418	0.0836
303.15	0	0.0104	0.0021
303.15	0.0025	0.1138	0.0228
303.15	0.005	0.2191	0.0438
303.15	0.0075	0.3713	0.0743
303.15	0.01	0.4969	0.0994
308.15	0	0.0111	0.0022
308.15	0.0025	0.135	0.027
308.15	0.005	0.2551	0.051
308.15	0.0075	0.4247	0.0849
308.15	0.01	0.5531	0.1106

System: ethanol + valdecoxib; phases: Liquid, Crystal
Fixed: Pressure, kPa = 101.3
Property: Mass concentration, kg/m3 of valdecoxib (Liquid); method: OTHER
Temperature, K	Mass concentration, kg/m3 of valdecoxib	uncertainty
298.15	9.645	1.929
303.15	13.557	2.711
308.15	15.491	3.098
