Measured thermophysical data. High-Pressure Phase Behavior of Systems with Ionic Liquids: Part V. The Binary System Carbon Dioxide + 1-Butyl-3-methylimidazolium Tetrafluoroborate
Source: J. Chem. Eng. Data, 2005, 10.1021/je049753h
Compound 1: carbon dioxide, CO2, InChI=1S/CO2/c2-1-3
Compound 2: 1-butyl-3-methylimidazolium tetrafluoroborate, C8H15BF4N2, InChI=1S/C8H15N2.BF4/c1-3-4-5-10-7-6-9(2)8-10;2-1(3,4)5/h6-8H,3-5H2,1-2H3;/q+1;-1

System: carbon dioxide + 1-butyl-3-methylimidazolium tetrafluoroborate; phases: Liquid, Gas
Property: Vapor or sublimation pressure, kPa (Liquid); method: CCELL:UFactor:0.5
Mole fraction of carbon dioxide	Temperature, K	Vapor or sublimation pressure, kPa	uncertainty
0.1022	293.13	587	67
0.1022	298.14	659	75
0.1022	303.15	740	83
0.1022	308.15	803	92
0.1022	313.19	885	103
0.1022	318.11	968	114
0.1022	323.11	1044	125
0.1022	328.14	1143	136
0.1022	333.16	1239	148
0.1022	338.16	1344	161
0.1022	343.14	1438	174
0.1022	348.12	1539	188
0.1022	353.16	1664	202
0.1022	358.17	1769	217
0.1022	363.16	1875	233
0.1022	368.14	1989	249
0.1998	293.17	1243	80
0.1998	298.17	1388	89
0.1998	303.19	1542	99
0.1998	308.19	1710	110
0.1998	313.15	1886	122
0.1998	318.12	2074	134
0.1998	323.15	2269	147
0.1998	328.12	2466	161
0.1998	333.18	2686	176
0.1998	338.12	2909	191
0.1998	343.13	3137	207
0.1998	348.15	3378	224
0.1998	353.16	3629	242
0.1998	358.16	3884	262
0.1998	363.16	4150	282
0.1998	368.22	4418	303
0.3035	278.53	1547	70
0.3035	283.61	1742	79
0.3035	288.47	1957	90
0.3035	293.5	2192	97
0.3035	298.47	2447	109
0.3035	303.4	2722	122
0.3035	308.36	3012	137
0.3035	313.39	3332	153
0.3035	318.28	3667	171
0.3035	323.16	4002	190
0.3035	328.12	4367	211
0.3035	332.82	4757	232
0.3035	337.75	5157	255
0.3035	342.73	5577	279
0.3035	347.95	6027	303
0.3035	353.11	6512	330
0.3035	357.96	7012	359
0.3035	362.91	7522	389
0.3035	367.96	8047	425
0.4005	278.68	2233	77
0.4005	283.52	2508	90
0.4005	288.51	2838	102
0.4005	293.33	3198	118
0.4005	298.15	3573	135
0.4005	303.11	3993	155
0.4005	308.1	4458	178
0.4005	313	4953	207
0.4005	318.13	5513	237
0.4005	323.22	6098	272
0.4005	328.12	6703	316
0.4005	333.19	7343	364
0.4005	338.28	8053	420
0.4005	343.12	8748	322
0.4005	348.08	9473	356
0.4005	352.82	10233	391
0.4005	357.69	11063	423
0.4005	363.02	11968	460
0.4005	367.92	12888	501
0.4825	278.47	2926	87
0.4825	283.39	3346	104
0.4825	288.55	3801	121
0.4825	293.32	4301	137
0.4825	298.28	4861	159
0.4825	303.16	5496	185
0.4825	308.16	6206	217
0.4825	313.27	7046	253
0.4825	318.16	7931	298
0.4825	323.1	8921	355
0.4825	327.99	10071	420
0.4825	333.1	11406	504
0.4825	338.17	12856	590

System: carbon dioxide + 1-butyl-3-methylimidazolium tetrafluoroborate; phases: Liquid, Gas
Property: Vapor or sublimation pressure, kPa (Liquid); method: Closed cell (Static) method
Temperature, K	Mole fraction of carbon dioxide	Vapor or sublimation pressure, kPa	uncertainty
313.12	0.5507	14440	4340
313.12	0.6017	36580	4340
318.07	0.5507	17460	4370
318.08	0.6017	39660	4390
322.94	0.6017	43240	4510
322.95	0.5507	20220	4520
327.91	0.6017	46720	4650
327.96	0.5507	23060	4630
332.85	0.6017	50240	4740
332.94	0.5507	26120	4790
337.85	0.6017	53700	4920
337.86	0.5507	28460	4930
342.78	0.5507	31120	5000
342.94	0.6017	56740	4990
347.66	0.5507	33820	5000
347.98	0.6017	59460	5000
352.69	0.5507	36580	5050
352.77	0.6017	62160	5000
357.71	0.6017	64820	5130
357.9	0.5507	38860	5110
362.58	0.6017	67620	5120
