Measured thermophysical data. Isobaric Vapor-Liquid Equilibria for Water + Acetic Acid + (n-Pentyl Acetate or Isopropyl Acetate)
Source: J. Chem. Eng. Data, 2005, 10.1021/je049711t
Compound 1: water, H2O, InChI=1S/H2O/h1H2
Compound 2: acetic acid, C2H4O2, InChI=1S/C2H4O2/c1-2(3)4/h1H3,(H,3,4)
Compound 3: 1-methylethyl ethanoate, C5H10O2, InChI=1S/C5H10O2/c1-4(2)7-5(3)6/h4H,1-3H3
Compound 4: pentyl ethanoate, C7H14O2, InChI=1S/C7H14O2/c1-3-4-5-6-9-7(2)8/h3-6H2,1-2H3

System: water; phases: Liquid
Property: Refractive index (Na D-line) (Liquid); method: Standard Abbe refractometry
Temperature, K	Pressure, kPa	Refractive index (Na D-line)	uncertainty
293.15	101.325	1.333	0.0008

System: acetic acid; phases: Liquid
Property: Refractive index (Na D-line) (Liquid); method: Standard Abbe refractometry
Temperature, K	Pressure, kPa	Refractive index (Na D-line)	uncertainty
293.15	101.325	1.3719	0.0007

System: 1-methylethyl ethanoate; phases: Liquid
Property: Refractive index (Na D-line) (Liquid); method: Standard Abbe refractometry
Temperature, K	Pressure, kPa	Refractive index (Na D-line)	uncertainty
293.15	101.325	1.3772	0.0008

System: pentyl ethanoate; phases: Liquid
Property: Refractive index (Na D-line) (Liquid); method: Standard Abbe refractometry
Temperature, K	Pressure, kPa	Refractive index (Na D-line)	uncertainty
293.15	101.325	1.4021	0.0008

System: acetic acid + water; phases: Liquid, Gas
Fixed: Pressure, kPa = 101.33
Property: Boiling temperature at pressure P, K (Liquid); method: EBULLIO:UFactor:16
Mole fraction of water	Boiling temperature at pressure P, K	uncertainty
0.0738	388.49	0.49
0.1273	386.52	0.49
0.1426	385.81	0.49
0.19	384.17	0.49
0.2448	382.47	0.49
0.298	381.21	0.49
0.3731	379.84	0.49
0.478	378.42	0.49
0.5279	377.71	0.49
0.5871	377.06	0.49
0.6294	376.6	0.49
0.6788	376.09	0.49
0.7366	375.59	0.49
0.808	374.98	0.49
0.8434	374.73	0.49
0.8751	374.43	0.49
0.9259	374.02	0.49
0.9813	373.82	0.49

System: acetic acid + water; phases: Gas, Liquid
Fixed: Pressure, kPa = 101.33
Property: Mole fraction of water (Gas); method: Index of refraction calibration data
Mole fraction of water	Mole fraction of water	uncertainty
0.0738	0.1203	0.0168
0.1273	0.1924	0.0175
0.1426	0.2208	0.017
0.19	0.2805	0.0168
0.2448	0.3581	0.0174
0.298	0.4334	0.0161
0.3731	0.5196	0.0146
0.478	0.6192	0.0141
0.5279	0.6691	0.0138
0.5871	0.7199	0.0134
0.6294	0.7558	0.0129
0.6788	0.7924	0.0123
0.7366	0.8288	0.0118
0.808	0.8697	0.0117
0.8434	0.891	0.0124
0.8751	0.9181	0.0125
0.9259	0.953	0.0119
0.9813	0.9854	0.0116

System: acetic acid + 1-methylethyl ethanoate; phases: Liquid, Gas
Fixed: Pressure, kPa = 101.33
Property: Boiling temperature at pressure P, K (Liquid); method: EBULLIO:UFactor:16
Mole fraction of 1-methylethyl ethanoate	Boiling temperature at pressure P, K	uncertainty
0.0661	386.43	0.49
0.0835	385.74	0.49
0.1035	384.61	0.49
0.1127	384.1	0.49
0.1325	382.47	0.49
0.1623	381.56	0.49
0.3157	375.16	0.49
0.3723	373.15	0.49
0.4252	371.15	0.49
0.4751	370.06	0.49
0.5512	368.44	0.49
0.6153	367.14	0.49
0.7433	365.52	0.5
0.8178	364.49	0.5

System: acetic acid + 1-methylethyl ethanoate; phases: Gas, Liquid
Fixed: Pressure, kPa = 101.33
Property: Mole fraction of 1-methylethyl ethanoate (Gas); method: Index of refraction calibration data
Mole fraction of 1-methylethyl ethanoate	Mole fraction of 1-methylethyl ethanoate	uncertainty
0.0661	0.1314	0.0192
0.0835	0.1599	0.0218
0.1035	0.2036	0.0199
0.1127	0.2231	0.0204
0.1325	0.2452	0.0196
0.1623	0.3051	0.0225
0.3157	0.5195	0.0173
0.3723	0.5904	0.0168
0.4252	0.6617	0.0153
0.4751	0.7032	0.0139
0.5512	0.7747	0.0135
0.6153	0.8227	0.0119
0.7433	0.8874	0.0115
0.8178	0.9317	0.0117

System: acetic acid + pentyl ethanoate; phases: Liquid, Gas
Fixed: Pressure, kPa = 101.33
Property: Boiling temperature at pressure P, K (Liquid); method: EBULLIO:UFactor:32
Mole fraction of acetic acid	Boiling temperature at pressure P, K	uncertainty
0.0981	415.94	0.99
0.1753	414.12	0.99
0.2407	411.22	0.99
0.2731	409.88	0.99
0.333	407.93	0.99
0.3814	406.39	0.99
0.4322	405.22	0.99
0.4947	403.13	0.99
0.5696	401.35	0.99
0.6501	399.16	0.99
0.7248	397.01	0.99
0.7765	395.94	0.99
0.8314	394.77	0.99
0.8827	393.54	0.99
0.9289	392.45	0.99

System: acetic acid + pentyl ethanoate; phases: Gas, Liquid
Fixed: Pressure, kPa = 101.33
Property: Mole fraction of acetic acid (Gas); method: Index of refraction calibration data
Mole fraction of acetic acid	Mole fraction of acetic acid	uncertainty
0.0981	0.2323	0.0285
0.1753	0.346	0.0268
0.2407	0.4229	0.0261
0.2731	0.4725	0.0245
0.333	0.5305	0.0254
0.3814	0.6052	0.0232
0.4322	0.6334	0.022
0.4947	0.7094	0.0222
0.5696	0.7653	0.0197
0.6501	0.8202	0.0189
0.7248	0.8618	0.0182
0.7765	0.8877	0.0179
0.8314	0.9146	0.018
0.8827	0.943	0.0179
0.9289	0.964	0.0176

System: acetic acid + 1-methylethyl ethanoate + water; phases: Liquid, Gas
Fixed: Pressure, kPa = 101.33
Property: Mole fraction of acetic acid (Liquid); method: Index of refraction calibration data
Property: Mole fraction of acetic acid (Gas); method: Index of refraction calibration data
Property: Mole fraction of water (Gas); method: Index of refraction calibration data
Temperature, K	Mole fraction of water	Mole fraction of acetic acid	uncertainty	Mole fraction of acetic acid	uncertainty	Mole fraction of water	uncertainty
370.52	0.5986	0.3774	0.012	0.1677	0.012	0.6751	
371.69	0.5977	0.3837	0.012	0.2061	0.012	0.6715	
371.94	0.6112	0.3734	0.012	0.2082	0.012	0.6799	
372.65	0.5047	0.4682	0.0121	0.2655	0.012	0.6149	
372.91	0.4962	0.4726	0.0121	0.2688	0.012	0.6023	
372.95	0.6121	0.3772	0.012	0.2257	0.012	0.6899	
373.31	0.4981	0.4764	0.0121	0.2817	0.012	0.6084	
374.18	0.2261	0.658	0.0121	0.3948	0.0122	0.3662	
374.73	0.2602	0.6539	0.0121	0.4184	0.0122	0.3904	
374.87	0.6291	0.3672	0.012	0.274	0.012	0.6997	
375.44	0.2594	0.6634	0.0121	0.4213	0.0122	0.3925	
375.58	0.6279	0.3701	0.012	0.2651	0.012	0.7223	
375.95	0.2649	0.6701	0.012	0.4562	0.0123	0.3879	
377.15	0.3827	0.5987	0.0121	0.4455	0.0122	0.4905	
378.03	0.3835	0.6069	0.0121	0.4595	0.0122	0.5023	
382.27	0.1618	0.8115	0.012	0.6703	0.0122	0.2681	
382.69	0.1676	0.8131	0.012	0.6699	0.0122	0.2832	
383.3	0.1794	0.8095	0.012	0.7013	0.0122	0.2737	

System: acetic acid + pentyl ethanoate + water; phases: Liquid, Gas
Fixed: Pressure, kPa = 101.33
Property: Mole fraction of acetic acid (Liquid); method: Index of refraction calibration data
Property: Mole fraction of acetic acid (Gas); method: Index of refraction calibration data
Property: Mole fraction of water (Gas); method: Index of refraction calibration data
Temperature, K	Mole fraction of water	Mole fraction of acetic acid	uncertainty	Mole fraction of acetic acid	uncertainty	Mole fraction of water	uncertainty
376.3	0.4416	0.501	0.0121	0.321	0.0121	0.6226	
376.5	0.4547	0.4997	0.0121	0.3184	0.0121	0.6303	
376.71	0.4283	0.4807	0.0121	0.323	0.0121	0.6075	
377.01	0.475	0.5091	0.0121	0.3558	0.0121	0.6197	
377.82	0.3548	0.5609	0.0121	0.375	0.0121	0.5649	
378.02	0.3437	0.5646	0.0121	0.3677	0.0121	0.5686	
381.72	0.2377	0.6329	0.0121	0.4912	0.0123	0.4307	
385.03	0.2105	0.5522	0.0121	0.4787	0.0123	0.4031	
385.79	0.1522	0.5593	0.0121	0.4993	0.0123	0.3854	
386.39	0.1416	0.5437	0.0121	0.4806	0.0123	0.3843	
386.65	0.131	0.7195	0.012	0.6587	0.0122	0.2681	
387.71	0.1283	0.5263	0.0121	0.4792	0.0123	0.3666	
389.09	0.1311	0.5237	0.0121	0.5032	0.0124	0.3377	
389.24	0.1284	0.5054	0.0121	0.4891	0.0123	0.3418	
390.71	0.1083	0.5339	0.0121	0.52	0.0124	0.3041	
391.11	0.1085	0.5771	0.0121	0.6038	0.0123	0.2533	
391.68	0.1037	0.5663	0.0121	0.5833	0.0123	0.2629	
