Measured thermophysical data. Density-Pressure Relationship in Hydrogen-Bonded Mixtures: 1,4-Butanediol + 1-Dodecanol
Source: J. Chem. Eng. Data, 2005, 10.1021/je049663c
Compound 1: 1,4-butanediol, C4H10O2, InChI=1S/C4H10O2/c5-3-1-2-4-6/h5-6H,1-4H2
Compound 2: dodecan-1-ol, C12H26O, InChI=1S/C12H26O/c1-2-3-4-5-6-7-8-9-10-11-12-13/h13H,2-12H2,1H3

System: 1,4-butanediol; phases: Liquid
Fixed: Temperature, K = 298.15
Property: Mass density, kg/m3 (Liquid); method: Vibrating tube method
Pressure, kPa	Mass density, kg/m3	uncertainty
210	1012.78	1.05
540	1012.84	1.05
1260	1013.07	1.05
2610	1013.64	1.05
4950	1014.63	1.06
6940	1015.46	1.06
9070	1016.34	1.06
10880	1017.09	1.06
13050	1018.02	1.06
15220	1018.9	1.06
17040	1019.58	1.06
21300	1021.18	1.06
23840	1022.14	1.06
26070	1023	1.06
28420	1023.99	1.07
29560	1024.41	1.07
30430	1024.8	1.07
32270	1025.47	1.07
34330	1026.21	1.07
36040	1026.87	1.07
37930	1027.59	1.07
39140	1028	1.07

System: dodecan-1-ol; phases: Liquid
Fixed: Temperature, K = 298.15
Property: Mass density, kg/m3 (Liquid); method: Vibrating tube method
Pressure, kPa	Mass density, kg/m3	uncertainty
680	830.19	0.67
1610	830.65	0.67
3180	831.66	0.67
4870	832.94	0.68
5020	832.85	0.68
5180	833.06	0.68
5760	833.45	0.68
6410	833.71	0.68
6450	833.81	0.68
6520	833.77	0.68
6870	834.04	0.68

System: 1,4-butanediol + dodecan-1-ol; phases: Liquid
Fixed: Temperature, K = 298.15
Property: Mass density, kg/m3 (Liquid); method: Vibrating tube method
Mole fraction of dodecan-1-ol	Pressure, kPa	Mass density, kg/m3	uncertainty
0	210	1012.78	1.05
0	540	1012.84	1.05
0	1260	1013.07	1.05
0	2610	1013.64	1.05
0	4950	1014.63	1.06
0	6940	1015.46	1.06
0	9070	1016.34	1.06
0	10880	1017.09	1.06
0	13050	1018.02	1.06
0	15220	1018.9	1.06
0	17040	1019.58	1.06
0	21300	1021.18	1.06
0	23840	1022.14	1.06
0	26070	1023	1.06
0	28420	1023.99	1.07
0	29560	1024.41	1.07
0	30430	1024.8	1.07
0	32270	1025.47	1.07
0	34330	1026.21	1.07
0	36040	1026.87	1.07
0	37930	1027.59	1.07
0	39140	1028	1.07
0.00166	330	1012.71	1.05
0.00166	660	1013.02	1.05
0.00166	1740	1013.43	1.05
0.00166	3480	1014.12	1.05
0.00166	5430	1014.91	1.06
0.00166	7530	1015.6	1.06
0.00166	9500	1016.31	1.06
0.00166	11940	1017.22	1.06
0.00166	13910	1017.97	1.06
0.00166	16930	1019.2	1.06
0.00166	20420	1021.02	1.06
0.00166	21370	1021.33	1.06
0.00166	22520	1021.79	1.06
0.00166	23780	1022.2	1.06
0.00166	24520	1022.52	1.06
0.00166	25650	1023.13	1.06
0.00166	26520	1023.45	1.06
0.00166	27060	1023.64	1.06
0.00166	27940	1023.96	1.07
0.00166	28850	1024.22	1.07
0.00166	29770	1024.43	1.07
0.00166	30870	1024.85	1.07
0.00166	31580	1025.12	1.07
0.00166	32480	1025.67	1.07
0.00166	34790	1026.55	1.07
0.00166	36350	1027.1	1.07
0.00166	38320	1027.96	1.07
0.00551	480	1012.68	1.05
0.00551	1360	1013.24	1.05
0.00551	2830	1013.31	1.05
0.00551	4680	1014.53	1.05
0.00551	6500	1015.09	1.05
0.00551	7600	1015.52	1.05
0.00551	8780	1015.97	1.06
0.00551	9620	1016.34	1.06
0.00551	11680	1017.19	1.06
0.00551	13590	1017.97	1.06
0.00551	15850	1018.87	1.06
0.00551	17700	1019.9	1.06
0.00551	19460	1020.55	1.06
0.00551	21840	1021.47	1.06
0.00551	21970	1021.51	1.06
0.00551	24300	1022.42	1.06
0.00551	27050	1023.43	1.06
0.00551	28940	1024.13	1.06
0.00551	30590	1024.64	1.06
0.00551	32460	1025.39	1.07
0.00551	33350	1025.92	1.07
0.00551	34240	1026.26	1.07
0.00551	36310	1027.01	1.07
0.00551	37680	1027.47	1.07
0.00551	38940	1027.97	1.07
0.04995	160	999.25	1.03
0.04995	430	999.37	1.03
0.04995	1340	999.78	1.03
0.04995	2980	1000.59	1.03
0.04995	5050	1001.54	1.03
0.04995	7520	1002.58	1.03
0.04995	9420	1003.44	1.03
0.04995	11420	1004.65	1.03
0.04995	13920	1005.67	1.03
0.04995	15890	1006.51	1.03
0.04995	18160	1007.42	1.04
0.04995	20490	1008.5	1.04
0.04995	22540	1009.35	1.04
0.04995	24630	1010.13	1.04
0.04995	26630	1010.8	1.04
0.04995	28410	1011.46	1.04
0.04995	30220	1012.18	1.04
0.04995	31450	1012.72	1.04
0.04995	33590	1013.72	1.04
0.04995	35940	1014.58	1.04
0.04995	37700	1015.19	1.04
0.04995	39400	1015.9	1.04
0.18292	140	962.59	0.96
0.18292	440	962.73	0.96
0.18292	960	962.62	0.96
0.18292	1640	963.08	0.96
0.18292	2340	963.38	0.96
0.18292	4300	964.26	0.96
0.18292	6040	965.27	0.96
0.18292	7960	966.21	0.96
0.18292	10310	967.29	0.96
0.18292	12110	968.37	0.96
0.18292	14270	969.38	0.97
0.18292	15810	969.91	0.97
0.18292	18390	971.23	0.97
0.18292	20230	972.14	0.97
0.18292	22110	972.84	0.97
0.18292	24780	974.07	0.97
0.18292	26640	974.49	0.97
0.18292	27210	974.98	0.97
0.18292	29240	975.81	0.97
0.18292	30920	976.67	0.97
0.18292	32410	977.18	0.97
0.18292	34430	977.98	0.97
0.18292	36730	978.97	0.98
0.18292	38410	979.63	0.98
0.25292	650	944.79	0.93
0.25292	1860	945.47	0.93
0.25292	3870	946.47	0.93
0.25292	5640	947.29	0.93
0.25292	7530	948.18	0.93
0.25292	9360	949.17	0.93
0.25292	11690	950.21	0.93
0.25292	13830	951.37	0.93
0.25292	16260	952.29	0.93
0.25292	18090	953.23	0.93
0.25292	20150	954.27	0.94
0.25292	22330	955.22	0.94
0.25292	24310	956.08	0.94
0.25292	26410	957	0.94
0.25292	28020	957.72	0.94
0.25292	30370	958.86	0.94
0.25292	30410	958.76	0.94
0.25292	32070	959.48	0.94
0.25292	34600	960.62	0.94
0.25292	36880	961.53	0.94
0.25292	38580	962.22	0.94
0.25292	39070	962.42	0.94
0.35391	220	921.19	0.88
0.35391	750	921.5	0.88
0.35391	2210	922.16	0.88
0.35391	6860	924.54	0.88
0.35391	9310	925.99	0.89
0.35391	11760	927.06	0.89
0.35391	13790	928.16	0.89
0.35391	16140	929.19	0.89
0.35391	18820	930.49	0.89
0.35391	20770	931.43	0.89
0.35391	22930	932.51	0.9
0.35391	25430	933.58	0.9
0.35391	27490	934.57	0.9
0.35391	30350	935.75	0.9
0.35391	31080	936.13	0.9
0.35391	32720	936.83	0.9
0.35391	33250	937.1	0.9
0.35391	34930	937.92	0.9
0.35391	35500	938.25	0.9
0.35391	36720	938.82	0.9
0.35391	39240	939.7	0.91
0.35391	39400	939.82	0.91
0.55674	680	881.9	0.8
0.55674	1780	882.4	0.8
0.55674	4050	883.75	0.8
0.55674	5970	884.69	0.81
0.55674	7520	885.49	0.81
0.55674	9270	886.39	0.81
0.55674	11590	887.73	0.81
0.55674	13660	888.81	0.81
0.55674	15410	889.57	0.81
0.55674	17450	890.57	0.82
0.55674	20060	891.81	0.82
0.55674	21860	892.65	0.82
0.55674	23920	893.59	0.82
0.55674	26540	894.95	0.83
0.55674	29260	896.14	0.84
0.55674	29520	896.25	0.84
0.55674	30610	896.81	0.83
0.55674	32350	897.62	0.83
0.55674	34240	898.46	0.83
0.55674	35770	899.2	0.83
0.55674	37750	899.93	0.84
0.55674	38820	900.34	0.84
0.55674	39060	900.43	0.84
0.73024	580	855.77	0.74
0.73024	1630	856.29	0.74
0.73024	2360	856.75	0.75
0.73024	3280	857.53	0.75
0.73024	4910	858.42	0.75
0.73024	6730	859.45	0.75
0.73024	7880	860.04	0.75
0.73024	8160	860.19	0.75
0.73024	9430	860.83	0.75
0.73024	11480	861.96	0.76
0.73024	11770	862.12	0.76
0.73024	14180	863.28	0.76
0.73024	15640	864.02	0.76
0.73024	17490	865.01	0.76
0.73024	17650	865.09	0.76
0.73024	19020	865.88	0.77
0.73024	19410	866.03	0.77
0.73024	19720	866.07	0.77
0.73024	19830	866.11	0.77
0.73024	20490	866.53	0.77
0.73024	21220	866.84	0.77
0.73024	22510	867.79	0.77
0.73024	22970	867.69	0.77
0.73024	23810	868.08	0.77
0.73024	23950	868.26	0.77
0.73024	25530	868.98	0.77
0.73024	26460	869.49	0.78
0.73024	27550	870.04	0.78
0.73024	28350	870.62	0.78
1	680	830.19	0.67
1	1610	830.65	0.67
1	3180	831.66	0.67
1	4870	832.94	0.68
1	5020	832.85	0.68
1	5180	833.06	0.68
1	5760	833.45	0.68
1	6410	833.71	0.68
1	6450	833.81	0.68
1	6520	833.77	0.68
1	6870	834.04	0.68
