Measured thermophysical data. Isobaric Vapor-Liquid Equilibria of Binary Mixtures Containing the Carbonate Group -OCOO-
Source: J. Chem. Eng. Data, 2005, 10.1021/je049859c
Compound 1: dimethyl carbonate, C3H6O3, InChI=1S/C3H6O3/c1-5-3(4)6-2/h1-2H3
Compound 2: methanol, CH4O, InChI=1S/CH4O/c1-2/h2H,1H3, purity 99.8%
Compound 3: 1,2-ethanediol, C2H6O2, InChI=1S/C2H6O2/c3-1-2-4/h3-4H,1-2H2, purity 99.8%
Compound 4: ethylene carbonate, C3H4O3, InChI=1S/C3H4O3/c4-3-5-1-2-6-3/h1-2H2

System: ethylene carbonate + dimethyl carbonate; phases: Liquid, Gas
Fixed: Pressure, kPa = 101.3
Property: Boiling temperature at pressure P, K (Liquid); method: EBULLIO:UFactor:32
Mole fraction of dimethyl carbonate	Boiling temperature at pressure P, K	uncertainty
0.0231	482.07	0.99
0.0586	446.95	0.99
0.119	419.66	0.99
0.2076	401.21	0.99
0.3623	385.26	0.99
0.525	375.27	0.99
0.6296	371.74	0.99
0.781	368.25	0.99
0.8791	365.4	0.99
0.9204	364.97	0.99
0.9711	363.96	0.99

System: ethylene carbonate + dimethyl carbonate; phases: Gas, Liquid
Fixed: Pressure, kPa = 101.3
Property: Mole fraction of dimethyl carbonate (Gas); method: CHROM:UFactor:2
Mole fraction of dimethyl carbonate	Mole fraction of dimethyl carbonate	uncertainty
0.0231	0.6625	0.0073
0.0586	0.8807	0.0046
0.119	0.9622	0.0041
0.2076	0.9844	0.004
0.3623	0.993	0.004
0.525	0.9959	0.004
0.6296	0.9969	0.0031
0.781	0.9982	0.0018
0.8791	0.999	0.001
0.9204	0.9993	0.0007
0.9711	0.9997	0.0003

System: methanol + ethylene carbonate; phases: Liquid, Gas
Fixed: Pressure, kPa = 101.3
Property: Boiling temperature at pressure P, K (Liquid); method: EBULLIO:UFactor:32
Mole fraction of methanol	Boiling temperature at pressure P, K	uncertainty
0.0432	414.75	0.99
0.068	399.05	0.99
0.1443	372.78	0.99
0.2011	364.46	0.99
0.285	357.96	0.99
0.392	351.35	0.99
0.4311	349.96	0.99
0.537	346.05	0.99
0.6652	344.24	0.99
0.7282	341.57	0.99
0.8012	341.36	0.99
0.853	340.87	0.99
0.9241	339.56	0.99

System: methanol + ethylene carbonate; phases: Gas, Liquid
Fixed: Pressure, kPa = 101.3
Property: Mole fraction of methanol (Gas); method: CHROM:UFactor:2
Mole fraction of methanol	Mole fraction of methanol	uncertainty
0.0432	0.9589	0.0041
0.068	0.981	0.004
0.1443	0.9954	0.004
0.2011	0.9973	0.0027
0.285	0.995	0.004
0.392	0.997	0.003
0.4311	0.9991	0.0009
0.537	0.999	0.001
0.6652	0.9995	0.0005
0.7282	0.9996	0.0004
0.8012	0.9998	0.0002
0.853	0.9999	0.0001
0.9241	0.9999	0.0001

System: 1,2-ethanediol + dimethyl carbonate; phases: Liquid, Gas
Fixed: Pressure, kPa = 35.33
Property: Boiling temperature at pressure P, K (Liquid); method: EBULLIO:UFactor:16
Mole fraction of dimethyl carbonate	Boiling temperature at pressure P, K	uncertainty
0.0152	390.27	0.95
0.0432	355.49	0.95
0.0911	339.27	0.95
0.1516	336.56	0.95
0.2591	335.7	0.95
0.27	335.67	0.95
0.3523	335.59	0.95
0.4912	335.49	0.95
0.6113	334.57	0.95
0.8125	334.02	0.95
0.9523	333.73	0.95

System: 1,2-ethanediol + dimethyl carbonate; phases: Gas, Liquid
Fixed: Pressure, kPa = 35.33
Property: Mole fraction of dimethyl carbonate (Gas); method: CHROM:UFactor:2
Mole fraction of dimethyl carbonate	Mole fraction of dimethyl carbonate	uncertainty
0.0152	0.8416	0.0049
0.0432	0.9752	0.004
0.0911	0.9875	0.004
0.1516	0.9912	0.004
0.2591	0.9934	0.004
0.27	0.9943	0.004
0.3523	0.9938	0.004
0.4912	0.995	0.004
0.6113	0.9954	0.004
0.8125	0.9956	0.004
0.9523	0.9964	0.0036

System: ethylene carbonate + 1,2-ethanediol; phases: Liquid, Gas
Fixed: Pressure, kPa = 6.87
Property: Boiling temperature at pressure P, K (Liquid); method: EBULLIO:UFactor:4
Mole fraction of 1,2-ethanediol	Boiling temperature at pressure P, K	uncertainty
0.0214	419.78	0.96
0.0332	416.38	0.96
0.0551	413.23	0.96
0.081	408.46	0.96
0.1801	403.88	0.96
0.3051	401.88	0.96
0.4452	400.66	0.96
0.591	399.61	0.96
0.7112	398.77	0.96
0.8102	398.16	0.96
0.9402	397.62	0.96
0.9658	397.57	0.96
0.9704	397.55	0.96

System: ethylene carbonate + 1,2-ethanediol; phases: Gas, Liquid
Fixed: Pressure, kPa = 6.87
Property: Mole fraction of 1,2-ethanediol (Gas); method: CHROM:UFactor:2
Mole fraction of 1,2-ethanediol	Mole fraction of 1,2-ethanediol	uncertainty
0.0214	0.265	0.006
0.0332	0.3932	0.0079
0.0551	0.478	0.0093
0.081	0.5791	0.0084
0.1801	0.6882	0.0068
0.3051	0.715	0.0064
0.4452	0.751	0.0059
0.591	0.7767	0.0056
0.7112	0.8232	0.005
0.8102	0.8638	0.0046
0.9402	0.9474	0.0041
0.9658	0.9638	0.004
0.9704	0.9724	0.004
