Measured thermophysical data. Thermodynamic Properties of Inorganic Salts in Nonaqueous Solvents. I. Apparent Molar Volumes and Compressibilities of Divalent Transition-Metal Perchlorates in N,N-Dimethylformamide
Source: J. Chem. Eng. Data, 2005, 10.1021/je049721u
Compound 1: manganese (II) perchlorate, Cl2MnO8, InChI=1S/2ClHO4.Mn/c2*2-1(3,4)5;/h2*(H,2,3,4,5);/q;;+2/p-2
Compound 2: cobalt(II) perchlorate, Cl2CoO8, InChI=1S/2ClHO4.Co/c2*2-1(3,4)5;/h2*(H,2,3,4,5);/q;;+2/p-2
Compound 3: nickel perchlorate, Cl2NiO8, InChI=1S/2ClHO4.Ni/c2*2-1(3,4)5;/h2*(H,2,3,4,5);/q;;+2/p-2
Compound 4: copper perchlorate, Cl2CuO8, InChI=1S/2ClHO4.Cu/c2*2-1(3,4)5;/h2*(H,2,3,4,5);/q;;+2/p-2
Compound 5: zinc perchlorate, Cl2O8Zn, InChI=1S/2ClHO4.Zn/c2*2-1(3,4)5;/h2*(H,2,3,4,5);/q;;+2/p-2
Compound 6: dimethylformamide, C3H7NO, InChI=1S/C3H7NO/c1-4(2)3-5/h3H,1-2H3

System: dimethylformamide; phases: Liquid
Fixed: Pressure, kPa = 101.3
Property: Mass density, kg/m3 (Liquid); method: VIBTUB:UFactor:4
Temperature, K	Mass density, kg/m3	uncertainty
283.15	958.077	0.58
283.15	958.163	0.583
283.15	958.075	0.584
293.15	948.565	0.584
293.15	948.653	0.587
298.15	943.797	0.587
298.15	943.884	0.59
303.15	939.017	0.59
303.15	939.114	0.593
313.15	929.437	0.596
313.15	929.529	0.599
323.15	919.807	0.603
323.15	919.9	0.606
333.15	910.12	0.611
333.15	910.2	0.614

System: dimethylformamide + manganese (II) perchlorate; phases: Liquid
Fixed: Temperature, K = 298.15
Fixed: Pressure, kPa = 101.3
Property: Speed of sound, m/s (Liquid); method: Pulse-echo method
Molality, mol/kg of manganese (II) perchlorate	Speed of sound, m/s	uncertainty
0.04109	1460.8	1.45
0.08396	1464.59	1.46
0.1233	1468.17	1.46
0.1616	1471.4	1.46
0.2007	1475.01	1.46
0.2395	1478.35	1.46
0.2793	1481.93	1.46
0.3166	1485.59	1.46
0.3529	1488.9	1.46
0.3885	1492.5	1.47

System: dimethylformamide + manganese (II) perchlorate; phases: Liquid
Fixed: Pressure, kPa = 101.3
Property: Mass density, kg/m3 (Liquid); method: VIBTUB:UFactor:4
Temperature, K	Molality, mol/kg of manganese (II) perchlorate	Mass density, kg/m3	uncertainty
283.15	0	958.077	0.58
283.15	0.04109	966.326	0.576
283.15	0.05823	969.773	0.575
283.15	0.08396	974.96	0.574
283.15	0.1024	978.695	0.573
283.15	0.1233	982.926	0.572
283.15	0.1616	990.785	0.571
283.15	0.2007	998.895	0.571
283.15	0.2395	1007.028	0.579
283.15	0.2793	1015.47	0.589
283.15	0.3166	1023.515	0.599
283.15	0.3529	1031.377	0.609
283.15	0.3885	1039.212	0.619
293.15	0	948.565	0.584
293.15	0.04109	956.852	0.581
293.15	0.05823	960.312	0.579
293.15	0.08396	965.52	0.577
293.15	0.1024	969.265	0.576
293.15	0.1233	973.513	0.575
293.15	0.1616	981.396	0.574
293.15	0.2007	989.531	0.573
293.15	0.2395	997.69	0.572
293.15	0.2793	1006.156	0.579
293.15	0.3166	1014.222	0.589
293.15	0.3529	1022.108	0.598
293.15	0.3885	1029.963	0.608
298.15	0	943.797	0.587
298.15	0.04109	952.107	0.583
298.15	0.05823	955.574	0.581
298.15	0.08396	960.793	0.579
298.15	0.1024	964.546	0.578
298.15	0.1233	968.799	0.577
298.15	0.1616	976.698	0.575
298.15	0.2007	984.846	0.574
298.15	0.2395	993.019	0.573
298.15	0.2793	1001.499	0.575
298.15	0.3166	1009.579	0.584
298.15	0.3529	1017.477	0.593
298.15	0.3885	1025.345	0.603
303.15	0	939.017	0.59
303.15	0.04109	947.355	0.586
303.15	0.05823	950.83	0.584
303.15	0.08396	956.059	0.582
303.15	0.1024	959.822	0.58
303.15	0.1233	964.082	0.579
303.15	0.1616	971.997	0.577
303.15	0.2007	980.162	0.575
303.15	0.2395	988.351	0.574
303.15	0.2793	996.842	0.574
303.15	0.3166	1004.936	0.579
303.15	0.3529	1012.848	0.588
303.15	0.3885	1020.732	0.598
313.15	0	929.437	0.596
313.15	0.04109	937.821	0.591
313.15	0.05823	941.313	0.589
313.15	0.08396	946.568	0.587
313.15	0.1024	950.346	0.585
313.15	0.1233	954.629	0.584
313.15	0.1616	962.575	0.581
313.15	0.2007	970.768	0.579
313.15	0.2395	978.996	0.577
313.15	0.2793	987.519	0.576
313.15	0.3166	995.645	0.575
313.15	0.3529	1003.585	0.579
313.15	0.3885	1011.504	0.588
323.15	0	919.807	0.603
323.15	0.04109	928.242	0.597
323.15	0.05823	931.759	0.595
323.15	0.08396	937.04	0.592
323.15	0.1024	940.834	0.59
323.15	0.1233	945.142	0.589
323.15	0.1616	953.124	0.585
323.15	0.2007	961.357	0.582
323.15	0.2395	969.623	0.58
323.15	0.2793	978.179	0.579
323.15	0.3166	986.342	0.577
323.15	0.3529	994.313	0.577
323.15	0.3885	1002.274	0.579
333.15	0	910.12	0.611
333.15	0.04109	918.616	0.605
333.15	0.05823	922.147	0.602
333.15	0.08396	927.465	0.599
333.15	0.1024	931.273	0.596
333.15	0.1233	935.612	0.594
333.15	0.1616	943.633	0.591
333.15	0.2007	951.918	0.587
333.15	0.2395	960.225	0.584
333.15	0.2793	968.812	0.582
333.15	0.3166	977.019	0.58
333.15	0.3529	985.025	0.579
333.15	0.3885	993.029	0.578

System: dimethylformamide + cobalt(II) perchlorate; phases: Liquid
Fixed: Temperature, K = 298.15
Fixed: Pressure, kPa = 101.3
Property: Speed of sound, m/s (Liquid); method: Pulse-echo method
Molality, mol/kg of cobalt(II) perchlorate	Speed of sound, m/s	uncertainty
0.02921	1459.61	1.45
0.05081	1461.38	1.45
0.05902	1462.09	1.45
0.08863	1464.23	1.46
0.1167	1466.53	1.46
0.1455	1468.53	1.46
0.1735	1471.04	1.46
0.2007	1472.85	1.46
0.2305	1475.38	1.46
0.2574	1477.55	1.46
0.284	1479.74	1.46

System: dimethylformamide + cobalt(II) perchlorate; phases: Liquid
Fixed: Pressure, kPa = 101.3
Property: Mass density, kg/m3 (Liquid); method: VIBTUB:UFactor:4
Temperature, K	Molality, mol/kg of cobalt(II) perchlorate	Mass density, kg/m3	uncertainty
283.15	0	958.163	0.583
283.15	0.02921	964.275	0.58
283.15	0.03591	965.673	0.579
283.15	0.05081	968.79	0.578
283.15	0.05902	970.508	0.578
283.15	0.08863	976.733	0.577
283.15	0.1167	982.692	0.576
283.15	0.1455	988.838	0.575
283.15	0.1735	994.845	0.574
283.15	0.2007	1000.797	0.575
283.15	0.2305	1007.325	0.583
283.15	0.2574	1013.279	0.59
283.15	0.284	1019.218	0.597
293.15	0	948.653	0.587
293.15	0.02921	954.785	0.585
293.15	0.03591	956.19	0.584
293.15	0.05081	959.315	0.582
293.15	0.05902	961.035	0.582
293.15	0.08863	967.283	0.58
293.15	0.1167	973.255	0.578
293.15	0.1455	979.414	0.577
293.15	0.1735	985.454	0.577
293.15	0.2007	991.403	0.576
293.15	0.2305	997.94	0.576
293.15	0.2574	1003.907	0.58
293.15	0.284	1009.857	0.587
298.15	0	943.884	0.59
298.15	0.02921	950.026	0.587
298.15	0.03591	951.432	0.586
298.15	0.05081	954.565	0.585
298.15	0.05902	956.29	0.584
298.15	0.08863	962.549	0.582
298.15	0.1167	968.53	0.58
298.15	0.1455	974.697	0.579
298.15	0.1735	980.747	0.578
298.15	0.2007	986.7	0.577
298.15	0.2305	993.248	0.576
298.15	0.2574	999.223	0.576
298.15	0.284	1005.18	0.582
303.15	0	939.114	0.593
303.15	0.02921	945.273	0.59
303.15	0.03591	946.682	0.589
303.15	0.05081	949.82	0.587
303.15	0.05902	951.55	0.587
303.15	0.08863	957.809	0.584
303.15	0.1167	963.801	0.582
303.15	0.1455	969.98	0.58
303.15	0.1735	976.035	0.579
303.15	0.2007	981.997	0.578
303.15	0.2305	988.552	0.577
303.15	0.2574	994.536	0.577
303.15	0.284	1000.505	0.577
313.15	0	929.529	0.599
313.15	0.02921	935.722	0.596
313.15	0.03591	937.135	0.594
313.15	0.05081	940.29	0.592
313.15	0.05902	942.021	0.592
313.15	0.08863	948.308	0.589
313.15	0.1167	954.319	0.587
313.15	0.1455	960.52	0.584
313.15	0.1735	966.596	0.583
313.15	0.2007	972.578	0.581
313.15	0.2305	979.153	0.58
313.15	0.2574	985.152	0.579
313.15	0.284	991.143	0.579
323.15	0	919.9	0.606
323.15	0.02921	926.127	0.602
323.15	0.03591	927.546	0.601
323.15	0.05081	930.711	0.598
323.15	0.05902	932.457	0.598
323.15	0.08863	938.77	0.594
323.15	0.1167	944.808	0.592
323.15	0.1455	951.034	0.589
323.15	0.1735	957.13	0.587
323.15	0.2007	963.135	0.585
323.15	0.2305	969.73	0.583
323.15	0.2574	975.753	0.582
323.15	0.284	981.766	0.581
333.15	0	910.2	0.614
333.15	0.02921	916.489	0.608
333.15	0.03591	917.907	0.607
333.15	0.05081	921.09	0.605
333.15	0.05902	922.843	0.604
333.15	0.08863	929.181	0.601
333.15	0.1167	935.256	0.597
333.15	0.1455	941.509	0.594
333.15	0.1735	947.626	0.592
333.15	0.2007	953.661	0.59
333.15	0.2305	960.286	0.587
333.15	0.2574	966.326	0.586
333.15	0.284	972.371	0.584

System: dimethylformamide + nickel perchlorate; phases: Liquid
Fixed: Temperature, K = 298.15
Fixed: Pressure, kPa = 101.3
Property: Speed of sound, m/s (Liquid); method: Pulse-echo method
Molality, mol/kg of nickel perchlorate	Speed of sound, m/s	uncertainty
0.027	1459.61	1.45
0.0405	1460.65	1.45
0.054	1461.74	1.45
0.0681	1462.87	1.46
0.08156	1463.88	1.46
0.1073	1466.02	1.46
0.1332	1467.81	1.46
0.1592	1469.96	1.46
0.1864	1471.76	1.46
0.2118	1473.57	1.46
0.2613	1477.55	1.46

System: dimethylformamide + nickel perchlorate; phases: Liquid
Fixed: Pressure, kPa = 101.3
Property: Mass density, kg/m3 (Liquid); method: VIBTUB:UFactor:4
Temperature, K	Molality, mol/kg of nickel perchlorate	Mass density, kg/m3	uncertainty
283.15	0	958.163	0.583
283.15	0.02709	963.872	0.581
283.15	0.0405	966.705	0.58
283.15	0.054	969.549	0.579
283.15	0.0681	972.55	0.578
283.15	0.08156	975.396	0.577
283.15	0.1073	980.845	0.576
283.15	0.1332	986.418	0.576
283.15	0.1592	992.026	0.575
283.15	0.1864	997.967	0.575
283.15	0.2118	1003.544	0.579
283.15	0.2613	1014.546	0.591
293.15	0	948.653	0.588
293.15	0.02709	954.383	0.585
293.15	0.0405	957.208	0.584
293.15	0.054	960.073	0.583
293.15	0.0681	963.083	0.582
293.15	0.08156	965.94	0.581
293.15	0.1073	971.397	0.579
293.15	0.1332	976.985	0.578
293.15	0.1592	982.603	0.577
293.15	0.1864	988.557	0.577
293.15	0.2118	994.141	0.577
293.15	0.2613	1005.163	0.581
298.15	0	943.884	0.591
298.15	0.02709	949.635	0.588
298.15	0.0405	952.461	0.586
298.15	0.054	955.329	0.585
298.15	0.0681	958.342	0.584
298.15	0.08156	961.2	0.583
298.15	0.1073	966.666	0.581
298.15	0.1332	972.262	0.58
298.15	0.1592	977.888	0.579
298.15	0.1864	983.849	0.578
298.15	0.2118	989.44	0.578
298.15	0.2613	1000.47	0.577
303.15	0	939.114	0.593
303.15	0.02709	944.864	0.59
303.15	0.0405	947.7	0.589
303.15	0.054	950.578	0.588
303.15	0.0681	953.59	0.586
303.15	0.08156	956.46	0.585
303.15	0.1073	961.935	0.583
303.15	0.1332	967.533	0.582
303.15	0.1592	973.17	0.58
303.15	0.1864	979.136	0.579
303.15	0.2118	984.736	0.579
303.15	0.2613	995.784	0.577
313.15	0	929.529	0.6
313.15	0.02709	935.312	0.596
313.15	0.0405	938.159	0.594
313.15	0.054	941.045	0.593
313.15	0.0681	944.072	0.591
313.15	0.08156	946.947	0.59
313.15	0.1073	952.463	0.588
313.15	0.1332	958.059	0.586
313.15	0.1592	963.711	0.584
313.15	0.1864	969.697	0.583
313.15	0.2118	975.313	0.582
313.15	0.2613	986.394	0.579
323.15	0	919.9	0.607
323.15	0.02709	925.725	0.602
323.15	0.0405	928.568	0.6
323.15	0.054	931.471	0.599
323.15	0.0681	934.511	0.597
323.15	0.08156	937.4	0.595
323.15	0.1073	942.934	0.593
323.15	0.1332	948.552	0.59
323.15	0.1592	954.224	0.588
323.15	0.1864	960.23	0.587
323.15	0.2118	965.882	0.585
323.15	0.2613	976.988	0.582
333.15	0	910.2	0.614
333.15	0.02709	916.07	0.61
333.15	0.0405	918.935	0.607
333.15	0.054	921.848	0.606
333.15	0.0681	924.9	0.604
333.15	0.08156	927.809	0.602
333.15	0.1073	933.366	0.599
333.15	0.1332	939.005	0.596
333.15	0.1592	944.695	0.594
333.15	0.1864	950.732	0.591
333.15	0.2118	956.405	0.59
333.15	0.2613	967.56	0.585

System: dimethylformamide + copper perchlorate; phases: Liquid
Fixed: Temperature, K = 298.15
Fixed: Pressure, kPa = 101.3
Property: Speed of sound, m/s (Liquid); method: Pulse-echo method
Molality, mol/kg of copper perchlorate	Speed of sound, m/s	uncertainty
0.0362	1459.96	1.45
0.0604	1461.74	1.45
0.07815	1463.16	1.46
0.106	1465.3	1.46
0.139	1467.81	1.46
0.1737	1470.32	1.46
0.2084	1473.21	1.46
0.2431	1475.74	1.46
0.2746	1478.28	1.46
0.3065	1480.83	1.46
0.3377	1483.76	1.46

System: dimethylformamide + copper perchlorate; phases: Liquid
Fixed: Pressure, kPa = 101.3
Property: Mass density, kg/m3 (Liquid); method: VIBTUB:UFactor:4
Temperature, K	Molality, mol/kg of copper perchlorate	Mass density, kg/m3	uncertainty
283.15	0	958.075	0.584
283.15	0.0362	965.762	0.581
283.15	0.04897	968.496	0.58
283.15	0.0604	970.938	0.579
283.15	0.07815	974.714	0.579
283.15	0.106	980.752	0.577
283.15	0.139	987.892	0.576
283.15	0.1737	995.495	0.576
283.15	0.2084	1003.16	0.579
283.15	0.2431	1010.942	0.588
283.15	0.2746	1018.01	0.597
283.15	0.3065	1025.385	0.607
283.15	0.3377	1032.616	0.615
293.15	0	948.565	0.588
293.15	0.0362	956.275	0.585
293.15	0.04897	959.009	0.584
293.15	0.0604	961.462	0.583
293.15	0.07815	965.248	0.582
293.15	0.106	971.295	0.58
293.15	0.139	978.445	0.579
293.15	0.1737	986.058	0.578
293.15	0.2084	993.739	0.577
293.15	0.2431	1001.532	0.579
293.15	0.2746	1008.7	0.587
293.15	0.3065	1015.993	0.596
293.15	0.3377	1023.235	0.604
298.15	0	943.797	0.591
298.15	0.0362	951.52	0.587
298.15	0.04897	954.258	0.586
298.15	0.0604	956.715	0.585
298.15	0.07815	960.507	0.584
298.15	0.106	966.549	0.582
298.15	0.139	973.718	0.58
298.15	0.1737	981.338	0.579
298.15	0.2084	989.024	0.578
298.15	0.2431	996.825	0.578
298.15	0.2746	1003.95	0.582
298.15	0.3065	1011.298	0.591
298.15	0.3377	1018.54	0.599
303.15	0	939.017	0.594
303.15	0.0362	946.762	0.59
303.15	0.04897	949.505	0.589
303.15	0.0604	951.971	0.587
303.15	0.07815	955.758	0.586
303.15	0.106	961.812	0.584
303.15	0.139	968.984	0.582
303.15	0.1737	976.613	0.58
303.15	0.2084	984.309	0.579
303.15	0.2431	992.116	0.578
303.15	0.2746	999.2	0.579
303.15	0.3065	1006.602	0.587
303.15	0.3377	1013.848	0.594
313.15	0	929.437	0.6
313.15	0.0362	937.212	0.595
313.15	0.04897	939.972	0.594
313.15	0.0604	942.44	0.592
313.15	0.07815	946.236	0.591
313.15	0.106	952.315	0.589
313.15	0.139	959.5	0.586
313.15	0.1737	967.148	0.584
313.15	0.2084	974.859	0.582
313.15	0.2431	982.686	0.581
313.15	0.2746	989.83	0.58
313.15	0.3065	997.202	0.58
313.15	0.3377	1004.456	0.585
323.15	0	919.807	0.607
323.15	0.0362	927.62	0.601
323.15	0.04897	930.338	0.6
323.15	0.0604	932.866	0.599
323.15	0.07815	936.666	0.597
323.15	0.106	942.78	0.594
323.15	0.139	949.979	0.591
323.15	0.1737	957.653	0.588
323.15	0.2084	965.385	0.586
323.15	0.2431	973.233	0.584
323.15	0.2746	980.454	0.583
323.15	0.3065	987.786	0.582
323.15	0.3377	995.056	0.581
333.15	0	910.12	0.614
333.15	0.0362	917.988	0.609
333.15	0.04897	920.756	0.607
333.15	0.0604	923.242	0.605
333.15	0.07815	927.06	0.603
333.15	0.106	933.198	0.6
333.15	0.139	940.416	0.596
333.15	0.1737	948.12	0.593
333.15	0.2084	955.869	0.59
333.15	0.2431	963.75	0.587
333.15	0.2746	970.858	0.586
333.15	0.3065	978.345	0.585
333.15	0.3377	985.638	0.583

System: dimethylformamide + zinc perchlorate; phases: Liquid
Fixed: Temperature, K = 298.15
Fixed: Pressure, kPa = 101.3
Property: Speed of sound, m/s (Liquid); method: Pulse-echo method
Molality, mol/kg of zinc perchlorate	Speed of sound, m/s	uncertainty
0.03554	1459.91	1.45
0.05952	1461.74	1.45
0.06946	1462.45	1.46
0.1039	1464.95	1.46
0.1369	1467.45	1.46
0.17	1469.6	1.5
0.2038	1472.12	1.46
0.2374	1474.65	1.46
0.2701	1477.19	1.46
0.3002	1479.74	1.46
0.3314	1482.1	1.46

System: dimethylformamide + zinc perchlorate; phases: Liquid
Fixed: Pressure, kPa = 101.3
Property: Mass density, kg/m3 (Liquid); method: VIBTUB:UFactor:4
Temperature, K	Molality, mol/kg of zinc perchlorate	Mass density, kg/m3	uncertainty
283.15	0	958.163	0.585
283.15	0.03554	965.795	0.581
283.15	0.04966	968.825	0.581
283.15	0.05952	970.955	0.58
283.15	0.06946	973.095	0.58
283.15	0.1039	980.554	0.578
283.15	0.1369	987.781	0.577
283.15	0.17	995.118	0.577
283.15	0.2038	1002.648	0.58
283.15	0.2374	1010.265	0.589
283.15	0.2701	1017.772	0.598
283.15	0.3002	1024.718	0.606
283.15	0.3314	1032.04	0.615
293.15	0	948.653	0.589
293.15	0.03554	956.309	0.586
293.15	0.04966	959.347	0.584
293.15	0.05952	961.484	0.584
293.15	0.06946	963.626	0.583
293.15	0.1039	971.105	0.581
293.15	0.1369	978.348	0.58
293.15	0.17	985.7	0.579
293.15	0.2038	993.242	0.578
293.15	0.2374	1000.868	0.579
293.15	0.2701	1008.392	0.588
293.15	0.3002	1015.347	0.596
293.15	0.3314	1022.68	0.605
298.15	0	943.884	0.592
298.15	0.03554	951.555	0.588
298.15	0.04966	954.6	0.587
298.15	0.05952	956.74	0.586
298.15	0.06946	958.885	0.585
298.15	0.1039	966.376	0.583
298.15	0.1369	973.626	0.581
298.15	0.17	980.987	0.58
298.15	0.2038	988.537	0.579
298.15	0.2374	996.17	0.579
298.15	0.2701	1003.703	0.583
298.15	0.3002	1010.665	0.591
298.15	0.3314	1018.006	0.6
303.15	0	939.114	0.595
303.15	0.03554	946.8	0.591
303.15	0.04966	949.85	0.589
303.15	0.05952	951.99	0.588
303.15	0.06946	954.139	0.588
303.15	0.1039	961.642	0.585
303.15	0.1369	968.9	0.583
303.15	0.17	976.267	0.581
303.15	0.2038	983.828	0.58
303.15	0.2374	991.474	0.58
303.15	0.2701	999.008	0.58
303.15	0.3002	1005.982	0.587
303.15	0.3314	1013.326	0.595
313.15	0	929.529	0.601
313.15	0.03554	937.255	0.596
313.15	0.04966	940.315	0.594
313.15	0.05952	942.46	0.593
313.15	0.06946	944.619	0.593
313.15	0.1039	952.143	0.589
313.15	0.1369	959.426	0.587
313.15	0.17	966.813	0.585
313.15	0.2038	974.394	0.583
313.15	0.2374	982.063	0.582
313.15	0.2701	989.616	0.581
313.15	0.3002	996.605	0.581
313.15	0.3314	1003.97	0.586
323.15	0	919.9	0.608
323.15	0.03554	927.66	0.602
323.15	0.04966	930.737	0.6
323.15	0.05952	932.889	0.599
323.15	0.06946	935.058	0.598
323.15	0.1039	942.607	0.594
323.15	0.1369	949.918	0.592
323.15	0.17	957.333	0.589
323.15	0.2038	964.934	0.587
323.15	0.2374	972.635	0.585
323.15	0.2701	980.208	0.584
323.15	0.3002	987.212	0.583
323.15	0.3314	994.605	0.583
333.15	0	910.2	0.615
333.15	0.03554	918.015	0.61
333.15	0.04966	921.108	0.607
333.15	0.05952	923.268	0.606
333.15	0.06946	925.449	0.605
333.15	0.1039	933.036	0.6
333.15	0.1369	940.371	0.597
333.15	0.17	947.816	0.594
333.15	0.2038	955.438	0.591
333.15	0.2374	963.178	0.589
333.15	0.2701	970.777	0.587
333.15	0.3002	977.794	0.586
333.15	0.3314	985.215	0.585
