Measured thermophysical data. Isothermal Vapor-Liquid Equilibria for the n-Pentane + 1-Butanol and n-Pentane + 2-Butanol Systems near the Critical Region of the Mixtures
Source: J. Chem. Eng. Data, 2005, 10.1021/je049894j
Compound 1: pentane, C5H12, InChI=1S/C5H12/c1-3-5-4-2/h3-5H2,1-2H3, purity 99.5%
Compound 2: butan-1-ol, C4H10O, InChI=1S/C4H10O/c1-2-3-4-5/h5H,2-4H2,1H3, purity 99.5%
Compound 3: butan-2-ol, C4H10O, InChI=1S/C4H10O/c1-3-4(2)5/h4-5H,3H2,1-2H3, purity 99.5%

System: pentane; phases: Liquid, Gas
Property: Vapor or sublimation pressure, kPa (Liquid); method: CCELL:UFactor:10
Temperature, K	Vapor or sublimation pressure, kPa	uncertainty
468.15	3286	102

System: butan-1-ol; phases: Liquid, Gas
Property: Vapor or sublimation pressure, kPa (Liquid); method: CCELL:UFactor:10
Temperature, K	Vapor or sublimation pressure, kPa	uncertainty
468.15	833	26
483.15	1182	37
498.15	1558	48
513.15	2027	63

System: butan-2-ol; phases: Liquid, Gas
Property: Vapor or sublimation pressure, kPa (Liquid); method: CCELL:UFactor:6
Temperature, K	Vapor or sublimation pressure, kPa	uncertainty
468.15	1351	31
483.15	1791	39
498.15	2329	49
513.15	2946	60

System: butan-1-ol + pentane; phases: Liquid, Gas
Property: Critical pressure, kPa (Liquid); method: Direct measurement
Mole fraction of pentane	Critical pressure, kPa	uncertainty
0.476	4165	125
0.661	3924	118
0.789	3639	109

System: butan-1-ol + pentane; phases: Liquid, Gas
Property: Critical temperature, K (Liquid); method: Visual observation in a stirred cell
Mole fraction of pentane	Critical temperature, K	uncertainty
0.476	513.15	0.61
0.661	498.15	0.61
0.789	483.15	0.6

System: butan-1-ol + pentane; phases: Liquid, Gas
Property: Vapor or sublimation pressure, kPa (Liquid); method: CCELL:UFactor:10
Mole fraction of pentane	Temperature, K	Vapor or sublimation pressure, kPa	uncertainty
0	468.15	833	26
0	483.15	1182	37
0	498.15	1558	48
0	513.15	2027	63
0.033	498.15	1740	54
0.051	513.15	2340	73
0.052	468.15	1202	37
0.067	483.15	1484	46
0.098	498.15	2050	64
0.104	513.15	2654	82
0.14	468.15	1523	47
0.16	498.15	2409	75
0.165	483.15	2047	64
0.173	513.15	3084	96
0.258	468.15	1852	58
0.283	513.15	3578	111
0.288	498.15	2939	91
0.321	483.15	2651	82
0.402	468.15	2188	68
0.403	513.15	4005	124
0.439	498.15	3438	107
0.482	483.15	3075	96
0.515	498.15	3651	113
0.535	468.15	2532	79
0.588	483.15	3304	103
0.588	498.15	3822	119
0.686	483.15	3491	108
0.721	468.15	2868	89
0.732	483.15	3591	112
0.861	468.15	3091	96
0.938	468.15	3206	100
0.979	468.15	3257	101
1	468.15	3286	102

System: butan-1-ol + pentane; phases: Gas, Liquid
Property: Mole fraction of pentane (Gas); method: CHROM:UFactor:6
Mole fraction of pentane	Temperature, K	Mole fraction of pentane	uncertainty
0	468.15	0	0.001
0	483.15	0	0.001
0	498.15	0	0.001
0	513.15	0	0.001
0.033	498.15	0.064	0.005
0.051	513.15	0.106	0.008
0.052	468.15	0.149	0.011
0.067	483.15	0.158	0.011
0.098	498.15	0.181	0.013
0.104	513.15	0.2	0.014
0.14	468.15	0.35	0.025
0.16	498.15	0.304	0.022
0.165	483.15	0.373	0.027
0.173	513.15	0.304	0.022
0.258	468.15	0.478	0.034
0.283	513.15	0.39	0.028
0.288	498.15	0.45	0.032
0.321	483.15	0.544	0.033
0.402	468.15	0.608	0.028
0.403	513.15	0.46	0.033
0.439	498.15	0.578	0.03
0.482	483.15	0.677	0.023
0.515	498.15	0.617	0.028
0.535	468.15	0.711	0.021
0.588	483.15	0.719	0.02
0.588	498.15	0.656	0.025
0.686	483.15	0.766	0.017
0.721	468.15	0.809	0.014
0.732	483.15	0.786	0.016
0.861	468.15	0.885	0.008
0.938	468.15	0.943	0.004
0.979	468.15	0.979	0.002
1	468.15	1	0.001

System: butan-2-ol + pentane; phases: Liquid, Gas
Property: Critical pressure, kPa (Liquid); method: Direct measurement
Mole fraction of pentane	Critical pressure, kPa	uncertainty
0.301	4094	123
0.495	3906	117
0.706	3680	111

System: butan-2-ol + pentane; phases: Liquid, Gas
Property: Critical temperature, K (Liquid); method: Visual observation in a stirred cell
Mole fraction of pentane	Critical temperature, K	uncertainty
0.301	513.15	0.6
0.495	498.15	0.61
0.706	483.15	0.6

System: butan-2-ol + pentane; phases: Liquid, Gas
Property: Vapor or sublimation pressure, kPa (Liquid); method: CCELL:UFactor:6
Mole fraction of pentane	Temperature, K	Vapor or sublimation pressure, kPa	uncertainty
0	468.15	1351	31
0	483.15	1791	39
0	498.15	2329	49
0	513.15	2946	60
0.033	498.15	2501	52
0.042	483.15	1939	42
0.049	513.15	3162	64
0.064	468.15	1588	35
0.07	498.15	2649	55
0.075	483.15	2069	44
0.084	513.15	3328	67
0.086	468.15	1649	36
0.121	498.15	2851	59
0.139	483.15	2276	48
0.141	513.15	3576	71
0.167	468.15	1879	40
0.179	498.15	3062	63
0.195	513.15	3807	76
0.2	483.15	2488	52
0.243	513.15	3975	79
0.25	498.15	3308	67
0.266	483.15	2708	56
0.279	468.15	2162	47
0.325	498.15	3534	71
0.362	468.15	2357	50
0.37	483.15	2972	61
0.389	498.15	3691	74
0.44	498.15	3829	76
0.447	483.15	3161	64
0.461	468.15	2584	54
0.536	483.15	3354	68
0.569	468.15	2775	58
0.584	483.15	3437	69
0.654	483.15	3596	73
0.672	468.15	2946	61
0.753	468.15	3066	63
0.842	468.15	3168	64
0.913	468.15	3232	64
0.977	468.15	3272	65
1	468.15	3286	65

System: butan-2-ol + pentane; phases: Gas, Liquid
Property: Mole fraction of pentane (Gas); method: CHROM:UFactor:6
Mole fraction of pentane	Temperature, K	Mole fraction of pentane	uncertainty
0	468.15	0	0.001
0	483.15	0	0.001
0	498.15	0	0.001
0	513.15	0	0.001
0.033	498.15	0.06	0.004
0.042	483.15	0.097	0.007
0.049	513.15	0.079	0.006
0.064	468.15	0.147	0.011
0.07	498.15	0.111	0.008
0.075	483.15	0.163	0.012
0.084	513.15	0.129	0.009
0.086	468.15	0.183	0.013
0.121	498.15	0.177	0.013
0.139	483.15	0.225	0.016
0.141	513.15	0.197	0.014
0.167	468.15	0.281	0.02
0.179	498.15	0.25	0.018
0.195	513.15	0.252	0.018
0.2	483.15	0.305	0.022
0.243	513.15	0.284	0.021
0.25	498.15	0.316	0.023
0.266	483.15	0.375	0.027
0.279	468.15	0.407	0.029
0.325	498.15	0.385	0.028
0.362	468.15	0.487	0.035
0.37	483.15	0.475	0.034
0.389	498.15	0.442	0.032
0.44	498.15	0.48	0.035
0.447	483.15	0.533	0.034
0.461	468.15	0.573	0.031
0.536	483.15	0.594	0.029
0.569	468.15	0.639	0.026
0.584	483.15	0.621	0.027
0.654	483.15	0.674	0.024
0.672	468.15	0.732	0.019
0.753	468.15	0.792	0.015
0.842	468.15	0.861	0.01
0.913	468.15	0.921	0.006
0.977	468.15	0.978	0.002
1	468.15	1	0.001
