Measured thermophysical data. Densities and Solubilities for Binary Systems of Carbon Dioxide + Water and Carbon Dioxide + Brine at 59 ?C and Pressures to 29 MPa
Source: J. Chem. Eng. Data, 2004, 10.1021/je049945c
Compound 1: water, H2O, InChI=1S/H2O/h1H2, purity 99.999%
Compound 2: carbon dioxide, CO2, InChI=1S/CO2/c2-1-3, purity 99.99%

System: carbon dioxide + water; phases: Liquid, Gas
Fixed: Temperature, K = 332
Property: Amount concentration (molarity), mol/dm3 (Liquid); method: OTHER
Pressure, kPa	Amount concentration (molarity), mol/dm3	uncertainty
3340	0.514	0.021
6270	0.835	0.033
10140	1.089	0.044
11760	1.127	0.045
15620	1.227	0.049
19890	1.344	0.054

System: carbon dioxide + water; phases: Liquid
Fixed: Temperature, K = 332
Property: Mass density, kg/m3 (Liquid); method: Vibrating tube method
Amount concentration (molarity), mol/dm3 of carbon dioxide	Pressure, kPa	Mass density, kg/m3	uncertainty
0.514	3340	990.5	1.2
0.514	8030	993	1
0.514	11850	995	1
0.514	18100	998.3	1.2
0.514	28000	1003.4	1.2
0.835	6270	994.7	1.2
0.835	10340	996.8	1.2
0.835	14990	999.3	1.2
0.835	20090	1002	1
0.835	27770	1006.2	1.2
1.089	10140	998.9	1.2
1.089	13560	1000.8	1.2
1.089	17340	1002.8	1.2
1.089	19620	1004	1
1.089	27340	1008	1
1.127	11760	1000.2	1.2
1.127	13460	1001.3	1.2
1.127	18900	1004.3	1.2
1.127	22930	1006.4	1.2
1.127	28180	1009	1
1.227	15620	1003.1	1.2
1.227	17430	1003.9	1.2
1.227	21060	1005.9	1.2
1.227	24320	1007.6	1.2
1.227	28130	1009.5	1.2
1.344	19890	1005.9	1.2
1.344	22090	1007	1
1.344	24670	1008.3	1.2
1.344	28590	1010.3	1.2
