Measured thermophysical data. Critical Properties of Four HFE + HFC Binary Systems: Trifluoromethoxymethane (HFE-143m) + Pentafluoroethane (HFC-125), + 1,1,1,2-Tetrafluoroethane (HFC-134a), + 1,1,1,2,3,3,3-Heptafluoropropane (HFC-227ea), and + 1,1,1,2,3,3-Hexafluoropropane (HFC-236ea)
Source: J. Chem. Eng. Data, 2004, 10.1021/je0499723
Compound 1: trifluoromethoxymethane, C2H3F3O, InChI=1S/C2H3F3O/c1-6-2(3,4)5/h1H3, purity 99.9%
Compound 2: pentafluoroethane, C2HF5, InChI=1S/C2HF5/c3-1(4)2(5,6)7/h1H, purity 99.8%
Compound 3: 1,1,1,2-tetrafluoroethane, C2H2F4, InChI=1S/C2H2F4/c3-1-2(4,5)6/h1H2, purity 99.99%
Compound 4: 1,1,1,2,3,3,3-heptafluoropropane, C3HF7, InChI=1S/C3HF7/c4-1(2(5,6)7)3(8,9)10/h1H, purity 99.8%
Compound 5: 1,1,1,2,3,3-hexafluoropropane, C3H2F6, InChI=1S/C3H2F6/c4-1(2(5)6)3(7,8)9/h1-2H, purity 99.4%

System: trifluoromethoxymethane; phases: Liquid, Gas
Property: Critical pressure, kPa (Liquid); method: Direct measurement
Critical pressure, kPa	uncertainty
3640	12

System: trifluoromethoxymethane; phases: Liquid, Gas
Property: Critical temperature, K (Liquid); method: Visual observation in an unstirred cell
Critical temperature, K	uncertainty
377.92	0.16

System: trifluoromethoxymethane; phases: Liquid, Gas
Property: Critical density, kg/m3 (Liquid); method: OTHER
Critical density, kg/m3	uncertainty
459	11

System: pentafluoroethane; phases: Liquid, Gas
Property: Critical pressure, kPa (Liquid); method: Direct measurement
Critical pressure, kPa	uncertainty
3617	12

System: pentafluoroethane; phases: Liquid, Gas
Property: Critical temperature, K (Liquid); method: Visual observation in an unstirred cell
Critical temperature, K	uncertainty
339.2	0.16

System: pentafluoroethane; phases: Liquid, Gas
Property: Critical density, kg/m3 (Liquid); method: OTHER
Critical density, kg/m3	uncertainty
560	13

System: 1,1,1,2-tetrafluoroethane; phases: Liquid, Gas
Property: Critical pressure, kPa (Liquid); method: Direct measurement
Critical pressure, kPa	uncertainty
4053	12

System: 1,1,1,2-tetrafluoroethane; phases: Liquid, Gas
Property: Critical temperature, K (Liquid); method: Visual observation in an unstirred cell
Critical temperature, K	uncertainty
374.13	0.16

System: 1,1,1,2-tetrafluoroethane; phases: Liquid, Gas
Property: Critical density, kg/m3 (Liquid); method: OTHER
Critical density, kg/m3	uncertainty
508	12

System: 1,1,1,2,3,3,3-heptafluoropropane; phases: Liquid, Gas
Property: Critical pressure, kPa (Liquid); method: Direct measurement
Critical pressure, kPa	uncertainty
2930	12

System: 1,1,1,2,3,3,3-heptafluoropropane; phases: Liquid, Gas
Property: Critical temperature, K (Liquid); method: Visual observation in an unstirred cell
Critical temperature, K	uncertainty
375	0.16

System: 1,1,1,2,3,3,3-heptafluoropropane; phases: Liquid, Gas
Property: Critical density, kg/m3 (Liquid); method: OTHER
Critical density, kg/m3	uncertainty
598	14

System: 1,1,1,2,3,3-hexafluoropropane; phases: Liquid, Gas
Property: Critical pressure, kPa (Liquid); method: Direct measurement
Critical pressure, kPa	uncertainty
3416	12

System: 1,1,1,2,3,3-hexafluoropropane; phases: Liquid, Gas
Property: Critical temperature, K (Liquid); method: Visual observation in an unstirred cell
Critical temperature, K	uncertainty
412.41	0.16

System: 1,1,1,2,3,3-hexafluoropropane; phases: Liquid, Gas
Property: Critical density, kg/m3 (Liquid); method: OTHER
Critical density, kg/m3	uncertainty
562	13

System: pentafluoroethane + trifluoromethoxymethane; phases: Liquid, Gas
Property: Critical pressure, kPa (Liquid); method: Direct measurement
Mole fraction of trifluoromethoxymethane	Critical pressure, kPa	uncertainty
0	3617	12
0.1859	3674	12
0.3073	3697	12
0.5185	3703	12
0.7094	3694	12
0.8305	3676	12
1	3640	12

System: pentafluoroethane + trifluoromethoxymethane; phases: Liquid, Gas
Property: Critical temperature, K (Liquid); method: Visual observation in an unstirred cell
Mole fraction of trifluoromethoxymethane	Critical temperature, K	uncertainty
0	339.2	0.16
0.1859	346.83	0.16
0.3073	351.78	0.16
0.5185	359.94	0.16
0.7094	367.06	0.16
0.8305	371.66	0.16
1	377.92	0.16

System: pentafluoroethane + trifluoromethoxymethane; phases: Liquid, Gas
Property: Critical density, kg/m3 (Liquid); method: OTHER
Mole fraction of trifluoromethoxymethane	Critical density, kg/m3	uncertainty
0	560	13
0.1859	555	13
0.3073	523	12
0.5185	515	12
0.7094	491	11
0.8305	479	11
1	459	11

System: trifluoromethoxymethane + 1,1,1,2-tetrafluoroethane; phases: Liquid, Gas
Property: Critical pressure, kPa (Liquid); method: Direct measurement
Mole fraction of trifluoromethoxymethane	Critical pressure, kPa	uncertainty
0	4053	12
0.1649	3966	12
0.2914	3909	12
0.4897	3814	12
0.6543	3763	12
0.8151	3703	12
1	3640	12

System: trifluoromethoxymethane + 1,1,1,2-tetrafluoroethane; phases: Liquid, Gas
Property: Critical temperature, K (Liquid); method: Visual observation in an unstirred cell
Mole fraction of trifluoromethoxymethane	Critical temperature, K	uncertainty
0	374.13	0.16
0.1649	374.25	0.16
0.2914	374.56	0.16
0.4897	375.15	0.16
0.6543	375.94	0.16
0.8151	376.76	0.16
1	377.92	0.16

System: trifluoromethoxymethane + 1,1,1,2-tetrafluoroethane; phases: Liquid, Gas
Property: Critical density, kg/m3 (Liquid); method: OTHER
Mole fraction of trifluoromethoxymethane	Critical density, kg/m3	uncertainty
0	508	12
0.1649	508	12
0.2914	492	11
0.4897	486	11
0.6543	480	11
0.8151	468	11
1	459	11

System: trifluoromethoxymethane + 1,1,1,2,3,3,3-heptafluoropropane; phases: Liquid, Gas
Property: Critical pressure, kPa (Liquid); method: Direct measurement
Mole fraction of trifluoromethoxymethane	Critical pressure, kPa	uncertainty
0	2930	12
0.1647	3042	12
0.3999	3199	12
0.4999	3267	12
0.6664	3385	12
0.8165	3499	12
1	3640	12

System: trifluoromethoxymethane + 1,1,1,2,3,3,3-heptafluoropropane; phases: Liquid, Gas
Property: Critical temperature, K (Liquid); method: Visual observation in an unstirred cell
Mole fraction of trifluoromethoxymethane	Critical temperature, K	uncertainty
0	375	0.16
0.1647	375.41	0.16
0.3999	376.05	0.16
0.4999	376.24	0.16
0.6664	376.7	0.16
0.8165	377.25	0.16
1	377.92	0.16

System: trifluoromethoxymethane + 1,1,1,2,3,3,3-heptafluoropropane; phases: Liquid, Gas
Property: Critical density, kg/m3 (Liquid); method: OTHER
Mole fraction of trifluoromethoxymethane	Critical density, kg/m3	uncertainty
0	598	14
0.1647	574	13
0.3999	543	13
0.4999	526	12
0.6664	508	12
0.8165	486	11
1	459	11

System: trifluoromethoxymethane + 1,1,1,2,3,3-hexafluoropropane; phases: Liquid, Gas
Property: Critical pressure, kPa (Liquid); method: Direct measurement
Mole fraction of trifluoromethoxymethane	Critical pressure, kPa	uncertainty
0	3416	12
0.2452	3549	12
0.3348	3593	12
0.5434	3660	12
0.7338	3680	12
0.8497	3687	12
1	3640	12

System: trifluoromethoxymethane + 1,1,1,2,3,3-hexafluoropropane; phases: Liquid, Gas
Property: Critical temperature, K (Liquid); method: Visual observation in an unstirred cell
Mole fraction of trifluoromethoxymethane	Critical temperature, K	uncertainty
0	412.41	0.16
0.2452	405.77	0.16
0.3348	403.16	0.16
0.5434	396.33	0.16
0.7338	389.44	0.16
0.8497	384.72	0.16
1	377.92	0.16

System: trifluoromethoxymethane + 1,1,1,2,3,3-hexafluoropropane; phases: Liquid, Gas
Property: Critical density, kg/m3 (Liquid); method: OTHER
Mole fraction of trifluoromethoxymethane	Critical density, kg/m3	uncertainty
0	562	13
0.2452	545	13
0.3348	541	13
0.5434	518	12
0.7338	497	12
0.8497	476	11
1	459	11
