Measured thermophysical data. Vapor Pressures of Propylene Carbonate and N,N-Dimethylacetamide
Source: J. Chem. Eng. Data, 2005, 10.1021/je049950g
Compound 1: 4-methyl-1,3-dioxolan-2-one, C4H6O3, InChI=1S/C4H6O3/c1-3-2-6-4(5)7-3/h3H,2H2,1H3, purity 99.9%
Compound 2: N,N-dimethylethanamide, C4H9NO, InChI=1S/C4H9NO/c1-4(6)5(2)3/h1-3H3, purity 99.98%

System: 4-methyl-1,3-dioxolan-2-one; phases: Liquid, Gas
Property: Vapor or sublimation pressure, kPa (Liquid); method: CCELL:UFactor:4
Temperature, K	Vapor or sublimation pressure, kPa	uncertainty
348.15	0.2509	0.0237
353.15	0.3277	0.0285
358.15	0.4377	0.0353
363.15	0.5553	0.0427
368.15	0.7206	0.053
373.15	0.9231	0.0656
378.15	1.167	0.081
388.15	1.856	0.086
393.15	2.284	0.092
398.15	2.826	0.099
403.15	3.482	0.108
408.15	4.265	0.118
413.15	5.153	0.13
418.15	6.226	0.144
423.15	7.454	0.161
428.15	8.9594	0.1822
433.15	10.782	0.206
438.15	12.694	0.23
443.15	14.806	0.262
448.15	17.807	0.301
453.15	20.501	0.336
458.15	24.077	0.385
463.15	27.956	0.441
468.15	33.012	0.506
473.15	37.768	0.56

System: N,N-dimethylethanamide; phases: Liquid, Gas
Property: Vapor or sublimation pressure, kPa (Liquid); method: CCELL:UFactor:2
Temperature, K	Vapor or sublimation pressure, kPa	uncertainty
298.15	0.2936	0.0067
303.15	0.3925	0.0082
308.15	0.5179	0.0102
313.15	0.6782	0.0127
318.15	0.8946	0.0162
323.15	1.163	0.02
328.15	1.526	0.021
333.15	1.983	0.023
338.15	2.556	0.025
343.15	3.27	0.028
348.15	4.135	0.031
353.15	5.192	0.037
363.15	7.995	0.046
368.15	9.806	0.054
373.15	11.976	0.063
378.15	14.517	0.074
383.15	17.502	0.086
388.15	21.006	0.1
393.15	25.028	0.115
398.15	29.688	0.134
403.15	35.017	0.154
408.15	41.114	0.178
413.15	48.057	0.205
418.15	55.912	0.235
423.15	64.782	0.263
