Measured thermophysical data. Solubilities of Some Cyclohexyl Derivatives of Dialkyl 1,4-Dihydro-2,6-dimethyl-4-(1-methyl-5-nitro-imidazol-2-yl)- 3,5-pyridinedicarboxylates (Nifedipine Analogues) in Supercritical Carbon Dioxide. Part I
Source: J. Chem. Eng. Data, 2005, 10.1021/je049847r
Compound 1: bis(cyclohexyl)-1,4-dihydro-2,6-dimethyl-4-(1-methyl-5-nitro-imidazol-2-yl)-3,5-pyridinedicarboxylate, C25H34N4O6, InChI=1S/C25H34N4O6/c1-15-20(24(30)34-17-10-6-4-7-11-17)22(23-26-14-19(28(23)3)29(32)33)21(16(2)27-15)25(31)35-18-12-8-5-9-13-18/h14,17-18,22,27H,4-13H2,1-3H3, purity 99.5%
Compound 2: bis(cyclohexylmethyl)-1,4-dihydro-2,6-dimethyl-4-(1-methyl-5-nitro-imidazol-2-yl)-3,5-pyridinedicarboxylate, C27H38N4O6, InChI=1S/C27H38N4O6/c1-17-22(26(32)36-15-19-10-6-4-7-11-19)24(25-28-14-21(30(25)3)31(34)35)23(18(2)29-17)27(33)37-16-20-12-8-5-9-13-20/h14,19-20,24,29H,4-13,15-16H2,1-3H3, purity 99.5%
Compound 3: bis(2-cyclohexylethyl)-1,4-dihydro-2,6-dimethyl-4-(1-methyl-5-nitro-imidazol-2-yl)-3,5-pyridinedicarboxylate, C29H42N4O6, InChI=1S/C29H42N4O6/c1-19-24(28(34)38-16-14-21-10-6-4-7-11-21)26(27-30-18-23(32(27)3)33(36)37)25(20(2)31-19)29(35)39-17-15-22-12-8-5-9-13-22/h18,21-22,26,31H,4-17H2,1-3H3, purity 99.5%
Compound 4: bis(3-cyclohexylpropyl) 2,6-dimethyl-4-(1-methyl-5-nitro-1H-imidazol-2-yl)-1,4-dihydropyridine-3,5-dicarboxylate, C31H46N4O6, InChI=1S/C31H46N4O6/c1-21-26(30(36)40-18-10-16-23-12-6-4-7-13-23)28(29-32-20-25(34(29)3)35(38)39)27(22(2)33-21)31(37)41-19-11-17-24-14-8-5-9-15-24/h20,23-24,28,33H,4-19H2,1-3H3, purity 99.5%
Compound 5: bis(4-cyclohexylbutyl) 2,6-dimethyl-4-(1-methyl-5-nitro-1H-imidazol-2-yl)-1,4-dihydropyridine-3,5-dicarboxylate, C33H50N4O6, InChI=1S/C33H50N4O6/c1-23-28(32(38)42-20-12-10-18-25-14-6-4-7-15-25)30(31-34-22-27(36(31)3)37(40)41)29(24(2)35-23)33(39)43-21-13-11-19-26-16-8-5-9-17-26/h22,25-26,30,35H,4-21H2,1-3H3, purity 99.5%
Compound 6: carbon dioxide, CO2, InChI=1S/CO2/c2-1-3

System: carbon dioxide + bis(cyclohexyl)-1,4-dihydro-2,6-dimethyl-4-(1-methyl-5-nitro-imidazol-2-yl)-3,5-pyridinedicarboxylate; phases: Liquid, Crystal
Property: Mole fraction of bis(cyclohexyl)-1,4-dihydro-2,6-dimethyl-4-(1-methyl-5-nitro-imidazol-2-yl)-3,5-pyridinedicarboxylate (Liquid); method: spectrophotometer
Temperature, K	Pressure, kPa	Mole fraction of bis(cyclohexyl)-1,4-dihydro-2,6-dimethyl-4-(1-methyl-5-nitro-imidazol-2-yl)-3,5-pyridinedicarboxylate	uncertainty
328	15200	2.6e-06	2e-06
328	18200	4.8e-06	4.8e-06
328	21300	8.9e-06	8.9e-06
328	24300	1.07e-05	1.07e-05
328	27400	1.28e-05	1.28e-05
328	30400	1.66e-05	1.66e-05
328	33400	1.88e-05	1.88e-05
328	35500	2.04e-05	2.04e-05
338	12200	1.03e-05	2.3e-06
338	15200	1.23e-05	3.7e-06
338	18200	3.44e-05	7e-06
338	21300	7.3e-05	1.26e-05
338	24300	9.31e-05	1.56e-05
338	27400	0.0001172	2.03e-05
338	30400	0.0001638	2.64e-05
338	33400	0.0001855	3.01e-05
338	35500	0.000202	3.27e-05
348	18200	5.74e-05	8.7e-06
348	21300	9.75e-05	1.24e-05
348	24300	0.000118	1.56e-05
348	27400	0.000157	2.05e-05
348	30400	0.0001915	2.37e-05
348	33400	0.0002209	2.74e-05
348	35500	0.0002382	2.95e-05

System: carbon dioxide + bis(cyclohexylmethyl)-1,4-dihydro-2,6-dimethyl-4-(1-methyl-5-nitro-imidazol-2-yl)-3,5-pyridinedicarboxylate; phases: Liquid, Crystal
Property: Mole fraction of bis(cyclohexylmethyl)-1,4-dihydro-2,6-dimethyl-4-(1-methyl-5-nitro-imidazol-2-yl)-3,5-pyridinedicarboxylate (Liquid); method: spectrophotometer
Temperature, K	Pressure, kPa	Mole fraction of bis(cyclohexylmethyl)-1,4-dihydro-2,6-dimethyl-4-(1-methyl-5-nitro-imidazol-2-yl)-3,5-pyridinedicarboxylate	uncertainty
328	15200	7.2e-06	9e-07
328	18200	1.15e-05	1.4e-06
328	21300	1.15e-05	1.6e-06
328	24300	2.29e-05	2.8e-06
328	27400	2.61e-05	3.1e-06
328	30400	2.67e-05	3.2e-06
328	33400	2.75e-05	3.3e-06
328	35500	3.12e-05	3.8e-06
338	15200	7.2e-06	9e-07
338	18200	1.15e-05	1.4e-06
338	21300	1.15e-05	1.5e-06
338	24300	2.29e-05	2.9e-06
338	27400	2.61e-05	3.4e-06
338	30400	2.67e-05	3.9e-06
338	33400	2.74e-05	4.5e-06
338	35500	3.12e-05	5.1e-06
348	18200	1.18e-05	1.4e-06
348	21300	1.59e-05	2.6e-06
348	24300	3.14e-05	4e-06
348	27400	4.04e-05	5.7e-06
348	30400	4.92e-05	7.4e-06
348	33400	5.8e-05	9.2e-06
348	35500	6.28e-05	9.8e-06

System: carbon dioxide + bis(2-cyclohexylethyl)-1,4-dihydro-2,6-dimethyl-4-(1-methyl-5-nitro-imidazol-2-yl)-3,5-pyridinedicarboxylate; phases: Liquid, Crystal
Property: Mole fraction of bis(2-cyclohexylethyl)-1,4-dihydro-2,6-dimethyl-4-(1-methyl-5-nitro-imidazol-2-yl)-3,5-pyridinedicarboxylate (Liquid); method: spectrophotometer
Temperature, K	Pressure, kPa	Mole fraction of bis(2-cyclohexylethyl)-1,4-dihydro-2,6-dimethyl-4-(1-methyl-5-nitro-imidazol-2-yl)-3,5-pyridinedicarboxylate	uncertainty
338	12200	3.1e-06	4e-07
338	15200	6.2e-06	8e-07
338	18200	1.16e-05	1.4e-06
338	21300	1.47e-05	1.8e-06
338	24300	1.8e-05	2.3e-06
338	27400	1.93e-05	2.5e-06
338	30400	2.01e-05	2.7e-06
338	33400	2.12e-05	2.9e-06
338	35500	2.2e-05	2.8e-06
348	12200	3.7e-06	5e-07
348	15200	6.5e-06	8e-07
348	18200	1.19e-05	1.5e-06
348	21300	1.71e-05	2.1e-06
348	24300	2.16e-05	2.6e-06
348	27400	2.38e-05	3e-06
348	30400	2.62e-05	3.4e-06
348	33400	2.77e-05	3.6e-06
348	35500	2.71e-05	3.5e-06
358	12200	2.6e-06	4e-07
358	15200	5.6e-06	8e-07
358	18200	1.24e-05	1.6e-06
358	21300	1.94e-05	2.4e-06
358	24300	2.26e-05	2.8e-06
358	27400	2.85e-05	3.5e-06
358	30400	3.18e-05	4e-06
358	33400	3.4e-05	4.3e-06
358	35500	3.61e-05	4.7e-06

System: carbon dioxide + bis(3-cyclohexylpropyl) 2,6-dimethyl-4-(1-methyl-5-nitro-1H-imidazol-2-yl)-1,4-dihydropyridine-3,5-dicarboxylate; phases: Liquid, Crystal
Property: Mole fraction of bis(3-cyclohexylpropyl) 2,6-dimethyl-4-(1-methyl-5-nitro-1H-imidazol-2-yl)-1,4-dihydropyridine-3,5-dicarboxylate (Liquid); method: spectrophotometer
Temperature, K	Pressure, kPa	Mole fraction of bis(3-cyclohexylpropyl) 2,6-dimethyl-4-(1-methyl-5-nitro-1H-imidazol-2-yl)-1,4-dihydropyridine-3,5-dicarboxylate	uncertainty
338	18200	3.9e-06	5e-07
338	21300	4.2e-06	5e-07
338	24300	4.9e-06	6e-07
338	27400	5.4e-06	7e-07
338	30400	5.6e-06	7e-07
338	33400	5.9e-06	8e-07
338	35500	5.7e-06	8e-07
348	18200	4.2e-06	5e-07
348	21300	5.1e-06	6e-07
348	24300	5.7e-06	7e-07
348	27400	6.5e-06	8e-07
348	30400	7.2e-06	9e-07
348	33400	7.3e-06	9e-07
348	35500	7.5e-06	1e-06
358	18200	3.8e-06	5e-07
358	21300	5.4e-06	7e-07
358	24300	6.3e-06	8e-07
358	27400	7.3e-06	9e-07
358	30400	8.6e-06	1.1e-06
358	33400	9.1e-06	1.2e-06
358	35500	9.6e-06	1.2e-06

System: carbon dioxide + bis(4-cyclohexylbutyl) 2,6-dimethyl-4-(1-methyl-5-nitro-1H-imidazol-2-yl)-1,4-dihydropyridine-3,5-dicarboxylate; phases: Liquid, Crystal
Property: Mole fraction of bis(4-cyclohexylbutyl) 2,6-dimethyl-4-(1-methyl-5-nitro-1H-imidazol-2-yl)-1,4-dihydropyridine-3,5-dicarboxylate (Liquid); method: spectrophotometer
Temperature, K	Pressure, kPa	Mole fraction of bis(4-cyclohexylbutyl) 2,6-dimethyl-4-(1-methyl-5-nitro-1H-imidazol-2-yl)-1,4-dihydropyridine-3,5-dicarboxylate	uncertainty
338	18200	3.1e-06	4e-07
338	21300	4.3e-06	5e-07
338	24300	5.8e-06	7e-07
338	27400	9.1e-06	1.2e-06
338	30400	1.12e-05	1.8e-06
338	33400	1.34e-05	2.1e-06
338	35500	1.51e-05	2.4e-06
348	18200	3.3e-06	4e-07
348	21300	4.6e-06	6e-07
348	24300	6.1e-06	8e-07
348	27400	1.15e-05	1.5e-06
348	30400	1.7e-05	2.3e-06
348	33400	2.03e-05	2.9e-06
348	35500	2.31e-05	3.4e-06
358	18200	2.3e-06	3e-07
358	21300	2.9e-06	4e-07
358	24300	8.6e-06	1.2e-06
358	27400	1.44e-05	1.9e-06
358	30400	2.07e-05	2.7e-06
358	33400	2.88e-05	3.9e-06
358	35500	3.4e-05	4.7e-06
