Measured thermophysical data. Solubility of Hexafluorobenzene in Aqueous Salt Solutions from (280 to 340) K
Source: J. Chem. Eng. Data, 2005, 10.1021/je049707h
Compound 1: hexafluorobenzene, C6F6, InChI=1S/C6F6/c7-1-2(8)4(10)6(12)5(11)3(1)9
Compound 2: ethylbenzene, C8H10, InChI=1S/C8H10/c1-2-8-6-4-3-5-7-8/h3-7H,2H2,1H3
Compound 3: sodium chloride, ClNa, InChI=1S/ClH.Na/h1H;/q;+1/p-1
Compound 4: sodium nitrate, NNaO3, InChI=1S/NO3.Na/c2-1(3)4;/q-1;+1
Compound 5: water, H2O, InChI=1S/H2O/h1H2

System: ethylbenzene + water; phases: Liquid mixture 1, Liquid mixture 2
Fixed: Pressure, kPa = 101
Property: Mole fraction of ethylbenzene (Liquid mixture 1); method: Chromatography
Temperature, K	Mole fraction of ethylbenzene	uncertainty
280.25	3.02e-05	1.4e-06
290.09	2.95e-05	1.4e-06
299.9	3.07e-05	1.4e-06
309.71	3.25e-05	5e-07
319.65	3.59e-05	5e-07
329.89	3.99e-05	5e-07
339.8	4.61e-05	9e-07

System: hexafluorobenzene + water; phases: Liquid mixture 1, Liquid mixture 2
Fixed: Pressure, kPa = 100
Property: Mole fraction of hexafluorobenzene (Liquid mixture 1); method: Chromatography
Temperature, K	Mole fraction of hexafluorobenzene	uncertainty
281.46	7.54e-05	1e-06
291.36	6.48e-05	9e-07
300.97	5.97e-05	7e-07
310.82	5.76e-05	9e-07
320.51	5.67e-05	1.3e-06
329.77	5.78e-05	9e-07
339.76	6.16e-05	7e-07

System: hexafluorobenzene + sodium nitrate + water; phases: Liquid mixture 1, Liquid mixture 2
Fixed: Molality, mol/kg of sodium nitrate = 0.59
Fixed: Pressure, kPa = 100
Property: Mole fraction of hexafluorobenzene (Liquid mixture 1); method: Chromatography
Temperature, K	Mole fraction of hexafluorobenzene	uncertainty
281.56	7.52e-05	8e-07
291.38	6.48e-05	6e-07
300.82	5.92e-05	7e-07
310.75	5.616e-05	4.4e-07
320.49	5.47e-05	1.1e-06
330.39	5.59e-05	4e-07
339.77	6.08e-05	9e-07

System: hexafluorobenzene + sodium chloride + water; phases: Liquid mixture 1, Liquid mixture 2
Fixed: Pressure, kPa = 100
Property: Mole fraction of hexafluorobenzene (Liquid mixture 1); method: Chromatography
Molality, mol/kg of sodium chloride	Temperature, K	Mole fraction of hexafluorobenzene	uncertainty
0.086	281.56	7.18e-05	6e-07
0.086	291.38	6.22e-05	6e-07
0.086	300.85	5.78e-05	1.1e-06
0.086	310.77	5.46e-05	6e-07
0.086	320.56	5.38e-05	6e-07
0.086	333.51	5.58e-05	6e-07
0.086	339.8	5.95e-05	6e-07
0.86	281.06	5.02e-05	5e-07
0.86	290.93	4.22e-05	5e-07
0.86	300.75	3.867e-05	3e-07
0.86	311.03	3.77e-05	5e-07
0.86	320.4	3.72e-05	5e-07
0.86	330.58	3.877e-05	3e-07
0.86	340.54	4.15e-05	4e-07
