Measured thermophysical data. Measurement of Vapor Pressures and Saturated Liquid Densities of Pure Fluids with a New Apparatus
Source: J. Chem. Eng. Data, 2005, 10.1021/je0497496
Compound 1: water, H2O, InChI=1S/H2O/h1H2, purity 99.999%
Compound 2: nitrogen, N2, InChI=1S/N2/c1-2, purity 99.999%
Compound 3: carbon dioxide, CO2, InChI=1S/CO2/c2-1-3, purity 99.995%
Compound 4: 1,1,1,2-tetrafluoroethane, C2H2F4, InChI=1S/C2H2F4/c3-1-2(4,5)6/h1H2, purity 99.95%

System: water; phases: Liquid
Property: Mass density, kg/m3 (Liquid); method: BUOYAN
Temperature, K	Pressure, kPa	Mass density, kg/m3	uncertainty
273.6201	105.711	999.859	0.282
273.6225	1225.73	1000.42	0.28
273.6273	2307.2	1001.02	0.28
273.6278	3781.58	1001.68	0.28
273.6282	4990.09	1002.27	0.28
273.6283	105.711	999.82	0.282
292.9395	4139.89	1000.06	0.28
292.9405	1063.53	998.673	0.281
292.9414	4139.91	1000.08	0.28
292.9416	2097.58	999.18	0.281
292.9428	3109.34	999.633	0.282
292.9463	109.302	998.268	0.281
302.913	110.014	995.77	0.281
302.9133	4030.11	997.451	0.281
302.9139	2049.8	996.571	0.281
302.9144	110.004	995.738	0.281
302.9185	3000.11	997.027	0.281
302.9202	1005.91	996.106	0.281
312.9597	3064.53	993.609	0.28
312.9605	345.05	992.42	0.28
312.9627	4141.2	994.071	0.28
312.9644	2093.08	993.139	0.28
312.9645	1195.12	992.749	0.28

System: nitrogen; phases: Fluid (supercritical or subcritical phases)
Property: Mass density, kg/m3 (Fluid (supercritical or subcritical phases)); method: BUOYAN
Temperature, K	Pressure, kPa	Mass density, kg/m3	uncertainty
233.0178	2000.87	29.5563	0.0262
233.0185	3001.45	44.779	0.0274
233.0207	506.321	7.36302	0.02499
233.0222	5030.21	76.3292	0.0312
233.0232	5501.02	83.7756	0.0337
233.0241	1007.11	14.7253	0.0253
233.0264	4002.56	60.2496	0.029
233.0297	506.343	7.36678	0.02499
253.3623	3010.13	40.8167	0.0262
253.3644	5651.89	77.5333	0.0307
253.3682	1025.25	13.7338	0.0245
253.3688	5051.89	69.1481	0.0293
253.3741	158.119	2.1053	0.02422
253.3771	2061.73	27.8018	0.0252
253.3791	158.087	2.10982	0.02421
253.3799	4007.14	54.5977	0.0275
273.0539	1000.43	12.3984	0.0239
273.0552	500.091	6.18538	0.02383
273.0588	4000.03	50.0451	0.0261
273.0602	500.074	6.19019	0.02383
273.0604	5000.4	62.6679	0.0275
273.0613	2000.02	24.878	0.0244
273.0615	5500.01	68.9746	0.0286
273.0621	500.065	6.18643	0.02383
273.0624	3000.08	37.4313	0.0252
293.0225	5015.12	58.0251	0.0261
293.0257	1037.05	11.9492	0.0234
293.0267	2013.97	23.2508	0.0238
293.0277	3106.16	35.9063	0.0244
293.0311	5611.3	64.8959	0.0268
293.0318	109.973	1.26716	0.02319
293.0326	3996.48	46.2267	0.0251
293.0388	109.349	1.25784	0.02319
313.1163	1999.83	21.5387	0.0233
313.1166	1000.32	10.7709	0.023
313.1175	508.112	5.46814	0.02288
313.1204	3999.91	43.0379	0.0244
313.121	508.096	5.46882	0.02288
313.1245	5000.13	53.7535	0.0252
313.1251	5499.99	59.0903	0.0258
313.1252	2999.71	32.2955	0.0238
333.1155	4001.53	40.3032	0.0238
333.1182	5029.05	50.5504	0.0245
333.1183	147.291	1.48909	0.02253
333.1196	147.34	1.48309	0.02253
333.1197	3039.03	30.6553	0.0233
333.1222	2020.62	20.4085	0.0229
333.1226	1049.02	10.6026	0.0227
333.1245	5511.3	55.3242	0.0249
353.3118	500.045	4.76148	0.02231
353.3126	4000.67	37.8636	0.0234
353.3139	500.091	4.76373	0.0223
353.3141	1001.83	9.53854	0.0224
353.3165	500.08	4.76448	0.0223
353.3175	4999.93	47.189	0.024
353.3182	5500.03	51.8318	0.0243
353.3201	3001.82	28.4762	0.023
353.3211	1999.99	19.0116	0.0226

System: carbon dioxide; phases: Liquid, Gas
Property: Vapor or sublimation pressure, kPa (Liquid); method: Closed cell (Static) method
Temperature, K	Vapor or sublimation pressure, kPa	uncertainty
233.0655	1000.72	2.42
233.0677	1000.81	2.42
243.0088	1420.4	2.97
243.0108	1420.51	2.97
253.2158	1974.16	3.92
253.2199	1974.47	3.92
263.3148	2661.57	5.13
263.3187	2661.88	5.13
273.5531	3522.07	6.61
273.5565	3522.39	6.61
283.5116	4543.19	8.36
283.5154	4543.58	8.36
293.0826	5720.9	10.14
293.0862	5721.42	10.15

System: carbon dioxide; phases: Liquid, Gas
Property: Mass density, kg/m3 (Liquid); method: BUOYAN
Temperature, K	Mass density, kg/m3	uncertainty
233.0655	1116.54	0.35
233.0677	1116.44	0.35
243.0088	1076.52	0.35
243.0108	1076.52	0.35
253.2158	1031.59	0.35
253.2199	1031.49	0.35
263.3148	981.93	0.35
263.3187	981.93	0.35
273.5531	924.89	0.36
273.5565	924.87	0.36
283.5116	858.57	0.39
283.5154	858.55	0.39
293.0826	774.28	0.41
293.0862	774.23	0.41

System: carbon dioxide; phases: Fluid (supercritical or subcritical phases)
Property: Mass density, kg/m3 (Fluid (supercritical or subcritical phases)); method: BUOYAN
Temperature, K	Pressure, kPa	Mass density, kg/m3	uncertainty
233.0592	799.976	20.1488	0.0341
233.0646	500.054	12.0703	0.0333
233.0684	105.905	2.43371	0.03119
233.0691	105.905	2.42701	0.03122
233.0714	300.075	7.05798	0.03177
243.005	1000.69	24.4253	0.035
243.0091	1200.74	30.1422	0.0357
243.0104	500.042	11.476	0.032
243.0104	800	19.0248	0.0331
243.0144	300.031	6.73594	0.0307
243.0161	100.019	2.20055	0.03032
253.2136	500.061	10.9367	0.031
253.2147	1500.74	36.7146	0.0369
253.2181	1800.88	45.9785	0.0398
253.2185	100.071	2.116	0.02987
253.2189	1000.13	23.0281	0.0333
253.2207	100.077	2.11111	0.02987
263.3135	1000.62	21.8592	0.0319
263.319	2200.18	55.0401	0.0416
263.3196	500.075	10.4541	0.03
263.3201	1500.14	34.4562	0.0346
263.3217	2499.99	65.4007	0.0459
263.325	2000.2	48.7144	0.0387
263.3267	100.028	2.02538	0.02914
273.5559	3401.16	93.2811	0.0549
273.5562	3200.53	84.7746	0.0534
273.5598	2500.64	60.111	0.0422
273.5598	3000.02	77.0441	0.0494
273.5605	500.008	10.0139	0.0292
273.5612	100.016	1.95635	0.02849
273.5624	100.007	1.94808	0.02849
273.5628	2000.3	45.5031	0.0353
273.5635	1000	20.7952	0.0317
283.5105	4000.75	107.963	0.071
283.5136	3000.35	70.8325	0.0452
283.5165	4200.91	117.472	0.073
283.5172	2000.01	42.914	0.0344
283.5204	100.061	1.8788	0.02839
283.5229	999.976	19.8874	0.03
293.0801	4000.17	97.5691	0.0539
293.0801	5501.34	173.325	0.141
293.0805	5000.17	140.798	0.08
293.0806	3000.38	66.2045	0.0376
293.0808	100.159	1.8183	0.02783
293.0824	2000	40.7832	0.0318
293.0829	100.152	1.81243	0.02783
293.0885	1000.17	19.1053	0.029

System: 1,1,1,2-tetrafluoroethane; phases: Liquid, Gas
Property: Vapor or sublimation pressure, kPa (Liquid); method: Closed cell (Static) method
Temperature, K	Vapor or sublimation pressure, kPa	uncertainty
253.1258	133.58	1.054
253.1274	133.6	1.054
262.9936	200.467	1.09
262.9989	200.48	1.09
273.3121	295.5	1.167
273.3143	295.502	1.167
283.1641	415.708	1.29
283.1652	415.71	1.29
293.2158	571.94	1.473
293.2182	571.983	1.473
303.2524	771.666	1.734
303.2568	771.76	1.734
313.1753	1018.09	2.07
313.1772	1018.15	2.07
323.1935	1319.76	2.51
323.1968	1319.87	2.51
333.1638	1682.95	3.06
333.1672	1683.15	3.06
343.0318	2110.59	3.79
343.0372	2110.88	3.79
353.1622	2633.57	4.67
353.1648	2633.73	4.67
363.1745	3245.32	5.6
363.1779	3245.53	5.6

System: 1,1,1,2-tetrafluoroethane; phases: Liquid, Gas
Property: Mass density, kg/m3 (Liquid); method: BUOYAN
Temperature, K	Mass density, kg/m3	uncertainty
253.1258	1358.69	0.4
253.1274	1358.7	0.4
262.9936	1327.33	0.4
262.9989	1327.31	0.4
273.3121	1293.96	0.39
273.3143	1293.96	0.39
283.1641	1260.66	0.38
283.1652	1260.67	0.38
293.2158	1225.34	0.38
293.2182	1225.33	0.38
303.2524	1187.23	0.37
303.2568	1187.22	0.37
313.1753	1146.44	0.37
313.1772	1146.44	0.37
323.1935	1102.35	0.36
323.1968	1102.34	0.36
333.1638	1052.61	0.37
333.1672	1052.6	0.37
343.0318	997.103	0.376
343.0372	997.091	0.376
353.1622	928.313	0.411
353.1648	928.306	0.411
363.1745	837.765	0.433
363.1779	837.734	0.433

System: 1,1,1,2-tetrafluoroethane; phases: Fluid (supercritical or subcritical phases)
Property: Mass density, kg/m3 (Fluid (supercritical or subcritical phases)); method: BUOYAN
Temperature, K	Pressure, kPa	Mass density, kg/m3	uncertainty
262.9848	30.035	1.41703	0.05191
262.9861	30.025	1.41553	0.05196
262.9873	30.018	1.41816	0.05182
262.9885	50.031	2.37378	0.05238
262.9907	80.084	3.83561	0.05297
262.9916	100.091	4.82696	0.05451
262.9949	150.056	7.37304	0.05484
273.3099	50.001	2.27757	0.051
273.3108	100.006	4.6218	0.05168
273.3121	50.001	2.2813	0.0509
273.3127	150.013	7.03559	0.05279
273.3135	200.005	9.53172	0.05498
273.3157	250.002	12.1179	0.0556
283.1601	100.092	4.4428	0.051
283.1611	300.082	14.1052	0.0545
283.1631	200.016	9.12611	0.05239
283.1659	100.097	4.44579	0.05095
283.1691	350.918	16.7525	0.056
293.2068	399.977	18.4354	0.0555
293.21	500.024	23.7422	0.0571
293.2175	200.052	8.76202	0.05021
293.2184	300.017	13.4608	0.0525
293.2188	200.054	8.75976	0.05021
293.219	100.047	4.27783	0.04914
293.2195	100.049	4.27519	0.04915
303.2511	100.02	4.1211	0.0483
303.2538	100.015	4.12406	0.04828
303.256	299.987	12.8979	0.0504
303.2561	499.91	22.542	0.0555
303.2599	711.405	34.0053	0.0585
313.1704	902.113	42.8957	0.0625
313.1714	100.018	3.98495	0.04591
313.1716	100.017	3.98345	0.04591
313.1718	600.214	26.4214	0.0546
313.1749	200.042	8.11408	0.04758
313.1753	800.409	37.0004	0.0589
313.1791	400.013	16.8674	0.0502
323.1888	940.009	42.4962	0.0635
323.1911	100.019	3.85767	0.04516
323.1914	100.018	3.85694	0.04516
323.1924	1271.13	62.9174	0.0678
323.194	500.003	20.6111	0.0509
323.1965	802.367	35.149	0.0541
323.1998	300.002	11.9392	0.0466
333.1621	303.786	11.6786	0.0451
333.1635	101.53	3.7964	0.04397
333.1649	1500.02	73.4336	0.0725
333.1655	1009.38	43.8443	0.0588
333.1688	101.534	3.79264	0.04398
333.1699	801.134	33.4094	0.0517
333.1701	502.699	19.9182	0.0485
333.1702	1300.42	60.3214	0.0658
343.0321	136.282	4.96602	0.04284
343.0321	1500.01	68.2379	0.068
343.0331	1704.5	81.5238	0.075
343.0358	136.713	4.97127	0.04285
343.0368	303.782	11.2865	0.044
343.0368	1093.79	45.8644	0.0548
343.0377	520.698	19.9261	0.0469
343.0385	1300.41	56.7069	0.0606
343.0401	1900.24	96.118	0.0868
343.0407	849.113	34.1538	0.0499
353.1584	136.718	4.81465	0.04254
353.1598	2200.48	110.087	0.0928
353.1612	500.972	18.447	0.0452
353.1629	2000.33	94.8889	0.0779
353.1668	1508.77	64.532	0.0615
353.1673	2408.14	128.8208	0.1133
353.1687	1000.39	39.3925	0.0516
363.1695	1001.09	37.7848	0.0478
363.1723	500.498	17.8052	0.0436
363.1731	153.673	5.26494	0.04141
363.1745	3101.34	188.7579	0.19
363.1751	2800.41	150.1576	0.1281
363.1759	2003.19	88.1709	0.0694
363.1768	1500.84	60.7126	0.0554
363.1779	3002.13	174.0852	0.1586
363.1793	2500.42	122.7313	0.0945
