Measured thermophysical data. Density, Refractive Index, Speed of Sound, and Vapor-Liquid Equilibria for Binary Mixtures of Methanol + Vinyl Propionate and Vinyl Acetate + Vinyl Propionate. Vapor Pressures of Vinyl Propionate
Source: J. Chem. Eng. Data, 2005, 10.1021/je049909d
Compound 1: methanol, CH4O, InChI=1S/CH4O/c1-2/h2H,1H3, purity 99.8%
Compound 2: vinyl acetate, C4H6O2, InChI=1S/C4H6O2/c1-3-6-4(2)5/h3H,1H2,2H3, purity 99%
Compound 3: vinyl propanoate, C5H8O2, InChI=1S/C5H8O2/c1-3-5(6)7-4-2/h4H,2-3H2,1H3, purity 99%

System: methanol; phases: Liquid
Property: Refractive index (Na D-line) (Liquid); method: Standard Abbe refractometry
Temperature, K	Pressure, kPa	Refractive index (Na D-line)	uncertainty
298.15	101.325	1.32634	0.00072

System: methanol; phases: Liquid
Property: Mass density, kg/m3 (Liquid); method: VIBTUB:UFactor:2
Temperature, K	Pressure, kPa	Mass density, kg/m3	uncertainty
298.15	101.325	786.56	0.31

System: methanol; phases: Liquid, Gas
Property: Vapor or sublimation pressure, kPa (Liquid); method: EBULLIO:UFactor:4
Temperature, K	Vapor or sublimation pressure, kPa	uncertainty
337.9	101.3	1

System: methanol; phases: Liquid
Property: Speed of sound, m/s (Liquid); method: Sing-around technique in a fixed-path interferometer
Temperature, K	Pressure, kPa	Speed of sound, m/s	uncertainty
298.15	101.325	1101.8	0.9

System: vinyl acetate; phases: Liquid
Property: Refractive index (Na D-line) (Liquid); method: Standard Abbe refractometry
Temperature, K	Pressure, kPa	Refractive index (Na D-line)	uncertainty
298.15	101.325	1.39253	0.00073

System: vinyl acetate; phases: Liquid
Property: Mass density, kg/m3 (Liquid); method: VIBTUB:UFactor:2
Temperature, K	Pressure, kPa	Mass density, kg/m3	uncertainty
298.15	101.325	925.59	0.25

System: vinyl acetate; phases: Liquid, Gas
Property: Vapor or sublimation pressure, kPa (Liquid); method: EBULLIO:UFactor:4
Temperature, K	Vapor or sublimation pressure, kPa	uncertainty
346.1	101.3	1

System: vinyl acetate; phases: Liquid
Property: Speed of sound, m/s (Liquid); method: Sing-around technique in a fixed-path interferometer
Temperature, K	Pressure, kPa	Speed of sound, m/s	uncertainty
298.15	101.325	1115.6	1

System: vinyl propanoate; phases: Liquid
Property: Refractive index (Na D-line) (Liquid); method: Standard Abbe refractometry
Temperature, K	Pressure, kPa	Refractive index (Na D-line)	uncertainty
298.15	101.325	1.40153	0.00073

System: vinyl propanoate; phases: Liquid
Property: Mass density, kg/m3 (Liquid); method: VIBTUB:UFactor:2
Temperature, K	Pressure, kPa	Mass density, kg/m3	uncertainty
298.15	101.325	909.69	0.26

System: vinyl propanoate; phases: Liquid, Gas
Property: Vapor or sublimation pressure, kPa (Liquid); method: Ebulliometric method (Recirculating still)
Temperature, K	Vapor or sublimation pressure, kPa	uncertainty
320.7	17.5	0.2
325.3	21.5	0.2
329.4	25.5	0.2
333	29.5	0.3
336.3	33.5	0.3
339.3	37.5	0.3
341.9	41.5	0.3
344.4	45.5	0.3
346.8	49.5	0.4
348.9	53.5	0.4
350.9	57.5	0.4
352.8	61.5	0.4
354.7	65.5	0.5
356.3	69.5	0.5
358	73.5	0.5
359.6	77.5	0.5
361.1	81.5	0.5
362.6	85.5	0.6
364	89.5	0.6
365.4	93.5	0.6
366.7	97.5	0.6
368	101.3	1
368.1	101.3	1

System: vinyl propanoate; phases: Liquid
Property: Speed of sound, m/s (Liquid); method: Sing-around technique in a fixed-path interferometer
Temperature, K	Pressure, kPa	Speed of sound, m/s	uncertainty
298.15	101.325	1133.9	1

System: methanol + vinyl propanoate; phases: Liquid
Fixed: Pressure, kPa = 101.3
Fixed: Temperature, K = 298.15
Property: Refractive index (Na D-line) (Liquid); method: Standard Abbe refractometry
Mole fraction of methanol	Refractive index (Na D-line)	uncertainty
0.05	1.40022	0.00073
0.101	1.39881	0.00073
0.168	1.3968	0.00072
0.198	1.39573	0.00072
0.242	1.39416	0.00072
0.311	1.39141	0.00072
0.337	1.39039	0.00072
0.39	1.38789	0.00072
0.452	1.38474	0.00072
0.526	1.38044	0.00072
0.547	1.37911	0.00072
0.597	1.37583	0.00072
0.657	1.37115	0.00072
0.708	1.36685	0.00072
0.748	1.36283	0.00072
0.8	1.35725	0.00072
0.85	1.3512	0.00072
0.899	1.34444	0.00072
0.949	1.33649	0.00072

System: methanol + vinyl propanoate; phases: Liquid
Fixed: Pressure, kPa = 101.3
Fixed: Temperature, K = 298.15
Property: Speed of sound, m/s (Liquid); method: Sing-around technique in a fixed-path interferometer
Mole fraction of methanol	Speed of sound, m/s	uncertainty
0.05	1132.9	1
0.101	1131.7	1
0.168	1130.2	1
0.198	1129.5	1
0.242	1128.4	1
0.311	1126.7	1
0.337	1126	1
0.39	1124.6	1
0.452	1122.8	1
0.526	1120.5	1
0.547	1119.8	1
0.597	1118	1
0.657	1115.9	0.9
0.708	1114.1	0.9
0.748	1112.6	0.9
0.8	1110.7	0.9
0.85	1108.7	0.9
0.899	1106.5	0.9
0.949	1104.9	0.9

System: methanol + vinyl propanoate; phases: Liquid, Gas
Fixed: Pressure, kPa = 101.3
Property: Boiling temperature at pressure P, K (Liquid); method: EBULLIO:UFactor:4
Mole fraction of methanol	Boiling temperature at pressure P, K	uncertainty
0	368.1	0.2
0.054	359.2	0.4
0.082	355.3	0.3
0.132	349.9	0.3
0.185	346	0.2
0.23	343.8	0.2
0.262	342.8	0.2
0.275	342.4	0.2
0.322	341.1	0.2
0.418	339.8	0.2
0.512	338.7	0.2
0.586	337.9	0.2
0.678	337.4	0.2
0.746	337.1	0.2
0.792	336.9	0.2
0.839	336.7	0.2
0.886	336.9	0.2
0.941	337.1	0.2
0.974	337.4	0.2
0.986	337.6	0.2
1	337.9	0.2

System: methanol + vinyl propanoate; phases: Liquid
Fixed: Pressure, kPa = 101.3
Fixed: Temperature, K = 298.15
Property: Mass density, kg/m3 (Liquid); method: VIBTUB:UFactor:2
Mole fraction of methanol	Mass density, kg/m3	uncertainty
0.05	907.45	0.25
0.101	905	0.25
0.168	901.52	0.25
0.198	899.81	0.25
0.242	897.25	0.25
0.311	892.66	0.25
0.337	890.92	0.25
0.39	886.94	0.25
0.452	881.8	0.25
0.526	874.78	0.25
0.547	872.66	0.25
0.597	867.2	0.26
0.657	859.7	0.26
0.708	852.65	0.26
0.748	846.29	0.27
0.8	837.26	0.27
0.85	827.36	0.28
0.899	816.21	0.28
0.949	803.01	0.29

System: methanol + vinyl propanoate; phases: Gas, Liquid
Fixed: Pressure, kPa = 101.3
Property: Mole fraction of methanol (Gas); method: RIXVDN
Mole fraction of methanol	Mole fraction of methanol	uncertainty
0	0	0.001
0.054	0.27	0.009
0.082	0.343	0.005
0.132	0.458	0.005
0.185	0.544	0.004
0.23	0.594	0.003
0.262	0.623	0.003
0.275	0.629	0.003
0.322	0.665	0.002
0.418	0.7	0.002
0.512	0.733	0.002
0.586	0.747	0.002
0.678	0.77	0.002
0.746	0.795	0.002
0.792	0.812	0.002
0.839	0.832	0.002
0.886	0.862	0.003
0.941	0.912	0.003
0.974	0.953	0.003
0.986	0.972	0.004
1	1	0.001

System: vinyl propanoate + vinyl acetate; phases: Liquid
Fixed: Pressure, kPa = 101.3
Fixed: Temperature, K = 298.15
Property: Refractive index (Na D-line) (Liquid); method: Standard Abbe refractometry
Mole fraction of vinyl acetate	Refractive index (Na D-line)	uncertainty
0.05	1.40114	0.00073
0.102	1.4007	0.00073
0.167	1.40017	0.00073
0.207	1.39986	0.00073
0.264	1.39937	0.00073
0.297	1.39906	0.00073
0.354	1.3985	0.00073
0.403	1.39817	0.00073
0.466	1.39762	0.00073
0.504	1.3973	0.00073
0.545	1.3969	0.00073
0.601	1.3964	0.00073
0.65	1.39591	0.00073
0.696	1.39554	0.00073
0.753	1.39493	0.00073
0.8	1.39456	0.00073
0.839	1.3941	0.00073
0.901	1.39358	0.00073
0.955	1.39295	0.00073

System: vinyl propanoate + vinyl acetate; phases: Liquid
Fixed: Pressure, kPa = 101.3
Fixed: Temperature, K = 298.15
Property: Speed of sound, m/s (Liquid); method: Sing-around technique in a fixed-path interferometer
Mole fraction of vinyl acetate	Speed of sound, m/s	uncertainty
0.05	1132.8	1
0.102	1131.8	1
0.167	1130.5	1
0.207	1129.7	1
0.264	1128.6	1
0.297	1128	1
0.354	1126.9	1
0.403	1126	1
0.466	1124.9	1
0.504	1124.2	1
0.545	1123.4	1
0.601	1122.4	1
0.65	1121.6	1
0.696	1120.8	1
0.753	1119.8	1
0.8	1119	1
0.839	1118.3	1
0.901	1117.2	1
0.955	1116.3	1

System: vinyl propanoate + vinyl acetate; phases: Liquid, Gas
Fixed: Pressure, kPa = 101.3
Property: Boiling temperature at pressure P, K (Liquid); method: EBULLIO:UFactor:4
Mole fraction of vinyl acetate	Boiling temperature at pressure P, K	uncertainty
0	368.1	0.2
0.058	366.9	0.2
0.085	366.1	0.2
0.11	365.4	0.2
0.15	364.2	0.2
0.22	362.3	0.2
0.295	360.1	0.2
0.328	359.3	0.2
0.359	358.5	0.2
0.405	357.4	0.2
0.502	355.2	0.2
0.53	354.7	0.2
0.594	353.3	0.2
0.779	349.8	0.2
0.828	348.9	0.2
0.868	348.2	0.2
0.91	347.4	0.2
0.971	346.4	0.2
1	346.1	0.2

System: vinyl propanoate + vinyl acetate; phases: Liquid
Fixed: Pressure, kPa = 101.3
Fixed: Temperature, K = 298.15
Property: Mass density, kg/m3 (Liquid); method: VIBTUB:UFactor:2
Mole fraction of vinyl acetate	Mass density, kg/m3	uncertainty
0.05	910.31	0.25
0.102	911.01	0.25
0.167	911.87	0.25
0.207	912.4	0.25
0.264	913.2	0.25
0.297	913.66	0.25
0.354	914.5	0.25
0.403	915.25	0.25
0.466	916.22	0.25
0.504	916.8	0.25
0.545	917.48	0.25
0.601	918.39	0.25
0.65	919.18	0.25
0.696	919.96	0.25
0.753	920.95	0.25
0.8	921.79	0.25
0.839	922.51	0.25
0.901	923.67	0.25
0.955	924.72	0.25

System: vinyl propanoate + vinyl acetate; phases: Gas, Liquid
Fixed: Pressure, kPa = 101.3
Property: Mole fraction of vinyl acetate (Gas); method: RIXVDN
Mole fraction of vinyl acetate	Mole fraction of vinyl acetate	uncertainty
0	0	0.001
0.058	0.068	0.003
0.085	0.1	0.003
0.11	0.132	0.004
0.15	0.203	0.004
0.22	0.318	0.004
0.295	0.45	0.004
0.328	0.495	0.004
0.359	0.536	0.003
0.405	0.586	0.003
0.502	0.679	0.003
0.53	0.705	0.003
0.594	0.758	0.003
0.779	0.885	0.003
0.828	0.915	0.002
0.868	0.94	0.002
0.91	0.965	0.002
0.971	0.991	0.002
1	1	0.001
