Measured thermophysical data. Saturation Composition and Density Data for the Sodium Sulfate + Sulfuric Acid + Methanol System
Source: J. Chem. Eng. Data, 2005, 10.1021/je049712l
Compound 1: sodium sulfate, Na2O4S, InChI=1S/2Na.H2O4S/c;;1-5(2,3)4/h;;(H2,1,2,3,4)/q2*+1;/p-2
Compound 2: sulfuric acid, H2O4S, InChI=1S/H2O4S/c1-5(2,3)4/h(H2,1,2,3,4)
Compound 3: methanol, CH4O, InChI=1S/CH4O/c1-2/h2H,1H3

System: methanol; phases: Liquid
Fixed: Pressure, kPa = 101.325
Property: Mass density, kg/m3 (Liquid); method: Vibrating tube method
Temperature, K	Mass density, kg/m3	uncertainty
273	800	24
298	787	24
303	786	24
313	779	24
323	768	24

System: methanol + sodium sulfate; phases: Liquid, Crystal
Fixed: Pressure, kPa = 101.3
Property: Mass ratio of solute to solvent (Liquid); method: wet residue method
Temperature, K	Mass ratio of solute to solvent	uncertainty
273	0.01	0.01
298	0.017	0.002
303	0.018	0.002
313	0.02	0.01
323	0.019	0.002

System: methanol + sodium sulfate; phases: Liquid, Crystal
Fixed: Pressure, kPa = 101.3
Property: Mass density, kg/m3 (Liquid); method: Vibrating tube method
Temperature, K	Mass density, kg/m3	uncertainty
273	807	24
298	810	24
303	797	24
313	781	24
323	776	24

System: methanol + sulfuric acid + sodium sulfate; phases: Liquid, Crystal
Fixed: Pressure, kPa = 101.3
Property: Mass ratio of solute to solvent of sodium sulfate (Liquid); method: wet residue method
Temperature, K	Solvent: Mass ratio of component to other component of binary solvent of methanol	Mass ratio of solute to solvent of sodium sulfate	uncertainty
273	0	0.18	0.02
273	0.2	0.11	0.01
273	0.3	0.09	0.009
273	0.4	0.08	0.008
273	0.5	0.07	0.007
273	0.6	0.065	0.007
273	0.7	0.05	0.005
273	0.8	0.037	0.004
273	0.9	0.03	0.003
273	1	0.02	0.002
298	0	0.4	0.04
298	0.2	0.29	0.03
298	0.3	0.2	0.02
298	0.4	0.155	0.016
298	0.5	0.13	0.01
298	0.6	0.09	0.009
298	0.7	0.07	0.01
298	0.8	0.05	0.01
298	0.9	0.04	0.01
298	1	0.035	0.004
303	0	0.44	0.04
303	0.2	0.32	0.03
303	0.3	0.25	0.03
303	0.4	0.22	0.02
303	0.5	0.17	0.02
303	0.6	0.125	0.013
303	0.7	0.1	0.01
303	0.8	0.08	0.01
303	0.9	0.055	0.006
303	1	0.045	0.005
313	0	0.48	0.05
313	0.2	0.35	0.04
313	0.3	0.278	0.028
313	0.4	0.252	0.025
313	0.5	0.2	0.02
313	0.6	0.169	0.017
313	0.7	0.123	0.012
313	0.8	0.092	0.009
313	0.9	0.07	0.007
313	1	0.06	0.006
323	0	0.42	0.04
323	0.2	0.304	0.03
323	0.3	0.248	0.025
323	0.4	0.205	0.021
323	0.5	0.17	0.02
323	0.6	0.13	0.01
323	0.7	0.098	0.01
323	0.8	0.073	0.007
323	0.9	0.053	0.005
323	1	0.04	0.01

System: methanol + sulfuric acid + sodium sulfate; phases: Liquid, Crystal
Fixed: Pressure, kPa = 101.3
Property: Mass density, kg/m3 (Liquid); method: Vibrating tube method
Temperature, K	Solvent: Mass ratio of component to other component of binary solvent of methanol	Mass density, kg/m3	uncertainty
273	0	1251	24
273	0.2	1165	24
273	0.3	1105	24
273	0.4	1079	24
273	0.5	1057	24
273	0.6	1038	24
273	0.7	1021	24
273	0.8	1006	24
273	0.9	995	24
273	1	976	24
298	0	1451	24
298	0.2	1321	24
298	0.3	1278	24
298	0.4	1231	24
298	0.5	1182	24
298	0.6	1095	24
298	0.7	1067	24
298	0.8	1015	24
298	0.9	1001	24
298	1	986	24
303	0	1567	24
303	0.2	1365	24
303	0.3	1301	24
303	0.4	1293	24
303	0.5	1258	24
303	0.6	1223	24
303	0.7	1121	24
303	0.8	1087	24
303	0.9	1025	24
303	1	1010	24
313	0	1673	24
313	0.2	1464	24
313	0.3	1333	24
313	0.4	1306	24
313	0.5	1287	24
313	0.6	1253	24
313	0.7	1220	24
313	0.8	1106	24
313	0.9	1068	24
313	1	1028	24
323	0	1502	24
323	0.2	1347	24
323	0.3	1300	24
323	0.4	1290	24
323	0.5	1256	24
323	0.6	1245	24
323	0.7	1118	24
323	0.8	1076	24
323	0.9	1024	24
323	1	987	24
