Measured thermophysical data. PVTx Measurements for the R116 + CO2 and R41 + CO2 Systems. New Isochoric Apparatus
Source: J. Chem. Eng. Data, 2005, 10.1021/je049939g
Compound 1: fluoromethane, CH3F, InChI=1S/CH3F/c1-2/h1H3, purity 99.99%
Compound 2: carbon dioxide, CO2, InChI=1S/CO2/c2-1-3, purity 99.7%
Compound 3: hexafluoroethane, C2F6, InChI=1S/C2F6/c3-1(4,5)2(6,7)8, purity 99.9%

System: hexafluoroethane + carbon dioxide; phases: Gas
Property: Molar volume, m3/mol (Gas); method: ISOCHOR
Temperature, K	Pressure, kPa	Mole fraction of hexafluoroethane	Molar volume, m3/mol	uncertainty
247.6	1289.7	0.6396	0.001189	2e-06
247.63	1095.9	0.7702	0.001432	3e-06
252.66	1670.6	0.5019	0.000933	2e-06
252.69	1811.7	0.3964	0.000824	2e-06
252.71	1155.5	0.7702	0.001432	3e-06
252.72	1362.7	0.6396	0.001189	2e-06
257.83	1200.3	0.7702	0.001433	3e-06
262.82	1805.9	0.5019	0.000934	2e-06
262.88	1237.3	0.7702	0.001433	3e-06
262.88	1465.1	0.6396	0.00119	2e-06
262.88	2841.3	0.2022	0.00042	1e-06
262.89	2002.6	0.3964	0.000824	2e-06
272.9	1309.5	0.7702	0.001434	3e-06
273.03	1923.8	0.5019	0.000934	2e-06
273.09	1554.9	0.6396	0.001191	2e-06
273.09	2159.2	0.3964	0.000824	2e-06
273.1	3451.2	0.2022	0.00042	1e-06
282.98	2035.7	0.5019	0.000935	2e-06
283	1640.6	0.6396	0.001191	2e-06
283.34	2292.1	0.3964	0.000825	2e-06
283.34	3746	0.2022	0.000421	1e-06
283.35	1383.5	0.7702	0.001434	3e-06
294.5	2163.5	0.5019	0.000935	2e-06
294.51	1737.4	0.6396	0.001192	2e-06
294.51	2429.4	0.3964	0.000825	2e-06
294.58	1461.6	0.7702	0.001435	3e-06
295.56	4081.4	0.2022	0.000421	1e-06
303.67	2263.1	0.5019	0.000935	2e-06
303.67	2548.2	0.3964	0.000825	2e-06
303.71	1815.9	0.6396	0.001192	2e-06
303.72	1524.3	0.7702	0.001436	3e-06
303.73	4301.8	0.2022	0.000421	1e-06
313.82	2371.9	0.5019	0.000936	2e-06
313.88	1900.1	0.6396	0.001193	2e-06
313.89	2673.6	0.3964	0.000826	2e-06
313.9	1593.4	0.7702	0.001436	3e-06
313.9	4571.4	0.2022	0.000421	1e-06
324.14	2481.6	0.5019	0.000936	2e-06
324.15	1983.2	0.6396	0.001193	2e-06
324.15	4835.3	0.2022	0.000421	1e-06
324.16	1662.5	0.7702	0.001437	3e-06
324.16	2798.4	0.3964	0.000826	2e-06
334.34	2590.1	0.5019	0.000937	2e-06
334.35	2066	0.6396	0.001194	2e-06
334.35	2922.1	0.3964	0.000827	2e-06
334.36	1730.8	0.7702	0.001437	3e-06
334.36	5100	0.2022	0.000422	1e-06
344.53	2695.7	0.5019	0.000937	2e-06
344.56	1798.4	0.7702	0.001438	3e-06
344.56	2148.3	0.6396	0.001194	2e-06
344.56	3042.9	0.3964	0.000827	2e-06
344.56	5358.2	0.2022	0.000422	1e-06
354.75	2801.7	0.5019	0.000937	2e-06
354.75	3163.6	0.3964	0.000827	2e-06
354.76	1865.8	0.7702	0.001439	3e-06
354.76	2230	0.6396	0.001195	2e-06
354.77	5614	0.2022	0.000422	1e-06

System: carbon dioxide + fluoromethane; phases: Gas
Property: Molar volume, m3/mol (Gas); method: ISOCHOR
Temperature, K	Pressure, kPa	Mole fraction of fluoromethane	Molar volume, m3/mol	uncertainty
262.96	2084.7	0.2431	0.000804	2e-06
273.12	2243.3	0.2431	0.000804	2e-06
283.37	2378.2	0.2431	0.000804	2e-06
293.52	3752	0.5034	0.000437	1e-06
293.53	4400.8	0.3919	0.000336	1e-06
298.59	4144.1	0.6199	0.000375	1e-06
298.6	3859.1	0.792	0.000397	1e-06
298.63	2572.6	0.2431	0.000805	2e-06
298.64	4625.1	0.3919	0.000336	1e-06
303.68	4029.2	0.5034	0.000437	1e-06
303.69	4313.3	0.6199	0.000375	1e-06
303.72	4817.1	0.3919	0.000336	1e-06
308.75	5003.5	0.3919	0.000336	1e-06
308.77	4175.6	0.792	0.000397	1e-06
308.81	2699	0.2431	0.000805	2e-06
313.36	4648	0.6199	0.000375	1e-06
313.85	4299.9	0.5034	0.000437	1e-06
313.92	5191.6	0.3919	0.000336	1e-06
318.96	5372	0.3919	0.000336	1e-06
318.99	2823.7	0.2431	0.000806	2e-06
319.06	4486	0.792	0.000397	1e-06
324.14	4567.5	0.5034	0.000437	1e-06
324.16	4971.9	0.6199	0.000375	1e-06
324.16	5556.4	0.3919	0.000336	1e-06
329.26	2947.8	0.2431	0.000806	2e-06
329.26	4785.6	0.792	0.000398	1e-06
329.26	5734.8	0.3919	0.000337	1e-06
334.33	4825.7	0.5034	0.000438	1e-06
334.36	5287.4	0.6199	0.000375	1e-06
334.37	5911.5	0.3919	0.000337	1e-06
339.46	3069.5	0.2431	0.000806	2e-06
339.46	5078.7	0.792	0.000398	1e-06
344.56	5080.8	0.5034	0.000438	1e-06
344.57	5596.5	0.6199	0.000375	1e-06
349.67	5366.9	0.792	0.000398	1e-06
354.75	5330.9	0.5034	0.000438	1e-06
354.77	5900.8	0.6199	0.000376	1e-06
359.87	5650	0.792	0.000398	1e-06
359.87	6050.9	0.6199	0.000376	1e-06
