Measured thermophysical data. Vapor-Liquid Equilibrium and Mixing Properties of Methanol + Diethyl Carbonate and Vinyl Acetate + Diethyl Carbonate Systems
Source: J. Chem. Eng. Data, 2005, 10.1021/je049544x
Compound 1: methanol, CH4O, InChI=1S/CH4O/c1-2/h2H,1H3, purity 99.8%
Compound 2: diethyl carbonate, C5H10O3, InChI=1S/C5H10O3/c1-3-7-5(6)8-4-2/h3-4H2,1-2H3, purity 99.8%
Compound 3: vinyl acetate, C4H6O2, InChI=1S/C4H6O2/c1-3-6-4(2)5/h3H,1H2,2H3, purity 99%

System: methanol; phases: Liquid, Gas
Property: Vapor or sublimation pressure, kPa (Liquid); method: EBULLIO:UFactor:16
Temperature, K	Vapor or sublimation pressure, kPa	uncertainty
337.9	101.3	0.3

System: methanol; phases: Liquid
Property: Refractive index (Na D-line) (Liquid); method: Standard Abbe refractometry
Temperature, K	Pressure, kPa	Refractive index (Na D-line)	uncertainty
298.15	101.325	1.32634	0.00072

System: methanol; phases: Liquid
Property: Speed of sound, m/s (Liquid); method: Sing-around technique in a fixed-path interferometer
Temperature, K	Pressure, kPa	Speed of sound, m/s	uncertainty
298.15	101.3	1101.8	1.2

System: methanol; phases: Liquid
Property: Mass density, kg/m3 (Liquid); method: VIBTUB::UFactor:4
Temperature, K	Pressure, kPa	Mass density, kg/m3	uncertainty
298.15	101.3	786.56	0.6

System: diethyl carbonate; phases: Liquid, Gas
Property: Vapor or sublimation pressure, kPa (Liquid); method: EBULLIO:UFactor:16
Temperature, K	Vapor or sublimation pressure, kPa	uncertainty
399.6	101.3	0.3

System: diethyl carbonate; phases: Liquid
Property: Refractive index (Na D-line) (Liquid); method: Standard Abbe refractometry
Temperature, K	Pressure, kPa	Refractive index (Na D-line)	uncertainty
298.15	101.325	1.38221	0.00072

System: diethyl carbonate; phases: Liquid
Property: Speed of sound, m/s (Liquid); method: Sing-around technique in a fixed-path interferometer
Temperature, K	Pressure, kPa	Speed of sound, m/s	uncertainty
298.15	101.3	1176.1	1.2

System: diethyl carbonate; phases: Liquid
Property: Mass density, kg/m3 (Liquid); method: VIBTUB:UFactor:4
Temperature, K	Pressure, kPa	Mass density, kg/m3	uncertainty
298.15	101.3	969	0.25

System: vinyl acetate; phases: Liquid, Gas
Property: Vapor or sublimation pressure, kPa (Liquid); method: EBULLIO:UFactor:24
Temperature, K	Vapor or sublimation pressure, kPa	uncertainty
346.1	101.3	0.4

System: vinyl acetate; phases: Liquid
Property: Refractive index (Na D-line) (Liquid); method: Standard Abbe refractometry
Temperature, K	Pressure, kPa	Refractive index (Na D-line)	uncertainty
298.15	101.325	1.39253	0.00073

System: vinyl acetate; phases: Liquid
Property: Speed of sound, m/s (Liquid); method: Sing-around technique in a fixed-path interferometer
Temperature, K	Pressure, kPa	Speed of sound, m/s	uncertainty
298.15	101.3	1115.6	1.2

System: vinyl acetate; phases: Liquid
Property: Mass density, kg/m3 (Liquid); method: VIBTUB::UFactor:4
Temperature, K	Pressure, kPa	Mass density, kg/m3	uncertainty
298.15	101.3	925.59	0.37

System: methanol + diethyl carbonate; phases: Liquid
Fixed: Temperature, K = 298.15
Fixed: Pressure, kPa = 101.3
Property: Refractive index (Na D-line) (Liquid); method: Standard Abbe refractometry
Mole fraction of methanol	Refractive index (Na D-line)	uncertainty
0	1.38221	0.00072
0.063	1.38098	0.00072
0.098	1.38026	0.00072
0.159	1.37901	0.00072
0.192	1.37825	0.00072
0.251	1.3769	0.00072
0.302	1.37563	0.00072
0.371	1.37345	0.00072
0.415	1.37205	0.00072
0.453	1.3705	0.00072
0.49	1.36915	0.00072
0.543	1.367	0.00072
0.592	1.36457	0.00072
0.655	1.36118	0.00072
0.69	1.359	0.00072
0.75	1.35486	0.00072
0.8	1.3509	0.00072
0.848	1.34641	0.00072
0.897	1.34105	0.00072
0.948	1.3344	0.00072
1	1.32634	0.00072

System: methanol + diethyl carbonate; phases: Liquid
Fixed: Temperature, K = 298.15
Fixed: Pressure, kPa = 101.3
Property: Speed of sound, m/s (Liquid); method: Sing-around technique in a fixed-path interferometer
Mole fraction of methanol	Speed of sound, m/s	uncertainty
0	1176.1	1.2
0.063	1174.8	1.2
0.098	1174.1	1.2
0.159	1171.5	1.2
0.192	1169.9	1.2
0.251	1167	1.2
0.302	1164.3	1.2
0.371	1160.6	1.2
0.415	1158.1	1.2
0.453	1155.9	1.2
0.49	1153.8	1.2
0.543	1150.2	1.2
0.592	1146.9	1.2
0.655	1142.2	1.2
0.69	1139.5	1.2
0.75	1134.1	1.2
0.8	1129.2	1.2
0.848	1123.8	1.2
0.897	1117.8	1.2
0.948	1110.4	1.2
1	1101.8	1.2

System: methanol + diethyl carbonate; phases: Liquid, Gas
Fixed: Pressure, kPa = 101.3
Property: Boiling temperature at pressure P, K (Liquid); method: EBULLIO:UFactor:16
Mole fraction of methanol	Boiling temperature at pressure P, K	uncertainty
0	399.6	0.5
0.026	379.2	1.4
0.04	374	0.7
0.065	368.5	0.6
0.097	364.9	0.5
0.165	360.5	0.5
0.233	356.1	0.5
0.316	353.1	0.5
0.398	350	0.5
0.438	348.8	0.5
0.497	347.4	0.5
0.547	345.8	0.5
0.626	343.8	0.5
0.696	342.4	0.5
0.762	341.2	0.5
0.806	340.6	0.5
0.847	340.1	0.5
0.887	339.3	0.5
0.943	338.6	0.5
0.964	338.3	0.5
1	337.9	0.5

System: methanol + diethyl carbonate; phases: Liquid
Fixed: Temperature, K = 298.15
Fixed: Pressure, kPa = 101.3
Property: Mass density, kg/m3 (Liquid); method: VIBTUB:UFactor:4
Mole fraction of methanol	Mass density, kg/m3	uncertainty
0	969	0.25
0.063	964.93	0.26
0.098	962.48	0.26
0.159	958.15	0.27
0.192	955.62	0.27
0.251	950.7	0.28
0.302	946.14	0.29
0.371	939.23	0.3
0.415	934.4	0.31
0.453	929.92	0.32
0.49	925.16	0.34
0.543	917.68	0.35
0.592	910.04	0.36
0.655	898.92	0.38
0.69	892	0.4
0.75	878.54	0.42
0.8	865.37	0.45
0.848	850.75	0.47
0.897	833.8	0.51
0.948	812.41	0.55
1	786.56	0.6

System: methanol + diethyl carbonate; phases: Gas, Liquid
Fixed: Pressure, kPa = 101.3
Property: Mole fraction of methanol (Gas); method: VDN:UFactor:4
Mole fraction of methanol	Mole fraction of methanol	uncertainty
0	0	0.001
0.026	0.439	0.083
0.04	0.536	0.028
0.065	0.624	0.016
0.097	0.679	0.009
0.165	0.742	0.008
0.233	0.782	0.007
0.316	0.816	0.006
0.398	0.846	0.006
0.438	0.859	0.006
0.497	0.878	0.006
0.547	0.893	0.006
0.626	0.907	0.006
0.696	0.922	0.006
0.762	0.935	0.006
0.806	0.945	0.006
0.847	0.954	0.006
0.887	0.965	0.006
0.943	0.979	0.006
0.964	0.986	0.006
1	1	0.001

System: diethyl carbonate + vinyl acetate; phases: Liquid
Fixed: Temperature, K = 298.15
Fixed: Pressure, kPa = 101.3
Property: Refractive index (Na D-line) (Liquid); method: Standard Abbe refractometry
Mole fraction of vinyl acetate	Refractive index (Na D-line)	uncertainty
0	1.38221	0.00072
0.043	1.3826	0.00072
0.105	1.3832	0.00072
0.17	1.38373	0.00072
0.193	1.38396	0.00072
0.254	1.38458	0.00072
0.299	1.385	0.00072
0.353	1.3855	0.00072
0.407	1.38602	0.00072
0.458	1.38655	0.00072
0.507	1.38706	0.00072
0.556	1.38757	0.00072
0.598	1.38804	0.00072
0.65	1.38859	0.00072
0.697	1.38917	0.00072
0.744	1.38968	0.00072
0.803	1.39031	0.00072
0.85	1.39087	0.00072
0.901	1.39143	0.00073
0.946	1.39197	0.00073
1	1.39253	0.00073

System: diethyl carbonate + vinyl acetate; phases: Liquid
Fixed: Temperature, K = 298.15
Fixed: Pressure, kPa = 101.3
Property: Speed of sound, m/s (Liquid); method: Sing-around technique in a fixed-path interferometer
Mole fraction of vinyl acetate	Speed of sound, m/s	uncertainty
0	1176.1	1.2
0.043	1174.2	1.2
0.105	1171.2	1.2
0.17	1167.9	1.2
0.193	1166.9	1.2
0.254	1163.6	1.2
0.299	1161.2	1.2
0.353	1158.2	1.2
0.407	1155.2	1.2
0.458	1152.3	1.2
0.507	1149.3	1.2
0.556	1146.4	1.2
0.598	1143.7	1.2
0.65	1140.4	1.2
0.697	1137.2	1.2
0.744	1134.1	1.2
0.803	1130.1	1.2
0.85	1126.7	1.2
0.901	1123.1	1.2
0.946	1119.8	1.2
1	1115.6	1.2

System: diethyl carbonate + vinyl acetate; phases: Liquid, Gas
Fixed: Pressure, kPa = 101.3
Property: Boiling temperature at pressure P, K (Liquid); method: EBULLIO:UFactor:24
Mole fraction of vinyl acetate	Boiling temperature at pressure P, K	uncertainty
0	399.6	0.7
0.048	395.5	0.8
0.135	389.4	0.8
0.213	383.6	0.8
0.301	377.6	0.8
0.353	374.3	0.8
0.377	372.7	0.8
0.402	370.7	0.8
0.45	367.9	0.8
0.476	365.9	0.8
0.497	364.4	0.7
0.524	363.1	0.7
0.56	361.1	0.8
0.594	359	0.7
0.662	356	0.7
0.737	353	0.7
0.817	350	0.7
0.85	349.2	0.7
0.885	348.1	0.7
0.953	347.2	0.7
1	346.1	0.7

System: diethyl carbonate + vinyl acetate; phases: Liquid
Fixed: Temperature, K = 298.15
Fixed: Pressure, kPa = 101.3
Property: Mass density, kg/m3 (Liquid); method: VIBTUB:UFactor:4
Mole fraction of vinyl acetate	Mass density, kg/m3	uncertainty
0	969	0.25
0.043	967.68	0.25
0.105	965.65	0.26
0.17	963.45	0.26
0.193	962.74	0.27
0.254	960.55	0.27
0.299	958.92	0.28
0.353	956.87	0.28
0.407	954.79	0.29
0.458	952.74	0.3
0.507	950.71	0.3
0.556	948.6	0.31
0.598	946.73	0.31
0.65	944.3	0.32
0.697	942.05	0.32
0.744	939.73	0.33
0.803	936.72	0.34
0.85	934.22	0.34
0.901	931.44	0.35
0.946	928.87	0.36
1	925.59	0.37

System: diethyl carbonate + vinyl acetate; phases: Gas, Liquid
Fixed: Pressure, kPa = 101.3
Property: Mole fraction of vinyl acetate (Gas); method: Density calibration data
Mole fraction of vinyl acetate	Mole fraction of vinyl acetate	uncertainty
0	0	0.001
0.048	0.14	0.017
0.135	0.36	0.015
0.213	0.52	0.012
0.301	0.653	0.01
0.353	0.715	0.009
0.377	0.741	0.009
0.402	0.769	0.008
0.45	0.811	0.008
0.476	0.834	0.008
0.497	0.85	0.007
0.524	0.866	0.007
0.56	0.887	0.007
0.594	0.907	0.007
0.662	0.934	0.006
0.737	0.956	0.006
0.817	0.974	0.006
0.85	0.98	0.006
0.885	0.986	0.006
0.953	0.995	0.005
1	1	0.001
