Measured thermophysical data. Phase Separation in Binary Mixtures Containing Linear Perfluoroalkanes
Source: J. Chem. Eng. Data, 2005, 10.1021/je049620w
Compound 1: perfluorohexane, C6F14, InChI=1S/C6F14/c7-1(8,3(11,12)5(15,16)17)2(9,10)4(13,14)6(18,19)20, purity 98%
Compound 2: hexadecafluoroheptane, C7F16, InChI=1S/C7F16/c8-1(9,2(10,11)4(14,15)6(18,19)20)3(12,13)5(16,17)7(21,22)23, purity 97%
Compound 3: octadecafluorooctane, C8F18, InChI=1S/C8F18/c9-1(10,3(13,14)5(17,18)7(21,22)23)2(11,12)4(15,16)6(19,20)8(24,25)26, purity 98%
Compound 4: hexane, C6H14, InChI=1S/C6H14/c1-3-5-6-4-2/h3-6H2,1-2H3, purity 99.5%
Compound 5: heptane, C7H16, InChI=1S/C7H16/c1-3-5-7-6-4-2/h3-7H2,1-2H3, purity 99%
Compound 6: octane, C8H18, InChI=1S/C8H18/c1-3-5-7-8-6-4-2/h3-8H2,1-2H3, purity 99.5%
Compound 7: 2,2,4-trimethylpentane, C8H18, InChI=1S/C8H18/c1-7(2)6-8(3,4)5/h7H,6H2,1-5H3, purity 99.5%
Compound 8: decane, C10H22, InChI=1S/C10H22/c1-3-5-7-9-10-8-6-4-2/h3-10H2,1-2H3, purity 99.8%
Compound 9: benzene, C6H6, InChI=1S/C6H6/c1-2-4-6-5-3-1/h1-6H, purity 99.5%
Compound 10: cyclohexane, C6H12, InChI=1S/C6H12/c1-2-4-6-5-3-1/h1-6H2, purity 99.8%
Compound 11: butyl ethyl ether, C6H14O, InChI=1S/C6H14O/c1-3-5-6-7-4-2/h3-6H2,1-2H3, purity 98%
Compound 12: butyl methyl ether, C5H12O, InChI=1S/C5H12O/c1-3-4-5-6-2/h3-5H2,1-2H3, purity 99%
Compound 13: tetrachloromethane, CCl4, InChI=1S/CCl4/c2-1(3,4)5, purity 99.8%
Compound 14: trichloromethane, CHCl3, InChI=1S/CHCl3/c2-1(3)4/h1H, purity 99.8%
Compound 15: chloroform-d, CDCl3, InChI=1S/CHCl3/c2-1(3)4/h1H/i1D, purity 99.9%
Compound 16: dichloromethane, CH2Cl2, InChI=1S/CH2Cl2/c2-1-3/h1H2, purity 99.9%

System: octane + perfluorohexane; phases: Liquid mixture 1, Liquid mixture 2
Fixed: Pressure, kPa = 101.3
Property: Liquid-liquid equilibrium temperature, K (Liquid mixture 1); method: VISOBS:UFactor:4
Mole fraction of perfluorohexane	Liquid-liquid equilibrium temperature, K	uncertainty
0.0503	282.3	0.7
0.0999	306.5	0.8
0.2003	323.4	0.8
0.2979	329.4	0.7
0.3991	331.3	0.7
0.4998	331.1	0.7
0.5984	329.8	0.8
0.6997	325.3	0.8
0.7944	314.1	0.7
0.8943	293.9	0.8

System: decane + perfluorohexane; phases: Liquid mixture 1, Liquid mixture 2
Fixed: Pressure, kPa = 101.3
Property: Liquid-liquid equilibrium temperature, K (Liquid mixture 1); method: VISOBS:UFactor:4
Mole fraction of perfluorohexane	Liquid-liquid equilibrium temperature, K	uncertainty
0.0499	296.6	1
0.1008	326	0.8
0.2	345.1	0.8
0.2998	359.3	0.8
0.4004	365.6	0.8
0.4953	366.1	0.8
0.5984	364.8	1
0.6967	361.3	0.8
0.7991	348	0.8
0.8987	329.9	1

System: cyclohexane + perfluorohexane; phases: Liquid mixture 1, Liquid mixture 2
Fixed: Pressure, kPa = 101.3
Property: Liquid-liquid equilibrium temperature, K (Liquid mixture 1); method: VISOBS:UFactor:4
Mole fraction of perfluorohexane	Liquid-liquid equilibrium temperature, K	uncertainty
0.05	311.8	0.8
0.0997	330.4	0.8
0.1986	340.2	0.8
0.2964	342.1	0.8
0.3976	341.1	0.8
0.4986	338.8	0.7
0.5956	331.7	0.8
0.697	320.8	0.8
0.8011	297.6	0.8

System: benzene + perfluorohexane; phases: Liquid mixture 1, Liquid mixture 2
Fixed: Pressure, kPa = 101.3
Property: Liquid-liquid equilibrium temperature, K (Liquid mixture 1); method: VISOBS:UFactor:4
Mole fraction of perfluorohexane	Liquid-liquid equilibrium temperature, K	uncertainty
0.0499	339.1	0.8
0.1004	363	0.8
0.2005	370	0.8
0.3011	371	0.8
0.4002	369.7	0.8
0.4997	367.3	0.8
0.585	362.3	0.8
0.6823	345.3	0.8
0.7504	335	0.7
0.7935	326.2	0.8

System: tetrachloromethane + perfluorohexane; phases: Liquid mixture 1, Liquid mixture 2
Fixed: Pressure, kPa = 101.3
Property: Liquid-liquid equilibrium temperature, K (Liquid mixture 1); method: VISOBS:UFactor:4
Mole fraction of perfluorohexane	Liquid-liquid equilibrium temperature, K	uncertainty
0.0503	295.1	0.7
0.0711	304.6	0.8
0.0999	313.2	0.8
0.137	318.4	0.8
0.2002	321.5	0.8
0.2999	322.4	0.8
0.3962	321.3	0.8
0.4916	317.2	0.8
0.5971	308.6	0.8
0.6939	296.6	0.8
0.7882	283.1	0.8

System: perfluorohexane + chloroform-d; phases: Liquid mixture 1, Liquid mixture 2
Fixed: Pressure, kPa = 101.3
Property: Liquid-liquid equilibrium temperature, K (Liquid mixture 1); method: VISOBS:UFactor:4
Mole fraction of perfluorohexane	Liquid-liquid equilibrium temperature, K	uncertainty
0.0333	303.3	0.7
0.0498	314.7	0.8
0.1	333.4	0.8
0.133	338.1	0.8
0.2007	340.9	0.8
0.2981	342.4	0.8
0.3984	339.3	0.8
0.4947	333.7	0.8
0.6004	323	0.8
0.6991	309.5	0.8
0.7971	292.3	0.8
0.875	276.3	0.8

System: trichloromethane + perfluorohexane; phases: Liquid mixture 1, Liquid mixture 2
Fixed: Pressure, kPa = 101.3
Property: Liquid-liquid equilibrium temperature, K (Liquid mixture 1); method: VISOBS:UFactor:4
Mole fraction of perfluorohexane	Liquid-liquid equilibrium temperature, K	uncertainty
0.0503	316.3	0.8
0.1011	335.3	0.8
0.2016	342.8	0.8
0.2982	343.4	0.8
0.3946	341.4	0.8
0.499	334.9	1.2
0.5873	326.5	0.8
0.7093	313.6	0.8
0.8003	294.7	0.8
0.8805	279.1	0.8

System: dichloromethane + perfluorohexane; phases: Liquid mixture 1, Liquid mixture 2
Fixed: Pressure, kPa = 101.3
Property: Liquid-liquid equilibrium temperature, K (Liquid mixture 1); method: VISOBS:UFactor:8
Mole fraction of perfluorohexane	Liquid-liquid equilibrium temperature, K	uncertainty
0.0333	318.5	1.3
0.0501	335	1.2
0.0999	357.5	1.2
0.1333	361.9	1.2
0.1981	363	1.2
0.2918	362.7	1.2
0.3991	356	1.2
0.4914	347.7	1.3
0.5871	332.7	1.3
0.6939	317.9	1.3
0.7942	303.9	1.3
0.8944	287.9	1.3

System: heptane + hexadecafluoroheptane; phases: Liquid mixture 1, Liquid mixture 2
Fixed: Pressure, kPa = 101.3
Property: Liquid-liquid equilibrium temperature, K (Liquid mixture 1); method: VISOBS:UFactor:4
Mole fraction of hexadecafluoroheptane	Liquid-liquid equilibrium temperature, K	uncertainty
0.039	286.8	0.7
0.062	297	0.8
0.135	315.1	0.8
0.213	321.5	0.8
0.293	322.9	0.8
0.391	323	0.8
0.496	322.3	0.8
0.531	321.5	0.8
0.6	318.8	0.8
0.709	309.5	0.8
0.786	300.3	0.8
0.8944	285.7	0.8

System: octane + hexadecafluoroheptane; phases: Liquid mixture 1, Liquid mixture 2
Fixed: Pressure, kPa = 101.3
Property: Liquid-liquid equilibrium temperature, K (Liquid mixture 1); method: VISOBS:UFactor:4
Mole fraction of hexadecafluoroheptane	Liquid-liquid equilibrium temperature, K	uncertainty
0.0505	292	0.8
0.1008	313.4	0.8
0.2007	326.7	0.8
0.3001	331.5	0.7
0.395	332	0.7
0.4955	331.7	0.7
0.5964	329.4	1
0.6954	324.6	0.8
0.7963	313	0.8
0.9001	290.5	0.8

System: hexadecafluoroheptane + 2,2,4-trimethylpentane; phases: Liquid mixture 1, Liquid mixture 2
Fixed: Pressure, kPa = 101.3
Property: Liquid-liquid equilibrium temperature, K (Liquid mixture 1); method: VISOBS:UFactor:4
Mole fraction of hexadecafluoroheptane	Liquid-liquid equilibrium temperature, K	uncertainty
0.0805	276	0.7
0.1111	282.9	0.7
0.155	289.9	0.7
0.232	295.2	0.8
0.323	296.6	0.7
0.416	296.7	1
0.533	295.8	0.8
0.623	292.8	0.8
0.745	283.6	0.8
0.8083	277	0.8

System: decane + hexadecafluoroheptane; phases: Liquid mixture 1, Liquid mixture 2
Fixed: Pressure, kPa = 101.3
Property: Liquid-liquid equilibrium temperature, K (Liquid mixture 1); method: VISOBS:UFactor:4
Mole fraction of hexadecafluoroheptane	Liquid-liquid equilibrium temperature, K	uncertainty
0.0502	307.5	0.9
0.1005	333.8	0.8
0.2009	352.9	0.8
0.302	360.4	0.8
0.4014	363	0.8
0.4981	364.1	0.7
0.5948	363.3	0.8
0.6983	360	1
0.7965	350.9	0.8
0.8954	328.1	0.8

System: cyclohexane + hexadecafluoroheptane; phases: Liquid mixture 1, Liquid mixture 2
Fixed: Pressure, kPa = 101.3
Property: Liquid-liquid equilibrium temperature, K (Liquid mixture 1); method: VISOBS:UFactor:4
Mole fraction of hexadecafluoroheptane	Liquid-liquid equilibrium temperature, K	uncertainty
0.025	305.8	0.7
0.0502	317.7	0.8
0.1002	332.1	0.8
0.2015	338.8	0.8
0.298	341	0.7
0.4007	339.6	0.7
0.5007	335.3	0.8
0.5987	327.8	1
0.6866	317.5	0.8
0.7944	299.9	1

System: benzene + hexadecafluoroheptane; phases: Liquid mixture 1, Liquid mixture 2
Fixed: Pressure, kPa = 101.3
Property: Liquid-liquid equilibrium temperature, K (Liquid mixture 1); method: VISOBS:UFactor:4
Mole fraction of hexadecafluoroheptane	Liquid-liquid equilibrium temperature, K	uncertainty
0.0251	310	0.9
0.0515	342.6	0.8
0.0999	366.1	0.8
0.3896	370.4	0.8
0.49	364.5	1
0.575	352.9	0.8
0.689	332.2	0.8
0.7895	311.2	0.8
0.8611	295.2	0.8

System: tetrachloromethane + hexadecafluoroheptane; phases: Liquid mixture 1, Liquid mixture 2
Fixed: Pressure, kPa = 101.3
Property: Liquid-liquid equilibrium temperature, K (Liquid mixture 1); method: VISOBS:UFactor:4
Mole fraction of hexadecafluoroheptane	Liquid-liquid equilibrium temperature, K	uncertainty
0.0457	306.4	0.8
0.0972	326.3	0.8
0.1511	330.6	0.8
0.221	331.7	0.9
0.3124	331.4	1
0.396	328.9	1
0.5104	322.1	0.9
0.6517	305.3	0.7
0.8023	275.6	0.7

System: hexadecafluoroheptane + chloroform-d; phases: Liquid mixture 1, Liquid mixture 2
Fixed: Pressure, kPa = 101.3
Property: Liquid-liquid equilibrium temperature, K (Liquid mixture 1); method: VISOBS:UFactor:4
Mole fraction of hexadecafluoroheptane	Liquid-liquid equilibrium temperature, K	uncertainty
0.0501	320.7	0.8
0.1	336.1	0.8
0.2005	340.1	0.7
0.3005	338.1	0.7
0.4004	333.5	0.8
0.494	326.7	0.8
0.5989	315.5	0.8
0.6927	300	1
0.7864	286.3	0.8

System: trichloromethane + hexadecafluoroheptane; phases: Liquid mixture 1, Liquid mixture 2
Fixed: Pressure, kPa = 101.3
Property: Liquid-liquid equilibrium temperature, K (Liquid mixture 1); method: VISOBS:UFactor:4
Mole fraction of hexadecafluoroheptane	Liquid-liquid equilibrium temperature, K	uncertainty
0.025	311.2	0.9
0.0362	328.9	0.9
0.0851	345.1	0.8
0.1278	350	0.7
0.186	350.7	0.8
0.2602	351	1
0.358	347.8	1
0.4553	342.1	1
0.595	329.1	0.8
0.6917	314.1	0.8
0.7758	297.7	0.9
0.8639	276.8	0.8

System: dichloromethane + hexadecafluoroheptane; phases: Liquid mixture 1, Liquid mixture 2
Fixed: Pressure, kPa = 101.3
Property: Liquid-liquid equilibrium temperature, K (Liquid mixture 1); method: VISOBS:UFactor:4
Mole fraction of hexadecafluoroheptane	Liquid-liquid equilibrium temperature, K	uncertainty
0.0278	331.8	0.7
0.05	346	0.8
0.1002	358.5	0.8
0.2007	360	0.8
0.3005	358.2	0.8
0.3967	351.2	0.8
0.4807	340.3	1
0.5995	324.4	1
0.6902	311.1	0.8
0.7908	294.3	0.8

System: hexane + octadecafluorooctane; phases: Liquid mixture 1, Liquid mixture 2
Fixed: Pressure, kPa = 101.3
Property: Liquid-liquid equilibrium temperature, K (Liquid mixture 1); method: VISOBS:UFactor:4
Mole fraction of octadecafluorooctane	Liquid-liquid equilibrium temperature, K	uncertainty
0.0378	284.5	0.7
0.0555	293	0.7
0.0833	301.7	0.7
0.1347	310	0.8
0.2589	314	1
0.3666	313.7	0.8
0.4671	309.8	0.8
0.5669	301.6	0.8
0.6953	287.5	0.8
0.7754	274	0.8
0.8694	259.5	0.7

System: heptane + octadecafluorooctane; phases: Liquid mixture 1, Liquid mixture 2
Fixed: Pressure, kPa = 101.3
Property: Liquid-liquid equilibrium temperature, K (Liquid mixture 1); method: VISOBS:UFactor:4
Mole fraction of octadecafluorooctane	Liquid-liquid equilibrium temperature, K	uncertainty
0.098	307.1	0.8
0.1389	315.6	0.7
0.1984	324.5	0.8
0.2976	329.9	0.8
0.3977	331	0.8
0.4973	331.1	0.8
0.5985	329.9	0.8
0.6972	326	0.7
0.7965	316.6	0.8
0.8444	308	0.7
0.8991	293	0.8

System: octane + octadecafluorooctane; phases: Liquid mixture 1, Liquid mixture 2
Fixed: Pressure, kPa = 101.3
Property: Liquid-liquid equilibrium temperature, K (Liquid mixture 1); method: VISOBS:UFactor:4
Mole fraction of octadecafluorooctane	Liquid-liquid equilibrium temperature, K	uncertainty
0.0509	315.3	0.8
0.0695	325.6	0.7
0.0995	335.1	0.8
0.1278	341.2	0.8
0.198	346.4	0.8
0.301	348.9	1
0.398	349.2	0.8
0.4907	348.2	1
0.5901	344.6	0.8
0.6942	337.4	0.8
0.761	328.9	0.8
0.7968	322.3	1
0.8417	311	0.8
0.899	295.1	0.8

System: octadecafluorooctane + 2,2,4-trimethylpentane; phases: Liquid mixture 1, Liquid mixture 2
Fixed: Pressure, kPa = 101.3
Property: Liquid-liquid equilibrium temperature, K (Liquid mixture 1); method: VISOBS:UFactor:4
Mole fraction of octadecafluorooctane	Liquid-liquid equilibrium temperature, K	uncertainty
0.0776	280.8	0.6
0.0917	285	0.7
0.1126	289.8	0.6
0.1389	293.9	0.6
0.1805	297.7	0.6
0.2414	299.4	0.6
0.2975	299.9	0.7
0.4214	299.8	0.7
0.5014	298.5	0.6
0.5993	295	0.6
0.65	292.5	0.7
0.6971	289.7	0.7
0.7472	284.9	0.7
0.8054	277.4	0.8

System: decane + octadecafluorooctane; phases: Liquid mixture 1, Liquid mixture 2
Fixed: Pressure, kPa = 101.3
Property: Liquid-liquid equilibrium temperature, K (Liquid mixture 1); method: VISOBS:UFactor:4
Mole fraction of octadecafluorooctane	Liquid-liquid equilibrium temperature, K	uncertainty
0.0508	333.1	1
0.1007	359.5	1
0.7928	362.9	1
0.8911	336.1	0.8

System: cyclohexane + octadecafluorooctane; phases: Liquid mixture 1, Liquid mixture 2
Fixed: Pressure, kPa = 101.3
Property: Liquid-liquid equilibrium temperature, K (Liquid mixture 1); method: VISOBS:UFactor:8
Mole fraction of octadecafluorooctane	Liquid-liquid equilibrium temperature, K	uncertainty
0.0217	315.5	1.4
0.0497	336.2	1.7
0.0991	353.1	1.5
0.1976	356.6	1.5
0.2892	357	1.4
0.41	353	1.2
0.4945	347	1.4
0.5563	340.5	1.3
0.612	334.7	1.2
0.6407	329.5	1.5
0.722	315.8	1.4
0.8017	299.5	1.7
0.9013	273	1.3

System: tetrachloromethane + octadecafluorooctane; phases: Liquid mixture 1, Liquid mixture 2
Fixed: Pressure, kPa = 101.3
Property: Liquid-liquid equilibrium temperature, K (Liquid mixture 1); method: VISOBS:UFactor:4
Mole fraction of octadecafluorooctane	Liquid-liquid equilibrium temperature, K	uncertainty
0.0375	314	1
0.0504	320.6	1.2
0.0686	326.8	1
0.101	332.9	1
0.2	336.2	1
0.3024	335.1	0.8
0.3975	331.6	1
0.4956	323.7	1.2
0.551	315.5	1.2
0.5914	304.8	1.2
0.623	290.7	1

System: octadecafluorooctane + chloroform-d; phases: Liquid mixture 1, Liquid mixture 2
Fixed: Pressure, kPa = 101.3
Property: Liquid-liquid equilibrium temperature, K (Liquid mixture 1); method: VISOBS:UFactor:8
Mole fraction of octadecafluorooctane	Liquid-liquid equilibrium temperature, K	uncertainty
0.019	334	1.2
0.0506	346.9	1.3
0.1006	352.4	1.3
0.1997	354.3	1.2
0.3001	351.5	1.2
0.4021	344.5	1.3
0.4979	335.8	1.4
0.5972	319.2	1.4
0.6915	308.3	1.5
0.8013	287.5	1.4

System: trichloromethane + octadecafluorooctane; phases: Liquid mixture 1, Liquid mixture 2
Fixed: Pressure, kPa = 101.3
Property: Liquid-liquid equilibrium temperature, K (Liquid mixture 1); method: VISOBS:UFactor:4
Mole fraction of octadecafluorooctane	Liquid-liquid equilibrium temperature, K	uncertainty
0.053	340.8	0.8
0.07	348.3	0.8
0.0985	354.1	0.8
0.145	355.8	0.7
0.1909	356.1	0.6
0.24	355.5	0.7
0.2919	353.8	0.8
0.4043	347.2	0.8
0.5031	337.2	1
0.5861	326.1	1.2
0.6691	308.6	0.8
0.7461	288.1	0.8

System: dichloromethane + octadecafluorooctane; phases: Liquid mixture 1, Liquid mixture 2
Fixed: Pressure, kPa = 101.3
Property: Liquid-liquid equilibrium temperature, K (Liquid mixture 1); method: VISOBS:UFactor:4
Mole fraction of octadecafluorooctane	Liquid-liquid equilibrium temperature, K	uncertainty
0.0311	348.7	0.8
0.0502	356.5	1
0.1289	361	1
0.229	362.6	1
0.307	361	0.8
0.3915	358.3	0.8
0.5028	343.5	1
0.6005	326.4	1
0.6958	301.1	0.7

System: octadecafluorooctane + butyl methyl ether; phases: Liquid mixture 1, Liquid mixture 2
Fixed: Pressure, kPa = 101.3
Property: Liquid-liquid equilibrium temperature, K (Liquid mixture 1); method: VISOBS:UFactor:4
Mole fraction of octadecafluorooctane	Liquid-liquid equilibrium temperature, K	uncertainty
0.0639	297.2	0.7
0.1004	308.4	0.7
0.1361	316.5	0.8
0.1986	322.7	0.8
0.2985	327	0.8
0.3918	328.3	0.8
0.4962	328.6	1
0.6004	327.1	0.8
0.6987	323.1	0.8
0.7953	316	0.8
0.8583	305.4	0.7
0.8987	296.2	0.7

System: octadecafluorooctane + butyl ethyl ether; phases: Liquid mixture 1, Liquid mixture 2
Fixed: Pressure, kPa = 101.3
Property: Liquid-liquid equilibrium temperature, K (Liquid mixture 1); method: VISOBS:UFactor:4
Mole fraction of octadecafluorooctane	Liquid-liquid equilibrium temperature, K	uncertainty
0.0986	314.8	0.7
0.1417	324	0.7
0.2013	331.4	0.7
0.2999	336.2	0.8
0.4004	336.9	0.8
0.4992	336.9	1
0.6002	335.7	0.8
0.699	332.1	0.8
0.8	322.5	0.8
0.85	313.8	0.7
0.8974	303	0.7
