Measured thermophysical data. Low-Temperature Heat Capacities and Derived Thermodynamic Functions of 1,4 Dichlorobenzene, 1,4 Dibromobenzene, 1,3,5 Trichlorobenzene, and 1,3,5 Tribromobenzene
Source: J. Chem. Eng. Data, 2005, 10.1021/je049762q
Compound 1: 1,4-dichlorobenzene, C6H4Cl2, InChI=1S/C6H4Cl2/c7-5-1-2-6(8)4-3-5/h1-4H, purity 99%
Compound 2: 1,4-dibromobenzene, C6H4Br2, InChI=1S/C6H4Br2/c7-5-1-2-6(8)4-3-5/h1-4H, purity 99%
Compound 3: 1,3,5-trichlorobenzene, C6H3Cl3, InChI=1S/C6H3Cl3/c7-4-1-5(8)3-6(9)2-4/h1-3H, purity 99%
Compound 4: 1,3,5-tribromobenzene, C6H3Br3, InChI=1S/C6H3Br3/c7-4-1-5(8)3-6(9)2-4/h1-3H, purity 99%

System: 1,4-dichlorobenzene; phases: Crystal 1, Liquid, Gas
Property: Molar enthalpy of transition or fusion, kJ/mol (Crystal 1); method: ADIACA:UFactor:2:FP
Molar enthalpy of transition or fusion, kJ/mol	uncertainty
17.907	0.064

System: 1,4-dichlorobenzene; phases: Crystal 3, Crystal 2, Gas
Property: Molar enthalpy of transition or fusion, kJ/mol (Crystal 3); method: ADIACA:UFactor:2:FP
Molar enthalpy of transition or fusion, kJ/mol	uncertainty
1.238	0.051

System: 1,4-dichlorobenzene; phases: Crystal 2, Crystal 1, Gas
Property: Molar enthalpy of transition or fusion, kJ/mol (Crystal 2); method: ADIACA:UFactor:2:FP
Molar enthalpy of transition or fusion, kJ/mol	uncertainty
0.181	0.051

System: 1,4-dichlorobenzene; phases: Crystal 1, Liquid, Gas
Property: Triple point temperature, K (Crystal 1); method: ADIACA:UFactor:2:FP
Triple point temperature, K	uncertainty
326.24	0.09

System: 1,4-dichlorobenzene; phases: Crystal 2, Crystal 1, Gas
Property: Triple point temperature, K (Crystal 2); method: ADIACA:UFactor:2:FP
Triple point temperature, K	uncertainty
306	2

System: 1,4-dichlorobenzene; phases: Crystal 3, Crystal 2, Gas
Property: Triple point temperature, K (Crystal 3); method: ADIACA:UFactor:2:FP
Triple point temperature, K	uncertainty
275	0.4

System: 1,4-dichlorobenzene; phases: Crystal 3
Fixed: Pressure, kPa = 101.325
Property: Molar heat capacity at constant pressure, J/K/mol (Crystal 3); method: VADIAC:UFactor:2
Temperature, K	Molar heat capacity at constant pressure, J/K/mol	uncertainty
5.11	0.29	0.03
6.43	0.42	0.03
7.21	0.83	0.04
7.89	1.18	0.04
9.58	2.1	0.05
11.66	3.22	0.07
13.08	4.5	0.09
14.5	6.12	0.11
15.94	7.81	0.12
18.49	10.86	0.15
19	11.19	0.15
20.21	12.96	0.17
21.65	14.62	0.17
22.92	16.12	0.18
24.05	17.45	0.19
25.09	18.62	0.19
26.05	19.66	0.19
28.53	21.78	0.18
32.77	26.1	0.19
34.99	28.16	0.19
36.99	29.91	0.2
38.82	31.33	0.21
42.09	33.94	0.22
44.35	35.66	0.22
46.46	37.19	0.23
48.44	38.2	0.23
52.09	40.68	0.24
53.8	41.66	0.25
55.44	42.56	0.25
57.02	43.48	0.25
58.55	44.32	0.26
60.03	45.14	0.26
63.79	47.24	0.27
66.94	48.83	0.28
69.94	50.35	0.28
72.81	51.62	0.29
82.41	56.53	0.31
85.29	57.82	0.31
88.14	59.02	0.32
91.01	60.3	0.52
93.9	61.52	0.52
96.8	62.72	0.53
99.71	63.94	0.53
102.62	65.39	0.53
103.2	65.58	0.53
105.55	66.59	0.53
107.33	67.31	0.53
108.49	67.79	0.54
111.35	68.99	0.54
111.43	69.01	0.54
114.39	70.21	0.54
115.28	70.59	0.54
117.35	71.41	0.54
119.12	72.17	0.54
120.32	72.62	0.55
122.89	73.69	0.55
123.3	73.82	0.55
126.28	75.05	0.55
126.6	75.16	0.55
129.27	76.26	0.55
130.24	76.63	0.55
132.26	77.49	0.56
133.83	78.06	0.56
135.26	78.7	0.56
137.36	79.47	0.56
138.27	79.99	0.56
140.85	80.87	0.56
141.27	81.11	0.56
144.27	82.33	0.56
147.28	83.54	0.57
147.69	83.58	0.57
150.29	84.72	0.57
151.05	84.88	0.57
153.31	85.92	0.57
156.33	87.11	0.57
159.35	88.32	0.58
162.38	89.5	0.58
165.4	90.68	0.58
168.43	91.85	0.58
171.47	93.01	0.59
177.53	95.43	0.59
180.53	96.63	0.59
183.51	97.84	0.6
186.47	98.95	0.6
188.91	99.81	0.6
189.41	100.08	0.6
191.9	101.04	0.6
192.33	101.32	0.6
194.87	102.23	0.6
195.23	102.39	0.6
197.82	103.42	0.61
198.11	103.53	0.61
200.75	104.57	0.61
200.98	104.65	0.61
203.66	105.76	0.61
206.55	106.91	0.61
209.43	108.06	0.62
212.28	109.21	0.62
215.03	110.08	0.62
215.12	110.42	0.62
217.8	111.29	0.62
217.94	111.43	0.62
220.54	112.37	0.62
220.75	112.46	0.62
223.28	113.45	0.63
225.99	114.54	0.63
226.32	114.68	0.63
228.7	115.59	0.63
229.08	115.81	0.63
231.39	116.65	0.63
231.82	116.88	0.63
234.07	117.7	0.64
234.55	117.96	0.64
236.73	118.76	0.64
237.27	119.01	0.64
239.38	119.79	0.64
239.97	119.98	0.64
242.02	120.79	0.64
242.66	121.05	0.64
244.65	121.76	0.64
245.34	122.11	0.64
247.26	122.73	0.65
248	123.17	0.65
249.87	123.71	0.65
250.66	124.06	0.65
252.46	124.73	0.65
253.3	125.12	0.65
255.04	125.74	0.65
257.61	126.76	0.65
260.16	127.77	0.66
262.71	128.79	0.66
265.24	129.78	0.66
267.76	130.84	0.66
270.28	131.78	0.66
272.78	132.68	0.67

System: 1,4-dichlorobenzene; phases: Crystal 2
Fixed: Pressure, kPa = 101.325
Property: Molar heat capacity at constant pressure, J/K/mol (Crystal 2); method: VADIAC:UFactor:2
Temperature, K	Molar heat capacity at constant pressure, J/K/mol	uncertainty
281.42	136.31	0.67
283.88	137.36	0.67
286.32	138.34	0.68
292.1	140.78	0.68
293.87	141.42	0.68
296.42	142.86	0.69
298.96	144.24	0.69
301.51	145.69	0.69

System: 1,4-dichlorobenzene; phases: Crystal 1
Fixed: Pressure, kPa = 101.325
Property: Molar heat capacity at constant pressure, J/K/mol (Crystal 1); method: VADIAC:UFactor:2
Temperature, K	Molar heat capacity at constant pressure, J/K/mol	uncertainty
308.59	148.61	0.7
311.33	150.45	0.7
314.11	151.51	0.7
316.65	152.8	0.71
319.2	154.18	0.71
321.74	155.8	0.71

System: 1,4-dichlorobenzene; phases: Liquid
Fixed: Pressure, kPa = 101.325
Property: Molar heat capacity at constant pressure, J/K/mol (Liquid); method: VADIAC:UFactor:2
Temperature, K	Molar heat capacity at constant pressure, J/K/mol	uncertainty
331.52	177.33	0.75
332.72	177.51	0.76
333.8	177.86	0.76
335.4	178.04	0.76
336.04	178.35	0.76
337.95	178.72	0.76
338.28	178.83	0.76
340.5	179.25	0.76
340.53	179.38	0.76
342.77	179.91	0.76
343.05	179.96	0.76
345.6	180.47	0.76
348.14	181.07	0.76
350.69	181.7	0.76
353.24	182.31	0.76
355.79	183.1	0.77
358.34	183.5	0.77
360.89	184.17	0.77
363.44	184.8	0.77
368.54	185.95	0.77
371.09	186.69	0.77
373.64	187.14	0.77
376.2	187.74	0.78

System: 1,4-dichlorobenzene; phases: Crystal 3
Fixed: Pressure, kPa = 101.325
Property: Molar heat capacity at constant pressure, J/K/mol (Crystal 3); method: VADIAC:UFactor:2
Temperature, K	Molar heat capacity at constant pressure, J/K/mol	uncertainty
10	2.33	0.06
15	6.7	0.108
20	12.69	0.166
25	18.52	0.191
30	23.27	0.175
40	32.27	0.208
50	39.36	0.241
60	45.13	0.258
70	50.38	0.283
80	55.34	0.299
90	59.86	0.524
100	64.06	0.532
110	68.42	0.54
120	72.49	0.549
130	76.54	0.557
140	80.56	0.557
150	84.625	0.565
160	88.574	0.574
170	92.449	0.582
180	96.415	0.59
190	100.33	0.599
200	104.28	0.607
210	108.29	0.615
220	112.15	0.624
230	116.16	0.632
240	119.99	0.64
250	123.77	0.649
260	127.72	0.657
270	131.65	0.665
275	133.61	0.665

System: 1,4-dichlorobenzene; phases: Crystal 2
Fixed: Pressure, kPa = 101.325
Property: Molar heat capacity at constant pressure, J/K/mol (Crystal 2); method: VADIAC:UFactor:2
Temperature, K	Molar heat capacity at constant pressure, J/K/mol	uncertainty
275	134.45	0.665
280	135.94	0.673
290	139.78	0.682
298.15	143.78	0.69
300	144.8	0.69
306	147.75	0.698

System: 1,4-dichlorobenzene; phases: Crystal 1
Fixed: Pressure, kPa = 101.325
Property: Molar heat capacity at constant pressure, J/K/mol (Crystal 1); method: VADIAC:UFactor:2
Temperature, K	Molar heat capacity at constant pressure, J/K/mol	uncertainty
306	147.86	0.698
310	149.45	0.698
320	154.72	0.707
326.24	158	0.715

System: 1,4-dichlorobenzene; phases: Liquid
Fixed: Pressure, kPa = 101.325
Property: Molar heat capacity at constant pressure, J/K/mol (Liquid); method: VADIAC:UFactor:2
Temperature, K	Molar heat capacity at constant pressure, J/K/mol	uncertainty
326.24	175.98	0.748
330	176.87	0.757
340	179.23	0.757
350	181.59	0.765
360	183.95	0.765
370	186.3	0.773
380	188.66	0.773

System: 1,4-dichlorobenzene; phases: Crystal 3
Fixed: Pressure, kPa = 101.325
Property: Molar enthalpy, kJ/mol (Crystal 3); method: VADIAC:UFactor:2
Temperature, K	Molar enthalpy, kJ/mol	uncertainty
10	0.0052	0.0003
15	0.026	0.0008
20	0.07	0.008
25	0.15	0.008
30	0.26	0.008
40	0.54	0.008
50	0.898	0.008
60	1.32	0.008
70	1.8	0.02
80	2.33	0.02
90	2.9	0.04
100	3.53	0.05
110	4.18	0.05
120	4.89	0.06
130	5.64	0.07
140	6.42	0.07
150	7.25	0.07
160	8.11	0.083
170	9.021	0.083
180	9.961	0.091
190	10.94	0.1
200	11.97	0.108
210	13.03	0.108
220	14.13	0.116
230	15.27	0.125
240	16.45	0.133
250	17.68	0.133
260	18.93	0.141
270	20.23	0.15
275	20.89	0.15

System: 1,4-dichlorobenzene; phases: Crystal 2
Fixed: Pressure, kPa = 101.325
Property: Molar enthalpy, kJ/mol (Crystal 2); method: VADIAC:UFactor:2
Temperature, K	Molar enthalpy, kJ/mol	uncertainty
275	22.13	0.158
280	22.81	0.158
290	24.19	0.166
298.15	25.34	0.166
300	25.61	0.175
306	26.48	0.175

System: 1,4-dichlorobenzene; phases: Crystal 1
Fixed: Pressure, kPa = 101.325
Property: Molar enthalpy, kJ/mol (Crystal 1); method: VADIAC:UFactor:2
Temperature, K	Molar enthalpy, kJ/mol	uncertainty
306	26.66	0.175
310	27.26	0.175
320	28.78	0.183
326.24	29.76	0.191

System: 1,4-dichlorobenzene; phases: Liquid
Fixed: Pressure, kPa = 101.325
Property: Molar enthalpy, kJ/mol (Liquid); method: VADIAC:UFactor:2
Temperature, K	Molar enthalpy, kJ/mol	uncertainty
326.24	47.67	0.224
330	48.32	0.233
340	50.1	0.233
350	51.91	0.241
360	53.74	0.249
370	55.59	0.258
380	57.46	0.266

System: 1,4-dichlorobenzene; phases: Crystal 3
Fixed: Pressure, kPa = 101.325
Property: Molar entropy, J/K/mol (Crystal 3); method: VADIAC:UFactor:2
Temperature, K	Molar entropy, J/K/mol	uncertainty
10	0.7	0.05
15	2.32	0.07
20	5.06	0.116
25	8.514	0.15
30	12.31	0.191
40	20.32	0.241
50	28.32	0.291
60	36.02	0.333
70	43.38	0.382
80	50.42	0.424
90	57.2	0.773
100	63.73	0.79
110	70.05	0.807
120	76.18	0.8314
130	82.14	0.8481
140	87.959	0.8647
150	93.654	0.8813
160	99.242	0.898
170	104.73	0.9146
180	110.13	0.9312
190	115.45	0.9478
200	120.69	0.9645
210	125.87	0.9811
220	131	0.9894
230	136.07	1.0061
240	141.1	1.0227
250	146.08	1.0393
260	151.01	1.0559
270	155.9	1.0643
275	158.34	1.0726

System: 1,4-dichlorobenzene; phases: Crystal 2
Fixed: Pressure, kPa = 101.325
Property: Molar entropy, J/K/mol (Crystal 2); method: VADIAC:UFactor:2
Temperature, K	Molar entropy, J/K/mol	uncertainty
275	162.84	1.0892
280	165.28	1.0975
290	170.11	1.1141
298.15	174.03	1.1225
300	174.93	1.1225
306	177.41	1.1308

System: 1,4-dichlorobenzene; phases: Crystal 1
Fixed: Pressure, kPa = 101.325
Property: Molar entropy, J/K/mol (Crystal 1); method: VADIAC:UFactor:2
Temperature, K	Molar entropy, J/K/mol	uncertainty
306	178.42	1.1391
310	180.35	1.1391
320	185.17	1.1557
326.24	188.19	1.164

System: 1,4-dichlorobenzene; phases: Liquid
Fixed: Pressure, kPa = 101.325
Property: Molar entropy, J/K/mol (Liquid); method: VADIAC:UFactor:2
Temperature, K	Molar entropy, J/K/mol	uncertainty
326.24	243.08	1.3303
330	245.11	1.3386
340	250.42	1.3553
350	255.65	1.3636
360	260.8	1.3802
370	265.87	1.3968
380	270.87	1.4135

System: 1,4-dibromobenzene; phases: Crystal, Liquid, Gas
Property: Molar enthalpy of transition or fusion, kJ/mol (Crystal); method: ADIACA:UFactor:2:FP
Molar enthalpy of transition or fusion, kJ/mol	uncertainty
20.387	0.066

System: 1,4-dibromobenzene; phases: Crystal, Liquid, Gas
Property: Triple point temperature, K (Crystal); method: ADIACA:UFactor:2:FP
Triple point temperature, K	uncertainty
360.48	0.09

System: 1,4-dibromobenzene; phases: Liquid
Fixed: Pressure, kPa = 101.325
Property: Molar heat capacity at constant pressure, J/K/mol (Liquid); method: VADIAC:UFactor:2
Temperature, K	Molar heat capacity at constant pressure, J/K/mol	uncertainty
362.85	190.92	0.78
363.89	191.22	0.78
365.71	191.62	0.78
366.91	191.91	0.78
368.72	192.27	0.78
369.93	192.55	0.79
371.72	192.9	0.79
372.94	193.22	0.79
374.79	193.57	0.79
377.7	194.15	0.79
380.68	194.75	0.79

System: 1,4-dibromobenzene; phases: Crystal
Fixed: Pressure, kPa = 101.325
Property: Molar heat capacity at constant pressure, J/K/mol (Crystal); method: VADIAC:UFactor:2
Temperature, K	Molar heat capacity at constant pressure, J/K/mol	uncertainty
5.27	1.01	0.04
5.8	1.18	0.04
6.45	1.36	0.05
6.5	1.38	0.05
7.46	2.31	0.06
7.64	2.66	0.07
7.71	2.81	0.07
8.52	3.67	0.08
8.77	3.87	0.08
9.03	4.08	0.09
9.52	4.41	0.09
10.07	5.11	0.1
10.26	5.43	0.11
10.6	5.83	0.11
11.8	6.63	0.12
12.15	7.18	0.13
12.41	7.69	0.13
12.47	7.8	0.14
13.6	9.64	0.16
14.05	10.68	0.17
14.2	10.78	0.17
15.55	13.29	0.2
15.57	13.3	0.2
15.9	13.84	0.2
16.68	14.94	0.21
17.46	16.03	0.22
17.68	16.47	0.22
17.94	16.83	0.23
18.59	17.79	0.23
19.73	19.51	0.24
20.25	20.25	0.25
22.16	22.72	0.25
22.64	23.37	0.26
23.84	25.08	0.26
24.7	25.82	0.26
26.55	28	0.25
27.15	28.54	0.25
28.82	30.45	0.24
29.32	30.8	0.24
31.01	32.68	0.21
31.27	32.7	0.21
33.06	34.41	0.22
33.29	34.82	0.22
35.63	36.98	0.23
38.01	38.95	0.24
40.43	40.7	0.24
42.9	42.52	0.25
45.4	44.29	0.26
47.94	45.99	0.26
50.51	47.61	0.27
53.12	49.13	0.28
55.75	50.72	0.28
58.41	52.22	0.29
61.09	53.7	0.3
63.8	55.15	0.3
66.54	56.56	0.31
69.3	57.98	0.31
72.07	59.33	0.32
74.86	60.72	0.32
77.68	62.03	0.33
80.51	63.35	0.33
83.36	64.67	0.34
86.22	65.91	0.34
89.08	67.21	0.35
89.28	67.47	0.35
91.9	68.39	0.54
92.15	68.67	0.54
94.65	69.5	0.54
95.04	69.84	0.54
97.35	70.59	0.54
97.94	71.11	0.54
100	71.7	0.54
100.85	72.3	0.54
102.59	72.97	0.55
103.77	73.61	0.55
105.15	73.98	0.55
106.7	74.69	0.55
109.64	75.86	0.55
112.58	77.06	0.55
115.54	78.22	0.56
118.5	79.39	0.56
121.46	80.54	0.56
124.44	81.71	0.56
127.42	82.85	0.57
130.4	84.01	0.57
133.39	85.14	0.57
136.39	86.25	0.57
139.39	87.37	0.57
142.39	88.47	0.58
145.4	89.57	0.58
148.41	90.66	0.58
151.43	91.77	0.58
154.45	92.84	0.59
157.47	93.92	0.59
160.49	95.04	0.59
163.52	96.13	0.59
166.54	97.21	0.59
169.55	98.29	0.6
172.58	99.4	0.6
175.6	100.5	0.6
178.62	101.59	0.6
181.65	102.69	0.61
184.69	103.79	0.61
187.72	104.9	0.61
190.75	106.01	0.61
193.79	107.09	0.61
196.83	108.2	0.62
199.86	109.24	0.62
202.9	110.27	0.62
205.94	111.41	0.62
208.97	112.54	0.63
212.01	113.63	0.63
215.05	114.77	0.63
218.09	115.88	0.63
221.12	116.98	0.63
224.16	118.12	0.64
227.19	119.19	0.64
230.23	120.31	0.64
233.27	121.42	0.64
236.31	122.55	0.65
239.34	123.69	0.65
242.38	124.8	0.65
245.41	125.94	0.65
248.44	127.13	0.65
251.48	128.22	0.66
254.52	129.34	0.66
257.56	130.47	0.66
260.6	131.58	0.66
263.64	132.68	0.67
266.67	133.83	0.67
269.71	134.94	0.67
272.74	136.06	0.67
275.78	137.2	0.67
278.81	138.23	0.68
281.84	139.24	0.68
284.87	140.31	0.68
287.9	141.45	0.68
290.93	143.08	0.69
292.89	143.33	0.69
293.96	143.64	0.69
295.8	144.5	0.69
296.99	144.79	0.69
298.79	145.71	0.69
300.02	145.98	0.69
301.84	146.94	0.69
303.03	147.07	0.69
304.88	148.06	0.7
306.05	148.21	0.7
307.92	149.18	0.7
309.07	149.34	0.7
310.96	150.23	0.7
312.09	150.47	0.7
314	151.06	0.7
317.04	152.02	0.7
320.07	153.14	0.71
323.1	154.4	0.71
326.13	155.58	0.71
329.16	156.76	0.71
332.19	157.97	0.72
335.22	159.26	0.72
338.24	160.5	0.72
341.26	161.81	0.72
344.28	163.16	0.73
347.3	164.65	0.73
350.32	166.28	0.73

System: 1,4-dibromobenzene; phases: Crystal
Fixed: Pressure, kPa = 101.325
Property: Molar heat capacity at constant pressure, J/K/mol (Crystal); method: VADIAC:UFactor:2
Temperature, K	Molar heat capacity at constant pressure, J/K/mol	uncertainty
10	5.01	0.1
15	12.33	0.19
20	19.9	0.24
25	26.17	0.26
30	31.55	0.21
40	40.38	0.24
50	47.3	0.27
60	53.1	0.29
70	58.33	0.31
80	63.11	0.33
90	67.83	0.54
100	71.7	0.54
110	76	0.55
120	79.98	0.56
130	83.85	0.57
140	87.59	0.58
150	91.25	0.58
160	94.86	0.59
170	98.46	0.6
180	102.09	0.6
190	105.74	0.61
200	109.29	0.62
210	112.91	0.63
220	116.57	0.63
230	120.22	0.64
240	123.94	0.65
250	127.69	0.66
260	131.36	0.66
270	135.04	0.67
280	138.63	0.68
290	142.24	0.68
298.15	145.34	0.69
300	145.97	0.69
310	149.79	0.7
320	153.12	0.71
330	157.09	0.71
340	161.27	0.72
350	166.05	0.73
360	171.43	0.74
360.48	171.7	0.74

System: 1,4-dibromobenzene; phases: Liquid
Fixed: Pressure, kPa = 101.325
Property: Molar heat capacity at constant pressure, J/K/mol (Liquid); method: VADIAC:UFactor:2
Temperature, K	Molar heat capacity at constant pressure, J/K/mol	uncertainty
360.48	190.38	0.782
370	192.57	0.782
380	194.61	0.79

System: 1,4-dibromobenzene; phases: Crystal
Fixed: Pressure, kPa = 101.325
Property: Molar enthalpy, kJ/mol (Crystal); method: VADIAC:UFactor:2
Temperature, K	Molar enthalpy, kJ/mol	uncertainty
10	0.0143	0.0005
15	0.0549	0.0011
20	0.133	0.002
25	0.249	0.003
30	0.399	0.004
40	0.757	0.006
50	1.197	0.009
60	1.704	0.012
70	2.262	0.015
80	2.868	0.018
90	3.517	0.043
100	4.215	0.048
110	4.955	0.054
120	5.737	0.059
130	6.56	0.065
140	7.417	0.071
150	8.306	0.077
160	9.237	0.082
170	10.202	0.088
180	11.208	0.094
190	12.247	0.101
200	13.32	0.107
210	14.434	0.113
220	15.581	0.119
230	16.762	0.126
240	17.984	0.132
250	19.24	0.139
260	20.537	0.145
270	21.867	0.152
280	23.239	0.159
290	24.644	0.165
298.15	25.816	0.171
300	26.082	0.172
310	27.562	0.179
320	29.076	0.186
330	30.631	0.193
340	32.219	0.2
350	33.857	0.208
360	35.544	0.215
360.48	35.628	0.215

System: 1,4-dibromobenzene; phases: Liquid
Fixed: Pressure, kPa = 101.325
Property: Molar enthalpy, kJ/mol (Liquid); method: VADIAC:UFactor:2
Temperature, K	Molar enthalpy, kJ/mol	uncertainty
360.48	56.01	0.258
370	57.84	0.266
380	59.77	0.274

System: 1,4-dibromobenzene; phases: Crystal
Fixed: Pressure, kPa = 101.325
Property: Molar entropy, J/K/mol (Crystal); method: VADIAC:UFactor:2
Temperature, K	Molar entropy, J/K/mol	uncertainty
10	1.9	0.08
15	5.11	0.13
20	9.7	0.19
25	14.85	0.23
30	20.11	0.24
40	30.47	0.3
50	40.25	0.36
60	49.39	0.42
70	57.98	0.47
80	66.08	0.52
90	73.77	0.82
100	81.12	0.84
110	88.17	0.86
120	94.95	0.88
130	101.51	0.9
140	107.86	0.92
150	114.03	0.94
160	120.04	0.96
170	125.89	0.98
180	131.63	0.99
190	137.24	1.01
200	142.75	1.03
210	148.17	1.04
220	153.51	1.06
230	158.77	1.08
240	163.97	1.09
250	169.1	1.11
260	174.18	1.12
270	179.21	1.14
280	184.18	1.15
290	189.11	1.17
298.15	193.1	1.18
300	194	1.18
310	198.85	1.2
320	203.65	1.21
330	208.43	1.23
340	213.18	1.24
350	217.92	1.25
360	222.67	1.27
360.48	222.9	1.27

System: 1,4-dibromobenzene; phases: Liquid
Fixed: Pressure, kPa = 101.325
Property: Molar entropy, J/K/mol (Liquid); method: VADIAC:UFactor:2
Temperature, K	Molar entropy, J/K/mol	uncertainty
360.48	279.46	1.4384
370	284.45	1.455
380	289.61	1.4717

System: 1,3,5-trichlorobenzene; phases: Crystal, Liquid, Gas
Property: Molar enthalpy of transition or fusion, kJ/mol (Crystal); method: ADIACA:UFactor:2:FP
Molar enthalpy of transition or fusion, kJ/mol	uncertainty
17.557	0.09

System: 1,3,5-trichlorobenzene; phases: Crystal, Liquid, Gas
Property: Triple point temperature, K (Crystal); method: ADIACA:UFactor:2:FP
Triple point temperature, K	uncertainty
335.92	0.09

System: 1,3,5-trichlorobenzene; phases: Crystal
Fixed: Pressure, kPa = 101.325
Property: Molar heat capacity at constant pressure, J/K/mol (Crystal); method: VADIAC:UFactor:2
Temperature, K	Molar heat capacity at constant pressure, J/K/mol	uncertainty
6.3	0.73	0.04
6.76	1.13	0.04
7.5	1.88	0.05
7.61	1.64	0.05
8.27	2.46	0.06
8.49	2.76	0.07
9.54	3.28	0.07
9.57	3.32	0.07
10.48	4.28	0.09
10.78	4.56	0.09
11.23	4.67	0.09
11.76	5.07	0.1
12.18	5.67	0.11
13.16	7.41	0.13
14.33	8.56	0.14
14.68	9.1	0.15
16.47	11.78	0.17
16.54	11.86	0.17
18.11	14.04	0.19
18.46	14.51	0.19
19.49	16.03	0.21
20.47	17.39	0.21
20.67	17.88	0.22
21.77	19.17	0.22
22.76	20.24	0.22
24.03	21.5	0.22
25.53	23.3	0.23
26.89	24.95	0.23
26.99	25.08	0.23
28.15	26.53	0.22
29.75	28.33	0.22
32.12	30.66	0.2
34.24	32.73	0.21
36.16	34.21	0.22
37.93	35.9	0.22
39.58	37.3	0.23
41.88	39.13	0.24
44.77	41.44	0.25
47.4	43.42	0.25
49.84	45.24	0.26
52.12	46.94	0.27
54.28	48.44	0.27
56.33	49.86	0.28
58.29	51.22	0.29
60.17	52.49	0.29
61.98	53.68	0.3
63.73	54.83	0.3
65.43	55.89	0.3
67.08	56.99	0.31
68.68	57.99	0.31
70.25	58.96	0.32
71.78	59.87	0.32
73.27	60.75	0.32
74.74	61.66	0.33
76.18	62.52	0.33
77.59	63.36	0.33
78.98	64.16	0.34
80.55	65.45	0.34
81.45	65.93	0.34
82.22	66.44	0.35
83.86	67.37	0.35
83.98	67.39	0.35
85.47	68.28	0.35
86.45	68.77	0.36
87.05	69.08	0.36
88.6	70	0.36
88.86	70.1	0.36
90.14	70.69	0.54
91.23	71.17	0.54
91.65	71.42	0.54
93.14	72.19	0.54
93.56	72.31	0.54
94.61	72.86	0.55
94.95	73	0.55
95.84	73.25	0.55
96.07	73.4	0.55
97.51	74.13	0.55
98.08	74.45	0.55
98.92	74.86	0.55
100.29	74.9	0.55
101.72	76.37	0.55
102.39	76.72	0.55
102.47	76.71	0.55
103.09	76.88	0.55
104.45	77.52	0.56
104.61	77.48	0.56
105.8	78.18	0.56
105.97	78.26	0.56
106.72	78.56	0.56
107.13	78.9	0.56
107.15	78.92	0.56
108.46	79.49	0.56
108.81	79.58	0.56
109.46	80.02	0.56
109.77	80.18	0.56
110.87	80.59	0.56
111.07	80.74	0.56
111.47	80.93	0.56
112.36	81.34	0.56
112.87	81.56	0.56
113.65	81.98	0.56
114.92	82.54	0.57
114.92	82.67	0.57
115.68	83.09	0.57
116.19	83.21	0.57
116.91	83.54	0.57
118.88	84.5	0.57
119.52	84.75	0.57
119.79	85.04	0.57
120.83	85.51	0.57
122.75	86.55	0.57
124.68	87.28	0.57
125.93	87.73	0.58
126.58	88.03	0.58
127.78	88.73	0.58
128.47	88.92	0.58
129.07	89.19	0.58
130.33	89.86	0.58
131.66	90.66	0.58
132.19	90.72	0.58
134.03	91.56	0.58
135.22	92.02	0.58
135.48	92.36	0.58
135.85	92.4	0.58
137.66	93.21	0.59
138.23	93.42	0.59
139.24	94.03	0.59
141.21	94.75	0.59
141.25	94.81	0.59
142.95	95.67	0.59
144.16	96.04	0.59
146.61	97.27	0.59
147.08	97.34	0.59
149.97	98.63	0.6
150.22	98.83	0.6
152.83	99.87	0.6
153.79	100.35	0.6
155.66	101.1	0.6
157.32	101.86	0.6
158.47	102.3	0.6
160.81	103.34	0.61
161.25	103.49	0.61
164.01	104.67	0.61
164.27	104.83	0.61
166.74	105.83	0.61
167.69	106.28	0.61
169.46	106.98	0.61
171.08	107.71	0.62
172.15	108.11	0.62
174.44	109.1	0.62
174.82	109.23	0.62
177.47	110.35	0.62
177.76	110.52	0.62
180.1	111.45	0.62
181.06	111.92	0.62
182.71	112.52	0.63
184.34	113.28	0.63
185.3	113.6	0.63
187.58	114.63	0.63
187.87	114.66	0.63
190.43	115.78	0.63
190.81	115.98	0.63
192.97	116.82	0.63
194.01	117.3	0.63
195.49	117.83	0.64
197.19	118.6	0.64
198	118.86	0.64
200.35	119.94	0.64
202.96	120.92	0.64
203.48	121.26	0.64
205.42	121.91	0.64
206.6	122.49	0.65
207.87	122.92	0.65
209.7	123.75	0.65
210.3	123.89	0.65
212.71	124.89	0.65
212.77	125.04	0.65
215.12	125.93	0.65
215.83	126.21	0.65
217.51	126.8	0.65
218.86	127.47	0.66
219.88	127.77	0.66
221.88	128.7	0.66
222.25	128.72	0.66
224.6	129.66	0.66
224.87	129.89	0.66
226.94	130.61	0.66
227.85	131.11	0.66
229.27	131.59	0.66
230.81	132.32	0.66
231.58	132.53	0.67
233.76	133.48	0.67
236.18	134.38	0.67
236.69	134.73	0.67
238.46	135.33	0.67
239.6	135.87	0.67
240.73	136.28	0.67
242.5	137.03	0.67
242.99	137.17	0.67
245.24	138.06	0.68
245.38	138.2	0.68
247.48	138.95	0.68
248.24	139.34	0.68
249.71	139.83	0.68
251.09	140.46	0.68
251.93	140.7	0.68
253.93	141.6	0.68
256.34	142.49	0.69
256.76	142.74	0.69
258.53	143.37	0.69
259.57	143.79	0.69
260.71	144.19	0.69
262.36	144.92	0.69
262.88	145.05	0.69
265.05	145.93	0.69
265.15	146.04	0.69
267.2	146.81	0.69
267.91	147.2	0.69
269.34	147.62	0.7
270.67	148.17	0.7
271.48	148.45	0.7
273.41	149.19	0.7
275.71	150.21	0.7
276.13	150.38	0.7
277.82	150.9	0.7
278.84	151.41	0.7
279.93	151.88	0.7
281.54	152.27	0.7
282.02	152.47	0.71
284.11	153.34	0.71
286.19	153.9	0.71
288.26	154.74	0.71
290.32	155.45	0.71
292.38	156.18	0.71
294.42	157	0.71
295.88	157.42	0.71
296.46	157.62	0.72
298.44	158.35	0.72
300.52	159.26	0.72
300.98	159.48	0.72
303.51	160.28	0.72
306.03	161.24	0.72
306.98	161.57	0.72
308.54	162.23	0.72
310.04	162.82	0.73
311.04	163.32	0.73
311.61	163.35	0.73
313.11	164.04	0.73
313.53	164.32	0.73
314.66	164.78	0.73
316	165.48	0.73
317.72	166.19	0.73
318.47	166.69	0.73
320.77	167.5	0.74
320.93	167.74	0.74
323.38	168.94	0.74
323.83	169.15	0.74
325.82	170.31	0.74
326.88	171.2	0.74
328.25	171.54	0.74

System: 1,3,5-trichlorobenzene; phases: Liquid
Fixed: Pressure, kPa = 101.325
Property: Molar heat capacity at constant pressure, J/K/mol (Liquid); method: VADIAC:UFactor:2
Temperature, K	Molar heat capacity at constant pressure, J/K/mol	uncertainty
338.89	198.6	0.8
341.83	199.12	0.8
341.91	199.27	0.8
344.76	199.68	0.8
344.94	199.89	0.8
347.69	200.32	0.8
347.97	200.6	0.8
350.61	200.99	0.8
350.99	201.16	0.8
353.52	201.63	0.8
354	201.88	0.8
356.43	202.27	0.8
357.01	202.62	0.81
359.34	202.96	0.81
360.01	203.24	0.81
362.24	203.68	0.81
363.01	203.85	0.81
365.13	204.35	0.81
366	204.62	0.81
368.02	204.99	0.81
368.98	205.5	0.81
370.9	205.72	0.81
371.95	206	0.81
373.78	206.29	0.81
374.93	206.68	0.81
376.65	206.96	0.81
377.9	207.35	0.81
379.51	207.51	0.82
380.86	207.96	0.82

System: 1,3,5-trichlorobenzene; phases: Crystal
Fixed: Pressure, kPa = 101.325
Property: Molar heat capacity at constant pressure, J/K/mol (Crystal); method: VADIAC:UFactor:2
Temperature, K	Molar heat capacity at constant pressure, J/K/mol	uncertainty
10	3.78	0.08
15	9.58	0.15
20	16.74	0.21
25	22.66	0.23
30	28.58	0.2
40	37.64	0.23
50	45.36	0.26
60	52.37	0.29
70	58.81	0.32
80	65.01	0.34
90	70.62	0.54
100	75.37	0.55
110	80.28	0.56
120	85.15	0.57
130	89.68	0.58
140	94.33	0.59
150	98.65	0.6
160	102.99	0.61
170	107.22	0.61
180	111.41	0.62
190	115.57	0.63
200	119.79	0.64
210	123.84	0.65
220	127.82	0.66
230	131.95	0.66
240	136.02	0.67
250	139.96	0.68
260	143.95	0.69
270	147.9	0.7
280	151.91	0.7
290	155.34	0.71
298.15	158.32	0.72
300	159.02	0.72
310	162.81	0.73
320	167.31	0.73
330	172.45	0.74
335.92	175.78	0.75

System: 1,3,5-trichlorobenzene; phases: Liquid
Fixed: Pressure, kPa = 101.325
Property: Molar heat capacity at constant pressure, J/K/mol (Liquid); method: VADIAC:UFactor:2
Temperature, K	Molar heat capacity at constant pressure, J/K/mol	uncertainty
335.92	197.88	0.798
340	198.76	0.798
350	200.94	0.798
360	203.18	0.807
370	205.46	0.815
380	207.79	0.815

System: 1,3,5-trichlorobenzene; phases: Crystal
Fixed: Pressure, kPa = 101.325
Property: Molar enthalpy, kJ/mol (Crystal); method: VADIAC:UFactor:2
Temperature, K	Molar enthalpy, kJ/mol	uncertainty
10	0.0097	0.0004
15	0.0416	0.0009
20	0.108	0.002
25	0.208	0.002
30	0.333	0.004
40	0.665	0.006
50	1.081	0.008
60	1.571	0.011
70	2.129	0.014
80	2.744	0.017
90	3.426	0.043
100	4.157	0.048
110	4.939	0.054
120	5.762	0.06
130	6.635	0.065
140	7.558	0.071
150	8.522	0.077
160	9.528	0.083
170	10.576	0.089
180	11.674	0.095
190	12.804	0.102
200	13.985	0.108
210	15.199	0.114
220	16.463	0.121
230	17.76	0.128
240	19.098	0.134
250	20.479	0.141
260	21.9	0.148
270	23.355	0.155
280	24.86	0.162
290	26.39	0.169
298.15	27.671	0.175
300	27.962	0.176
310	29.575	0.183
320	31.221	0.19
330	32.925	0.198
335.92	33.948	0.202

System: 1,3,5-trichlorobenzene; phases: Liquid
Fixed: Pressure, kPa = 101.325
Property: Molar enthalpy, kJ/mol (Liquid); method: VADIAC:UFactor:2
Temperature, K	Molar enthalpy, kJ/mol	uncertainty
335.92	51.51	0.241
340	52.31	0.241
350	54.32	0.249
360	56.34	0.258
370	58.38	0.266
380	60.45	0.274

System: 1,3,5-trichlorobenzene; phases: Crystal
Fixed: Pressure, kPa = 101.325
Property: Molar entropy, J/K/mol (Crystal); method: VADIAC:UFactor:2
Temperature, K	Molar entropy, J/K/mol	uncertainty
10	1.3	0.06
15	3.82	0.11
20	7.57	0.16
25	11.97	0.19
30	16.64	0.22
40	26.14	0.28
50	35.39	0.33
60	44.28	0.39
70	52.85	0.44
80	61.09	0.49
90	69.09	0.81
100	76.78	0.83
110	84.19	0.85
120	91.38	0.87
130	98.38	0.9
140	105.19	0.92
150	111.85	0.94
160	118.35	0.96
170	124.72	0.97
180	130.97	0.99
190	137.11	1.01
200	143.14	1.03
210	149.08	1.05
220	154.93	1.06
230	160.7	1.08
240	166.41	1.1
250	172.04	1.12
260	177.61	1.13
270	183.12	1.15
280	188.56	1.17
290	193.95	1.18
298.15	198.3	1.19
300	199.28	1.2
310	204.55	1.21
320	209.79	1.23
330	215.02	1.25
335.92	218.11	1.25

System: 1,3,5-trichlorobenzene; phases: Liquid
Fixed: Pressure, kPa = 101.325
Property: Molar entropy, J/K/mol (Liquid); method: VADIAC:UFactor:2
Temperature, K	Molar entropy, J/K/mol	uncertainty
335.92	270.38	1.4135
340	272.77	1.4218
350	278.57	1.4384
360	284.26	1.455
370	289.86	1.4717
380	295.37	1.4883

System: 1,3,5-tribromobenzene; phases: Crystal, Liquid, Gas
Property: Molar enthalpy of transition or fusion, kJ/mol (Crystal); method: ADIACA:UFactor:2:FP
Molar enthalpy of transition or fusion, kJ/mol	uncertainty
21.721	0.051

System: 1,3,5-tribromobenzene; phases: Crystal, Liquid, Gas
Property: Triple point temperature, K (Crystal); method: ADIACA:UFactor:2:FP
Triple point temperature, K	uncertainty
394.96	0.16

System: 1,3,5-tribromobenzene; phases: Crystal
Fixed: Pressure, kPa = 101.325
Property: Molar heat capacity at constant pressure, J/K/mol (Crystal); method: VADIAC:UFactor:2
Temperature, K	Molar heat capacity at constant pressure, J/K/mol	uncertainty
6.52	1.72	0.06
6.88	2.15	0.07
6.95	2.19	0.07
7.15	2.56	0.07
7.61	3.13	0.08
7.91	3.91	0.09
8.43	4.55	0.1
8.64	4.82	0.1
9.26	5.6	0.11
9.48	6.06	0.12
9.98	6.73	0.13
10.55	7.4	0.14
10.76	7.57	0.14
11.09	8.13	0.15
11.43	8.59	0.15
12.2	9.56	0.16
12.4	9.97	0.17
13.02	11.12	0.18
13.44	11.86	0.19
13.52	11.96	0.19
14.28	13.92	0.22
14.41	14.32	0.22
14.86	15.39	0.23
15.24	16.16	0.24
15.97	17.16	0.25
16.24	17.78	0.25
16.42	18.22	0.25
16.81	18.82	0.26
17.75	20.23	0.27
18.13	21.04	0.27
18.13	21.05	0.28
18.35	21.29	0.28
18.91	22.41	0.28
19.3	22.84	0.29
19.96	24.11	0.29
20.32	24.44	0.29
20.36	25.02	0.3
20.69	25.21	0.3
20.91	25.52	0.3
21.28	25.98	0.3
21.33	26.05	0.3
22.22	27.37	0.3
22.85	28.05	0.3
23.13	28.66	0.3
23.5	29.01	0.3
25.43	31.5	0.3
25.52	31.63	0.3
25.66	31.94	0.3
27.61	34.27	0.29
28.08	34.74	0.29
29.8	36.66	0.27
30.83	37.81	0.23
32.02	39.23	0.24
33.45	40.57	0.24
34.29	41.49	0.25
35.86	42.74	0.25
36.6	43.58	0.26
38.95	45.82	0.26
41.31	48.18	0.27
43.74	50.35	0.28
46.2	52.53	0.29
48.69	54.78	0.3
51.22	56.59	0.31
53.78	58.73	0.32
56.38	60.57	0.32
59	62.4	0.33
61.66	64.25	0.34
64.34	66.1	0.34
67.06	67.97	0.35
69.79	69.75	0.36
72.55	71.4	0.37
75.33	73.12	0.37
78.14	74.71	0.38
80.95	76.25	0.39
83.79	77.97	0.39
84.19	78.04	0.39
86.63	79.59	0.4
87.47	79.75	0.4
89.49	81.07	0.4
90.65	81.41	0.56
92.36	82.26	0.56
93.74	82.91	0.57
95.25	83.54	0.57
96.75	84.24	0.57
98.15	85.01	0.57
99.69	85.65	0.57
101.04	86.47	0.57
102.61	87.46	0.58
105.54	88.95	0.58
108.48	90.22	0.58
111.43	91.51	0.58
114.39	92.81	0.59
117.36	94.15	0.59
120.34	95.48	0.59
123.32	96.75	0.59
126.31	98.04	0.6
129.31	99.34	0.6
132.31	100.61	0.6
135.32	101.87	0.6
138.33	103.08	0.61
141.34	104.32	0.61
144.36	105.54	0.61
147.39	106.84	0.61
150.41	107.89	0.62
153.44	109.1	0.62
156.48	110.25	0.62
159.51	111.32	0.62
162.55	112.49	0.63
165.6	113.63	0.63
168.64	114.79	0.63
171.69	115.96	0.63
174.73	117.13	0.63
177.78	118.3	0.64
180.84	119.39	0.64
183.89	120.53	0.64
186.94	121.72	0.64
190	122.82	0.65
193.05	123.91	0.65
196.11	125.07	0.65
199.17	126.16	0.65
202.22	127.16	0.65
205.28	128.31	0.66
208.34	129.4	0.66
211.4	130.6	0.66
214.46	131.79	0.66
217.52	132.78	0.67
220.58	133.9	0.67
223.64	135.03	0.67
226.7	136.15	0.67
229.77	137.26	0.67
232.83	138.31	0.68
235.89	139.48	0.68
238.95	140.62	0.68
242.01	141.75	0.68
245.07	142.87	0.69
248.12	143.98	0.69
251.17	145.1	0.69
254.22	146.19	0.69
257.27	147.31	0.69
260.32	148.41	0.7
263.36	149.52	0.7
266.41	150.63	0.7
269.46	151.81	0.7
272.51	152.93	0.71
275.56	153.96	0.71
278.61	155.09	0.71
281.65	155.93	0.71
284.69	157.08	0.71
287.74	158.17	0.72
290.78	159.14	0.72
293.81	160	0.72
296.86	161.12	0.72
299.91	162.28	0.72
302.95	163.09	0.73
306	164.04	0.73
306.85	164.3	0.73
309.04	165.03	0.73
310.25	165.42	0.73
312.08	166.05	0.73
313.63	166.52	0.73
315.12	167.1	0.73
317	167.67	0.74
320.37	169.11	0.74
323.72	169.81	0.74
327.06	170.85	0.74
330.4	172.47	0.75
333.72	173.45	0.75
337.03	174.6	0.75
340.34	175.73	0.75
343.63	176.72	0.75
346.92	178.18	0.76
350.2	178.96	0.76
353.46	180.41	0.76
356.72	181	0.76
357.65	181.37	0.76
359.97	182.49	0.77
360.9	182.62	0.77
363.22	183.54	0.77
364.15	183.8	0.77
366.45	185.01	0.77
367.38	185.01	0.77
369.68	185.57	0.77
370.61	186.07	0.77
372.9	186.88	0.77
373.83	187.15	0.77
376.11	187.95	0.78
377.04	188.3	0.78
379.31	189.23	0.78
380.25	189.56	0.78

System: 1,3,5-tribromobenzene; phases: Liquid
Fixed: Pressure, kPa = 101.325
Property: Molar heat capacity at constant pressure, J/K/mol (Liquid); method: VADIAC:UFactor:2
Temperature, K	Molar heat capacity at constant pressure, J/K/mol	uncertainty
399	222.12	0.84
401.94	222.86	0.85
404.87	223.83	0.85
407.79	224.32	0.85
410.72	225.87	0.85
413.63	226.31	0.85

System: 1,3,5-tribromobenzene; phases: Crystal
Fixed: Pressure, kPa = 101.325
Property: Molar heat capacity at constant pressure, J/K/mol (Crystal); method: VADIAC:UFactor:2
Temperature, K	Molar heat capacity at constant pressure, J/K/mol	uncertainty
10	6.75	0.13
15	15.69	0.23
20	24.16	0.29
25	30.93	0.3
30	36.88	0.23
40	46.88	0.27
50	55.72	0.3
60	63.1	0.33
70	69.88	0.36
80	75.73	0.38
90	81.22	0.56
100	85.83	0.57
110	90.89	0.58
120	95.33	0.59
130	99.63	0.6
140	103.77	0.61
150	107.74	0.62
160	111.51	0.62
170	115.31	0.63
180	119.09	0.64
190	122.82	0.65
200	126.45	0.65
210	130.05	0.66
220	133.7	0.67
230	137.34	0.67
240	141.01	0.68
250	144.67	0.69
260	148.3	0.7
270	152.01	0.7
280	155.47	0.71
290	158.9	0.72
298.15	161.57	0.72
300	162.32	0.72
310	165.35	0.73
320	168.98	0.74
330	172.33	0.74
340	175.62	0.75
350	179.02	0.76
360	182.5	0.77
370	185.85	0.77
380	189.36	0.78
390	192.86	0.79
394.96	194.6	0.79

System: 1,3,5-tribromobenzene; phases: Liquid
Fixed: Pressure, kPa = 101.325
Property: Molar heat capacity at constant pressure, J/K/mol (Liquid); method: VADIAC:UFactor:2
Temperature, K	Molar heat capacity at constant pressure, J/K/mol	uncertainty
394.96	220.84	0.8398
400	222.34	0.8481
410	225.31	0.8481

System: 1,3,5-tribromobenzene; phases: Crystal
Fixed: Pressure, kPa = 101.325
Property: Molar enthalpy, kJ/mol (Crystal); method: VADIAC:UFactor:2
Temperature, K	Molar enthalpy, kJ/mol	uncertainty
10	0.0175	0.0005
15	0.0707	0.0013
20	0.166	0.002
25	0.308	0.003
30	0.482	0.004
40	0.898	0.007
50	1.413	0.01
60	2.012	0.013
70	2.677	0.016
80	3.401	0.02
90	4.19	0.044
100	5.022	0.05
110	5.912	0.056
120	6.843	0.062
130	7.816	0.068
140	8.83	0.074
150	9.886	0.08
160	10.983	0.086
170	12.123	0.092
180	13.295	0.099
190	14.5	0.105
200	15.748	0.112
210	17.028	0.118
220	18.35	0.125
230	19.705	0.131
240	21.094	0.138
250	22.524	0.145
260	23.987	0.152
270	25.492	0.159
280	27.03	0.166
290	28.602	0.173
298.15	29.907	0.179
300	30.206	0.18
310	31.844	0.188
320	33.516	0.195
330	35.22	0.202
340	36.958	0.21
350	38.729	0.217
360	40.541	0.225
370	42.379	0.233
380	44.258	0.241
390	46.17	0.248
394.96	47.126	0.252

System: 1,3,5-tribromobenzene; phases: Liquid
Fixed: Pressure, kPa = 101.325
Property: Molar enthalpy, kJ/mol (Liquid); method: VADIAC:UFactor:2
Temperature, K	Molar enthalpy, kJ/mol	uncertainty
394.96	68.85	0.299
400	69.97	0.299
410	72.2	0.308

System: 1,3,5-tribromobenzene; phases: Crystal
Fixed: Pressure, kPa = 101.325
Property: Molar entropy, J/K/mol (Crystal); method: VADIAC:UFactor:2
Temperature, K	Molar entropy, J/K/mol	uncertainty
10	2.34	0.09
15	6.51	0.16
20	12.18	0.24
25	18.33	0.28
30	24.52	0.27
40	36.54	0.34
50	47.99	0.41
60	58.82	0.47
70	69.06	0.53
80	78.78	0.59
90	88.03	0.86
100	96.82	0.89
110	105.26	0.92
120	113.36	0.94
130	121.16	0.96
140	128.69	0.99
150	135.99	1.01
160	143.07	1.03
170	149.94	1.05
180	156.64	1.07
190	163.18	1.09
200	169.57	1.11
210	175.83	1.13
220	181.96	1.15
230	187.99	1.16
240	193.91	1.18
250	199.74	1.2
260	205.48	1.22
270	211.15	1.23
280	216.74	1.25
290	222.25	1.27
298.15	226.69	1.28
300	227.7	1.28
310	233.07	1.3
320	238.38	1.32
330	243.62	1.33
340	248.81	1.35
350	253.95	1.36
360	259.04	1.38
370	264.08	1.39
380	269.09	1.41
390	274.05	1.42
394.96	276.5	1.43

System: 1,3,5-tribromobenzene; phases: Liquid
Fixed: Pressure, kPa = 101.325
Property: Molar entropy, J/K/mol (Liquid); method: VADIAC:UFactor:2
Temperature, K	Molar entropy, J/K/mol	uncertainty
394.96	331.5	1.5964
400	334.31	1.6047
410	339.83	1.6213
