Measured thermophysical data. Surface Tension of Difluoromethane (R-32) + 1,1,1,2,3,3,3-Heptafluoropropane (R-227ea) from (253 to 333) K
Source: J. Chem. Eng. Data, 2005, 10.1021/je049743g
Compound 1: difluoromethane, CH2F2, InChI=1S/CH2F2/c2-1-3/h1H2, purity 99.95%
Compound 2: 1,1,1,2,3,3,3-heptafluoropropane, C3HF7, InChI=1S/C3HF7/c4-1(2(5,6)7)3(8,9)10/h1H, purity 99.9%

System: difluoromethane + 1,1,1,2,3,3,3-heptafluoropropane; phases: Liquid, Gas
Property: Surface tension liquid-gas, N/m (Liquid); method: Capillary rise
Temperature, K	Mass fraction of difluoromethane	Surface tension liquid-gas, N/m	uncertainty
252.66	0.3988	0.01274	0.00031
252.66	0.3988	0.01277	0.00031
252.82	0.3003	0.01241	0.0003
252.82	0.3003	0.01241	0.0003
254.68	0.3983	0.01235	0.00031
254.68	0.3983	0.01237	0.00031
254.83	0.544	0.01271	0.00031
254.83	0.544	0.01271	0.00031
255.1	0.2998	0.01214	0.00031
255.1	0.2998	0.01213	0.00031
256.92	0.354	0.01185	0.00031
256.92	0.354	0.01185	0.00031
257.09	0.5434	0.01237	0.00031
257.09	0.5434	0.01238	0.00031
257.1	0.2993	0.01177	0.00031
257.1	0.3977	0.01202	0.00031
257.1	0.2993	0.01179	0.00031
257.1	0.3977	0.01203	0.00031
258.83	0.5429	0.01197	0.00031
258.83	0.5429	0.01197	0.00031
258.84	0.7282	0.01263	0.00031
258.84	0.7282	0.01265	0.00031
258.88	0.3972	0.01174	0.0003
258.88	0.3972	0.01174	0.0003
259	0.2988	0.01152	0.0003
259	0.2988	0.01151	0.0003
260.89	0.3528	0.01126	0.0003
260.89	0.3528	0.01125	0.0003
260.99	0.5423	0.01165	0.0003
260.99	0.5423	0.01165	0.0003
261.01	0.2982	0.0113	0.00031
261.01	0.2982	0.0113	0.00031
261.05	0.3966	0.01149	0.00031
261.05	0.3966	0.01148	0.00031
262.75	0.2977	0.011	0.00031
262.75	0.2977	0.01097	0.00031
262.79	0.3521	0.01106	0.0003
262.79	0.3521	0.01106	0.0003
262.8	0.7274	0.01212	0.00031
262.8	0.7274	0.01208	0.00031
262.85	0.3961	0.01114	0.0003
262.85	0.3961	0.01114	0.0003
262.96	0.5417	0.01134	0.00031
262.96	0.5417	0.01134	0.00031
262.98	0.3961	0.01114	0.0003
262.98	0.3961	0.01118	0.00031
264.66	0.727	0.01163	0.00031
264.66	0.727	0.01162	0.00031
264.68	0.5412	0.01111	0.00031
264.68	0.5412	0.01109	0.00031
264.87	0.3955	0.0109	0.00031
264.87	0.3955	0.01092	0.00031
264.88	0.3514	0.01071	0.00031
264.88	0.3514	0.01075	0.00031
264.96	0.297	0.01065	0.00031
264.96	0.297	0.01065	0.00031
266.51	0.2966	0.01042	0.0003
266.51	0.2966	0.01044	0.0003
266.75	0.5405	0.01075	0.0003
266.75	0.5405	0.01074	0.0003
266.88	0.3507	0.01044	0.0003
266.88	0.3507	0.01047	0.0003
267.04	0.3948	0.0105	0.00031
267.04	0.3948	0.01052	0.00031
268.37	0.296	0.0102	0.0003
268.37	0.54	0.01053	0.00031
268.37	0.296	0.01023	0.0003
268.37	0.54	0.01052	0.00031
268.63	0.7261	0.01105	0.00031
268.63	0.7261	0.011	0.00031
268.72	0.3943	0.01033	0.0003
268.72	0.3943	0.01033	0.0003
268.79	0.35	0.0102	0.0003
268.79	0.35	0.01023	0.0003
270.7	0.3936	0.01006	0.00031
270.7	0.3936	0.01003	0.00031
270.78	0.3493	0.00992	0.0003
270.78	0.5392	0.0101	0.00031
270.78	0.3493	0.00992	0.0003
270.78	0.5392	0.0101	0.00031
270.81	0.2952	0.00983	0.0003
270.81	0.2952	0.00986	0.0003
272.17	0.7252	0.01038	0.0003
272.17	0.7252	0.01038	0.0003
272.9	0.2945	0.00956	0.0003
272.9	0.2945	0.0096	0.0003
272.91	0.7249	0.01028	0.00031
272.91	0.7249	0.01028	0.00031
273.15	0.3928	0.00964	0.00031
273.15	0.5383	0.00973	0.0003
273.15	0.3928	0.00966	0.00031
273.15	0.5383	0.00973	0.0003
273.6	0.3482	0.00951	0.00031
273.6	0.3482	0.00951	0.00031
275.16	0.2937	0.00929	0.0003
275.16	0.2937	0.00931	0.0003
275.3	0.392	0.00926	0.0003
275.3	0.392	0.00929	0.0003
275.48	0.5375	0.00944	0.0003
275.48	0.5375	0.00944	0.0003
275.5	0.3474	0.00919	0.0003
275.5	0.7242	0.00987	0.0003
275.5	0.3474	0.00923	0.0003
275.5	0.7242	0.00989	0.0003
276.85	0.2931	0.00901	0.0003
276.85	0.2931	0.00905	0.0003
277.27	0.3913	0.00902	0.0003
277.27	0.3913	0.00906	0.0003
277.3	0.7237	0.00966	0.0003
277.3	0.7237	0.00965	0.0003
277.39	0.3466	0.00895	0.0003
277.39	0.3466	0.00898	0.0003
277.43	0.5367	0.00929	0.0003
277.43	0.5367	0.00929	0.0003
279.39	0.7231	0.00932	0.00031
279.39	0.7231	0.00934	0.00031
279.42	0.2921	0.00871	0.0003
279.42	0.2921	0.00871	0.0003
279.43	0.5359	0.00892	0.00031
279.43	0.5359	0.00892	0.00031
279.46	0.3457	0.00867	0.0003
279.46	0.3457	0.00867	0.0003
279.6	0.3904	0.00874	0.0003
279.6	0.3904	0.00876	0.0003
281.21	0.3898	0.00845	0.0003
281.21	0.3898	0.00846	0.0003
281.3	0.5351	0.00865	0.0003
281.3	0.5351	0.00864	0.0003
281.45	0.3448	0.0084	0.0003
281.45	0.3448	0.00841	0.0003
281.51	0.2913	0.00839	0.0003
281.51	0.2913	0.00839	0.0003
281.54	0.7224	0.0089	0.00031
281.54	0.7224	0.00893	0.00031
283.11	0.2907	0.0082	0.0003
283.11	0.2907	0.0082	0.0003
283.17	0.389	0.00823	0.0003
283.17	0.389	0.00823	0.0003
283.29	0.7219	0.00859	0.0003
283.29	0.7219	0.00861	0.0003
283.3	0.5342	0.00839	0.00031
283.3	0.5342	0.0084	0.00031
283.49	0.3439	0.00813	0.0003
283.49	0.3439	0.00813	0.0003
284.67	0.5336	0.00804	0.0003
284.67	0.5336	0.00807	0.0003
285.18	0.7212	0.00837	0.0003
285.18	0.7212	0.00837	0.0003
285.19	0.3882	0.00793	0.0003
285.19	0.3882	0.00799	0.0003
285.24	0.2898	0.00793	0.0003
285.24	0.2898	0.0079	0.0003
285.46	0.343	0.00794	0.0003
285.46	0.343	0.00795	0.0003
286.62	0.3876	0.00779	0.0003
286.62	0.3876	0.00779	0.0003
286.86	0.2891	0.00775	0.0003
286.86	0.2891	0.00771	0.0003
287.47	0.342	0.00757	0.0003
287.47	0.342	0.00757	0.0003
287.63	0.5322	0.00769	0.0003
287.63	0.5322	0.00773	0.0003
289.31	0.5314	0.00744	0.0003
289.31	0.5314	0.00745	0.0003
289.33	0.7197	0.00778	0.00031
289.33	0.7197	0.00778	0.00031
289.37	0.288	0.00741	0.00031
289.37	0.3411	0.00734	0.0003
289.37	0.288	0.00741	0.00031
289.37	0.3411	0.00738	0.0003
289.42	0.3863	0.00745	0.0003
289.42	0.3863	0.00745	0.0003
289.68	0.2879	0.00729	0.00031
289.68	0.2879	0.00729	0.00031
289.89	0.7195	0.00755	0.0003
289.89	0.7195	0.00753	0.0003
290.16	0.386	0.0072	0.00031
290.16	0.386	0.0072	0.00031
291.25	0.2872	0.00712	0.00031
291.25	0.2872	0.00712	0.00031
291.47	0.34	0.00714	0.0003
291.47	0.5304	0.00713	0.00031
291.47	0.34	0.00714	0.0003
291.47	0.5304	0.00718	0.0003
291.5	0.3854	0.00705	0.00031
291.5	0.3854	0.00703	0.0003
291.53	0.2871	0.00707	0.00031
291.53	0.2871	0.00705	0.00031
291.66	0.3853	0.00707	0.00031
291.66	0.3853	0.00711	0.0003
291.67	0.5303	0.00718	0.00031
291.67	0.5303	0.00716	0.00031
291.93	0.7187	0.00733	0.0003
291.93	0.7187	0.00735	0.0003
293.1	0.2864	0.00687	0.0003
293.1	0.2864	0.00687	0.0003
293.2	0.3391	0.00683	0.0003
293.2	0.3391	0.00687	0.0003
293.46	0.2862	0.00681	0.0003
293.46	0.2862	0.00679	0.00031
293.53	0.5293	0.0069	0.0003
293.53	0.7181	0.00706	0.0003
293.53	0.5293	0.0069	0.0003
293.53	0.7181	0.00709	0.0003
293.8	0.3843	0.00667	0.0003
293.8	0.3843	0.00669	0.0003
293.83	0.3843	0.00674	0.0003
293.83	0.3843	0.00674	0.0003
293.91	0.7179	0.00704	0.0003
293.91	0.7179	0.00705	0.0003
295.16	0.3381	0.0066	0.0003
295.16	0.3381	0.0066	0.0003
295.43	0.2853	0.00655	0.0003
295.43	0.2853	0.00655	0.0003
295.48	0.2853	0.00653	0.0003
295.48	0.2853	0.00653	0.0003
295.5	0.7173	0.00681	0.0003
295.5	0.7173	0.00683	0.0003
295.61	0.5282	0.00653	0.0003
295.61	0.5282	0.00653	0.0003
296.02	0.3832	0.00641	0.0003
296.02	0.3832	0.0064	0.0003
296.82	0.3372	0.00636	0.0003
296.82	0.3372	0.00636	0.0003
297.36	0.3826	0.0062	0.0003
297.36	0.3826	0.0062	0.0003
297.42	0.2844	0.00635	0.0003
297.42	0.2844	0.00632	0.0003
297.68	0.5271	0.00629	0.0003
297.68	0.5271	0.00629	0.0003
297.86	0.3366	0.00621	0.0003
297.86	0.3366	0.00621	0.0003
299.17	0.3817	0.00601	0.0003
299.17	0.3817	0.00601	0.0003
299.22	0.2835	0.00613	0.0003
299.22	0.2835	0.0061	0.0003
299.29	0.3358	0.00606	0.0003
299.29	0.3358	0.00607	0.0003
299.5	0.7156	0.00617	0.0003
299.5	0.7156	0.00617	0.0003
299.8	0.5259	0.00604	0.0003
299.8	0.5259	0.00603	0.0003
301.27	0.3346	0.00576	0.0003
301.27	0.3346	0.00576	0.0003
301.41	0.2825	0.0058	0.0003
301.41	0.2825	0.00582	0.0003
301.58	0.5249	0.00578	0.0003
301.58	0.5249	0.00577	0.0003
301.63	0.7146	0.0059	0.0003
301.63	0.7146	0.0059	0.0003
301.75	0.3803	0.00566	0.0003
301.75	0.3803	0.00569	0.0003
303.27	0.3335	0.00552	0.0003
303.27	0.3335	0.00552	0.0003
303.33	0.3795	0.00549	0.0003
303.33	0.3795	0.00554	0.0003
303.46	0.2815	0.00555	0.0003
303.46	0.2815	0.00555	0.0003
303.55	0.7137	0.00559	0.0003
303.55	0.7137	0.00559	0.0003
303.87	0.5235	0.00548	0.0003
303.87	0.5235	0.00544	0.0003
305.17	0.3785	0.00535	0.0003
305.17	0.3785	0.00533	0.0003
305.26	0.3323	0.0053	0.0003
305.26	0.3323	0.00529	0.0003
305.28	0.2805	0.00535	0.0003
305.28	0.2805	0.00537	0.0003
305.75	0.7126	0.00534	0.0003
305.75	0.7126	0.00534	0.0003
306.29	0.5221	0.00516	0.0003
306.29	0.5221	0.00513	0.0003
307.23	0.3774	0.00501	0.0003
307.23	0.3774	0.00506	0.0003
307.24	0.3311	0.00508	0.0003
307.24	0.3311	0.00508	0.0003
307.36	0.7118	0.00504	0.0003
307.36	0.7118	0.00504	0.0003
307.39	0.5214	0.00494	0.0003
307.39	0.5214	0.00494	0.0003
307.96	0.2792	0.00504	0.0003
307.96	0.2792	0.00505	0.0003
309.18	0.3299	0.0048	0.0003
309.18	0.3299	0.0048	0.0003
309.34	0.2785	0.00487	0.0003
309.34	0.2785	0.00485	0.0003
309.43	0.7107	0.0047	0.0003
309.43	0.7107	0.0047	0.0003
309.63	0.3761	0.00463	0.0003
309.63	0.3761	0.00467	0.0003
309.81	0.5198	0.00464	0.0003
309.81	0.5198	0.00463	0.0003
311.24	0.3286	0.00461	0.0003
311.24	0.3286	0.00461	0.0003
311.26	0.3752	0.00445	0.0003
311.26	0.3752	0.00448	0.0003
311.28	0.7097	0.00451	0.0003
311.28	0.7097	0.00451	0.0003
311.62	0.2773	0.00459	0.0003
311.62	0.2773	0.00455	0.0003
311.74	0.5186	0.00438	0.0003
311.74	0.5186	0.00436	0.0003
313.21	0.374	0.00426	0.0003
313.21	0.374	0.00422	0.0003
313.22	0.2764	0.00442	0.0003
313.22	0.2764	0.00442	0.0003
313.26	0.7086	0.00422	0.0003
313.26	0.7086	0.00422	0.0003
313.35	0.5175	0.00415	0.0003
313.35	0.5175	0.00417	0.0003
313.51	0.3271	0.00432	0.0003
313.51	0.3271	0.00432	0.0003
315.28	0.326	0.00412	0.0003
315.28	0.326	0.00413	0.0003
315.3	0.3728	0.00406	0.0003
315.3	0.3728	0.00409	0.0003
315.39	0.7074	0.00396	0.0003
315.39	0.7074	0.00396	0.0003
315.43	0.2752	0.00414	0.0003
315.43	0.2752	0.00413	0.0003
315.61	0.5159	0.00388	0.0003
315.61	0.5159	0.00388	0.0003
317.24	0.3247	0.00388	0.0003
317.24	0.3247	0.00388	0.0003
317.3	0.7064	0.0037	0.0003
317.3	0.7064	0.0037	0.0003
317.43	0.2742	0.00391	0.0003
317.43	0.2742	0.00389	0.0003
317.69	0.5145	0.00361	0.0003
317.69	0.5145	0.00363	0.0003
318.29	0.371	0.00363	0.0003
318.29	0.371	0.00362	0.0003
319.25	0.3234	0.00364	0.0003
319.25	0.3234	0.00364	0.0003
319.52	0.705	0.00338	0.0003
319.52	0.705	0.00338	0.0003
319.58	0.273	0.0037	0.0003
319.58	0.273	0.00367	0.0003
319.63	0.3702	0.0035	0.0003
319.63	0.3702	0.0035	0.0003
320	0.5129	0.00333	0.0003
320	0.5129	0.00332	0.0003
321.27	0.3692	0.00329	0.0003
321.27	0.3692	0.00329	0.0003
321.3	0.322	0.00339	0.0003
321.3	0.322	0.00338	0.0003
321.31	0.7039	0.00312	0.0003
321.31	0.7039	0.00312	0.0003
321.42	0.5118	0.00313	0.0003
321.42	0.5118	0.00314	0.0003
321.54	0.2719	0.00345	0.0003
321.54	0.2719	0.00342	0.0003
323.2	0.3207	0.00323	0.0003
323.2	0.3207	0.00323	0.0003
323.5	0.7025	0.00288	0.0003
323.5	0.7025	0.00287	0.0003
323.69	0.2707	0.00319	0.0003
323.69	0.2707	0.00319	0.0003
323.72	0.5102	0.00292	0.0003
323.72	0.5102	0.00292	0.0003
323.76	0.3677	0.00303	0.0003
323.76	0.3677	0.00301	0.0003
325.23	0.3193	0.00304	0.0003
325.23	0.3193	0.00304	0.0003
325.29	0.3668	0.00285	0.0003
325.29	0.3668	0.00285	0.0003
325.3	0.7013	0.00263	0.0003
325.3	0.7013	0.00263	0.0003
325.42	0.2697	0.00296	0.0003
325.42	0.2697	0.00295	0.0003
325.89	0.5085	0.00257	0.0003
325.89	0.5085	0.00259	0.0003
327.16	0.2688	0.0028	0.0003
327.16	0.2688	0.00278	0.0003
327.31	0.3656	0.00259	0.0003
327.31	0.7	0.00243	0.0003
327.31	0.3656	0.00258	0.0003
327.31	0.7	0.00244	0.0003
327.4	0.3179	0.00274	0.0003
327.4	0.3179	0.00273	0.0003
327.68	0.5072	0.00237	0.0003
327.68	0.5072	0.00238	0.0003
329.3	0.3166	0.00254	0.0003
329.3	0.3166	0.00254	0.0003
329.34	0.6987	0.00215	0.0003
329.34	0.6987	0.00216	0.0003
329.35	0.5059	0.00218	0.0003
329.35	0.5059	0.00219	0.0003
329.37	0.2676	0.0026	0.0003
329.37	0.2676	0.00259	0.0003
329.44	0.3643	0.00243	0.0003
329.44	0.3643	0.00243	0.0003
331.47	0.5043	0.00201	0.0003
331.47	0.5043	0.00201	0.0003
331.57	0.315	0.00224	0.0003
331.57	0.315	0.00224	0.0003
331.61	0.6971	0.00187	0.0003
331.61	0.6971	0.00187	0.0003
331.65	0.2663	0.00236	0.0003
331.65	0.2663	0.00237	0.0003
331.73	0.3629	0.00215	0.0003
331.73	0.3629	0.00215	0.0003
333.37	0.2654	0.00219	0.0003
333.37	0.2654	0.00219	0.0003
333.4	0.3138	0.00206	0.0003
333.4	0.3138	0.00206	0.0003
333.48	0.3618	0.00195	0.0003
333.48	0.6959	0.00163	0.0003
333.48	0.3618	0.00195	0.0003
333.48	0.6959	0.00163	0.0003
333.55	0.5028	0.00175	0.0003
333.55	0.5028	0.00172	0.0003
