Measured thermophysical data. Vapor-Liquid Equilibrium for 1-Propanol + 1-Butene, + cis-2-Butene, + 2-Methyl-propene, + trans-2-Butene, + n-Butane, and + 2-Methyl-propane
Source: J. Chem. Eng. Data, 2004, 10.1021/je049959i
Compound 1: propan-1-ol, C3H8O, InChI=1S/C3H8O/c1-2-3-4/h4H,2-3H2,1H3, purity 99.8%
Compound 2: 1-butene, C4H8, InChI=1S/C4H8/c1-3-4-2/h3H,1,4H2,2H3, purity 99.6%
Compound 3: (Z)-2-butene, C4H8, InChI=1S/C4H8/c1-3-4-2/h3-4H,1-2H3/b4-3-, purity 99.4%
Compound 4: 2-methylpropene, C4H8, InChI=1S/C4H8/c1-4(2)3/h1H2,2-3H3, purity 99.8%
Compound 5: (E)-2-butene, C4H8, InChI=1S/C4H8/c1-3-4-2/h3-4H,1-2H3/b4-3+, purity 99.4%
Compound 6: butane, C4H10, InChI=1S/C4H10/c1-3-4-2/h3-4H2,1-2H3, purity 99.95%
Compound 7: 2-methylpropane, C4H10, InChI=1S/C4H10/c1-4(2)3/h4H,1-3H3, purity 99.95%

System: propan-1-ol; phases: Liquid, Gas
Property: Vapor or sublimation pressure, kPa (Liquid); method: Closed cell (Static) method
Temperature, K	Vapor or sublimation pressure, kPa	uncertainty
318.58	9.47	0.17
323.07	12.07	0.18
323.26	12.27	0.18
330.16	17.57	0.19
331.92	19.07	0.18
332.05	19.17	0.18

System: 1-butene; phases: Liquid, Gas
Property: Vapor or sublimation pressure, kPa (Liquid); method: Closed cell (Static) method
Temperature, K	Vapor or sublimation pressure, kPa	uncertainty
323.27	596.14	2.12

System: (Z)-2-butene; phases: Liquid, Gas
Property: Vapor or sublimation pressure, kPa (Liquid); method: Closed cell (Static) method
Temperature, K	Vapor or sublimation pressure, kPa	uncertainty
331.92	561.34	2.06

System: 2-methylpropene; phases: Liquid, Gas
Property: Vapor or sublimation pressure, kPa (Liquid); method: Closed cell (Static) method
Temperature, K	Vapor or sublimation pressure, kPa	uncertainty
323.07	607.94	2.12

System: (E)-2-butene; phases: Liquid, Gas
Property: Vapor or sublimation pressure, kPa (Liquid); method: Closed cell (Static) method
Temperature, K	Vapor or sublimation pressure, kPa	uncertainty
332.05	606.54	2.22

System: butane; phases: Liquid, Gas
Property: Vapor or sublimation pressure, kPa (Liquid); method: Closed cell (Static) method
Temperature, K	Vapor or sublimation pressure, kPa	uncertainty
330.16	592.44	2.57

System: 2-methylpropane; phases: Liquid, Gas
Property: Vapor or sublimation pressure, kPa (Liquid); method: Closed cell (Static) method
Temperature, K	Vapor or sublimation pressure, kPa	uncertainty
318.59	610.84	2.12

System: propan-1-ol + 1-butene; phases: Liquid, Gas
Property: Vapor or sublimation pressure, kPa (Liquid); method: Closed cell (Static) method
Temperature, K	Mole fraction of 1-butene	Vapor or sublimation pressure, kPa	uncertainty
323.26	0	12.27	0.18
323.26	0.013	38.87	0.22
323.26	0.0321	75.67	0.31
323.26	0.968	584.44	2.08
323.27	0.0503	108.77	0.4
323.27	0.0978	185.66	0.66
323.27	0.1457	251.46	0.89
323.27	0.1948	307.66	1.08
323.27	0.243	353.36	1.24
323.27	0.2934	392.85	1.38
323.27	0.3956	451.65	1.59
323.27	0.4463	472.85	1.66
323.27	0.6973	535.55	1.89
323.27	0.7473	544.24	1.93
323.27	0.7974	552.54	1.96
323.27	0.8475	560.84	1.99
323.27	0.8975	569.44	2.02
323.27	0.9474	579.24	2.06
323.27	0.9879	591.04	2.1
323.27	1	596.14	2.12
323.28	0.3443	425.15	1.5
323.28	0.4974	490.35	1.73
323.28	0.5002	491.05	1.73
323.28	0.5492	504.65	1.78
323.28	0.5987	516.35	1.82
323.28	0.6481	526.55	1.86

System: propan-1-ol + (Z)-2-butene; phases: Liquid, Gas
Fixed: Temperature, K = 331.92
Property: Vapor or sublimation pressure, kPa (Liquid); method: Closed cell (Static) method
Mole fraction of (Z)-2-butene	Vapor or sublimation pressure, kPa	uncertainty
0	19.07	0.18
0.0132	43.27	0.23
0.0313	74.17	0.3
0.05	104.17	0.39
0.0981	173.97	0.62
0.1465	233.46	0.83
0.1957	284.76	1.01
0.2456	327.86	1.16
0.2945	363.25	1.29
0.3453	393.55	1.39
0.396	418.45	1.49
0.4471	439.25	1.56
0.4981	456.45	1.63
0.5002	457.15	1.63
0.5492	470.85	1.68
0.5985	482.65	1.73
0.6479	493.15	1.77
0.6982	502.65	1.81
0.7477	511.45	1.85
0.7975	519.85	1.88
0.8473	528.15	1.92
0.8971	536.65	1.96
0.9485	546.64	2
0.9688	551.54	2.02
0.9883	557.34	2.04
1	561.34	2.06

System: propan-1-ol + 2-methylpropene; phases: Liquid, Gas
Property: Vapor or sublimation pressure, kPa (Liquid); method: Closed cell (Static) method
Temperature, K	Mole fraction of 2-methylpropene	Vapor or sublimation pressure, kPa	uncertainty
323.07	0	12.07	0.18
323.07	0.7972	560.94	1.96
323.07	0.8967	578.74	2.02
323.07	0.9479	589.54	2.06
323.07	0.9682	595.14	2.08
323.07	0.9881	602.24	2.1
323.07	1	607.94	2.12
323.08	0.0132	38.97	0.22
323.08	0.2951	396.25	1.39
323.08	0.5984	522.95	1.83
323.08	0.6476	533.55	1.86
323.08	0.6975	543.25	1.9
323.08	0.7473	552.24	1.93
323.08	0.847	569.64	1.99
323.09	0.0312	73.57	0.3
323.09	0.0497	107.07	0.4
323.09	0.0977	185.16	0.66
323.09	0.1456	251.26	0.88
323.09	0.1947	308.26	1.08
323.09	0.2447	356.36	1.25
323.09	0.3447	428.55	1.5
323.09	0.3956	455.55	1.59
323.09	0.447	477.75	1.67
323.09	0.4978	495.75	1.73
323.09	0.4999	496.45	1.73
323.09	0.5491	510.75	1.78

System: propan-1-ol + (E)-2-butene; phases: Liquid, Gas
Property: Vapor or sublimation pressure, kPa (Liquid); method: Closed cell (Static) method
Temperature, K	Mole fraction of (E)-2-butene	Vapor or sublimation pressure, kPa	uncertainty
332.05	0	19.17	0.18
332.05	0.0372	92.17	0.35
332.05	0.0524	119.47	0.43
332.05	0.1472	260.26	0.92
332.05	0.1963	315.96	1.12
332.05	0.297	401.75	1.42
332.05	0.8978	579.64	2.11
332.05	0.948	590.34	2.16
332.05	0.968	595.54	2.18
332.05	0.9886	602.24	2.21
332.05	1	606.54	2.22
332.06	0.1018	198.96	0.71
332.06	0.2466	363.15	1.28
332.06	0.3476	433.35	1.53
332.06	0.3981	459.15	1.63
332.06	0.4495	480.55	1.71
332.06	0.5004	498.05	1.77
332.06	0.5981	523.65	1.87
332.06	0.6976	543.94	1.96
332.06	0.7474	553.04	2
332.06	0.7976	561.84	2.03
332.06	0.8476	570.54	2.07
332.07	0.4998	497.55	1.77
332.07	0.5491	511.65	1.83
332.07	0.6478	534.25	1.92

System: propan-1-ol + butane; phases: Liquid, Gas
Property: Vapor or sublimation pressure, kPa (Liquid); method: Closed cell (Static) method
Temperature, K	Mole fraction of butane	Vapor or sublimation pressure, kPa	uncertainty
330.16	0	17.57	0.19
330.16	0.0123	47.17	0.27
330.16	0.0304	87.87	0.41
330.16	0.049	126.77	0.56
330.16	0.8974	574.44	2.49
330.16	0.9671	585.54	2.54
330.16	0.9876	589.64	2.55
330.16	1	592.44	2.57
330.17	0.0967	212.96	0.93
330.17	0.144	282.16	1.23
330.17	0.1931	340.06	1.48
330.17	0.7961	560.34	2.43
330.17	0.8462	567.24	2.46
330.17	0.9475	582.14	2.52
330.18	0.2434	386.95	1.68
330.18	0.3439	453.05	1.97
330.18	0.3951	476.25	2.07
330.18	0.4975	509.35	2.21
330.18	0.499	509.65	2.21
330.18	0.5482	520.95	2.26
330.18	0.5977	530.45	2.3
330.18	0.6469	538.85	2.34
330.18	0.6966	546.34	2.37
330.18	0.7469	553.54	2.4
330.19	0.2937	423.85	1.84
330.19	0.4463	494.65	2.15

System: propan-1-ol + 2-methylpropane; phases: Liquid, Gas
Property: Vapor or sublimation pressure, kPa (Liquid); method: Closed cell (Static) method
Temperature, K	Mole fraction of 2-methylpropane	Vapor or sublimation pressure, kPa	uncertainty
318.58	0	9.47	0.17
318.58	0.0362	99.97	0.38
318.58	0.0512	132.87	0.47
318.58	0.0994	226.06	0.8
318.59	0.1466	299.06	1.05
318.59	0.1947	358.76	1.25
318.59	0.242	405.05	1.41
318.59	0.2914	443.05	1.55
318.59	0.3424	473.65	1.65
318.59	0.3936	497.25	1.73
318.59	0.445	515.55	1.79
318.59	0.4965	529.95	1.84
318.59	0.5395	539.65	1.88
318.59	0.9874	606.54	2.1
318.59	1	610.84	2.12
318.6	0.5494	541.45	1.88
318.6	0.697	564.54	1.96
318.6	0.7472	571.04	1.98
318.6	0.7973	577.44	2
318.6	0.8465	583.94	2.03
318.6	0.8981	591.14	2.05
318.6	0.9482	598.74	2.08
318.6	0.9682	602.24	2.09
318.61	0.4999	530.75	1.85
318.61	0.5983	550.14	1.91
318.61	0.6479	557.74	1.94
