Measured thermophysical data. Solubility of a-Carotene in Binary Solvents Formed by Some Hydrocarbons with tert-Butyl Methyl Ether and with tert-Amyl Methyl Ether
Source: J. Chem. Eng. Data, 2005, 10.1021/je0495583
Compound 1: .beta.-carotene, C40H56, InChI=1S/C40H56/c1-31(19-13-21-33(3)25-27-37-35(5)23-15-29-39(37,7)8)17-11-12-18-32(2)20-14-22-34(4)26-28-38-36(6)24-16-30-40(38,9)10/h11-14,17-22,25-28H,15-16,23-24,29-30H2,1-10H3/b12-11+,19-13+,20-14+,27-25+,28-26+,31-17+,32-18+,33-21+,34-22+, purity 95%
Compound 2: hexane, C6H14, InChI=1S/C6H14/c1-3-5-6-4-2/h3-6H2,1-2H3, purity 99.95%
Compound 3: toluene, C7H8, InChI=1S/C7H8/c1-7-5-3-2-4-6-7/h2-6H,1H3, purity 99%
Compound 4: cyclohexane, C6H12, InChI=1S/C6H12/c1-2-4-6-5-3-1/h1-6H2, purity 99%
Compound 5: 2-methoxy-2-methylpropane, C5H12O, InChI=1S/C5H12O/c1-5(2,3)6-4/h1-4H3, purity 99%
Compound 6: 2-methoxy-2-methylbutane, C6H14O, InChI=1S/C6H14O/c1-5-6(2,3)7-4/h5H2,1-4H3, purity 97%

System: hexane; phases: Liquid
Property: Refractive index (Na D-line) (Liquid); method: Standard Abbe refractometry
Temperature, K	Pressure, kPa	Refractive index (Na D-line)	uncertainty
298.15	101.325	1.3722	0.0007

System: hexane; phases: Liquid
Property: Mass density, kg/m3 (Liquid); method: Pycnometric method
Temperature, K	Pressure, kPa	Mass density, kg/m3	uncertainty
293.15	101.325	659.4	0.6

System: toluene; phases: Liquid
Property: Refractive index (Na D-line) (Liquid); method: Standard Abbe refractometry
Temperature, K	Pressure, kPa	Refractive index (Na D-line)	uncertainty
298.15	101.325	1.4941	0.0008

System: toluene; phases: Liquid
Property: Mass density, kg/m3 (Liquid); method: Pycnometric method
Temperature, K	Pressure, kPa	Mass density, kg/m3	uncertainty
293.15	101.325	866.2	0.9

System: cyclohexane; phases: Liquid
Property: Refractive index (Na D-line) (Liquid); method: Standard Abbe refractometry
Temperature, K	Pressure, kPa	Refractive index (Na D-line)	uncertainty
298.15	101.325	1.4236	0.0008

System: cyclohexane; phases: Liquid
Property: Mass density, kg/m3 (Liquid); method: Pycnometric method
Temperature, K	Pressure, kPa	Mass density, kg/m3	uncertainty
293.15	101.325	778.4	0.8

System: 2-methoxy-2-methylpropane; phases: Liquid
Property: Refractive index (Na D-line) (Liquid); method: Standard Abbe refractometry
Temperature, K	Pressure, kPa	Refractive index (Na D-line)	uncertainty
298.15	101.325	1.366	0.0008

System: 2-methoxy-2-methylpropane; phases: Liquid
Property: Mass density, kg/m3 (Liquid); method: Pycnometric method
Temperature, K	Pressure, kPa	Mass density, kg/m3	uncertainty
293.15	101.325	740.5	0.8

System: 2-methoxy-2-methylbutane; phases: Liquid
Property: Refractive index (Na D-line) (Liquid); method: Standard Abbe refractometry
Temperature, K	Pressure, kPa	Refractive index (Na D-line)	uncertainty
298.15	101.325	1.3867	0.0008

System: 2-methoxy-2-methylbutane; phases: Liquid
Property: Mass density, kg/m3 (Liquid); method: Pycnometric method
Temperature, K	Pressure, kPa	Mass density, kg/m3	uncertainty
293.15	101.325	770.6	0.8

System: 2-methoxy-2-methylpropane + .beta.-carotene; phases: Liquid, Crystal
Property: Mole fraction of .beta.-carotene (Liquid); method: Spectral colorimeter analysis
Temperature, K	Pressure, kPa	Mole fraction of .beta.-carotene	uncertainty
293.15	101	0.000119	2.4e-05

System: cyclohexane + .beta.-carotene; phases: Liquid, Crystal
Property: Mole fraction of .beta.-carotene (Liquid); method: Spectral colorimeter analysis
Temperature, K	Pressure, kPa	Mole fraction of .beta.-carotene	uncertainty
293.15	101	0.000295	5.9e-05

System: hexane + .beta.-carotene; phases: Liquid, Crystal
Property: Mole fraction of .beta.-carotene (Liquid); method: OTHER::sMethod:Spectral colorimeter analysis
Pressure, kPa	Temperature, K	Mole fraction of .beta.-carotene	uncertainty
101	293.15	9e-05	1.8e-05

System: toluene + .beta.-carotene; phases: Liquid, Crystal
Property: Mole fraction of .beta.-carotene (Liquid); method: OTHER::sMethod:Spectral colorimeter analysis
Pressure, kPa	Temperature, K	Mole fraction of .beta.-carotene	uncertainty
101	293.15	0.001077	0.000215

System: 2-methoxy-2-methylbutane + .beta.-carotene; phases: Liquid, Crystal
Property: Mole fraction of .beta.-carotene (Liquid); method: OTHER::sMethod:Spectral colorimeter analysis
Pressure, kPa	Temperature, K	Mole fraction of .beta.-carotene	uncertainty
101	293.15	0.00018	3.6e-05

System: cyclohexane + 2-methoxy-2-methylpropane + .beta.-carotene; phases: Liquid, Crystal
Fixed: Temperature, K = 293.15
Fixed: Pressure, kPa = 101
Property: Mole fraction of .beta.-carotene (Liquid); method: Spectral colorimeter analysis
Solvent: Mole fraction of cyclohexane	Mole fraction of .beta.-carotene	uncertainty
0	0.000119	2.4e-05
0.1003	0.000168	3.4e-05
0.2028	0.000201	4e-05
0.3054	0.000252	5e-05
0.3976	0.000266	5.3e-05
0.501	0.000278	5.6e-05
0.6047	0.000275	5.5e-05
0.6961	0.000295	5.9e-05
0.7995	0.000314	6.3e-05
0.8979	0.000305	6.1e-05
1	0.000295	5.9e-05

System: hexane + 2-methoxy-2-methylpropane + .beta.-carotene; phases: Liquid, Crystal
Fixed: Pressure, kPa = 101
Fixed: Temperature, K = 293.15
Property: Mole fraction of .beta.-carotene (Liquid); method: Spectral colorimeter analysis
Solvent: Mole fraction of hexane	Mole fraction of .beta.-carotene	uncertainty
0	0.000119	2.4e-05
0.2042	0.000138	2.8e-05
0.4043	0.000139	2.8e-05
0.502	0.000142	2.8e-05
0.6014	0.000117	2.3e-05
0.7981	0.000111	2.2e-05
0.8068	0.0001	2e-05
1	9e-05	1.8e-05

System: toluene + 2-methoxy-2-methylpropane + .beta.-carotene; phases: Liquid, Crystal
Fixed: Pressure, kPa = 101
Fixed: Temperature, K = 293.15
Property: Mole fraction of .beta.-carotene (Liquid); method: Spectral colorimeter analysis
Solvent: Mole fraction of toluene	Mole fraction of .beta.-carotene	uncertainty
0	0.000119	2.4e-05
0.1003	0.000182	3.6e-05
0.2047	0.000211	4.2e-05
0.3005	0.000235	4.7e-05
0.3998	0.000304	6.1e-05
0.4946	0.000421	8.4e-05
0.6009	0.00048	9.6e-05
0.6982	0.000555	0.000111
0.8104	0.000646	0.000129
0.8992	0.000763	0.000153
1	0.001077	0.000215

System: cyclohexane + 2-methoxy-2-methylbutane + .beta.-carotene; phases: Liquid, Crystal
Fixed: Pressure, kPa = 101
Fixed: Temperature, K = 293.15
Property: Mole fraction of .beta.-carotene (Liquid); method: Spectral colorimeter analysis
Solvent: Mole fraction of cyclohexane	Mole fraction of .beta.-carotene	uncertainty
0	0.00018	3.6e-05
0.1012	0.000199	4e-05
0.196	0.000223	4.5e-05
0.2923	0.000249	5e-05
0.4011	0.000308	6.2e-05
0.4901	0.000276	5.5e-05
0.6066	0.000283	5.7e-05
0.6872	0.00034	6.8e-05
0.7957	0.000298	6e-05
0.8994	0.000308	6.2e-05
1	0.000295	5.9e-05

System: hexane + 2-methoxy-2-methylbutane + .beta.-carotene; phases: Liquid, Crystal
Fixed: Pressure, kPa = 101
Fixed: Temperature, K = 293.15
Property: Mole fraction of .beta.-carotene (Liquid); method: Spectral colorimeter analysis
Solvent: Mole fraction of hexane	Mole fraction of .beta.-carotene	uncertainty
0	0.00018	3.6e-05
0.1052	0.000197	3.9e-05
0.2006	0.000187	3.7e-05
0.3064	0.000193	3.9e-05
0.3987	0.000158	3.2e-05
0.5024	0.00015	3e-05
0.6005	0.000139	2.8e-05
0.698	0.000102	2e-05
0.7994	0.000105	2.1e-05
0.8002	0.000105	2.1e-05
0.8981	9.8e-05	2e-05
1	9e-05	1.8e-05

System: toluene + 2-methoxy-2-methylbutane + .beta.-carotene; phases: Liquid, Crystal
Fixed: Pressure, kPa = 101
Fixed: Temperature, K = 293.15
Property: Mole fraction of .beta.-carotene (Liquid); method: Spectral colorimeter analysis
Solvent: Mole fraction of toluene	Mole fraction of .beta.-carotene	uncertainty
0	0.00018	3.6e-05
0.1089	0.000224	4.5e-05
0.2013	0.00028	5.6e-05
0.2948	0.000311	6.2e-05
0.4164	0.000343	6.9e-05
0.4973	0.000421	8.4e-05
0.4973	0.000425	8.5e-05
0.589	0.000508	0.000102
0.691	0.000524	0.000105
0.817	0.000627	0.000125
0.9001	0.000772	0.000154
1	0.001077	0.000215
