Measured thermophysical data. Compressed Liquid Densities of Squalane and Pentaerythritol Tetra(2-ethylhexanoate)
Source: J. Chem. Eng. Data, 2005, 10.1021/je049580w
Compound 1: 2,6,10,15,19,23-hexamethyltetracosane, C30H62, InChI=1S/C30H62/c1-25(2)15-11-19-29(7)23-13-21-27(5)17-9-10-18-28(6)22-14-24-30(8)20-12-16-26(3)4/h25-30H,9-24H2,1-8H3, purity 99%
Compound 2: heptane, C7H16, InChI=1S/C7H16/c1-3-5-7-6-4-2/h3-7H2,1-2H3, purity 99.5%
Compound 3: pentaerythritol tetra(2-ethylhexanoate), C37H68O8, InChI=1S/C37H68O8/c1-9-17-21-29(13-5)33(38)42-25-37(26-43-34(39)30(14-6)22-18-10-2,27-44-35(40)31(15-7)23-19-11-3)28-45-36(41)32(16-8)24-20-12-4/h29-32H,9-28H2,1-8H3, purity 99%

System: 2,6,10,15,19,23-hexamethyltetracosane; phases: Liquid
Property: Mass density, kg/m3 (Liquid); method: Vibrating tube method
Temperature, K	Pressure, kPa	Mass density, kg/m3	uncertainty
278.15	100	818.1	0.47
278.15	1000	818.59	0.47
278.15	5000	820.71	0.48
278.15	10000	823.31	0.49
278.15	15000	825.81	0.5
278.15	20000	828.24	0.51
278.15	25000	830.59	0.52
278.15	30000	832.87	0.54
278.15	35000	835.07	0.55
278.15	40000	837.21	0.56
278.15	45000	839.31	0.58
283.15	100	814.75	0.47
283.15	1000	815.25	0.47
283.15	5000	817.45	0.48
283.15	10000	820.16	0.49
283.15	15000	822.72	0.5
283.15	20000	825.21	0.51
283.15	25000	827.62	0.52
283.15	30000	829.94	0.54
283.15	35000	832.23	0.55
283.15	40000	834.41	0.57
283.15	45000	836.54	0.58
293.15	100	808.27	0.47
293.15	1000	808.81	0.47
293.15	5000	811.1	0.47
293.15	10000	813.88	0.48
293.15	15000	816.58	0.5
293.15	20000	819.18	0.51
293.15	25000	821.67	0.52
293.15	30000	824.14	0.54
293.15	35000	826.49	0.55
293.15	40000	828.81	0.57
293.15	45000	831.04	0.59
303.15	100	801.88	0.46
303.15	1000	802.43	0.46
303.15	5000	804.87	0.47
303.15	10000	807.78	0.48
303.15	15000	810.59	0.5
303.15	20000	813.29	0.51
303.15	25000	815.92	0.53
303.15	30000	818.45	0.54
303.15	35000	820.92	0.56
303.15	40000	823.29	0.57
303.15	45000	825.61	0.59
313.15	100	795.53	0.46
313.15	1000	796.12	0.46
313.15	5000	798.64	0.47
313.15	10000	801.68	0.48
313.15	15000	804.61	0.5
313.15	20000	807.43	0.51
313.15	25000	810.22	0.53
313.15	30000	812.78	0.54
313.15	35000	815.35	0.56
313.15	40000	817.81	0.58
313.15	45000	820.22	0.6
323.15	100	789.06	0.46
323.15	1000	789.69	0.46
323.15	5000	792.34	0.47
323.15	10000	795.54	0.48
323.15	15000	798.63	0.5
323.15	20000	801.58	0.51
323.15	25000	804.45	0.53
323.15	30000	807.17	0.55
323.15	35000	809.84	0.56
323.15	40000	812.42	0.58
323.15	45000	814.91	0.6
333.15	100	782.73	0.46
333.15	1000	783.37	0.46
333.15	5000	786.19	0.47
333.15	10000	789.56	0.48
333.15	15000	792.76	0.5
333.15	20000	795.83	0.51
333.15	25000	798.79	0.53
333.15	30000	801.62	0.55
333.15	35000	804.39	0.57
333.15	40000	807.03	0.59
333.15	45000	809.62	0.61
343.15	100	776.31	0.45
343.15	1000	777	0.46
343.15	5000	779.93	0.47
343.15	10000	783.45	0.48
343.15	15000	786.81	0.5
343.15	20000	790.03	0.51
343.15	25000	793.12	0.53
343.15	30000	796.08	0.55
343.15	35000	798.94	0.57
343.15	40000	801.71	0.59
343.15	45000	804.4	0.61
353.15	100	770.03	0.45
353.15	1000	770.73	0.45
353.15	5000	773.84	0.46
353.15	10000	777.5	0.48
353.15	15000	781.02	0.5
353.15	20000	784.36	0.51
353.15	25000	787.57	0.53
353.15	30000	790.66	0.55
353.15	35000	793.62	0.57
353.15	40000	796.47	0.59
353.15	45000	799.24	0.62

System: heptane; phases: Liquid
Property: Mass density, kg/m3 (Liquid); method: Vibrating tube method
Temperature, K	Pressure, kPa	Mass density, kg/m3	uncertainty
278.15	100	696.36	0.3
278.15	1000	697.01	0.31
278.15	5000	700.47	0.33
278.15	10000	704.35	0.36
278.15	15000	708.03	0.39
278.15	20000	711.54	0.43
278.15	25000	714.88	0.47
278.15	30000	718.17	0.51
278.15	35000	721.23	0.55
278.15	40000	724.19	0.59
278.15	45000	727.05	0.64
283.15	100	692.23	0.3
283.15	1000	693.01	0.31
283.15	5000	696.39	0.33
283.15	10000	700.44	0.36
283.15	15000	704.24	0.4
283.15	20000	707.85	0.43
283.15	25000	711.27	0.47
283.15	30000	714.56	0.51
283.15	35000	717.81	0.55
283.15	40000	720.8	0.6
283.15	45000	723.72	0.65
293.15	100	683.79	0.3
293.15	1000	684.6	0.31
293.15	5000	688.22	0.33
293.15	10000	692.49	0.36
293.15	15000	696.52	0.4
293.15	20000	700.34	0.44
293.15	25000	703.98	0.48
293.15	30000	707.62	0.52
293.15	35000	710.9	0.56
293.15	40000	714.1	0.61
293.15	45000	717.14	0.66
303.15	100	675.35	0.3
303.15	1000	676.16	0.31
303.15	5000	680.06	0.33
303.15	10000	684.63	0.37
303.15	15000	688.92	0.4
303.15	20000	692.96	0.44
303.15	25000	696.8	0.48
303.15	30000	700.52	0.53
303.15	35000	704	0.58
303.15	40000	707.3	0.62
303.15	45000	710.51	0.67
313.15	100	666.86	0.3
313.15	1000	667.7	0.31
313.15	5000	671.91	0.33
313.15	10000	676.8	0.37
313.15	15000	681.35	0.41
313.15	20000	685.63	0.45
313.15	25000	689.69	0.49
313.15	30000	693.53	0.54
313.15	35000	697.19	0.59
313.15	40000	700.67	0.64
313.15	45000	704.02	0.69
323.15	100	657.9	0.3
323.15	1000	658.85	0.31
323.15	5000	663.24	0.34
323.15	10000	668.53	0.37
323.15	15000	673.44	0.41
323.15	20000	677.94	0.46
323.15	25000	682.25	0.5
323.15	30000	686.3	0.55
323.15	35000	690.15	0.6
323.15	40000	693.83	0.65
323.15	45000	697.33	0.7
333.15	100	648.77	0.31
333.15	1000	649.92	0.31
333.15	5000	654.8	0.34
333.15	10000	660.46	0.38
333.15	15000	665.66	0.42
333.15	20000	670.49	0.46
333.15	25000	675.03	0.51
333.15	30000	679.3	0.56
333.15	35000	683.35	0.61
333.15	40000	687.19	0.66
333.15	45000	690.85	0.71
343.15	100	639.69	0.31
343.15	1000	640.93	0.31
343.15	5000	646.23	0.34
343.15	10000	652.33	0.38
343.15	15000	657.9	0.42
343.15	20000	663.04	0.47
343.15	25000	667.86	0.51
343.15	30000	672.37	0.57
343.15	35000	676.61	0.62
343.15	40000	680.63	0.67
343.15	45000	684.47	0.72
353.15	100	630.49	0.31
353.15	1000	631.83	0.31
353.15	5000	637.6	0.34
353.15	10000	644.13	0.38
353.15	15000	650.11	0.43
353.15	20000	655.53	0.47
353.15	25000	660.64	0.52
353.15	30000	665.38	0.58
353.15	35000	669.83	0.63
353.15	40000	674.08	0.68
353.15	45000	678.04	0.74

System: pentaerythritol tetra(2-ethylhexanoate); phases: Liquid
Property: Mass density, kg/m3 (Liquid); method: Vibrating tube method
Temperature, K	Pressure, kPa	Mass density, kg/m3	uncertainty
278.15	100	971.86	0.53
278.15	1000	972.35	0.53
278.15	5000	974.57	0.53
278.15	10000	977.26	0.53
278.15	15000	979.87	0.54
278.15	20000	982.42	0.54
278.15	25000	984.85	0.54
278.15	30000	987.27	0.54
278.15	35000	989.6	0.54
278.15	40000	991.89	0.54
278.15	45000	994.12	0.54
283.15	100	968.45	0.53
283.15	1000	968.97	0.53
283.15	5000	971.24	0.53
283.15	10000	974.05	0.53
283.15	15000	976.74	0.54
283.15	20000	979.35	0.54
283.15	25000	981.87	0.54
283.15	30000	984.34	0.54
283.15	35000	986.75	0.54
283.15	40000	989.06	0.54
283.15	45000	991.35	0.54
293.15	100	961.62	0.53
293.15	1000	962.16	0.53
293.15	5000	964.55	0.53
293.15	10000	967.46	0.53
293.15	15000	970.3	0.53
293.15	20000	973	0.53
293.15	25000	975.67	0.54
293.15	30000	978.27	0.54
293.15	35000	980.77	0.54
293.15	40000	983.23	0.54
293.15	45000	985.61	0.54
303.15	100	954.72	0.52
303.15	1000	955.27	0.53
303.15	5000	957.79	0.53
303.15	10000	960.83	0.53
303.15	15000	963.79	0.53
303.15	20000	966.65	0.53
303.15	25000	969.41	0.53
303.15	30000	972.11	0.54
303.15	35000	974.73	0.54
303.15	40000	977.27	0.54
303.15	45000	979.76	0.54
313.15	100	947.88	0.52
313.15	1000	948.35	0.52
313.15	5000	950.98	0.52
313.15	10000	954.14	0.53
313.15	15000	957.23	0.53
313.15	20000	960.21	0.53
313.15	25000	963.1	0.53
313.15	30000	965.89	0.53
313.15	35000	968.62	0.53
313.15	40000	971.26	0.54
313.15	45000	973.82	0.54
323.15	100	940.45	0.52
323.15	1000	941.25	0.52
323.15	5000	943.86	0.52
323.15	10000	947.2	0.52
323.15	15000	950.44	0.53
323.15	20000	953.54	0.53
323.15	25000	956.57	0.53
323.15	30000	959.48	0.53
323.15	35000	962.32	0.53
323.15	40000	965	0.54
323.15	45000	967.75	0.54
333.15	100	933.58	0.52
333.15	1000	934.21	0.52
333.15	5000	937.13	0.52
333.15	10000	940.66	0.52
333.15	15000	944.02	0.52
333.15	20000	947.27	0.53
333.15	25000	950.4	0.53
333.15	30000	953.41	0.53
333.15	35000	956.37	0.53
333.15	40000	959.21	0.53
333.15	45000	961.98	0.54
343.15	100	926.49	0.51
343.15	1000	927.17	0.51
343.15	5000	930.23	0.52
343.15	10000	933.89	0.52
343.15	15000	937.42	0.52
343.15	20000	940.81	0.52
343.15	25000	944.09	0.53
343.15	30000	947.23	0.53
343.15	35000	950.27	0.53
343.15	40000	953.23	0.53
343.15	45000	956.09	0.54
353.15	100	919.45	0.51
353.15	1000	920.14	0.51
353.15	5000	923.34	0.51
353.15	10000	927.13	0.52
353.15	15000	930.84	0.52
353.15	20000	934.37	0.52
353.15	25000	937.77	0.53
353.15	30000	941.05	0.53
353.15	35000	944.19	0.53
353.15	40000	947.27	0.53
353.15	45000	950.24	0.54
