Measured thermophysical data. Excess Enthalpy, Density, Viscosity, and Speed of Sound for the Mixture Tetrahydropyran + 1-Butanol at (283.15, 298.15 and, 313.15) K
Source: J. Chem. Eng. Data, 2004, 10.1021/je0498457
Compound 1: tetrahydropyran, C5H10O, InChI=1S/C5H10O/c1-2-4-6-5-3-1/h1-5H2, purity 99%
Compound 2: butan-1-ol, C4H10O, InChI=1S/C4H10O/c1-2-3-4-5/h5H,2-4H2,1H3, purity 99%

System: tetrahydropyran; phases: Liquid
Fixed: Pressure, kPa = 101.325
Property: Viscosity, Pa*s (Liquid); method: CAPTUB:UFactor:2
Temperature, K	Viscosity, Pa*s	uncertainty
283.15	0.001024	1.7e-05
298.15	0.000809	1.39e-05
313.15	0.0006278	1.12e-05

System: tetrahydropyran; phases: Liquid
Fixed: Pressure, kPa = 101.325
Property: Speed of sound, m/s (Liquid); method: PULSEH:UFactor:2
Temperature, K	Speed of sound, m/s	uncertainty
283.15	1339.7	1.7
298.15	1273.1	1.6
313.15	1197.6	1.6

System: tetrahydropyran; phases: Liquid
Fixed: Pressure, kPa = 101.325
Property: Mass density, kg/m3 (Liquid); method: VIBTUB:UFactor:4
Temperature, K	Mass density, kg/m3	uncertainty
283.15	894.72	0.52
298.15	880.83	0.52
313.15	864.6	0.51

System: butan-1-ol; phases: Liquid
Fixed: Pressure, kPa = 101.325
Property: Viscosity, Pa*s (Liquid); method: CAPTUB:UFactor:2
Temperature, K	Viscosity, Pa*s	uncertainty
283.15	0.003869	5.83e-05
298.15	0.0025609	3.95e-05
313.15	0.0017567	2.78e-05

System: butan-1-ol; phases: Liquid
Fixed: Pressure, kPa = 101.325
Property: Speed of sound, m/s (Liquid); method: PULSEH:UFactor:2
Temperature, K	Speed of sound, m/s	uncertainty
283.15	1292	1.6
298.15	1243.1	1.6
313.15	1186.2	1.6

System: butan-1-ol; phases: Liquid
Fixed: Pressure, kPa = 101.325
Property: Mass density, kg/m3 (Liquid); method: VIBTUB:UFactor:4
Temperature, K	Mass density, kg/m3	uncertainty
283.15	816.92	0.68
298.15	805.73	0.69
313.15	794.38	0.71

System: butan-1-ol + tetrahydropyran; phases: Liquid
Fixed: Pressure, kPa = 101.3
Property: Excess molar enthalpy (molar enthalpy of mixing), kJ/mol (Liquid); method: Flow calorimetry
Temperature, K	Mole fraction of tetrahydropyran	Excess molar enthalpy (molar enthalpy of mixing), kJ/mol	uncertainty
283.15	0.04	0.118	0.004
283.15	0.09	0.24	0.006
283.15	0.188	0.452	0.01
283.15	0.288	0.627	0.014
283.15	0.39	0.761	0.016
283.15	0.49	0.833	0.018
283.15	0.593	0.852	0.018
283.15	0.694	0.802	0.017
283.15	0.796	0.664	0.014
283.15	0.901	0.403	0.009
283.15	0.952	0.221	0.006
298.15	0.04	0.125	0.004
298.15	0.09	0.257	0.006
298.15	0.188	0.492	0.011
298.15	0.288	0.691	0.015
298.15	0.39	0.841	0.018
298.15	0.49	0.92	0.02
298.15	0.593	0.931	0.02
298.15	0.694	0.865	0.019
298.15	0.796	0.698	0.015
298.15	0.901	0.412	0.009
298.15	0.952	0.222	0.006
313.15	0.04	0.119	0.004
313.15	0.09	0.258	0.006
313.15	0.188	0.517	0.011
313.15	0.288	0.736	0.016
313.15	0.39	0.899	0.019
313.15	0.49	0.981	0.021
313.15	0.593	0.989	0.021
313.15	0.694	0.912	0.02
313.15	0.796	0.716	0.016
313.15	0.901	0.408	0.009
313.15	0.952	0.216	0.006

System: butan-1-ol + tetrahydropyran; phases: Liquid
Fixed: Pressure, kPa = 101.3
Property: Viscosity, Pa*s (Liquid); method: CAPTUB:UFactor:2
Temperature, K	Mole fraction of tetrahydropyran	Viscosity, Pa*s	uncertainty
283.15	0.0478	0.0033403	4.07e-05
283.15	0.0969	0.0029182	3.58e-05
283.15	0.1984	0.002299	2.86e-05
283.15	0.288	0.0019304	2.43e-05
283.15	0.3973	0.001618	2.06e-05
283.15	0.5005	0.0014136	1.82e-05
283.15	0.6788	0.0011818	1.55e-05
283.15	0.7023	0.0011607	1.52e-05
283.15	0.8041	0.0010855	1.43e-05
283.15	0.9024	0.0010528	1.39e-05
298.15	0.0478	0.0022945	2.85e-05
298.15	0.0969	0.0020561	2.57e-05
298.15	0.1984	0.0016619	2.11e-05
298.15	0.288	0.0014256	1.83e-05
298.15	0.3973	0.0012224	1.59e-05
298.15	0.5005	0.0010866	1.43e-05
298.15	0.6788	0.000931	1.25e-05
298.15	0.7023	0.0009162	1.23e-05
298.15	0.8041	0.0008645	1.17e-05
298.15	0.9024	0.0008316	1.13e-05
313.15	0.0478	0.0016327	2.08e-05
313.15	0.0969	0.0014827	1.9e-05
313.15	0.1984	0.0012552	1.63e-05
313.15	0.288	0.0010859	1.43e-05
313.15	0.3973	0.0009459	1.27e-05
313.15	0.5005	0.0008494	1.15e-05
313.15	0.6788	0.0007345	1.02e-05
313.15	0.7023	0.0007252	1.01e-05
313.15	0.8041	0.0006832	9.6e-06
313.15	0.9024	0.0006584	9.3e-06

System: butan-1-ol + tetrahydropyran; phases: Liquid
Fixed: Pressure, kPa = 101.3
Property: Speed of sound, m/s (Liquid); method: PULSEH:UFactor:2
Temperature, K	Mole fraction of tetrahydropyran	Speed of sound, m/s	uncertainty
283.15	0.0448	1294.9	1.7
283.15	0.1051	1298.7	1.7
283.15	0.201	1304	1.7
283.15	0.3026	1309	1.7
283.15	0.4115	1313.8	1.7
283.15	0.5038	1317.5	1.7
283.15	0.6065	1321.9	1.7
283.15	0.7044	1326.1	1.7
283.15	0.7888	1330	1.7
283.15	0.8925	1334.9	1.7
283.15	0.9533	1337.6	1.7
298.15	0.0471	1245.5	1.6
298.15	0.0972	1247.7	1.6
298.15	0.2026	1251.7	1.6
298.15	0.2903	1254.4	1.6
298.15	0.3266	1255.4	1.6
298.15	0.3987	1257.3	1.6
298.15	0.5146	1260.2	1.6
298.15	0.6077	1262.6	1.6
298.15	0.7128	1265.5	1.6
298.15	0.7996	1267.9	1.6
298.15	0.8595	1269.5	1.6
298.15	0.8915	1270.4	1.6
298.15	0.935	1271.5	1.6
313.15	0.1081	1189.1	1.6
313.15	0.1937	1190.6	1.6
313.15	0.2954	1192.1	1.6
313.15	0.4021	1193.4	1.6
313.15	0.5032	1194.4	1.6
313.15	0.6035	1195.1	1.6
313.15	0.6615	1195.5	1.6
313.15	0.7114	1195.9	1.6
313.15	0.8138	1197	1.6
313.15	0.8906	1197.8	1.6
313.15	0.9373	1198	1.6

System: butan-1-ol + tetrahydropyran; phases: Liquid
Fixed: Pressure, kPa = 101.3
Property: Mass density, kg/m3 (Liquid); method: VIBTUB:UFactor:4
Temperature, K	Mole fraction of tetrahydropyran	Mass density, kg/m3	uncertainty
283.15	0.1036	825.58	0.66
283.15	0.2049	833.85	0.65
283.15	0.3039	841.76	0.64
283.15	0.4059	849.75	0.63
283.15	0.4905	856.26	0.62
283.15	0.6081	865.2	0.61
283.15	0.7057	872.53	0.61
283.15	0.8027	879.78	0.6
283.15	0.899	887.01	0.59
298.15	0.0508	809.82	0.68
298.15	0.1039	814.08	0.68
298.15	0.2056	822.12	0.67
298.15	0.305	829.77	0.66
298.15	0.406	837.37	0.65
298.15	0.4909	843.65	0.64
298.15	0.6079	852.23	0.63
298.15	0.7054	859.31	0.62
298.15	0.8047	866.47	0.61
298.15	0.9043	873.67	0.61
298.15	0.958	877.6	0.6
313.15	0.1039	802.15	0.69
313.15	0.2027	809.43	0.68
313.15	0.3254	818.28	0.67
313.15	0.4063	824	0.66
313.15	0.4883	829.7	0.66
313.15	0.6215	838.8	0.64
313.15	0.7037	844.36	0.64
313.15	0.8037	851.1	0.63
313.15	0.8978	857.5	0.62
