Measured thermophysical data. Phase Behaviors, Density, and Isothermal Compressibility of Styrene + CO2, Ethylbenzene + CO2, and Ethylbezene + Styrene + CO2 Systems
Source: J. Chem. Eng. Data, 2005, 10.1021/je049546h
Compound 1: ethylbenzene, C8H10, InChI=1S/C8H10/c1-2-8-6-4-3-5-7-8/h3-7H,2H2,1H3, purity 99%
Compound 2: carbon dioxide, CO2, InChI=1S/CO2/c2-1-3, purity 99.995%
Compound 3: styrene, C8H8, InChI=1S/C8H8/c1-2-8-6-4-3-5-7-8/h2-7H,1H2, purity 98%

System: carbon dioxide; phases: Liquid, Gas
Property: Critical pressure, kPa (Liquid); method: Direct measurement
Critical pressure, kPa	uncertainty
7360	50

System: carbon dioxide; phases: Liquid, Gas
Property: Critical temperature, K (Liquid); method: Visual observation in a stirred cell
Critical temperature, K	uncertainty
304.2	0.2

System: styrene + carbon dioxide; phases: Liquid, Gas
Property: Critical pressure, kPa (Liquid); method: Direct measurement
Mole fraction of styrene	Critical pressure, kPa	uncertainty
0.0225	8900	50
0.0363	9750	50
0.0488	10440	50

System: styrene + carbon dioxide; phases: Liquid, Gas
Property: Critical temperature, K (Liquid); method: Visual observation in a stirred cell
Mole fraction of styrene	Critical temperature, K	uncertainty
0.0225	318.8	0.2
0.0363	325.7	0.2
0.0488	331	0.2

System: styrene + carbon dioxide; phases: Liquid, Gas
Property: Critical density, kg/m3 (Liquid); method: closed cell phase equilibration
Mole fraction of styrene	Critical density, kg/m3	uncertainty
0.0211	504	15
0.0384	546	16
0.0512	560	17
0.0637	590	18

System: styrene + carbon dioxide; phases: Liquid, Gas
Property: Vapor or sublimation pressure, kPa (Liquid); method: CCELL:UFactor:4
Mole fraction of styrene	Temperature, K	Vapor or sublimation pressure, kPa	uncertainty
0.0225	303.2	6890	110
0.0225	308.2	7590	110
0.0225	313.2	8230	120
0.0225	318.2	8860	120
0.0363	303.2	6770	100
0.0363	308.2	7380	110
0.0363	313.2	8130	120
0.0363	318.2	8750	120
0.0363	323.2	9430	130
0.0488	303.2	6590	100
0.0488	308.2	7240	110
0.0488	313.2	8020	120
0.0488	318.2	8610	120
0.0488	323.2	9290	130
0.0488	328.2	10090	140
0.0742	303.2	6540	100
0.0742	308.2	7150	110
0.0742	313.2	7840	120
0.0742	318.2	8530	120
0.0742	323.2	9260	130
0.0742	328.2	10030	140
0.0742	333.2	10720	140
0.101	303.2	6390	100
0.101	308.2	7000	110
0.101	313.2	7700	120
0.101	318.2	8430	120
0.101	323.2	9190	130
0.101	328.2	9890	140
0.101	333.2	10670	150

System: styrene + carbon dioxide; phases: Gas, Liquid
Property: Vapor or sublimation pressure, kPa (Gas); method: CCELL:UFactor:4
Mole fraction of styrene	Temperature, K	Vapor or sublimation pressure, kPa	uncertainty
0.0225	321.2	9200	130
0.0363	330.2	10300	140
0.0488	333.2	10730	140

System: styrene + carbon dioxide; phases: Liquid, Gas
Property: Mass density, kg/m3 (Liquid); method: Other PVT measurement
Mole fraction of styrene	Temperature, K	Mass density, kg/m3	uncertainty
0.0225	303.2	721	11
0.0225	308.2	675	11
0.0225	313.2	615	12
0.0225	318.2	529	12
0.0363	303.2	755	10
0.0363	308.2	721	10
0.0363	313.2	683	11
0.0363	318.2	635	11
0.0363	323.2	582	11
0.0488	303.2	774	10
0.0488	308.2	747	10
0.0488	313.2	711	10
0.0488	318.2	682	10
0.0488	323.2	645	10
0.0488	328.2	608	10
0.0742	303.2	805	10
0.0742	308.2	781	10
0.0742	313.2	758	10
0.0742	318.2	734	10
0.0742	323.2	711	10
0.0742	328.2	685	10
0.0742	333.2	663	10
0.101	303.2	831	10
0.101	308.2	813	10
0.101	313.2	794	10
0.101	318.2	774	10
0.101	323.2	755	10
0.101	328.2	733	10
0.101	333.2	713	10

System: styrene + carbon dioxide; phases: Gas, Liquid
Property: Mass density, kg/m3 (Gas); method: Other PVT measurement
Mole fraction of styrene	Temperature, K	Mass density, kg/m3	uncertainty
0.0225	321.2	500	10
0.0363	330.2	527	10
0.0488	333.2	570	10

System: ethylbenzene + carbon dioxide; phases: Liquid, Gas
Property: Critical pressure, kPa (Liquid); method: Direct measurement
Mole fraction of ethylbenzene	Critical pressure, kPa	uncertainty
0	7360	50
0.0211	8690	50
0.0384	9630	50
0.0512	10450	50
0.0637	10870	50

System: ethylbenzene + carbon dioxide; phases: Liquid, Gas
Property: Critical temperature, K (Liquid); method: Visual observation in a stirred cell
Mole fraction of ethylbenzene	Critical temperature, K	uncertainty
0	304.2	0.2
0.0211	317.5	0.2
0.0384	326	0.2
0.0512	332.6	0.2
0.0637	335.4	0.2

System: ethylbenzene + carbon dioxide; phases: Liquid, Gas
Property: Critical density, kg/m3 (Liquid); method: closed cell phase equilibration
Mole fraction of ethylbenzene	Critical density, kg/m3	uncertainty
0.0225	520	16
0.0363	545	16
0.0488	580	17

System: ethylbenzene + carbon dioxide; phases: Liquid, Gas
Property: Vapor or sublimation pressure, kPa (Liquid); method: Closed cell (Static) method
Mole fraction of ethylbenzene	Temperature, K	Vapor or sublimation pressure, kPa	uncertainty
0.0211	303.2	6910	80
0.0211	308.2	7630	80
0.0211	313.2	8210	70
0.0384	303.2	6670	70
0.0384	308.2	7250	80
0.0384	313.2	7980	80
0.0384	318.2	8650	80
0.0384	323.2	9320	80
0.0512	303.2	6560	70
0.0512	308.2	7220	80
0.0512	313.2	7890	80
0.0512	318.2	8630	80
0.0512	323.2	9300	80
0.0512	328.2	9950	80
0.0637	303.2	6520	80
0.0637	308.2	7200	80
0.0637	313.2	7850	80
0.0637	318.2	8530	80
0.0637	323.2	9210	80
0.0637	328.2	9910	80
0.0637	333.2	10580	80
0.0751	303.2	6480	70
0.0751	308.2	7110	80
0.0751	313.2	7820	80
0.0751	318.2	8420	80
0.0751	323.2	9110	80
0.0751	328.2	9870	80
0.0751	333.2	10550	80
0.0998	303.2	6420	70
0.0998	308.2	7010	70
0.0998	313.2	7620	80
0.0998	318.2	8300	80
0.0998	323.2	9020	80
0.0998	328.2	9710	80
0.0998	333.2	10480	80

System: ethylbenzene + carbon dioxide; phases: Gas, Liquid
Property: Vapor or sublimation pressure, kPa (Gas); method: Closed cell (Static) method
Mole fraction of ethylbenzene	Temperature, K	Vapor or sublimation pressure, kPa	uncertainty
0.0211	318.2	8780	70
0.0384	328.2	9980	70
0.0512	333.2	10640	70

System: ethylbenzene + carbon dioxide; phases: Liquid, Gas
Property: Mass density, kg/m3 (Liquid); method: Other PVT measurement
Mole fraction of ethylbenzene	Temperature, K	Mass density, kg/m3	uncertainty
0.0211	303.2	709	11
0.0211	308.2	665	11
0.0211	313.2	590	12
0.0384	303.2	741	10
0.0384	308.2	715	10
0.0384	313.2	673	11
0.0384	318.2	633	11
0.0384	323.2	583	11
0.0512	303.2	762	10
0.0512	308.2	735	10
0.0512	313.2	702	10
0.0512	318.2	671	10
0.0512	323.2	630	10
0.0512	328.2	603	10
0.0637	303.2	782	10
0.0637	308.2	761	10
0.0637	313.2	731	10
0.0637	318.2	703	10
0.0637	323.2	675	10
0.0637	328.2	642	10
0.0637	333.2	607	10
0.0751	303.2	790	10
0.0751	308.2	769	10
0.0751	313.2	748	10
0.0751	318.2	722	10
0.0751	323.2	697	10
0.0751	328.2	672	10
0.0751	333.2	646	10
0.0998	303.2	818	10
0.0998	308.2	799	10
0.0998	313.2	779	10
0.0998	318.2	760	10
0.0998	323.2	742	10
0.0998	328.2	723	10
0.0998	333.2	706	10

System: ethylbenzene + carbon dioxide; phases: Gas, Liquid
Property: Mass density, kg/m3 (Gas); method: Other PVT measurement
Mole fraction of ethylbenzene	Temperature, K	Mass density, kg/m3	uncertainty
0.0211	318.2	498	10
0.0384	328.2	533	10
0.0512	333.2	557	10

System: ethylbenzene + styrene + carbon dioxide; phases: Liquid, Gas
Property: Critical pressure, kPa (Liquid); method: Direct measurement
Mole fraction of ethylbenzene	Mole fraction of styrene	Critical pressure, kPa	uncertainty
0.0125	0.0375	10310	50
0.0168	0.0329	10410	50
0.017	0.051	11190	50
0.023	0.0462	11210	50

System: ethylbenzene + styrene + carbon dioxide; phases: Liquid, Gas
Property: Critical temperature, K (Liquid); method: Visual observation in a stirred cell
Mole fraction of ethylbenzene	Mole fraction of styrene	Critical temperature, K	uncertainty
0.0125	0.0375	330.8	0.2
0.0168	0.0329	331	0.2
0.017	0.051	337.2	0.2
0.023	0.0462	338	0.2

System: ethylbenzene + styrene + carbon dioxide; phases: Liquid, Gas
Property: Critical density, kg/m3 (Liquid); method: closed cell phase equilibration
Mole fraction of ethylbenzene	Mole fraction of styrene	Critical density, kg/m3	uncertainty
0.0125	0.0375	568	17
0.0168	0.0329	570	17
0.017	0.051	598	18
0.023	0.0462	603	18

System: ethylbenzene + styrene + carbon dioxide; phases: Liquid, Gas
Property: Vapor or sublimation pressure, kPa (Liquid); method: Closed cell (Static) method
Mole fraction of ethylbenzene	Mole fraction of styrene	Temperature, K	Vapor or sublimation pressure, kPa	uncertainty
0	0.0225	303.2	6890	80
0	0.0225	308.2	7590	80
0	0.0225	313.2	8230	80
0	0.0225	318.2	8860	80
0	0.0363	303.2	6770	70
0	0.0363	308.2	7380	80
0	0.0363	313.2	8130	80
0	0.0363	318.2	8750	80
0	0.0363	323.2	9430	80
0	0.0488	303.2	6590	70
0	0.0488	308.2	7240	80
0	0.0488	313.2	8020	80
0	0.0488	318.2	8610	80
0	0.0488	323.2	9290	80
0	0.0488	328.2	10090	90
0	0.0742	303.2	6540	70
0	0.0742	308.2	7150	80
0	0.0742	313.2	7840	80
0	0.0742	318.2	8530	80
0	0.0742	323.2	9260	80
0	0.0742	328.2	10030	80
0	0.0742	333.2	10720	80
0	0.101	303.2	6390	70
0	0.101	308.2	7000	80
0	0.101	313.2	7700	80
0	0.101	318.2	8430	80
0	0.101	323.2	9190	80
0	0.101	328.2	9890	80
0	0.101	333.2	10670	90
0.0125	0.0375	303.2	6620	80
0.0125	0.0375	308.2	7300	80
0.0125	0.0375	313.2	7970	80
0.0125	0.0375	318.2	8670	80
0.0125	0.0375	323.2	9340	80
0.0125	0.0375	328.2	9980	80
0.0168	0.0329	303.2	6660	80
0.0168	0.0329	308.2	7360	80
0.0168	0.0329	313.2	8040	80
0.0168	0.0329	318.2	8690	80
0.0168	0.0329	323.2	9360	80
0.0168	0.0329	328.2	10020	80
0.017	0.051	303.2	6560	70
0.017	0.051	308.2	7160	70
0.017	0.051	313.2	7780	80
0.017	0.051	318.2	8520	80
0.017	0.051	323.2	9240	80
0.017	0.051	328.2	9940	80
0.017	0.051	333.2	10560	80
0.0211	0	303.2	6910	80
0.0211	0	308.2	7630	80
0.0211	0	313.2	8210	70
0.023	0.0462	303.2	6450	70
0.023	0.0462	308.2	7100	80
0.023	0.0462	313.2	7830	80
0.023	0.0462	318.2	8450	80
0.023	0.0462	323.2	9180	80
0.023	0.0462	328.2	9920	80
0.023	0.0462	333.2	10560	80
0.026	0.0781	303.2	6370	80
0.026	0.0781	308.2	7040	80
0.026	0.0781	313.2	7890	80
0.026	0.0781	318.2	8370	70
0.026	0.0781	323.2	9100	80
0.026	0.0781	328.2	9940	80
0.026	0.0781	333.2	10590	80
0.0324	0.0662	303.2	6310	80
0.0324	0.0662	308.2	7010	80
0.0324	0.0662	313.2	7690	80
0.0324	0.0662	318.2	8410	80
0.0324	0.0662	323.2	9110	80
0.0324	0.0662	328.2	9770	80
0.0324	0.0662	333.2	10640	90
0.0384	0	303.2	6670	70
0.0384	0	308.2	7250	80
0.0384	0	313.2	7980	80
0.0384	0	318.2	8650	80
0.0384	0	323.2	9320	80
0.0512	0	303.2	6560	70
0.0512	0	308.2	7220	80
0.0512	0	313.2	7890	80
0.0512	0	318.2	8630	80
0.0512	0	323.2	9300	80
0.0512	0	328.2	9950	80
0.0637	0	303.2	6520	80
0.0637	0	308.2	7200	80
0.0637	0	313.2	7850	80
0.0637	0	318.2	8530	80
0.0637	0	323.2	9210	80
0.0637	0	328.2	9910	80
0.0637	0	333.2	10580	80
0.0751	0	303.2	6480	70
0.0751	0	308.2	7110	80
0.0751	0	313.2	7820	80
0.0751	0	318.2	8420	80
0.0751	0	323.2	9110	80
0.0751	0	328.2	9870	80
0.0751	0	333.2	10550	80
0.0998	0	303.2	6420	70
0.0998	0	308.2	7010	70
0.0998	0	313.2	7620	80
0.0998	0	318.2	8300	80
0.0998	0	323.2	9020	80
0.0998	0	328.2	9710	80
0.0998	0	333.2	10480	80

System: ethylbenzene + styrene + carbon dioxide; phases: Gas, Liquid
Property: Vapor or sublimation pressure, kPa (Gas); method: Closed cell (Static) method
Mole fraction of ethylbenzene	Mole fraction of styrene	Temperature, K	Vapor or sublimation pressure, kPa	uncertainty
0	0.0225	321.2	9200	70
0	0.0363	330.2	10300	70
0	0.0488	333.2	10730	80
0.0125	0.0375	333.2	10680	80
0.0168	0.0329	333.2	10720	80
0.017	0.051	341.2	11770	80
0.0211	0	318.2	8780	70
0.023	0.0462	341.2	11700	80
0.0384	0	328.2	9980	70
0.0512	0	333.2	10640	70

System: ethylbenzene + styrene + carbon dioxide; phases: Liquid, Gas
Property: Mass density, kg/m3 (Liquid); method: Other PVT measurement
Mole fraction of ethylbenzene	Mole fraction of styrene	Temperature, K	Mass density, kg/m3	uncertainty
0	0.0225	303.2	721	11
0	0.0225	308.2	675	11
0	0.0225	313.2	615	12
0	0.0225	318.2	529	12
0	0.0363	303.2	755	10
0	0.0363	308.2	721	10
0	0.0363	313.2	683	11
0	0.0363	318.2	635	11
0	0.0363	323.2	582	11
0	0.0488	303.2	774	10
0	0.0488	308.2	747	10
0	0.0488	313.2	711	10
0	0.0488	318.2	682	10
0	0.0488	323.2	645	10
0	0.0488	328.2	608	10
0	0.0742	303.2	805	10
0	0.0742	308.2	781	10
0	0.0742	313.2	758	10
0	0.0742	318.2	734	10
0	0.0742	323.2	711	10
0	0.0742	328.2	685	10
0	0.0742	333.2	663	10
0	0.101	303.2	831	10
0	0.101	308.2	813	10
0	0.101	313.2	794	10
0	0.101	318.2	774	10
0	0.101	323.2	755	10
0	0.101	328.2	733	10
0	0.101	333.2	713	10
0.0125	0.0375	303.2	771	10
0.0125	0.0375	308.2	744	10
0.0125	0.0375	313.2	711	10
0.0125	0.0375	318.2	675	10
0.0125	0.0375	323.2	637	10
0.0125	0.0375	328.2	599	10
0.0168	0.0329	303.2	767	10
0.0168	0.0329	308.2	740	10
0.0168	0.0329	313.2	708	10
0.0168	0.0329	318.2	674	10
0.0168	0.0329	323.2	636	10
0.0168	0.0329	328.2	599	10
0.017	0.051	303.2	798	10
0.017	0.051	308.2	777	10
0.017	0.051	313.2	752	10
0.017	0.051	318.2	729	10
0.017	0.051	323.2	700	10
0.017	0.051	328.2	670	10
0.017	0.051	333.2	647	10
0.0211	0	303.2	709	11
0.0211	0	308.2	665	11
0.0211	0	313.2	590	12
0.023	0.0462	303.2	801	10
0.023	0.0462	308.2	780	10
0.023	0.0462	313.2	753	10
0.023	0.0462	318.2	727	10
0.023	0.0462	323.2	701	10
0.023	0.0462	328.2	671	10
0.023	0.0462	333.2	648	10
0.026	0.0781	303.2	816	10
0.026	0.0781	308.2	801	10
0.026	0.0781	313.2	780	10
0.026	0.0781	318.2	767	10
0.026	0.0781	323.2	748	10
0.026	0.0781	328.2	730	10
0.026	0.0781	333.2	712	10
0.0324	0.0662	303.2	815	10
0.0324	0.0662	308.2	802	10
0.0324	0.0662	313.2	784	10
0.0324	0.0662	318.2	765	10
0.0324	0.0662	323.2	744	10
0.0324	0.0662	328.2	724	10
0.0324	0.0662	333.2	701	10
0.0384	0	303.2	741	10
0.0384	0	308.2	715	10
0.0384	0	313.2	673	11
0.0384	0	318.2	633	11
0.0384	0	323.2	583	11
0.0512	0	303.2	762	10
0.0512	0	308.2	735	10
0.0512	0	313.2	702	10
0.0512	0	318.2	671	10
0.0512	0	323.2	630	10
0.0512	0	328.2	603	10
0.0637	0	303.2	782	10
0.0637	0	308.2	761	10
0.0637	0	313.2	731	10
0.0637	0	318.2	703	10
0.0637	0	323.2	675	10
0.0637	0	328.2	642	10
0.0637	0	333.2	607	10
0.0751	0	303.2	790	10
0.0751	0	308.2	769	10
0.0751	0	313.2	748	10
0.0751	0	318.2	722	10
0.0751	0	323.2	697	10
0.0751	0	328.2	672	10
0.0751	0	333.2	646	10
0.0998	0	303.2	818	10
0.0998	0	308.2	799	10
0.0998	0	313.2	779	10
0.0998	0	318.2	760	10
0.0998	0	323.2	742	10
0.0998	0	328.2	723	10
0.0998	0	333.2	706	10

System: ethylbenzene + styrene + carbon dioxide; phases: Gas, Liquid
Property: Mass density, kg/m3 (Gas); method: Other PVT measurement
Mole fraction of ethylbenzene	Mole fraction of styrene	Temperature, K	Mass density, kg/m3	uncertainty
0	0.0225	321.2	500	10
0	0.0363	330.2	527	10
0	0.0488	333.2	570	10
0.0125	0.0375	333.2	553	10
0.0168	0.0329	333.2	558	10
0.017	0.051	341.2	590	10
0.0211	0	318.2	498	10
0.023	0.0462	341.2	590	10
0.0384	0	328.2	533	10
0.0512	0	333.2	557	10
