Measured thermophysical data. Densities and Viscosities of Binary Mixtures of Paraldehyde + Propylene Carbonate at (288.15, 293.15, 298.15, 303.15, and 308.15) K
Source: J. Chem. Eng. Data, 2005, 10.1021/je0496903
Compound 1: 2,4,6-trimethyl-1,3,5-trioxane, C6H12O3, InChI=1S/C6H12O3/c1-4-7-5(2)9-6(3)8-4/h4-6H,1-3H3
Compound 2: 4-methyl-1,3-dioxolan-2-one, C4H6O3, InChI=1S/C4H6O3/c1-3-2-6-4(5)7-3/h3H,2H2,1H3

System: 2,4,6-trimethyl-1,3,5-trioxane; phases: Liquid
Fixed: Pressure, kPa = 101.3
Property: Viscosity, Pa*s (Liquid); method: CAPTUB:UFactor:2
Temperature, K	Viscosity, Pa*s	uncertainty
288.15	0.001374	2.6e-05
293.15	0.001224	2.3e-05
298.15	0.001107	2.1e-05
303.15	0.001001	1.9e-05
308.15	0.000907	1.8e-05

System: 2,4,6-trimethyl-1,3,5-trioxane; phases: Liquid
Fixed: Pressure, kPa = 101.3
Property: Mass density, kg/m3 (Liquid); method: PYCNOM:UFactor:4
Temperature, K	Mass density, kg/m3	uncertainty
288.15	999.69	1.8
293.15	994.14	1.76
298.15	988.35	1.8
303.15	982.64	1.84
308.15	976.44	1.89

System: 4-methyl-1,3-dioxolan-2-one; phases: Liquid
Fixed: Pressure, kPa = 101.3
Property: Viscosity, Pa*s (Liquid); method: CAPTUB:UFactor:2
Temperature, K	Viscosity, Pa*s	uncertainty
288.15	0.003086	4.9e-05
293.15	0.002762	4.4e-05
298.15	0.002499	4e-05
303.15	0.002271	3.6e-05
308.15	0.002073	3.3e-05

System: 4-methyl-1,3-dioxolan-2-one; phases: Liquid
Fixed: Pressure, kPa = 101.3
Property: Mass density, kg/m3 (Liquid); method: PYCNOM:UFactor:4
Temperature, K	Mass density, kg/m3	uncertainty
288.15	1208.67	1.86
293.15	1203.38	1.82
298.15	1197.58	1.86
303.15	1192.53	1.89
308.15	1187.16	1.94

System: 4-methyl-1,3-dioxolan-2-one + 2,4,6-trimethyl-1,3,5-trioxane; phases: Liquid
Fixed: Pressure, kPa = 101.3
Property: Viscosity, Pa*s (Liquid); method: CAPTUB:UFactor:2
Temperature, K	Mole fraction of 2,4,6-trimethyl-1,3,5-trioxane	Viscosity, Pa*s	uncertainty
288.15	0	0.003086	4.9e-05
288.15	0.091	0.002966	4.8e-05
288.15	0.2019	0.002809	4.6e-05
288.15	0.3007	0.002661	4.4e-05
288.15	0.4055	0.002494	4.2e-05
288.15	0.5011	0.002333	4e-05
288.15	0.6022	0.002155	3.7e-05
288.15	0.7006	0.001974	3.5e-05
288.15	0.8028	0.001779	3.2e-05
288.15	0.9028	0.001581	2.9e-05
288.15	1	0.001374	2.6e-05
293.15	0	0.002762	4.4e-05
293.15	0.091	0.002641	4.3e-05
293.15	0.2019	0.002499	4.1e-05
293.15	0.3007	0.002364	3.9e-05
293.15	0.4055	0.002215	3.8e-05
293.15	0.5011	0.00207	3.6e-05
293.15	0.6022	0.00191	3.4e-05
293.15	0.7006	0.00175	3.1e-05
293.15	0.8028	0.001577	2.9e-05
293.15	0.9028	0.001402	2.6e-05
293.15	1	0.001224	2.3e-05
298.15	0	0.002499	4e-05
298.15	0.091	0.002386	3.9e-05
298.15	0.2019	0.002245	3.7e-05
298.15	0.3007	0.002116	3.5e-05
298.15	0.4055	0.001977	3.4e-05
298.15	0.5011	0.001846	3.2e-05
298.15	0.6022	0.001705	3e-05
298.15	0.7006	0.001563	2.8e-05
298.15	0.8028	0.001412	2.6e-05
298.15	0.9028	0.00126	2.4e-05
298.15	1	0.001107	2.1e-05
303.15	0	0.002271	3.6e-05
303.15	0.091	0.002161	3.5e-05
303.15	0.2019	0.002027	3.3e-05
303.15	0.3007	0.001907	3.2e-05
303.15	0.4055	0.001779	3e-05
303.15	0.5011	0.001661	2.9e-05
303.15	0.6022	0.001531	2.7e-05
303.15	0.7006	0.001402	2.5e-05
303.15	0.8028	0.001268	2.3e-05
303.15	0.9028	0.001134	2.1e-05
303.15	1	0.001001	1.9e-05
308.15	0	0.002073	3.3e-05
308.15	0.091	0.001969	3.2e-05
308.15	0.2019	0.001843	3.1e-05
308.15	0.3007	0.001732	2.9e-05
308.15	0.4055	0.001614	2.8e-05
308.15	0.5011	0.001505	2.6e-05
308.15	0.6022	0.001385	2.5e-05
308.15	0.7006	0.001267	2.3e-05
308.15	0.8028	0.001144	2.1e-05
308.15	0.9028	0.001024	1.9e-05
308.15	1	0.000907	1.8e-05

System: 4-methyl-1,3-dioxolan-2-one + 2,4,6-trimethyl-1,3,5-trioxane; phases: Liquid
Fixed: Pressure, kPa = 101.3
Property: Mass density, kg/m3 (Liquid); method: PYCNOM:UFactor:4
Temperature, K	Mole fraction of 2,4,6-trimethyl-1,3,5-trioxane	Mass density, kg/m3	uncertainty
288.15	0	1208.67	1.86
288.15	0.091	1181.68	1.89
288.15	0.2019	1151.81	1.86
288.15	0.3007	1127.63	1.83
288.15	0.4055	1104.07	1.82
288.15	0.5011	1084.21	1.81
288.15	0.6022	1064.71	1.8
288.15	0.7006	1046.98	1.8
288.15	0.8028	1029.73	1.81
288.15	0.9028	1014	1.81
288.15	1	999.69	1.8
293.15	0	1203.38	1.82
293.15	0.091	1176.49	1.79
293.15	0.2019	1146.69	1.77
293.15	0.3007	1122.53	1.75
293.15	0.4055	1098.95	1.74
293.15	0.5011	1079.06	1.73
293.15	0.6022	1059.49	1.73
293.15	0.7006	1041.68	1.73
293.15	0.8028	1024.34	1.74
293.15	0.9028	1008.53	1.75
293.15	1	994.14	1.76
298.15	0	1197.58	1.86
298.15	0.091	1170.78	1.83
298.15	0.2019	1141.1	1.81
298.15	0.3007	1117.02	1.79
298.15	0.4055	1093.5	1.78
298.15	0.5011	1073.63	1.78
298.15	0.6022	1054.05	1.77
298.15	0.7006	1036.19	1.77
298.15	0.8028	1018.75	1.78
298.15	0.9028	1002.79	1.79
298.15	1	988.35	1.8
303.15	0	1192.53	1.89
303.15	0.091	1165.71	1.87
303.15	0.2019	1135.99	1.85
303.15	0.3007	1111.87	1.83
303.15	0.4055	1088.3	1.82
303.15	0.5011	1068.37	1.82
303.15	0.6022	1048.71	1.82
303.15	0.7006	1030.77	1.82
303.15	0.8028	1013.22	1.82
303.15	0.9028	997.17	1.83
303.15	1	982.64	1.84
308.15	0	1187.16	1.94
308.15	0.091	1160.25	1.87
308.15	0.2019	1130.48	1.86
308.15	0.3007	1106.33	1.85
308.15	0.4055	1082.74	1.84
308.15	0.5011	1062.77	1.84
308.15	0.6022	1043.05	1.84
308.15	0.7006	1025	1.84
308.15	0.8028	1007.31	1.85
308.15	0.9028	991.06	1.86
308.15	1	976.44	1.89
