Measured thermophysical data. Density, Viscosity and Thermal Conductivity of Aqueous Benzoic Acid Mixtures between 375 K and 465 K
Source: J. Chem. Eng. Data, 2004, 10.1021/je0497247
Compound 1: water, H2O, InChI=1S/H2O/h1H2, purity 99.999%
Compound 2: benzoic acid, C7H6O2, InChI=1S/C7H6O2/c8-7(9)6-4-2-1-3-5-6/h1-5H,(H,8,9)

System: benzoic acid; phases: Liquid
Fixed: Pressure, kPa = 100
Property: Thermal conductivity, W/m/K (Liquid); method: HOTW:UFactor:8
Temperature, K	Thermal conductivity, W/m/K	uncertainty
406.8	0.139	0.006
424.4	0.137	0.006
444.9	0.134	0.006
465.1	0.132	0.006

System: benzoic acid; phases: Liquid
Fixed: Pressure, kPa = 100
Property: Viscosity, Pa*s (Liquid); method: Capillary tube (Ostwald; Ubbelohde) method
Temperature, K	Viscosity, Pa*s	uncertainty
400.3	0.001372	3.7e-05
409.3	0.001238	3.2e-05
418.3	0.001117	3e-05
427.2	0.001026	2.8e-05
432.1	0.000953	2.6e-05
447.1	0.000802	2.2e-05

System: benzoic acid; phases: Liquid
Fixed: Pressure, kPa = 100
Property: Mass density, kg/m3 (Liquid); method: Pycnometric method
Temperature, K	Mass density, kg/m3	uncertainty
401.3	1089.5	3
410.3	1080.2	3.2
419.3	1069.8	3
428.2	1060.2	3
432.1	1055	3
447.1	1036	3

System: benzoic acid + water; phases: Liquid
Fixed: Pressure, kPa = 100
Property: Thermal conductivity, W/m/K (Liquid); method: HOTW:UFactor:8
Mass fraction of benzoic acid	Temperature, K	Thermal conductivity, W/m/K	uncertainty
0.05	374.6	0.671	0.023
0.05	393.6	0.675	0.023
0.05	413.3	0.676	0.023
0.1	373	0.659	0.023
0.1	394.2	0.662	0.023
0.1	410.9	0.67	0.023
0.2	391	0.649	0.022
0.2	409.2	0.65	0.022
0.2	418	0.651	0.022
0.4	393.6	0.575	0.02
0.4	409.2	0.571	0.02
0.4	420.1	0.549	0.019
0.4	430.1	0.568	0.02
0.8	393.9	0.199	0.008
0.8	413.2	0.197	0.008
0.8	433.1	0.192	0.008
0.8	451	0.188	0.008
1	406.8	0.139	0.006
1	424.4	0.137	0.006
1	444.9	0.134	0.006
1	465.1	0.132	0.006

System: benzoic acid + water; phases: Liquid
Fixed: Pressure, kPa = 100
Property: Viscosity, Pa*s (Liquid); method: Capillary tube (Ostwald; Ubbelohde) method
Mass fraction of benzoic acid	Temperature, K	Viscosity, Pa*s	uncertainty
0.05	381.1	0.000288	3e-06
0.05	397.6	0.000256	3e-06
0.05	416.4	0.000219	3e-06
0.05	436.1	0.000194	3e-06
0.05	453.8	0.000177	2e-06
0.1	380.6	0.000319	4e-06
0.1	395.9	0.000272	3e-06
0.1	415.1	0.000236	3e-06
0.1	431.4	0.000211	3e-06
0.1	447.9	0.000194	3e-06
0.2	401.8	0.000329	4e-06
0.2	416.8	0.000274	4e-06
0.2	434.9	0.000234	3e-06
0.2	455.4	0.000206	3e-06
0.4	402.3	0.000501	8e-06
0.4	417.8	0.000383	6e-06
0.4	435.6	0.000309	5e-06
0.4	455.1	0.000263	4e-06
0.6	403.1	0.000708	1.3e-05
0.6	418.9	0.000547	1.1e-05
0.6	436.9	0.000399	8e-06
0.6	456.4	0.000334	6e-06
0.8	402.4	0.000931	2.2e-05
0.8	418.8	0.00069	1.6e-05
0.8	434.3	0.000542	1.3e-05
0.8	452.4	0.000438	1e-05
1	400.3	0.001372	3.7e-05
1	409.3	0.001238	3.2e-05
1	418.3	0.001117	3e-05
1	427.2	0.001026	2.8e-05
1	432.1	0.000953	2.6e-05
1	447.1	0.000802	2.2e-05

System: benzoic acid + water; phases: Liquid
Fixed: Pressure, kPa = 100
Property: Mass density, kg/m3 (Liquid); method: Pycnometric method
Mass fraction of benzoic acid	Temperature, K	Mass density, kg/m3	uncertainty
0.05	379.6	963.7	0.8
0.05	394.6	951.9	0.8
0.05	413.4	935.5	0.9
0.05	433.1	915.2	1
0.05	450.8	896.3	1.1
0.1	379.1	974.1	0.9
0.1	392.9	961	0.9
0.1	412.1	945.4	0.9
0.1	428.4	929.6	1
0.1	444.9	912.6	1.1
0.2	400.3	963.5	1
0.2	413.8	950.8	1.1
0.2	431.9	933.7	1.1
0.2	452.4	912	1.2
0.4	400.8	988.8	1.4
0.4	414.8	975.1	1.4
0.4	432.6	955	1.5
0.4	452.1	932	1.4
0.6	401.6	1013.8	1.9
0.6	415.9	999.2	1.8
0.6	433.9	981.1	1.9
0.6	453.4	959.5	1.9
0.8	400.9	1050.1	2.4
0.8	414.8	1035	2.4
0.8	431.3	1018.8	2.4
0.8	449.4	1000.5	2.3
1	401.3	1089.5	3
1	410.3	1080.2	3.2
1	419.3	1069.8	3
1	428.2	1060.2	3
1	432.1	1055	3
1	447.1	1036	3
