Measured thermophysical data. Vapor Liquid Equilibrium for Binary System of 2-Propanol + 1,1-Diethoxyethane at 353 K and Ethyl ethanoate + 1,1-Diethoxyethane at 348 K and 2-Propanone + 1,1-Diethoxyethane at 328 K
Source: J. Chem. Eng. Data, 2005, 10.1021/je049816w
Compound 1: acetone, C3H6O, InChI=1S/C3H6O/c1-3(2)4/h1-2H3
Compound 2: 1,1-diethoxyethane, C6H14O2, InChI=1S/C6H14O2/c1-4-7-6(3)8-5-2/h6H,4-5H2,1-3H3
Compound 3: ethyl acetate, C4H8O2, InChI=1S/C4H8O2/c1-3-6-4(2)5/h3H2,1-2H3
Compound 4: propan-2-ol, C3H8O, InChI=1S/C3H8O/c1-3(2)4/h3-4H,1-2H3

System: 1,1-diethoxyethane; phases: Liquid, Gas
Property: Vapor or sublimation pressure, kPa (Liquid); method: Ebulliometric method (Recirculating still)
Temperature, K	Vapor or sublimation pressure, kPa	uncertainty
328.35	19	0.2
341.62	32.1	0.2
345.13	36.7	0.2
348.33	41.1	0.2
353.38	49.2	0.2
357.95	57.9	0.3
361.96	66.1	0.3
364.68	72.3	0.3
366.99	77.9	0.3
369.09	83.1	0.3
371.7	90.1	0.3
373.41	94.8	0.3
375.27	100	0.3

System: acetone + 1,1-diethoxyethane; phases: Liquid, Gas
Property: Vapor or sublimation pressure, kPa (Liquid); method: Ebulliometric method (Recirculating still)
Mole fraction of acetone	Temperature, K	Vapor or sublimation pressure, kPa	uncertainty
0	328.35	19	0.2
0.0746	328.24	28.6	1
0.1169	328.3	33.6	1
0.2374	328.24	44.9	1.1
0.3066	328.31	51.1	0.8
0.3277	328.31	52.7	0.8
0.345	328.31	54	0.8
0.3875	328.3	57.1	0.8
0.4302	328.32	60.1	0.9
0.469	328.31	63.2	1.4
0.524	328.29	66.3	0.8
0.5961	328.34	71	0.8
0.6749	328.27	75.7	0.8
0.7272	328.31	79.1	0.9
0.7637	328.24	81.4	0.9
0.8509	328.29	87.3	0.9
0.9019	328.3	90.6	0.7
0.9478	328.31	93.7	0.9
0.9777	328.33	95.8	0.9
0.9923	328.32	96.8	0.8
1	328.32	97.3	0.6

System: acetone + 1,1-diethoxyethane; phases: Gas, Liquid
Property: Mole fraction of acetone (Gas); method: Chromatography
Mole fraction of acetone	Temperature, K	Mole fraction of acetone	uncertainty
0	328.35	0	
0.0746	328.24	0.3906	0.0201
0.1169	328.3	0.496	0.0193
0.2374	328.24	0.6686	0.0201
0.3066	328.31	0.7339	0.012
0.3277	328.31	0.7467	0.0118
0.345	328.31	0.7558	0.0116
0.3875	328.3	0.7815	0.0118
0.4302	328.32	0.8033	0.0115
0.469	328.31	0.824	0.0138
0.524	328.29	0.8443	0.0108
0.5961	328.34	0.8688	0.0107
0.6749	328.27	0.8965	0.0106
0.7272	328.31	0.9139	0.0105
0.7637	328.24	0.9261	0.0105
0.8509	328.29	0.9521	0.0105
0.9019	328.3	0.968	0.0104
0.9478	328.31	0.9825	0.0105
0.9777	328.33	0.9925	0.0075
0.9923	328.32	0.9973	0.0027
1	328.32	1	

System: 1,1-diethoxyethane + ethyl acetate; phases: Liquid, Gas
Property: Vapor or sublimation pressure, kPa (Liquid); method: Ebulliometric method (Recirculating still)
Mole fraction of ethyl acetate	Temperature, K	Vapor or sublimation pressure, kPa	uncertainty
0	348.33	41.1	0.3
0.0839	348.31	46.2	0.7
0.1336	348.33	49.4	0.7
0.208	348.33	53.7	0.7
0.2746	348.3	57.6	0.7
0.3274	348.32	60.7	0.7
0.3793	348.3	63.6	0.7
0.4245	348.31	66.2	0.8
0.5088	348.32	71.2	0.8
0.5695	348.3	74.6	0.7
0.6382	348.31	78.2	0.8
0.7023	348.32	81.5	0.6
0.757	348.33	84.5	0.8
0.8055	348.31	86.8	0.8
0.8554	348.3	89.3	0.8
0.9059	348.31	91.7	0.8
0.9625	348.34	94.3	0.8
0.9897	348.32	95.5	0.9
1	348.31	95.9	0.6

System: 1,1-diethoxyethane + ethyl acetate; phases: Gas, Liquid
Property: Mole fraction of ethyl acetate (Gas); method: Chromatography
Mole fraction of ethyl acetate	Temperature, K	Mole fraction of ethyl acetate	uncertainty
0	348.33	0	
0.0839	348.31	0.1891	0.0232
0.1336	348.33	0.2793	0.0186
0.208	348.33	0.3942	0.0188
0.2746	348.3	0.4802	0.0162
0.3274	348.32	0.5386	0.0152
0.3793	348.3	0.5907	0.0145
0.4245	348.31	0.6336	0.0125
0.5088	348.32	0.702	0.0132
0.5695	348.3	0.7487	0.0125
0.6382	348.31	0.7951	0.0171
0.7023	348.32	0.8352	0.0124
0.757	348.33	0.8686	0.0117
0.8055	348.31	0.8952	0.0117
0.8554	348.3	0.9239	0.0115
0.9059	348.31	0.9507	0.0113
0.9625	348.34	0.9807	0.0113
0.9897	348.32	0.9948	0.0052
1	348.31	1	

System: propan-2-ol + 1,1-diethoxyethane; phases: Liquid, Gas
Property: Azeotropic composition: mole fraction of propan-2-ol (Liquid); method: By X=Y
Temperature, K	Azeotropic composition: mole fraction of propan-2-ol	uncertainty
353	0.916	0.01

System: propan-2-ol + 1,1-diethoxyethane; phases: Liquid, Gas
Property: Azeotropic composition: mole fraction of propan-2-ol (Liquid); method: By X=Y
Pressure, kPa	Azeotropic composition: mole fraction of propan-2-ol	uncertainty
94.2	0.916	0.01

System: propan-2-ol + 1,1-diethoxyethane; phases: Liquid, Gas
Property: Vapor or sublimation pressure, kPa (Liquid); method: Ebulliometric method (Recirculating still)
Mole fraction of propan-2-ol	Temperature, K	Vapor or sublimation pressure, kPa	uncertainty
0	353.38	48.9	0.4
0.0151	353.36	50.9	1.4
0.045	353.36	54.9	1.4
0.0852	353.37	59.6	1.2
0.1354	353.34	64.6	1
0.1767	353.35	68.3	0.9
0.237	353.35	72.7	0.9
0.2845	353.33	75.8	0.9
0.3321	353.28	78.3	0.7
0.3687	353.28	80.1	0.7
0.4163	353.29	82.3	0.7
0.458	353.32	84	0.7
0.4991	353.32	85.5	0.7
0.5315	353.31	86.6	0.7
0.5715	353.33	88	0.6
0.6298	353.34	89.7	0.7
0.687	353.33	91.2	0.7
0.735	353.34	92.6	0.6
0.779	353.34	93.5	0.7
0.8152	353.32	93.9	0.6
0.9162	353.31	94.2	0.6
0.9452	353.32	94	0.6
0.9638	353.31	94	0.6
0.9826	353.31	93.9	0.6
0.9944	353.35	93.9	0.6
1	353.34	93.9	0.6

System: propan-2-ol + 1,1-diethoxyethane; phases: Gas, Liquid
Property: Mole fraction of propan-2-ol (Gas); method: Chromatography
Mole fraction of propan-2-ol	Temperature, K	Mole fraction of propan-2-ol	uncertainty
0	353.38	0	
0.0151	353.36	0.0525	0.0334
0.045	353.36	0.1479	0.0335
0.0852	353.37	0.2378	0.0238
0.1354	353.34	0.3352	0.0188
0.1767	353.35	0.3934	0.016
0.237	353.35	0.4652	0.0161
0.2845	353.33	0.5086	0.0148
0.3321	353.28	0.5468	0.0131
0.3687	353.28	0.5736	0.013
0.4163	353.29	0.6068	0.0129
0.458	353.32	0.6329	0.0118
0.4991	353.32	0.6543	0.0117
0.5315	353.31	0.6758	0.0123
0.5715	353.33	0.7015	0.0115
0.6298	353.34	0.733	0.0116
0.687	353.33	0.7624	0.0116
0.735	353.34	0.7913	0.0121
0.779	353.34	0.8202	0.0121
0.8152	353.32	0.8427	0.0126
0.9162	353.31	0.9158	0.0127
0.9452	353.32	0.9446	0.014
0.9638	353.31	0.9624	0.0141
0.9826	353.31	0.9812	0.0141
0.9944	353.35	0.994	0.006
1	353.34	1	
