Measured thermophysical data. High-Pressure Phase Equilibrium for Ethylene + Ethanol at 283.65 K
Source: J. Chem. Eng. Data, 2005, 10.1021/je049796y
Compound 1: ethene, C2H4, InChI=1S/C2H4/c1-2/h1-2H2
Compound 2: ethanol, C2H6O, InChI=1S/C2H6O/c1-2-3/h3H,2H2,1H3, purity 99.9%

System: ethanol + ethene; phases: Liquid, Gas
Fixed: Temperature, K = 283.65
Property: Vapor or sublimation pressure, kPa (Liquid); method: Closed cell (Static) method
Mole fraction of ethene	Vapor or sublimation pressure, kPa	uncertainty
0.101	1243	27
0.178	2173	32
0.268	3071	36
0.408	4099	45
0.512	4668	50
0.614	4919	52
0.94	4973	52
0.989	5040	53

System: ethanol + ethene; phases: Liquid mixture 1, Liquid mixture 2, Gas
Property: Vapor or sublimation pressure, kPa (Liquid mixture 1); method: Closed cell (Static) method
Temperature, K	Vapor or sublimation pressure, kPa	uncertainty
283.65	4956	52

System: ethanol + ethene; phases: Liquid, Gas
Fixed: Temperature, K = 283.65
Property: Mass density, kg/m3 (Liquid); method: Vibrating tube method
Mole fraction of ethene	Mass density, kg/m3	uncertainty
0.101	767.8	0.7
0.178	741.9	0.8
0.268	708.7	0.8
0.408	661.3	0.8
0.512	614.1	1
0.614	564.2	1.3
0.94	347.3	2.1
0.989	295.1	2.1

System: ethanol + ethene; phases: Gas, Liquid
Fixed: Temperature, K = 283.65
Property: Mass density, kg/m3 (Gas); method: Vibrating tube method
Mole fraction of ethene	Mass density, kg/m3	uncertainty
0.101	17.5	0.4
0.178	31.2	0.4
0.268	49	0.5
0.408	78.8	0.5
0.512	106.8	0.5
0.614	130.6	0.3
0.94	138.6	0.7
0.989	154.9	0.7

System: ethanol + ethene; phases: Liquid mixture 1, Liquid mixture 2
Fixed: Temperature, K = 283.65
Property: Mass density, kg/m3 (Liquid mixture 1); method: Vibrating tube method
Mole fraction of ethene	Mass density, kg/m3	uncertainty
0.685	529.3	1.9
0.712	503.5	1.9

System: ethanol + ethene; phases: Liquid mixture 2, Liquid mixture 1
Fixed: Temperature, K = 283.65
Property: Mass density, kg/m3 (Liquid mixture 2); method: Vibrating tube method
Mole fraction of ethene	Mass density, kg/m3	uncertainty
0.862	410	1.7
0.892	385.6	1.7

System: ethanol + ethene; phases: Liquid mixture 1, Liquid mixture 2, Gas
Property: Mass density, kg/m3 (Liquid mixture 1); method: Vibrating tube method
Temperature, K	Mass density, kg/m3	uncertainty
283.65	543.4	0.3

System: ethanol + ethene; phases: Liquid mixture 2, Liquid mixture 1, Gas
Property: Mass density, kg/m3 (Liquid mixture 2); method: Vibrating tube method
Temperature, K	Mass density, kg/m3	uncertainty
283.65	377.6	0.3

System: ethanol + ethene; phases: Gas, Liquid mixture 1, Liquid mixture 2
Property: Mass density, kg/m3 (Gas); method: Vibrating tube method
Temperature, K	Mass density, kg/m3	uncertainty
283.65	134.4	0.2

System: ethanol + ethene; phases: Gas, Liquid
Fixed: Temperature, K = 283.65
Property: Mole fraction of ethene (Gas); method: Chromatography
Mole fraction of ethene	Mole fraction of ethene	uncertainty
0.101	0.991	0.002
0.178	0.991	0.002
0.268	0.991	0.002
0.408	0.99	0.002
0.512	0.995	0.002
0.614	0.995	0.002
0.94	0.992	0.002
0.989	0.996	0.002

System: ethanol + ethene; phases: Liquid mixture 1, Liquid mixture 2
Fixed: Temperature, K = 283.65
Property: Mole fraction of ethene (Liquid mixture 1); method: Chromatography
Pressure, kPa	Mole fraction of ethene	uncertainty
5082	0.685	0.003
5267	0.712	0.003

System: ethanol + ethene; phases: Liquid mixture 2, Liquid mixture 1
Fixed: Temperature, K = 283.65
Property: Mole fraction of ethene (Liquid mixture 2); method: Chromatography
Pressure, kPa	Mole fraction of ethene	uncertainty
5082	0.892	0.002
5267	0.862	0.002

System: ethanol + ethene; phases: Liquid mixture 1, Liquid mixture 2, Gas
Property: Mole fraction of ethene (Liquid mixture 1); method: Chromatography
Temperature, K	Mole fraction of ethene	uncertainty
283.65	0.667	0.003

System: ethanol + ethene; phases: Liquid mixture 2, Liquid mixture 1, Gas
Property: Mole fraction of ethene (Liquid mixture 2); method: Chromatography
Temperature, K	Mole fraction of ethene	uncertainty
283.65	0.938	0.002

System: ethanol + ethene; phases: Gas, Liquid mixture 1, Liquid mixture 2
Property: Mole fraction of ethene (Gas); method: Chromatography
Temperature, K	Mole fraction of ethene	uncertainty
283.65	0.997	0.002
