Measured thermophysical data. Solubility, Density, Viscosity, Electrical Conductivity, and Refractive Index of Saturated Solutions of Lithium Hydroxide in Water + Ethanol
Source: J. Chem. Eng. Data, 2005, 10.1021/je0497449
Compound 1: lithium hydroxide, HLiO, InChI=1S/Li.H2O/h;1H2/q+1;/p-1
Compound 2: ethanol, C2H6O, InChI=1S/C2H6O/c1-2-3/h3H,2H2,1H3
Compound 3: water, H2O, InChI=1S/H2O/h1H2

System: lithium hydroxide + water; phases: Liquid, Crystal
Fixed: Pressure, kPa = 101.3
Property: Electrical conductivity, S/m (Liquid); method: Orion model 170 conductimeter
Temperature, K	Electrical conductivity, S/m	uncertainty
288.15	365	1.2
288.15	364.4	1.2
288.15	364.9	1.2
293.15	380	1.2
293.15	379.4	1.2
293.15	379.8	1.2
298.15	394.8	1.2
298.15	394.6	1.2
298.15	394.7	1.2
303.15	408.1	1.2
303.15	407.7	1.2
303.15	407.9	1.2
308.15	419.1	1.2
308.15	418.8	1.2
308.15	419	1.2

System: lithium hydroxide + water; phases: Liquid, Crystal
Fixed: Pressure, kPa = 101
Property: Viscosity, Pa*s (Liquid); method: CAPTUB:UFactor:4
Temperature, K	Viscosity, Pa*s	uncertainty
288.15	0.004817	0.000139
288.15	0.004962	0.000144
288.15	0.00482	0.000139
293.15	0.004086	0.000119
293.15	0.004181	0.000122
293.15	0.004114	0.00012
298.15	0.003539	0.000103
298.15	0.003579	0.000104
298.15	0.003369	9.9e-05
303.15	0.003125	9.2e-05
303.15	0.003104	9.1e-05
303.15	0.003131	9.2e-05
308.15	0.002765	8.2e-05
308.15	0.002743	8.1e-05
308.15	0.002777	8.2e-05

System: lithium hydroxide + water; phases: Liquid, Crystal
Fixed: Pressure, kPa = 101
Property: Refractive index (Na D-line) (Liquid); method: Standard Abbe refractometry
Temperature, K	Refractive index (Na D-line)	uncertainty
288.15	1.3744	0.0004
288.15	1.3745	0.0004
288.15	1.3744	0.0004
293.15	1.3739	0.0004
293.15	1.3739	0.0004
293.15	1.3739	0.0004
298.15	1.3734	0.0004
298.15	1.3735	0.0004
298.15	1.3734	0.0004
303.15	1.373	0.0004
303.15	1.373	0.0004
303.15	1.373	0.0004
308.15	1.373	0.0007
308.15	1.3726	0.0004
308.15	1.3726	0.0004

System: lithium hydroxide + water; phases: Liquid, Crystal
Fixed: Pressure, kPa = 101
Property: Mass density, kg/m3 (Liquid); method: VIBTUB:UFactor:4
Temperature, K	Mass density, kg/m3	uncertainty
288.15	1114.35	0.5
288.15	1114.35	0.5
288.15	1114.39	0.5
293.15	1112.93	0.5
293.15	1112.99	0.5
293.15	1113.02	0.5
298.15	1112.02	0.49
298.15	1111.92	0.49
298.15	1111.94	0.49
303.15	1110.94	0.49
303.15	1110.92	0.49
303.15	1110.94	0.49
308.15	1110.24	0.49
308.15	1110.23	0.49
308.15	1110.22	0.49

System: lithium hydroxide + water; phases: Liquid, Crystal
Fixed: Pressure, kPa = 101
Property: Mass fraction of lithium hydroxide (Liquid); method: salt concentrations were determined by chemical analysis
Temperature, K	Mass fraction of lithium hydroxide	uncertainty
288.15	0.11	0.001
288.15	0.11	0.001
288.15	0.11	0.001
293.15	0.1108	0.001
293.15	0.1108	0.001
293.15	0.1104	0.001
298.15	0.1111	0.001
298.15	0.1111	0.001
298.15	0.1121	0.001
303.15	0.1125	0.001
303.15	0.1125	0.001
303.15	0.1121	0.001
308.15	0.1132	0.001
308.15	0.1135	0.001
308.15	0.1132	0.001

System: ethanol + lithium hydroxide + water; phases: Liquid, Crystal
Fixed: Solvent: Mass ratio of component to other component of binary solvent of ethanol = 0.1
Fixed: Pressure, kPa = 101
Property: Viscosity, Pa*s (Liquid); method: CAPTUB:UFactor:4
Temperature, K	Viscosity, Pa*s	uncertainty
288.15	0.005474	0.000156
288.15	0.005304	0.000151
288.15	0.005475	0.000156
293.15	0.00446	0.000131
293.15	0.004511	0.000132
293.15	0.004411	0.00013
298.15	0.003756	0.00011
298.15	0.003737	0.000109
298.15	0.003808	0.000111
303.15	0.003283	9.7e-05
303.15	0.003186	9.4e-05
303.15	0.003333	9.8e-05
308.15	0.002779	8.3e-05
308.15	0.002834	8.4e-05
308.15	0.002774	8.3e-05

System: ethanol + lithium hydroxide + water; phases: Liquid, Crystal
Fixed: Solvent: Mass ratio of component to other component of binary solvent of ethanol = 0.1
Fixed: Pressure, kPa = 101
Property: Refractive index (Na D-line) (Liquid); method: Standard Abbe refractometry
Temperature, K	Refractive index (Na D-line)	uncertainty
288.15	1.3721	0.0004
288.15	1.3721	0.0004
288.15	1.3721	0.0004
293.15	1.3716	0.0004
293.15	1.3715	0.0004
293.15	1.3716	0.0004
298.15	1.3708	0.0004
298.15	1.3709	0.0004
298.15	1.3709	0.0004
303.15	1.3703	0.0004
303.15	1.3703	0.0004
303.15	1.3703	0.0004
308.15	1.3697	0.0004
308.15	1.3696	0.0004
308.15	1.3697	0.0004

System: ethanol + lithium hydroxide + water; phases: Liquid, Crystal
Fixed: Solvent: Mass ratio of component to other component of binary solvent of ethanol = 0.1
Fixed: Pressure, kPa = 101
Property: Mass density, kg/m3 (Liquid); method: VIBTUB:UFactor:4
Temperature, K	Mass density, kg/m3	uncertainty
288.15	1074.72	0.42
288.15	1075.28	0.43
288.15	1074.97	0.42
293.15	1073.35	0.42
293.15	1073.29	0.42
293.15	1073.72	0.42
298.15	1071.99	0.42
298.15	1071.87	0.42
298.15	1071.93	0.42
303.15	1070.7	0.42
303.15	1070.64	0.42
303.15	1070.67	0.42
308.15	1069.32	0.42
308.15	1069.37	0.42
308.15	1069.52	0.42

System: ethanol + lithium hydroxide + water; phases: Liquid, Crystal
Fixed: Solvent: Mass ratio of component to other component of binary solvent of ethanol = 0.1
Fixed: Pressure, kPa = 101
Property: Mass fraction of lithium hydroxide (Liquid); method: salt concentrations were determined by chemical analysis
Temperature, K	Mass fraction of lithium hydroxide	uncertainty
288.15	0.0842	0.001
288.15	0.0852	0.001
288.15	0.0849	0.001
293.15	0.0849	0.001
293.15	0.0852	0.001
293.15	0.0852	0.001
298.15	0.0866	0.001
298.15	0.087	0.001
298.15	0.0866	0.001
303.15	0.087	0.001
303.15	0.0863	0.001
303.15	0.0859	0.001
308.15	0.089	0.001
308.15	0.0897	0.001
308.15	0.0894	0.001

System: ethanol + lithium hydroxide + water; phases: Liquid, Crystal
Fixed: Solvent: Mass ratio of component to other component of binary solvent of ethanol = 0.1
Fixed: Pressure, kPa = 101.3
Property: Electrical conductivity, S/m (Liquid); method: f
Temperature, K	Electrical conductivity, S/m	uncertainty
288.15	238.4	1.2
288.15	238.7	1.2
288.15	238.9	1.2
293.15	252.5	1.2
293.15	251.6	1.2
293.15	252	1.2
298.15	262.4	1.2
298.15	262.9	1.2
298.15	262.8	1.2
303.15	274.4	1.2
303.15	274.2	1.2
303.15	274.6	1.2
308.15	285.5	1.2
308.15	286.1	1.2
308.15	285.5	1.2
