Measured thermophysical data. Vapor-Liquid Equilibria Data for Binary Systems of Ethylbenzene + Xylene Isomers at 100.65 kPa
Source: J. Chem. Eng. Data, 2005, 10.1021/je049701s
Compound 1: ethylbenzene, C8H10, InChI=1S/C8H10/c1-2-8-6-4-3-5-7-8/h3-7H,2H2,1H3, purity 99.8%
Compound 2: 1,4-dimethylbenzene, C8H10, InChI=1S/C8H10/c1-7-3-5-8(2)6-4-7/h3-6H,1-2H3
Compound 3: 1,3-dimethylbenzene, C8H10, InChI=1S/C8H10/c1-7-4-3-5-8(2)6-7/h3-6H,1-2H3
Compound 4: 1,2-dimethylbenzene, C8H10, InChI=1S/C8H10/c1-7-5-3-4-6-8(7)2/h3-6H,1-2H3

System: ethylbenzene; phases: Liquid
Property: Mass density, kg/m3 (Liquid); method: VIBTUB:UFactor:4
Temperature, K	Pressure, kPa	Mass density, kg/m3	uncertainty
293.1	101.325	867.1	0.44

System: ethylbenzene; phases: Liquid, Gas
Property: Vapor or sublimation pressure, kPa (Liquid); method: Ebulliometric method (Recirculating still)
Temperature, K	Vapor or sublimation pressure, kPa	uncertainty
385.698	50	0.66
387.75	53.37	0.69
391.507	60	0.73
394.153	65	0.8
397.49	71.87	0.84
398.93	75	0.89
401.164	80	0.92
403.27	85	0.98
405.261	90	1.03
407.145	95	1.11
412.485	110.02	1.19
417.003	124.3	1.26

System: 1,4-dimethylbenzene; phases: Liquid
Property: Mass density, kg/m3 (Liquid); method: VIBTUB:UFactor:4
Temperature, K	Pressure, kPa	Mass density, kg/m3	uncertainty
293.1	101.325	861.2	0.45

System: 1,4-dimethylbenzene; phases: Liquid, Gas
Property: Vapor or sublimation pressure, kPa (Liquid); method: Ebulliometric method (Recirculating still)
Temperature, K	Vapor or sublimation pressure, kPa	uncertainty
389.804	53.26	0.67
390.845	55	0.71
393.61	60	0.77
398.716	70	0.8
401.06	75	0.88
403.285	80	0.91
405.371	84.84	0.99
409.38	95	1.16
420.933	129.7	1.2

System: 1,3-dimethylbenzene; phases: Liquid
Property: Mass density, kg/m3 (Liquid); method: VIBTUB:UFactor:4
Temperature, K	Pressure, kPa	Mass density, kg/m3	uncertainty
293.1	101.325	864.2	0.45

System: 1,3-dimethylbenzene; phases: Liquid, Gas
Property: Vapor or sublimation pressure, kPa (Liquid); method: Ebulliometric method (Recirculating still)
Temperature, K	Vapor or sublimation pressure, kPa	uncertainty
362.45	21.82	0.33
366.305	25	0.36
371.486	29.94	0.4
376.315	35	0.45
380.805	40.36	0.5
384.298	45	0.55
387.844	50	0.61
389.844	53.54	0.73
393.343	60	0.73
397.712	67.97	0.79
400.957	75	0.87
403.252	80	0.92
406.5	87.74	0.94
407.504	90	1.01
409.4	95	1.09
415.535	111.8	1.22
423.344	137.3	1.31

System: 1,2-dimethylbenzene; phases: Liquid, Gas
Property: Normal boiling temperature, K (Liquid); method: EBULLIO:FP
Normal boiling temperature, K	uncertainty
417.549	0.005

System: 1,2-dimethylbenzene; phases: Liquid
Property: Mass density, kg/m3 (Liquid); method: Vibrating tube method
Temperature, K	Pressure, kPa	Mass density, kg/m3	uncertainty
293.1	101.325	879.8	0.13

System: 1,2-dimethylbenzene; phases: Liquid, Gas
Property: Vapor or sublimation pressure, kPa (Liquid); method: Ebulliometric method (Recirculating still)
Temperature, K	Vapor or sublimation pressure, kPa	uncertainty
396.73	55	0.03
399.52	60	0.03
400.656	62.13	0.03
404.712	70	0.03
407.05	75	0.03
409.443	80.33	0.04
411.445	85	0.04
413.502	90	0.04
415.435	95	0.04
418.226	102.5	0.04
426.995	129.3	0.04

System: ethylbenzene + 1,4-dimethylbenzene; phases: Liquid, Gas
Fixed: Pressure, kPa = 100.65
Property: Boiling temperature at pressure P, K (Liquid); method: EBULLIO:UFactor:8
Mole fraction of ethylbenzene	Boiling temperature at pressure P, K	uncertainty
0	411.53	0.319
0.0445	411.344	0.319
0.1606	410.88	0.319
0.258	410.854	0.319
0.3734	410.546	0.319
0.4907	410.241	0.319
0.601	409.949	0.319
0.6988	409.845	0.319
0.7604	409.712	0.319
0.8299	409.508	0.319
0.9352	409.288	0.319
0.9709	409.228	0.319
1	409.176	0.319

System: ethylbenzene + 1,4-dimethylbenzene; phases: Gas, Liquid
Fixed: Pressure, kPa = 100.65
Property: Mole fraction of ethylbenzene (Gas); method: CHROM:UFactor:8
Mole fraction of ethylbenzene	Mole fraction of ethylbenzene	uncertainty
0	0	0.0001
0.0445	0.0457	0.0042
0.1606	0.1663	0.0125
0.258	0.2641	0.0198
0.3734	0.39	0.0291
0.4907	0.5173	0.036
0.601	0.6203	0.0283
0.6988	0.7018	0.0223
0.7604	0.7658	0.0175
0.8299	0.8358	0.0124
0.9352	0.9354	0.0052
0.9709	0.9735	0.0034
1	1	0.0001

System: ethylbenzene + 1,3-dimethylbenzene; phases: Liquid, Gas
Fixed: Pressure, kPa = 100.65
Property: Boiling temperature at pressure P, K (Liquid); method: EBULLIO:UFactor:8
Mole fraction of ethylbenzene	Boiling temperature at pressure P, K	uncertainty
0	412.336	0.319
0.0496	412.07	0.319
0.1459	411.791	0.319
0.2352	411.468	0.319
0.3256	411.195	0.319
0.4299	410.815	0.319
0.5491	410.515	0.319
0.6353	410.249	0.319
0.725	409.964	0.319
0.8584	409.529	0.319
0.9342	409.359	0.319
0.9664	409.179	0.319
1	409.176	0.319

System: ethylbenzene + 1,3-dimethylbenzene; phases: Gas, Liquid
Fixed: Pressure, kPa = 100.65
Property: Mole fraction of ethylbenzene (Gas); method: CHROM:UFactor:8
Mole fraction of ethylbenzene	Mole fraction of ethylbenzene	uncertainty
0	0	0.0001
0.0496	0.0541	0.0047
0.1459	0.1494	0.0113
0.2352	0.2498	0.0187
0.3256	0.334	0.0249
0.4299	0.4368	0.0325
0.5491	0.5571	0.033
0.6353	0.6468	0.0264
0.725	0.738	0.0196
0.8584	0.8665	0.0101
0.9342	0.9369	0.0051
0.9664	0.9694	0.0035
1	1	0.0001

System: 1,2-dimethylbenzene + ethylbenzene; phases: Liquid, Gas
Fixed: Pressure, kPa = 100.65
Property: Boiling temperature at pressure P, K (Liquid); method: EBULLIO:UFactor:8
Mole fraction of ethylbenzene	Boiling temperature at pressure P, K	uncertainty
0	417.593	0.319
0.0538	416.999	0.32
0.1396	416.183	0.32
0.2163	415.547	0.319
0.2899	414.94	0.32
0.4153	413.761	0.32
0.5211	412.79	0.32
0.6151	412.021	0.319
0.6918	411.405	0.319
0.7809	410.769	0.319
0.8457	410.679	0.32
0.9078	409.566	0.32
0.9579	409.321	0.319
1	409.176	0.319

System: 1,2-dimethylbenzene + ethylbenzene; phases: Gas, Liquid
Fixed: Pressure, kPa = 100.65
Property: Mole fraction of ethylbenzene (Gas); method: CHROM:UFactor:8
Mole fraction of ethylbenzene	Mole fraction of ethylbenzene	uncertainty
0	0	0.0001
0.0538	0.0687	0.0057
0.1396	0.1756	0.0133
0.2163	0.269	0.0201
0.2899	0.3518	0.0263
0.4153	0.4869	0.0363
0.5211	0.5912	0.0305
0.6151	0.6753	0.0242
0.6918	0.7496	0.0187
0.7809	0.8267	0.013
0.8457	0.8742	0.0095
0.9078	0.9309	0.0054
0.9579	0.9618	0.0036
1	1	0.0001
