Measured thermophysical data. Thermal Conductivity of Binary Aqueous NaBr and KBr and Ternary H2O + NaBr + KBr Solutions at Temperatures from (294 to 577) K and Pressures up to 40 MPa
Source: J. Chem. Eng. Data, 2004, 10.1021/je049814b
Compound 1: water, H2O, InChI=1S/H2O/h1H2
Compound 2: sodium bromide, BrNa, InChI=1S/BrH.Na/h1H;/q;+1/p-1
Compound 3: potassium bromide, BrK, InChI=1S/BrH.K/h1H;/q;+1/p-1

System: water; phases: Liquid
Property: Thermal conductivity, W/m/K (Liquid); method: Coaxial cylinder method
Temperature, K	Pressure, kPa	Thermal conductivity, W/m/K	uncertainty
290.6	1000	0.592	0.017
290.6	10000	0.602	0.017
290.6	40000	0.613	0.017
329.7	1000	0.649	0.018
329.7	10000	0.655	0.018
329.7	40000	0.665	0.019
367.1	1000	0.679	0.019
367.1	10000	0.684	0.019
367.1	40000	0.697	0.02
395.1	1000	0.683	0.019
395.1	10000	0.692	0.019
395.1	40000	0.709	0.02
440.7	10000	0.683	0.019
440.7	40000	0.703	0.02
484.2	10000	0.66	0.019
484.2	40000	0.684	0.019
514.2	10000	0.638	0.018
514.2	40000	0.662	0.019
549.8	10000	0.587	0.017
549.8	40000	0.628	0.018
575.4	10000	0.54	0.015
575.4	40000	0.594	0.017

System: water + potassium bromide; phases: Liquid
Property: Thermal conductivity, W/m/K (Liquid); method: Coaxial cylinder method
Mass fraction of potassium bromide	Temperature, K	Pressure, kPa	Thermal conductivity, W/m/K	uncertainty
0.1	294.7	100	0.578	0.016
0.1	294.7	2000	0.578	0.016
0.1	294.7	10000	0.582	0.016
0.1	294.7	40000	0.592	0.017
0.1	320.9	100	0.612	0.017
0.1	320.9	2000	0.612	0.017
0.1	320.9	10000	0.617	0.017
0.1	320.9	40000	0.628	0.018
0.1	354.8	100	0.644	0.018
0.1	354.8	2000	0.644	0.018
0.1	354.8	10000	0.65	0.018
0.1	354.8	40000	0.662	0.019
0.1	381.3	100	0.661	0.019
0.1	381.3	2000	0.661	0.019
0.1	381.3	10000	0.669	0.019
0.1	381.3	40000	0.682	0.019
0.1	403.2	100	0.661	0.019
0.1	403.2	2000	0.661	0.019
0.1	403.2	10000	0.667	0.019
0.1	403.2	40000	0.683	0.02
0.1	425.9	100	0.657	0.018
0.1	425.9	2000	0.657	0.018
0.1	425.9	10000	0.662	0.019
0.1	425.9	40000	0.681	0.02
0.1	457.6	100	0.643	0.018
0.1	457.6	2000	0.643	0.018
0.1	457.6	10000	0.65	0.018
0.1	457.6	40000	0.665	0.02
0.1	488.2	10000	0.628	0.018
0.1	488.2	40000	0.65	0.02
0.1	519.3	10000	0.598	0.017
0.1	519.3	40000	0.622	0.02
0.1	543.2	10000	0.569	0.016
0.1	543.2	40000	0.597	0.019
0.1	571.9	10000	0.522	0.015
0.1	571.9	40000	0.55	0.019
0.2	296.8	100	0.553	0.016
0.2	296.8	2000	0.553	0.016
0.2	296.8	10000	0.557	0.016
0.2	296.8	40000	0.565	0.016
0.2	325.4	100	0.589	0.017
0.2	325.4	2000	0.589	0.017
0.2	325.4	10000	0.595	0.017
0.2	325.4	40000	0.602	0.017
0.2	351.2	100	0.616	0.017
0.2	351.2	2000	0.616	0.017
0.2	351.2	10000	0.62	0.017
0.2	351.2	40000	0.629	0.018
0.2	387.6	100	0.634	0.018
0.2	387.6	2000	0.634	0.018
0.2	387.6	10000	0.638	0.018
0.2	387.6	40000	0.647	0.018
0.2	406.2	100	0.632	0.018
0.2	406.2	2000	0.632	0.018
0.2	406.2	10000	0.638	0.018
0.2	406.2	40000	0.648	0.019
0.2	431.2	100	0.628	0.018
0.2	431.2	2000	0.628	0.018
0.2	431.2	10000	0.634	0.018
0.2	431.2	40000	0.646	0.019
0.2	456.9	100	0.616	0.017
0.2	456.9	2000	0.616	0.017
0.2	456.9	10000	0.623	0.018
0.2	456.9	40000	0.635	0.018
0.2	481.3	10000	0.609	0.017
0.2	481.3	40000	0.623	0.018
0.2	520.6	10000	0.575	0.016
0.2	520.6	40000	0.592	0.018
0.2	547.6	10000	0.539	0.015
0.2	547.6	40000	0.564	0.018
0.2	571.3	10000	0.501	0.015
0.2	571.3	40000	0.534	0.019
0.3	295.7	100	0.521	0.015
0.3	295.7	2000	0.521	0.015
0.3	295.7	10000	0.525	0.015
0.3	295.7	40000	0.532	0.015
0.3	321.4	100	0.554	0.016
0.3	321.4	2000	0.554	0.016
0.3	321.4	10000	0.559	0.016
0.3	321.4	40000	0.569	0.016
0.3	357.6	100	0.588	0.017
0.3	357.6	2000	0.588	0.017
0.3	357.6	10000	0.591	0.017
0.3	357.6	40000	0.601	0.017
0.3	384.2	100	0.601	0.017
0.3	384.2	2000	0.601	0.017
0.3	384.2	10000	0.605	0.017
0.3	384.2	40000	0.616	0.018
0.3	409.6	100	0.6	0.017
0.3	409.6	2000	0.6	0.017
0.3	409.6	10000	0.606	0.017
0.3	409.6	40000	0.618	0.018
0.3	427.2	100	0.598	0.017
0.3	427.2	2000	0.598	0.017
0.3	427.2	10000	0.604	0.017
0.3	427.2	40000	0.616	0.018
0.3	463.1	100	0.582	0.016
0.3	463.1	2000	0.582	0.016
0.3	463.1	10000	0.586	0.017
0.3	463.1	40000	0.599	0.017
0.3	494.2	10000	0.564	0.016
0.3	494.2	40000	0.579	0.017
0.3	516.3	10000	0.542	0.015
0.3	516.3	40000	0.562	0.017
0.3	539.7	10000	0.511	0.015
0.3	539.7	40000	0.538	0.018
0.3	575.6	10000	0.455	0.014
0.3	575.6	40000	0.496	0.022

System: sodium bromide + water; phases: Liquid
Property: Thermal conductivity, W/m/K (Liquid); method: Coaxial cylinder method
Mass fraction of sodium bromide	Temperature, K	Pressure, kPa	Thermal conductivity, W/m/K	uncertainty
0.1	294.3	100	0.58	0.016
0.1	294.3	2000	0.58	0.016
0.1	294.3	10000	0.586	0.016
0.1	294.3	40000	0.596	0.017
0.1	321.7	100	0.618	0.017
0.1	321.7	2000	0.618	0.017
0.1	321.7	10000	0.624	0.018
0.1	321.7	40000	0.635	0.018
0.1	354.2	100	0.648	0.018
0.1	354.2	2000	0.648	0.018
0.1	354.2	10000	0.653	0.018
0.1	354.2	40000	0.664	0.019
0.1	378.6	100	0.659	0.019
0.1	378.6	2000	0.659	0.019
0.1	378.6	10000	0.663	0.019
0.1	378.6	40000	0.674	0.019
0.1	399.2	100	0.664	0.019
0.1	399.2	2000	0.664	0.019
0.1	399.2	10000	0.669	0.019
0.1	399.2	40000	0.679	0.019
0.1	427.5	100	0.664	0.019
0.1	427.5	2000	0.664	0.019
0.1	427.5	10000	0.671	0.019
0.1	427.5	40000	0.682	0.019
0.1	453.7	100	0.652	0.018
0.1	453.7	2000	0.652	0.018
0.1	453.7	10000	0.659	0.019
0.1	453.7	40000	0.672	0.019
0.1	486.2	10000	0.639	0.018
0.1	486.2	40000	0.66	0.019
0.1	515.3	10000	0.611	0.017
0.1	515.3	40000	0.634	0.018
0.1	542.7	10000	0.576	0.016
0.1	542.7	40000	0.604	0.017
0.1	577.3	10000	0.525	0.015
0.1	577.3	40000	0.566	0.016
0.2	296	100	0.56	0.016
0.2	296	2000	0.56	0.016
0.2	296	10000	0.565	0.016
0.2	296	40000	0.575	0.016
0.2	319.9	100	0.595	0.017
0.2	319.9	2000	0.595	0.017
0.2	319.9	10000	0.599	0.017
0.2	319.9	40000	0.609	0.017
0.2	350.2	100	0.624	0.018
0.2	350.2	2000	0.624	0.018
0.2	350.2	10000	0.628	0.018
0.2	350.2	40000	0.639	0.018
0.2	377.9	100	0.637	0.018
0.2	377.9	2000	0.637	0.018
0.2	377.9	10000	0.642	0.018
0.2	377.9	40000	0.653	0.018
0.2	396.5	100	0.643	0.018
0.2	396.5	2000	0.643	0.018
0.2	396.5	10000	0.648	0.018
0.2	396.5	40000	0.659	0.019
0.2	429.2	100	0.643	0.018
0.2	429.2	2000	0.643	0.018
0.2	429.2	10000	0.649	0.018
0.2	429.2	40000	0.659	0.019
0.2	450.6	100	0.632	0.018
0.2	450.6	2000	0.632	0.018
0.2	450.6	10000	0.638	0.018
0.2	450.6	40000	0.652	0.018
0.2	483.2	10000	0.618	0.017
0.2	483.2	40000	0.634	0.018
0.2	519.4	10000	0.583	0.016
0.2	519.4	40000	0.601	0.017
0.2	547.6	10000	0.546	0.015
0.2	547.6	40000	0.571	0.016
0.2	576.2	10000	0.504	0.014
0.2	576.2	40000	0.535	0.015
0.3	297.2	100	0.537	0.015
0.3	297.2	2000	0.537	0.015
0.3	297.2	10000	0.541	0.015
0.3	297.2	40000	0.55	0.016
0.3	323.9	100	0.573	0.016
0.3	323.9	2000	0.573	0.016
0.3	323.9	10000	0.578	0.016
0.3	323.9	40000	0.587	0.017
0.3	357.7	100	0.601	0.017
0.3	357.7	2000	0.601	0.017
0.3	357.7	10000	0.608	0.017
0.3	357.7	40000	0.617	0.017
0.3	380.2	100	0.61	0.017
0.3	380.2	2000	0.61	0.017
0.3	380.2	10000	0.617	0.017
0.3	380.2	40000	0.627	0.018
0.3	401	100	0.615	0.017
0.3	401	2000	0.615	0.017
0.3	401	10000	0.623	0.018
0.3	401	40000	0.633	0.018
0.3	426.4	100	0.614	0.017
0.3	426.4	2000	0.614	0.017
0.3	426.4	10000	0.624	0.018
0.3	426.4	40000	0.637	0.018
0.3	455	100	0.6	0.017
0.3	455	2000	0.6	0.017
0.3	455	10000	0.608	0.017
0.3	455	40000	0.621	0.017
0.38	294.7	100	0.504	0.014
0.38	294.7	2000	0.504	0.014
0.38	294.7	10000	0.512	0.014
0.38	294.7	40000	0.525	0.015
0.38	319.6	100	0.531	0.015
0.38	319.6	2000	0.531	0.015
0.38	319.6	10000	0.536	0.015
0.38	319.6	40000	0.549	0.015
0.38	347.2	100	0.56	0.016
0.38	347.2	2000	0.56	0.016
0.38	347.2	10000	0.565	0.016
0.38	347.2	40000	0.578	0.016
0.38	374.5	100	0.58	0.016
0.38	374.5	2000	0.58	0.016
0.38	374.5	10000	0.589	0.017
0.38	374.5	40000	0.603	0.017
0.38	398.7	100	0.585	0.016
0.38	398.7	2000	0.585	0.016
0.38	398.7	10000	0.593	0.017
0.38	398.7	40000	0.609	0.017
0.38	424.5	100	0.585	0.016
0.38	424.5	2000	0.585	0.016
0.38	424.5	10000	0.593	0.017
0.38	424.5	40000	0.609	0.017
0.38	456.7	100	0.572	0.016
0.38	456.7	2000	0.572	0.016
0.38	456.7	10000	0.583	0.016
0.38	456.7	40000	0.6	0.017
0.38	483.2	10000	0.569	0.016
0.38	483.2	40000	0.59	0.017
0.38	515.7	10000	0.535	0.015
0.38	515.7	40000	0.565	0.016
0.38	541.3	10000	0.504	0.014
0.38	541.3	40000	0.539	0.015
0.38	576.5	10000	0.454	0.013
0.38	576.5	40000	0.494	0.014

System: sodium bromide + water + potassium bromide; phases: Liquid
Fixed: Mass fraction of sodium bromide = 0.1
Property: Thermal conductivity, W/m/K (Liquid); method: Coaxial cylinder method
Mass fraction of potassium bromide	Temperature, K	Pressure, kPa	Thermal conductivity, W/m/K	uncertainty
0.05	296.8	100	0.57	0.016
0.05	296.8	2000	0.57	0.016
0.05	296.8	10000	0.575	0.016
0.05	296.8	40000	0.585	0.016
0.05	325.6	100	0.611	0.017
0.05	325.6	2000	0.611	0.017
0.05	325.6	10000	0.616	0.017
0.05	325.6	40000	0.624	0.018
0.05	347.7	100	0.63	0.018
0.05	347.7	2000	0.63	0.018
0.05	347.7	10000	0.635	0.018
0.05	347.7	40000	0.647	0.018
0.05	382.1	100	0.654	0.018
0.05	382.1	2000	0.654	0.018
0.05	382.1	10000	0.66	0.019
0.05	382.1	40000	0.666	0.019
0.05	411.9	100	0.651	0.018
0.05	411.9	2000	0.651	0.018
0.05	411.9	10000	0.657	0.018
0.05	411.9	40000	0.665	0.019
0.05	440.4	10000	0.65	0.018
0.05	440.4	40000	0.661	0.019
0.05	472.9	10000	0.635	0.018
0.05	472.9	40000	0.645	0.018
0.05	507.9	10000	0.602	0.017
0.05	507.9	40000	0.62	0.017
0.05	539.6	10000	0.56	0.016
0.05	539.6	40000	0.59	0.017
0.05	577.3	10000	0.507	0.014
0.05	577.3	40000	0.535	0.015
0.1	295.3	100	0.556	0.016
0.1	295.3	2000	0.556	0.016
0.1	295.3	10000	0.563	0.016
0.1	295.3	40000	0.57	0.016
0.1	318.4	100	0.587	0.017
0.1	318.4	2000	0.587	0.017
0.1	318.4	10000	0.593	0.017
0.1	318.4	40000	0.605	0.017
0.1	349.3	100	0.618	0.017
0.1	349.3	2000	0.618	0.017
0.1	349.3	10000	0.625	0.018
0.1	349.3	40000	0.634	0.018
0.1	378.8	100	0.635	0.018
0.1	378.8	2000	0.635	0.018
0.1	378.8	10000	0.638	0.018
0.1	378.8	40000	0.647	0.018
0.1	404.7	100	0.637	0.018
0.1	404.7	2000	0.637	0.018
0.1	404.7	10000	0.641	0.018
0.1	404.7	40000	0.653	0.018
0.1	438.7	100	0.63	0.018
0.1	438.7	2000	0.63	0.018
0.1	438.7	10000	0.636	0.018
0.1	438.7	40000	0.65	0.018
0.1	476.1	10000	0.615	0.017
0.1	476.1	40000	0.63	0.018
0.1	505.3	10000	0.593	0.017
0.1	505.3	40000	0.608	0.017
0.1	542.8	10000	0.547	0.015
0.1	542.8	40000	0.566	0.016
0.1	568.3	10000	0.507	0.014
0.1	568.3	40000	0.527	0.015
0.2	297.4	100	0.54	0.015
0.2	297.4	2000	0.54	0.015
0.2	297.4	10000	0.545	0.015
0.2	297.4	40000	0.556	0.016
0.2	322.9	100	0.575	0.016
0.2	322.9	2000	0.575	0.016
0.2	322.9	10000	0.58	0.016
0.2	322.9	40000	0.589	0.017
0.2	354.1	100	0.602	0.017
0.2	354.1	2000	0.602	0.017
0.2	354.1	10000	0.607	0.017
0.2	354.1	40000	0.618	0.017
0.2	377.8	100	0.615	0.017
0.2	377.8	2000	0.615	0.017
0.2	377.8	10000	0.621	0.017
0.2	377.8	40000	0.629	0.018
0.2	407.3	100	0.62	0.017
0.2	407.3	2000	0.62	0.017
0.2	407.3	10000	0.626	0.018
0.2	407.3	40000	0.636	0.018
0.2	429.5	100	0.617	0.017
0.2	429.5	2000	0.617	0.017
0.2	429.5	10000	0.623	0.018
0.2	429.5	40000	0.634	0.018
0.2	454.6	100	0.604	0.017
0.2	454.6	2000	0.604	0.017
0.2	454.6	10000	0.61	0.017
0.2	454.6	40000	0.622	0.017
0.2	486.8	100	0.586	0.016
0.2	486.8	2000	0.586	0.016
0.2	486.8	10000	0.593	0.017
0.2	486.8	40000	0.604	0.017
0.2	509.1	100	0.569	0.016
0.2	509.1	2000	0.569	0.016
0.2	509.1	10000	0.575	0.016
0.2	509.1	40000	0.587	0.017
0.2	538	100	0.533	0.015
0.2	538	2000	0.533	0.015
0.2	538	10000	0.54	0.015
0.2	538	40000	0.558	0.016
0.2	573.9	100	0.472	0.013
0.2	573.9	2000	0.472	0.013
0.2	573.9	10000	0.48	0.014
0.2	573.9	40000	0.516	0.015
