Measured thermophysical data. Measurements of the Speed of Sound for Mixtures of Methane + Butane with a Particular Focus on the Critical State
Source: J. Chem. Eng. Data, 2005, 10.1021/je049622g
Compound 1: methane, CH4, InChI=1S/CH4/h1H4, purity 99.9%
Compound 2: butane, C4H10, InChI=1S/C4H10/c1-3-4-2/h3-4H2,1-2H3, purity 99.9%

System: methane + butane; phases: Fluid (supercritical or subcritical phases)
Fixed: Temperature, K = 311
Property: Speed of sound, m/s (Fluid (supercritical or subcritical phases)); method: Pulse-echo method
Mole fraction of methane	Pressure, kPa	Speed of sound, m/s	uncertainty
0.158	3930	760.1	1.7
0.158	3999	760.7	1.7
0.158	4137	762.3	1.7
0.158	4826	778.7	1.7
0.158	5516	793.5	1.7
0.158	6205	805.6	1.7
0.158	6895	817.6	1.8
0.158	10342	866	1.9
0.158	13790	906.3	1.9
0.724	13128	314.6	0.9
0.724	13148	316.5	0.9
0.724	13231	323.7	0.9
0.724	13307	329.7	0.9
0.724	13472	344	0.9
0.724	13845	366.1	0.9
0.724	14479	395.6	1
0.724	15168	420.7	1
0.724	15858	443.6	1.1
0.724	16547	464.8	1.1
0.724	17237	484.4	1.1
0.894	2068	381.6	1
0.894	2758	378.5	1
0.894	3447	375.5	0.9
0.894	4137	372.7	0.9
0.894	4826	370.1	0.9
0.894	5516	368	0.9
0.894	6205	366.4	0.9
0.894	6895	365.2	0.9
0.894	7584	364.8	0.9
0.894	8274	365.1	0.9
0.894	8963	366	0.9
0.894	9653	367.8	0.9
0.894	10342	370.3	0.9
0.894	11032	373.7	0.9
0.894	11721	378	1
0.894	12411	383.1	1
0.894	13100	388.9	1
0.894	13790	395.6	1
0.894	14479	402.9	1
0.894	15168	410.8	1
0.894	15858	419.4	1
0.894	16547	428.4	1
0.894	17237	438	1.1
