Measured thermophysical data. Bubble and Dew Point Measurements of the Ternary System Carbon Dioxide + Methanol + Hydrogen at 313.2 K
Source: J. Chem. Eng. Data, 2005, 10.1021/je0498614
Compound 1: carbon dioxide, CO2, InChI=1S/CO2/c2-1-3, purity 99.7%
Compound 2: methanol, CH4O, InChI=1S/CH4O/c1-2/h2H,1H3, purity 99.93%
Compound 3: hydrogen, H2, InChI=1S/H2/h1H, purity 99.7%

System: methanol + carbon dioxide; phases: Liquid, Gas
Fixed: Temperature, K = 313.2
Property: Vapor or sublimation pressure, kPa (Liquid); method: Closed cell (Static) method
Mole fraction of carbon dioxide	Vapor or sublimation pressure, kPa	uncertainty
0.051	930	40
0.205	3570	80
0.291	4850	100
0.411	6310	130
0.591	7490	150
0.653	7680	160
0.786	7930	160

System: methanol + carbon dioxide + hydrogen; phases: Liquid, Gas
Fixed: Temperature, K = 313.2
Property: Vapor or sublimation pressure, kPa (Liquid); method: Closed cell (Static) method
Mole fraction of carbon dioxide	Mole fraction of hydrogen	Vapor or sublimation pressure, kPa	uncertainty
0.402	0.032	12960	640
0.408	0.018	10150	620
0.41	0.011	8790	610
0.677	0.129	21760	500
0.696	0.103	19030	400
0.715	0.079	15880	470
0.725	0.196	20070	440
0.735	0.053	12400	470
0.746	0.172	18710	420
0.754	0.019	9800	310
0.768	0.149	18280	400
0.787	0.127	16620	360
0.807	0.105	15640	360
0.827	0.083	13840	340
0.849	0.059	11730	340
0.872	0.032	9920	270

System: methanol + carbon dioxide + hydrogen; phases: Gas, Liquid
Fixed: Temperature, K = 313.2
Property: Vapor or sublimation pressure, kPa (Gas); method: Closed cell (Static) method
Mole fraction of carbon dioxide	Mole fraction of hydrogen	Vapor or sublimation pressure, kPa	uncertainty
0.699	0.236	19970	400
0.742	0.203	17180	350
0.777	0.176	14650	300
0.807	0.152	12930	260
0.824	0.139	12000	240
