Measured thermophysical data. Henry's law constants and infinite dilution activity coefficients of propane, propene, butane, isobutane, 1-butene, isobutene, trans-2-butene, and 1,3-butadiene in 2-methyl-1-butanol, 3-methyl-1-butanol, and 2-methyl-2-butanol
Source: J. Chem. Eng. Data, 2005, 10.1021/je049723e
Compound 1: propane, C3H8, InChI=1S/C3H8/c1-3-2/h3H2,1-2H3, purity 99.5%
Compound 2: 2-methyl-1-butanol, C5H12O, InChI=1S/C5H12O/c1-3-5(2)4-6/h5-6H,3-4H2,1-2H3, purity 99%
Compound 3: propene, C3H6, InChI=1S/C3H6/c1-3-2/h3H,1H2,2H3, purity 99.5%
Compound 4: butane, C4H10, InChI=1S/C4H10/c1-3-4-2/h3-4H2,1-2H3, purity 99.8%
Compound 5: 2-methylpropane, C4H10, InChI=1S/C4H10/c1-4(2)3/h4H,1-3H3, purity 99%
Compound 6: 1-butene, C4H8, InChI=1S/C4H8/c1-3-4-2/h3H,1,4H2,2H3, purity 99%
Compound 7: 2-methylpropene, C4H8, InChI=1S/C4H8/c1-4(2)3/h1H2,2-3H3, purity 99%
Compound 8: (E)-2-butene, C4H8, InChI=1S/C4H8/c1-3-4-2/h3-4H,1-2H3/b4-3+, purity 99%
Compound 9: 1,3-butadiene, C4H6, InChI=1S/C4H6/c1-3-4-2/h3-4H,1-2H2, purity 99%
Compound 10: 3-methylbutan-1-ol, C5H12O, InChI=1S/C5H12O/c1-5(2)3-4-6/h5-6H,3-4H2,1-2H3, purity 98%
Compound 11: 2-methylbutan-2-ol, C5H12O, InChI=1S/C5H12O/c1-4-5(2,3)6/h6H,4H2,1-3H3, purity 98%

System: propane + 2-methyl-1-butanol; phases: Liquid, Gas
Fixed: Mole fraction of propane = 0
Property: Activity coefficient of propane (Liquid); method: OTHER
Temperature, K	Activity coefficient of propane	uncertainty
250.05	3.09	
270.06	3.12	
290.01	3.1	
310	3.04	
329.97	2.96	

System: propane + 2-methyl-1-butanol; phases: Liquid, Gas
Fixed: Mole fraction of propane = 0
Property: Henry's Law constant (mole fraction scale), kPa of propane (Liquid); method: OTHER
Temperature, K	Henry's Law constant (mole fraction scale), kPa of propane	uncertainty
250.05	630	
270.06	1220	
290.01	2070	
310	3170	
329.97	4470	

System: propene + 2-methyl-1-butanol; phases: Liquid, Gas
Fixed: Mole fraction of propene = 0
Property: Activity coefficient of propene (Liquid); method: OTHER
Temperature, K	Activity coefficient of propene	uncertainty
250.05	2.72	
270.06	2.73	
290.01	2.73	
310	2.64	
329.97	2.57	

System: propene + 2-methyl-1-butanol; phases: Liquid, Gas
Fixed: Mole fraction of propene = 0
Property: Henry's Law constant (mole fraction scale), kPa of propene (Liquid); method: OTHER
Temperature, K	Henry's Law constant (mole fraction scale), kPa of propene	uncertainty
250.05	690	
270.06	1290	
290.01	2160	
310	3230	
329.97	4510	

System: butane + 2-methyl-1-butanol; phases: Liquid, Gas
Fixed: Mole fraction of butane = 0
Property: Activity coefficient of butane (Liquid); method: OTHER
Temperature, K	Activity coefficient of butane	uncertainty
250.05	3.33	
270.06	3.34	
290.01	3.31	
310	3.23	
329.97	3.1	

System: butane + 2-methyl-1-butanol; phases: Liquid, Gas
Fixed: Mole fraction of butane = 0
Property: Henry's Law constant (mole fraction scale), kPa of butane (Liquid); method: OTHER
Temperature, K	Henry's Law constant (mole fraction scale), kPa of butane	uncertainty
250.05	129	
270.06	296	
290.01	580	
310	1020	
329.97	1600	

System: 2-methylpropane + 2-methyl-1-butanol; phases: Liquid, Gas
Fixed: Mole fraction of 2-methylpropane = 0
Property: Activity coefficient of 2-methylpropane (Liquid); method: OTHER
Temperature, K	Activity coefficient of 2-methylpropane	uncertainty
250.05	3.6	
270.06	3.57	
290.01	3.54	
310	3.46	
329.97	3.33	

System: 2-methylpropane + 2-methyl-1-butanol; phases: Liquid, Gas
Fixed: Mole fraction of 2-methylpropane = 0
Property: Henry's Law constant (mole fraction scale), kPa of 2-methylpropane (Liquid); method: OTHER
Temperature, K	Henry's Law constant (mole fraction scale), kPa of 2-methylpropane	uncertainty
250.05	221	
270.06	473	
290.01	890	
310	1490	
329.97	2250	

System: 1-butene + 2-methyl-1-butanol; phases: Liquid, Gas
Fixed: Mole fraction of 1-butene = 0
Property: Activity coefficient of 1-butene (Liquid); method: OTHER
Temperature, K	Activity coefficient of 1-butene	uncertainty
250.05	3.02	
270.06	3.02	
290.01	2.99	
310	2.91	
329.97	2.78	

System: 1-butene + 2-methyl-1-butanol; phases: Liquid, Gas
Fixed: Mole fraction of 1-butene = 0
Property: Henry's Law constant (mole fraction scale), kPa of 1-butene (Liquid); method: OTHER
Temperature, K	Henry's Law constant (mole fraction scale), kPa of 1-butene	uncertainty
250.05	148	
270.06	331	
290.01	640	
310	1100	
329.97	1690	

System: 2-methylpropene + 2-methyl-1-butanol; phases: Liquid, Gas
Fixed: Mole fraction of 2-methylpropene = 0
Property: Activity coefficient of 2-methylpropene (Liquid); method: OTHER
Temperature, K	Activity coefficient of 2-methylpropene	uncertainty
250.05	3.04	
270.06	3.02	
290.01	2.96	
310	2.87	
329.97	2.72	

System: 2-methylpropene + 2-methyl-1-butanol; phases: Liquid, Gas
Fixed: Mole fraction of 2-methylpropene = 0
Property: Henry's Law constant (mole fraction scale), kPa of 2-methylpropene (Liquid); method: OTHER
Temperature, K	Henry's Law constant (mole fraction scale), kPa of 2-methylpropene	uncertainty
250.05	151	
270.06	337	
290.01	650	
310	1100	
329.97	1680	

System: 2-methyl-1-butanol + (E)-2-butene; phases: Liquid, Gas
Fixed: Mole fraction of (E)-2-butene = 0
Property: Activity coefficient of (E)-2-butene (Liquid); method: OTHER
Temperature, K	Activity coefficient of (E)-2-butene	uncertainty
250.05	2.96	
270.06	2.91	
290.01	2.9	
310	2.84	
329.97	2.73	

System: 2-methyl-1-butanol + (E)-2-butene; phases: Liquid, Gas
Fixed: Mole fraction of (E)-2-butene = 0
Property: Henry's Law constant (mole fraction scale), kPa of (E)-2-butene (Liquid); method: OTHER
Temperature, K	Henry's Law constant (mole fraction scale), kPa of (E)-2-butene	uncertainty
250.05	107	
270.06	244	
290.01	490	
310	860	
329.97	1370	

System: 1,3-butadiene + 2-methyl-1-butanol; phases: Liquid, Gas
Fixed: Mole fraction of 1,3-butadiene = 0
Property: Activity coefficient of 1,3-butadiene (Liquid); method: OTHER
Temperature, K	Activity coefficient of 1,3-butadiene	uncertainty
250.05	2.83	
270.06	2.79	
290.01	2.73	
310	2.6	
329.97	2.46	

System: 1,3-butadiene + 2-methyl-1-butanol; phases: Liquid, Gas
Fixed: Mole fraction of 1,3-butadiene = 0
Property: Henry's Law constant (mole fraction scale), kPa of 1,3-butadiene (Liquid); method: OTHER
Temperature, K	Henry's Law constant (mole fraction scale), kPa of 1,3-butadiene	uncertainty
250.05	128	
270.06	288	
290.01	560	
310	950	
329.97	1450	

System: propane + 3-methylbutan-1-ol; phases: Liquid, Gas
Fixed: Mole fraction of propane = 0
Property: Activity coefficient of propane (Liquid); method: OTHER
Temperature, K	Activity coefficient of propane	uncertainty
249.92	2.96	
270.01	2.97	
289.98	3.01	
310	2.97	
330	2.92	

System: propane + 3-methylbutan-1-ol; phases: Liquid, Gas
Fixed: Mole fraction of propane = 0
Property: Henry's Law constant (mole fraction scale), kPa of propane (Liquid); method: OTHER
Temperature, K	Henry's Law constant (mole fraction scale), kPa of propane	uncertainty
249.92	610	
270.01	1160	
289.98	2010	
310	3090	
330	4400	

System: propene + 3-methylbutan-1-ol; phases: Liquid, Gas
Fixed: Mole fraction of propene = 0
Property: Activity coefficient of propene (Liquid); method: OTHER
Temperature, K	Activity coefficient of propene	uncertainty
249.92	2.56	
270.01	2.59	
289.98	2.61	
310	2.56	
330	2.5	

System: propene + 3-methylbutan-1-ol; phases: Liquid, Gas
Fixed: Mole fraction of propene = 0
Property: Henry's Law constant (mole fraction scale), kPa of propene (Liquid); method: OTHER
Temperature, K	Henry's Law constant (mole fraction scale), kPa of propene	uncertainty
249.92	650	
270.01	1230	
289.98	2070	
310	3120	
330	4390	

System: butane + 3-methylbutan-1-ol; phases: Liquid, Gas
Fixed: Mole fraction of butane = 0
Property: Activity coefficient of butane (Liquid); method: OTHER
Temperature, K	Activity coefficient of butane	uncertainty
249.92	3.27	
270.01	3.25	
289.98	3.25	
310	3.2	
330	3.12	

System: butane + 3-methylbutan-1-ol; phases: Liquid, Gas
Fixed: Mole fraction of butane = 0
Property: Henry's Law constant (mole fraction scale), kPa of butane (Liquid); method: OTHER
Temperature, K	Henry's Law constant (mole fraction scale), kPa of butane	uncertainty
249.92	126	
270.01	288	
289.98	570	
310	1090	
330	1610	

System: 2-methylpropane + 3-methylbutan-1-ol; phases: Liquid, Gas
Fixed: Mole fraction of 2-methylpropane = 0
Property: Activity coefficient of 2-methylpropane (Liquid); method: OTHER
Temperature, K	Activity coefficient of 2-methylpropane	uncertainty
249.92	3.46	
270.01	3.49	
289.98	3.47	
310	3.4	
330	3.35	

System: 2-methylpropane + 3-methylbutan-1-ol; phases: Liquid, Gas
Fixed: Mole fraction of 2-methylpropane = 0
Property: Henry's Law constant (mole fraction scale), kPa of 2-methylpropane (Liquid); method: OTHER
Temperature, K	Henry's Law constant (mole fraction scale), kPa of 2-methylpropane	uncertainty
249.92	211	
270.01	462	
289.98	870	
310	1460	
330	2260	

System: 1-butene + 3-methylbutan-1-ol; phases: Liquid, Gas
Fixed: Mole fraction of 1-butene = 0
Property: Activity coefficient of 1-butene (Liquid); method: OTHER
Temperature, K	Activity coefficient of 1-butene	uncertainty
249.92	2.88	
270.01	2.88	
289.98	2.89	
310	2.83	
330	2.75	

System: 1-butene + 3-methylbutan-1-ol; phases: Liquid, Gas
Fixed: Mole fraction of 1-butene = 0
Property: Henry's Law constant (mole fraction scale), kPa of 1-butene (Liquid); method: OTHER
Temperature, K	Henry's Law constant (mole fraction scale), kPa of 1-butene	uncertainty
249.92	140	
270.01	315	
289.98	620	
310	1070	
330	1680	

System: 2-methylpropene + 3-methylbutan-1-ol; phases: Liquid, Gas
Fixed: Mole fraction of 2-methylpropene = 0
Property: Activity coefficient of 2-methylpropene (Liquid); method: OTHER
Temperature, K	Activity coefficient of 2-methylpropene	uncertainty
249.92	2.85	
270.01	2.86	
289.98	2.85	
310	2.78	
330	2.7	

System: 2-methylpropene + 3-methylbutan-1-ol; phases: Liquid, Gas
Fixed: Mole fraction of 2-methylpropene = 0
Property: Henry's Law constant (mole fraction scale), kPa of 2-methylpropene (Liquid); method: OTHER
Temperature, K	Henry's Law constant (mole fraction scale), kPa of 2-methylpropene	uncertainty
249.92	141	
270.01	318	
289.98	620	
310	1070	
330	1670	

System: 3-methylbutan-1-ol + (E)-2-butene; phases: Liquid, Gas
Fixed: Mole fraction of (E)-2-butene = 0
Property: Activity coefficient of (E)-2-butene (Liquid); method: OTHER
Temperature, K	Activity coefficient of (E)-2-butene	uncertainty
249.92	2.76	
270.01	2.79	
289.98	2.8	
310	2.78	
330	2.73	

System: 3-methylbutan-1-ol + (E)-2-butene; phases: Liquid, Gas
Fixed: Mole fraction of (E)-2-butene = 0
Property: Henry's Law constant (mole fraction scale), kPa of (E)-2-butene (Liquid); method: OTHER
Temperature, K	Henry's Law constant (mole fraction scale), kPa of (E)-2-butene	uncertainty
249.92	99	
270.01	234	
289.98	473	
310	850	
330	1360	

System: 1,3-butadiene + 3-methylbutan-1-ol; phases: Liquid, Gas
Fixed: Mole fraction of 1,3-butadiene = 0
Property: Activity coefficient of 1,3-butadiene (Liquid); method: OTHER
Temperature, K	Activity coefficient of 1,3-butadiene	uncertainty
249.92	2.6	
270.01	2.61	
289.98	2.6	
310	2.53	
330	2.44	

System: 1,3-butadiene + 3-methylbutan-1-ol; phases: Liquid, Gas
Fixed: Mole fraction of 1,3-butadiene = 0
Property: Henry's Law constant (mole fraction scale), kPa of 1,3-butadiene (Liquid); method: OTHER
Temperature, K	Henry's Law constant (mole fraction scale), kPa of 1,3-butadiene	uncertainty
249.92	117	
270.01	269	
289.98	530	
310	920	
330	1440	

System: propane + 2-methylbutan-2-ol; phases: Liquid, Gas
Fixed: Mole fraction of propane = 0
Property: Activity coefficient of propane (Liquid); method: OTHER
Temperature, K	Activity coefficient of propane	uncertainty
270.02	2.68	
280	2.62	
290	2.57	
300	2.53	
310	2.49	
320	2.44	
330	2.39	

System: propane + 2-methylbutan-2-ol; phases: Liquid, Gas
Fixed: Mole fraction of propane = 0
Property: Henry's Law constant (mole fraction scale), kPa of propane (Liquid); method: OTHER
Temperature, K	Henry's Law constant (mole fraction scale), kPa of propane	uncertainty
270.02	1050	
280	1350	
290	1710	
300	2130	
310	2600	
320	3080	
330	3600	

System: 2-methylbutan-2-ol + propene; phases: Liquid, Gas
Fixed: Mole fraction of propene = 0
Property: Activity coefficient of propene (Liquid); method: OTHER
Temperature, K	Activity coefficient of propene	uncertainty
270.02	2.44	
280	2.37	
290	2.31	
300	2.25	
310	2.2	
320	2.14	
330	2.08	

System: 2-methylbutan-2-ol + propene; phases: Liquid, Gas
Fixed: Mole fraction of propene = 0
Property: Henry's Law constant (mole fraction scale), kPa of propene (Liquid); method: OTHER
Temperature, K	Henry's Law constant (mole fraction scale), kPa of propene	uncertainty
270.02	1160	
280	1470	
290	1840	
300	2240	
310	2680	
320	3150	
330	3650	

System: 2-methylbutan-2-ol + butane; phases: Liquid, Gas
Fixed: Mole fraction of butane = 0
Property: Activity coefficient of butane (Liquid); method: OTHER
Temperature, K	Activity coefficient of butane	uncertainty
270.02	2.79	
280	2.73	
290	2.7	
300	2.64	
310	2.56	
320	2.5	
330	2.42	

System: 2-methylbutan-2-ol + butane; phases: Liquid, Gas
Fixed: Mole fraction of butane = 0
Property: Henry's Law constant (mole fraction scale), kPa of butane (Liquid); method: OTHER
Temperature, K	Henry's Law constant (mole fraction scale), kPa of butane	uncertainty
270.02	247	
280	347	
290	476	
300	630	
310	810	
320	1020	
330	1250	

System: 2-methylpropane + 2-methylbutan-2-ol; phases: Liquid, Gas
Fixed: Mole fraction of 2-methylpropane = 0
Property: Activity coefficient of 2-methylpropane (Liquid); method: OTHER
Temperature, K	Activity coefficient of 2-methylpropane	uncertainty
270.02	2.94	
280	2.88	
290	2.84	
300	2.79	
310	2.7	
320	2.67	
330	2.59	

System: 2-methylpropane + 2-methylbutan-2-ol; phases: Liquid, Gas
Fixed: Mole fraction of 2-methylpropane = 0
Property: Henry's Law constant (mole fraction scale), kPa of 2-methylpropane (Liquid); method: OTHER
Temperature, K	Henry's Law constant (mole fraction scale), kPa of 2-methylpropane	uncertainty
270.02	389	
280	530	
290	710	
300	920	
310	1160	
320	1450	
330	1750	

System: 2-methylbutan-2-ol + 1-butene; phases: Liquid, Gas
Fixed: Mole fraction of 1-butene = 0
Property: Activity coefficient of 1-butene (Liquid); method: OTHER
Temperature, K	Activity coefficient of 1-butene	uncertainty
270.02	2.63	
280	2.54	
290	2.47	
300	2.4	
310	2.35	
320	2.28	
330	2.19	

System: 2-methylbutan-2-ol + 1-butene; phases: Liquid, Gas
Fixed: Mole fraction of 1-butene = 0
Property: Henry's Law constant (mole fraction scale), kPa of 1-butene (Liquid); method: OTHER
Temperature, K	Henry's Law constant (mole fraction scale), kPa of 1-butene	uncertainty
270.02	289	
280	396	
290	530	
300	690	
310	890	
320	1100	
330	1340	

System: 2-methylbutan-2-ol + 2-methylpropene; phases: Liquid, Gas
Fixed: Mole fraction of 2-methylpropene = 0
Property: Activity coefficient of 2-methylpropene (Liquid); method: OTHER
Temperature, K	Activity coefficient of 2-methylpropene	uncertainty
270.02	2.6	
280	2.52	
290	2.45	
300	2.38	
310	2.31	
320	2.24	
330	2.19	

System: 2-methylbutan-2-ol + 2-methylpropene; phases: Liquid, Gas
Fixed: Mole fraction of 2-methylpropene = 0
Property: Henry's Law constant (mole fraction scale), kPa of 2-methylpropene (Liquid); method: OTHER
Temperature, K	Henry's Law constant (mole fraction scale), kPa of 2-methylpropene	uncertainty
270.02	290	
280	399	
290	530	
300	700	
310	890	
320	1100	
330	1360	

System: 2-methylbutan-2-ol + (E)-2-butene; phases: Liquid, Gas
Fixed: Mole fraction of (E)-2-butene = 0
Property: Activity coefficient of (E)-2-butene (Liquid); method: OTHER
Temperature, K	Activity coefficient of (E)-2-butene	uncertainty
270.02	2.55	
280	2.47	
290	2.42	
300	2.35	
310	2.29	
320	2.24	
330	2.18	

System: 2-methylbutan-2-ol + (E)-2-butene; phases: Liquid, Gas
Fixed: Mole fraction of (E)-2-butene = 0
Property: Henry's Law constant (mole fraction scale), kPa of (E)-2-butene (Liquid); method: OTHER
Temperature, K	Henry's Law constant (mole fraction scale), kPa of (E)-2-butene	uncertainty
270.02	214	
280	298	
290	409	
300	540	
310	700	
320	880	
330	1090	

System: 2-methylbutan-2-ol + 1,3-butadiene; phases: Liquid, Gas
Fixed: Mole fraction of 1,3-butadiene = 0
Property: Activity coefficient of 1,3-butadiene (Liquid); method: OTHER
Temperature, K	Activity coefficient of 1,3-butadiene	uncertainty
270.02	2.59	
280	2.48	
290	2.37	
300	2.26	
310	2.16	
320	2.07	
330	1.98	

System: 2-methylbutan-2-ol + 1,3-butadiene; phases: Liquid, Gas
Fixed: Mole fraction of 1,3-butadiene = 0
Property: Henry's Law constant (mole fraction scale), kPa of 1,3-butadiene (Liquid); method: OTHER
Temperature, K	Henry's Law constant (mole fraction scale), kPa of 1,3-butadiene	uncertainty
270.02	267	
280	365	
290	484	
300	620	
310	790	
320	970	
330	1170	
