Measured thermophysical data. Solubility of Anti-Inflammatory, Anti-Cancer, and Anti-HIV Drugs in Supercritical Carbon Dioxide
Source: J. Chem. Eng. Data, 2005, 10.1021/je049551l
Compound 1: carbon dioxide, CO2, InChI=1S/CO2/c2-1-3
Compound 2: ibuprofen, C13H18O2, InChI=1S/C13H18O2/c1-9(2)8-11-4-6-12(7-5-11)10(3)13(14)15/h4-7,9-10H,8H2,1-3H3,(H,14,15)
Compound 3: (S)-(+)-naproxen, C14H14O3, InChI=1S/C14H14O3/c1-9(14(15)16)10-3-4-12-8-13(17-2)6-5-11(12)7-10/h3-9H,1-2H3,(H,15,16)/t9-/m0/s1
Compound 4: N-acetyl-p-aminophenol, C8H9NO2, InChI=1S/C8H9NO2/c1-6(10)9-7-2-4-8(11)5-3-7/h2-5,11H,1H3,(H,9,10)
Compound 5: 5-fluoro-2,4(1H,3H)-pyrimidinedione, C4H3FN2O2, InChI=1S/C4H3FN2O2/c5-2-1-6-4(9)7-3(2)8/h1H,(H2,6,7,8,9)
Compound 6: thymidine, C10H14N2O5, InChI=1S/C10H14N2O5/c1-5-3-12(10(16)11-9(5)15)8-2-6(14)7(4-13)17-8/h3,6-8,13-14H,2,4H2,1H3,(H,11,15,16)/t6?,7-,8-/m1/s1
Compound 7: paclitaxel, C47H51NO14, InChI=1S/C47H51NO14/c1-25-31(60-43(56)36(52)35(28-16-10-7-11-17-28)48-41(54)29-18-12-8-13-19-29)23-47(57)40(61-42(55)30-20-14-9-15-21-30)38-45(6,32(51)22-33-46(38,24-58-33)62-27(3)50)39(53)37(59-26(2)49)34(25)44(47,4)5/h7-21,31-33,35-38,40,51-52,57H,22-24H2,1-6H3,(H,48,54)/t31-,32-,33+,35-,36+,37+,38-,40-,45+,46-,47+/m0/s1
Compound 8: 2-phenyl-4H-3,1-benzoxazin-4-one, C14H9NO2, InChI=1S/C14H9NO2/c16-14-11-8-4-5-9-12(11)15-13(17-14)10-6-2-1-3-7-10/h1-9H
Compound 9: azodicarbonamide, C2H4N4O2, InChI=1S/C2H4N4O2/c3-1(7)5-6-2(4)8/h(H2,3,7)(H2,4,8)/b6-5+

System: ibuprofen; phases: Crystal, Liquid, Air at 1 atmosphere
Property: Normal melting temperature, K (Crystal); method: DTA
Normal melting temperature, K	uncertainty
347.65	3

System: (S)-(+)-naproxen; phases: Crystal, Liquid, Air at 1 atmosphere
Property: Normal melting temperature, K (Crystal); method: DTA
Normal melting temperature, K	uncertainty
430.65	1.06

System: N-acetyl-p-aminophenol; phases: Crystal, Liquid, Air at 1 atmosphere
Property: Normal melting temperature, K (Crystal); method: DTA
Normal melting temperature, K	uncertainty
443.15	4

System: 5-fluoro-2,4(1H,3H)-pyrimidinedione; phases: Crystal, Liquid, Air at 1 atmosphere
Property: Normal melting temperature, K (Crystal); method: DTA
Normal melting temperature, K	uncertainty
557.15	4

System: thymidine; phases: Crystal, Liquid, Air at 1 atmosphere
Property: Normal melting temperature, K (Crystal); method: DTA
Normal melting temperature, K	uncertainty
460.15	2

System: paclitaxel; phases: Crystal, Liquid, Air at 1 atmosphere
Property: Normal melting temperature, K (Crystal); method: DTA
Normal melting temperature, K	uncertainty
488.15	4

System: 2-phenyl-4H-3,1-benzoxazin-4-one; phases: Crystal, Liquid, Air at 1 atmosphere
Property: Normal melting temperature, K (Crystal); method: DTA
Normal melting temperature, K	uncertainty
397.15	2

System: azodicarbonamide; phases: Crystal, Liquid, Air at 1 atmosphere
Property: Normal melting temperature, K (Crystal); method: DTA
Normal melting temperature, K	uncertainty
497.65	1.1

System: carbon dioxide + ibuprofen; phases: Fluid (supercritical or subcritical phases), Crystal
Fixed: Temperature, K = 313.15
Property: Mole fraction of ibuprofen (Fluid (supercritical or subcritical phases)); method: Chromatography
Pressure, kPa	Mole fraction of ibuprofen	uncertainty
12120	0.0021	0.0004
15080	0.0049	0.001
17010	0.0058	0.0012
18030	0.006	0.0012
19000	0.0067	0.0013
20030	0.0068	0.0014
20980	0.0068	0.0014
22000	0.0071	0.0014
23100	0.0077	0.0015

System: carbon dioxide + (S)-(+)-naproxen; phases: Fluid (supercritical or subcritical phases), Crystal
Fixed: Temperature, K = 313.15
Property: Mole fraction of (S)-(+)-naproxen (Fluid (supercritical or subcritical phases)); method: Chromatography
Pressure, kPa	Mole fraction of (S)-(+)-naproxen	uncertainty
12110	0.001	0.0002
14050	0.0017	0.0003
15960	0.0023	0.0005
16040	0.0023	0.0005
18500	0.0025	0.0005
19040	0.0028	0.0006
21930	0.0032	0.0006
24920	0.0035	0.0007
27980	0.0042	0.0008

System: 5-fluoro-2,4(1H,3H)-pyrimidinedione + carbon dioxide; phases: Fluid (supercritical or subcritical phases), Crystal
Property: Mole fraction of 5-fluoro-2,4(1H,3H)-pyrimidinedione (Fluid (supercritical or subcritical phases)); method: Chromatography
Temperature, K	Pressure, kPa	Mole fraction of 5-fluoro-2,4(1H,3H)-pyrimidinedione	uncertainty
308.15	12500	3.8e-06	8e-07
308.15	15000	4.5e-06	9e-07
308.15	17500	5.1e-06	1e-06
308.15	20000	5.5e-06	1.1e-06
308.15	22500	6.5e-06	1.3e-06
308.15	25000	7.3e-06	1.5e-06
318.15	12500	5.8e-06	1.2e-06
318.15	15000	6.4e-06	1.3e-06
318.15	17500	6.6e-06	1.3e-06
318.15	20000	6.4e-06	1.3e-06
318.15	22500	6.4e-06	1.3e-06
318.15	25000	9e-06	1.8e-06
328.15	12500	9.4e-06	1.9e-06
328.15	15000	1.04e-05	2.1e-06
328.15	17500	1.05e-05	2.1e-06
328.15	20000	1.06e-05	2.1e-06
328.15	22500	1.32e-05	2.6e-06
328.15	25000	1.46e-05	2.9e-06

System: thymidine + carbon dioxide; phases: Fluid (supercritical or subcritical phases), Crystal
Property: Mole fraction of thymidine (Fluid (supercritical or subcritical phases)); method: Chromatography
Temperature, K	Pressure, kPa	Mole fraction of thymidine	uncertainty
308.15	10000	1.2e-06	2e-07
308.15	12500	1.2e-06	2e-07
308.15	15000	1.4e-06	3e-07
308.15	17500	1.5e-06	3e-07
308.15	20000	1.8e-06	4e-07
308.15	22500	1.9e-06	4e-07
308.15	25000	2e-06	4e-07
308.15	27500	2.6e-06	5e-07
308.15	30000	7.4e-06	1.5e-06
318.15	10000	2.7e-06	5e-07
318.15	12500	2.7e-06	5e-07
318.15	15000	2.7e-06	5e-07
318.15	17500	3e-06	6e-07
318.15	20000	4.5e-06	9e-07
318.15	22500	4.7e-06	9e-07
318.15	25000	7.2e-06	1.4e-06
328.15	10000	3e-06	6e-07
328.15	12500	2.8e-06	6e-07
328.15	15000	3e-06	6e-07
328.15	17500	2.9e-06	6e-07
328.15	20000	3.2e-06	6e-07
328.15	22500	3.7e-06	7e-07
328.15	25000	3.8e-06	8e-07
328.15	27500	4.4e-06	9e-07
328.15	30000	8e-06	1.6e-06

System: carbon dioxide + paclitaxel; phases: Fluid (supercritical or subcritical phases), Crystal
Property: Mole fraction of paclitaxel (Fluid (supercritical or subcritical phases)); method: Chromatography
Temperature, K	Pressure, kPa	Mole fraction of paclitaxel	uncertainty
308.15	10000	1.3e-06	3e-07
308.15	12500	1.3e-06	3e-07
308.15	15000	1.2e-06	3e-07
308.15	17500	1.6e-06	3e-07
308.15	20000	2.2e-06	5e-07
308.15	22500	2.6e-06	5e-07
308.15	25000	3.5e-06	7e-07
308.15	27500	3.7e-06	8e-07
318.15	12500	3.5e-06	7e-07
318.15	15000	3.4e-06	7e-07
318.15	17500	3.2e-06	7e-07
318.15	20000	3.2e-06	7e-07
318.15	22500	3.1e-06	6e-07
318.15	25000	3.3e-06	7e-07
318.15	27500	3.5e-06	7e-07
328.15	15000	6.2e-06	1.3e-06
328.15	17500	5.7e-06	1.2e-06
328.15	20000	5.8e-06	1.2e-06
328.15	22500	5.7e-06	1.2e-06
328.15	25000	5.9e-06	1.2e-06
328.15	27500	5.9e-06	1.2e-06

System: carbon dioxide + 2-phenyl-4H-3,1-benzoxazin-4-one; phases: Fluid (supercritical or subcritical phases), Crystal
Property: Mole fraction of 2-phenyl-4H-3,1-benzoxazin-4-one (Fluid (supercritical or subcritical phases)); method: Chromatography
Temperature, K	Pressure, kPa	Mole fraction of 2-phenyl-4H-3,1-benzoxazin-4-one	uncertainty
308.15	10000	8e-05	2e-05
308.15	12500	8e-05	2e-05
308.15	15000	8e-05	2e-05
308.15	17500	0.0001	2e-05
308.15	20000	0.00011	2e-05
308.15	22500	0.00011	2e-05
308.15	25000	0.00012	2e-05
308.15	27500	0.00014	3e-05
308.15	30000	0.00038	8e-05
318.15	10000	8e-05	2e-05
318.15	12500	7e-05	2e-05
318.15	15000	7e-05	2e-05
318.15	17500	8e-05	2e-05
318.15	20000	9e-05	2e-05
318.15	22500	9e-05	2e-05
318.15	25000	0.00012	2e-05
318.15	27500	0.00016	3e-05
318.15	30000	0.00045	9e-05
328.15	12500	0.00012	2e-05
328.15	15000	0.00012	2e-05
328.15	17500	0.00014	3e-05
328.15	20000	0.0002	4e-05
328.15	22500	0.00022	4e-05
328.15	25000	0.00038	8e-05
328.15	27500	0.00043	9e-05
328.15	30000	0.00045	9e-05

System: azodicarbonamide + carbon dioxide; phases: Fluid (supercritical or subcritical phases), Crystal
Property: Mole fraction of azodicarbonamide (Fluid (supercritical or subcritical phases)); method: Chromatography
Temperature, K	Pressure, kPa	Mole fraction of azodicarbonamide	uncertainty
308.15	10000	9e-06	2e-06
308.15	12500	1e-05	2e-06
308.15	15000	1e-05	2e-06
308.15	17500	1.3e-05	3e-06
308.15	20000	1.3e-05	3e-06
308.15	22500	1.3e-05	3e-06
308.15	25000	2.1e-05	4e-06
308.15	27500	2.2e-05	4e-06
308.15	30000	2.6e-05	5e-06
318.15	10000	8e-06	2e-06
318.15	12500	1e-05	2e-06
318.15	15000	1e-05	2e-06
318.15	17500	1e-05	2e-06
318.15	20000	1e-05	2e-06
318.15	22500	1e-05	2e-06
318.15	25000	1.1e-05	2e-06
318.15	27500	1.4e-05	3e-06
318.15	30000	1.8e-05	4e-06
328.15	12500	1.1e-05	2e-06
328.15	15000	1e-05	2e-06
328.15	17500	1e-05	2e-06
328.15	20000	1e-05	2e-06
328.15	22500	1.3e-05	3e-06
328.15	25000	1.5e-05	3e-06
328.15	27500	1.5e-05	3e-06
328.15	30000	2e-05	4e-06
