Measured thermophysical data. Standard Sublimation Enthalpies of some dichlorophenoxy acids and their methyl esters
Source: J. Chem. Eng. Data, 2005, 10.1021/je049626l
Compound 1: 2,4-dichlorophenoxyethanoic acid, C8H6Cl2O3, InChI=1S/C8H6Cl2O3/c9-5-1-2-7(6(10)3-5)13-4-8(11)12/h1-3H,4H2,(H,11,12), purity 99%
Compound 2: 2-(2,4-dichlorophenoxy)propanoic acid, C9H8Cl2O3, InChI=1S/C9H8Cl2O3/c1-5(9(12)13)14-8-3-2-6(10)4-7(8)11/h2-5H,1H3,(H,12,13), purity 99%
Compound 3: 4-(2,4-dichlorophenoxy)butanoic acid, C10H10Cl2O3, InChI=1S/C10H10Cl2O3/c11-7-3-4-9(8(12)6-7)15-5-1-2-10(13)14/h3-4,6H,1-2,5H2,(H,13,14), purity 99%
Compound 4: methyl 2,4-dichlorophenoxyethanoate, C9H8Cl2O3, InChI=1S/C9H8Cl2O3/c1-13-9(12)5-14-8-3-2-6(10)4-7(8)11/h2-4H,5H2,1H3, purity 99%
Compound 5: butanoic acid, 4-(2,4-dichlorophenoxy)-, methyl ester, C11H12Cl2O3, InChI=1S/C11H12Cl2O3/c1-15-11(14)3-2-6-16-10-5-4-8(12)7-9(10)13/h4-5,7H,2-3,6H2,1H3, purity 99%

System: 2,4-dichlorophenoxyethanoic acid; phases: Crystal, Liquid, Air at 1 atmosphere
Property: Normal melting temperature, K (Crystal); method: DTA:FP
Normal melting temperature, K	uncertainty
414.5	0.5

System: 2,4-dichlorophenoxyethanoic acid; phases: Liquid, Gas
Property: Molar enthalpy of vaporization or sublimation, kJ/mol (Liquid); method: DSC
Temperature, K	Molar enthalpy of vaporization or sublimation, kJ/mol	uncertainty
479.1	76	4

System: 2,4-dichlorophenoxyethanoic acid; phases: Liquid, Gas
Property: Molar enthalpy of vaporization or sublimation, kJ/mol (Liquid); method: DSC
Temperature, K	Molar enthalpy of vaporization or sublimation, kJ/mol	uncertainty
489.5	76	6

System: 2,4-dichlorophenoxyethanoic acid; phases: Liquid, Gas
Property: Molar enthalpy of vaporization or sublimation, kJ/mol (Liquid); method: DSC
Temperature, K	Molar enthalpy of vaporization or sublimation, kJ/mol	uncertainty
503.3	77	5

System: 2,4-dichlorophenoxyethanoic acid; phases: Crystal, Gas
Property: Vapor or sublimation pressure, kPa (Crystal); method: OTHER:UFactor:2:sMethod:Torsion effusion method
Temperature, K	Vapor or sublimation pressure, kPa	uncertainty
346	8.48e-05	2e-05
348	0.000157	1.9e-05
348.5	0.000127	3.3e-05
351	0.00017	4.6e-05
351.5	0.000127	2.5e-05
352	0.000212	4.5e-05
353	0.000255	2.8e-05
353	0.000314	3.3e-05
354.5	0.000276	4e-05
354.5	0.000212	3.6e-05
357	0.000472	0.000102
357.5	0.000382	8.6e-05
358	0.000318	3.3e-05
358.5	0.000382	4.8e-05
360	0.000445	5.1e-05
360	0.000629	7.4e-05
360.5	0.000488	7.2e-05
361	0.000551	7e-05
361.5	0.000573	5.8e-05
362.5	0.000573	7.1e-05
363	0.000721	8.9e-05
363	0.000679	8.7e-05
364.5	0.000806	9.1e-05
365.5	0.000933	0.00011
365.5	0.00126	0.00028
366	0.000976	0.000107
366	0.000848	0.00012
369	0.00132	0.00028
369	0.0014	0.00031
369	0.0011	0.00023
370	0.00136	0.0003
370	0.00204	0.00048
370.5	0.00153	0.00038
371	0.0017	0.00038
373	0.00174	0.00041
374	0.00255	0.00065
375	0.00255	0.00062
375	0.00212	0.0005
375.5	0.00229	0.00056
377	0.00297	0.00075
378	0.00293	0.00074
378	0.00481	0.0013
379	0.00361	0.00094
379.5	0.00344	0.00088
380.5	0.00386	0.00102
383.5	0.00509	0.00148
384.5	0.00912	0.00275
385	0.00594	0.00183
386	0.00628	0.00177
387	0.0067	0.00191

System: 2-(2,4-dichlorophenoxy)propanoic acid; phases: Crystal, Liquid, Air at 1 atmosphere
Property: Normal melting temperature, K (Crystal); method: DTA:FP
Normal melting temperature, K	uncertainty
389.7	0.5

System: 2-(2,4-dichlorophenoxy)propanoic acid; phases: Liquid, Gas
Property: Molar enthalpy of vaporization or sublimation, kJ/mol (Liquid); method: DSC
Temperature, K	Molar enthalpy of vaporization or sublimation, kJ/mol	uncertainty
466.7	76	6

System: 2-(2,4-dichlorophenoxy)propanoic acid; phases: Liquid, Gas
Property: Molar enthalpy of vaporization or sublimation, kJ/mol (Liquid); method: DSC
Temperature, K	Molar enthalpy of vaporization or sublimation, kJ/mol	uncertainty
474	76	6

System: 2-(2,4-dichlorophenoxy)propanoic acid; phases: Liquid, Gas
Property: Molar enthalpy of vaporization or sublimation, kJ/mol (Liquid); method: DSC
Temperature, K	Molar enthalpy of vaporization or sublimation, kJ/mol	uncertainty
477.9	76	5

System: 2-(2,4-dichlorophenoxy)propanoic acid; phases: Crystal, Gas
Property: Vapor or sublimation pressure, kPa (Crystal); method: OTHER:UFactor:2:sMethod:Torsion effusion method
Temperature, K	Vapor or sublimation pressure, kPa	uncertainty
343	0.000157	2.1e-05
347	0.000267	3.5e-05
347	0.000297	3.7e-05
352	0.000551	6e-05
353	0.000503	5.9e-05
356	0.000764	8.4e-05
356	0.000708	7.9e-05
358	0.000849	8.8e-05
359	0.000912	0.000137
360	0.00126	0.00028
361	0.00126	0.0003
361	0.00153	0.00036
364	0.00223	0.00054
365	0.00208	0.00049
366	0.00252	0.00066
366	0.00339	0.00089
368	0.00361	0.00095
370	0.00445	0.0012
371	0.00481	0.00129
372	0.00472	0.00133
374	0.00721	0.0021
375	0.00692	0.00197

System: 4-(2,4-dichlorophenoxy)butanoic acid; phases: Crystal, Liquid, Air at 1 atmosphere
Property: Normal melting temperature, K (Crystal); method: DTA:FP
Normal melting temperature, K	uncertainty
393.2	0.5

System: 4-(2,4-dichlorophenoxy)butanoic acid; phases: Liquid, Gas
Property: Molar enthalpy of vaporization or sublimation, kJ/mol (Liquid); method: DSC
Temperature, K	Molar enthalpy of vaporization or sublimation, kJ/mol	uncertainty
485.7	81	9

System: 4-(2,4-dichlorophenoxy)butanoic acid; phases: Liquid, Gas
Property: Molar enthalpy of vaporization or sublimation, kJ/mol (Liquid); method: DSC
Temperature, K	Molar enthalpy of vaporization or sublimation, kJ/mol	uncertainty
495	81	10

System: 4-(2,4-dichlorophenoxy)butanoic acid; phases: Liquid, Gas
Property: Molar enthalpy of vaporization or sublimation, kJ/mol (Liquid); method: DSC
Temperature, K	Molar enthalpy of vaporization or sublimation, kJ/mol	uncertainty
501.1	81	9

System: 4-(2,4-dichlorophenoxy)butanoic acid; phases: Crystal, Gas
Property: Vapor or sublimation pressure, kPa (Crystal); method: OTHER:UFactor:2:sMethod:Torsion effusion method
Temperature, K	Vapor or sublimation pressure, kPa	uncertainty
356.5	8.48e-05	1.11e-05
358	0.000106	1.3e-05
359.5	0.000127	1.6e-05
360	0.000148	1.6e-05
360	0.000157	1.7e-05
361	0.000148	1.6e-05
361.5	0.00017	2.2e-05
362.5	0.000191	2.3e-05
363	0.000212	2.4e-05
363	0.000252	2.7e-05
363.5	0.000212	2.3e-05
363.5	0.000233	2.5e-05
365.5	0.000255	2.9e-05
366.5	0.000297	4e-05
367	0.000339	5.2e-05
367.5	0.000377	4.3e-05
368	0.000382	5e-05
369	0.000467	5.3e-05
369.5	0.000445	4.6e-05
370	0.000488	7.4e-05
370	0.000467	7.4e-05
372	0.000721	8.4e-05
372.5	0.000679	7.1e-05
372.5	0.000636	6.7e-05
373	0.000764	8.6e-05
373	0.000786	8.7e-05
374	0.000806	9.1e-05
375	0.000933	0.000102
375	0.00106	0.00022
377	0.00106	0.00022
377	0.00123	0.00026
377.5	0.00123	0.0003
378	0.00138	0.0003
378	0.0017	0.00038
380	0.00161	0.00038
381	0.00229	0.00056
382	0.00221	0.00055
383	0.00297	0.00076
383	0.00283	0.00072
384	0.00297	0.00075
386	0.00369	0.00096
386	0.0044	0.00118
386.5	0.00365	0.00104
387	0.00458	0.00126
389	0.00539	0.00148
389.5	0.00526	0.00148
391	0.0067	0.00195
391	0.00666	0.00194

System: methyl 2,4-dichlorophenoxyethanoate; phases: Crystal, Liquid, Air at 1 atmosphere
Property: Normal melting temperature, K (Crystal); method: DTA:FP
Normal melting temperature, K	uncertainty
310.7	0.5

System: methyl 2,4-dichlorophenoxyethanoate; phases: Liquid, Gas
Property: Molar enthalpy of vaporization or sublimation, kJ/mol (Liquid); method: DSC
Temperature, K	Molar enthalpy of vaporization or sublimation, kJ/mol	uncertainty
415.2	59	3

System: methyl 2,4-dichlorophenoxyethanoate; phases: Liquid, Gas
Property: Molar enthalpy of vaporization or sublimation, kJ/mol (Liquid); method: DSC
Temperature, K	Molar enthalpy of vaporization or sublimation, kJ/mol	uncertainty
424.4	60	3

System: methyl 2,4-dichlorophenoxyethanoate; phases: Liquid, Gas
Property: Molar enthalpy of vaporization or sublimation, kJ/mol (Liquid); method: DSC
Temperature, K	Molar enthalpy of vaporization or sublimation, kJ/mol	uncertainty
430.4	60	3

System: butanoic acid, 4-(2,4-dichlorophenoxy)-, methyl ester; phases: Crystal, Liquid, Air at 1 atmosphere
Property: Normal melting temperature, K (Crystal); method: DTA:FP
Normal melting temperature, K	uncertainty
308.1	0.5

System: butanoic acid, 4-(2,4-dichlorophenoxy)-, methyl ester; phases: Liquid, Gas
Property: Molar enthalpy of vaporization or sublimation, kJ/mol (Liquid); method: DSC
Temperature, K	Molar enthalpy of vaporization or sublimation, kJ/mol	uncertainty
456	66	6

System: butanoic acid, 4-(2,4-dichlorophenoxy)-, methyl ester; phases: Liquid, Gas
Property: Molar enthalpy of vaporization or sublimation, kJ/mol (Liquid); method: DSC
Temperature, K	Molar enthalpy of vaporization or sublimation, kJ/mol	uncertainty
463.4	68	7

System: butanoic acid, 4-(2,4-dichlorophenoxy)-, methyl ester; phases: Liquid, Gas
Property: Molar enthalpy of vaporization or sublimation, kJ/mol (Liquid); method: DSC
Temperature, K	Molar enthalpy of vaporization or sublimation, kJ/mol	uncertainty
469.8	68	6
