Measured thermophysical data. Density, Viscosity, Refractive Index, and Speed of Sound for Binary Mixtures of 1,4-Dioxane with Different Organic Liquids at (298.15, 303.15, and 308.15) K
Source: J. Chem. Eng. Data, 2005, 10.1021/je049609w
Compound 1: 1,4-dioxane, C4H8O2, InChI=1S/C4H8O2/c1-2-6-4-3-5-1/h1-4H2, purity 99%
Compound 2: 1,2-dichlorobenzene, C6H4Cl2, InChI=1S/C6H4Cl2/c7-5-3-1-2-4-6(5)8/h1-4H, purity 99%
Compound 3: ethyl acetate, C4H8O2, InChI=1S/C4H8O2/c1-3-6-4(2)5/h3H2,1-2H3, purity 99%
Compound 4: butan-1-ol, C4H10O, InChI=1S/C4H10O/c1-2-3-4-5/h5H,2-4H2,1H3, purity 99%
Compound 5: trichloroethene, C2HCl3, InChI=1S/C2HCl3/c3-1-2(4)5/h1H, purity 98%
Compound 6: 1-chloro-2-hydroxyethane, C2H5ClO, InChI=1S/C2H5ClO/c3-1-2-4/h4H,1-2H2, purity 99%
Compound 7: N,N-dimethylethanamide, C4H9NO, InChI=1S/C4H9NO/c1-4(6)5(2)3/h1-3H3, purity 99.7%
Compound 8: diethyl 1,3-propanedioate, C7H12O4, InChI=1S/C7H12O4/c1-3-10-6(8)5-7(9)11-4-2/h3-5H2,1-2H3, purity 99%

System: 1,4-dioxane; phases: Liquid
Fixed: Pressure, kPa = 101.325
Property: Refractive index (Na D-line) (Liquid); method: ABBE:UFactor:6
Temperature, K	Refractive index (Na D-line)	uncertainty
298.15	1.4203	0.0024
303.15	1.4164	0.0024
308.15	1.4145	0.0024

System: 1,4-dioxane; phases: Liquid
Fixed: Pressure, kPa = 101
Property: Viscosity, Pa*s (Liquid); method: CAPTUB:UFactor:4
Temperature, K	Viscosity, Pa*s	uncertainty
298.15	0.001196	3.8e-05
298.15	0.001195	3.8e-05
303.15	0.001102	3.5e-05
303.15	0.001095	3.5e-05
308.15	0.001008	3.2e-05

System: 1,4-dioxane; phases: Liquid
Property: Speed of sound, m/s (Liquid); method: LVPAI:UFactor:4
Pressure, kPa	Temperature, K	Speed of sound, m/s	uncertainty
101	298.15	1345	7

System: 1,4-dioxane; phases: Liquid
Fixed: Pressure, kPa = 101
Property: Mass density, kg/m3 (Liquid); method: PYCNOM:UFactor:4
Temperature, K	Mass density, kg/m3	uncertainty
298.15	1028.6	1.4
303.15	1022.9	1.5
308.15	1017.2	1.5

System: 1,2-dichlorobenzene; phases: Liquid
Fixed: Pressure, kPa = 101.325
Property: Refractive index (Na D-line) (Liquid); method: ABBE::UFactor:6
Temperature, K	Refractive index (Na D-line)	uncertainty
298.15	1.5499	0.0024
303.15	1.5476	0.0024
308.15	1.545	0.0024

System: 1,2-dichlorobenzene; phases: Liquid
Fixed: Pressure, kPa = 101
Property: Viscosity, Pa*s (Liquid); method: CAPTUB::UFactor:4
Temperature, K	Viscosity, Pa*s	uncertainty
298.15	0.001324	4.1e-05
303.15	0.001214	3.8e-05
308.15	0.001105	3.5e-05

System: 1,2-dichlorobenzene; phases: Liquid
Property: Speed of sound, m/s (Liquid); method: LVPAI::UFactor:4
Pressure, kPa	Temperature, K	Speed of sound, m/s	uncertainty
101	298.15	1280	7

System: 1,2-dichlorobenzene; phases: Liquid
Fixed: Pressure, kPa = 101
Property: Mass density, kg/m3 (Liquid); method: PYCNOM::UFactor:4
Temperature, K	Mass density, kg/m3	uncertainty
298.15	1300.9	1.9
303.15	1295.4	1.9
308.15	1289.7	2

System: ethyl acetate; phases: Liquid
Fixed: Pressure, kPa = 101.325
Property: Refractive index (Na D-line) (Liquid); method: ABBE::UFactor:6
Temperature, K	Refractive index (Na D-line)	uncertainty
298.15	1.3713	0.0024
303.15	1.3673	0.0024
308.15	1.3631	0.0024

System: ethyl acetate; phases: Liquid
Fixed: Pressure, kPa = 101
Property: Viscosity, Pa*s (Liquid); method: CAPTUB::UFactor:4
Temperature, K	Viscosity, Pa*s	uncertainty
298.15	0.000438	1.6e-05
303.15	0.000414	1.6e-05
308.15	0.000392	1.5e-05

System: ethyl acetate; phases: Liquid
Property: Speed of sound, m/s (Liquid); method: LVPAI::UFactor:4
Pressure, kPa	Temperature, K	Speed of sound, m/s	uncertainty
101	298.15	1155	7

System: ethyl acetate; phases: Liquid
Fixed: Pressure, kPa = 101
Property: Mass density, kg/m3 (Liquid); method: PYCNOM::UFactor:4
Temperature, K	Mass density, kg/m3	uncertainty
298.15	894.2	1.2
303.15	887.9	1.2
308.15	881.6	1.3

System: butan-1-ol; phases: Liquid
Fixed: Pressure, kPa = 101.325
Property: Refractive index (Na D-line) (Liquid); method: ABBE::UFactor:6
Temperature, K	Refractive index (Na D-line)	uncertainty
298.15	1.3983	0.0024
303.15	1.3955	0.0024
308.15	1.3937	0.0024

System: butan-1-ol; phases: Liquid
Fixed: Pressure, kPa = 101
Property: Viscosity, Pa*s (Liquid); method: CAPTUB::UFactor:4
Temperature, K	Viscosity, Pa*s	uncertainty
298.15	0.002564	7.6e-05
303.15	0.002245	6.7e-05
308.15	0.001981	6e-05

System: butan-1-ol; phases: Liquid
Property: Speed of sound, m/s (Liquid); method: LVPAI::UFactor:4
Pressure, kPa	Temperature, K	Speed of sound, m/s	uncertainty
101	298.15	1237	7

System: butan-1-ol; phases: Liquid
Fixed: Pressure, kPa = 101
Property: Mass density, kg/m3 (Liquid); method: PYCNOM::UFactor:4
Temperature, K	Mass density, kg/m3	uncertainty
298.15	805.8	1
303.15	802	1.1
308.15	798	1.1

System: trichloroethene; phases: Liquid
Fixed: Pressure, kPa = 101.325
Property: Refractive index (Na D-line) (Liquid); method: ABBE::UFactor:6
Temperature, K	Refractive index (Na D-line)	uncertainty
298.15	1.476	0.0024
303.15	1.4729	0.0024
308.15	1.4698	0.0024

System: trichloroethene; phases: Liquid
Fixed: Pressure, kPa = 101
Property: Viscosity, Pa*s (Liquid); method: CAPTUB::UFactor:4
Temperature, K	Viscosity, Pa*s	uncertainty
298.15	0.000573	2.1e-05
303.15	0.000547	2e-05
308.15	0.000521	1.9e-05

System: trichloroethene; phases: Liquid
Property: Speed of sound, m/s (Liquid); method: LVPAI::UFactor:4
Pressure, kPa	Temperature, K	Speed of sound, m/s	uncertainty
101	298.15	1027	6

System: trichloroethene; phases: Liquid
Fixed: Pressure, kPa = 101
Property: Mass density, kg/m3 (Liquid); method: PYCNOM::UFactor:4
Temperature, K	Mass density, kg/m3	uncertainty
298.15	1455.4	2.5
303.15	1447	2.5
308.15	1438.5	2.5

System: 1-chloro-2-hydroxyethane; phases: Liquid
Fixed: Pressure, kPa = 101.325
Property: Refractive index (Na D-line) (Liquid); method: ABBE::UFactor:6
Temperature, K	Refractive index (Na D-line)	uncertainty
298.15	1.4411	0.0024
303.15	1.438	0.0024
308.15	1.4326	0.0024

System: 1-chloro-2-hydroxyethane; phases: Liquid
Fixed: Pressure, kPa = 101
Property: Viscosity, Pa*s (Liquid); method: CAPTUB::UFactor:4
Temperature, K	Viscosity, Pa*s	uncertainty
298.15	0.003104	9.1e-05
303.15	0.002669	7.9e-05
308.15	0.002347	7e-05

System: 1-chloro-2-hydroxyethane; phases: Liquid
Property: Speed of sound, m/s (Liquid); method: LVPAI::UFactor:4
Pressure, kPa	Temperature, K	Speed of sound, m/s	uncertainty
101	298.15	1358	8

System: 1-chloro-2-hydroxyethane; phases: Liquid
Fixed: Pressure, kPa = 101
Property: Mass density, kg/m3 (Liquid); method: PYCNOM::UFactor:4
Temperature, K	Mass density, kg/m3	uncertainty
298.15	1200.9	1.7
303.15	1192.5	1.7
308.15	1187.1	1.8

System: N,N-dimethylethanamide; phases: Liquid
Fixed: Pressure, kPa = 101.325
Property: Refractive index (Na D-line) (Liquid); method: ABBE::UFactor:6
Temperature, K	Refractive index (Na D-line)	uncertainty
298.15	1.4363	0.0024
303.15	1.4342	0.0024
308.15	1.432	0.0024

System: N,N-dimethylethanamide; phases: Liquid
Fixed: Pressure, kPa = 101
Property: Viscosity, Pa*s (Liquid); method: CAPTUB::UFactor:4
Temperature, K	Viscosity, Pa*s	uncertainty
298.15	0.001261	3.9e-05
303.15	0.001154	3.6e-05
308.15	0.001047	3.3e-05

System: N,N-dimethylethanamide; phases: Liquid
Property: Speed of sound, m/s (Liquid); method: LVPAI::UFactor:4
Pressure, kPa	Temperature, K	Speed of sound, m/s	uncertainty
101	298.15	1458	8

System: N,N-dimethylethanamide; phases: Liquid
Fixed: Pressure, kPa = 101
Property: Mass density, kg/m3 (Liquid); method: PYCNOM::UFactor:4
Temperature, K	Mass density, kg/m3	uncertainty
298.15	946.8	1.2
303.15	942.1	1.2
308.15	937.5	1.3

System: diethyl 1,3-propanedioate; phases: Liquid
Fixed: Pressure, kPa = 101.325
Property: Refractive index (Na D-line) (Liquid); method: ABBE::UFactor:6
Temperature, K	Refractive index (Na D-line)	uncertainty
298.15	1.4132	0.0024
303.15	1.4108	0.0024
308.15	1.4085	0.0024

System: diethyl 1,3-propanedioate; phases: Liquid
Fixed: Pressure, kPa = 101
Property: Viscosity, Pa*s (Liquid); method: CAPTUB::UFactor:4
Temperature, K	Viscosity, Pa*s	uncertainty
298.15	0.001941	5.9e-05
303.15	0.001755	5.3e-05
308.15	0.001602	4.9e-05

System: diethyl 1,3-propanedioate; phases: Liquid
Property: Speed of sound, m/s (Liquid); method: LVPAI::UFactor:4
Pressure, kPa	Temperature, K	Speed of sound, m/s	uncertainty
101	298.15	1304	7

System: diethyl 1,3-propanedioate; phases: Liquid
Fixed: Pressure, kPa = 101
Property: Mass density, kg/m3 (Liquid); method: PYCNOM::UFactor:4
Temperature, K	Mass density, kg/m3	uncertainty
298.15	1049.6	1.4
303.15	1044.2	1.5
308.15	1038.8	1.5

System: 1,2-dichlorobenzene + 1,4-dioxane; phases: Liquid
Fixed: Pressure, kPa = 101
Fixed: Temperature, K = 298.15
Property: Speed of sound, m/s (Liquid); method: LVPAI:UFactor:4
Mole fraction of 1,4-dioxane	Speed of sound, m/s	uncertainty
0	1280	7
0.1025	1287	7
0.203	1293	7
0.2983	1299	7
0.3965	1305	7
0.4955	1312	7
0.596	1319	7
0.6976	1325	7
0.7992	1332	7
0.8971	1338	7
1	1345	7

System: 1,2-dichlorobenzene + 1,4-dioxane; phases: Liquid
Fixed: Pressure, kPa = 101
Property: Viscosity, Pa*s (Liquid); method: CAPTUB:UFactor:4
Temperature, K	Mole fraction of 1,4-dioxane	Viscosity, Pa*s	uncertainty
298.15	0	0.001324	4.1e-05
298.15	0.1025	0.001311	4.1e-05
298.15	0.203	0.001298	4.1e-05
298.15	0.2983	0.001285	4e-05
298.15	0.3965	0.001273	4e-05
298.15	0.4955	0.00126	4e-05
298.15	0.596	0.001247	3.9e-05
298.15	0.6976	0.001234	3.9e-05
298.15	0.7992	0.001221	3.8e-05
298.15	0.8971	0.001209	3.8e-05
298.15	1	0.001196	3.8e-05
303.15	0	0.001214	3.8e-05
303.15	0.1025	0.001203	3.8e-05
303.15	0.203	0.001191	3.8e-05
303.15	0.2983	0.001181	3.7e-05
303.15	0.3965	0.001169	3.7e-05
303.15	0.4955	0.001158	3.7e-05
303.15	0.596	0.001147	3.6e-05
303.15	0.6976	0.001135	3.6e-05
303.15	0.7992	0.001124	3.6e-05
303.15	0.8971	0.001113	3.5e-05
303.15	1	0.001102	3.5e-05
308.15	0	0.001105	3.5e-05
308.15	0.1025	0.001095	3.5e-05
308.15	0.203	0.001085	3.5e-05
308.15	0.2983	0.001076	3.4e-05
308.15	0.3965	0.001066	3.4e-05
308.15	0.4955	0.001056	3.4e-05
308.15	0.596	0.001047	3.4e-05
308.15	0.6976	0.001037	3.3e-05
308.15	0.7992	0.001027	3.3e-05
308.15	0.8971	0.001018	3.3e-05
308.15	1	0.001008	3.2e-05

System: 1,2-dichlorobenzene + 1,4-dioxane; phases: Liquid
Fixed: Pressure, kPa = 101
Property: Refractive index (Na D-line) (Liquid); method: ABBE:UFactor:6
Temperature, K	Mole fraction of 1,4-dioxane	Refractive index (Na D-line)	uncertainty
298.15	0	1.5499	0.0024
298.15	0.1025	1.5374	0.0024
298.15	0.203	1.5269	0.0024
298.15	0.2983	1.5171	0.0024
298.15	0.3965	1.5048	0.0024
298.15	0.4955	1.4924	0.0024
298.15	0.596	1.4799	0.0024
298.15	0.6976	1.4652	0.0024
298.15	0.7992	1.4513	0.0024
298.15	0.8971	1.4365	0.0024
298.15	1	1.4203	0.0024
303.15	0	1.5476	0.0024
303.15	0.1025	1.5333	0.0024
303.15	0.203	1.5246	0.0024
303.15	0.2983	1.5148	0.0024
303.15	0.3965	1.5023	0.0024
303.15	0.4955	1.4902	0.0024
303.15	0.596	1.4768	0.0024
303.15	0.6976	1.4628	0.0024
303.15	0.7992	1.4484	0.0024
303.15	0.8971	1.4337	0.0024
303.15	1	1.4164	0.0024
308.15	0	1.545	0.0024
308.15	0.1025	1.5325	0.0024
308.15	0.203	1.5224	0.0024
308.15	0.2983	1.5125	0.0024
308.15	0.3965	1.4998	0.0024
308.15	0.4955	1.4879	0.0024
308.15	0.596	1.4738	0.0024
308.15	0.6976	1.4604	0.0024
308.15	0.7992	1.4455	0.0024
308.15	0.8971	1.4308	0.0024
308.15	1	1.4145	0.0024

System: 1,2-dichlorobenzene + 1,4-dioxane; phases: Liquid
Fixed: Pressure, kPa = 101
Property: Mass density, kg/m3 (Liquid); method: PYCNOM:UFactor:4
Temperature, K	Mole fraction of 1,4-dioxane	Mass density, kg/m3	uncertainty
298.15	0	1300.9	1.9
298.15	0.1025	1278.5	1.8
298.15	0.203	1255.8	1.8
298.15	0.2983	1232.9	1.8
298.15	0.3965	1208.5	1.7
298.15	0.4955	1182.5	1.7
298.15	0.596	1154.9	1.6
298.15	0.6976	1125.6	1.6
298.15	0.7992	1094.7	1.5
298.15	0.8971	1063.3	1.5
298.15	1	1028.6	1.4
303.15	0	1295.4	1.9
303.15	0.1025	1272.9	1.9
303.15	0.203	1250.1	1.8
303.15	0.2983	1227.3	1.8
303.15	0.3965	1202.8	1.8
303.15	0.4955	1176.9	1.7
303.15	0.596	1149.3	1.7
303.15	0.6976	1120	1.6
303.15	0.7992	1089.1	1.6
303.15	0.8971	1057.7	1.5
303.15	1	1022.9	1.5
308.15	0	1289.7	2
308.15	0.1025	1267.3	1.9
308.15	0.203	1244.5	1.9
308.15	0.2983	1221.6	1.8
308.15	0.3965	1197.1	1.8
308.15	0.4955	1171.2	1.8
308.15	0.596	1143.6	1.7
308.15	0.6976	1114.3	1.7
308.15	0.7992	1083.4	1.6
308.15	0.8971	1051.9	1.6
308.15	1	1017.2	1.5

System: 1,4-dioxane + ethyl acetate; phases: Liquid
Fixed: Pressure, kPa = 101
Fixed: Temperature, K = 298.15
Property: Speed of sound, m/s (Liquid); method: LVPAI:UFactor:4
Mole fraction of 1,4-dioxane	Speed of sound, m/s	uncertainty
0	1155	7
0.1004	1174	7
0.2001	1193	7
0.3021	1212	7
0.4002	1231	7
0.5071	1250	7
0.6001	1269	7
0.6972	1288	7
0.799	1307	7
0.8991	1327	7
1	1345	7

System: 1,4-dioxane + ethyl acetate; phases: Liquid
Fixed: Pressure, kPa = 101
Property: Viscosity, Pa*s (Liquid); method: CAPTUB:UFactor:4
Temperature, K	Mole fraction of 1,4-dioxane	Viscosity, Pa*s	uncertainty
298.15	0	0.000438	1.6e-05
298.15	0.1004	0.000467	1.7e-05
298.15	0.2001	0.000505	1.8e-05
298.15	0.3021	0.000543	1.9e-05
298.15	0.4002	0.000595	2.1e-05
298.15	0.5071	0.000646	2.2e-05
298.15	0.6001	0.000707	2.4e-05
298.15	0.6972	0.000791	2.6e-05
298.15	0.799	0.000908	3e-05
298.15	0.8991	0.001029	3.3e-05
298.15	1	0.001195	3.8e-05
303.15	0	0.000414	1.6e-05
303.15	0.1004	0.000442	1.7e-05
303.15	0.2001	0.000478	1.8e-05
303.15	0.3021	0.000513	1.9e-05
303.15	0.4002	0.00056	2e-05
303.15	0.5071	0.000607	2.1e-05
303.15	0.6001	0.000671	2.3e-05
303.15	0.6972	0.000735	2.5e-05
303.15	0.799	0.000843	2.8e-05
303.15	0.8991	0.000951	3.1e-05
303.15	1	0.001095	3.5e-05
308.15	0	0.000392	1.5e-05
308.15	0.1004	0.000417	1.6e-05
308.15	0.2001	0.00045	1.7e-05
308.15	0.3021	0.000482	1.8e-05
308.15	0.4002	0.000525	1.9e-05
308.15	0.5071	0.000568	2e-05
308.15	0.6001	0.000616	2.1e-05
308.15	0.6972	0.000684	2.3e-05
308.15	0.799	0.000778	2.6e-05
308.15	0.8991	0.000873	2.9e-05
308.15	1	0.001008	3.2e-05

System: 1,4-dioxane + ethyl acetate; phases: Liquid
Fixed: Pressure, kPa = 101
Property: Refractive index (Na D-line) (Liquid); method: ABBE:UFactor:6
Temperature, K	Mole fraction of 1,4-dioxane	Refractive index (Na D-line)	uncertainty
298.15	0	1.3713	0.0024
298.15	0.1004	1.3753	0.0024
298.15	0.2001	1.3798	0.0024
298.15	0.3021	1.3843	0.0024
298.15	0.4002	1.389	0.0024
298.15	0.5071	1.3942	0.0024
298.15	0.6001	1.3991	0.0024
298.15	0.6972	1.4041	0.0024
298.15	0.799	1.4094	0.0024
298.15	0.8991	1.4148	0.0024
298.15	1	1.4203	0.0024
303.15	0	1.3673	0.0024
303.15	0.1004	1.3716	0.0024
303.15	0.2001	1.3764	0.0024
303.15	0.3021	1.3813	0.0024
303.15	0.4002	1.3862	0.0024
303.15	0.5071	1.3915	0.0024
303.15	0.6001	1.3964	0.0024
303.15	0.6972	1.4015	0.0024
303.15	0.799	1.4069	0.0024
303.15	0.8991	1.4122	0.0024
303.15	1	1.4164	0.0024
308.15	0	1.3631	0.0024
308.15	0.1004	1.368	0.0024
308.15	0.2001	1.373	0.0024
308.15	0.3021	1.3782	0.0024
308.15	0.4002	1.3834	0.0024
308.15	0.5071	1.3889	0.0024
308.15	0.6001	1.3938	0.0024
308.15	0.6972	1.3989	0.0024
308.15	0.799	1.4044	0.0024
308.15	0.8991	1.4097	0.0024
308.15	1	1.4145	0.0024

System: 1,4-dioxane + ethyl acetate; phases: Liquid
Fixed: Pressure, kPa = 101
Property: Mass density, kg/m3 (Liquid); method: PYCNOM:UFactor:4
Temperature, K	Mole fraction of 1,4-dioxane	Mass density, kg/m3	uncertainty
298.15	0	894.2	1.2
298.15	0.1004	906.2	1.2
298.15	0.2001	918.8	1.2
298.15	0.3021	931.9	1.2
298.15	0.4002	944.7	1.3
298.15	0.5071	958.7	1.3
298.15	0.6001	971.1	1.3
298.15	0.6972	984.4	1.3
298.15	0.799	998.7	1.4
298.15	0.8991	1013.3	1.4
298.15	1	1028.6	1.4
303.15	0	887.9	1.2
303.15	0.1004	900	1.2
303.15	0.2001	912.7	1.3
303.15	0.3021	925.8	1.3
303.15	0.4002	938.7	1.3
303.15	0.5071	952.8	1.3
303.15	0.6001	965.2	1.4
303.15	0.6972	978.6	1.4
303.15	0.799	993	1.4
303.15	0.8991	1007.7	1.4
303.15	1	1022.9	1.5
308.15	0	881.6	1.3
308.15	0.1004	893.9	1.3
308.15	0.2001	906.6	1.3
308.15	0.3021	919.8	1.3
308.15	0.4002	932.7	1.4
308.15	0.5071	946.9	1.4
308.15	0.6001	959.5	1.4
308.15	0.6972	972.8	1.4
308.15	0.799	987.2	1.5
308.15	0.8991	1001.9	1.5
308.15	1	1017.2	1.5

System: butan-1-ol + 1,4-dioxane; phases: Liquid
Fixed: Pressure, kPa = 101
Fixed: Temperature, K = 298.15
Property: Speed of sound, m/s (Liquid); method: LVPAI:UFactor:4
Mole fraction of 1,4-dioxane	Speed of sound, m/s	uncertainty
0	1237	7
0.1014	1249	7
0.2015	1260	7
0.2982	1270	7
0.3995	1281	7
0.4945	1291	7
0.5993	1301	7
0.7023	1310	7
0.802	1320	7
0.9017	1332	7
1	1345	7

System: butan-1-ol + 1,4-dioxane; phases: Liquid
Fixed: Pressure, kPa = 101
Property: Viscosity, Pa*s (Liquid); method: CAPTUB:UFactor:4
Temperature, K	Mole fraction of 1,4-dioxane	Viscosity, Pa*s	uncertainty
298.15	0	0.002564	7.6e-05
298.15	0.1014	0.00215	6.4e-05
298.15	0.2015	0.001757	5.3e-05
298.15	0.2982	0.001489	4.6e-05
298.15	0.3995	0.001327	4.1e-05
298.15	0.4945	0.001241	3.9e-05
298.15	0.5993	0.001177	3.7e-05
298.15	0.7023	0.001153	3.7e-05
298.15	0.802	0.001162	3.7e-05
298.15	0.9017	0.00117	3.7e-05
298.15	1	0.001196	3.8e-05
303.15	0	0.002245	6.7e-05
303.15	0.1014	0.001926	5.8e-05
303.15	0.2015	0.001602	4.9e-05
303.15	0.2982	0.001347	4.2e-05
303.15	0.3995	0.001196	3.8e-05
303.15	0.4945	0.00113	3.6e-05
303.15	0.5993	0.001081	3.5e-05
303.15	0.7023	0.001063	3.4e-05
303.15	0.802	0.00107	3.4e-05
303.15	0.9017	0.001078	3.4e-05
303.15	1	0.001095	3.5e-05
308.15	0	0.001981	6e-05
308.15	0.1014	0.001703	5.2e-05
308.15	0.2015	0.001447	4.5e-05
308.15	0.2982	0.001204	3.8e-05
308.15	0.3995	0.001066	3.4e-05
308.15	0.4945	0.00103	3.3e-05
308.15	0.5993	0.000985	3.2e-05
308.15	0.7023	0.000972	3.1e-05
308.15	0.802	0.000979	3.2e-05
308.15	0.9017	0.000986	3.2e-05
308.15	1	0.001008	3.2e-05

System: butan-1-ol + 1,4-dioxane; phases: Liquid
Fixed: Pressure, kPa = 101
Property: Refractive index (Na D-line) (Liquid); method: ABBE:UFactor:6
Temperature, K	Mole fraction of 1,4-dioxane	Refractive index (Na D-line)	uncertainty
298.15	0	1.3983	0.0024
298.15	0.1014	1.3999	0.0024
298.15	0.2015	1.4016	0.0024
298.15	0.2982	1.4032	0.0024
298.15	0.3995	1.4052	0.0024
298.15	0.4945	1.4071	0.0024
298.15	0.5993	1.4095	0.0024
298.15	0.7023	1.4119	0.0024
298.15	0.802	1.4145	0.0024
298.15	0.9017	1.4172	0.0024
298.15	1	1.4203	0.0024
303.15	0	1.3955	0.0024
303.15	0.1014	1.3976	0.0024
303.15	0.2015	1.3992	0.0024
303.15	0.2982	1.4008	0.0024
303.15	0.3995	1.4028	0.0024
303.15	0.4945	1.4046	0.0024
303.15	0.5993	1.4069	0.0024
303.15	0.7023	1.4094	0.0024
303.15	0.802	1.4118	0.0024
303.15	0.9017	1.4145	0.0024
303.15	1	1.4164	0.0024
308.15	0	1.3937	0.0024
308.15	0.1014	1.3952	0.0024
308.15	0.2015	1.3968	0.0024
308.15	0.2982	1.3984	0.0024
308.15	0.3995	1.4003	0.0024
308.15	0.4945	1.4022	0.0024
308.15	0.5993	1.4044	0.0024
308.15	0.7023	1.4068	0.0024
308.15	0.802	1.4093	0.0024
308.15	0.9017	1.4118	0.0024
308.15	1	1.4145	0.0024

System: butan-1-ol + 1,4-dioxane; phases: Liquid
Fixed: Pressure, kPa = 101
Property: Mass density, kg/m3 (Liquid); method: PYCNOM:UFactor:4
Temperature, K	Mole fraction of 1,4-dioxane	Mass density, kg/m3	uncertainty
298.15	0	805.8	1
298.15	0.1014	826.1	1.1
298.15	0.2015	846.7	1.1
298.15	0.2982	866.9	1.1
298.15	0.3995	888.7	1.2
298.15	0.4945	909.6	1.2
298.15	0.5993	933.5	1.3
298.15	0.7023	957.5	1.3
298.15	0.802	981.1	1.3
298.15	0.9017	1004.9	1.4
298.15	1	1028.6	1.4
303.15	0	802	1.1
303.15	0.1014	822.1	1.1
303.15	0.2015	842.4	1.2
303.15	0.2982	862.4	1.2
303.15	0.3995	884	1.2
303.15	0.4945	904.8	1.3
303.15	0.5993	928.4	1.3
303.15	0.7023	952.3	1.3
303.15	0.802	975.8	1.4
303.15	0.9017	999.5	1.4
303.15	1	1022.9	1.5
308.15	0	798	1.1
308.15	0.1014	818.1	1.2
308.15	0.2015	838.1	1.2
308.15	0.2982	858	1.2
308.15	0.3995	879.5	1.3
308.15	0.4945	900.1	1.3
308.15	0.5993	923.4	1.3
308.15	0.7023	947.1	1.4
308.15	0.802	970.4	1.4
308.15	0.9017	994	1.5
308.15	1	1017.2	1.5

System: trichloroethene + 1,4-dioxane; phases: Liquid
Fixed: Pressure, kPa = 101
Fixed: Temperature, K = 298.15
Property: Speed of sound, m/s (Liquid); method: LVPAI:UFactor:4
Mole fraction of 1,4-dioxane	Speed of sound, m/s	uncertainty
0	1027	6
0.1006	1059	7
0.201	1091	7
0.2983	1122	7
0.3995	1152	7
0.507	1187	7
0.5993	1215	7
0.6969	1246	7
0.802	1276	7
0.9003	1307	7
1	1345	7

System: trichloroethene + 1,4-dioxane; phases: Liquid
Fixed: Pressure, kPa = 101
Property: Viscosity, Pa*s (Liquid); method: CAPTUB:UFactor:4
Temperature, K	Mole fraction of 1,4-dioxane	Viscosity, Pa*s	uncertainty
298.15	0	0.000573	2.1e-05
298.15	0.1006	0.000635	2.3e-05
298.15	0.201	0.000697	2.4e-05
298.15	0.2983	0.000758	2.6e-05
298.15	0.3995	0.000821	2.8e-05
298.15	0.507	0.000888	2.9e-05
298.15	0.5993	0.000945	3.1e-05
298.15	0.6969	0.001006	3.3e-05
298.15	0.802	0.001072	3.4e-05
298.15	0.9003	0.001133	3.6e-05
298.15	1	0.001196	3.8e-05
303.15	0	0.000547	2e-05
303.15	0.1006	0.000602	2.2e-05
303.15	0.201	0.000658	2.3e-05
303.15	0.2983	0.000712	2.5e-05
303.15	0.3995	0.000768	2.6e-05
303.15	0.507	0.000827	2.8e-05
303.15	0.5993	0.000878	2.9e-05
303.15	0.6969	0.000933	3.1e-05
303.15	0.802	0.000991	3.2e-05
303.15	0.9003	0.001046	3.4e-05
303.15	1	0.001102	3.5e-05
308.15	0	0.000521	1.9e-05
308.15	0.1006	0.000569	2.1e-05
308.15	0.201	0.000618	2.2e-05
308.15	0.2983	0.000665	2.3e-05
308.15	0.3995	0.000714	2.5e-05
308.15	0.507	0.000767	2.6e-05
308.15	0.5993	0.000812	2.7e-05
308.15	0.6969	0.000859	2.8e-05
308.15	0.802	0.000911	3e-05
308.15	0.9003	0.000959	3.1e-05
308.15	1	0.001008	3.2e-05

System: trichloroethene + 1,4-dioxane; phases: Liquid
Fixed: Pressure, kPa = 101
Property: Refractive index (Na D-line) (Liquid); method: ABBE:UFactor:6
Temperature, K	Mole fraction of 1,4-dioxane	Refractive index (Na D-line)	uncertainty
298.15	0	1.476	0.0024
298.15	0.1006	1.4704	0.0024
298.15	0.201	1.4648	0.0024
298.15	0.2983	1.4592	0.0024
298.15	0.3995	1.4536	0.0024
298.15	0.507	1.4476	0.0024
298.15	0.5993	1.4426	0.0024
298.15	0.6969	1.4373	0.0024
298.15	0.802	1.4314	0.0024
298.15	0.9003	1.426	0.0024
298.15	1	1.4203	0.0024
303.15	0	1.4729	0.0024
303.15	0.1006	1.4673	0.0024
303.15	0.201	1.4618	0.0024
303.15	0.2983	1.4562	0.0024
303.15	0.3995	1.4507	0.0024
303.15	0.507	1.4446	0.0024
303.15	0.5993	1.4396	0.0024
303.15	0.6969	1.4344	0.0024
303.15	0.802	1.4285	0.0024
303.15	0.9003	1.4231	0.0024
303.15	1	1.4164	0.0024
308.15	0	1.4698	0.0024
308.15	0.1006	1.4643	0.0024
308.15	0.201	1.4587	0.0024
308.15	0.2983	1.4532	0.0024
308.15	0.3995	1.4477	0.0024
308.15	0.507	1.4417	0.0024
308.15	0.5993	1.4366	0.0024
308.15	0.6969	1.4315	0.0024
308.15	0.802	1.4256	0.0024
308.15	0.9003	1.4202	0.0024
308.15	1	1.4145	0.0024

System: trichloroethene + 1,4-dioxane; phases: Liquid
Fixed: Pressure, kPa = 101
Property: Mass density, kg/m3 (Liquid); method: PYCNOM:UFactor:4
Temperature, K	Mole fraction of 1,4-dioxane	Mass density, kg/m3	uncertainty
298.15	0	1455.4	2.5
298.15	0.1006	1412.7	2.4
298.15	0.201	1370.1	2.2
298.15	0.2983	1327.9	2.1
298.15	0.3995	1284.4	2
298.15	0.507	1238.6	1.9
298.15	0.5993	1199.3	1.8
298.15	0.6969	1158.5	1.7
298.15	0.802	1114	1.6
298.15	0.9003	1072.1	1.5
298.15	1	1028.6	1.4
303.15	0	1447	2.5
303.15	0.1006	1404.6	2.4
303.15	0.201	1362.2	2.3
303.15	0.2983	1320.3	2.2
303.15	0.3995	1277.2	2.1
303.15	0.507	1231.5	1.9
303.15	0.5993	1192.5	1.8
303.15	0.6969	1152.1	1.7
303.15	0.802	1107.7	1.6
303.15	0.9003	1066.2	1.5
303.15	1	1022.9	1.5
308.15	0	1438.5	2.5
308.15	0.1006	1396.4	2.4
308.15	0.201	1354.2	2.3
308.15	0.2983	1312.8	2.2
308.15	0.3995	1270	2.1
308.15	0.507	1224.5	2
308.15	0.5993	1185.7	1.9
308.15	0.6969	1145.6	1.8
308.15	0.802	1101.5	1.7
308.15	0.9003	1060	1.6
308.15	1	1017.2	1.5

System: 1-chloro-2-hydroxyethane + 1,4-dioxane; phases: Liquid
Fixed: Pressure, kPa = 101
Fixed: Temperature, K = 298.15
Property: Speed of sound, m/s (Liquid); method: LVPAI:UFactor:4
Mole fraction of 1,4-dioxane	Speed of sound, m/s	uncertainty
0	1358	8
0.1024	1357	8
0.2001	1356	8
0.3035	1354	8
0.4041	1353	8
0.5047	1352	7
0.6031	1350	7
0.7015	1349	7
0.8009	1347	7
0.9003	1346	7
1	1345	7

System: 1-chloro-2-hydroxyethane + 1,4-dioxane; phases: Liquid
Fixed: Pressure, kPa = 101
Property: Viscosity, Pa*s (Liquid); method: CAPTUB:UFactor:4
Temperature, K	Mole fraction of 1,4-dioxane	Viscosity, Pa*s	uncertainty
298.15	0	0.003104	9.1e-05
298.15	0.1024	0.002755	8.1e-05
298.15	0.2001	0.002431	7.2e-05
298.15	0.3035	0.002088	6.3e-05
298.15	0.4041	0.001858	5.6e-05
298.15	0.5047	0.001649	5e-05
298.15	0.6031	0.001505	4.6e-05
298.15	0.7015	0.001377	4.3e-05
298.15	0.8009	0.001304	4.1e-05
298.15	0.9003	0.001233	3.9e-05
298.15	1	0.001196	3.8e-05
303.15	0	0.002669	7.9e-05
303.15	0.1024	0.002457	7.3e-05
303.15	0.2001	0.00217	6.5e-05
303.15	0.3035	0.001877	5.7e-05
303.15	0.4041	0.001682	5.1e-05
303.15	0.5047	0.001496	4.6e-05
303.15	0.6031	0.001376	4.3e-05
303.15	0.7015	0.001265	4e-05
303.15	0.8009	0.001199	3.8e-05
303.15	0.9003	0.001136	3.6e-05
303.15	1	0.001095	3.5e-05
308.15	0	0.002347	7e-05
308.15	0.1024	0.00216	6.5e-05
308.15	0.2001	0.001909	5.8e-05
308.15	0.3035	0.001666	5.1e-05
308.15	0.4041	0.001505	4.6e-05
308.15	0.5047	0.001344	4.2e-05
308.15	0.6031	0.001248	3.9e-05
308.15	0.7015	0.001152	3.7e-05
308.15	0.8009	0.001095	3.5e-05
308.15	0.9003	0.001038	3.3e-05
308.15	1	0.001008	3.2e-05

System: 1-chloro-2-hydroxyethane + 1,4-dioxane; phases: Liquid
Fixed: Pressure, kPa = 101
Property: Refractive index (Na D-line) (Liquid); method: ABBE:UFactor:6
Temperature, K	Mole fraction of 1,4-dioxane	Refractive index (Na D-line)	uncertainty
298.15	0	1.4411	0.0024
298.15	0.1024	1.4389	0.0024
298.15	0.2001	1.4363	0.0024
298.15	0.3035	1.4337	0.0024
298.15	0.4041	1.4314	0.0024
298.15	0.5047	1.429	0.0024
298.15	0.6031	1.4273	0.0024
298.15	0.7015	1.4256	0.0024
298.15	0.8009	1.4235	0.0024
298.15	0.9003	1.4214	0.0024
298.15	1	1.4203	0.0024
303.15	0	1.438	0.0024
303.15	0.1024	1.4356	0.0024
303.15	0.2001	1.4337	0.0024
303.15	0.3035	1.4314	0.0024
303.15	0.4041	1.4291	0.0024
303.15	0.5047	1.4269	0.0024
303.15	0.6031	1.4249	0.0024
303.15	0.7015	1.4231	0.0024
303.15	0.8009	1.4211	0.0024
303.15	0.9003	1.4191	0.0024
303.15	1	1.4164	0.0024
308.15	0	1.4326	0.0024
308.15	0.1024	1.4324	0.0024
308.15	0.2001	1.431	0.0024
308.15	0.3035	1.4292	0.0024
308.15	0.4041	1.4268	0.0024
308.15	0.5047	1.4247	0.0024
308.15	0.6031	1.4225	0.0024
308.15	0.7015	1.4205	0.0024
308.15	0.8009	1.4187	0.0024
308.15	0.9003	1.4168	0.0024
308.15	1	1.4145	0.0024

System: 1-chloro-2-hydroxyethane + 1,4-dioxane; phases: Liquid
Fixed: Pressure, kPa = 101
Property: Mass density, kg/m3 (Liquid); method: PYCNOM:UFactor:4
Temperature, K	Mole fraction of 1,4-dioxane	Mass density, kg/m3	uncertainty
298.15	0	1200.9	1.7
298.15	0.1024	1177.7	1.7
298.15	0.2001	1157	1.6
298.15	0.3035	1136.7	1.6
298.15	0.4041	1118.2	1.6
298.15	0.5047	1100.8	1.5
298.15	0.6031	1084.8	1.5
298.15	0.7015	1069.5	1.5
298.15	0.8009	1054.9	1.5
298.15	0.9003	1041.6	1.4
298.15	1	1028.6	1.4
303.15	0	1192.5	1.7
303.15	0.1024	1171.1	1.7
303.15	0.2001	1151.1	1.7
303.15	0.3035	1131.1	1.6
303.15	0.4041	1112.7	1.6
303.15	0.5047	1095.4	1.6
303.15	0.6031	1079.4	1.5
303.15	0.7015	1064.1	1.5
303.15	0.8009	1049.5	1.5
303.15	0.9003	1030.9	7
303.15	1	1022.9	1.5
308.15	0	1187.1	1.8
308.15	0.1024	1165.1	1.7
308.15	0.2001	1145.2	1.7
308.15	0.3035	1125.5	1.7
308.15	0.4041	1107.2	1.7
308.15	0.5047	1090	1.6
308.15	0.6031	1073.9	1.6
308.15	0.7015	1058.7	1.6
308.15	0.8009	1044.1	1.5
308.15	0.9003	1030.2	1.5
308.15	1	1017.2	1.5

System: 1,4-dioxane + N,N-dimethylethanamide; phases: Liquid
Fixed: Pressure, kPa = 101
Fixed: Temperature, K = 298.15
Property: Speed of sound, m/s (Liquid); method: LVPAI:UFactor:4
Mole fraction of 1,4-dioxane	Speed of sound, m/s	uncertainty
0	1458	8
0.1121	1447	8
0.2162	1436	8
0.3203	1424	8
0.4222	1413	8
0.5242	1401	8
0.6219	1390	8
0.7198	1379	8
0.8157	1367	8
0.9116	1356	8
1	1345	7

System: 1,4-dioxane + N,N-dimethylethanamide; phases: Liquid
Fixed: Pressure, kPa = 101
Property: Viscosity, Pa*s (Liquid); method: CAPTUB:UFactor:4
Temperature, K	Mole fraction of 1,4-dioxane	Viscosity, Pa*s	uncertainty
298.15	0	0.001261	3.9e-05
298.15	0.1121	0.001255	3.9e-05
298.15	0.2162	0.001248	3.9e-05
298.15	0.3203	0.001242	3.9e-05
298.15	0.4222	0.001235	3.9e-05
298.15	0.5242	0.001228	3.8e-05
298.15	0.6219	0.001222	3.8e-05
298.15	0.7198	0.001215	3.8e-05
298.15	0.8157	0.001209	3.8e-05
298.15	0.9116	0.001202	3.8e-05
298.15	1	0.001196	3.8e-05
303.15	0	0.001154	3.6e-05
303.15	0.1121	0.001149	3.6e-05
303.15	0.2162	0.001144	3.6e-05
303.15	0.3203	0.001138	3.6e-05
303.15	0.4222	0.001133	3.6e-05
303.15	0.5242	0.001128	3.6e-05
303.15	0.6219	0.001123	3.5e-05
303.15	0.7198	0.001117	3.5e-05
303.15	0.8157	0.001105	3.5e-05
303.15	0.9116	0.001099	3.5e-05
303.15	1	0.001095	3.5e-05
308.15	0	0.001047	3.3e-05
308.15	0.1121	0.001043	3.3e-05
308.15	0.2162	0.001039	3.3e-05
308.15	0.3203	0.001035	3.3e-05
308.15	0.4222	0.001031	3.3e-05
308.15	0.5242	0.001027	3.3e-05
308.15	0.6219	0.001023	3.3e-05
308.15	0.7198	0.001019	3.3e-05
308.15	0.8157	0.001016	3.3e-05
308.15	0.9116	0.001012	3.3e-05
308.15	1	0.001008	3.2e-05

System: 1,4-dioxane + N,N-dimethylethanamide; phases: Liquid
Fixed: Pressure, kPa = 101
Property: Refractive index (Na D-line) (Liquid); method: ABBE:UFactor:6
Temperature, K	Mole fraction of 1,4-dioxane	Refractive index (Na D-line)	uncertainty
298.15	0	1.4363	0.0024
298.15	0.1121	1.4346	0.0024
298.15	0.2162	1.4328	0.0024
298.15	0.3203	1.431	0.0024
298.15	0.4222	1.4293	0.0024
298.15	0.5242	1.4275	0.0024
298.15	0.6219	1.4259	0.0024
298.15	0.7198	1.4242	0.0024
298.15	0.8157	1.4226	0.0024
298.15	0.9116	1.421	0.0024
298.15	1	1.4203	0.0024
303.15	0	1.4342	0.0024
303.15	0.1121	1.4324	0.0024
303.15	0.2162	1.4306	0.0024
303.15	0.3203	1.4287	0.0024
303.15	0.4222	1.4269	0.0024
303.15	0.5242	1.4252	0.0024
303.15	0.6219	1.4234	0.0024
303.15	0.7198	1.4226	0.0024
303.15	0.8157	1.421	0.0024
303.15	0.9116	1.4195	0.0024
303.15	1	1.4164	0.0024
308.15	0	1.432	0.0024
308.15	0.1121	1.4302	0.0024
308.15	0.2162	1.4284	0.0024
308.15	0.3203	1.4264	0.0024
308.15	0.4222	1.4246	0.0024
308.15	0.5242	1.4228	0.0024
308.15	0.6219	1.421	0.0024
308.15	0.7198	1.4191	0.0024
308.15	0.8157	1.4174	0.0024
308.15	0.9116	1.4157	0.0024
308.15	1	1.4145	0.0024

System: 1,4-dioxane + N,N-dimethylethanamide; phases: Liquid
Fixed: Pressure, kPa = 101
Property: Mass density, kg/m3 (Liquid); method: PYCNOM:UFactor:16
Temperature, K	Mole fraction of 1,4-dioxane	Mass density, kg/m3	uncertainty
298.15	0	946.8	4.7
298.15	0.1121	954.8	4.8
298.15	0.2162	962.4	4.8
298.15	0.3203	970	4.9
298.15	0.4222	977.9	4.9
298.15	0.5242	985.9	5
298.15	0.6219	993.9	5
298.15	0.7198	1002.1	5.1
298.15	0.8157	1010.5	5.1
298.15	0.9116	1019.2	5.2
298.15	1	1028.6	5.3
303.15	0	942.1	4.9
303.15	0.1121	950.1	5
303.15	0.2162	957.6	5
303.15	0.3203	965.2	5.1
303.15	0.4222	972.9	5.1
303.15	0.5242	980.9	5.2
303.15	0.6219	988.8	5.2
303.15	0.7198	996.8	5.3
303.15	0.8157	1005.3	5.3
303.15	0.9116	1013.7	5.4
303.15	1	1022.9	5.5
308.15	0	937.5	5.1
308.15	0.1121	945.4	5.2
308.15	0.2162	952.9	5.2
308.15	0.3203	960.3	5.3
308.15	0.4222	968	5.3
308.15	0.5242	975.9	5.4
308.15	0.6219	983.6	5.4
308.15	0.7198	991.6	5.5
308.15	0.8157	999.8	5.5
308.15	0.9116	1008.2	5.6
308.15	1	1017.2	5.7

System: diethyl 1,3-propanedioate + 1,4-dioxane; phases: Liquid
Fixed: Pressure, kPa = 101
Fixed: Temperature, K = 298.15
Property: Speed of sound, m/s (Liquid); method: LVPAI:UFactor:4
Mole fraction of 1,4-dioxane	Speed of sound, m/s	uncertainty
0	1304	7
0.1005	1308	7
0.1982	1312	7
0.2959	1316	7
0.3959	1320	7
0.4959	1324	7
0.5951	1328	7
0.6944	1332	7
0.796	1337	7
0.8977	1341	7
1	1345	7

System: diethyl 1,3-propanedioate + 1,4-dioxane; phases: Liquid
Fixed: Pressure, kPa = 101
Property: Viscosity, Pa*s (Liquid); method: CAPTUB:UFactor:4
Temperature, K	Mole fraction of 1,4-dioxane	Viscosity, Pa*s	uncertainty
298.15	0	0.001941	5.9e-05
298.15	0.1005	0.001858	5.6e-05
298.15	0.1982	0.001777	5.4e-05
298.15	0.2959	0.0017	5.2e-05
298.15	0.3959	0.001619	5e-05
298.15	0.4959	0.001542	4.7e-05
298.15	0.5951	0.001465	4.5e-05
298.15	0.6944	0.001391	4.3e-05
298.15	0.796	0.001316	4.1e-05
298.15	0.8977	0.001249	3.9e-05
298.15	1	0.001196	3.8e-05
303.15	0	0.001755	5.3e-05
303.15	0.1005	0.001698	5.2e-05
303.15	0.1982	0.001626	5e-05
303.15	0.2959	0.001556	4.8e-05
303.15	0.3959	0.001484	4.6e-05
303.15	0.4959	0.001415	4.4e-05
303.15	0.5951	0.001346	4.2e-05
303.15	0.6944	0.00128	4e-05
303.15	0.796	0.001214	3.8e-05
303.15	0.8977	0.001153	3.7e-05
303.15	1	0.001095	3.5e-05
308.15	0	0.001602	4.9e-05
308.15	0.1005	0.001537	4.7e-05
308.15	0.1982	0.001476	4.6e-05
308.15	0.2959	0.001413	4.4e-05
308.15	0.3959	0.001349	4.2e-05
308.15	0.4959	0.001287	4e-05
308.15	0.5951	0.001227	3.9e-05
308.15	0.6944	0.00117	3.7e-05
308.15	0.796	0.001111	3.5e-05
308.15	0.8977	0.001057	3.4e-05
308.15	1	0.001008	3.2e-05

System: diethyl 1,3-propanedioate + 1,4-dioxane; phases: Liquid
Fixed: Pressure, kPa = 101
Property: Refractive index (Na D-line) (Liquid); method: ABBE:UFactor:6
Temperature, K	Mole fraction of 1,4-dioxane	Refractive index (Na D-line)	uncertainty
298.15	0	1.4132	0.0024
298.15	0.1005	1.4135	0.0024
298.15	0.1982	1.4139	0.0024
298.15	0.2959	1.4143	0.0024
298.15	0.3959	1.4147	0.0024
298.15	0.4959	1.415	0.0024
298.15	0.5951	1.4161	0.0024
298.15	0.6944	1.4171	0.0024
298.15	0.796	1.4181	0.0024
298.15	0.8977	1.4192	0.0024
298.15	1	1.4203	0.0024
303.15	0	1.4108	0.0024
303.15	0.1005	1.4113	0.0024
303.15	0.1982	1.412	0.0024
303.15	0.2959	1.4123	0.0024
303.15	0.3959	1.4127	0.0024
303.15	0.4959	1.4137	0.0024
303.15	0.5951	1.4147	0.0024
303.15	0.6944	1.4157	0.0024
303.15	0.796	1.4167	0.0024
303.15	0.8977	1.4231	0.02
303.15	1	1.4164	0.0024
308.15	0	1.4085	0.0024
308.15	0.1005	1.409	0.0024
308.15	0.1982	1.4093	0.0024
308.15	0.2959	1.4095	0.0024
308.15	0.3959	1.4099	0.0024
308.15	0.4959	1.4103	0.0024
308.15	0.5951	1.4113	0.0024
308.15	0.6944	1.4122	0.0024
308.15	0.796	1.4132	0.0024
308.15	0.8977	1.4141	0.0024
308.15	1	1.4145	0.0024

System: diethyl 1,3-propanedioate + 1,4-dioxane; phases: Liquid
Fixed: Pressure, kPa = 101
Property: Mass density, kg/m3 (Liquid); method: PYCNOM:UFactor:4
Temperature, K	Mole fraction of 1,4-dioxane	Mass density, kg/m3	uncertainty
298.15	0	1049.6	1.4
298.15	0.1005	1048.1	1.4
298.15	0.1982	1046.6	1.4
298.15	0.2959	1044.9	1.4
298.15	0.3959	1043	1.4
298.15	0.4959	1041	1.4
298.15	0.5951	1038.8	1.4
298.15	0.6944	1036.4	1.4
298.15	0.796	1033.7	1.4
298.15	0.8977	1030.9	1.4
298.15	1	1028.6	1.4
303.15	0	1044.2	1.5
303.15	0.1005	1042.8	1.5
303.15	0.1982	1041.2	1.5
303.15	0.2959	1039.6	1.5
303.15	0.3959	1037.7	1.5
303.15	0.4959	1035.6	1.5
303.15	0.5951	1033.4	1.5
303.15	0.6944	1030.9	1.5
303.15	0.796	1028.2	1.5
303.15	0.8977	1025.4	1.5
303.15	1	1022.9	1.5
308.15	0	1038.8	1.5
308.15	0.1005	1037.4	1.5
308.15	0.1982	1035.8	1.5
308.15	0.2959	1034.2	1.5
308.15	0.3959	1032.3	1.5
308.15	0.4959	1030.2	1.5
308.15	0.5951	1028	1.5
308.15	0.6944	1025.5	1.5
308.15	0.796	1022.8	1.5
308.15	0.8977	1019.9	1.5
308.15	1	1017.2	1.5
