Measured thermophysical data. Solubilities of Nonpolar Gases in Dimethyl Carbonate and Diethyl Carbonate
Source: J. Chem. Eng. Data, 2005, 10.1021/je0496894
Compound 1: helium, He, InChI=1S/He, purity 99.995%
Compound 2: neon, Ne, InChI=1S/Ne, purity 99.9%
Compound 3: argon, Ar, InChI=1S/Ar, purity 99.999%
Compound 4: krypton, Kr, InChI=1S/Kr, purity 99.95%
Compound 5: xenon, Xe, InChI=1S/Xe, purity 99.995%
Compound 6: methane, CH4, InChI=1S/CH4/h1H4, purity 99.95%
Compound 7: ethane, C2H6, InChI=1S/C2H6/c1-2/h1-2H3, purity 99%
Compound 8: sulfur hexafluoride, F6S, InChI=1S/F6S/c1-7(2,3,4,5)6, purity 99.5%
Compound 9: ethene, C2H4, InChI=1S/C2H4/c1-2/h1-2H2, purity 99.9%
Compound 10: dimethyl carbonate, C3H6O3, InChI=1S/C3H6O3/c1-5-3(4)6-2/h1-2H3, purity 99%
Compound 11: diethyl carbonate, C5H10O3, InChI=1S/C5H10O3/c1-3-7-5(6)8-4-2/h3-4H2,1-2H3, purity 99.5%

System: dimethyl carbonate; phases: Liquid
Fixed: Pressure, kPa = 101.325
Property: Mass density, kg/m3 (Liquid); method: VIBTUB:UFactor:4
Temperature, K	Mass density, kg/m3	uncertainty
278.15	1089.21	0.61
288.15	1075.54	0.6
298.15	1062.29	0.58

System: diethyl carbonate; phases: Liquid
Fixed: Pressure, kPa = 101.325
Property: Mass density, kg/m3 (Liquid); method: VIBTUB:UFactor:4
Temperature, K	Mass density, kg/m3	uncertainty
278.15	991.6	0.28
288.15	980.09	0.29
298.15	968.89	0.3

System: dimethyl carbonate + helium; phases: Liquid, Gas
Fixed: Pressure, kPa of helium = 101.325
Property: Mole fraction of helium (Liquid); method: Static method
Temperature, K	Mole fraction of helium	uncertainty
278.15	5.07e-05	1e-06
288.15	6.94e-05	1.4e-06

System: dimethyl carbonate + neon; phases: Liquid, Gas
Fixed: Pressure, kPa of neon = 101.325
Property: Mole fraction of neon (Liquid); method: Static method
Temperature, K	Mole fraction of neon	uncertainty
278.15	8.1e-05	1.6e-06
288.15	9.98e-05	2e-06

System: dimethyl carbonate + argon; phases: Liquid, Gas
Fixed: Pressure, kPa of argon = 101.325
Property: Mole fraction of argon (Liquid); method: Static method
Temperature, K	Mole fraction of argon	uncertainty
278.15	0.0006446	1.3e-05
288.15	0.0007135	1.44e-05

System: dimethyl carbonate + krypton; phases: Liquid, Gas
Fixed: Pressure, kPa of krypton = 101.325
Property: Mole fraction of krypton (Liquid); method: Static method
Temperature, K	Mole fraction of krypton	uncertainty
278.15	0.002235	4.5e-05
288.15	0.002144	4.3e-05

System: dimethyl carbonate + xenon; phases: Liquid, Gas
Fixed: Pressure, kPa of xenon = 101.325
Property: Mole fraction of xenon (Liquid); method: Static method
Temperature, K	Mole fraction of xenon	uncertainty
278.15	0.00851	0.000171
288.15	0.007764	0.000156

System: methane + dimethyl carbonate; phases: Liquid, Gas
Fixed: Pressure, kPa of methane = 101.325
Property: Mole fraction of methane (Liquid); method: Static method
Temperature, K	Mole fraction of methane	uncertainty
277.15	0.001664	3.3e-05
288.15	0.00163	3.3e-05

System: ethane + dimethyl carbonate; phases: Liquid, Gas
Fixed: Pressure, kPa of ethane = 101.325
Property: Mole fraction of ethane (Liquid); method: Static method
Temperature, K	Mole fraction of ethane	uncertainty
278.15	0.01047	0.00021
288.15	0.009285	0.000187

System: ethene + dimethyl carbonate; phases: Liquid, Gas
Fixed: Pressure, kPa of ethene = 101.325
Property: Mole fraction of ethene (Liquid); method: Static method
Temperature, K	Mole fraction of ethene	uncertainty
278.15	0.01284	0.00026
288.15	0.0113	0.00023

System: dimethyl carbonate + sulfur hexafluoride; phases: Liquid, Gas
Fixed: Pressure, kPa of sulfur hexafluoride = 101.325
Property: Mole fraction of sulfur hexafluoride (Liquid); method: Static method
Temperature, K	Mole fraction of sulfur hexafluoride	uncertainty
278.15	0.003222	6.5e-05
288.15	0.003056	6.1e-05

System: diethyl carbonate + helium; phases: Liquid, Gas
Fixed: Pressure, kPa of helium = 101.325
Property: Mole fraction of helium (Liquid); method: Static method
Temperature, K	Mole fraction of helium	uncertainty
278.15	0.0001048	2.1e-06
288.15	0.0001263	2.5e-06

System: diethyl carbonate + neon; phases: Liquid, Gas
Fixed: Pressure, kPa of neon = 101.325
Property: Mole fraction of neon (Liquid); method: Static method
Temperature, K	Mole fraction of neon	uncertainty
278.15	0.0001523	3.1e-06
288.15	0.0001763	3.5e-06

System: diethyl carbonate + argon; phases: Liquid, Gas
Fixed: Pressure, kPa of argon = 101.325
Property: Mole fraction of argon (Liquid); method: Static method
Temperature, K	Mole fraction of argon	uncertainty
278.15	0.00126	2.5e-05
288.15	0.001296	2.6e-05

System: diethyl carbonate + krypton; phases: Liquid, Gas
Fixed: Pressure, kPa of krypton = 101.325
Property: Mole fraction of krypton (Liquid); method: Static method
Temperature, K	Mole fraction of krypton	uncertainty
278.15	0.003971	8e-05
288.15	0.003808	7.7e-05

System: diethyl carbonate + xenon; phases: Liquid, Gas
Fixed: Pressure, kPa of xenon = 101.325
Property: Mole fraction of xenon (Liquid); method: Static method
Temperature, K	Mole fraction of xenon	uncertainty
278.15	0.01596	0.00032
288.15	0.01428	0.00029

System: methane + diethyl carbonate; phases: Liquid, Gas
Fixed: Pressure, kPa of methane = 101.325
Property: Mole fraction of methane (Liquid); method: Static method
Temperature, K	Mole fraction of methane	uncertainty
278.15	0.002875	5.8e-05
288.15	0.002797	5.6e-05

System: ethane + diethyl carbonate; phases: Liquid, Gas
Fixed: Pressure, kPa of ethane = 101.325
Property: Mole fraction of ethane (Liquid); method: Static method
Temperature, K	Mole fraction of ethane	uncertainty
278.15	0.02003	0.00021
288.15	0.01736	0.00018

System: ethene + diethyl carbonate; phases: Liquid, Gas
Fixed: Pressure, kPa of ethene = 101.325
Property: Mole fraction of ethene (Liquid); method: Static method
Temperature, K	Mole fraction of ethene	uncertainty
278.15	0.02002	0.0004
288.15	0.01749	0.00035

System: diethyl carbonate + sulfur hexafluoride; phases: Liquid, Gas
Fixed: Pressure, kPa of sulfur hexafluoride = 101.325
Property: Mole fraction of sulfur hexafluoride (Liquid); method: Static method
Temperature, K	Mole fraction of sulfur hexafluoride	uncertainty
278.15	0.005686	0.000114
288.15	0.005399	0.000109
