Measured thermophysical data. Ultrasonic Studies of Binary Mixtures of Some Aromatic Ketones with N-Methyl-acetamide at 308.15 K
Source: J. Chem. Eng. Data, 2005, 10.1021/je040008e
Compound 1: N-methylacetamide, C3H7NO, InChI=1S/C3H7NO/c1-3(5)4-2/h1-2H3,(H,4,5)
Compound 2: acetophenone, C8H8O, InChI=1S/C8H8O/c1-7(9)8-5-3-2-4-6-8/h2-6H,1H3
Compound 3: 4'-methylacetophenone, C9H10O, InChI=1S/C9H10O/c1-7-3-5-9(6-4-7)8(2)10/h3-6H,1-2H3
Compound 4: 4'-chloroacetophenone, C8H7ClO, InChI=1S/C8H7ClO/c1-6(10)7-2-4-8(9)5-3-7/h2-5H,1H3
Compound 5: ethyl phenyl ketone, C9H10O, InChI=1S/C9H10O/c1-2-9(10)8-6-4-3-5-7-8/h3-7H,2H2,1H3

System: N-methylacetamide; phases: Liquid
Property: Mass density, kg/m3 (Liquid); method: PYCNOM:UFactor:4
Temperature, K	Pressure, kPa	Mass density, kg/m3	uncertainty
308.15	101.325	949.7	1.4

System: N-methylacetamide; phases: Liquid
Property: Speed of sound, m/s (Liquid); method: Linear variable-path acoustic interferometer
Pressure, kPa	Temperature, K	Speed of sound, m/s	uncertainty
101.325	308.15	1360.04	4.43

System: acetophenone; phases: Liquid
Property: Mass density, kg/m3 (Liquid); method: PYCNOM:UFactor:4
Temperature, K	Pressure, kPa	Mass density, kg/m3	uncertainty
298.15	101.325	1023.1	1.4

System: acetophenone; phases: Liquid
Property: Speed of sound, m/s (Liquid); method: Linear variable-path acoustic interferometer
Pressure, kPa	Temperature, K	Speed of sound, m/s	uncertainty
101.325	308.15	1444.96	4.68

System: 4'-methylacetophenone; phases: Liquid
Property: Mass density, kg/m3 (Liquid); method: PYCNOM:UFactor:4
Temperature, K	Pressure, kPa	Mass density, kg/m3	uncertainty
308.15	101.325	996.3	1.5

System: 4'-methylacetophenone; phases: Liquid
Property: Speed of sound, m/s (Liquid); method: Linear variable-path acoustic interferometer
Pressure, kPa	Temperature, K	Speed of sound, m/s	uncertainty
101.325	308.15	1437.94	4.66

System: 4'-chloroacetophenone; phases: Liquid
Property: Mass density, kg/m3 (Liquid); method: PYCNOM:UFactor:4
Temperature, K	Pressure, kPa	Mass density, kg/m3	uncertainty
298.15	101.325	1188.9	1.7

System: 4'-chloroacetophenone; phases: Liquid
Property: Speed of sound, m/s (Liquid); method: Linear variable-path acoustic interferometer
Pressure, kPa	Temperature, K	Speed of sound, m/s	uncertainty
101.325	308.15	1389.98	4.52

System: ethyl phenyl ketone; phases: Liquid
Property: Mass density, kg/m3 (Liquid); method: PYCNOM:UFactor:4
Temperature, K	Pressure, kPa	Mass density, kg/m3	uncertainty
298.15	101.325	1009.2	1.4

System: ethyl phenyl ketone; phases: Liquid
Property: Speed of sound, m/s (Liquid); method: Linear variable-path acoustic interferometer
Pressure, kPa	Temperature, K	Speed of sound, m/s	uncertainty
101.325	308.15	1432.06	4.64

System: N-methylacetamide + acetophenone; phases: Liquid
Fixed: Pressure, kPa = 101.325
Fixed: Temperature, K = 308.15
Property: Speed of sound, m/s (Liquid); method: Linear variable-path acoustic interferometer
Mole fraction of acetophenone	Speed of sound, m/s	uncertainty
0	1360.04	4.43
0.0686	1368.65	4.46
0.138	1376.6	4.48
0.2189	1386.81	4.51
0.3143	1398	4.54
0.3938	1406.07	4.57
0.4912	1415.35	4.6
0.6042	1424.15	4.62
0.7223	1431.42	4.64
0.8517	1437.99	4.66
1	1444.96	4.68

System: N-methylacetamide + acetophenone; phases: Liquid
Fixed: Pressure, kPa = 101.325
Fixed: Temperature, K = 308.15
Property: Excess molar volume, m3/mol (Liquid); method: SAME:UFactor:2
Mole fraction of acetophenone	Excess molar volume, m3/mol	uncertainty
0	0	2e-08
0.0686	-1.018e-07	2.06e-08
0.138	-1.732e-07	2.1e-08
0.2189	-2.437e-07	2.15e-08
0.3143	-2.579e-07	2.15e-08
0.3938	-2.476e-07	2.15e-08
0.4912	-2.365e-07	2.14e-08
0.6042	-1.695e-07	2.1e-08
0.7223	-1.212e-07	2.07e-08
0.8517	-5.09e-08	2.03e-08
1	0	2e-08

System: N-methylacetamide + ethyl phenyl ketone; phases: Liquid
Fixed: Pressure, kPa = 101.325
Fixed: Temperature, K = 308.15
Property: Speed of sound, m/s (Liquid); method: Linear variable-path acoustic interferometer
Mole fraction of ethyl phenyl ketone	Speed of sound, m/s	uncertainty
0	1360.04	4.43
0.06	1368.34	4.45
0.1269	1374.74	4.47
0.1862	1380.63	4.49
0.2778	1388.9	4.52
0.3654	1397.77	4.54
0.4649	1406.62	4.57
0.5709	1413.51	4.59
0.6929	1419.59	4.61
0.8315	1426.58	4.63
1	1432.06	4.64

System: N-methylacetamide + ethyl phenyl ketone; phases: Liquid
Fixed: Pressure, kPa = 101.325
Fixed: Temperature, K = 308.15
Property: Excess molar volume, m3/mol (Liquid); method: SAME:UFactor:2
Mole fraction of ethyl phenyl ketone	Excess molar volume, m3/mol	uncertainty
0	0	2e-08
0.06	-2.003e-07	2.12e-08
0.1269	-3.185e-07	2.19e-08
0.1862	-3.356e-07	2.2e-08
0.2778	-2.912e-07	2.17e-08
0.3654	-2.106e-07	2.13e-08
0.4649	-1.397e-07	2.08e-08
0.5709	-8.14e-08	2.05e-08
0.6929	-1.92e-08	2.01e-08
0.8315	3.82e-08	2.02e-08
1	0	2e-08

System: N-methylacetamide + 4'-methylacetophenone; phases: Liquid
Fixed: Pressure, kPa = 101.325
Fixed: Temperature, K = 308.15
Property: Speed of sound, m/s (Liquid); method: Linear variable-path acoustic interferometer
Mole fraction of 4'-methylacetophenone	Speed of sound, m/s	uncertainty
0	1360.04	4.43
0.0617	1368.93	4.46
0.1321	1377.69	4.48
0.2004	1385.84	4.51
0.2836	1394.44	4.53
0.3629	1402.42	4.56
0.4632	1411.53	4.58
0.5582	1418.44	4.6
0.689	1426.93	4.63
0.8305	1434	4.65
1	1437.94	4.66

System: N-methylacetamide + 4'-methylacetophenone; phases: Liquid
Fixed: Pressure, kPa = 101.325
Fixed: Temperature, K = 308.15
Property: Excess molar volume, m3/mol (Liquid); method: SAME:UFactor:2
Mole fraction of 4'-methylacetophenone	Excess molar volume, m3/mol	uncertainty
0	0	2e-08
0.0617	-1.519e-07	2.09e-08
0.1321	-2.517e-07	2.15e-08
0.2004	-3.355e-07	2.2e-08
0.2836	-3.41e-07	2.2e-08
0.3629	-3.52e-07	2.21e-08
0.4632	-3.458e-07	2.21e-08
0.5582	-3.114e-07	2.19e-08
0.689	-2.508e-07	2.15e-08
0.8305	-1.92e-07	2.12e-08
1	0	2e-08

System: N-methylacetamide + 4'-chloroacetophenone; phases: Liquid
Fixed: Pressure, kPa = 101.325
Fixed: Temperature, K = 308.15
Property: Speed of sound, m/s (Liquid); method: Linear variable-path acoustic interferometer
Mole fraction of 4'-chloroacetophenone	Speed of sound, m/s	uncertainty
0	1360.04	4.43
0.0644	1363	4.44
0.1311	1366.05	4.45
0.2036	1369.32	4.46
0.2825	1372.41	4.47
0.3696	1375.83	4.48
0.4664	1379.54	4.49
0.5774	1382.61	4.5
0.7003	1385.12	4.5
0.8405	1387.61	4.51
1	1389.98	4.52

System: N-methylacetamide + 4'-chloroacetophenone; phases: Liquid
Fixed: Pressure, kPa = 101.325
Fixed: Temperature, K = 308.15
Property: Excess molar volume, m3/mol (Liquid); method: SAME:UFactor:2
Mole fraction of 4'-chloroacetophenone	Excess molar volume, m3/mol	uncertainty
0	0	2e-08
0.0644	-2.11e-07	2.13e-08
0.1311	-3.3e-07	2.2e-08
0.2036	-4.53e-07	2.27e-08
0.2825	-5.363e-07	2.32e-08
0.3696	-5.889e-07	2.35e-08
0.4664	-5.934e-07	2.36e-08
0.5774	-5.393e-07	2.32e-08
0.7003	-4.298e-07	2.26e-08
0.8405	-2.52e-07	2.15e-08
1	0	2e-08
