Measured thermophysical data. Isothermal VLE Measurements for Difluoromethane + Dimethylether and an Evaluation of Hydrogen Bonding
Source: J. Chem. Eng. Data, 2005, 10.1021/je049789+
Compound 1: difluoromethane, CH2F2, InChI=1S/CH2F2/c2-1-3/h1H2
Compound 2: dimethyl ether, C2H6O, InChI=1S/C2H6O/c1-3-2/h1-2H3, purity 99%

System: difluoromethane; phases: Liquid, Gas
Property: Vapor or sublimation pressure, kPa (Liquid); method: Closed cell (Static) method
Temperature, K	Vapor or sublimation pressure, kPa	uncertainty
258.15	488.1	2.6
273.15	814	3.3
293.15	1474.6	4.8

System: dimethyl ether; phases: Liquid, Gas
Property: Vapor or sublimation pressure, kPa (Liquid); method: Closed cell (Static) method
Temperature, K	Vapor or sublimation pressure, kPa	uncertainty
258.15	152.9	2.1
273.15	266.8	2.2
293.15	509.3	2.7

System: difluoromethane + dimethyl ether; phases: Liquid, Gas
Property: Vapor or sublimation pressure, kPa (Liquid); method: Closed cell (Static) method
Mole fraction of difluoromethane	Temperature, K	Vapor or sublimation pressure, kPa	uncertainty
0	258.15	152.9	2.1
0	273.15	266.8	2.2
0	293.15	509.3	2.7
0.0181	273.15	275	2.3
0.0836	293.15	573.2	5.6
0.1025	258.15	179.4	2.7
0.1356	273.15	326.8	3.7
0.1831	293.15	654.7	6.1
0.216	258.15	211.8	2.8
0.2378	273.15	376.2	3.7
0.285	258.15	233.7	3
0.3215	293.15	782.3	6.6
0.4195	273.15	477.2	4.6
0.44	293.15	898.8	7
0.4423	258.15	289.3	3.1
0.5376	258.15	325.8	3.2
0.5405	273.15	548.9	4.6
0.5675	293.15	1030.4	7.2
0.6386	258.15	362.4	3.2
0.6687	273.15	624.5	4.4
0.7048	293.15	1172	7.4
0.7639	258.15	407.7	3.2
0.8069	293.15	1277.9	7.5
0.8258	273.15	713.6	4.2
0.8983	258.15	453.4	3.2
0.9313	273.15	773.3	4.7
0.9441	293.15	1416.3	7.7
1	258.15	488.1	2.6
1	273.15	814	3.3
1	293.15	1474.6	4.8

System: difluoromethane + dimethyl ether; phases: Gas, Liquid
Property: Mole fraction of difluoromethane (Gas); method: Chromatography
Mole fraction of difluoromethane	Temperature, K	Mole fraction of difluoromethane	uncertainty
0	258.15	0	0.0001
0	273.15	0	0.0001
0	293.15	0	0.0001
0.0181	273.15	0.0444	0.006
0.0836	293.15	0.1749	0.0129
0.1025	258.15	0.233	0.0134
0.1356	273.15	0.2854	0.0128
0.1831	293.15	0.346	0.0112
0.216	258.15	0.4247	0.0119
0.2378	273.15	0.4471	0.0106
0.285	258.15	0.5198	0.0103
0.3215	293.15	0.531	0.0103
0.4195	273.15	0.6571	0.0093
0.44	293.15	0.6534	0.0087
0.4423	258.15	0.6965	0.009
0.5376	258.15	0.7727	0.0077
0.5405	273.15	0.7606	0.0078
0.5675	293.15	0.758	0.0077
0.6386	258.15	0.8404	0.007
0.6687	273.15	0.8451	0.007
0.7048	293.15	0.8479	0.0072
0.7639	258.15	0.9021	0.0066
0.8069	293.15	0.9046	0.0068
0.8258	273.15	0.9254	0.0067
0.8983	258.15	0.9578	0.0065
0.9313	273.15	0.9702	0.0065
0.9441	293.15	0.9727	0.0067
1	258.15	1	0.0001
1	273.15	1	0.0001
1	293.15	1	0.0001
