Measured thermophysical data. Pressure-Volume-Temperature Properties for 1-Octanol + Acetophenone, Poly(Propylene Glycol) + 1-Octanol + Acetophenone, and Poly(Ethylene Glycol) + Poly(Ethylene Glycol Methyl Ether) + Anisole
Source: J. Chem. Eng. Data, 2004, 10.1021/je049930e
Compound 1: octan-1-ol, C8H18O, InChI=1S/C8H18O/c1-2-3-4-5-6-7-8-9/h9H,2-8H2,1H3, purity 99%
Compound 2: acetophenone, C8H8O, InChI=1S/C8H8O/c1-7(9)8-5-3-2-4-6-8/h2-6H,1H3, purity 99%

System: acetophenone + octan-1-ol; phases: Liquid
Property: Mass density, kg/m3 (Liquid); method: Vibrating tube method
Temperature, K	Mass fraction of octan-1-ol	Pressure, kPa	Mass density, kg/m3	uncertainty
298.15	0.1075	100	996	2.1
298.15	0.1075	10000	1001.7	2.1
298.15	0.1075	15000	1004.5	2.1
298.15	0.1075	20000	1007.2	2.1
298.15	0.1075	25000	1009.8	2.1
298.15	0.1075	30000	1012.3	2.1
298.15	0.1075	35000	1014.9	2.1
298.15	0.1075	40000	1017.3	2.1
298.15	0.1075	45000	1019.7	2.1
298.15	0.1075	50000	1022.1	2.1
298.15	0.2132	100	971.2	2
298.15	0.2132	10000	977	2
298.15	0.2132	15000	979.8	2
298.15	0.2132	20000	982.5	2
298.15	0.2132	25000	985.2	2
298.15	0.2132	30000	987.7	2
298.15	0.2132	35000	990.3	2
298.15	0.2132	40000	992.8	2
298.15	0.2132	45000	995.1	2.1
298.15	0.2132	50000	997.5	2.1
298.15	0.3172	100	947.9	2
298.15	0.3172	10000	953.8	2
298.15	0.3172	15000	956.6	2
298.15	0.3172	20000	959.4	2
298.15	0.3172	25000	962	2
298.15	0.3172	30000	964.7	2
298.15	0.3172	35000	967.2	2
298.15	0.3172	40000	969.7	2
298.15	0.3172	45000	972.2	2
298.15	0.3172	50000	974.6	2
298.15	0.4195	100	926.2	1.9
298.15	0.4195	10000	932.2	1.9
298.15	0.4195	15000	935.1	1.9
298.15	0.4195	20000	937.9	1.9
298.15	0.4195	25000	940.6	1.9
298.15	0.4195	30000	943.2	1.9
298.15	0.4195	35000	945.8	2
298.15	0.4195	40000	948.3	2
298.15	0.4195	45000	950.7	2
298.15	0.4195	50000	953.2	2
298.15	0.5201	100	905.9	1.9
298.15	0.5201	10000	911.9	1.9
298.15	0.5201	15000	914.9	1.9
298.15	0.5201	20000	917.6	1.9
298.15	0.5201	25000	920.3	1.9
298.15	0.5201	30000	923	1.9
298.15	0.5201	35000	925.6	1.9
298.15	0.5201	40000	928.1	1.9
298.15	0.5201	45000	930.6	1.9
298.15	0.5201	50000	933	1.9
298.15	0.6192	100	886.6	1.8
298.15	0.6192	10000	892.7	1.8
298.15	0.6192	15000	895.6	1.9
298.15	0.6192	20000	898.4	1.9
298.15	0.6192	25000	901.2	1.9
298.15	0.6192	30000	903.8	1.9
298.15	0.6192	35000	906.4	1.9
298.15	0.6192	40000	909	1.9
298.15	0.6192	45000	911.4	1.9
298.15	0.6192	50000	913.8	1.9
298.15	0.7166	100	868.6	1.8
298.15	0.7166	10000	874.7	1.8
298.15	0.7166	15000	877.6	1.8
298.15	0.7166	20000	880.4	1.8
298.15	0.7166	25000	883.2	1.8
298.15	0.7166	30000	885.9	1.8
298.15	0.7166	35000	888.5	1.8
298.15	0.7166	40000	891	1.9
298.15	0.7166	45000	893.5	1.9
298.15	0.7166	50000	895.9	1.9
298.15	0.8126	100	851.8	1.8
298.15	0.8126	10000	857.9	1.8
298.15	0.8126	15000	860.9	1.8
298.15	0.8126	20000	863.7	1.8
298.15	0.8126	25000	866.5	1.8
298.15	0.8126	30000	869.2	1.8
298.15	0.8126	35000	871.8	1.8
298.15	0.8126	40000	874.2	1.8
298.15	0.8126	45000	876.8	1.8
298.15	0.8126	50000	879.2	1.8
298.15	0.907	100	836	1.7
298.15	0.907	10000	842.1	1.7
298.15	0.907	15000	845.1	1.8
298.15	0.907	20000	848	1.8
298.15	0.907	25000	850.7	1.8
298.15	0.907	30000	853.4	1.8
298.15	0.907	35000	855.9	1.8
298.15	0.907	40000	858.5	1.8
298.15	0.907	45000	861	1.8
298.15	0.907	50000	863.3	1.8
318.15	0.1075	100	978.9	2
318.15	0.1075	10000	985.3	2
318.15	0.1075	15000	988.3	2
318.15	0.1075	20000	991.3	2
318.15	0.1075	25000	994.1	2.1
318.15	0.1075	30000	997	2.1
318.15	0.1075	35000	999.5	2.1
318.15	0.1075	40000	1002.2	2.1
318.15	0.1075	45000	1004.8	2.1
318.15	0.1075	50000	1007.3	2.1
318.15	0.2132	100	954.5	2
318.15	0.2132	10000	960.9	2
318.15	0.2132	15000	964	2
318.15	0.2132	20000	967	2
318.15	0.2132	25000	969.9	2
318.15	0.2132	30000	972.7	2
318.15	0.2132	35000	975.4	2
318.15	0.2132	40000	978	2
318.15	0.2132	45000	980.7	2
318.15	0.2132	50000	983.2	2
318.15	0.3172	100	931.3	1.9
318.15	0.3172	10000	937.8	1.9
318.15	0.3172	15000	940.9	1.9
318.15	0.3172	20000	943.9	2
318.15	0.3172	25000	946.9	2
318.15	0.3172	30000	949.7	2
318.15	0.3172	35000	952.4	2
318.15	0.3172	40000	955.1	2
318.15	0.3172	45000	957.7	2
318.15	0.3172	50000	960.3	2
318.15	0.4195	100	910	1.9
318.15	0.4195	10000	916.6	1.9
318.15	0.4195	15000	919.7	1.9
318.15	0.4195	20000	922.8	1.9
318.15	0.4195	25000	925.7	1.9
318.15	0.4195	30000	928.6	1.9
318.15	0.4195	35000	931.4	1.9
318.15	0.4195	40000	934	1.9
318.15	0.4195	45000	936.8	1.9
318.15	0.4195	50000	939.3	1.9
318.15	0.5201	100	890	1.8
318.15	0.5201	10000	896.7	1.9
318.15	0.5201	15000	899.8	1.9
318.15	0.5201	20000	902.9	1.9
318.15	0.5201	25000	905.9	1.9
318.15	0.5201	30000	908.7	1.9
318.15	0.5201	35000	911.5	1.9
318.15	0.5201	40000	914.2	1.9
318.15	0.5201	45000	916.9	1.9
318.15	0.5201	50000	919.5	1.9
318.15	0.6192	100	871.1	1.8
318.15	0.6192	10000	877.8	1.8
318.15	0.6192	15000	881.1	1.8
318.15	0.6192	20000	884.1	1.8
318.15	0.6192	25000	887.1	1.8
318.15	0.6192	30000	890	1.8
318.15	0.6192	35000	892.7	1.9
318.15	0.6192	40000	895.4	1.9
318.15	0.6192	45000	898.1	1.9
318.15	0.6192	50000	900.7	1.9
318.15	0.7166	100	853.4	1.8
318.15	0.7166	10000	860.2	1.8
318.15	0.7166	15000	863.3	1.8
318.15	0.7166	20000	866.4	1.8
318.15	0.7166	25000	869.5	1.8
318.15	0.7166	30000	872.4	1.8
318.15	0.7166	35000	875.2	1.8
318.15	0.7166	40000	877.9	1.8
318.15	0.7166	45000	880.5	1.8
318.15	0.7166	50000	883.1	1.8
318.15	0.8126	100	837	1.7
318.15	0.8126	10000	843.9	1.7
318.15	0.8126	15000	847	1.8
318.15	0.8126	20000	850.2	1.8
318.15	0.8126	25000	853.2	1.8
318.15	0.8126	30000	856	1.8
318.15	0.8126	35000	858.9	1.8
318.15	0.8126	40000	861.6	1.8
318.15	0.8126	45000	864.3	1.8
318.15	0.8126	50000	866.8	1.8
318.15	0.907	100	821.6	1.7
318.15	0.907	10000	828.3	1.7
318.15	0.907	15000	831.6	1.7
318.15	0.907	20000	834.7	1.7
318.15	0.907	25000	837.7	1.7
318.15	0.907	30000	840.6	1.8
318.15	0.907	35000	843.4	1.8
318.15	0.907	40000	846.1	1.8
318.15	0.907	45000	848.8	1.8
318.15	0.907	50000	851.3	1.8
348.15	0.1075	100	952.5	2
348.15	0.1075	10000	959.7	2
348.15	0.1075	15000	963.2	2
348.15	0.1075	20000	966.6	2
348.15	0.1075	25000	969.9	2
348.15	0.1075	30000	973.1	2
348.15	0.1075	35000	976.1	2
348.15	0.1075	40000	979.2	2
348.15	0.1075	45000	982	2
348.15	0.1075	50000	984.8	2
348.15	0.2132	100	928.4	1.9
348.15	0.2132	10000	935.9	1.9
348.15	0.2132	15000	939.4	1.9
348.15	0.2132	20000	942.8	1.9
348.15	0.2132	25000	946.1	2
348.15	0.2132	30000	949.2	2
348.15	0.2132	35000	952.3	2
348.15	0.2132	40000	955.3	2
348.15	0.2132	45000	958.2	2
348.15	0.2132	50000	961	2
348.15	0.3172	100	905.7	1.9
348.15	0.3172	10000	913.1	1.9
348.15	0.3172	15000	916.7	1.9
348.15	0.3172	20000	920.1	1.9
348.15	0.3172	25000	923.5	1.9
348.15	0.3172	30000	926.7	1.9
348.15	0.3172	35000	929.8	1.9
348.15	0.3172	40000	932.9	1.9
348.15	0.3172	45000	935.9	1.9
348.15	0.3172	50000	938.6	1.9
348.15	0.4195	100	884.7	1.8
348.15	0.4195	10000	892.4	1.8
348.15	0.4195	15000	896	1.9
348.15	0.4195	20000	899.5	1.9
348.15	0.4195	25000	902.9	1.9
348.15	0.4195	30000	906.2	1.9
348.15	0.4195	35000	909.3	1.9
348.15	0.4195	40000	912.3	1.9
348.15	0.4195	45000	915.3	1.9
348.15	0.4195	50000	918.2	1.9
348.15	0.5201	100	865.1	1.8
348.15	0.5201	10000	872.8	1.8
348.15	0.5201	15000	876.5	1.8
348.15	0.5201	20000	880	1.8
348.15	0.5201	25000	883.4	1.8
348.15	0.5201	30000	886.6	1.8
348.15	0.5201	35000	889.6	1.8
348.15	0.5201	40000	892.8	1.9
348.15	0.5201	45000	895.9	1.9
348.15	0.5201	50000	898.7	1.9
348.15	0.6192	100	846.9	1.7
348.15	0.6192	10000	854.6	1.8
348.15	0.6192	15000	858.3	1.8
348.15	0.6192	20000	861.8	1.8
348.15	0.6192	25000	865.3	1.8
348.15	0.6192	30000	868.5	1.8
348.15	0.6192	35000	871.7	1.8
348.15	0.6192	40000	874.8	1.8
348.15	0.6192	45000	877.8	1.8
348.15	0.6192	50000	880.7	1.8
348.15	0.7166	100	829.6	1.7
348.15	0.7166	10000	837.4	1.7
348.15	0.7166	15000	841.1	1.7
348.15	0.7166	20000	844.6	1.8
348.15	0.7166	25000	848	1.8
348.15	0.7166	30000	851.3	1.8
348.15	0.7166	35000	854.5	1.8
348.15	0.7166	40000	857.6	1.8
348.15	0.7166	45000	860.5	1.8
348.15	0.7166	50000	863.4	1.8
348.15	0.8126	100	813.7	1.7
348.15	0.8126	10000	821.5	1.7
348.15	0.8126	15000	825.2	1.7
348.15	0.8126	20000	828.7	1.7
348.15	0.8126	25000	832.1	1.7
348.15	0.8126	30000	835.4	1.7
348.15	0.8126	35000	838.6	1.8
348.15	0.8126	40000	841.7	1.8
348.15	0.8126	45000	844.6	1.8
348.15	0.8126	50000	847.5	1.8
348.15	0.907	100	798.4	1.7
348.15	0.907	10000	806.4	1.7
348.15	0.907	15000	810.2	1.7
348.15	0.907	20000	813.8	1.7
348.15	0.907	25000	817.2	1.7
348.15	0.907	30000	820.4	1.7
348.15	0.907	35000	823.6	1.7
348.15	0.907	40000	826.7	1.7
348.15	0.907	45000	829.7	1.8
348.15	0.907	50000	832.5	1.8
