Measured thermophysical data. Solubility of Dexamethasone Sodium Phosphate in Different Solvents
Source: J. Chem. Eng. Data, 2004, 10.1021/je0498412
Compound 1: dexamethasone sodium phosphate, C22H28FNa2O8P, InChI=1S/C22H30FO8P.2Na/c1-12-8-16-15-5-4-13-9-14(24)6-7-19(13,2)21(15,23)17(25)10-20(16,3)22(12,27)18(26)11-31-32(28,29)30;;/h6-7,9,12,15-17,25,27H,4-5,8,10-11H2,1-3H3,(H2,28,29,30);;/q;2*+1/p-2/t12-,15+,16+,17+,19+,20+,21+,22+;;/m1../s1
Compound 2: water, H2O, InChI=1S/H2O/h1H2
Compound 3: methanol, CH4O, InChI=1S/CH4O/c1-2/h2H,1H3
Compound 4: ethanol, C2H6O, InChI=1S/C2H6O/c1-2-3/h3H,2H2,1H3

System: dexamethasone sodium phosphate + water; phases: Liquid, Crystal
Fixed: Pressure, kPa = 101
Property: Mole fraction of dexamethasone sodium phosphate (Liquid); method: OTHER
Temperature, K	Mole fraction of dexamethasone sodium phosphate	uncertainty
278.15	0.01404	0.00165
283.15	0.01611	0.00189
288.15	0.01927	0.00227
293.15	0.02168	0.00255
298.15	0.02526	0.00298
303.15	0.02815	0.00332
308.15	0.03161	0.00373
313.15	0.03562	0.00421
318.15	0.04128	0.00489

System: methanol + dexamethasone sodium phosphate; phases: Liquid, Crystal
Fixed: Pressure, kPa = 101
Property: Mole fraction of dexamethasone sodium phosphate (Liquid); method: OTHER
Temperature, K	Mole fraction of dexamethasone sodium phosphate	uncertainty
278.15	0.01105	0.00117
283.15	0.01072	0.00113
288.15	0.01049	0.00111
293.15	0.009823	0.001039
298.15	0.009523	0.001007
303.15	0.009036	0.000956
308.15	0.008862	0.000937
313.15	0.008301	0.000878
318.15	0.007817	0.000827

System: ethanol + dexamethasone sodium phosphate; phases: Liquid, Crystal
Fixed: Pressure, kPa = 101
Property: Mole fraction of dexamethasone sodium phosphate (Liquid); method: OTHER
Temperature, K	Mole fraction of dexamethasone sodium phosphate	uncertainty
278.15	0.0001316	1.35e-05
283.15	0.0001368	1.41e-05
288.15	0.0001548	1.59e-05
293.15	0.0001605	1.65e-05
298.15	0.0001751	1.8e-05
303.15	0.0002032	2.09e-05
308.15	0.0002373	2.44e-05
313.15	0.0002563	2.63e-05
318.15	0.0002849	2.93e-05

System: methanol + dexamethasone sodium phosphate + water; phases: Liquid, Crystal
Fixed: Pressure, kPa = 101
Fixed: Temperature, K = 298.15
Property: Mole fraction of dexamethasone sodium phosphate (Liquid); method: OTHER
Solvent: Mass fraction of methanol	Mole fraction of dexamethasone sodium phosphate	uncertainty
0	0.02526	0.00255
0.1225	0.01867	0.00188
0.2532	0.01257	0.00127
0.4222	0.007871	0.000792
0.5846	0.005351	0.000539
0.806	0.003746	0.000377
0.8585	0.003621	0.000364
0.9223	0.00379	0.000381
0.9406	0.004077	0.00041
0.9596	0.004964	0.0005
0.9791	0.006681	0.000672
1	0.009523	0.000959

System: ethanol + dexamethasone sodium phosphate + water; phases: Liquid, Crystal
Fixed: Pressure, kPa = 101
Fixed: Temperature, K = 298.15
Property: Mole fraction of dexamethasone sodium phosphate (Liquid); method: OTHER
Solvent: Mass fraction of ethanol	Mole fraction of dexamethasone sodium phosphate	uncertainty
0	0.02526	0.00255
0.07421	0.01827	0.00184
0.1275	0.01399	0.00141
0.264	0.009325	0.000939
0.4411	0.006081	0.000612
0.5215	0.004538	0.000457
0.5945	0.003409	0.000343
0.7595	0.001782	0.000179
0.9085	0.0006069	6.11e-05
1	0.0001751	1.76e-05
