Measured thermophysical data. Methyl Methacrylate + Carbon Dioxide Phase Equilibria at High Pressures
Source: J. Chem. Eng. Data, 2005, 10.1021/je049639z
Compound 1: carbon dioxide, CO2, InChI=1S/CO2/c2-1-3, purity 99.9%
Compound 2: methyl methacrylate, C5H8O2, InChI=1S/C5H8O2/c1-4(2)5(6)7-3/h1H2,2-3H3, purity 99%

System: methyl methacrylate + carbon dioxide; phases: Liquid, Gas
Property: Vapor or sublimation pressure, kPa (Liquid); method: Closed cell (Static) method
Mole fraction of carbon dioxide	Temperature, K	Vapor or sublimation pressure, kPa	uncertainty
0.476	353.15	6230	440
0.496	353.15	6760	260
0.54	343.15	6360	250
0.559	343.15	6580	280
0.567	353.15	7680	280
0.583	343.15	7020	310
0.588	353.15	8020	310
0.612	343.15	7500	300
0.62	333.15	6540	280
0.624	353.15	8680	290
0.638	343.15	7810	280
0.68	333.15	7290	300
0.683	353.15	9440	340
0.686	343.15	8400	310
0.696	323.15	6330	280
0.699	333.15	7590	360
0.714	353.15	10030	370
0.716	343.15	8900	300
0.717	333.15	7860	330
0.748	323.15	6710	350
0.756	343.15	9250	320
0.757	353.15	10690	390
0.774	333.15	8560	320
0.778	323.15	7100	370
0.795	353.15	11210	420
0.802	343.15	9900	430
0.819	323.15	7500	380
0.82	353.15	11700	330
0.821	343.15	10440	540
0.827	333.15	9100	370
0.839	343.15	10770	380
0.851	333.15	9500	430
0.852	323.15	8040	420
0.87	343.15	11020	270
0.878	353.15	12230	300
0.888	333.15	10040	410
0.894	323.15	8580	400
0.906	343.15	11230	250
0.926	333.15	10540	300
0.938	323.15	9040	410
0.957	323.15	9300	460

System: methyl methacrylate + carbon dioxide; phases: Gas, Liquid
Property: Mole fraction of carbon dioxide (Gas); method: Chromatography
Mole fraction of carbon dioxide	Temperature, K	Mole fraction of carbon dioxide	uncertainty
0.476	353.15	0.993	0.007
0.496	353.15	0.992	0.008
0.54	343.15	0.995	0.005
0.559	343.15	0.994	0.006
0.567	353.15	0.992	0.008
0.583	343.15	0.994	0.006
0.588	353.15	0.992	0.008
0.612	343.15	0.994	0.006
0.62	333.15	0.996	0.004
0.624	353.15	0.989	0.011
0.638	343.15	0.993	0.007
0.68	333.15	0.995	0.005
0.683	353.15	0.987	0.013
0.686	343.15	0.993	0.007
0.696	323.15	0.999	0.001
0.699	333.15	0.994	0.006
0.714	353.15	0.983	0.017
0.716	343.15	0.993	0.007
0.717	333.15	0.993	0.007
0.748	323.15	0.997	0.003
0.756	343.15	0.991	0.009
0.757	353.15	0.973	0.024
0.774	333.15	0.991	0.009
0.778	323.15	0.996	0.004
0.795	353.15	0.967	0.025
0.802	343.15	0.988	0.012
0.819	323.15	0.995	0.005
0.82	353.15	0.952	0.024
0.821	343.15	0.983	0.017
0.827	333.15	0.982	0.018
0.839	343.15	0.966	0.024
0.851	333.15	0.979	0.021
0.852	323.15	0.995	0.005
0.87	343.15	0.963	0.024
0.878	353.15	0.943	0.023
0.888	333.15	0.961	0.027
0.894	323.15	0.993	0.007
0.906	343.15	0.957	0.023
0.926	333.15	0.934	0.023
0.938	323.15	0.979	0.021
0.957	323.15	0.966	0.03
