Measured thermophysical data. Phase Equilibria for the Ternary System Methyl Oleate + Tocopherol + Supercritical CO2
Source: J. Chem. Eng. Data, 2005, 10.1021/je0497451
Compound 1: carbon dioxide, CO2, InChI=1S/CO2/c2-1-3
Compound 2: methyl cis-9-octadecenoate, C19H36O2, InChI=1S/C19H36O2/c1-3-4-5-6-7-8-9-10-11-12-13-14-15-16-17-18-19(20)21-2/h10-11H,3-9,12-18H2,1-2H3/b11-10-
Compound 3: dl-.alpha.-tocopherol, C29H50O2, InChI=1S/C29H50O2/c1-20(2)12-9-13-21(3)14-10-15-22(4)16-11-18-29(8)19-17-26-25(7)27(30)23(5)24(6)28(26)31-29/h20-22,30H,9-19H2,1-8H3

System: methyl cis-9-octadecenoate + carbon dioxide + dl-.alpha.-tocopherol; phases: Liquid, Gas
Property: Mole fraction of carbon dioxide (Liquid); method: CHROM:UFactor:16
Property: Mole fraction of carbon dioxide (Gas); method: CHROM:UFactor:16
Property: Mole fraction of methyl cis-9-octadecenoate (Gas); method: CHROM:UFactor:16
Temperature, K	Pressure, kPa	Mole fraction of methyl cis-9-octadecenoate	Mole fraction of carbon dioxide	uncertainty	Mole fraction of carbon dioxide	uncertainty	Mole fraction of methyl cis-9-octadecenoate	uncertainty
313.15	10000	0.3811	0.6189	0.0473	0.9699	0.0014	0.0301	
313.15	10000	0.4137	0.5201	0.0595	0.9831	0.0011	0.0165	
313.15	10000	0.3193	0.4588	0.0569	0.9895	0.001	0.0099	
313.15	10000	0.2447	0.3526	0.0437	0.9944	0.001	0.0048	
313.15	10000	0.1711	0.2224	0.0276	0.9965	0.001	0.0025	
313.15	10000	0	0.2251	0.0279	0.9983	0.001	0	
313.15	15000	0.3396	0.5829	0.0517	0.905	0.0035	0.0911	
313.15	15000	0.2759	0.5143	0.0602	0.9557	0.0018	0.0398	
313.15	15000	0.2026	0.4245	0.0526	0.9768	0.0012	0.0191	
313.15	15000	0.1489	0.263	0.0326	0.9826	0.0011	0.0118	
313.15	15000	0	0.2424	0.03	0.9928	0.001	0	
313.15	20000	0.2611	0.6752	0.0403	0.863	0.0051	0.1261	
313.15	20000	0.225	0.5849	0.0515	0.9236	0.0028	0.0665	
313.15	20000	0.1639	0.4877	0.0605	0.9586	0.0017	0.031	
313.15	20000	0.1284	0.3024	0.0375	0.9682	0.0014	0.0203	
313.15	20000	0	0.2554	0.0317	0.9886	0.001	0	
313.15	25000	0.2105	0.7301	0.0335	0.8226	0.0067	0.1605	
313.15	25000	0.164	0.6895	0.0385	0.8985	0.0038	0.0851	
313.15	25000	0.1293	0.566	0.0538	0.9418	0.0022	0.0418	
313.15	25000	0.1007	0.3625	0.0449	0.9608	0.0016	0.0227	
313.15	25000	0	0.2579	0.032	0.9822	0.0011	0	
313.15	29000	0.1323	0.7283	0.0337	0.8857	0.0043	0.0862	
313.15	29000	0.1048	0.6089	0.0485	0.9163	0.0031	0.0558	
313.15	29000	0.0774	0.3952	0.049	0.9479	0.002	0.0263	
313.15	29000	0	0.2642	0.0328	0.9777	0.0012	0	
333.15	10000	0.6532	0.3468	0.043	0.9971	0.001	0.0029	
333.15	10000	0.5882	0.3286	0.0407	0.997	0.001	0.0029	
333.15	10000	0.4028	0.3428	0.0425	0.9969	0.001	0.003	
333.15	10000	0.2813	0.3139	0.0389	0.9972	0.001	0.0025	
333.15	10000	0.1822	0.2502	0.031	0.9973	0.001	0.002	
333.15	10000	0	0.2169	0.0269	0.9985	0.001	0	
333.15	20000	0.2904	0.6506	0.0433	0.8497	0.0056	0.1417	
333.15	20000	0.2582	0.5454	0.0564	0.9255	0.0028	0.0671	
333.15	20000	0.1996	0.4455	0.0552	0.9557	0.0018	0.0368	
333.15	20000	0.1338	0.3311	0.0411	0.976	0.0013	0.0163	
333.15	20000	0	0.2544	0.0315	0.9894	0.001	0	
333.15	29000	0.1739	0.6688	0.0411	0.8827	0.0044	0.0956	
333.15	29000	0.1404	0.5641	0.0541	0.9184	0.003	0.0593	
333.15	29000	0.1093	0.3647	0.0452	0.9472	0.002	0.0312	
333.15	29000	0	0.2624	0.0325	0.9798	0.0012	0	
353.15	10000	0.7439	0.2561	0.0317	0.9972	0.001	0.0028	
353.15	10000	0.6905	0.2285	0.0283	0.9972	0.001	0.0027	
353.15	10000	0.4324	0.2347	0.0291	0.9974	0.001	0.0025	
353.15	10000	0.2855	0.2486	0.0308	0.9975	0.001	0.0023	
353.15	10000	0.147	0.2221	0.0275	0.9975	0.001	0.0019	
353.15	10000	0	0.2194	0.0272	0.9986	0.001	0	
353.15	20000	0.3343	0.6657	0.0414	0.9171	0.0031	0.0829	
353.15	20000	0.3416	0.5757	0.0526	0.9303	0.0026	0.066	
353.15	20000	0.2772	0.4488	0.0556	0.9502	0.0019	0.0438	
353.15	20000	0.2152	0.3595	0.0446	0.9717	0.0014	0.0231	
353.15	20000	0.1164	0.2728	0.0338	0.9868	0.0011	0.0085	
353.15	20000	0	0.2554	0.0317	0.9941	0.001	0	
353.15	29000	0.1572	0.6567	0.0426	0.9204	0.003	0.0628	
353.15	29000	0.1313	0.5392	0.0571	0.9374	0.0023	0.0444	
353.15	29000	0.0795	0.3372	0.0418	0.9638	0.0016	0.02	
353.15	29000	0	0.332	0.0412	0.9836	0.0011	0	
