Measured thermophysical data. Solubility of NaCl, NaBr, and KCl in Water, Methanol, Ethanol, and Their Mixed Solvents
Source: J. Chem. Eng. Data, 2005, 10.1021/je049922y
Compound 1: sodium chloride, ClNa, InChI=1S/ClH.Na/h1H;/q;+1/p-1
Compound 2: water, H2O, InChI=1S/H2O/h1H2
Compound 3: sodium bromide, BrNa, InChI=1S/BrH.Na/h1H;/q;+1/p-1
Compound 4: potassium chloride, ClK, InChI=1S/ClH.K/h1H;/q;+1/p-1
Compound 5: methanol, CH4O, InChI=1S/CH4O/c1-2/h2H,1H3
Compound 6: ethanol, C2H6O, InChI=1S/C2H6O/c1-2-3/h3H,2H2,1H3

System: sodium chloride + water; phases: Liquid, Crystal
Fixed: Pressure, kPa = 101.3
Property: Mass fraction of sodium chloride (Liquid); method: determined gravemetrically
Temperature, K	Mass fraction of sodium chloride	uncertainty
298.15	0.26483	0.00084
303.15	0.2655	0.00084
313.15	0.26701	0.00085
323.15	0.26889	0.00085
333.15	0.27106	0.00086
343.15	0.27338	0.00087
348.15	0.27478	0.00088
353.15	0.27602	0.00089

System: sodium bromide + water; phases: Liquid, Crystal
Fixed: Pressure, kPa = 101.3
Property: Mass fraction of sodium bromide (Liquid); method: determined gravemetrically
Temperature, K	Mass fraction of sodium bromide	uncertainty
323.15	0.53838	0.00271
328.15	0.54015	0.00273
333.15	0.54087	0.00274
343.15	0.54281	0.00276
348.15	0.54369	0.00277
353.15	0.54495	0.00278

System: sodium bromide + water; phases: Liquid, Crystal of intercomponent compound 1
Fixed: Pressure, kPa = 101.3
Property: Mass fraction of sodium bromide (Liquid); method: determined gravemetrically
Temperature, K	Mass fraction of sodium bromide	uncertainty
298.15	0.4862	0.00224
303.15	0.49583	0.00232
313.15	0.51571	0.00249
318.15	0.52673	0.0026
323.15	0.53838	0.00271

System: potassium chloride + water; phases: Liquid, Crystal
Fixed: Pressure, kPa = 101.3
Property: Mass fraction of potassium chloride (Liquid); method: determined gravemetrically
Temperature, K	Mass fraction of potassium chloride	uncertainty
298.15	0.26476	0.00085
303.15	0.27257	0.00088
313.15	0.28728	0.00095
323.15	0.30094	0.00101
333.15	0.31366	0.00107
343.15	0.32582	0.00113
348.15	0.33146	0.00116
353.15	0.33709	0.00119

System: methanol + sodium chloride; phases: Liquid, Crystal
Fixed: Pressure, kPa = 101.3
Property: Mass fraction of sodium chloride (Liquid); method: determined gravemetrically
Temperature, K	Mass fraction of sodium chloride	uncertainty
303.15	0.0136	0.0001
313.15	0.0131	0.0001
333.15	0.0122	0.0001

System: methanol + sodium bromide; phases: Liquid, Crystal
Fixed: Pressure, kPa = 101.3
Property: Mass fraction of sodium bromide (Liquid); method: determined gravemetrically
Temperature, K	Mass fraction of sodium bromide	uncertainty
298.15	0.14938	0.00041
303.15	0.14754	0.0004
313.15	0.14461	0.00039
323.15	0.14196	0.00039
333.15	0.13941	0.00038

System: methanol + potassium chloride; phases: Liquid, Crystal
Fixed: Pressure, kPa = 101.3
Property: Mass fraction of potassium chloride (Liquid); method: determined gravemetrically
Temperature, K	Mass fraction of potassium chloride	uncertainty
303.15	0.00554	0.0001
313.15	0.00593	0.0001
333.15	0.0067	0.0001

System: ethanol + sodium bromide; phases: Liquid, Crystal
Fixed: Pressure, kPa = 101.3
Property: Mass fraction of sodium bromide (Liquid); method: determined gravemetrically
Temperature, K	Mass fraction of sodium bromide	uncertainty
298.15	0.02496	0.00011
323.15	0.02416	0.00011
348.15	0.02297	0.00011

System: ethanol + potassium chloride; phases: Liquid, Crystal
Fixed: Pressure, kPa = 101.3
Property: Mass fraction of potassium chloride (Liquid); method: determined gravemetrically
Temperature, K	Mass fraction of potassium chloride	uncertainty
298.15	0.00034	0.0001
323.15	0.00039	0.0001
348.15	0.00049	0.0001

System: methanol + sodium bromide + water; phases: Liquid, Crystal
Fixed: Pressure, kPa = 101.3
Property: Mass fraction of sodium bromide (Liquid); method: determined gravemetrically
Temperature, K	Solvent: Mass fraction of water	Mass fraction of sodium bromide	uncertainty
298.15	0.1	0.18772	0.00054
298.15	0.2	0.23524	0.00071
298.15	0.3	0.28258	0.00092
298.15	0.4	0.32634	0.00113
298.15	0.4998	0.35862	0.0013
298.15	0.5998	0.38339	0.00145
298.15	0.6999	0.4107	0.00162
298.15	0.7999	0.43716	0.00181
298.15	0.8999	0.46245	0.00201
323.15	0.1	0.18532	0.00053
323.15	0.2	0.23465	0.00071
323.15	0.3	0.28326	0.00092
323.15	0.4	0.32829	0.00114
323.15	0.4998	0.36931	0.00136
323.15	0.5998	0.40793	0.0016
323.15	0.6999	0.44306	0.00185
323.15	0.7999	0.47686	0.00212
323.15	0.8999	0.5091	0.00242

System: ethanol + methanol + sodium chloride; phases: Liquid, Crystal
Fixed: Pressure, kPa = 101.3
Property: Mass fraction of sodium chloride (Liquid); method: determined gravemetrically
Temperature, K	Solvent: Mass fraction of methanol	Mass fraction of sodium chloride	uncertainty
298.15	0.2001	0.00139	0.0001
298.15	0.4018	0.00331	0.0001
298.15	0.5977	0.00548	0.0001
298.15	0.8001	0.00885	0.0001
323.15	0.2001	0.0014	0.0001
323.15	0.4018	0.00288	0.0001
323.15	0.5977	0.00517	0.0001
323.15	0.8001	0.00818	0.0001

System: ethanol + methanol + sodium bromide; phases: Liquid, Crystal
Fixed: Pressure, kPa = 101.3
Property: Mass fraction of sodium bromide (Liquid); method: determined gravemetrically
Temperature, K	Solvent: Mass fraction of methanol	Mass fraction of sodium bromide	uncertainty
298.15	0.1007	0.03406	0.00013
298.15	0.1987	0.04497	0.00014
298.15	0.3001	0.05835	0.00017
298.15	0.4013	0.06985	0.00019
298.15	0.5003	0.08266	0.00022
298.15	0.5996	0.09579	0.00025
298.15	0.7	0.11033	0.00029
298.15	0.7997	0.12226	0.00032
298.15	0.8999	0.13568	0.00037
323.15	0.1007	0.03264	0.00012
323.15	0.1987	0.04287	0.00014
323.15	0.3001	0.05522	0.00016
323.15	0.4013	0.06636	0.00018
323.15	0.5003	0.07873	0.00021
323.15	0.5996	0.0911	0.00024
323.15	0.7	0.10438	0.00027
323.15	0.7997	0.11603	0.00031
323.15	0.8999	0.12918	0.00035

System: ethanol + methanol + potassium chloride; phases: Liquid, Crystal
Fixed: Pressure, kPa = 101.3
Property: Mass fraction of potassium chloride (Liquid); method: determined gravemetrically
Temperature, K	Solvent: Mass fraction of methanol	Mass fraction of potassium chloride	uncertainty
298.15	0.2001	0.00065	0.0001
298.15	0.3995	0.00117	0.0001
298.15	0.6011	0.00204	0.0001
298.15	0.8015	0.00352	0.0001
323.15	0.2001	0.00078	0.0001
323.15	0.3995	0.00138	0.0001
323.15	0.6011	0.00259	0.0001
323.15	0.8015	0.00424	0.0001

System: ethanol + sodium bromide + water; phases: Liquid, Crystal
Fixed: Pressure, kPa = 101.3
Property: Mass fraction of sodium bromide (Liquid); method: determined gravemetrically
Temperature, K	Solvent: Mass fraction of water	Mass fraction of sodium bromide	uncertainty
298.15	0.1	0.08527	0.00022
298.15	0.2	0.13648	0.00038
298.15	0.3	0.19808	0.00059
298.15	0.4	0.25124	0.0008
298.15	0.5	0.29119	0.00097
298.15	0.6	0.34007	0.00121
298.15	0.7	0.37928	0.00143
298.15	0.8	0.41662	0.00167
298.15	0.9	0.45162	0.00192
323.15	0.1	0.0884	0.00023
323.15	0.2	0.16277	0.00046
323.15	0.3	0.23009	0.0007
323.15	0.4	0.28905	0.00095
323.15	0.5	0.34121	0.00121
323.15	0.6	0.38689	0.00147
323.15	0.7	0.42876	0.00175
323.15	0.8	0.46706	0.00204
323.15	0.9	0.50276	0.00235
348.15	0.1	0.09051	0.00023
348.15	0.2	0.16491	0.00046
348.15	0.3	0.23299	0.00071
348.15	0.4	0.29328	0.00096
348.15	0.5	0.34637	0.00123
348.15	0.6	0.39224	0.0015
348.15	0.7	0.43501	0.00179
348.15	0.7999	0.47266	0.00208
348.15	0.8999	0.50892	0.00241

System: ethanol + potassium chloride + water; phases: Liquid, Crystal
Fixed: Pressure, kPa = 101.3
Property: Mass fraction of potassium chloride (Liquid); method: determined gravemetrically
Temperature, K	Solvent: Mass fraction of water	Mass fraction of potassium chloride	uncertainty
298.15	0.1	0.00164	0.0001
298.15	0.2	0.00685	0.0001
298.15	0.3	0.01874	0.00011
298.15	0.4004	0.03759	0.00014
298.15	0.5	0.06198	0.0002
298.15	0.6	0.09123	0.00027
298.15	0.7	0.12544	0.00036
298.15	0.8	0.16589	0.00049
298.15	0.8998	0.21352	0.00065
323.15	0.1	0.00254	0.0001
323.15	0.2	0.01064	0.0001
323.15	0.3	0.02834	0.00012
323.15	0.4004	0.05544	0.00017
323.15	0.5	0.08828	0.00025
323.15	0.6	0.12519	0.00036
323.15	0.7	0.16436	0.00048
323.15	0.8	0.20666	0.00062
323.15	0.8998	0.25225	0.0008
348.15	0.1	0.00344	0.0001
348.15	0.2	0.01458	0.00011
348.15	0.2999	0.03796	0.00014
348.15	0.4	0.07206	0.00021
348.15	0.5	0.11189	0.00031
348.15	0.6	0.15415	0.00044
348.15	0.7	0.19666	0.00058
348.15	0.7944	0.23745	0.00074
348.15	0.8981	0.28452	0.00093
