Measured thermophysical data. Liquid-Liquid Equilibria of Water + Acetic Acid + Dimethyl Glutarate Ternary System
Source: J. Chem. Eng. Data, 2005, 10.1021/je049571n
Compound 1: acetic acid, C2H4O2, InChI=1S/C2H4O2/c1-2(3)4/h1H3,(H,3,4)
Compound 2: dimethyl pentanedioate, C7H12O4, InChI=1S/C7H12O4/c1-10-6(8)4-3-5-7(9)11-2/h3-5H2,1-2H3
Compound 3: water, H2O, InChI=1S/H2O/h1H2

System: acetic acid; phases: Liquid, Gas
Property: Normal boiling temperature, K (Liquid); method: DISTILL:FP
Normal boiling temperature, K	uncertainty
391.2	0.2

System: acetic acid; phases: Liquid
Property: Refractive index (Na D-line) (Liquid); method: Standard Abbe refractometry
Temperature, K	Pressure, kPa	Refractive index (Na D-line)	uncertainty
293.2	101.325	1.3719	0.0012

System: acetic acid; phases: Liquid
Property: Mass density, kg/m3 (Liquid); method: VIBTUB:UFactor:4
Temperature, K	Pressure, kPa	Mass density, kg/m3	uncertainty
298.2	101.325	1047.22	0.28

System: dimethyl pentanedioate; phases: Liquid, Gas
Property: Normal boiling temperature, K (Liquid); method: DISTILL:FP
Normal boiling temperature, K	uncertainty
487.2	0.2

System: dimethyl pentanedioate; phases: Liquid
Property: Refractive index (Na D-line) (Liquid); method: Standard Abbe refractometry
Temperature, K	Pressure, kPa	Refractive index (Na D-line)	uncertainty
298.2	101.325	1.4242	0.0012

System: dimethyl pentanedioate; phases: Liquid
Property: Mass density, kg/m3 (Liquid); method: VIBTUB:UFactor:4
Temperature, K	Pressure, kPa	Mass density, kg/m3	uncertainty
293.2	101.325	1087.74	0.65

System: acetic acid + dimethyl pentanedioate + water; phases: Liquid mixture 1, Liquid mixture 2
Fixed: Pressure, kPa = 101.325
Property: Mole fraction of acetic acid (Liquid mixture 1); method: CHROM:UFactor:8
Property: Mole fraction of acetic acid (Liquid mixture 2); method: CHROM:UFactor:8
Property: Mole fraction of water (Liquid mixture 2); method: CHROM:UFactor:8
Temperature, K	Mole fraction of water	Mole fraction of acetic acid	uncertainty	Mole fraction of acetic acid	uncertainty	Mole fraction of water	uncertainty
298.2	0.9803	0.0123	0.0123	0.0509	0.0301	0.2978	
298.2	0.9678	0.0229	0.02	0.0904	0.0304	0.3785	
298.2	0.956	0.0335	0.0201	0.1197	0.0308	0.4545	
298.2	0.9432	0.0437	0.0202	0.1346	0.031	0.5268	
298.2	0.9279	0.0548	0.0202	0.1407	0.031	0.6248	
308.2	0.9794	0.0127	0.0127	0.0447	0.0301	0.3511	
308.2	0.966	0.0241	0.02	0.0858	0.0304	0.4017	
308.2	0.9536	0.035	0.0201	0.1134	0.0307	0.4586	
308.2	0.9327	0.0513	0.0202	0.1306	0.0309	0.5284	
308.2	0.9084	0.0671	0.0204	0.1403	0.031	0.6065	
318.2	0.9803	0.0116	0.0116	0.0437	0.0301	0.4071	
318.2	0.9667	0.0234	0.02	0.0871	0.0304	0.3973	
318.2	0.9525	0.0355	0.0201	0.1104	0.0306	0.4994	
318.2	0.929	0.0521	0.0202	0.1271	0.0309	0.5718	
318.2	0.8861	0.0755	0.0205	0.1347	0.031	0.653	
