Measured thermophysical data. Thermal Conductivity of Aqueous Mg(NO3)2, Ca(NO3)2, and Ba(NO3)2 Solutions at High Temperatures and High Pressures
Source: J. Chem. Eng. Data, 2006, 10.1021/je050393n
Compound 1: water, H2O, InChI=1S/H2O/h1H2
Compound 2: magnesium nitrate, MgN2O6, InChI=1S/Mg.2NO3/c;2*2-1(3)4/q+2;2*-1
Compound 3: calcium nitrate, CaN2O6, InChI=1S/Ca.2NO3/c;2*2-1(3)4/q+2;2*-1
Compound 4: barium dinitrate, BaN2O6, InChI=1S/Ba.2NO3/c;2*2-1(3)4/q+2;2*-1

System: water; phases: Liquid
Property: Thermal conductivity, W/m/K (Liquid); method: Coaxial cylinder method
Temperature, K	Pressure, kPa	Thermal conductivity, W/m/K	uncertainty
308.4	100	0.621	0.028
308.4	10000	0.63	0.028
308.4	30000	0.64	0.029
308.4	60000	0.655	0.029
329.2	100	0.648	0.029
329.2	10000	0.655	0.029
329.2	30000	0.66	0.029
329.2	60000	0.675	0.03
366.5	100	0.671	0.03
366.5	10000	0.681	0.03
366.5	30000	0.686	0.031
366.5	60000	0.706	0.031
383.3	10000	0.685	0.031
383.3	30000	0.695	0.031
383.3	60000	0.713	0.032
408.3	10000	0.689	0.031
408.3	30000	0.702	0.031
408.3	60000	0.719	0.032
439.5	10000	0.686	0.031
439.5	30000	0.695	0.031
439.5	60000	0.717	0.032
464.5	10000	0.678	0.03
464.5	30000	0.694	0.031
464.5	60000	0.71	0.032
507.9	10000	0.645	0.029
507.9	30000	0.672	0.03
507.9	60000	0.695	0.031
529.7	10000	0.625	0.028
529.7	30000	0.642	0.029
529.7	60000	0.68	0.03
554.7	10000	0.587	0.026
554.7	30000	0.62	0.028
554.7	60000	0.658	0.029
602.3	30000	0.542	0.024
602.3	60000	0.59	0.026
627.3	30000	0.49	0.022
627.3	60000	0.557	0.025
704.2	30000	0.158	0.007
704.2	60000	0.415	0.019

System: water + magnesium nitrate; phases: Liquid
Property: Thermal conductivity, W/m/K (Liquid); method: Coaxial cylinder method
Molality, mol/kg of magnesium nitrate	Temperature, K	Pressure, kPa	Thermal conductivity, W/m/K	uncertainty
0.705	295.98	100	0.587	0.026
0.705	313.91	100	0.612	0.027
0.705	338.12	100	0.636	0.028
0.705	352.16	100	0.644	0.029
0.7507	294.85	40000	0.604	0.027
0.7507	295.74	20000	0.597	0.027
0.7507	295.82	30000	0.601	0.027
0.7507	296.13	10000	0.591	0.026
0.7507	313.98	30000	0.628	0.028
0.7507	314.02	40000	0.632	0.028
0.7507	314.31	10000	0.616	0.027
0.7507	314.91	20000	0.623	0.028
0.7507	334.98	20000	0.643	0.029
0.7507	335.45	10000	0.638	0.028
0.7507	336.93	30000	0.65	0.029
0.7507	337.16	40000	0.655	0.029
0.7507	357.14	10000	0.655	0.029
0.7507	357.49	40000	0.67	0.03
0.7507	358.39	20000	0.66	0.029
0.7507	359.49	30000	0.668	0.03
0.7507	376.02	20000	0.67	0.03
0.7507	376.82	10000	0.665	0.03
0.7507	377.85	40000	0.681	0.03
0.7507	378.98	30000	0.678	0.03
0.7507	397.12	10000	0.672	0.03
0.7507	398.14	20000	0.677	0.03
0.7507	399.12	30000	0.684	0.03
0.7507	399.82	40000	0.688	0.031
0.7507	414.94	20000	0.679	0.03
0.7507	415.49	10000	0.673	0.03
0.7507	416.28	30000	0.685	0.031
0.7507	431.71	10000	0.672	0.03
0.7507	432.47	20000	0.676	0.03
0.7507	432.73	40000	0.689	0.031
0.7507	433.77	30000	0.682	0.03
0.7507	454.12	10000	0.664	0.03
0.7507	454.71	20000	0.669	0.03
0.7507	456.12	40000	0.683	0.03
0.7507	457.46	30000	0.676	0.03
0.7507	471.08	30000	0.668	0.03
0.7507	471.39	40000	0.69	0.031
0.7507	472.83	40000	0.677	0.03
0.7507	476.38	10000	0.652	0.029
0.7507	477.73	20000	0.658	0.029
0.7507	490.98	20000	0.647	0.029
0.7507	491.74	10000	0.639	0.029
0.7507	495.08	40000	0.664	0.03
0.7507	498.75	30000	0.65	0.029
0.7507	512.47	40000	0.652	0.029
0.7507	513.49	30000	0.638	0.028
0.7507	517.04	20000	0.626	0.028
0.7507	517.34	10000	0.616	0.027
0.7507	536.19	20000	0.605	0.027
0.7507	536.56	40000	0.63	0.028
0.7507	536.98	10000	0.592	0.026
0.7507	537.3	30000	0.613	0.027
0.7507	550.17	30000	0.598	0.027
0.7507	550.18	40000	0.614	0.027
0.7507	551.14	10000	0.568	0.025
0.7507	552.98	20000	0.584	0.026
0.7507	572.73	10000	0.533	0.024
0.7507	575.66	40000	0.581	0.026
0.7507	577.66	30000	0.562	0.025
0.7507	589.44	20000	0.525	0.023
1.689	294.14	40000	0.587	0.026
1.689	294.16	100	0.57	0.025
1.689	295.17	10000	0.576	0.026
1.689	296.74	20000	0.584	0.026
1.689	298.5	30000	0.591	0.026
1.689	313.02	20000	0.604	0.027
1.689	314.12	10000	0.602	0.027
1.689	314.77	100	0.597	0.027
1.689	314.91	30000	0.613	0.027
1.689	315.94	40000	0.616	0.027
1.689	335.07	30000	0.633	0.028
1.689	335.42	40000	0.634	0.028
1.689	336.42	20000	0.629	0.028
1.689	336.77	100	0.619	0.028
1.689	336.93	10000	0.624	0.028
1.689	352.45	100	0.63	0.028
1.689	354.14	40000	0.651	0.029
1.689	357.35	10000	0.639	0.029
1.689	357.82	30000	0.65	0.029
1.689	358.14	20000	0.644	0.029
1.689	376.19	40000	0.662	0.03
1.689	376.92	30000	0.66	0.029
1.689	378.69	20000	0.653	0.029
1.689	379.14	10000	0.651	0.029
1.689	395.47	10000	0.653	0.029
1.689	395.78	40000	0.668	0.03
1.689	397.14	30000	0.664	0.03
1.689	399.45	20000	0.66	0.029
1.689	414.53	40000	0.672	0.03
1.689	415.94	10000	0.655	0.029
1.689	416.73	30000	0.665	0.03
1.689	417.53	20000	0.661	0.029
1.689	431.12	30000	0.664	0.03
1.689	432.85	10000	0.654	0.029
1.689	433.66	40000	0.67	0.03
1.689	434.75	20000	0.658	0.029
1.689	455.14	30000	0.658	0.029
1.689	456.12	40000	0.664	0.03
1.689	457.04	20000	0.652	0.029
1.689	457.77	10000	0.645	0.029
1.689	471.12	30000	0.65	0.029
1.689	472.28	40000	0.657	0.029
1.689	472.83	20000	0.644	0.029
1.689	477.71	10000	0.635	0.028
1.689	491.45	40000	0.647	0.029
1.689	496.75	10000	0.619	0.028
1.689	497.14	30000	0.634	0.028
1.689	498.66	20000	0.626	0.028
1.689	510.48	40000	0.633	0.028
1.689	511.49	10000	0.604	0.027
1.689	513.49	20000	0.612	0.027
1.689	516.17	30000	0.618	0.028
1.689	533.14	30000	0.602	0.027
1.689	535.37	20000	0.59	0.026
1.689	536.37	10000	0.576	0.026
1.689	548.39	20000	0.573	0.026
1.689	549.12	40000	0.59	0.026
1.689	549.15	30000	0.578	0.026
1.689	549.29	10000	0.556	0.025
1.689	572.91	10000	0.516	0.023
1.689	575.74	40000	0.565	0.025
1.689	588.15	40000	0.541	0.024
1.689	590.14	30000	0.528	0.024
1.689	591.45	20000	0.505	0.023
2.895	293.97	100	0.553	0.025
2.895	294.18	10000	0.558	0.025
2.895	295.18	40000	0.574	0.026
2.895	295.39	20000	0.565	0.025
2.895	296.14	30000	0.57	0.025
2.895	314.17	30000	0.595	0.027
2.895	314.97	100	0.582	0.026
2.895	315.45	20000	0.592	0.026
2.895	315.91	10000	0.566	0.025
2.895	334.87	40000	0.619	0.028
2.895	335.34	100	0.604	0.027
2.895	335.69	30000	0.618	0.028
2.895	336.93	20000	0.612	0.027
2.895	337.93	10000	0.608	0.027
2.895	351.16	100	0.604	0.027
2.895	353.49	40000	0.632	0.028
2.895	354.48	10000	0.622	0.028
2.895	354.98	30000	0.631	0.028
2.895	355.09	20000	0.627	0.028
2.895	374.15	40000	0.644	0.029
2.895	375.54	30000	0.642	0.029
2.895	375.92	20000	0.638	0.028
2.895	376.12	10000	0.634	0.028
2.895	394.17	30000	0.646	0.029
2.895	395.62	40000	0.652	0.029
2.895	395.69	10000	0.64	0.029
2.895	396.12	20000	0.642	0.029
2.895	413.09	40000	0.654	0.029
2.895	415.94	10000	0.641	0.029
2.895	416.13	30000	0.648	0.029
2.895	416.28	20000	0.644	0.029
2.895	431.71	10000	0.638	0.028
2.895	432.47	30000	0.647	0.029
2.895	433.13	20000	0.643	0.029
2.895	434.98	40000	0.652	0.029
2.895	454.71	10000	0.631	0.028
2.895	455.16	20000	0.636	0.028
2.895	455.35	40000	0.648	0.029
2.895	456.69	30000	0.641	0.029
2.895	472.85	10000	0.621	0.028
2.895	473.15	30000	0.634	0.028
2.895	473.37	20000	0.628	0.028
2.895	474.83	40000	0.64	0.029
2.895	494.53	40000	0.629	0.028
2.895	495.32	30000	0.62	0.028
2.895	495.85	20000	0.612	0.027
2.895	496.12	10000	0.604	0.027
2.895	511.39	20000	0.597	0.027
2.895	512.56	30000	0.606	0.027
2.895	512.93	10000	0.588	0.026
2.895	513.87	40000	0.616	0.027
2.895	535.92	40000	0.595	0.027
2.895	536.37	10000	0.56	0.025
2.895	536.53	30000	0.584	0.026
2.895	537.49	20000	0.57	0.025
2.895	548.14	20000	0.556	0.025
2.895	549.32	10000	0.539	0.024
2.895	550.28	30000	0.565	0.025
2.895	551.35	40000	0.576	0.026
2.895	570.45	10000	0.505	0.023
2.895	575.53	20000	0.516	0.023
2.895	589.92	30000	0.511	0.023
2.895	591.48	40000	0.522	0.023
4.504	294.14	30000	0.551	0.025
4.504	294.17	40000	0.556	0.025
4.504	294.33	100	0.504	0.023
4.504	295.02	20000	0.55	0.025
4.504	295.41	10000	0.545	0.024
4.504	312.49	40000	0.58	0.026
4.504	313.02	30000	0.578	0.026
4.504	313.31	10000	0.566	0.025
4.504	314.43	20000	0.573	0.026
4.504	315.16	100	0.568	0.025
4.504	334.45	10000	0.59	0.026
4.504	334.48	100	0.586	0.026
4.504	335.94	20000	0.596	0.027
4.504	335.97	40000	0.602	0.027
4.504	336.93	30000	0.6	0.027
4.504	352.74	40000	0.616	0.027
4.504	352.89	100	0.602	0.027
4.504	352.89	10000	0.605	0.027
4.504	353.69	30000	0.613	0.027
4.504	354.17	20000	0.612	0.027
4.504	374.12	10000	0.617	0.028
4.504	374.69	40000	0.628	0.028
4.504	375.93	30000	0.627	0.028
4.504	376.77	20000	0.622	0.028
4.504	393.4	40000	0.636	0.028
4.504	394.4	30000	0.631	0.028
4.504	394.84	20000	0.626	0.028
4.504	395.67	10000	0.623	0.028
4.504	414.48	40000	0.638	0.028
4.504	415.73	30000	0.632	0.028
4.504	415.94	10000	0.624	0.028
4.504	416.48	20000	0.628	0.028
4.504	432.87	40000	0.637	0.028
4.504	433.68	10000	0.621	0.028
4.504	433.69	30000	0.631	0.028
4.504	434.37	20000	0.625	0.028
4.504	453.09	40000	0.632	0.028
4.504	454.24	20000	0.62	0.028
4.504	454.97	30000	0.624	0.028
4.504	455.18	10000	0.613	0.027
4.504	473.74	10000	0.604	0.027
4.504	474.18	40000	0.624	0.028
4.504	474.19	20000	0.61	0.027
4.504	475.83	30000	0.615	0.027
4.504	490.42	20000	0.6	0.027
4.504	491.49	10000	0.592	0.026
4.504	494.6	40000	0.612	0.027
4.504	495.49	30000	0.602	0.027
4.504	512.48	40000	0.598	0.027
4.504	513.75	30000	0.588	0.026
4.504	515.67	20000	0.577	0.026
4.504	516.04	10000	0.568	0.025
4.504	534.81	20000	0.557	0.025
4.504	535.47	40000	0.576	0.026
4.504	535.98	10000	0.545	0.024
4.504	536.18	30000	0.566	0.025
4.504	549.48	40000	0.56	0.025
4.504	550.6	30000	0.548	0.024
4.504	551.38	20000	0.534	0.024
4.504	552.44	10000	0.52	0.023
4.504	571.61	10000	0.487	0.022
4.504	572.49	20000	0.504	0.023
4.504	589.88	30000	0.496	0.022
4.504	590.68	40000	0.512	0.023

System: water + calcium nitrate; phases: Liquid
Property: Thermal conductivity, W/m/K (Liquid); method: Coaxial cylinder method
Molality, mol/kg of calcium nitrate	Temperature, K	Pressure, kPa	Thermal conductivity, W/m/K	uncertainty
0.6771	295.08	100	0.588	0.026
0.6771	295.09	40000	0.61	0.027
0.6771	295.1	10000	0.596	0.027
0.6771	295.12	30000	0.605	0.027
0.6771	295.15	20000	0.599	0.027
0.6771	320.68	100	0.62	0.028
0.6771	320.68	40000	0.642	0.029
0.6771	320.7	10000	0.628	0.028
0.6771	320.7	30000	0.638	0.028
0.6771	320.71	20000	0.632	0.028
0.6771	346.45	100	0.642	0.029
0.6771	346.49	10000	0.655	0.029
0.6771	346.5	20000	0.658	0.029
0.6771	346.5	40000	0.669	0.03
0.6771	346.52	30000	0.662	0.03
0.6771	372.67	10000	0.668	0.03
0.6771	372.69	20000	0.674	0.03
0.6771	372.69	30000	0.68	0.03
0.6771	372.69	40000	0.685	0.031
0.6771	398.55	10000	0.677	0.03
0.6771	398.65	40000	0.693	0.031
0.6771	398.67	20000	0.682	0.03
0.6771	398.69	30000	0.688	0.031
0.6771	413.09	20000	0.683	0.03
0.6771	413.12	30000	0.69	0.031
0.6771	413.15	40000	0.695	0.031
0.6771	415.03	10000	0.676	0.03
0.6771	445.74	10000	0.672	0.03
0.6771	445.75	30000	0.686	0.031
0.6771	445.78	20000	0.678	0.03
0.6771	445.85	40000	0.692	0.031
0.6771	470.32	40000	0.682	0.03
0.6771	470.35	10000	0.66	0.029
0.6771	470.35	30000	0.675	0.03
0.6771	470.39	20000	0.668	0.03
0.6771	498.12	10000	0.64	0.029
0.6771	498.15	20000	0.648	0.029
0.6771	498.2	30000	0.658	0.029
0.6771	498.25	40000	0.665	0.03
0.6771	525.54	10000	0.61	0.027
0.6771	525.55	40000	0.642	0.029
0.6771	525.59	30000	0.632	0.028
0.6771	525.61	20000	0.622	0.028
0.6771	553.81	10000	0.568	0.025
0.6771	553.82	40000	0.615	0.027
0.6771	553.83	20000	0.585	0.026
0.6771	553.85	30000	0.6	0.027
0.6771	572.62	10000	0.534	0.024
0.6771	598.72	30000	0.544	0.024
0.6771	598.75	40000	0.565	0.025
0.6771	598.78	20000	0.521	0.023
1.5235	296.6	10000	0.586	0.026
1.5235	296.62	20000	0.592	0.026
1.5235	296.65	30000	0.598	0.027
1.5235	296.67	100	0.578	0.026
1.5235	296.68	40000	0.601	0.027
1.5235	320.1	10000	0.616	0.027
1.5235	320.15	20000	0.62	0.028
1.5235	320.17	30000	0.626	0.028
1.5235	320.2	40000	0.632	0.028
1.5235	320.72	100	0.61	0.027
1.5235	347.72	100	0.634	0.028
1.5235	347.72	20000	0.646	0.029
1.5235	347.75	10000	0.641	0.029
1.5235	347.75	30000	0.65	0.029
1.5235	347.79	40000	0.655	0.029
1.5235	371.3	10000	0.656	0.029
1.5235	371.32	20000	0.659	0.029
1.5235	371.35	30000	0.665	0.03
1.5235	371.4	40000	0.668	0.03
1.5235	396.98	10000	0.663	0.03
1.5235	397.39	20000	0.667	0.03
1.5235	397.48	30000	0.673	0.03
1.5235	397.51	40000	0.677	0.03
1.5235	417.21	10000	0.664	0.03
1.5235	417.22	20000	0.668	0.03
1.5235	417.22	30000	0.675	0.03
1.5235	417.28	40000	0.679	0.03
1.5235	448.24	10000	0.658	0.029
1.5235	448.28	20000	0.664	0.03
1.5235	448.31	30000	0.671	0.03
1.5235	448.35	40000	0.674	0.03
1.5235	468.83	10000	0.645	0.029
1.5235	468.94	20000	0.655	0.029
1.5235	468.97	30000	0.663	0.03
1.5235	468.99	40000	0.668	0.03
1.5235	498.82	10000	0.628	0.028
1.5235	498.87	20000	0.636	0.028
1.5235	498.91	30000	0.645	0.029
1.5235	498.95	40000	0.652	0.029
1.5235	526.79	10000	0.584	0.026
1.5235	526.84	20000	0.595	0.027
1.5235	526.87	30000	0.608	0.027
1.5235	526.89	40000	0.62	0.028
1.5235	552.27	10000	0.557	0.025
1.5235	552.31	20000	0.576	0.026
1.5235	552.34	30000	0.587	0.026
1.5235	552.36	40000	0.6	0.027
1.5235	572.78	10000	0.522	0.023
1.5235	590.43	20000	0.511	0.023
1.5235	590.45	30000	0.532	0.024
1.5235	590.48	40000	0.554	0.025
2.598	294.61	40000	0.588	0.026
2.598	294.65	10000	0.576	0.026
2.598	294.66	30000	0.584	0.026
2.598	294.68	100	0.569	0.025
2.598	294.7	20000	0.584	0.026
2.598	321.47	100	0.601	0.027
2.598	321.49	10000	0.608	0.027
2.598	321.5	20000	0.612	0.027
2.598	321.5	40000	0.62	0.028
2.598	321.55	30000	0.616	0.027
2.598	345.6	10000	0.628	0.028
2.598	345.61	100	0.621	0.028
2.598	345.62	20000	0.632	0.028
2.598	345.65	30000	0.636	0.028
2.598	345.68	40000	0.64	0.029
2.598	373.27	10000	0.644	0.029
2.598	373.3	20000	0.648	0.029
2.598	373.35	30000	0.652	0.029
2.598	373.38	40000	0.656	0.029
2.598	396.35	10000	0.651	0.029
2.598	396.37	20000	0.655	0.029
2.598	396.38	40000	0.662	0.03
2.598	396.41	30000	0.66	0.029
2.598	417.54	10000	0.653	0.029
2.598	417.55	20000	0.658	0.029
2.598	417.6	30000	0.661	0.029
2.598	417.65	40000	0.667	0.03
2.598	445.35	10000	0.646	0.029
2.598	445.36	20000	0.65	0.029
2.598	445.4	30000	0.658	0.029
2.598	445.43	40000	0.663	0.03
2.598	449.45	20000	0.622	0.028
2.598	469.12	10000	0.636	0.028
2.598	469.15	20000	0.64	0.029
2.598	469.19	40000	0.656	0.029
2.598	469.2	30000	0.648	0.029
2.598	499.38	40000	0.639	0.029
2.598	499.4	30000	0.631	0.028
2.598	499.47	10000	0.614	0.027
2.598	524.01	30000	0.609	0.027
2.598	524.05	10000	0.587	0.026
2.598	524.08	20000	0.599	0.027
2.598	524.09	40000	0.619	0.028
2.598	552.72	30000	0.576	0.026
2.598	552.73	10000	0.545	0.024
2.598	552.76	20000	0.56	0.025
2.598	552.76	40000	0.584	0.026
2.598	572.45	10000	0.508	0.023
2.598	589.7	30000	0.498	0.022
2.598	589.72	40000	0.541	0.024
2.598	589.75	20000	0.498	0.022
4.063	298.12	100	0.566	0.025
4.063	298.15	10000	0.57	0.025
4.063	298.17	20000	0.574	0.026
4.063	298.21	30000	0.578	0.026
4.063	298.25	40000	0.582	0.026
4.063	322.29	100	0.593	0.026
4.063	322.29	10000	0.598	0.027
4.063	322.32	20000	0.6	0.027
4.063	322.36	30000	0.604	0.027
4.063	322.45	40000	0.608	0.027
4.063	348.5	30000	0.626	0.028
4.063	348.54	40000	0.628	0.028
4.063	348.72	100	0.613	0.027
4.063	348.74	10000	0.62	0.028
4.063	348.78	20000	0.621	0.028
4.063	375.3	10000	0.632	0.028
4.063	375.33	20000	0.635	0.028
4.063	375.38	30000	0.64	0.029
4.063	375.45	40000	0.642	0.029
4.063	399.09	10000	0.638	0.028
4.063	399.11	20000	0.641	0.029
4.063	399.31	30000	0.647	0.029
4.063	399.34	40000	0.649	0.029
4.063	418.37	10000	0.637	0.028
4.063	418.39	20000	0.642	0.029
4.063	418.45	30000	0.648	0.029
4.063	418.51	40000	0.651	0.029
4.063	450.25	10000	0.631	0.028
4.063	450.31	30000	0.644	0.029
4.063	450.36	40000	0.648	0.029
4.063	450.38	20000	0.637	0.028
4.063	469.97	10000	0.622	0.028
4.063	470.03	20000	0.63	0.028
4.063	470.04	40000	0.642	0.029
4.063	470.11	30000	0.637	0.028
4.063	499.25	10000	0.602	0.027
4.063	499.37	20000	0.61	0.027
4.063	499.42	30000	0.619	0.028
4.063	499.75	40000	0.626	0.028
4.063	528.34	10000	0.571	0.025
4.063	528.41	20000	0.582	0.026
4.063	528.45	30000	0.594	0.027
4.063	528.57	40000	0.601	0.027
4.063	554.38	30000	0.562	0.025
4.063	554.41	40000	0.574	0.026
4.063	554.45	10000	0.532	0.024
4.063	554.49	20000	0.547	0.024
4.063	572.38	10000	0.497	0.022
4.063	589.12	20000	0.488	0.022
4.063	589.35	40000	0.53	0.024
4.063	589.4	30000	0.51	0.023

System: water + barium dinitrate; phases: Liquid
Property: Thermal conductivity, W/m/K (Liquid); method: Coaxial cylinder method
Molality, mol/kg of barium dinitrate	Temperature, K	Pressure, kPa	Thermal conductivity, W/m/K	uncertainty
0.0781	294.78	100	0.6	0.027
0.0781	296.93	30000	0.626	0.028
0.0781	296.95	10000	0.612	0.027
0.0781	297.34	40000	0.633	0.028
0.0781	298.12	20000	0.619	0.028
0.0781	311.12	100	0.627	0.028
0.0781	317.23	10000	0.635	0.028
0.0781	317.54	20000	0.642	0.029
0.0781	317.76	40000	0.654	0.029
0.0781	318.01	30000	0.648	0.029
0.0781	334.78	100	0.649	0.029
0.0781	335.98	20000	0.66	0.029
0.0781	336.12	30000	0.665	0.03
0.0781	336.34	10000	0.654	0.029
0.0781	336.74	40000	0.671	0.03
0.0781	350.46	100	0.664	0.03
0.0781	351.09	10000	0.665	0.03
0.0781	351.79	20000	0.671	0.03
0.0781	352.07	40000	0.682	0.03
0.0781	352.22	30000	0.677	0.03
0.0781	378.23	20000	0.687	0.031
0.0781	378.43	40000	0.697	0.031
0.0781	378.56	10000	0.681	0.03
0.0781	378.97	30000	0.691	0.031
0.0781	397.14	20000	0.693	0.031
0.0781	397.23	40000	0.704	0.031
0.0781	397.53	10000	0.687	0.031
0.0781	397.93	30000	0.698	0.031
0.0781	412.27	10000	0.689	0.031
0.0781	412.88	20000	0.695	0.031
0.0781	412.99	30000	0.701	0.031
0.0781	413.15	40000	0.706	0.031
0.0781	436.03	20000	0.693	0.031
0.0781	436.67	10000	0.686	0.031
0.0781	436.81	30000	0.7	0.031
0.0781	436.99	40000	0.706	0.031
0.0781	457.12	40000	0.702	0.031
0.0781	457.32	20000	0.687	0.031
0.0781	457.78	30000	0.694	0.031
0.0781	457.86	10000	0.679	0.03
0.0781	476.11	30000	0.685	0.031
0.0781	476.56	40000	0.694	0.031
0.0781	476.94	20000	0.676	0.03
0.0781	477.32	10000	0.667	0.03
0.0781	491.16	10000	0.656	0.029
0.0781	491.77	20000	0.666	0.03
0.0781	492.15	30000	0.676	0.03
0.0781	492.33	40000	0.686	0.031
0.0781	520.22	40000	0.664	0.03
0.0781	520.49	10000	0.627	0.028
0.0781	520.67	30000	0.652	0.029
0.0781	521.1	20000	0.639	0.029
0.0781	526.45	10000	0.607	0.027
0.0781	536.76	20000	0.621	0.028
0.0781	536.77	30000	0.634	0.028
0.0781	537.11	40000	0.648	0.029
0.0781	552.08	10000	0.584	0.026
0.0781	552.65	20000	0.599	0.027
0.0781	553.04	30000	0.615	0.027
0.0781	553.89	40000	0.63	0.028
0.0781	567.08	10000	0.554	0.025
0.0781	587.32	40000	0.583	0.026
0.0781	587.62	30000	0.56	0.025
0.0781	588.27	20000	0.548	0.024
0.1594	295.73	100	0.599	0.027
0.1594	296.43	30000	0.624	0.028
0.1594	296.78	40000	0.63	0.028
0.1594	296.97	10000	0.611	0.027
0.1594	297.14	20000	0.617	0.028
0.1594	317.55	40000	0.652	0.029
0.1594	317.66	30000	0.646	0.029
0.1594	317.9	10000	0.634	0.028
0.1594	318.21	20000	0.64	0.029
0.1594	318.3	100	0.629	0.028
0.1594	336.1	30000	0.664	0.03
0.1594	336.34	40000	0.669	0.03
0.1594	336.45	10000	0.653	0.029
0.1594	336.67	20000	0.658	0.029
0.1594	337.18	100	0.653	0.029
0.1594	352.55	20000	0.67	0.03
0.1594	352.69	30000	0.675	0.03
0.1594	352.75	40000	0.684	0.03
0.1594	352.78	10000	0.665	0.03
0.1594	358.48	100	0.668	0.03
0.1594	377.73	10000	0.679	0.03
0.1594	378.23	30000	0.692	0.031
0.1594	378.39	40000	0.696	0.031
0.1594	378.42	20000	0.685	0.031
0.1594	397.11	40000	0.703	0.031
0.1594	397.58	30000	0.697	0.031
0.1594	397.9	10000	0.686	0.031
0.1594	398.32	20000	0.691	0.031
0.1594	412.8	10000	0.687	0.031
0.1594	412.93	20000	0.693	0.031
0.1594	413.02	40000	0.705	0.031
0.1594	413.17	30000	0.699	0.031
0.1594	437.02	10000	0.685	0.031
0.1594	437.04	30000	0.698	0.031
0.1594	437.11	20000	0.692	0.031
0.1594	437.22	40000	0.705	0.031
0.1594	457.66	40000	0.701	0.031
0.1594	457.67	10000	0.677	0.03
0.1594	457.91	30000	0.693	0.031
0.1594	458.21	20000	0.685	0.031
0.1594	476.05	10000	0.665	0.03
0.1594	476.98	20000	0.675	0.03
0.1594	477.11	30000	0.684	0.03
0.1594	477.56	40000	0.693	0.031
0.1594	492.07	30000	0.675	0.03
0.1594	493.21	10000	0.655	0.029
0.1594	493.45	20000	0.665	0.03
0.1594	520.92	40000	0.663	0.03
0.1594	520.93	20000	0.638	0.028
0.1594	521.18	30000	0.65	0.029
0.1594	521.23	10000	0.625	0.028
0.1594	536.31	40000	0.647	0.029
0.1594	536.78	10000	0.582	0.026
0.1594	536.81	30000	0.633	0.028
0.1594	537.11	20000	0.619	0.028
0.1594	552.83	40000	0.629	0.028
0.1594	553.31	30000	0.614	0.027
0.1594	553.85	20000	0.598	0.027
0.1594	567.23	10000	0.553	0.025
0.1594	587.54	40000	0.58	0.026
0.1594	588.03	30000	0.561	0.025
0.1594	589.24	20000	0.537	0.024
0.2442	297.14	10000	0.61	0.027
0.2442	297.81	20000	0.616	0.027
0.2442	298.07	40000	0.628	0.028
0.2442	298.1	30000	0.622	0.028
0.2442	298.16	100	0.601	0.027
0.2442	315.58	100	0.625	0.028
0.2442	317.67	10000	0.633	0.028
0.2442	317.97	30000	0.644	0.029
0.2442	318.01	40000	0.65	0.029
0.2442	318.05	20000	0.639	0.029
0.2442	332.71	100	0.646	0.029
0.2442	336.48	10000	0.651	0.029
0.2442	336.55	20000	0.657	0.029
0.2442	336.71	30000	0.662	0.03
0.2442	336.85	40000	0.667	0.03
0.2442	351.67	10000	0.663	0.03
0.2442	351.87	20000	0.669	0.03
0.2442	351.98	40000	0.679	0.03
0.2442	352.08	30000	0.674	0.03
0.2442	361.12	100	0.668	0.03
0.2442	378.14	10000	0.678	0.03
0.2442	378.57	20000	0.684	0.03
0.2442	378.88	30000	0.689	0.031
0.2442	378.9	40000	0.695	0.031
0.2442	397.27	10000	0.684	0.03
0.2442	397.73	20000	0.69	0.031
0.2442	397.77	40000	0.701	0.031
0.2442	397.85	30000	0.692	0.031
0.2442	412.31	10000	0.686	0.031
0.2442	412.84	20000	0.692	0.031
0.2442	412.91	40000	0.704	0.031
0.2442	413.02	30000	0.698	0.031
0.2442	436.92	10000	0.683	0.03
0.2442	436.98	30000	0.697	0.031
0.2442	437.02	20000	0.69	0.031
0.2442	457.34	20000	0.684	0.03
0.2442	457.64	10000	0.676	0.03
0.2442	457.8	40000	0.7	0.031
0.2442	457.92	30000	0.692	0.031
0.2442	477.21	20000	0.673	0.03
0.2442	477.35	30000	0.683	0.03
0.2442	477.57	40000	0.692	0.031
0.2442	477.89	10000	0.664	0.03
0.2442	491.86	10000	0.653	0.029
0.2442	491.92	40000	0.685	0.031
0.2442	492.07	30000	0.674	0.03
0.2442	492.33	20000	0.664	0.03
0.2442	520.36	10000	0.624	0.028
0.2442	520.99	20000	0.637	0.028
0.2442	521.08	30000	0.649	0.029
0.2442	521.12	40000	0.662	0.03
0.2442	536.28	10000	0.604	0.027
0.2442	536.64	20000	0.618	0.028
0.2442	536.89	30000	0.632	0.028
0.2442	537.06	40000	0.646	0.029
0.2442	552.45	10000	0.581	0.026
0.2442	552.67	20000	0.596	0.027
0.2442	552.78	30000	0.612	0.027
0.2442	552.84	40000	0.628	0.028
0.2442	567.01	10000	0.551	0.025
0.2442	587.14	20000	0.536	0.024
0.2442	587.63	30000	0.563	0.025
0.2442	587.84	40000	0.6	0.027
0.3327	297.93	10000	0.609	0.027
0.3327	297.99	30000	0.62	0.028
0.3327	298.08	20000	0.614	0.027
0.3327	298.12	40000	0.625	0.028
0.3327	301.12	100	0.599	0.027
0.3327	317.01	100	0.626	0.028
0.3327	317.53	40000	0.647	0.029
0.3327	317.78	30000	0.642	0.029
0.3327	317.89	20000	0.637	0.028
0.3327	317.9	10000	0.632	0.028
0.3327	335.67	100	0.645	0.029
0.3327	336.4	40000	0.666	0.03
0.3327	336.7	30000	0.66	0.029
0.3327	336.84	20000	0.655	0.029
0.3327	336.96	10000	0.65	0.029
0.3327	351.49	30000	0.672	0.03
0.3327	351.54	20000	0.667	0.03
0.3327	351.75	10000	0.662	0.03
0.3327	351.98	40000	0.677	0.03
0.3327	359.43	100	0.662	0.03
0.3327	378.55	20000	0.682	0.03
0.3327	378.6	30000	0.688	0.031
0.3327	378.9	10000	0.677	0.03
0.3327	379.82	40000	0.693	0.031
0.3327	397.47	40000	0.7	0.031
0.3327	397.58	30000	0.694	0.031
0.3327	397.6	20000	0.688	0.031
0.3327	397.67	10000	0.683	0.03
0.3327	412.5	40000	0.703	0.031
0.3327	412.68	30000	0.697	0.031
0.3327	412.73	20000	0.691	0.031
0.3327	412.87	10000	0.684	0.03
0.3327	436.43	40000	0.704	0.031
0.3327	436.55	30000	0.696	0.031
0.3327	436.58	10000	0.681	0.03
0.3327	436.68	20000	0.689	0.031
0.3327	457.39	10000	0.674	0.03
0.3327	457.55	20000	0.683	0.03
0.3327	457.61	30000	0.691	0.031
0.3327	457.88	40000	0.699	0.031
0.3327	477.71	10000	0.663	0.03
0.3327	477.72	30000	0.682	0.03
0.3327	477.88	20000	0.672	0.03
0.3327	477.93	40000	0.691	0.031
0.3327	491.64	20000	0.662	0.03
0.3327	491.77	10000	0.652	0.029
0.3327	491.78	30000	0.672	0.03
0.3327	491.94	40000	0.683	0.03
0.3327	520.86	40000	0.661	0.029
0.3327	521.03	10000	0.622	0.028
0.3327	521.07	30000	0.648	0.029
0.3327	521.11	20000	0.635	0.028
0.3327	536.55	40000	0.645	0.029
0.3327	536.89	30000	0.631	0.028
0.3327	536.94	10000	0.603	0.027
0.3327	537.02	20000	0.616	0.027
0.3327	552.4	40000	0.627	0.028
0.3327	552.58	30000	0.611	0.027
0.3327	552.7	20000	0.595	0.027
0.3327	552.89	10000	0.579	0.026
0.3327	567.3	10000	0.55	0.025
0.3327	587.2	40000	0.58	0.026
0.3327	587.34	30000	0.567	0.025
0.3327	587.44	20000	0.547	0.024
