Measured thermophysical data. Isobaric Vapor-Liquid Equilibria at 97.3 kPa and Excess Properties at (303.15, 308.15, and 313.15) K of Binary Mixture of p-Xylene + Decane
Source: J. Chem. Eng. Data, 2005, 10.1021/je0501585
Compound 1: 1,4-dimethylbenzene, C8H10, InChI=1S/C8H10/c1-7-3-5-8(2)6-4-7/h3-6H,1-2H3
Compound 2: decane, C10H22, InChI=1S/C10H22/c1-3-5-7-9-10-8-6-4-2/h3-10H2,1-2H3

System: 1,4-dimethylbenzene; phases: Liquid, Gas
Property: Vapor or sublimation pressure, kPa (Liquid); method: EBULLIO:UFactor:32
Temperature, K	Vapor or sublimation pressure, kPa	uncertainty
410	97.3	4.9

System: 1,4-dimethylbenzene; phases: Liquid
Fixed: Pressure, kPa = 101.325
Property: Mass density, kg/m3 (Liquid); method: Pycnometric method
Temperature, K	Mass density, kg/m3	uncertainty
303.15	852.3	2.3
308.15	847.9	2.3
313.15	843.6	2.2

System: 1,4-dimethylbenzene; phases: Liquid
Fixed: Pressure, kPa = 101
Property: Viscosity, Pa*s (Liquid); method: Capillary tube (Ostwald; Ubbelohde) method
Temperature, K	Viscosity, Pa*s	uncertainty
303.15	0.000566	1.6e-05
308.15	0.000537	1.5e-05
313.15	0.000513	1.5e-05

System: 1,4-dimethylbenzene; phases: Liquid
Fixed: Pressure, kPa = 101
Property: Speed of sound, m/s (Liquid); method: Linear variable-path acoustic interferometer
Temperature, K	Speed of sound, m/s	uncertainty
303.15	1283.7	5.2
308.15	1271	5.2
313.15	1260	5.2

System: decane; phases: Liquid, Gas
Property: Vapor or sublimation pressure, kPa (Liquid); method: EBULLIO:UFactor:32
Temperature, K	Vapor or sublimation pressure, kPa	uncertainty
445.7	97.3	4.9

System: decane; phases: Liquid
Fixed: Pressure, kPa = 101.325
Property: Mass density, kg/m3 (Liquid); method: Pycnometric method
Temperature, K	Mass density, kg/m3	uncertainty
303.15	722.3	1.9
308.15	718.2	1.9
313.15	714.7	1.9

System: decane; phases: Liquid
Fixed: Pressure, kPa = 101
Property: Viscosity, Pa*s (Liquid); method: Capillary tube (Ostwald; Ubbelohde) method
Temperature, K	Viscosity, Pa*s	uncertainty
303.15	0.000786	2.1e-05
308.15	0.000717	1.9e-05
313.15	0.000694	1.9e-05

System: decane; phases: Liquid
Fixed: Pressure, kPa = 101
Property: Speed of sound, m/s (Liquid); method: Linear variable-path acoustic interferometer
Temperature, K	Speed of sound, m/s	uncertainty
303.15	1210	5.2
308.15	1189	5.2
313.15	1175.3	5.2

System: 1,4-dimethylbenzene + decane; phases: Liquid, Gas
Fixed: Pressure, kPa = 97.3
Property: Boiling temperature at pressure P, K (Liquid); method: EBULLIO:UFactor:32
Mole fraction of 1,4-dimethylbenzene	Boiling temperature at pressure P, K	uncertainty
0	445.7	1
0.0338	439.6	1
0.045	438.4	1
0.085	435.8	1
0.1363	434.2	1
0.15	433.7	1
0.2	431.8	1
0.25	430.6	1
0.35	427.8	1
0.4031	425.9	1
0.4945	423.2	1
0.5866	421.2	1
0.639	420	1
0.7579	416.6	1
0.8221	414.9	1
0.923	411.6	1
0.9531	410.9	1
0.974	410.2	1
0.99	410.1	1
1	410	1

System: 1,4-dimethylbenzene + decane; phases: Gas, Liquid
Fixed: Pressure, kPa = 97.3
Property: Mole fraction of 1,4-dimethylbenzene (Gas); method: Index of refraction calibration data
Mole fraction of 1,4-dimethylbenzene	Mole fraction of 1,4-dimethylbenzene	uncertainty
0	0	0.0001
0.0338	0.1812	0.0105
0.045	0.218	0.0106
0.085	0.2972	0.0118
0.1363	0.356	0.0134
0.15	0.3738	0.0141
0.2	0.4281	0.0164
0.25	0.4706	0.0186
0.35	0.5592	0.0201
0.4031	0.6097	0.0196
0.4945	0.6841	0.0183
0.5866	0.7474	0.0167
0.639	0.7804	0.0157
0.7579	0.8626	0.0131
0.8221	0.8986	0.0119
0.923	0.9616	0.0103
0.9531	0.9771	0.0101
0.974	0.9874	0.01
0.99	0.991	0.009
1	1	0.0001

System: 1,4-dimethylbenzene + decane; phases: Liquid
Fixed: Pressure, kPa = 101
Property: Viscosity, Pa*s (Liquid); method: Capillary tube (Ostwald; Ubbelohde) method
Temperature, K	Mole fraction of 1,4-dimethylbenzene	Viscosity, Pa*s	uncertainty
303.15	0	0.000786	2.1e-05
303.15	0.1533	0.000729	2e-05
303.15	0.2952	0.00068	1.9e-05
303.15	0.4189	0.000646	1.8e-05
303.15	0.4949	0.000628	1.7e-05
303.15	0.6001	0.000605	1.7e-05
303.15	0.6938	0.000588	1.6e-05
303.15	0.7777	0.000576	1.6e-05
303.15	0.8604	0.000568	1.6e-05
303.15	0.9332	0.000566	1.6e-05
303.15	1	0.000566	1.6e-05
308.15	0	0.000717	1.9e-05
308.15	0.1533	0.000678	1.8e-05
308.15	0.2952	0.000639	1.8e-05
308.15	0.4189	0.000609	1.7e-05
308.15	0.4949	0.000592	1.6e-05
308.15	0.6001	0.000572	1.6e-05
308.15	0.6938	0.000557	1.6e-05
308.15	0.7777	0.000546	1.5e-05
308.15	0.8604	0.000539	1.5e-05
308.15	0.9332	0.000537	1.5e-05
308.15	1	0.000537	1.5e-05
313.15	0	0.000694	1.9e-05
313.15	0.1533	0.00066	1.8e-05
313.15	0.2952	0.000623	1.7e-05
313.15	0.4189	0.00059	1.6e-05
313.15	0.4949	0.000573	1.6e-05
313.15	0.6001	0.000552	1.5e-05
313.15	0.6938	0.000538	1.5e-05
313.15	0.7777	0.000527	1.5e-05
313.15	0.8604	0.000519	1.5e-05
313.15	0.9332	0.000515	1.5e-05
313.15	1	0.000513	1.5e-05

System: 1,4-dimethylbenzene + decane; phases: Liquid
Fixed: Pressure, kPa = 101
Property: Speed of sound, m/s (Liquid); method: Linear variable-path acoustic interferometer
Temperature, K	Mole fraction of 1,4-dimethylbenzene	Speed of sound, m/s	uncertainty
303.15	0	1210	5.2
303.15	0.1533	1215.1	5.3
303.15	0.2952	1220	5.3
303.15	0.4189	1225.5	5.3
303.15	0.4949	1230	5.3
303.15	0.6001	1237.9	5.3
303.15	0.6938	1246.6	5.3
303.15	0.7777	1255.4	5.3
303.15	0.8604	1265.3	5.3
303.15	0.9332	1274.4	5.3
303.15	1	1283.7	5.2
308.15	0	1189	5.2
308.15	0.1533	1192.3	5.2
308.15	0.2952	1197.6	5.2
308.15	0.4189	1203.1	5.2
308.15	0.4949	1207.3	5.2
308.15	0.6001	1214.1	5.2
308.15	0.6938	1221.6	5.2
308.15	0.7777	1229	5.2
308.15	0.8604	1238.4	5.3
308.15	0.9332	1251	5.2
308.15	1	1271	5.2
313.15	0	1175.3	5.2
313.15	0.1533	1176.9	5.2
313.15	0.2952	1182	5.2
313.15	0.4189	1187.7	5.2
313.15	0.4949	1192	5.2
313.15	0.6001	1198.8	5.2
313.15	0.6938	1205.6	5.2
313.15	0.7777	1212.5	5.2
313.15	0.8604	1221.3	5.2
313.15	0.9332	1232.8	5.2
313.15	1	1260	5.2

System: 1,4-dimethylbenzene + decane; phases: Liquid
Fixed: Pressure, kPa = 101
Property: Excess molar volume, m3/mol (Liquid); method: Direct dilatometry
Temperature, K	Mole fraction of 1,4-dimethylbenzene	Excess molar volume, m3/mol	uncertainty
303.15	0	0	6e-09
303.15	0.1533	2.83e-07	1.2e-08
303.15	0.2952	4.35e-07	1.2e-08
303.15	0.4189	5.14e-07	1.2e-08
303.15	0.4949	5.29e-07	1.2e-08
303.15	0.6001	4.9e-07	1.1e-08
303.15	0.6938	4.26e-07	1.1e-08
303.15	0.7777	3.54e-07	1e-08
303.15	0.8604	2.73e-07	1e-08
303.15	0.9332	1.72e-07	9e-09
303.15	1	0	6e-09
308.15	0	0	6e-09
308.15	0.1533	4.89e-07	1.1e-08
308.15	0.2952	6.8e-07	1.2e-08
308.15	0.4189	7.6e-07	1.1e-08
308.15	0.4949	7.59e-07	1.1e-08
308.15	0.6001	7.03e-07	1.1e-08
308.15	0.6938	6.32e-07	1.1e-08
308.15	0.7777	5.56e-07	1.1e-08
308.15	0.8604	4.55e-07	1e-08
308.15	0.9332	3.03e-07	8e-09
308.15	1	0	6e-09
313.15	0	0	6e-09
313.15	0.1533	6.99e-07	7e-09
313.15	0.2952	9.11e-07	1e-08
313.15	0.4189	9.8e-07	1.1e-08
313.15	0.4949	9.81e-07	1.1e-08
313.15	0.6001	9.41e-07	1.1e-08
313.15	0.6938	8.76e-07	1.1e-08
313.15	0.7777	7.71e-07	1.1e-08
313.15	0.8604	6.47e-07	9e-09
313.15	0.9332	4.4e-07	7e-09
313.15	1	0	6e-09
