Measured thermophysical data. Densities and Heat Capacities of the Ammonia + Water + NaOH and Ammonia + Water + KOH Solutions
Source: J. Chem. Eng. Data, 2006, 10.1021/je050512z
Compound 1: water, H2O, InChI=1S/H2O/h1H2, purity 99%
Compound 2: ammonia, H3N, InChI=1S/H3N/h1H3, purity 99.98%
Compound 3: sodium hydroxide, HNaO, InChI=1S/Na.H2O/h;1H2/q+1;/p-1, purity 99.99%
Compound 4: potassium hydroxide, HKO, InChI=1S/K.H2O/h;1H2/q+1;/p-1, purity 99.99%

System: sodium hydroxide + ammonia + water; phases: Liquid
Fixed: Pressure, kPa = 1800
Property: Molar heat capacity at constant pressure, J/K/mol (Liquid); method: LDSC:UFactor:0.5
Temperature, K	Mass fraction of ammonia	Mass fraction of sodium hydroxide	Molar heat capacity at constant pressure, J/K/mol	uncertainty
302.74	0.0867	0.1628	71.4676	0.551
302.74	0.0916	0.1068	73.0431	0.571
302.74	0.1037	0.0393	73.5693	0.567
302.74	0.1891	0.1695	75.2191	0.589
302.74	0.2409	0.0379	74.2852	0.58
302.74	0.3423	0.1555	77.1451	0.598
302.74	0.3582	0.1052	76.7089	0.599
302.74	0.3671	0.0383	75.939	0.594
312.66	0.0867	0.1628	72.3334	0.571
312.66	0.0916	0.1068	73.6902	0.571
312.66	0.1037	0.0393	74.1549	0.567
312.66	0.1891	0.1695	76.0239	0.589
312.66	0.2409	0.0379	75.428	0.58
312.66	0.3423	0.1555	77.8778	0.598
312.66	0.3582	0.1052	77.7192	0.599
312.66	0.3671	0.0383	77.452	0.594
322.57	0.0867	0.1628	73.0615	0.571
322.57	0.0916	0.1068	74.1279	0.571
322.57	0.1037	0.0393	74.5392	0.586
322.57	0.1891	0.1695	76.5147	0.589
322.57	0.2409	0.0379	76.335	0.599
322.57	0.3423	0.1555	78.4756	0.617
322.57	0.3582	0.1052	78.5799	0.617
322.57	0.3671	0.0383	78.5868	0.612
332.47	0.0867	0.1628	73.6911	0.571
332.47	0.0916	0.1068	74.5847	0.571
332.47	0.1037	0.0393	75.0517	0.586
332.47	0.1891	0.1695	76.9465	0.589
332.47	0.2409	0.0379	77.2058	0.599
332.47	0.3423	0.1555	79.0154	0.617
332.47	0.3582	0.1052	79.5902	0.617
332.47	0.3671	0.0383	79.6315	0.612
342.38	0.0867	0.1628	74.3995	0.571
342.38	0.0916	0.1068	74.9843	0.59
342.38	0.1037	0.0393	75.5458	0.586
342.38	0.1891	0.1695	77.4372	0.609
342.38	0.2409	0.0379	78.0947	0.599
342.38	0.3423	0.1555	79.536	0.617
342.38	0.3582	0.1052	80.5631	0.617
342.38	0.3671	0.0383	80.8023	0.63
352.28	0.0867	0.1628	75.0292	0.59
352.28	0.0916	0.1068	75.1746	0.59
352.28	0.1037	0.0393	75.8935	0.586
352.28	0.1891	0.1695	77.712	0.609
352.28	0.2409	0.0379	78.6751	0.617
352.28	0.3582	0.1052	81.7044	0.636
352.28	0.3671	0.0383	81.847	0.63

System: sodium hydroxide + ammonia + water; phases: Liquid
Fixed: Pressure, kPa = 1800
Property: Mass density, kg/m3 (Liquid); method: Vibrating tube method
Temperature, K	Mass fraction of ammonia	Mass fraction of water	Mass density, kg/m3	uncertainty
293.15	0.0843	0.1654	1135.4	0.8
293.15	0.0937	0.0842	1052.1	0.8
293.15	0.0946	0.0376	997.7	0.7
293.15	0.1738	0.1358	1060.4	0.8
293.15	0.2888	0.0397	931.1	0.7
303.15	0.0843	0.1654	1129.1	0.8
303.15	0.0937	0.0842	1046.8	0.8
303.15	0.0946	0.0376	993.1	0.7
303.15	0.1738	0.1358	1053.4	0.8
303.15	0.2888	0.0397	924.1	0.7
313.15	0.0843	0.1654	1122.9	0.8
313.15	0.0937	0.0842	1041.3	0.8
313.15	0.0946	0.0376	988.1	0.7
313.15	0.1738	0.1358	1046.6	0.8
313.15	0.2888	0.0397	916.7	0.7
323.15	0.0843	0.1654	1116.4	0.8
323.15	0.0937	0.0842	1035.4	0.8
323.15	0.0946	0.0376	982.8	0.7
323.15	0.1738	0.1358	1039.4	0.8
323.15	0.2888	0.0397	909.1	0.7
333.15	0.0843	0.1654	1109.5	0.8
333.15	0.0937	0.0842	1028.9	0.8
333.15	0.0946	0.0376	976.7	0.7
333.15	0.1738	0.1358	1031.9	0.8
333.15	0.2888	0.0397	901	1
343.15	0.0843	0.1654	1102.6	0.9
343.15	0.0937	0.0842	1022.4	0.8
343.15	0.0946	0.0376	970.5	0.7
343.15	0.1738	0.1358	1024.3	0.8
343.15	0.2888	0.0397	892.5	0.7
353.15	0.0843	0.1654	1095.3	0.9
353.15	0.0937	0.0842	1015.3	0.8
353.15	0.0946	0.0376	963.5	0.7
353.15	0.1738	0.1358	1016.3	0.8
353.15	0.2888	0.0397	883.6	0.7

System: potassium hydroxide + ammonia + water; phases: Liquid
Fixed: Pressure, kPa = 1800
Property: Molar heat capacity at constant pressure, J/K/mol (Liquid); method: LDSC:UFactor:0.5
Temperature, K	Mass fraction of ammonia	Mass fraction of potassium hydroxide	Molar heat capacity at constant pressure, J/K/mol	uncertainty
302.74	0.0825	0.168	69.7583	0.546
302.74	0.0892	0.1073	71.0709	0.56
302.74	0.0977	0.0389	72.301	0.552
302.74	0.2067	0.166	71.7002	0.561
302.74	0.2203	0.1068	72.35	0.556
302.74	0.2312	0.046	73.7385	0.569
302.74	0.3329	0.1632	74.167	0.575
302.74	0.3532	0.0374	75.4807	0.579
302.74	0.3612	0.1049	74.7801	0.588
312.66	0.0825	0.168	70.5066	0.546
312.66	0.0892	0.1073	71.8825	0.56
312.66	0.0977	0.0389	72.8162	0.57
312.66	0.2067	0.166	72.6218	0.561
312.66	0.2203	0.1068	73.4805	0.575
312.66	0.2312	0.046	74.8941	0.587
312.66	0.3329	0.1632	75.1586	0.575
312.66	0.3532	0.0374	76.8748	0.597
312.66	0.3612	0.1049	76.0511	0.588
322.57	0.0825	0.168	70.992	0.566
322.57	0.0892	0.1073	72.3849	0.56
322.57	0.0977	0.0389	73.2945	0.57
322.57	0.2067	0.166	73.323	0.581
322.57	0.2203	0.1068	74.1319	0.575
322.57	0.2312	0.046	75.7746	0.587
322.57	0.3329	0.1632	75.9121	0.595
322.57	0.3532	0.0374	78.1241	0.597
322.57	0.3612	0.1049	76.9806	0.588
332.47	0.0825	0.168	71.4168	0.566
332.47	0.0892	0.1073	72.8486	0.56
332.47	0.0977	0.0389	73.9384	0.57
332.47	0.2067	0.166	74.0041	0.581
332.47	0.2203	0.1068	74.7067	0.575
332.47	0.2312	0.046	76.6917	0.587
332.47	0.3329	0.1632	76.6459	0.595
332.47	0.3532	0.0374	79.1923	0.616
332.47	0.3612	0.1049	77.8153	0.607
342.38	0.0825	0.168	71.8415	0.566
342.38	0.0892	0.1073	73.3704	0.56
342.38	0.0977	0.0389	74.5823	0.57
342.38	0.2067	0.166	74.7053	0.581
342.38	0.2203	0.1068	75.4157	0.594
342.38	0.2312	0.046	77.6272	0.605
342.38	0.3329	0.1632	77.4589	0.595
342.38	0.3532	0.0374	80.4054	0.616
342.38	0.3612	0.1049	78.8397	0.607
352.28	0.0825	0.168	72.2865	0.566
352.28	0.0892	0.1073	73.8535	0.58
352.28	0.0977	0.0389	75.0606	0.589
352.28	0.2067	0.166	75.3263	0.581
352.28	0.2203	0.1068	76.048	0.594
352.28	0.2312	0.046	78.3426	0.605
352.28	0.3329	0.1632	78.1927	0.615
352.28	0.3532	0.0374	81.4374	0.634
352.28	0.3612	0.1049	79.7313	0.626

System: potassium hydroxide + ammonia + water; phases: Liquid
Fixed: Pressure, kPa = 1800
Property: Mass density, kg/m3 (Liquid); method: Vibrating tube method
Temperature, K	Mass fraction of ammonia	Mass fraction of potassium hydroxide	Mass density, kg/m3	uncertainty
293.15	0.0837	0.1575	1103.5	0.9
293.15	0.0942	0.075	1025.5	0.8
293.15	0.1948	0.0369	954.8	0.8
293.15	0.3278	0.1697	995.9	0.8
293.15	0.3535	0.045	909.9	0.7
303.15	0.0837	0.1575	1098	1
303.15	0.0942	0.075	1020.7	0.8
303.15	0.1948	0.0369	949.1	0.8
303.15	0.3278	0.1697	987	0.8
303.15	0.3535	0.045	901.9	0.8
313.15	0.0837	0.1575	1092.4	0.9
313.15	0.0942	0.075	1015.6	0.9
313.15	0.1948	0.0369	943.1	0.8
313.15	0.3278	0.1697	978.1	0.8
313.15	0.3535	0.045	893.8	0.8
323.15	0.0837	0.1575	1086.5	0.9
323.15	0.0942	0.075	1010.1	0.9
323.15	0.1948	0.0369	936.7	0.8
323.15	0.3278	0.1697	969	0.8
323.15	0.3535	0.045	885.3	0.8
333.15	0.0837	0.1575	1080.1	0.9
333.15	0.0942	0.075	1003.9	0.9
333.15	0.1948	0.0369	929.7	0.8
333.15	0.3278	0.1697	959.3	0.8
333.15	0.3535	0.045	876.3	0.8
343.15	0.0837	0.1575	1073.6	0.9
343.15	0.0942	0.075	997.5	0.9
343.15	0.1948	0.0369	922.5	0.8
343.15	0.3278	0.1697	949.5	0.9
343.15	0.3535	0.045	867.1	0.8
353.15	0.0837	0.1575	1066.6	0.9
353.15	0.0942	0.075	990.5	0.9
353.15	0.1948	0.0369	914.7	0.8
353.15	0.3278	0.1697	939.4	0.9
353.15	0.3535	0.045	857.2	0.8
