Measured thermophysical data. Excess Molar Volumes and Viscosity Deviations for the Ternary System N,N-Dimethylformamide + N-Methylformamide + Water and the Binary Subsystems at 298.15 K
Source: J. Chem. Eng. Data, 2005, 10.1021/je050209y
Compound 1: dimethylformamide, C3H7NO, InChI=1S/C3H7NO/c1-4(2)3-5/h3H,1-2H3
Compound 2: N-methylformamide, C2H5NO, InChI=1S/C2H5NO/c1-3-2-4/h2H,1H3,(H,3,4)
Compound 3: water, H2O, InChI=1S/H2O/h1H2

System: dimethylformamide; phases: Liquid
Property: Mass density, kg/m3 (Liquid); method: VIBTUB:UFactor:16
Temperature, K	Pressure, kPa	Mass density, kg/m3	uncertainty
298.15	101.325	944.2	1.1

System: dimethylformamide; phases: Liquid
Property: Viscosity, Pa*s (Liquid); method: CAPTUB:UFactor:2
Temperature, K	Pressure, kPa	Viscosity, Pa*s	uncertainty
298.15	101.325	0.000799	1.3e-05

System: N-methylformamide; phases: Liquid
Property: Mass density, kg/m3 (Liquid); method: VIBTUB:UFactor:16
Temperature, K	Pressure, kPa	Mass density, kg/m3	uncertainty
298.15	101.325	998.8	0.7

System: N-methylformamide; phases: Liquid
Property: Viscosity, Pa*s (Liquid); method: CAPTUB:UFactor:2
Temperature, K	Pressure, kPa	Viscosity, Pa*s	uncertainty
298.15	101.325	0.001681	2.6e-05

System: dimethylformamide + N-methylformamide; phases: Liquid
Fixed: Temperature, K = 298.15
Fixed: Pressure, kPa = 101.325
Property: Viscosity, Pa*s (Liquid); method: CAPTUB:UFactor:2
Mole fraction of dimethylformamide	Viscosity, Pa*s	uncertainty
0.0497	0.001618	2.5e-05
0.0997	0.001524	2.4e-05
0.2002	0.001373	2.2e-05
0.2999	0.001274	2e-05
0.4001	0.001171	1.9e-05
0.4999	0.001085	1.7e-05
0.5999	0.001006	1.6e-05
0.699	0.000947	1.5e-05
0.8001	0.000897	1.5e-05
0.9001	0.000855	1.4e-05
0.95	0.00084	1.4e-05

System: dimethylformamide + N-methylformamide; phases: Liquid
Fixed: Temperature, K = 298.15
Fixed: Pressure, kPa = 101.325
Property: Mass density, kg/m3 (Liquid); method: VIBTUB:UFactor:16
Mole fraction of dimethylformamide	Mass density, kg/m3	uncertainty
0.0497	995.4	0.7
0.0997	991.9	0.7
0.2002	985.5	0.8
0.2999	979.4	0.8
0.4001	973.6	0.9
0.4999	968.1	0.9
0.5999	963	0.9
0.699	958	1
0.8001	953.2	1
0.9001	948.6	1.1
0.95	946.4	1.1

System: N-methylformamide + water; phases: Liquid
Fixed: Temperature, K = 298.15
Fixed: Pressure, kPa = 101.325
Property: Viscosity, Pa*s (Liquid); method: CAPTUB:UFactor:2
Mole fraction of N-methylformamide	Viscosity, Pa*s	uncertainty
0.0504	0.001174	1.9e-05
0.1001	0.001422	2.2e-05
0.2	0.001793	2.8e-05
0.2998	0.002001	3.1e-05
0.4002	0.002067	3.2e-05
0.4996	0.00204	3.1e-05
0.5996	0.001961	3e-05
0.6994	0.001878	2.9e-05
0.7999	0.001794	2.8e-05
0.8983	0.001734	2.7e-05
0.9498	0.001707	2.7e-05

System: N-methylformamide + water; phases: Liquid
Fixed: Temperature, K = 298.15
Fixed: Pressure, kPa = 101.325
Property: Mass density, kg/m3 (Liquid); method: VIBTUB:UFactor:16
Mole fraction of N-methylformamide	Mass density, kg/m3	uncertainty
0.0504	1003.2	0.7
0.1001	1008.9	0.7
0.2	1014.6	0.8
0.2998	1016.3	0.8
0.4002	1015.1	0.8
0.4996	1012.2	0.7
0.5996	1009.4	0.7
0.6994	1006.1	0.7
0.7999	1003.7	0.7
0.8983	1000.9	0.7
0.9498	999.7	0.7

System: dimethylformamide + water; phases: Liquid
Fixed: Temperature, K = 298.15
Fixed: Pressure, kPa = 101.325
Property: Viscosity, Pa*s (Liquid); method: CAPTUB:UFactor:2
Mole fraction of dimethylformamide	Viscosity, Pa*s	uncertainty
0.05	0.00131	2.1e-05
0.1001	0.001728	2.7e-05
0.2	0.002346	3.6e-05
0.299	0.002491	3.8e-05
0.3998	0.002273	3.5e-05
0.4997	0.001878	2.9e-05
0.5993	0.001532	2.4e-05
0.6995	0.001243	2e-05
0.8	0.001045	1.7e-05
0.8991	0.000901	1.5e-05
0.9488	0.000843	1.4e-05

System: dimethylformamide + water; phases: Liquid
Fixed: Temperature, K = 298.15
Fixed: Pressure, kPa = 101.325
Property: Mass density, kg/m3 (Liquid); method: VIBTUB:UFactor:16
Mole fraction of dimethylformamide	Mass density, kg/m3	uncertainty
0.05	996	0.7
0.1001	996.8	0.7
0.2	995.1	0.7
0.299	991.6	0.7
0.3998	984.4	0.8
0.4997	975.9	0.8
0.5993	968.4	0.9
0.6995	960.7	1
0.8	954.9	1
0.8991	949.1	1.1
0.9488	946.9	1.1

System: dimethylformamide + N-methylformamide + water; phases: Liquid
Fixed: Temperature, K = 298.15
Fixed: Pressure, kPa = 101.325
Property: Viscosity, Pa*s (Liquid); method: CAPTUB:UFactor:2
Mole fraction of dimethylformamide	Mole fraction of N-methylformamide	Viscosity, Pa*s	uncertainty
0.0201	0.1801	0.001946	3e-05
0.0201	0.799	0.001783	2.8e-05
0.0299	0.2696	0.002151	3.3e-05
0.03	0.0701	0.001591	2.5e-05
0.03	0.6978	0.001858	2.9e-05
0.0304	0.9006	0.001705	2.7e-05
0.04	0.596	0.00194	3e-05
0.0402	0.3599	0.00219	3.4e-05
0.05	0.4503	0.002129	3.3e-05
0.06	0.54	0.001995	3.1e-05
0.0699	0.0301	0.001727	2.7e-05
0.0699	0.8996	0.001624	2.5e-05
0.0901	0.2097	0.002263	3.5e-05
0.0901	0.6993	0.001726	2.7e-05
0.0998	0.801	0.001613	2.5e-05
0.1	0.1	0.002163	3.3e-05
0.1198	0.28	0.002238	3.4e-05
0.1201	0.5997	0.001759	2.7e-05
0.1498	0.3499	0.002116	3.3e-05
0.1499	0.1497	0.002355	3.6e-05
0.15	0.5005	0.001815	2.8e-05
0.1501	0.7014	0.001579	2.5e-05
0.1795	0.4214	0.001906	2.9e-05
0.1797	0.0201	0.00243	3.7e-05
0.1798	0.7998	0.001458	2.3e-05
0.1996	0.5988	0.001572	2.5e-05
0.1997	0.1995	0.002293	3.5e-05
0.21	0.0901	0.002468	3.8e-05
0.2102	0.6996	0.001467	2.3e-05
0.2499	0.25	0.002075	3.2e-05
0.25	0.4992	0.001583	2.5e-05
0.2682	0.03	0.002587	4e-05
0.2698	0.7	0.001346	2.1e-05
0.2796	0.599	0.001413	2.2e-05
0.2798	0.12	0.002333	3.6e-05
0.2996	0.2992	0.001843	2.9e-05
0.2996	0.3995	0.001615	2.5e-05
0.341	0.1461	0.002085	3.2e-05
0.3492	0.4997	0.001375	2.2e-05
0.3594	0.6001	0.001255	2e-05
0.3601	0.0401	0.002367	3.6e-05
0.3919	0.0588	0.002177	3.3e-05
0.3996	0.2999	0.001547	2.4e-05
0.4	0.1802	0.001804	2.8e-05
0.4192	0.4018	0.001344	2.1e-05
0.4497	0.4994	0.001184	1.9e-05
0.5	0.0501	0.001834	2.8e-05
0.5001	0.3501	0.001215	1.9e-05
0.5002	0.1502	0.001563	2.4e-05
0.5005	0.2502	0.001373	2.2e-05
0.5343	0.3995	0.001126	1.8e-05
0.5893	0.2748	0.001146	1.8e-05
0.5934	0.0503	0.001523	2.4e-05
0.5995	0.2002	0.001217	1.9e-05
0.5997	0.1204	0.001345	2.1e-05
0.6	0.36	0.001043	1.7e-05
0.6991	0.0299	0.001264	2e-05
0.6994	0.1501	0.001087	1.7e-05
0.7001	0.09	0.001164	1.9e-05
0.7005	0.2701	0.000973	1.6e-05
0.7008	0.2103	0.001021	1.7e-05
0.7991	0.1798	0.000917	1.5e-05
0.7993	0.0195	0.001078	1.7e-05
0.7999	0.1	0.000975	1.6e-05
0.8994	0.07	0.000881	1.4e-05
0.9006	0.0301	0.000908	1.5e-05

System: dimethylformamide + N-methylformamide + water; phases: Liquid
Fixed: Temperature, K = 298.15
Fixed: Pressure, kPa = 101.325
Property: Mass density, kg/m3 (Liquid); method: VIBTUB:UFactor:16
Mole fraction of dimethylformamide	Mole fraction of N-methylformamide	Mass density, kg/m3	uncertainty
0.0201	0.1801	1011.2	0.7
0.0201	0.799	1001.1	0.7
0.0299	0.2696	1011.9	0.7
0.03	0.0701	1003.2	0.7
0.03	0.6978	1002.9	0.7
0.0304	0.9006	998	0.7
0.04	0.596	1004.2	0.7
0.0402	0.3599	1011.1	0.7
0.05	0.4503	1007.8	0.7
0.06	0.54	1003.5	0.7
0.0699	0.0301	998.5	0.7
0.0699	0.8996	994.4	0.7
0.0901	0.2097	1005.8	0.7
0.0901	0.6993	996.4	0.7
0.0998	0.801	993.6	0.7
0.1	0.1	1002.3	0.7
0.1198	0.28	1002.8	0.7
0.1201	0.5997	996	0.7
0.1498	0.3499	999.4	0.7
0.1499	0.1497	1000.6	0.7
0.15	0.5005	995.4	0.7
0.1501	0.7014	991	0.7
0.1795	0.4214	994	0.7
0.1797	0.0201	996.3	0.7
0.1798	0.7998	986.9	0.8
0.1996	0.5988	988.4	0.7
0.1997	0.1995	997.5	0.7
0.21	0.0901	996.3	0.7
0.2102	0.6996	986	0.8
0.2499	0.25	992.1	0.7
0.25	0.4992	986	0.8
0.2682	0.03	992.5	0.7
0.2698	0.7	981.5	0.8
0.2796	0.599	982.1	0.8
0.2798	0.12	991.9	0.7
0.2996	0.2992	985.9	0.8
0.2996	0.3995	984	0.8
0.341	0.1461	985.5	0.8
0.3492	0.4997	978.1	0.8
0.3594	0.6001	976.2	0.8
0.3601	0.0401	986	0.8
0.3919	0.0588	983.1	0.8
0.3996	0.2999	977.8	0.8
0.4	0.1802	980	0.8
0.4192	0.4018	974.3	0.9
0.4497	0.4994	971.2	0.9
0.5	0.0501	974.6	0.9
0.5001	0.3501	969.4	0.9
0.5002	0.1502	972.4	0.9
0.5005	0.2502	970.8	0.9
0.5343	0.3995	966.7	0.9
0.5893	0.2748	964.7	0.9
0.5934	0.0503	967.4	0.9
0.5995	0.2002	964.7	0.9
0.5997	0.1204	965.7	0.9
0.6	0.36	963.1	0.9
0.6991	0.0299	960.7	1
0.6994	0.1501	959.1	1
0.7001	0.09	959.7	1
0.7005	0.2701	958.1	1
0.7008	0.2103	958.6	1
0.7991	0.1798	953.3	1
0.7993	0.0195	954.5	1
0.7999	0.1	953.9	1
0.8994	0.07	948.8	1.1
0.9006	0.0301	949	1.1
