Measured thermophysical data. Low-temperature heat capacities and standard molar enthalpy of formation of the coordination compound Zn(Leu)SO4!A1/2H2O(s) (Leu = L-a- Leucine)
Source: J. Chem. Eng. Data, 2005, 10.1021/je050106f
Compound 1: zinc sulfate L-leucine hemihydrate, C12H28N2O13S2Zn2, InChI=1S/2C6H13NO2.2H2O4S.H2O.2Zn/c2*1-4(2)3-5(7)6(8)9;2*1-5(2,3)4;;;/h2*4-5H,3,7H2,1-2H3,(H,8,9);2*(H2,1,2,3,4);1H2;;/q;;;;;2*+2/p-4/t2*5-;;;;;/m00...../s1

System: zinc sulfate L-leucine hemihydrate; phases: Crystal
Fixed: Pressure, kPa = 101.325
Property: Molar heat capacity at constant pressure, J/K/mol (Crystal); method: VADIAC:UFactor:8
Temperature, K	Molar heat capacity at constant pressure, J/K/mol	uncertainty
78.451	175.654	3.452
79.972	181.524	3.546
81.439	187.31	3.638
82.959	193.094	3.73
84.409	197.732	3.804
85.858	202.84	3.886
87.238	206.488	3.944
88.687	211.022	4.016
90.065	216.05	4.928
91.447	220.82	4.968
92.739	225.616	5.006
94.032	229.838	5.04
95.342	234.006	5.072
96.636	238.792	5.11
97.935	242.772	5.142
99.158	246.752	5.174
100.459	250.84	5.208
101.681	254.384	5.236
102.904	258.344	5.268
104.039	262.254	5.298
105.271	267.218	5.338
106.502	271.062	5.368
107.639	275.178	5.402
108.789	278.046	5.424
109.925	281.224	5.45
111.078	285.082	5.482
112.23	288.364	5.508
113.366	292.222	5.538
114.518	295.14	5.562
115.671	297.746	5.582
116.736	300.456	5.604
117.872	303.218	5.626
118.954	305.512	5.644
120.019	308.326	5.666
121.186	311.282	5.69
122.233	313.628	5.71
123.314	315.688	5.726
124.362	318.246	5.746
125.443	320.806	5.766
126.523	324.146	5.794
127.582	326.444	5.812
128.652	330.234	5.842
130.42	334.45	5.876
132.712	338.714	5.91
135.005	343.832	5.95
137.297	350.512	6.004
139.502	356.156	6.05
141.718	362.452	6.1
143.945	368.564	6.148
146.073	372.97	6.184
148.299	379.082	6.232
150.429	384.198	6.274
152.557	390.878	6.328
154.719	398.342	6.388
156.781	403.672	6.43
158.909	410.282	6.482
161.955	420.87	6.568
166.016	432.384	6.66
169.913	445.558	6.764
173.744	460.1	6.882
177.477	474.74	6.998
181.145	485.43	7.084
184.736	498.904	7.192
188.328	508.854	7.272
191.842	519.752	7.358
195.434	532.544	7.46
199.025	541.546	7.532
202.539	552.916	7.624
206.055	564.762	7.718
209.493	579.45	7.836
213.008	585.038	7.88
216.447	594.706	7.958
219.885	606.076	8.048
223.245	616.31	8.13
226.609	628.818	8.23
229.894	639.592	8.316
233.104	649.854	8.4
236.389	662.932	8.504
239.675	676.576	8.612
242.884	686.81	8.694
246.093	697.614	8.782
249.455	708.942	8.872
252.817	721.266	8.97
256.103	731.896	9.056
259.389	741.562	9.132
262.674	752.194	9.218
265.883	765.002	9.32
269.093	776.074	9.408
272.302	787.444	9.5
275.435	795.404	9.564
278.563	809.05	9.672
281.624	815.872	9.728
284.68	826.106	9.81
287.66	836.338	9.89
290.487	847.142	9.978
293.391	857.944	10.064
296.218	865.904	10.128
299.198	872.728	10.182
302.025	880.688	10.246
304.929	891.49	10.332
307.756	903.216	10.426
310.583	914.572	10.516
313.486	926.896	10.616
316.314	938.012	10.704
319.141	950.618	10.806
321.968	966.538	10.932
324.719	981.32	11.052

System: zinc sulfate L-leucine hemihydrate; phases: Crystal
Fixed: Pressure, kPa = 101.325
Property: Molar heat capacity at constant pressure, J/K/mol (Crystal); method: VADIAC:UFactor:8
Temperature, K	Molar heat capacity at constant pressure, J/K/mol	uncertainty
80	180.04	3.52
85	199.9	3.84
90	218.08	4.94
95	234.88	5.08
100	250.58	5.2
105	265.4	5.32
110	279.56	5.44
115	293.26	5.54
120	306.68	5.66
125	319.92	5.76
130	333.14	5.86
135	346.42	5.98
140	359.84	6.08
145	373.48	6.18
150	387.38	6.3
155	401.56	6.42
160	416.06	6.52
165	430.9	6.64
170	446.06	6.76
175	461.52	6.9
180	477.28	7.02
185	493.32	7.14
190	509.6	7.28
195	526.1	7.4
200	542.76	7.54
205	559.56	7.68
210	576.46	7.82
215	593.42	7.94
220	610.4	8.08
225	627.38	8.22
230	644.32	8.36
235	661.18	8.48
240	677.96	8.62
245	694.64	8.76
250	711.22	8.9
255	727.7	9.02
260	744.1	9.16
265	760.42	9.28
270	776.74	9.42
275	793.06	9.54
280	809.46	9.68
285	826.02	9.8
290	842.8	9.94
295	859.92	10.08
298.15	870.98	10.16
300	877.56	10.22
305	895.76	10.36
310	914.72	10.52
315	934.62	10.68
320	955.62	10.84
325	977.96	11.02

System: zinc sulfate L-leucine hemihydrate; phases: Crystal
Fixed: Pressure, kPa = 101.325
Property: Molar enthalpy, kJ/mol (Crystal); method: Vacuum adiabatic calorimetry
Temperature, K	Molar enthalpy, kJ/mol	uncertainty
80	-112.84	2.256
85	-111.894	2.238
90	-110.852	2.218
95	-109.722	2.194
100	-108.512	2.17
105	-107.224	2.144
110	-105.864	2.118
115	-104.432	2.088
120	-102.934	2.058
125	-101.37	2.028
130	-99.738	1.994
135	-98.04	1.96
140	-96.276	1.926
145	-94.442	1.888
150	-92.54	1.85
155	-90.57	1.812
160	-88.526	1.77
165	-86.408	1.728
170	-84.216	1.684
175	-81.948	1.638
180	-79.6	1.592
185	-77.174	1.544
190	-74.668	1.494
195	-72.078	1.442
200	-69.406	1.388
205	-66.65	1.334
210	-63.81	1.276
215	-60.886	1.218
220	-57.876	1.158
225	-54.782	1.096
230	-51.602	1.032
235	-48.338	0.966
240	-44.99	0.9
245	-41.56	0.832
250	-38.046	0.762
255	-34.448	0.69
260	-30.77	0.616
265	-27.008	0.54
270	-23.166	0.464
275	-19.243	0.385
280	-15.237	0.305
285	-11.15	0.224
290	-6.98	0.141
295	-2.725	0.057
298.15	0	0.017
300	1.617	0.037
305	6.047	0.122
310	10.57	0.212
315	15.19	0.304
320	19.911	0.399
325	24.74	0.496

System: zinc sulfate L-leucine hemihydrate; phases: Crystal
Fixed: Pressure, kPa = 101.325
Property: Molar entropy, J/K/mol (Crystal); method: Vacuum adiabatic calorimetry
Temperature, K	Molar entropy, J/K/mol	uncertainty
80	-586.02	17.58
85	-574.48	17.24
90	-562.56	16.88
95	-550.34	16.52
100	-537.92	16.14
105	-525.36	15.76
110	-512.66	15.38
115	-499.92	15
120	-487.14	14.62
125	-474.34	14.24
130	-461.5	13.84
135	-448.66	13.46
140	-435.8	13.08
145	-422.94	12.68
150	-410.04	12.3
155	-397.1	11.92
160	-384.14	11.52
165	-371.14	11.14
170	-358.06	10.74
175	-344.92	10.34
180	-331.72	9.96
185	-318.44	9.56
190	-305.08	9.16
195	-291.64	8.74
200	-278.1	8.34
205	-264.48	7.94
210	-250.78	7.52
215	-237.02	7.12
220	-223.16	6.7
225	-209.24	6.28
230	-195.248	5.858
235	-181.198	5.436
240	-167.09	5.014
245	-152.934	4.588
250	-138.73	4.162
255	-124.486	3.736
260	-110.204	3.306
265	-95.886	2.878
270	-81.534	2.446
275	-67.146	2.016
280	-52.722	1.582
285	-38.258	1.15
290	-23.752	0.714
295	-9.198	0.282
298.15	0	0.058
300	5.413	0.173
305	20.084	0.606
310	34.826	1.046
315	49.642	1.49
320	64.538	1.938
325	79.524	2.386
