Measured thermophysical data. Henry's Law Constants and Infinite Dilution Activity Coefficients of Propane, Propene, Butane, 2-Methylpropane, 1-Butene, 2-Methylpropene, trans-2-Butene, cis-2-Butene, 1,3-Butadiene, Dimethyl Ether, Chloroethane, and 1,1-Difluoroethane in 2-Propen-1-ol
Source: J. Chem. Eng. Data, 2005, 10.1021/je0502647
Compound 1: propane, C3H8, InChI=1S/C3H8/c1-3-2/h3H2,1-2H3, purity 99.5%
Compound 2: propene, C3H6, InChI=1S/C3H6/c1-3-2/h3H,1H2,2H3, purity 99.5%
Compound 3: butane, C4H10, InChI=1S/C4H10/c1-3-4-2/h3-4H2,1-2H3, purity 99.8%
Compound 4: 2-methylpropane, C4H10, InChI=1S/C4H10/c1-4(2)3/h4H,1-3H3, purity 99%
Compound 5: 1-butene, C4H8, InChI=1S/C4H8/c1-3-4-2/h3H,1,4H2,2H3, purity 99%
Compound 6: 2-methylpropene, C4H8, InChI=1S/C4H8/c1-4(2)3/h1H2,2-3H3, purity 99%
Compound 7: (E)-2-butene, C4H8, InChI=1S/C4H8/c1-3-4-2/h3-4H,1-2H3/b4-3+, purity 99%
Compound 8: 1,3-butadiene, C4H6, InChI=1S/C4H6/c1-3-4-2/h3-4H,1-2H2, purity 99%
Compound 9: (Z)-2-butene, C4H8, InChI=1S/C4H8/c1-3-4-2/h3-4H,1-2H3/b4-3-, purity 99%
Compound 10: chloroethane, C2H5Cl, InChI=1S/C2H5Cl/c1-2-3/h2H2,1H3, purity 99.7%
Compound 11: 1,1-difluoroethane, C2H4F2, InChI=1S/C2H4F2/c1-2(3)4/h2H,1H3, purity 98%
Compound 12: dimethyl ether, C2H6O, InChI=1S/C2H6O/c1-3-2/h1-2H3, purity 99%
Compound 13: 2-propenol, C3H6O, InChI=1S/C3H6O/c1-2-3-4/h2,4H,1,3H2, purity 99%

System: propane + 2-propenol; phases: Liquid, Gas
Fixed: Mole fraction of propane = 0
Property: (Relative) activity of propane (Liquid); method: gas stripping method
Temperature, K	(Relative) activity of propane	uncertainty
249.94333	7.92	0.24
270.01	7.44	0.22
289.99	6.99	0.21
309.995	6.58	0.2
329.99	6.16	0.18

System: propane + 2-propenol; phases: Liquid, Gas
Fixed: Mole fraction of propane = 0
Property: Henry's Law constant (mole fraction scale), kPa of propane (Liquid); method: gas stripping method
Temperature, K	Henry's Law constant (mole fraction scale), kPa of propane	uncertainty
249.94333	1620	40
270.01	2910	71
289.99	4660	114
309.995	6860	168
329.99	9300	228

System: 2-propenol + propene; phases: Liquid, Gas
Fixed: Mole fraction of propene = 0
Property: (Relative) activity of propene (Liquid); method: gas stripping method
Temperature, K	(Relative) activity of propene	uncertainty
249.94333	4.87	0.15
270.01	4.76	0.14
289.99	4.65	0.14
309.995	4.47	0.13
329.99	4.31	0.13

System: 2-propenol + propene; phases: Liquid, Gas
Fixed: Mole fraction of propene = 0
Property: Henry's Law constant (mole fraction scale), kPa of propene (Liquid); method: gas stripping method
Temperature, K	Henry's Law constant (mole fraction scale), kPa of propene	uncertainty
249.94333	1230	30
270.01	2250	55
289.99	3690	90
309.995	5460	134
329.99	7560	185

System: butane + 2-propenol; phases: Liquid, Gas
Fixed: Mole fraction of butane = 0
Property: Activity coefficient of butane (Liquid); method: gas stripping method
Temperature, K	Activity coefficient of butane	uncertainty
249.9825	9.71	0.29
270.01	8.84	0.27
289.99	8.2	0.25
309.995	7.58	0.23
329.99	6.79	0.2

System: butane + 2-propenol; phases: Liquid, Gas
Fixed: Mole fraction of butane = 0
Property: Henry's Law constant (mole fraction scale), kPa of butane (Liquid); method: gas stripping method
Temperature, K	Henry's Law constant (mole fraction scale), kPa of butane	uncertainty
249.9825	374	9
270.01	780	19
289.99	1450	36
309.995	2390	59
329.99	3510	86

System: 2-methylpropane + 2-propenol; phases: Liquid, Gas
Fixed: Mole fraction of 2-methylpropane = 0
Property: Activity coefficient of 2-methylpropane (Liquid); method: gas stripping method
Temperature, K	Activity coefficient of 2-methylpropane	uncertainty
249.94333	10.5	0.3
270.01	9.51	0.29
289.99	8.83	0.26
309.995	8.11	0.24
329.99	7.14	0.21

System: 2-methylpropane + 2-propenol; phases: Liquid, Gas
Fixed: Mole fraction of 2-methylpropane = 0
Property: Henry's Law constant (mole fraction scale), kPa of 2-methylpropane (Liquid); method: gas stripping method
Temperature, K	Henry's Law constant (mole fraction scale), kPa of 2-methylpropane	uncertainty
249.94333	640	16
270.01	1260	31
289.99	2220	54
309.995	3480	85
329.99	4830	118

System: 1-butene + 2-propenol; phases: Liquid, Gas
Fixed: Mole fraction of 1-butene = 0
Property: Activity coefficient of 1-butene (Liquid); method: gas stripping method
Temperature, K	Activity coefficient of 1-butene	uncertainty
249.94333	6.08	0.18
270.01	5.85	0.18
289.99	5.62	0.17
309.995	5.35	0.16
329.99	5.04	0.15

System: 1-butene + 2-propenol; phases: Liquid, Gas
Fixed: Mole fraction of 1-butene = 0
Property: Henry's Law constant (mole fraction scale), kPa of 1-butene (Liquid); method: gas stripping method
Temperature, K	Henry's Law constant (mole fraction scale), kPa of 1-butene	uncertainty
249.94333	296	7
270.01	640	16
289.99	1210	30
309.995	2020	49
329.99	3080	75

System: 2-propenol + 2-methylpropene; phases: Liquid, Gas
Fixed: Mole fraction of 2-methylpropene = 0
Property: (Relative) activity of 2-methylpropene (Liquid); method: gas stripping method
Temperature, K	(Relative) activity of 2-methylpropene	uncertainty
249.94333	5.94	0.18
270.01	5.68	0.17
289.99	5.46	0.16
309.995	5.19	0.16
329.99	4.94	0.15

System: 2-propenol + 2-methylpropene; phases: Liquid, Gas
Fixed: Mole fraction of 2-methylpropene = 0
Property: Henry's Law constant (mole fraction scale), kPa of 2-methylpropene (Liquid); method: gas stripping method
Temperature, K	Henry's Law constant (mole fraction scale), kPa of 2-methylpropene	uncertainty
249.94333	293	7
270.01	630	15
289.99	1190	29
309.995	1990	49
329.99	3060	75

System: 2-propenol + (E)-2-butene; phases: Liquid, Gas
Fixed: Mole fraction of (E)-2-butene = 0
Property: Activity coefficient of (E)-2-butene (Liquid); method: gas stripping method
Temperature, K	Activity coefficient of (E)-2-butene	uncertainty
249.99667	6.23	0.19
269.995	5.85	0.18
289.99	5.67	0.17
309.995	5.38	0.16
329.99	4.91	0.15

System: 2-propenol + (E)-2-butene; phases: Liquid, Gas
Fixed: Mole fraction of (E)-2-butene = 0
Property: Henry's Law constant (mole fraction scale), kPa of (E)-2-butene (Liquid); method: gas stripping method
Temperature, K	Henry's Law constant (mole fraction scale), kPa of (E)-2-butene	uncertainty
249.99667	225	6
269.995	490	12
289.99	960	24
309.995	1640	40
329.99	2450	60

System: 1,3-butadiene + 2-propenol; phases: Liquid, Gas
Fixed: Mole fraction of 1,3-butadiene = 0
Property: Activity coefficient of 1,3-butadiene (Liquid); method: gas stripping method
Temperature, K	Activity coefficient of 1,3-butadiene	uncertainty
249.99667	4.12	0.12
270.01	4.06	0.12
289.99	4.02	0.12
309.995	3.89	0.12
329.99	3.59	0.11

System: 1,3-butadiene + 2-propenol; phases: Liquid, Gas
Fixed: Mole fraction of 1,3-butadiene = 0
Property: Henry's Law constant (mole fraction scale), kPa of 1,3-butadiene (Liquid); method: gas stripping method
Temperature, K	Henry's Law constant (mole fraction scale), kPa of 1,3-butadiene	uncertainty
249.99667	186	5
270.01	418	10
289.99	820	20
309.995	1410	35
329.99	2120	52

System: 2-propenol + (Z)-2-butene; phases: Liquid, Gas
Fixed: Mole fraction of (Z)-2-butene = 0
Property: Activity coefficient of (Z)-2-butene (Liquid); method: gas stripping method
Temperature, K	Activity coefficient of (Z)-2-butene	uncertainty
249.94	5.53	0.17
270.06	5.28	0.16
289.99	5.06	0.15
309.98	4.85	0.15
329.99	4.57	0.14

System: 2-propenol + (Z)-2-butene; phases: Liquid, Gas
Fixed: Mole fraction of (Z)-2-butene = 0
Property: Henry's Law constant (mole fraction scale), kPa of (Z)-2-butene (Liquid); method: gas stripping method
Temperature, K	Henry's Law constant (mole fraction scale), kPa of (Z)-2-butene	uncertainty
249.94	174	4
270.06	397	10
289.99	780	19
309.98	1370	34
329.99	2160	53

System: chloroethane + 2-propenol; phases: Liquid, Gas
Fixed: Mole fraction of chloroethane = 0
Property: Activity coefficient of chloroethane (Liquid); method: gas stripping method
Temperature, K	Activity coefficient of chloroethane	uncertainty
249.94	3.09	0.09
270.06	3.07	0.09
289.99	2.99	0.09
309.98	2.87	0.09
329.99	2.69	0.08

System: chloroethane + 2-propenol; phases: Liquid, Gas
Fixed: Mole fraction of chloroethane = 0
Property: Henry's Law constant (mole fraction scale), kPa of chloroethane (Liquid); method: gas stripping method
Temperature, K	Henry's Law constant (mole fraction scale), kPa of chloroethane	uncertainty
249.94	65	2
270.06	165	4
289.99	347	9
309.98	640	16
329.99	1040	25

System: 1,1-difluoroethane + 2-propenol; phases: Liquid, Gas
Fixed: Mole fraction of 1,1-difluoroethane = 0
Property: Activity coefficient of 1,1-difluoroethane (Liquid); method: gas stripping method
Temperature, K	Activity coefficient of 1,1-difluoroethane	uncertainty
249.94	5.09	0.15
270.06	4.94	0.15
289.99	4.68	0.14
309.98	4.39	0.13
329.99	4.02	0.12

System: 1,1-difluoroethane + 2-propenol; phases: Liquid, Gas
Fixed: Mole fraction of 1,1-difluoroethane = 0
Property: Henry's Law constant (mole fraction scale), kPa of 1,1-difluoroethane (Liquid); method: gas stripping method
Temperature, K	Henry's Law constant (mole fraction scale), kPa of 1,1-difluoroethane	uncertainty
249.94	540	13
270.06	1130	28
289.99	2000	49
309.98	3190	78
329.99	4560	112

System: 2-propenol + dimethyl ether; phases: Liquid, Gas
Fixed: Mole fraction of dimethyl ether = 0
Property: Activity coefficient of dimethyl ether (Liquid); method: gas stripping method
Temperature, K	Activity coefficient of dimethyl ether	uncertainty
249.94	1.23	0.04
270.06	1.22	0.04
289.99	1.2	0.04
309.98	1.2	0.04
329.99	1.16	0.04

System: 2-propenol + dimethyl ether; phases: Liquid, Gas
Fixed: Mole fraction of dimethyl ether = 0
Property: Henry's Law constant (mole fraction scale), kPa of dimethyl ether (Liquid); method: gas stripping method
Temperature, K	Henry's Law constant (mole fraction scale), kPa of dimethyl ether	uncertainty
249.94	129	3
270.06	273	7
289.99	500	12
309.98	850	21
329.99	1280	31
