Measured thermophysical data. Isothermal Vapor Liquid Equilibrium for 2-Methylpropene + Methanol, + 1-Propanol, + 2-Propanol, + 2-Butanol, and + 2-Methyl-2-propanol Binary Systems at 364.5 K
Source: J. Chem. Eng. Data, 2006, 10.1021/je050404c
Compound 1: methanol, CH4O, InChI=1S/CH4O/c1-2/h2H,1H3, purity 99.8%
Compound 2: propan-1-ol, C3H8O, InChI=1S/C3H8O/c1-2-3-4/h4H,2-3H2,1H3, purity 99.8%
Compound 3: propan-2-ol, C3H8O, InChI=1S/C3H8O/c1-3(2)4/h3-4H,1-2H3, purity 99.8%
Compound 4: butan-2-ol, C4H10O, InChI=1S/C4H10O/c1-3-4(2)5/h4-5H,3H2,1-2H3, purity 99.8%
Compound 5: 2-methylpropan-2-ol, C4H10O, InChI=1S/C4H10O/c1-4(2,3)5/h5H,1-3H3, purity 99.7%
Compound 6: 2-methylpropene, C4H8, InChI=1S/C4H8/c1-4(2)3/h1H2,2-3H3, purity 99.8%

System: methanol; phases: Liquid, Gas
Property: Vapor or sublimation pressure, kPa (Liquid); method: Closed cell (Static) method
Temperature, K	Vapor or sublimation pressure, kPa	uncertainty
364.47	267	1.1

System: propan-1-ol; phases: Liquid, Gas
Property: Vapor or sublimation pressure, kPa (Liquid); method: Closed cell (Static) method
Temperature, K	Vapor or sublimation pressure, kPa	uncertainty
364.51	81.3	0.4

System: propan-2-ol; phases: Liquid, Gas
Property: Vapor or sublimation pressure, kPa (Liquid); method: Closed cell (Static) method
Temperature, K	Vapor or sublimation pressure, kPa	uncertainty
364.5	144.5	0.6

System: butan-2-ol; phases: Liquid, Gas
Property: Vapor or sublimation pressure, kPa (Liquid); method: Closed cell (Static) method
Temperature, K	Vapor or sublimation pressure, kPa	uncertainty
364.51	74	0.3

System: 2-methylpropan-2-ol; phases: Liquid, Gas
Property: Vapor or sublimation pressure, kPa (Liquid); method: Closed cell (Static) method
Temperature, K	Vapor or sublimation pressure, kPa	uncertainty
364.52	142.7	0.6

System: 2-methylpropene; phases: Liquid, Gas
Property: Vapor or sublimation pressure, kPa (Liquid); method: Closed cell (Static) method
Temperature, K	Vapor or sublimation pressure, kPa	uncertainty
364.49	1546	6.4
364.51	1546.6	6.4
364.51	1546.5	6.4
364.52	1546.3	6.4

System: methanol + 2-methylpropene; phases: Liquid, Gas
Property: Vapor or sublimation pressure, kPa (Liquid); method: Closed cell (Static) method
Temperature, K	Mole fraction of 2-methylpropene	Vapor or sublimation pressure, kPa	uncertainty
364.47	0	267	1.1
364.47	0.016	408	1.7
364.49	0.0304	522.5	2.2
364.49	0.9501	1615.1	6.7
364.49	0.9704	1595.8	6.6
364.49	0.9889	1567.1	6.5
364.49	1	1546	6.4
364.5	0.0454	628.6	2.6
364.5	0.4419	1505.1	6.3
364.5	0.5474	1549.2	6.4
364.5	0.6962	1591.4	6.6
364.5	0.7463	1603.5	6.7
364.5	0.8471	1624.3	6.7
364.5	0.8969	1628.9	6.8
364.5	0.9771	1587.5	6.6
364.51	0.086	865.1	3.6
364.51	0.1316	1056.2	4.4
364.51	0.1786	1196.7	5
364.51	0.228	1301.2	5.4
364.51	0.2806	1378.8	5.7
364.51	0.4953	1528.5	6.4
364.51	0.498	1531.9	6.4
364.51	0.5961	1564.7	6.5
364.51	0.6457	1578.4	6.6
364.51	0.797	1615.1	6.7
364.52	0.334	1435	6
364.52	0.3882	1475.6	6.1

System: propan-1-ol + 2-methylpropene; phases: Liquid, Gas
Property: Vapor or sublimation pressure, kPa (Liquid); method: Closed cell (Static) method
Temperature, K	Mole fraction of 2-methylpropene	Vapor or sublimation pressure, kPa	uncertainty
364.5	0.8933	1443.4	6
364.5	0.947	1489.3	6.2
364.51	0	81.3	0.4
364.51	0.0129	135.2	0.6
364.51	0.0304	205.1	0.9
364.51	0.0473	268.8	1.1
364.51	0.093	427.5	1.8
364.51	0.1399	568.5	2.4
364.51	0.1861	688.7	2.9
364.51	0.2354	798.7	3.3
364.51	0.2869	896.1	3.7
364.51	0.3386	978.8	4.1
364.51	0.3907	1049.5	4.4
364.51	0.4429	1109.6	4.6
364.51	0.4956	1161.9	4.8
364.51	0.4974	1163	4.8
364.51	0.5937	1242.3	5.2
364.51	0.6423	1277.1	5.3
364.51	0.692	1310.3	5.4
364.51	0.7418	1342.6	5.6
364.51	0.7911	1374	5.7
364.51	0.8424	1407.6	5.9
364.51	0.9677	1510.3	6.3
364.51	0.9796	1523.5	6.3
364.51	0.9888	1533.7	6.4
364.51	1	1546.6	6.4
364.52	0.5455	1204.7	5

System: propan-2-ol + 2-methylpropene; phases: Liquid, Gas
Property: Vapor or sublimation pressure, kPa (Liquid); method: Closed cell (Static) method
Temperature, K	Mole fraction of 2-methylpropene	Vapor or sublimation pressure, kPa	uncertainty
364.48	0.2918	895.9	3.7
364.49	0.0216	225.1	1
364.49	0.0377	282.1	1.2
364.49	0.5464	1201.8	5
364.49	0.5949	1243.6	5.2
364.49	0.9678	1520.1	6.3
364.5	0	144.5	0.6
364.5	0.6932	1320.6	5.5
364.5	0.9763	1527.4	6.3
364.5	0.9884	1537.1	6.4
364.51	0.1453	600.2	2.5
364.51	0.1932	711.2	3
364.51	0.2421	809.7	3.4
364.51	0.343	973.9	4.1
364.51	0.4968	1154.5	4.8
364.51	0.6434	1283.4	5.3
364.51	0.7425	1356.5	5.6
364.51	0.7929	1391.5	5.8
364.51	0.8429	1426.5	5.9
364.51	0.8951	1464.9	6.1
364.51	0.9475	1504.5	6.3
364.51	1	1546.5	6.4
364.52	0.0549	340.6	1.4
364.52	0.3942	1041.7	4.3
364.52	0.4981	1157.4	4.8
364.54	0.1001	479.4	2
364.54	0.446	1102.7	4.6

System: butan-2-ol + 2-methylpropene; phases: Liquid, Gas
Property: Vapor or sublimation pressure, kPa (Liquid); method: Closed cell (Static) method
Temperature, K	Mole fraction of 2-methylpropene	Vapor or sublimation pressure, kPa	uncertainty
364.51	0	74	0.3
364.51	0.0248	148.1	0.6
364.51	0.0593	245.4	1
364.51	0.1501	470.7	2
364.51	0.3445	830	3.5
364.51	0.3959	903.8	3.8
364.51	0.4472	970.2	4
364.51	0.4983	1032.3	4.3
364.51	0.643	1180.9	4.9
364.51	0.8422	1361.1	5.7
364.51	0.8926	1410.4	5.9
364.51	0.9468	1472	6.1
364.51	0.9797	1516.6	6.3
364.51	0.9893	1530.8	6.4
364.51	1	1546.5	6.4
364.52	0.1038	361	1.5
364.52	0.1968	570.6	2.4
364.52	0.2947	751	3.1
364.52	0.5461	1084.6	4.5
364.52	0.5946	1134.5	4.7
364.52	0.6917	1226.1	5.1
364.52	0.7415	1270.7	5.3
364.52	0.7911	1314.7	5.5
364.52	0.9679	1500.2	6.2
364.53	0.2452	664.6	2.8
364.54	0.4984	1032	4.3

System: 2-methylpropan-2-ol + 2-methylpropene; phases: Liquid, Gas
Property: Vapor or sublimation pressure, kPa (Liquid); method: Closed cell (Static) method
Temperature, K	Mole fraction of 2-methylpropene	Vapor or sublimation pressure, kPa	uncertainty
364.5	0.0491	267.1	1.1
364.5	0.097	379.1	1.6
364.5	0.1923	575.2	2.4
364.5	0.3939	900.1	3.8
364.51	0.0304	220.9	0.9
364.51	0.2415	664.6	2.8
364.51	0.3423	826.7	3.5
364.51	0.969	1509	6.3
364.51	0.9903	1534.2	6.4
364.52	0	142.7	0.6
364.52	0.0132	177.2	0.8
364.52	0.1455	483.1	2
364.52	0.2916	748.6	3.1
364.52	0.4462	969.3	4
364.52	0.4976	1031.9	4.3
364.52	0.4991	1035.6	4.3
364.52	0.5472	1090.3	4.5
364.52	0.5952	1141.8	4.8
364.52	0.6442	1192.1	5
364.52	0.6933	1239.9	5.2
364.52	0.7429	1286.7	5.4
364.52	0.844	1380.5	5.7
364.52	0.8953	1430.2	5.9
364.52	0.9473	1484.2	6.2
364.52	0.9779	1519.5	6.3
364.52	1	1546.3	6.4
364.53	0.7932	1333.4	5.5
