Measured thermophysical data. High-Pressure Phase Equilibrium for Ethylene + 2-Propanol at 283.65 K
Source: J. Chem. Eng. Data, 2005, 10.1021/je0501641
Compound 1: ethene, C2H4, InChI=1S/C2H4/c1-2/h1-2H2
Compound 2: propan-2-ol, C3H8O, InChI=1S/C3H8O/c1-3(2)4/h3-4H,1-2H3, purity 99.9%

System: propan-2-ol + ethene; phases: Liquid, Gas
Fixed: Temperature, K = 283.65
Property: Vapor or sublimation pressure, kPa (Liquid); method: Closed cell (Static) method
Mole fraction of ethene	Vapor or sublimation pressure, kPa	uncertainty
0.215	2227	29
0.308	3047	36
0.382	3578	40
0.476	4115	44
0.707	4699	49
0.956	4938	52
0.986	5029	53

System: propan-2-ol + ethene; phases: Liquid, Gas
Fixed: Temperature, K = 283.65
Property: Mass density, kg/m3 (Liquid); method: Vibrating tube method
Mole fraction of ethene	Mass density, kg/m3	uncertainty
0.215	736.8	0.7
0.308	706.7	0.7
0.382	680.7	0.8
0.476	643.5	1
0.707	531.5	1.3
0.956	347	3
0.986	302.6	3

System: propan-2-ol + ethene; phases: Gas, Liquid
Fixed: Temperature, K = 283.65
Property: Mass density, kg/m3 (Gas); method: Vibrating tube method
Mole fraction of ethene	Mass density, kg/m3	uncertainty
0.215	32.5	0.4
0.308	49.1	0.4
0.382	62.7	0.4
0.476	80.6	0.4
0.707	109.1	0.3
0.956	133.9	1.3
0.986	152.6	1.3

System: propan-2-ol + ethene; phases: Gas, Liquid
Fixed: Temperature, K = 283.65
Property: Mole fraction of ethene (Gas); method: Chromatography
Mole fraction of ethene	Mole fraction of ethene	uncertainty
0.215	0.996	0.004
0.308	0.989	0.004
0.382	0.991	0.004
0.476	0.992	0.004
0.707	0.997	0.003
0.956	0.996	0.004
0.986	0.997	0.003
