Measured thermophysical data. Aqueous Solubilities of Estrone, 17p-Estradiol, 17a.-Ethynylestradiol, and Bisphenol A
Source: J. Chem. Eng. Data, 2006, 10.1021/je050318c
Compound 1: (17.beta.)-estra-1,3,5(10)-triene-3,17diol, C18H24O2, InChI=1S/C18H24O2/c1-18-9-8-14-13-5-3-12(19)10-11(13)2-4-15(14)16(18)6-7-17(18)20/h3,5,10,14-17,19-20H,2,4,6-9H2,1H3/t14-,15-,16+,17+,18+/m1/s1
Compound 2: 3-hydroxy-1,3,5(10)-estratrien-17-one, C18H22O2, InChI=1S/C18H22O2/c1-18-9-8-14-13-5-3-12(19)10-11(13)2-4-15(14)16(18)6-7-17(18)20/h3,5,10,14-16,19H,2,4,6-9H2,1H3/t14-,15-,16+,18+/m1/s1
Compound 3: 19-nor-17.alpha.-pregna-1,3,5(10)-trien-20-yne-3,17-diol, C20H24O2, InChI=1S/C20H24O2/c1-3-20(22)11-9-18-17-6-4-13-12-14(21)5-7-15(13)16(17)8-10-19(18,20)2/h1,5,7,12,16-18,21-22H,4,6,8-11H2,2H3/t16-,17-,18+,19+,20+/m1/s1
Compound 4: 2,2-(4',4''-dihydroxy)diphenylpropane, C15H16O2, InChI=1S/C15H16O2/c1-15(2,11-3-7-13(16)8-4-11)12-5-9-14(17)10-6-12/h3-10,16-17H,1-2H3
Compound 5: water, H2O, InChI=1S/H2O/h1H2
Compound 6: potassium nitrate, KNO3, InChI=1S/K.NO3/c;2-1(3)4/q+1;-1

System: (17.beta.)-estra-1,3,5(10)-triene-3,17diol + water; phases: Liquid, Crystal
Property: Mass concentration, kg/m3 (Liquid); method: Chromatography
Temperature, K	Pressure, kPa	Mass concentration, kg/m3	uncertainty
298.15	101	0.00151	8e-05

System: 3-hydroxy-1,3,5(10)-estratrien-17-one + water; phases: Liquid, Crystal
Property: Mass concentration, kg/m3 (Liquid); method: Chromatography
Temperature, K	Pressure, kPa	Mass concentration, kg/m3	uncertainty
298.15	101	0.0013	0.00016

System: 19-nor-17.alpha.-pregna-1,3,5(10)-trien-20-yne-3,17-diol + water; phases: Liquid, Crystal
Property: Mass concentration, kg/m3 (Liquid); method: Chromatography
Temperature, K	Pressure, kPa	Mass concentration, kg/m3	uncertainty
298.15	101	0.0092	0.00017

System: 2,2-(4',4''-dihydroxy)diphenylpropane + water; phases: Liquid, Crystal
Property: Mass concentration, kg/m3 (Liquid); method: Chromatography
Temperature, K	Pressure, kPa	Mass concentration, kg/m3	uncertainty
298.15	101	0.3	0.01

System: (17.beta.)-estra-1,3,5(10)-triene-3,17diol + water + potassium nitrate; phases: Liquid, Crystal
Fixed: Temperature, K = 298
Fixed: Pressure, kPa = 101
Property: Mass concentration, kg/m3 of (17.beta.)-estra-1,3,5(10)-triene-3,17diol (Liquid); method: Chromatography
Solvent: Amount concentration (molarity), mol/dm3 of potassium nitrate	Mass concentration, kg/m3 of (17.beta.)-estra-1,3,5(10)-triene-3,17diol	uncertainty
10000	0.00135	0.0001
100000	0.0011	0.00016

System: 3-hydroxy-1,3,5(10)-estratrien-17-one + water + potassium nitrate; phases: Liquid, Crystal
Fixed: Temperature, K = 298
Fixed: Pressure, kPa = 101
Property: Mass concentration, kg/m3 of 3-hydroxy-1,3,5(10)-estratrien-17-one (Liquid); method: Chromatography
Solvent: Amount concentration (molarity), mol/dm3 of potassium nitrate	Mass concentration, kg/m3 of 3-hydroxy-1,3,5(10)-estratrien-17-one	uncertainty
10000	0.00085	4e-05
100000	0.00061	0.00016

System: 19-nor-17.alpha.-pregna-1,3,5(10)-trien-20-yne-3,17-diol + water + potassium nitrate; phases: Liquid, Crystal
Fixed: Pressure, kPa = 101
Fixed: Temperature, K = 298
Property: Mass concentration, kg/m3 of 19-nor-17.alpha.-pregna-1,3,5(10)-trien-20-yne-3,17-diol (Liquid); method: Chromatography
Solvent: Amount concentration (molarity), mol/dm3 of potassium nitrate	Mass concentration, kg/m3 of 19-nor-17.alpha.-pregna-1,3,5(10)-trien-20-yne-3,17-diol	uncertainty
10000	0.0091	0.00016
100000	0.0085	0.00016

System: 2,2-(4',4''-dihydroxy)diphenylpropane + water + potassium nitrate; phases: Liquid, Crystal
Fixed: Pressure, kPa = 101
Fixed: Temperature, K = 298
Property: Mass concentration, kg/m3 of 2,2-(4',4''-dihydroxy)diphenylpropane (Liquid); method: Chromatography
Solvent: Amount concentration (molarity), mol/dm3 of potassium nitrate	Mass concentration, kg/m3 of 2,2-(4',4''-dihydroxy)diphenylpropane	uncertainty
10000	0.301	0.006
100000	0.3	0.004
