Measured thermophysical data. Phase Equlibria for Hexyl Acetate Reactive Distillation
Source: J. Chem. Eng. Data, 2005, 10.1021/je050141m
Compound 1: hexan-1-ol, C6H14O, InChI=1S/C6H14O/c1-2-3-4-5-6-7/h7H,2-6H2,1H3
Compound 2: acetic acid, C2H4O2, InChI=1S/C2H4O2/c1-2(3)4/h1H3,(H,3,4)
Compound 3: hexyl ethanoate, C8H16O2, InChI=1S/C8H16O2/c1-3-4-5-6-7-10-8(2)9/h3-7H2,1-2H3
Compound 4: water, H2O, InChI=1S/H2O/h1H2

System: hexan-1-ol; phases: Liquid, Gas
Property: Vapor or sublimation pressure, kPa (Liquid); method: Ebulliometric method (Recirculating still)
Temperature, K	Vapor or sublimation pressure, kPa	uncertainty
391.07	25	0.2
395.62	30	0.3
399.65	35	0.3
403.15	40	0.3
406.36	45	0.4
409.25	50	0.4
411.92	55	0.5
414.44	60	0.5
416.75	65	0.5
418.98	70	0.6
421.05	75	0.6
423.01	80	0.6
424.87	85	0.7
426.69	90	0.7

System: hexyl ethanoate; phases: Liquid, Gas
Property: Vapor or sublimation pressure, kPa (Liquid); method: Ebulliometric method (Recirculating still)
Temperature, K	Vapor or sublimation pressure, kPa	uncertainty
397.97	25	0.2
403.36	30	0.2
408.02	35	0.3
412.14	40	0.3
416.02	45	0.3
419.47	50	0.4
422.59	55	0.4
425.57	60	0.4
428.26	65	0.5
430.93	70	0.5
433.38	75	0.5
435.68	80	0.6
437.92	85	0.6
439.98	90	0.6

System: acetic acid + hexan-1-ol; phases: Liquid, Gas
Property: Boiling temperature at pressure P, K (Liquid); method: Ebulliometric method (Recirculating still)
Mole fraction of acetic acid	Pressure, kPa	Boiling temperature at pressure P, K	uncertainty
0.0225	30	395.25	0.51
0.0263	90	426.39	0.67
0.0281	60	413.99	0.28
0.0438	30	394.9	1.09
0.0461	90	425.99	1.14
0.0472	60	413.67	0.42
0.0833	60	412.86	0.29
0.0874	90	425.01	1.5
0.0907	30	393.87	1.51
0.1244	90	424.12	1.42
0.1245	60	411.8	1.79
0.134	30	392.7	1.66
0.1612	90	422.99	1.62
0.1625	60	410.74	1.77
0.1698	30	391.48	2.23
0.1709	60	410.5	1.84
0.2083	30	390.21	2.32
0.3555	60	403.56	2.45
0.4087	30	381.89	2.66
0.4968	60	396.78	2.78
0.5698	30	373.64	2.86
0.6341	60	390.3	2.7
0.7208	30	366.58	2.52
0.7607	60	384.6	2.5
0.9146	30	358.68	2.35
0.9173	30	358.57	2.35
0.9289	60	377.69	2.65
0.931	60	377.58	2.65
0.9356	90	390.01	2.49
0.9484	60	376.85	2.76
0.9503	90	389.36	2.14
0.953	30	357.21	1.91
0.9667	60	376.14	1.74
0.9681	30	356.62	1.31
0.9683	90	388.63	1.38
0.9756	30	356.32	0.97
0.9767	60	375.74	1.21
0.9785	90	388.19	0.96
0.9835	30	356.01	0.68
0.9841	60	375.43	0.85
0.9858	90	387.88	0.67
0.9907	30	355.71	0.43
0.9919	60	375.1	0.51
0.9933	90	387.54	0.41

System: acetic acid + hexan-1-ol; phases: Gas, Liquid
Property: Mole fraction of acetic acid (Gas); method: Chromatography
Mole fraction of acetic acid	Pressure, kPa	Mole fraction of acetic acid	uncertainty
0.0225	30	0.0365	0.0365
0.0263	90	0.038	0.038
0.0281	60	0.042	0.042
0.0438	30	0.072	0.058
0.0461	90	0.0701	0.058
0.0472	60	0.0724	0.058
0.0833	60	0.1369	0.058
0.0874	90	0.1442	0.058
0.0907	30	0.1627	0.058
0.1244	90	0.2067	0.058
0.1245	60	0.2133	0.058
0.134	30	0.251	0.058
0.1612	90	0.2738	0.0581
0.1625	60	0.2889	0.0581
0.1698	30	0.3309	0.0581
0.1709	60	0.3015	0.0581
0.2083	30	0.415	0.0581
0.3555	60	0.6213	0.0581
0.4087	30	0.7363	0.0581
0.4968	60	0.7888	0.058
0.5698	30	0.8843	0.058
0.6341	60	0.8897	0.058
0.7208	30	0.9477	0.0523
0.7607	60	0.9445	0.0555
0.9146	30	0.9884	0.0116
0.9173	30	0.9886	0.0114
0.9289	60	0.9871	0.0129
0.931	60	0.9875	0.0125
0.9356	90	0.9863	0.0137
0.9484	60	0.9908	0.0092
0.9503	90	0.9895	0.0105
0.953	30	0.9936	0.0064
0.9667	60	0.994	0.006
0.9681	30	0.9956	0.0044
0.9683	90	0.9933	0.0067
0.9756	30	0.9967	0.0033
0.9767	60	0.9957	0.0043
0.9785	90	0.9954	0.0046
0.9835	30	0.9976	0.0024
0.9841	60	0.997	0.003
0.9858	90	0.9969	0.0031
0.9907	30	0.9986	0.0014
0.9919	60	0.9983	0.0017
0.9933	90	0.9984	0.0016

System: acetic acid + hexyl ethanoate; phases: Liquid, Gas
Property: Boiling temperature at pressure P, K (Liquid); method: Ebulliometric method (Recirculating still)
Mole fraction of acetic acid	Pressure, kPa	Boiling temperature at pressure P, K	uncertainty
0.0081	90	439.12	0.96
0.0241	60	423.17	1.43
0.033	90	435.96	2.71
0.0381	60	421.92	2.23
0.0523	60	420.61	2.44
0.0584	30	398.51	4.69
0.0699	90	432.25	5.43
0.0902	60	417.3	4.26
0.1197	60	414.73	4.26
0.1204	30	393.5	4.15
0.1278	90	428.24	4.71
0.1329	90	427.46	4.11
0.1426	60	412.55	4.18
0.1834	30	389.57	3.32
0.1841	90	423.42	4.14
0.1883	90	423.38	4.14
0.224	60	407.49	2.58
0.2382	60	406.44	3.72
0.2755	90	417.66	3.44
0.2786	30	384.42	3.28
0.3292	60	402.45	3.78
0.3515	30	380.08	3.34
0.3609	90	413.19	2.91
0.3892	60	398.53	2.67
0.4135	30	376.67	2.67
0.4651	90	408.19	2.59
0.4754	60	394.94	2.77
0.4959	90	406.85	2.61
0.5124	60	392.61	2.81
0.5273	30	371.93	2.36
0.5852	60	389.84	2.6
0.5997	90	402.56	2.49
0.6217	30	368.24	2.16
0.6803	60	385.99	2.69
0.7045	90	397.95	2.45
0.7347	30	364.23	2.04
0.7728	90	395.34	2.09
0.7807	60	382.3	2.43
0.8058	30	361.83	1.99
0.8294	90	393.29	2.1
0.8455	60	380.11	1.86
0.8656	30	359.78	1.88
0.9249	90	390.05	1.99
0.9326	60	377.19	3.48
0.9409	30	357.47	1.79

System: acetic acid + hexyl ethanoate; phases: Gas, Liquid
Property: Mole fraction of acetic acid (Gas); method: Chromatography
Mole fraction of acetic acid	Pressure, kPa	Mole fraction of acetic acid	uncertainty
0.0081	90	0.0286	0.0286
0.0241	60	0.0783	0.0783
0.033	90	0.1286	0.1013
0.0381	60	0.1293	0.1191
0.0523	60	0.1751	0.1508
0.0584	30	0.209	0.1853
0.0699	90	0.2448	0.1759
0.0902	60	0.2846	0.15
0.1197	60	0.3629	0.1446
0.1204	30	0.3971	0.1607
0.1278	90	0.3672	0.1502
0.1329	90	0.3861	0.1228
0.1426	60	0.4323	0.1458
0.1834	30	0.5321	0.1132
0.1841	90	0.5005	0.1249
0.1883	90	0.4976	0.1189
0.224	60	0.5746	0.0968
0.2382	60	0.6073	0.1012
0.2755	90	0.6337	0.0944
0.2786	30	0.6658	0.0977
0.3292	60	0.6903	0.085
0.3515	30	0.7593	0.0859
0.3609	90	0.7188	0.0763
0.3892	60	0.7632	0.0749
0.4135	30	0.8124	0.0695
0.4651	90	0.7964	0.0694
0.4754	60	0.8155	0.0678
0.4959	90	0.8206	0.0696
0.5124	60	0.8431	0.0681
0.5273	30	0.8775	0.0649
0.5852	60	0.8806	0.0637
0.5997	90	0.876	0.0643
0.6217	30	0.916	0.0613
0.6803	60	0.9175	0.0616
0.7045	90	0.92	0.0619
0.7347	30	0.9489	0.0511
0.7728	90	0.9399	0.0601
0.7807	60	0.9476	0.0524
0.8058	30	0.9616	0.0384
0.8294	90	0.9576	0.0424
0.8455	60	0.9666	0.0334
0.8656	30	0.9769	0.0231
0.9249	90	0.9805	0.0195
0.9326	60	0.985	0.015
0.9409	30	0.9892	0.0108

System: hexan-1-ol + hexyl ethanoate; phases: Liquid, Gas
Fixed: Temperature, K = 413.15
Property: Vapor or sublimation pressure, kPa (Liquid); method: Ebulliometric method (Recirculating still)
Mole fraction of hexan-1-ol	Vapor or sublimation pressure, kPa	uncertainty
0.0254	41.89	0.63
0.0368	42.22	0.63
0.0655	43.08	0.65
0.0913	43.9	0.66
0.1175	44.7	0.62
0.2188	47.25	0.63
0.3225	49.67	0.62
0.4139	51.19	0.62
0.6003	54.71	0.63
0.9125	57.23	0.65
0.9343	57.4	0.64
0.9566	57.45	0.64
0.9797	57.32	0.64
0.9894	57.18	0.64

System: hexan-1-ol + hexyl ethanoate; phases: Gas, Liquid
Fixed: Temperature, K = 413.15
Property: Mole fraction of hexan-1-ol (Gas); method: Chromatography
Mole fraction of hexan-1-ol	Mole fraction of hexan-1-ol	uncertainty
0.0254	0.0406	0.0254
0.0368	0.058	0.0253
0.0655	0.1013	0.0252
0.0913	0.1397	0.0244
0.1175	0.1754	0.0227
0.2188	0.3022	0.0218
0.3225	0.416	0.0207
0.4139	0.5054	0.0195
0.6003	0.6646	0.0187
0.9125	0.9211	0.0186
0.9343	0.9401	0.0187
0.9566	0.9601	0.0189
0.9797	0.9812	0.0188
0.9894	0.9901	0.0099

System: hexan-1-ol + hexyl ethanoate; phases: Liquid, Gas
Property: Boiling temperature at pressure P, K (Liquid); method: Ebulliometric method (Recirculating still)
Mole fraction of hexan-1-ol	Pressure, kPa	Boiling temperature at pressure P, K	uncertainty
0.016	90	439.63	0.46
0.021	60	425.05	0.45
0.0263	30	402.87	0.37
0.0315	90	439.27	0.47
0.0365	60	424.73	0.45
0.049	30	402.43	0.36
0.0554	90	438.7	0.46
0.0664	60	424.08	0.31
0.0853	90	438.01	0.46
0.0902	30	401.69	0.35
0.1101	60	423.14	0.61
0.1212	90	437.16	0.45
0.1268	30	401.07	0.34
0.1513	60	422.34	0.4
0.1634	90	436.31	0.43
0.1721	30	400.3	0.33
0.2131	90	435.34	0.42
0.2254	90	435.1	0.42
0.2359	60	420.83	0.4
0.2369	30	399.38	0.3
0.2384	30	399.31	0.3
0.2657	90	434.44	0.41
0.2983	60	419.75	0.49
0.3052	60	419.69	0.48
0.3062	90	433.63	0.4
0.3523	30	398.07	0.28
0.3657	60	418.96	0.49
0.397	90	432.18	0.4
0.3998	90	432.01	0.4
0.4018	60	418.43	0.3
0.4034	60	418.41	0.3
0.4365	90	431.46	0.38
0.4798	90	430.85	0.37
0.4852	30	396.99	0.26
0.4927	60	417.38	0.37
0.5234	60	417.09	0.29
0.5557	90	429.89	0.36
0.5746	90	429.67	0.34
0.5819	60	416.39	0.36
0.5959	30	396.33	0.26
0.6269	60	416.06	0.31
0.6434	30	396.01	0.25
0.6494	90	428.96	0.34
0.7008	90	428.54	0.33
0.7158	90	428.49	0.34
0.7221	60	415.48	0.33
0.7371	30	395.68	0.24
0.7384	90	428.19	0.34
0.7783	30	395.66	0.24
0.7839	60	415.1	0.29
0.7898	90	427.71	0.33
0.8168	30	395.54	0.24
0.8405	90	427.38	0.31
0.8574	30	395.53	0.24
0.8608	60	414.69	0.4
0.8782	30	395.54	0.24
0.8796	90	427.38	0.31
0.8825	60	414.87	0.29
0.8851	90	427.17	0.31
0.8871	30	395.63	0.24
0.8966	60	414.56	0.66
0.9091	30	395.56	0.24
0.915	90	427.05	0.31
0.9245	60	414.48	0.31
0.9319	30	395.51	0.24
0.9438	60	414.45	0.44
0.945	90	426.9	0.31
0.9563	30	395.59	0.24
0.9603	60	414.42	0.51
0.9727	60	414.33	1.15
0.9766	90	426.77	0.31
0.9811	30	395.66	0.24
0.9906	30	395.7	0.24

System: hexan-1-ol + hexyl ethanoate; phases: Gas, Liquid
Property: Mole fraction of hexan-1-ol (Gas); method: Chromatography
Mole fraction of hexan-1-ol	Pressure, kPa	Mole fraction of hexan-1-ol	uncertainty
0.016	90	0.0246	0.0246
0.021	60	0.0327	0.0257
0.0263	30	0.0396	0.025
0.0315	90	0.048	0.0254
0.0365	60	0.056	0.0253
0.049	30	0.0732	0.0246
0.0554	90	0.0843	0.0252
0.0664	60	0.1005	0.025
0.0853	90	0.1287	0.0247
0.0902	30	0.1318	0.024
0.1101	60	0.1646	0.0242
0.1212	90	0.1797	0.0234
0.1268	30	0.1815	0.0232
0.1513	60	0.2209	0.0226
0.1634	90	0.2329	0.0227
0.1721	30	0.2398	0.0224
0.2131	90	0.2965	0.0221
0.2254	90	0.3092	0.0221
0.2359	60	0.3236	0.0216
0.2369	30	0.3186	0.0208
0.2384	30	0.3179	0.0208
0.2657	90	0.3561	0.0216
0.2983	60	0.3897	0.0202
0.3052	60	0.3991	0.0202
0.3062	90	0.4024	0.0208
0.3523	30	0.4353	0.0199
0.3657	60	0.4537	0.0198
0.397	90	0.4964	0.0207
0.3998	90	0.4948	0.0206
0.4018	60	0.4891	0.0194
0.4034	60	0.4933	0.0194
0.4365	90	0.535	0.0201
0.4798	90	0.5722	0.0193
0.4852	30	0.5543	0.0191
0.4927	60	0.5687	0.0193
0.5234	60	0.6006	0.02
0.5557	90	0.6393	0.0196
0.5746	90	0.6568	0.0187
0.5819	60	0.6549	0.0188
0.5959	30	0.6437	0.0186
0.6269	60	0.6876	0.0183
0.6434	30	0.6828	0.0185
0.6494	90	0.718	0.0184
0.7008	90	0.7581	0.0178
0.7158	90	0.767	0.0181
0.7221	60	0.7659	0.0182
0.7371	30	0.7587	0.0184
0.7384	90	0.7874	0.0184
0.7783	30	0.7928	0.0184
0.7839	60	0.8131	0.0182
0.7898	90	0.8282	0.0181
0.8168	30	0.8248	0.0186
0.8405	90	0.8685	0.0181
0.8574	30	0.8603	0.0189
0.8608	60	0.8779	0.0182
0.8782	30	0.8795	0.0192
0.8796	90	0.9005	0.018
0.8825	60	0.8967	0.0185
0.8851	90	0.9041	0.018
0.8871	30	0.8876	0.0192
0.8966	60	0.9083	0.0189
0.9091	30	0.9082	0.0194
0.915	90	0.9285	0.0182
0.9245	60	0.932	0.0185
0.9319	30	0.9302	0.0196
0.9438	60	0.9489	0.0189
0.945	90	0.9533	0.0183
0.9563	30	0.9545	0.0199
0.9603	60	0.9637	0.0189
0.9727	60	0.9749	0.0187
0.9766	90	0.98	0.0183
0.9811	30	0.98	0.02
0.9906	30	0.9899	0.0101

System: hexan-1-ol + water; phases: Liquid mixture 1, Liquid mixture 2
Fixed: Pressure, kPa = 101.325
Property: Mole fraction of hexan-1-ol (Liquid mixture 1); method: CHROM:UFactor:4
Temperature, K	Mole fraction of hexan-1-ol	uncertainty
283.38	0.0013	0.0001
293.35	0.0011	0.0001
298.36	0.0011	0.0001
313.26	0.001	0.0001
333.02	0.0011	0.0001
353.15	0.0012	0.0001

System: hexan-1-ol + water; phases: Liquid mixture 2, Liquid mixture 1
Fixed: Pressure, kPa = 101.325
Property: Mole fraction of water (Liquid mixture 2); method: CHROM:UFactor:4
Temperature, K	Mole fraction of water	uncertainty
283.38	0.2941	0.0118
293.35	0.3016	0.0121
298.36	0.3039	0.0122
313.26	0.3208	0.0128
333.02	0.3424	0.0137
353.15	0.3769	0.0151

System: hexyl ethanoate + water; phases: Liquid mixture 1, Liquid mixture 2
Fixed: Pressure, kPa = 101.3
Property: Mole fraction of hexyl ethanoate (Liquid mixture 1); method: Chromatography
Temperature, K	Mole fraction of hexyl ethanoate	uncertainty
283.15	0.0001	0.0001
298.14	0	0.0001
318.14	0	0.0001

System: hexyl ethanoate + water; phases: Liquid mixture 2, Liquid mixture 1
Fixed: Pressure, kPa = 101.3
Property: Mole fraction of water (Liquid mixture 2); method: CHROM:UFactor:4
Temperature, K	Mole fraction of water	uncertainty
283.15	0.0313	0.0313
298.14	0.0555	0.042
318.14	0.0548	0.042

System: acetic acid + hexan-1-ol + water; phases: Liquid mixture 1, Liquid mixture 2
Fixed: Pressure, kPa = 101.3
Property: Mole fraction of acetic acid (Liquid mixture 1); method: Chromatography
Property: Mole fraction of acetic acid (Liquid mixture 2); method: Chromatography
Property: Mole fraction of water (Liquid mixture 2); method: Chromatography
Temperature, K	Mole fraction of water	Mole fraction of acetic acid	uncertainty	Mole fraction of acetic acid	uncertainty	Mole fraction of water	uncertainty
283.32	0.9761	0.0224	0.0224	0.0678	0.0678	0.3426	
283.32	0.9516	0.0466	0.0466	0.1256	0.07	0.3591	
283.32	0.9274	0.0703	0.058	0.1686	0.0778	0.3919	
283.32	0.8781	0.1174	0.058	0.226	0.0611	0.4667	
283.32	0.8405	0.1488	0.058	0.243	0.0586	0.5534	
283.32	0.8141	0.1694	0.058	0.2428	0.0583	0.5919	
298.2	0.9483	0.0498	0.0498	0.134	0.0691	0.3855	
298.2	0.8914	0.1044	0.058	0.2119	0.0584	0.4679	
298.2	0.8006	0.1725	0.058	0.2223	0.0581	0.653	
298.2	0.964	0.0345	0.0345	0.102	0.0872	0.3588	
298.2	0.9284	0.0692	0.058	0.1701	0.0711	0.4138	
318.15	0.98	0.0187	0.0187	0.0647	0.0647	0.3595	
318.15	0.9582	0.04	0.04	0.1171	0.0715	0.3912	
318.15	0.9298	0.0675	0.058	0.1648	0.0653	0.4392	
318.15	0.8796	0.1135	0.058	0.2115	0.0596	0.5316	
318.15	0.8878	0.1064	0.058	0.2069	0.0594	0.5144	
318.15	0.8523	0.1344	0.058	0.2159	0.0581	0.602	

System: acetic acid + hexyl ethanoate + water; phases: Liquid mixture 1, Liquid mixture 2
Fixed: Pressure, kPa = 101.3
Property: Mole fraction of acetic acid (Liquid mixture 1); method: Chromatography
Property: Mole fraction of acetic acid (Liquid mixture 2); method: Chromatography
Property: Mole fraction of water (Liquid mixture 2); method: Chromatography
Temperature, K	Mole fraction of water	Mole fraction of acetic acid	uncertainty	Mole fraction of acetic acid	uncertainty	Mole fraction of water	uncertainty
283.16	0.9436	0.0562	0.0562	0.0732	0.0732	0.0732	
283.16	0.8989	0.1005	0.0713	0.1371	0.0808	0.1133	
283.16	0.8473	0.1513	0.0708	0.2032	0.0835	0.1542	
283.16	0.7966	0.1993	0.0697	0.2646	0.0694	0.2086	
283.16	0.7317	0.2578	0.0693	0.3216	0.0663	0.2835	
298.14	0.9448	0.055	0.055	0.0723	0.0723	0.0831	
298.14	0.8914	0.108	0.0711	0.1498	0.0845	0.1319	
298.14	0.8384	0.1592	0.0704	0.2202	0.0768	0.184	
298.14	0.771	0.2224	0.0701	0.2781	0.0729	0.2402	
318.15	0.9989	0.0011	0.0011	0.0024	0.0024	0.0547	
318.15	0.9446	0.0552	0.0552	0.0742	0.0742	0.1009	
318.15	0.8819	0.1171	0.0706	0.1601	0.0802	0.1585	
318.15	0.842	0.1556	0.0707	0.2025	0.0808	0.1882	
318.15	0.7821	0.2112	0.0687	0.2628	0.0681	0.2431	
318.15	0.7174	0.2647	0.0676	0.3134	0.0647	0.3175	
