Measured thermophysical data. Thermodynamic Properties of Mixtures Containing Ionic Liquids. 7. Activity Coefficients of Aliphatic and Aromatic Esters and Benzylamine in 1-Methyl-3-ethylimidazolium Bis(trifluoromethylsulfonyl) Imide Using the Transpiration Method
Source: J. Chem. Eng. Data, 2006, 10.1021/je050334+
Compound 1: dimethyl 1,6-hexanedioate, C8H14O4, InChI=1S/C8H14O4/c1-11-7(9)5-3-4-6-8(10)12-2/h3-6H2,1-2H3, purity 99.95%
Compound 2: ethyl benzoate, C9H10O2, InChI=1S/C9H10O2/c1-2-11-9(10)8-6-4-3-5-7-8/h3-7H,2H2,1H3, purity 99.95%
Compound 3: benzylamine, C7H9N, InChI=1S/C7H9N/c8-6-7-4-2-1-3-5-7/h1-5H,6,8H2, purity 99.95%
Compound 4: 1-ethyl-3-methylimidazolium bis((trifluoromethyl)sulfonyl)imide, C8H11F6N3O4S2, InChI=1S/C6H11N2.C2F6NO4S2/c1-3-8-5-4-7(2)6-8;3-1(4,5)14(10,11)9-15(12,13)2(6,7)8/h4-6H,3H2,1-2H3;/q+1;-1

System: dimethyl 1,6-hexanedioate; phases: Liquid, Gas
Property: Vapor or sublimation pressure, kPa (Liquid); method: Transpiration method
Temperature, K	Vapor or sublimation pressure, kPa	uncertainty
293.2	0.00253	0.00014
296.2	0.00336	0.00018
299.2	0.00443	0.00024
302.2	0.00586	0.00031
305.2	0.0074	0.00039
308.2	0.00991	0.00052
310.2	0.01133	0.0006
313.3	0.01454	0.00076
316.2	0.01794	0.00095
319.3	0.02356	0.00123
322.2	0.02831	0.00149
325.3	0.03778	0.00198
328.2	0.04592	0.00239
331.2	0.05704	0.00296
334.2	0.06981	0.00359

System: ethyl benzoate; phases: Liquid, Gas
Property: Vapor or sublimation pressure, kPa (Liquid); method: Transpiration method
Temperature, K	Vapor or sublimation pressure, kPa	uncertainty
283.9	0.0071	0.0004
286.9	0.0093	0.0005
289	0.0113	0.0006
292	0.0143	0.0008
294.1	0.0174	0.0009
295	0.0183	0.001
298.1	0.0239	0.0012
299.1	0.0254	0.0014
301.2	0.0312	0.0016
304.2	0.039	0.002
307.2	0.0472	0.0025
310.1	0.0597	0.0031
312.3	0.0716	0.0037
315.3	0.0862	0.0045
317.3	0.1055	0.0056
320.3	0.1297	0.0068
323.4	0.1656	0.0086
326.4	0.2016	0.0104
329.5	0.2452	0.0126
332.5	0.2944	0.0151

System: dimethyl 1,6-hexanedioate + 1-ethyl-3-methylimidazolium bis((trifluoromethyl)sulfonyl)imide; phases: Liquid, Gas
Property: Vapor or sublimation pressure, kPa (Liquid); method: TRANSPIR:UFactor:4
Temperature, K	Mole fraction of dimethyl 1,6-hexanedioate	Vapor or sublimation pressure, kPa	uncertainty
298.65	0.044	5e-05	1e-05
298.65	0.138	0.00036	7e-05
298.65	0.224	0.00074	0.00015
298.65	0.311	0.00113	0.00023
298.65	0.457	0.0015	0.0003
298.65	0.548	0.0023	0.00046
298.65	0.69	0.00297	0.0006
298.65	0.811	0.00343	0.00069
298.65	0.907	0.00381	0.00077
298.65	1	0.00423	0.00085
303.55	0.044	9e-05	2e-05
303.55	0.137	0.0006	0.00012
303.55	0.223	0.00118	0.00024
303.55	0.308	0.00184	0.00037
303.55	0.454	0.00266	0.00053
303.55	0.543	0.00343	0.00069
303.55	0.69	0.00458	0.00092
303.55	0.811	0.00572	0.00115
303.55	0.907	0.00693	0.00139
303.55	1	0.00656	0.00132
308.55	0.044	0.0002	4e-05
308.55	0.136	0.00108	0.00022
308.55	0.22	0.00178	0.00036
308.55	0.303	0.00284	0.00057
308.55	0.45	0.00392	0.00079
308.55	0.538	0.00537	0.00108
308.55	0.689	0.0071	0.00143
308.55	0.81	0.00968	0.00195
308.55	0.906	0.0103	0.0021
308.55	1	0.01	0.002
313.55	0.043	0.00038	8e-05
313.55	0.135	0.00175	0.00035
313.55	0.216	0.00307	0.00062
313.55	0.296	0.00481	0.00097
313.55	0.445	0.00583	0.00117
313.55	0.532	0.00793	0.0016
313.55	0.688	0.01109	0.00223
313.55	0.809	0.01457	0.00292
313.55	0.905	0.01512	0.00303
313.55	1	0.01508	0.00303
318.65	0.043	0.00069	0.00014
318.65	0.133	0.00271	0.00054
318.65	0.211	0.0043	0.00086
318.65	0.282	0.00719	0.00144
318.65	0.437	0.00921	0.00185
318.65	0.524	0.01332	0.00267
318.65	0.684	0.01697	0.00341
318.65	0.807	0.022	0.00441
318.65	0.904	0.02264	0.00454
318.65	1	0.02238	0.00449

System: ethyl benzoate + 1-ethyl-3-methylimidazolium bis((trifluoromethyl)sulfonyl)imide; phases: Liquid, Gas
Property: Vapor or sublimation pressure, kPa (Liquid); method: TRANSPIR:UFactor:4
Temperature, K	Mole fraction of ethyl benzoate	Vapor or sublimation pressure, kPa	uncertainty
298.65	0.112	0.00734	0.00147
298.65	0.245	0.01516	0.00304
298.65	0.339	0.01298	0.0026
298.65	0.508	0.01734	0.00348
298.65	0.588	0.02023	0.00406
298.65	0.72	0.02167	0.00435
298.65	0.852	0.02266	0.00454
298.65	0.952	0.02285	0.00458
298.65	0.979	0.0256	0.00513
298.65	1	0.02484	0.00498
303.55	0.102	0.00885	0.00177
303.55	0.202	0.01471	0.00294
303.55	0.212	0.01626	0.00325
303.55	0.31	0.02017	0.00405
303.55	0.484	0.02508	0.00503
303.55	0.581	0.02923	0.00586
303.55	0.716	0.03225	0.00646
303.55	0.85	0.03321	0.00666
303.55	0.952	0.03432	0.00688
303.55	0.979	0.03557	0.00712
303.55	1	0.03707	0.00744
308.55	0.091	0.01118	0.00225
308.55	0.173	0.01858	0.00372
308.55	0.182	0.01882	0.00377
308.55	0.271	0.02452	0.00493
308.55	0.452	0.03522	0.00708
308.55	0.573	0.04095	0.00823
308.55	0.711	0.04463	0.00896
308.55	0.848	0.04645	0.00934
308.55	0.951	0.04872	0.00979
308.55	0.958	0.04515	0.00909
308.55	1	0.05462	0.01098
313.55	0.08	0.01492	0.003
313.55	0.135	0.02577	0.00517
313.55	0.151	0.02362	0.00476
313.55	0.23	0.03432	0.00689
313.55	0.417	0.04936	0.0099
313.55	0.563	0.05855	0.01175
313.55	0.706	0.06206	0.01246
313.55	0.846	0.07065	0.01418
313.55	0.95	0.07486	0.01501
313.55	0.958	0.07368	0.0148
313.55	1	0.07948	0.01594
318.65	0.069	0.02143	0.00431
318.65	0.183	0.04699	0.00942
318.65	0.374	0.0698	0.014
318.65	0.552	0.08727	0.01749
318.65	0.7	0.09755	0.01956
318.65	0.844	0.10356	0.02075
318.65	0.949	0.10516	0.02107
318.65	0.957	0.11383	0.02282
318.65	1	0.11431	0.0229

System: benzylamine + 1-ethyl-3-methylimidazolium bis((trifluoromethyl)sulfonyl)imide; phases: Liquid, Gas
Property: Vapor or sublimation pressure, kPa (Liquid); method: TRANSPIR:UFactor:4
Temperature, K	Mole fraction of benzylamine	Vapor or sublimation pressure, kPa	uncertainty
298.65	0.124	0.01804	0.00364
298.65	0.193	0.02734	0.00549
298.65	0.3	0.03751	0.00756
298.65	0.362	0.04445	0.00895
298.65	0.44	0.05288	0.01061
298.65	0.57	0.0666	0.01337
298.65	0.656	0.07316	0.01468
298.65	0.741	0.0838	0.0168
298.65	0.876	0.09467	0.01898
298.65	1	0.09434	0.0189
303.65	0.109	0.03178	0.00639
303.65	0.185	0.04249	0.00854
303.65	0.288	0.06683	0.01344
303.65	0.347	0.07591	0.01525
303.65	0.429	0.08037	0.01614
303.65	0.561	0.10184	0.02043
303.65	0.64	0.11193	0.02245
303.65	0.736	0.12183	0.02442
303.65	0.873	0.13521	0.0271
303.65	1	0.13364	0.02678
308.65	0.08	0.04833	0.00976
308.65	0.172	0.07019	0.01417
308.65	0.271	0.10412	0.02104
308.65	0.326	0.11674	0.02353
308.65	0.415	0.13183	0.02661
308.65	0.548	0.15237	0.03065
308.65	0.619	0.16385	0.03293
308.65	0.728	0.17476	0.0351
308.65	0.871	0.19629	0.03942
308.65	1	0.18791	0.03772
313.65	0.042	0.06641	0.01336
313.65	0.153	0.10784	0.02174
313.65	0.249	0.16911	0.034
313.65	0.296	0.17776	0.03572
313.65	0.395	0.21545	0.04323
313.65	0.532	0.22575	0.0453
313.65	0.591	0.23286	0.04671
313.65	0.718	0.24875	0.04989
313.65	0.868	0.27743	0.05562
313.65	1	0.26237	0.05259
318.65	0.132	0.17743	0.03567
318.65	0.219	0.22485	0.04512
318.65	0.262	0.26081	0.05228
318.65	0.368	0.28334	0.05679
318.65	0.511	0.329	0.06594
318.65	0.552	0.32621	0.06539
318.65	0.704	0.3568	0.0715
318.65	0.865	0.38627	0.07734
318.65	1	0.36386	0.07289
