Measured thermophysical data. P-rho-T-x Measurements for (1,1,1,2-Tetrafluoroethane + Triethylene Glycol Dimethyl Ether) at High Haloalkane Content
Source: J. Chem. Eng. Data, 2006, 10.1021/je050503q
Compound 1: 1,1,1,2-tetrafluoroethane, C2H2F4, InChI=1S/C2H2F4/c3-1-2(4,5)6/h1H2, purity 99.9%
Compound 2: 2,5,8,11-tetraoxadodecane, C8H18O4, InChI=1S/C8H18O4/c1-9-3-5-11-7-8-12-6-4-10-2/h3-8H2,1-2H3, purity 99.95%

System: 2,5,8,11-tetraoxadodecane + 1,1,1,2-tetrafluoroethane; phases: Liquid
Property: Mass density, kg/m3 (Liquid); method: VIBTUB:mpoint:UFactor:2
Mole fraction of 1,1,1,2-tetrafluoroethane	Temperature, K	Pressure, kPa	Mass density, kg/m3	uncertainty
0.9485	283.27	1086	1245.33	0.38
0.9485	283.27	2000	1248.44	0.39
0.9485	283.27	3016	1251.83	0.39
0.9485	283.27	4003	1255.03	0.4
0.9485	283.27	5009	1258.22	0.4
0.9485	283.27	6019	1261.33	0.41
0.9485	293.3	1086	1215.38	0.37
0.9485	293.3	2016	1219.06	0.37
0.9485	293.3	2998	1222.84	0.37
0.9485	293.3	3985	1226.51	0.38
0.9485	293.3	5000	1230.18	0.38
0.9485	293.3	6018	1233.75	0.39
0.9485	303.33	1189	1184.28	0.34
0.9485	303.33	1998	1188.03	0.35
0.9485	303.33	2990	1192.49	0.36
0.9485	303.33	3984	1196.79	0.36
0.9485	303.33	5011	1201.05	0.36
0.9485	303.33	5992	1205.02	0.37
0.9485	313.35	1434	1152.06	0.34
0.9485	313.35	2014	1155.26	0.34
0.9485	313.35	2990	1160.47	0.34
0.9485	313.35	3990	1165.56	0.35
0.9485	313.35	4985	1170.41	0.35
0.9485	313.35	5997	1175.14	0.35
0.9485	323.39	1737	1118.26	0.35
0.9485	323.39	1994	1119.99	0.34
0.9485	323.39	3007	1126.53	0.34
0.9485	323.39	3987	1132.49	0.34
0.9485	323.39	4990	1138.29	0.34
0.9485	323.39	5982	1143.72	0.34
0.9655	283.29	1047	1251.56	0.38
0.9655	283.29	1992	1255.06	0.38
0.9655	283.29	2996	1258.69	0.39
0.9655	283.29	3988	1262.16	0.39
0.9655	283.29	4999	1265.62	0.39
0.9655	283.29	5987	1268.91	0.4
0.9655	293.32	1047	1219.81	0.36
0.9655	293.32	2002	1223.94	0.36
0.9655	293.32	2997	1228.11	0.36
0.9655	293.32	3984	1232.11	0.37
0.9655	293.32	5001	1236.1	0.37
0.9655	293.32	5994	1239.88	0.38
0.9655	303.35	1189	1186.88	0.34
0.9655	303.35	2013	1191.11	0.35
0.9655	303.35	2992	1195.95	0.35
0.9655	303.35	4008	1200.76	0.35
0.9655	303.35	4992	1205.25	0.36
0.9655	303.35	5987	1209.62	0.36
0.9655	313.36	1436	1152.44	0.34
0.9655	313.36	3010	1161.91	0.34
0.9655	313.37	2008	1155.97	0.34
0.9655	313.37	4000	1167.49	0.34
0.9655	313.37	5010	1172.9	0.34
0.9655	313.37	5984	1177.91	0.35
0.9655	323.41	1737	1116.04	0.35
0.9655	323.41	1998	1118.03	0.35
0.9655	323.41	3002	1125.33	0.35
0.9655	323.41	4001	1132.15	0.34
0.9655	323.41	4985	1138.48	0.34
0.9655	323.41	6012	1144.72	0.34
0.9798	283.28	1070	1255.94	0.37
0.9798	283.28	1986	1259.56	0.37
0.9798	283.28	2984	1263.39	0.38
0.9798	283.28	4004	1267.2	0.38
0.9798	283.28	4996	1270.8	0.38
0.9798	283.28	5989	1274.3	0.39
0.9798	293.31	1086	1222.61	0.34
0.9798	293.31	2003	1226.87	0.35
0.9798	293.31	2985	1231.29	0.35
0.9798	293.31	4010	1235.72	0.36
0.9798	293.31	4992	1239.84	0.36
0.9798	293.31	6009	1243.96	0.36
0.9798	303.33	1176	1187.73	0.34
0.9798	303.34	2006	1192.33	0.34
0.9798	303.34	3006	1197.65	0.34
0.9798	303.34	4000	1202.73	0.34
0.9798	303.34	4990	1207.56	0.35
0.9798	303.34	6008	1212.35	0.35
0.9798	313.35	1434	1151.46	0.34
0.9798	313.35	2004	1155.29	0.35
0.9798	313.35	2982	1161.59	0.34
0.9798	313.35	4986	1173.51	0.34
0.9798	313.36	3986	1167.71	0.34
0.9798	313.36	5983	1179.03	0.34
0.9798	323.39	1731	1112.96	0.36
0.9798	323.39	1989	1115.09	0.36
0.9798	323.4	3001	1123.14	0.36
0.9798	323.4	4006	1130.6	0.35
0.9798	323.4	4997	1137.51	0.35
0.9798	323.4	5982	1144	0.34
