Measured thermophysical data. Physical Solubility and Diffusivity of N2O and CO2 in Aqueous Sodium Glycinate Solutions
Source: J. Chem. Eng. Data, 2006, 10.1021/je0503913
Compound 1: nitrous oxide, N2O, InChI=1S/N2O/c1-2-3
Compound 2: carbon dioxide, CO2, InChI=1S/CO2/c2-1-3
Compound 3: water, H2O, InChI=1S/H2O/h1H2
Compound 4: sodium glycinate, C2H4NNaO2, InChI=1S/C2H5NO2.Na/c3-1-2(4)5;/h1,3H2,(H,4,5);/q;+1/p-1

System: water + nitrous oxide; phases: Liquid, Gas
Fixed: Pressure, kPa = 101.325
Property: Binary diffusion coefficient, m2/s (Liquid); method: absorber, wetted wall
Temperature, K	Binary diffusion coefficient, m2/s	uncertainty
298.15	1.75e-09	0.18
303.15	2.09e-09	0.21
313.15	2.46e-09	0.25
323.15	3.19e-09	0.32

System: water + nitrous oxide; phases: Liquid, Gas
Fixed: Amount concentration (molarity), mol/dm3 of nitrous oxide = 0
Property: Henry's Law constant (amount concentration scale), kPa*dm3/mol of nitrous oxide (Liquid); method: Chromatography
Temperature, K	Henry's Law constant (amount concentration scale), kPa*dm3/mol of nitrous oxide	uncertainty
303.15	4450.2	178.3
313.15	5504.92	220.62
323.15	7184.98	287.89

System: carbon dioxide + water; phases: Liquid, Gas
Fixed: Pressure, kPa = 101.325
Property: Binary diffusion coefficient, m2/s (Liquid); method: absorber, wetted wall
Temperature, K	Binary diffusion coefficient, m2/s	uncertainty
298.15	1.98e-09	0.2
303.15	2.15e-09	0.22
313.15	2.83e-09	0.28
323.15	3.35e-09	0.34

System: carbon dioxide + water; phases: Liquid, Gas
Fixed: Amount concentration (molarity), mol/dm3 of carbon dioxide = 0
Property: Henry's Law constant (amount concentration scale), kPa*dm3/mol of carbon dioxide (Liquid); method: Chromatography
Temperature, K	Henry's Law constant (amount concentration scale), kPa*dm3/mol of carbon dioxide	uncertainty
303.15	3289.57	131.76
313.15	3965.96	158.88
323.15	5053.03	202.41

System: sodium glycinate + water + nitrous oxide; phases: Liquid, Gas
Fixed: Pressure, kPa = 101.325
Property: Binary diffusion coefficient, m2/s (Liquid); method: absorption, wetted wall
Temperature, K	Amount concentration (molarity), mol/dm3 of sodium glycinate	Binary diffusion coefficient, m2/s	uncertainty
303.15	1.065	1.513e-09	0.152
303.15	2.226	1.424e-09	0.143
303.15	3.466	1.373e-09	0.137
303.15	4.78	1.289e-09	0.129
303.15	6.217	1.224e-09	0.123
313.15	1.061	1.902e-09	0.19
313.15	2.218	1.711e-09	0.171
313.15	3.455	1.478e-09	0.148
313.15	4.764	1.198e-09	0.12
313.15	6.196	8.86e-10	0.089
323.15	1.056	2.178e-09	0.218
323.15	2.209	2.092e-09	0.209
323.15	3.44	1.817e-09	0.182
323.15	4.057	1.344e-09	0.134
323.15	6.17	7.13e-10	0.071

System: sodium glycinate + water + nitrous oxide; phases: Liquid, Gas
Fixed: Amount concentration (molarity), mol/dm3 of nitrous oxide = 0
Property: Henry's Law constant (amount concentration scale), kPa*dm3/mol of sodium glycinate (Liquid); method: Chromatography
Temperature, K	Amount concentration (molarity), mol/dm3 of sodium glycinate	Henry's Law constant (amount concentration scale), kPa*dm3/mol of sodium glycinate	uncertainty
303.15	1.065	4788.19	191.81
303.15	2.226	4977.19	199.43
303.15	3.466	5043.56	202.49
303.15	4.78	5181.73	208.11
303.15	6.217	5327.7	214.39
313.15	1.061	5833.57	233.8
313.15	2.218	6107.02	244.71
313.15	3.455	6797.31	272.33
313.15	4.764	7042.32	282.39
313.15	6.196	7663.61	307.2
323.15	1.056	7695.46	308.38
323.15	2.209	7882.55	315.81
323.15	3.44	8119.02	325.07
323.15	4.057	8457.32	338.57
323.15	6.17	9332.21	373.67
