Measured thermophysical data. Volumetric Behavior and Saturated Pressure for Carbon Dioxide + Ethyl Acetate at a Temperature of 313.15 K
Source: J. Chem. Eng. Data, 2006, 10.1021/je050514j
Compound 1: ethyl acetate, C4H8O2, InChI=1S/C4H8O2/c1-3-6-4(2)5/h3H2,1-2H3, purity 99.9%
Compound 2: carbon dioxide, CO2, InChI=1S/CO2/c2-1-3, purity 99.999%

System: ethyl acetate; phases: Liquid, Gas
Property: Normal boiling temperature, K (Liquid); method: EBULLIO:FP
Normal boiling temperature, K	uncertainty
350.21	0.05

System: ethyl acetate; phases: Liquid
Property: Refractive index (Na D-line) (Liquid); method: Standard Abbe refractometry
Temperature, K	Pressure, kPa	Refractive index (Na D-line)	uncertainty
298.15	101.325	1.3702	0.3

System: ethyl acetate; phases: Liquid
Property: Mass density, kg/m3 (Liquid); method: VIBTUB:UFactor:2
Temperature, K	Pressure, kPa	Mass density, kg/m3	uncertainty
298.15	101.325	894.4	0.3

System: ethyl acetate; phases: Fluid (supercritical or subcritical phases)
Fixed: Temperature, K = 313.15
Property: Mass density, kg/m3 (Fluid (supercritical or subcritical phases)); method: VIBTUB:UFactor:4
Pressure, kPa	Mass density, kg/m3	uncertainty
1000	876.9	0.4
2000	878	0.4
3000	878.9	0.4
4000	880	0.4
5000	881	0.4
6000	881.9	0.4
7000	882.9	0.5
8000	883.9	0.5
9000	884.9	0.5
10000	885.9	0.5

System: carbon dioxide; phases: Fluid (supercritical or subcritical phases)
Fixed: Temperature, K = 313.15
Property: Mass density, kg/m3 (Fluid (supercritical or subcritical phases)); method: VIBTUB:UFactor:4
Pressure, kPa	Mass density, kg/m3	uncertainty
1000	17.8	0.2
2000	37.3	0.2
3000	58.6	0.3
4000	83.4	0.4
5000	112.5	0.5
6000	148.7	0.8
7000	197.5	1.2
8000	276.7	2.7
9000	482.6	3.9
10000	627.3	3.5

System: carbon dioxide + ethyl acetate; phases: Liquid, Gas
Fixed: Temperature, K = 313.15
Property: Vapor or sublimation pressure, kPa (Liquid); method: CCELL:UFactor:6
Mole fraction of carbon dioxide	Vapor or sublimation pressure, kPa	uncertainty
0.1	629	12
0.2	1226	23
0.3	1881	36
0.4	2551	49
0.5	3338	64
0.6	4146	79
0.7	5038	97
0.8	6031	116
0.9	7220	139
0.95	7788	149

System: carbon dioxide + ethyl acetate; phases: Liquid, Gas
Fixed: Temperature, K = 313.15
Property: Mass density, kg/m3 (Liquid); method: VIBTUB:UFactor:12
Pressure, kPa	Mass density, kg/m3	uncertainty
2000	886.7	1
3000	888.3	1.1
4000	885.7	1.1
5000	874.8	1.2
5959	851.7	1.5
6000	849.1	1.5
6500	825.3	1.7
6766	808.6	1.9
6888	798.4	2
6953	792.9	2
7089	780.4	2.1
7153	774.5	2.2
7520	730.4	2.6

System: carbon dioxide + ethyl acetate; phases: Gas, Liquid
Fixed: Temperature, K = 313.15
Property: Mass density, kg/m3 (Gas); method: VIBTUB:UFactor:16
Pressure, kPa	Mass density, kg/m3	uncertainty
2000	38.8	0.8
3000	61.6	1
4000	88.2	1.3
5000	118.6	1.6
5959	156.9	2
6000	159	2.1
6500	184	2.4
6766	200.7	2.6
6888	206.9	2.7
6953	212.9	2.7
7089	223	2.9
7153	227.6	2.9
7520	263.1	3.4

System: carbon dioxide + ethyl acetate; phases: Fluid (supercritical or subcritical phases)
Fixed: Temperature, K = 313.15
Property: Mass density, kg/m3 (Fluid (supercritical or subcritical phases)); method: VIBTUB:UFactor:4
Pressure, kPa	Mole fraction of carbon dioxide	Mass density, kg/m3	uncertainty
1000	0	876.9	0.4
1000	0.1	880.2	0.4
1000	1	17.8	0.2
2000	0	878	0.4
2000	0.1	881.4	0.4
2000	0.2	884.1	0.4
2000	0.3	886.2	0.4
2000	1	37.3	0.2
3000	0	878.9	0.4
3000	0.1	882.5	0.4
3000	0.2	885.4	0.4
3000	0.3	887.6	0.4
3000	0.4	888.8	0.4
3000	1	58.6	0.3
4000	0	880	0.4
4000	0.1	883.7	0.4
4000	0.2	886.7	0.4
4000	0.3	889.1	0.4
4000	0.4	890.6	0.4
4000	0.5	889.9	0.4
4000	1	83.4	0.4
5000	0	881	0.4
5000	0.1	884.7	0.4
5000	0.2	887.9	0.4
5000	0.3	890.5	0.4
5000	0.4	892.2	0.4
5000	0.5	891.9	0.4
5000	1	112.5	0.5
6000	0	881.9	0.4
6000	0.1	885.9	0.4
6000	0.2	889.2	0.4
6000	0.3	891.9	0.4
6000	0.4	893.9	0.4
6000	0.5	893.9	0.4
6000	0.6	890.1	0.4
6000	0.7	879.2	1.6
6000	1	148.7	0.8
7000	0	882.9	0.5
7000	0.1	887	0.4
7000	0.2	890.4	0.4
7000	0.3	893.3	0.4
7000	0.4	895.4	0.4
7000	0.5	895.8	0.4
7000	0.6	892.6	0.4
7000	0.7	882.7	0.5
7000	0.8	858.2	2.2
7000	1	197.5	1.2
8000	0	883.9	0.5
8000	0.1	888	0.5
8000	0.2	891.6	0.4
8000	0.3	894.6	0.4
8000	0.4	897	0.4
8000	0.5	897.7	0.4
8000	0.6	895	0.4
8000	0.7	886.2	0.5
8000	0.8	863.7	0.5
8000	0.9	800.6	3.1
8000	1	276.7	2.7
9000	0	884.9	0.5
9000	0.1	889.1	0.5
9000	0.2	892.7	0.5
9000	0.3	896	0.5
9000	0.4	898.6	0.4
9000	0.5	899.6	0.4
9000	0.6	897.4	0.5
9000	0.7	889.4	0.5
9000	0.8	869	0.5
9000	0.9	813	0.7
9000	0.95	745.6	2
9000	1	482.6	3.9
10000	0	885.9	0.5
10000	0.1	890.1	0.5
10000	0.2	893.9	0.5
10000	0.3	897.2	0.5
10000	0.4	900	0.5
10000	0.5	901.4	0.5
10000	0.6	899.7	0.5
10000	0.7	892.5	0.5
10000	0.8	873.9	0.5
10000	0.9	823.7	0.7
10000	0.95	767.4	0.9
10000	1	627.3	3.5
