Measured thermophysical data. Solubility of Puerarin in Water, Ethanol, and Acetone from (288.2 to 328.2) K
Source: J. Chem. Eng. Data, 2005, 10.1021/je050076g
Compound 1: 4H-1-benzopyran-4-one, 8-.beta.-D-glucopyranosyl-7-hydroxy-3-(4-hydroxyphenyl)-, C21H20O9, InChI=1S/C21H20O9/c22-7-14-17(26)18(27)19(28)21(30-14)15-13(24)6-5-11-16(25)12(8-29-20(11)15)9-1-3-10(23)4-2-9/h1-6,8,14,17-19,21-24,26-28H,7H2/t14-,17-,18+,19-,21+/m1/s1
Compound 2: ethanol, C2H6O, InChI=1S/C2H6O/c1-2-3/h3H,2H2,1H3
Compound 3: acetone, C3H6O, InChI=1S/C3H6O/c1-3(2)4/h1-2H3
Compound 4: water, H2O, InChI=1S/H2O/h1H2

System: ethanol + 4H-1-benzopyran-4-one, 8-.beta.-D-glucopyranosyl-7-hydroxy-3-(4-hydroxyphenyl)-; phases: Liquid, Crystal
Fixed: Pressure, kPa = 101.325
Property: Amount concentration (molarity), mol/dm3 (Liquid); method: SPECTR:UFactor:4
Temperature, K	Amount concentration (molarity), mol/dm3	uncertainty
288.2	0.2954	0.0236
293.2	0.2601	0.0208
298.2	0.2302	0.0184
303.2	0.2081	0.0167
308.2	0.186	0.0149
313.2	0.166	0.0133
318.2	0.1422	0.0114
323.2	0.1298	0.0104
328.2	0.12	0.0096

System: acetone + 4H-1-benzopyran-4-one, 8-.beta.-D-glucopyranosyl-7-hydroxy-3-(4-hydroxyphenyl)-; phases: Liquid, Crystal
Fixed: Pressure, kPa = 101.325
Property: Amount concentration (molarity), mol/dm3 (Liquid); method: SPECTR:UFactor:4
Temperature, K	Amount concentration (molarity), mol/dm3	uncertainty
288.2	0.0325	0.0026
293.2	0.03	0.0024
298.2	0.028	0.0022
303.2	0.027	0.0022
308.2	0.025	0.002
313.2	0.0232	0.0019
318.2	0.0211	0.0017
323.2	0.0201	0.0016
328.2	0.0188	0.0015

System: 4H-1-benzopyran-4-one, 8-.beta.-D-glucopyranosyl-7-hydroxy-3-(4-hydroxyphenyl)- + water; phases: Liquid, Crystal
Fixed: Pressure, kPa = 101.325
Property: Amount concentration (molarity), mol/dm3 (Liquid); method: SPECTR:UFactor:4
Temperature, K	Amount concentration (molarity), mol/dm3	uncertainty
288.2	0.0081	0.0007
293.2	0.0095	0.0008
298.2	0.011	0.0009
303.2	0.0126	0.001
308.2	0.0142	0.0011
313.2	0.0171	0.0014
318.2	0.0202	0.0016
323.2	0.0243	0.0019
328.2	0.0284	0.0023
