Measured thermophysical data. Phase Diagrams of Some Aliphatic Alcohols + Potassium or Sodium Citrate + Water at 25 deg C
Source: J. Chem. Eng. Data, 2005, 10.1021/je050086h
Compound 1: ethanol, C2H6O, InChI=1S/C2H6O/c1-2-3/h3H,2H2,1H3, purity 99.5%
Compound 2: propan-1-ol, C3H8O, InChI=1S/C3H8O/c1-2-3-4/h4H,2-3H2,1H3, purity 99.5%
Compound 3: propan-2-ol, C3H8O, InChI=1S/C3H8O/c1-3(2)4/h3-4H,1-2H3, purity 99.7%
Compound 4: butan-2-ol, C4H10O, InChI=1S/C4H10O/c1-3-4(2)5/h4-5H,3H2,1-2H3, purity 99%
Compound 5: 2-methylpropan-2-ol, C4H10O, InChI=1S/C4H10O/c1-4(2,3)5/h5H,1-3H3, purity 99.5%
Compound 6: water, H2O, InChI=1S/H2O/h1H2
Compound 7: potassium citrate, C6H5K3O7, InChI=1S/C6H8O7.3K/c7-3(8)1-6(13,5(11)12)2-4(9)10;;;/h13H,1-2H2,(H,7,8)(H,9,10)(H,11,12);;;/q;3*+1/p-3, purity 99%
Compound 8: trisodium citrate, C6H5Na3O7, InChI=1S/C6H8O7.3Na/c7-3(8)1-6(13,5(11)12)2-4(9)10;;;/h13H,1-2H2,(H,7,8)(H,9,10)(H,11,12);;;/q;3*+1/p-3, purity 99%

System: ethanol + trisodium citrate + water; phases: Liquid mixture 1, Liquid mixture 2
Fixed: Pressure, kPa = 101.3
Fixed: Temperature, K = 298
Property: Mass fraction of trisodium citrate (Liquid mixture 1); method: TITR:UFactor:2
Mass fraction of ethanol	Mass fraction of trisodium citrate	uncertainty
0.2695	0.141	0.0088
0.274	0.1348	0.0084
0.2771	0.1335	0.0083
0.289	0.1238	0.0077
0.2918	0.122	0.0076
0.3067	0.1103	0.0068
0.3117	0.1073	0.0067
0.3293	0.0949	0.0059
0.3404	0.0887	0.0055
0.3614	0.0749	0.0046
0.3673	0.0718	0.0045
0.3936	0.0583	0.0036
0.4274	0.0425	0.0026
0.444	0.0366	0.0023
0.4581	0.0313	0.0019
0.4717	0.0286	0.0018
0.4911	0.0233	0.0014
0.5111	0.0192	0.0012

System: trisodium citrate + propan-1-ol + water; phases: Liquid mixture 1, Liquid mixture 2
Fixed: Pressure, kPa = 101.3
Fixed: Temperature, K = 298
Property: Mass fraction of trisodium citrate (Liquid mixture 1); method: TITR:UFactor:2
Mass fraction of propan-1-ol	Mass fraction of trisodium citrate	uncertainty
0.1449	0.0955	0.0059
0.1747	0.0808	0.005
0.1826	0.0753	0.0047
0.1976	0.0727	0.0045
0.2155	0.0676	0.0042
0.2226	0.0652	0.004
0.2336	0.0623	0.0039
0.2398	0.0607	0.0038
0.2565	0.056	0.0035
0.2634	0.055	0.0034
0.2934	0.0487	0.003
0.3071	0.0445	0.0028
0.3369	0.0397	0.0025
0.3647	0.0345	0.0021
0.4013	0.0277	0.0017

System: propan-2-ol + trisodium citrate + water; phases: Liquid mixture 1, Liquid mixture 2
Fixed: Pressure, kPa = 101.3
Fixed: Temperature, K = 298
Property: Mass fraction of trisodium citrate (Liquid mixture 1); method: TITR:UFactor:2
Mass fraction of propan-2-ol	Mass fraction of trisodium citrate	uncertainty
0.1319	0.1679	0.0104
0.1468	0.1565	0.0097
0.1783	0.1347	0.0084
0.2157	0.1134	0.007
0.2536	0.094	0.0058
0.2904	0.0762	0.0047
0.313	0.0655	0.0041
0.3295	0.0589	0.0037
0.3568	0.048	0.003
0.3757	0.0424	0.0026
0.3995	0.035	0.0022
0.4244	0.0286	0.0018
0.4406	0.0244	0.0015
0.4538	0.0219	0.0014

System: trisodium citrate + butan-2-ol + water; phases: Liquid mixture 1, Liquid mixture 2
Fixed: Pressure, kPa = 101.3
Fixed: Temperature, K = 298
Property: Mass fraction of trisodium citrate (Liquid mixture 1); method: TITR:UFactor:2
Mass fraction of butan-2-ol	Mass fraction of trisodium citrate	uncertainty
0.0456	0.1304	0.0081
0.0708	0.0858	0.0054
0.0826	0.0691	0.0043
0.0874	0.0659	0.0041
0.0998	0.0531	0.0035
0.1016	0.0478	0.0032
0.1139	0.0372	0.0023
0.1209	0.0297	0.0019
0.1256	0.0269	0.0017
0.1323	0.0201	0.0013
0.1383	0.0146	0.001
0.1427	0.014	0.0009
0.15	0.0093	0.0007

System: trisodium citrate + 2-methylpropan-2-ol + water; phases: Liquid mixture 1, Liquid mixture 2
Fixed: Pressure, kPa = 101.3
Fixed: Temperature, K = 298
Property: Mass fraction of trisodium citrate (Liquid mixture 1); method: TITR:UFactor:2
Mass fraction of 2-methylpropan-2-ol	Mass fraction of trisodium citrate	uncertainty
0.136	0.0953	0.0059
0.146	0.0887	0.0055
0.1478	0.0879	0.0055
0.1683	0.0756	0.0047
0.1765	0.0733	0.0045
0.1998	0.0645	0.004
0.2112	0.0615	0.0038
0.2367	0.0544	0.0035
0.238	0.0517	0.0033
0.2686	0.0463	0.0029
0.3008	0.0384	0.0024
0.3214	0.0339	0.0021
0.3527	0.0298	0.0018
0.3957	0.0228	0.0014
0.4282	0.018	0.0011
0.4586	0.0141	0.0009

System: ethanol + potassium citrate + water; phases: Liquid mixture 1, Liquid mixture 2
Fixed: Pressure, kPa = 101.3
Fixed: Temperature, K = 298
Property: Mass fraction of potassium citrate (Liquid mixture 1); method: TITR:UFactor:2
Mass fraction of ethanol	Mass fraction of potassium citrate	uncertainty
0.3344	0.1262	0.0078
0.3387	0.1227	0.0076
0.3496	0.1159	0.0072
0.3636	0.1063	0.0066
0.3777	0.0975	0.006
0.4068	0.0801	0.005
0.4359	0.0651	0.004
0.4611	0.0531	0.0033
0.4797	0.0453	0.0028
0.4959	0.0387	0.0024
0.5072	0.0333	0.0021
0.53	0.0275	0.0017

System: propan-1-ol + potassium citrate + water; phases: Liquid mixture 1, Liquid mixture 2
Fixed: Pressure, kPa = 101.3
Fixed: Temperature, K = 298
Property: Mass fraction of potassium citrate (Liquid mixture 1); method: TITR:UFactor:2
Mass fraction of propan-1-ol	Mass fraction of potassium citrate	uncertainty
0.1548	0.1009	0.0063
0.1906	0.0862	0.0053
0.2115	0.0787	0.0049
0.2439	0.0688	0.0043
0.2884	0.0573	0.0036
0.3249	0.0496	0.0031
0.368	0.0402	0.0025
0.3913	0.0353	0.0022
0.4215	0.0296	0.0018
0.4394	0.0264	0.0016
0.4606	0.0228	0.0014
0.477	0.021	0.0013
0.4834	0.0195	0.0012
0.4961	0.0179	0.0011
0.5136	0.0156	0.001

System: propan-2-ol + potassium citrate + water; phases: Liquid mixture 1, Liquid mixture 2
Fixed: Pressure, kPa = 101.3
Fixed: Temperature, K = 298
Property: Mass fraction of potassium citrate (Liquid mixture 1); method: TITR:UFactor:2
Mass fraction of propan-2-ol	Mass fraction of potassium citrate	uncertainty
0.2032	0.1369	0.0085
0.2427	0.1162	0.0072
0.3	0.0885	0.0055
0.3473	0.068	0.0042
0.3959	0.0494	0.0031
0.4249	0.041	0.0025
0.4551	0.0329	0.002
0.4779	0.0267	0.0017
0.5035	0.021	0.0013
0.5163	0.0192	0.0012
0.5238	0.0174	0.0011
0.5274	0.0154	0.001

System: butan-2-ol + potassium citrate + water; phases: Liquid mixture 1, Liquid mixture 2
Fixed: Pressure, kPa = 101.3
Fixed: Temperature, K = 298
Property: Mass fraction of potassium citrate (Liquid mixture 1); method: TITR:UFactor:2
Mass fraction of butan-2-ol	Mass fraction of potassium citrate	uncertainty
0.044	0.1532	0.0095
0.0584	0.1277	0.0079
0.0739	0.1006	0.0063
0.0862	0.0804	0.005
0.0985	0.0631	0.004
0.1059	0.0514	0.0032
0.1139	0.0435	0.0027
0.1175	0.0399	0.0025
0.1309	0.0266	0.0017
0.1337	0.0235	0.0015
0.1456	0.0169	0.0011
0.1522	0.0135	0.0009
0.1703	0.0046	0.0005

System: 2-methylpropan-2-ol + potassium citrate + water; phases: Liquid mixture 1, Liquid mixture 2
Fixed: Pressure, kPa = 101.3
Fixed: Temperature, K = 298
Property: Mass fraction of potassium citrate (Liquid mixture 1); method: TITR:UFactor:2
Mass fraction of 2-methylpropan-2-ol	Mass fraction of potassium citrate	uncertainty
0.1492	0.0955	0.0059
0.1881	0.0762	0.0047
0.237	0.0601	0.0037
0.2928	0.0478	0.003
0.342	0.0375	0.0023
0.3794	0.0303	0.0019
0.408	0.0257	0.0016
0.4255	0.0227	0.0014
0.4464	0.0196	0.0012
0.462	0.0174	0.0011
0.4765	0.0153	0.001
