Measured thermophysical data. Densities and Viscosities of 1-Butyl-3-methylimidazolium Tetrafluoroborate + H2O Binary Mixtures from (303.15 to 353.15) K
Source: J. Chem. Eng. Data, 2006, 10.1021/je050387r
Compound 1: water, H2O, InChI=1S/H2O/h1H2, purity 99%
Compound 2: 1-butyl-3-methylimidazolium tetrafluoroborate, C8H15BF4N2, InChI=1S/C8H15N2.BF4/c1-3-4-5-10-7-6-9(2)8-10;2-1(3,4)5/h6-8H,3-5H2,1-2H3;/q+1;-1

System: 1-butyl-3-methylimidazolium tetrafluoroborate; phases: Liquid
Fixed: Pressure, kPa = 101
Property: Viscosity, Pa*s (Liquid); method: CAPTUB:UFactor:32
Temperature, K	Viscosity, Pa*s	uncertainty
303.15	0.07421	0.01621
308.15	0.05818	0.00495
313.15	0.04651	0.00603
318.15	0.03779	0.00494
323.15	0.03108	0.00411
333.15	0.02152	0.00292
343.15	0.01561	0.00219
353.15	0.01149	0.00167

System: 1-butyl-3-methylimidazolium tetrafluoroborate; phases: Liquid
Fixed: Pressure, kPa = 101
Property: Mass density, kg/m3 (Liquid); method: PYCNOM:UFactor:8
Temperature, K	Mass density, kg/m3	uncertainty
303.15	1198.4	2.6
308.15	1195.4	2.7
313.15	1192.2	2.8
318.15	1189	2.9
323.15	1186	3
333.15	1179.8	3.1
343.15	1173.5	3.3
353.15	1167.4	3.5

System: water + 1-butyl-3-methylimidazolium tetrafluoroborate; phases: Liquid
Fixed: Pressure, kPa = 101
Property: Viscosity, Pa*s (Liquid); method: CAPTUB:UFactor:32
Mole fraction of water	Temperature, K	Viscosity, Pa*s	uncertainty
0	303.15	0.07421	0.01621
0	308.15	0.05818	0.00495
0	313.15	0.04651	0.00603
0	318.15	0.03779	0.00494
0	323.15	0.03108	0.00411
0	333.15	0.02152	0.00292
0	343.15	0.01561	0.00219
0	353.15	0.01149	0.00167
0.1002	303.15	0.04761	0.00618
0.1002	308.15	0.03812	0.00499
0.1002	313.15	0.03072	0.00407
0.1002	318.15	0.02572	0.00344
0.1002	323.15	0.02149	0.00292
0.1002	333.15	0.01542	0.00216
0.1002	343.15	0.01146	0.00167
0.1002	353.15	0.00863	0.00132
0.209	303.15	0.03489	0.00458
0.209	308.15	0.02835	0.00377
0.209	313.15	0.0235	0.00317
0.209	318.15	0.01964	0.00269
0.209	323.15	0.01674	0.00233
0.209	333.15	0.01202	0.00174
0.209	343.15	0.00898	0.00136
0.209	353.15	0.00679	0.00109
0.2984	303.15	0.02332	0.00315
0.2984	308.15	0.01942	0.00266
0.2984	313.15	0.01615	0.00225
0.2984	318.15	0.01407	0.00199
0.2984	323.15	0.01167	0.0017
0.2984	333.15	0.00859	0.00131
0.2984	343.15	0.00646	0.00105
0.2984	353.15	0.00496	0.00086
0.4001	303.15	0.01657	0.00231
0.4001	308.15	0.01357	0.00193
0.4001	313.15	0.01144	0.00167
0.4001	318.15	0.00972	0.00145
0.4001	323.15	0.00841	0.00129
0.4001	333.15	0.00616	0.00101
0.4001	343.15	0.00468	0.00082
0.4001	353.15	0.00356	0.00063
0.5014	303.15	0.01205	0.00174
0.5014	308.15	0.0105	0.00155
0.5014	313.15	0.00898	0.00136
0.5014	318.15	0.00777	0.00121
0.5014	323.15	0.0068	0.00109
0.5014	333.15	0.00528	0.0009
0.5014	343.15	0.00424	0.00074
0.5014	353.15	0.00344	0.00061
0.6004	303.15	0.01005	0.00149
0.6004	308.15	0.00869	0.00133
0.6004	313.15	0.0074	0.00117
0.6004	318.15	0.0064	0.00104
0.6004	323.15	0.00569	0.00095
0.6004	333.15	0.00475	0.00083
0.6004	343.15	0.00375	0.00066
0.6004	353.15	0.00319	0.00057
0.7	303.15	0.0067	0.00108
0.7	308.15	0.00585	0.00097
0.7	313.15	0.00535	0.00091
0.7	318.15	0.00453	0.00079
0.7	323.15	0.00405	0.00071
0.7	333.15	0.00329	0.00059
0.7	343.15	0.00273	0.00049
0.7	353.15	0.00231	0.00042
0.8	303.15	0.00436	0.00076
0.8	308.15	0.0038	0.00067
0.8	313.15	0.00336	0.0006
0.8	318.15	0.00299	0.00054
0.8	323.15	0.00268	0.00048
0.8	333.15	0.00219	0.0004
0.8	343.15	0.00182	0.00034
0.8	353.15	0.00154	0.00029
0.8999	303.15	0.00253	0.00046
0.8999	308.15	0.00221	0.0004
0.8999	313.15	0.00195	0.00036
0.8999	318.15	0.00173	0.00032
0.8999	323.15	0.00154	0.00029
0.8999	333.15	0.00128	0.00025
0.8999	343.15	0.00107	0.00021
0.8999	353.15	0.00091	0.00018
1	303.15	0.0008	0.00016
1	308.15	0.00072	0.00015
1	313.15	0.00065	0.00014
1	318.15	0.0006	0.00013
1	323.15	0.00055	0.00012
1	333.15	0.00047	0.00011
1	343.15	0.0004	9e-05
1	353.15	0.00035	9e-05

System: water + 1-butyl-3-methylimidazolium tetrafluoroborate; phases: Liquid
Fixed: Pressure, kPa = 101
Property: Mass density, kg/m3 (Liquid); method: PYCNOM:UFactor:8
Mole fraction of water	Temperature, K	Mass density, kg/m3	uncertainty
0	303.15	1198.4	2.6
0	308.15	1195.4	2.7
0	313.15	1192.2	2.8
0	318.15	1189	2.9
0	323.15	1186	3
0	333.15	1179.8	3.1
0	343.15	1173.5	3.3
0	353.15	1167.4	3.5
0.1002	303.15	1194.8	2.6
0.1002	308.15	1191.7	2.7
0.1002	313.15	1188.4	2.8
0.1002	318.15	1185.3	2.9
0.1002	323.15	1182.3	3
0.1002	333.15	1175.8	3.1
0.1002	343.15	1169.4	3.3
0.1002	353.15	1163.1	3.5
0.209	303.15	1191.5	2.6
0.209	308.15	1188.3	2.7
0.209	313.15	1185.2	2.8
0.209	318.15	1181.9	2.9
0.209	323.15	1178.7	3
0.209	333.15	1172.4	3.1
0.209	343.15	1165.8	3.3
0.209	353.15	1159.5	3.5
0.2984	303.15	1188.1	2.6
0.2984	308.15	1184.9	2.7
0.2984	313.15	1181.5	2.8
0.2984	318.15	1178	2.9
0.2984	323.15	1174.8	3
0.2984	333.15	1168.2	3.1
0.2984	343.15	1161.4	3.3
0.2984	353.15	1155.3	3.4
0.4001	303.15	1183.3	2.6
0.4001	308.15	1180.1	2.7
0.4001	313.15	1176.7	2.8
0.4001	318.15	1173	2.9
0.4001	323.15	1169.8	2.9
0.4001	333.15	1163	3.1
0.4001	343.15	1156.1	3.3
0.4001	353.15	1149.1	3.4
0.5014	303.15	1176.2	2.6
0.5014	308.15	1173.1	2.7
0.5014	313.15	1169.8	2.8
0.5014	318.15	1166.2	2.8
0.5014	323.15	1162.8	2.9
0.5014	333.15	1155.5	3.1
0.5014	343.15	1148.7	3.3
0.5014	353.15	1141.7	3.4
0.6004	303.15	1167	2.6
0.6004	308.15	1163.8	2.7
0.6004	313.15	1160.5	2.7
0.6004	318.15	1157.2	2.8
0.6004	323.15	1153.7	2.9
0.6004	333.15	1146.2	3.1
0.6004	343.15	1138.9	3.2
0.6004	353.15	1131.5	3.4
0.7	303.15	1154.8	2.5
0.7	308.15	1151.9	2.6
0.7	313.15	1148.7	2.7
0.7	318.15	1144.8	2.8
0.7	323.15	1141.4	2.9
0.7	333.15	1133.1	3
0.7	343.15	1124.7	3.2
0.7	353.15	1116.3	3.4
0.8	303.15	1134.7	2.5
0.8	308.15	1131.9	2.6
0.8	313.15	1128.9	2.7
0.8	318.15	1125	2.7
0.8	323.15	1121.7	2.8
0.8	333.15	1114.2	3
0.8	343.15	1106.8	3.2
0.8	353.15	1098.1	3.4
0.8999	303.15	1099.5	3.6
0.8999	308.15	1095.5	2.5
0.8999	313.15	1091.9	2.6
0.8999	318.15	1089.9	2.6
0.8999	323.15	1086.5	2.7
0.8999	333.15	1078.9	2.9
0.8999	343.15	1071.7	3.1
0.8999	353.15	1064.7	3.7
1	303.15	995.7	2.1
1	308.15	994	2.2
1	313.15	992.2	2.3
1	318.15	990.2	2.4
1	323.15	988.1	2.5
1	333.15	983.2	2.6
1	343.15	977.8	2.8
1	353.15	971.8	3
