Measured thermophysical data. Excess Molar Enthalpies and Hydrogen Bonding in Binary Mixtures Containing Ethers and Benzyl Alcohol at 308.15 K and Atmospheric Pressure
Source: J. Chem. Eng. Data, 2006, 10.1021/je0504212
Compound 1: dibutyl ether, C8H18O, InChI=1S/C8H18O/c1-3-5-7-9-8-6-4-2/h3-8H2,1-2H3
Compound 2: 2-ethoxyethan-1-ol, C4H10O2, InChI=1S/C4H10O2/c1-2-6-4-3-5/h5H,2-4H2,1H3
Compound 3: diethylene glycol, C4H10O3, InChI=1S/C4H10O3/c5-1-3-7-4-2-6/h5-6H,1-4H2
Compound 4: 1,2-dimethoxyethane, C4H10O2, InChI=1S/C4H10O2/c1-5-3-4-6-2/h3-4H2,1-2H3
Compound 5: 1,2-diethoxyethane, C6H14O2, InChI=1S/C6H14O2/c1-3-7-5-6-8-4-2/h3-6H2,1-2H3
Compound 6: 3,6-dioxa-1-octanol, C6H14O3, InChI=1S/C6H14O3/c1-2-8-5-6-9-4-3-7/h7H,2-6H2,1H3
Compound 7: triethylene glycol, C6H14O4, InChI=1S/C6H14O4/c7-1-3-9-5-6-10-4-2-8/h7-8H,1-6H2
Compound 8: diethylene glycol diethyl ether, C8H18O3, InChI=1S/C8H18O3/c1-3-9-5-7-11-8-6-10-4-2/h3-8H2,1-2H3
Compound 9: 2-(2-(2-ethoxyethoxy)ethoxy)ethanol, C8H18O4, InChI=1S/C8H18O4/c1-2-10-5-6-12-8-7-11-4-3-9/h9H,2-8H2,1H3
Compound 10: tetraethylene glycol, C8H18O5, InChI=1S/C8H18O5/c9-1-3-11-5-7-13-8-6-12-4-2-10/h9-10H,1-8H2
Compound 11: benzenemethanol, C7H8O, InChI=1S/C7H8O/c8-6-7-4-2-1-3-5-7/h1-5,8H,6H2

System: dibutyl ether; phases: Liquid
Property: Mass density, kg/m3 (Liquid); method: VIBTUB:UFactor:4
Temperature, K	Pressure, kPa	Mass density, kg/m3	uncertainty
308.5	101.325	755.22	0.64

System: 2-ethoxyethan-1-ol; phases: Liquid
Property: Mass density, kg/m3 (Liquid); method: VIBTUB:UFactor:4
Temperature, K	Pressure, kPa	Mass density, kg/m3	uncertainty
308.5	101.325	916	0.53

System: diethylene glycol; phases: Liquid
Property: Mass density, kg/m3 (Liquid); method: VIBTUB:UFactor:4
Temperature, K	Pressure, kPa	Mass density, kg/m3	uncertainty
308.5	101.325	1105.86	0.63

System: 1,2-dimethoxyethane; phases: Liquid
Property: Mass density, kg/m3 (Liquid); method: VIBTUB:UFactor:4
Temperature, K	Pressure, kPa	Mass density, kg/m3	uncertainty
308.5	101.325	850.28	0.56

System: 1,2-diethoxyethane; phases: Liquid
Property: Mass density, kg/m3 (Liquid); method: VIBTUB:UFactor:4
Temperature, K	Pressure, kPa	Mass density, kg/m3	uncertainty
308.5	101.325	826.22	0.58

System: 3,6-dioxa-1-octanol; phases: Liquid
Property: Mass density, kg/m3 (Liquid); method: VIBTUB:UFactor:4
Temperature, K	Pressure, kPa	Mass density, kg/m3	uncertainty
308.5	101.325	974.67	0.52

System: triethylene glycol; phases: Liquid
Property: Mass density, kg/m3 (Liquid); method: VIBTUB:UFactor:4
Temperature, K	Pressure, kPa	Mass density, kg/m3	uncertainty
308.5	101.325	1112.59	0.64

System: diethylene glycol diethyl ether; phases: Liquid
Property: Mass density, kg/m3 (Liquid); method: VIBTUB:UFactor:4
Temperature, K	Pressure, kPa	Mass density, kg/m3	uncertainty
308.5	101.325	893.08	0.54

System: 2-(2-(2-ethoxyethoxy)ethoxy)ethanol; phases: Liquid
Property: Mass density, kg/m3 (Liquid); method: VIBTUB:UFactor:4
Temperature, K	Pressure, kPa	Mass density, kg/m3	uncertainty
308.5	101.325	1008.8	1.04

System: tetraethylene glycol; phases: Liquid
Property: Mass density, kg/m3 (Liquid); method: VIBTUB:UFactor:4
Temperature, K	Pressure, kPa	Mass density, kg/m3	uncertainty
308.5	101.325	1112.32	0.64

System: benzenemethanol; phases: Liquid
Property: Mass density, kg/m3 (Liquid); method: VIBTUB:UFactor:4
Temperature, K	Pressure, kPa	Mass density, kg/m3	uncertainty
308.5	101.325	1033.64	0.55

System: benzenemethanol + dibutyl ether; phases: Liquid
Fixed: Pressure, kPa = 101
Fixed: Temperature, K = 308.15
Property: Excess molar enthalpy (molar enthalpy of mixing), kJ/mol (Liquid); method: Flow calorimetry
Mole fraction of dibutyl ether	Excess molar enthalpy (molar enthalpy of mixing), kJ/mol	uncertainty
0.0247	-0.0067	0.0008
0.0481	0.001	0.0008
0.0705	0.0178	0.0009
0.0918	0.0403	0.0011
0.1317	0.0927	0.0015
0.1682	0.1487	0.0019
0.2327	0.2533	0.0027
0.288	0.3435	0.0034
0.3776	0.4754	0.0045
0.4765	0.5882	0.0053
0.5482	0.6422	0.0058
0.6454	0.6809	0.006
0.7082	0.6883	0.0061
0.7845	0.6726	0.006
0.8292	0.6413	0.0057
0.8792	0.5697	0.0052
0.9357	0.4007	0.0039

System: benzenemethanol + 2-ethoxyethan-1-ol; phases: Liquid
Fixed: Pressure, kPa = 101
Fixed: Temperature, K = 308.15
Property: Excess molar enthalpy (molar enthalpy of mixing), kJ/mol (Liquid); method: Flow calorimetry
Mole fraction of 2-ethoxyethan-1-ol	Excess molar enthalpy (molar enthalpy of mixing), kJ/mol	uncertainty
0.0424	-0.0908	0.0015
0.0814	-0.162	0.002
0.1173	-0.2184	0.0025
0.1505	-0.2656	0.0028
0.21	-0.3361	0.0034
0.2617	-0.3853	0.0038
0.3471	-0.4414	0.0042
0.4148	-0.4607	0.0043
0.5154	-0.4578	0.0043
0.6147	-0.419	0.004
0.6802	-0.3754	0.0037
0.7613	-0.3019	0.0031
0.8097	-0.2478	0.0027
0.8645	-0.1766	0.0021
0.8948	-0.1336	0.0018
0.9273	-0.0884	0.0015
0.9623	-0.0416	0.0011

System: benzenemethanol + 1,2-dimethoxyethane; phases: Liquid
Fixed: Pressure, kPa = 101
Fixed: Temperature, K = 308.15
Property: Excess molar enthalpy (molar enthalpy of mixing), kJ/mol (Liquid); method: Flow calorimetry
Mole fraction of 1,2-dimethoxyethane	Excess molar enthalpy (molar enthalpy of mixing), kJ/mol	uncertainty
0.0395	0.0723	0.0013
0.076	0.0567	0.0012
0.1098	0.0029	0.0008
0.1413	-0.0625	0.0013
0.1979	-0.1823	0.0022
0.2476	-0.2649	0.0028
0.3305	-0.3351	0.0034
0.3969	-0.3347	0.0034
0.4968	-0.2612	0.0028
0.5969	-0.1225	0.0017
0.6638	0.0128	0.0009
0.7476	0.2272	0.0025
0.7979	0.3643	0.0036
0.8555	0.4893	0.0046
0.8876	0.517	0.0048
0.9221	0.4859	0.0045
0.9595	0.3449	0.0034

System: benzenemethanol + 1,2-diethoxyethane; phases: Liquid
Fixed: Pressure, kPa = 101
Fixed: Temperature, K = 308.15
Property: Excess molar enthalpy (molar enthalpy of mixing), kJ/mol (Liquid); method: Flow calorimetry
Mole fraction of 1,2-diethoxyethane	Excess molar enthalpy (molar enthalpy of mixing), kJ/mol	uncertainty
0.0296	-0.0494	0.0012
0.0575	-0.1223	0.0017
0.0838	-0.2022	0.0023
0.1087	-0.2757	0.0029
0.1546	-0.3981	0.0039
0.196	-0.4781	0.0045
0.2678	-0.5489	0.005
0.3278	-0.5536	0.0051
0.4225	-0.5121	0.0047
0.5232	-0.449	0.0043
0.594	-0.3957	0.0038
0.687	-0.2859	0.003
0.7453	-0.1835	0.0022
0.8144	-0.0385	0.0011
0.8541	0.0428	0.0011
0.8977	0.1095	0.0016
0.9461	0.1243	0.0017

System: benzenemethanol + 3,6-dioxa-1-octanol; phases: Liquid
Fixed: Pressure, kPa = 101
Fixed: Temperature, K = 308.15
Property: Excess molar enthalpy (molar enthalpy of mixing), kJ/mol (Liquid); method: Flow calorimetry
Mole fraction of 3,6-dioxa-1-octanol	Excess molar enthalpy (molar enthalpy of mixing), kJ/mol	uncertainty
0.0289	-0.197	0.0023
0.0561	-0.3463	0.0035
0.0819	-0.461	0.0043
0.1063	-0.5515	0.005
0.1514	-0.6808	0.006
0.1921	-0.7696	0.0067
0.2629	-0.8717	0.0075
0.3223	-0.9193	0.0079
0.4164	-0.9413	0.0081
0.517	-0.8963	0.0077
0.588	-0.8322	0.0072
0.6816	-0.7117	0.0063
0.7405	-0.6172	0.0056
0.8106	-0.487	0.0045
0.8509	-0.4008	0.0039
0.8954	-0.2957	0.0031
0.9448	-0.1646	0.0021

System: benzenemethanol + diethylene glycol diethyl ether; phases: Liquid
Fixed: Pressure, kPa = 101
Fixed: Temperature, K = 308.15
Property: Excess molar enthalpy (molar enthalpy of mixing), kJ/mol (Liquid); method: Flow calorimetry
Mole fraction of diethylene glycol diethyl ether	Excess molar enthalpy (molar enthalpy of mixing), kJ/mol	uncertainty
0.0234	-0.1676	0.0021
0.0458	-0.3044	0.0031
0.0672	-0.4167	0.004
0.0876	-0.5083	0.0047
0.1259	-0.6473	0.0058
0.1611	-0.7418	0.0065
0.2236	-0.8493	0.0074
0.2774	-0.8916	0.0077
0.3655	-0.8906	0.0077
0.4635	-0.8255	0.0072
0.5353	-0.7498	0.0066
0.6334	-0.6247	0.0056
0.6973	-0.5306	0.0049
0.7756	-0.4016	0.0039
0.8217	-0.3203	0.0033
0.8736	-0.2245	0.0025
0.9325	-0.1148	0.0017

System: benzenemethanol + 2-(2-(2-ethoxyethoxy)ethoxy)ethanol; phases: Liquid
Fixed: Pressure, kPa = 101
Fixed: Temperature, K = 308.15
Property: Excess molar enthalpy (molar enthalpy of mixing), kJ/mol (Liquid); method: Flow calorimetry
Mole fraction of 2-(2-(2-ethoxyethoxy)ethoxy)ethanol	Excess molar enthalpy (molar enthalpy of mixing), kJ/mol	uncertainty
0.0241	-0.1969	0.0023
0.047	-0.3533	0.0035
0.0689	-0.4763	0.0045
0.0898	-0.5746	0.0052
0.129	-0.7169	0.0063
0.1648	-0.8135	0.0071
0.2284	-0.9273	0.008
0.283	-0.9874	0.0084
0.3719	-1.0363	0.0088
0.4704	-1.03	0.0088
0.5422	-0.9851	0.0084
0.6398	-0.8691	0.0075
0.7031	-0.7647	0.0067
0.7804	-0.6104	0.0055
0.8257	-0.51	0.0048
0.8766	-0.3858	0.0038
0.9343	-0.2268	0.0026
