Measured thermophysical data. Vapor-Liquid Equilibria on Seven Binary Systems: Ethylene Oxide + 2-Methylpropane; Acetophenone + Phenol; cis-1,3-Dichloropropene + 1,2-Dichloropropane; 1,5-Hexadiene + Allyl Chloride; Isopropyl Acetate + Acetonitrile; Vinyl Chloride + Methyl Chloride; and 1,4-Butanediol + c-Butyrolactone
Source: J. Chem. Eng. Data, 2006, 10.1021/je050317k
Compound 1: oxirane, C2H4O, InChI=1S/C2H4O/c1-2-3-1/h1-2H2, purity 99.5%
Compound 2: 2-methylpropane, C4H10, InChI=1S/C4H10/c1-4(2)3/h4H,1-3H3
Compound 3: acetophenone, C8H8O, InChI=1S/C8H8O/c1-7(9)8-5-3-2-4-6-8/h2-6H,1H3
Compound 4: phenol, C6H6O, InChI=1S/C6H6O/c7-6-4-2-1-3-5-6/h1-5,7H
Compound 5: (Z)-1,3-dichloro-1-propene, C3H4Cl2, InChI=1S/C3H4Cl2/c4-2-1-3-5/h1-2H,3H2/b2-1-
Compound 6: 1,2-dichloropropane, C3H6Cl2, InChI=1S/C3H6Cl2/c1-3(5)2-4/h3H,2H2,1H3
Compound 7: 1,5-hexadiene, C6H10, InChI=1S/C6H10/c1-3-5-6-4-2/h3-4H,1-2,5-6H2
Compound 8: 3-chloro-1-propene, C3H5Cl, InChI=1S/C3H5Cl/c1-2-3-4/h2H,1,3H2
Compound 9: 1-methylethyl ethanoate, C5H10O2, InChI=1S/C5H10O2/c1-4(2)7-5(3)6/h4H,1-3H3
Compound 10: acetonitrile, C2H3N, InChI=1S/C2H3N/c1-2-3/h1H3
Compound 11: chloroethene, C2H3Cl, InChI=1S/C2H3Cl/c1-2-3/h2H,1H2, purity 99.5%
Compound 12: chloromethane, CH3Cl, InChI=1S/CH3Cl/c1-2/h1H3, purity 99.9%
Compound 13: 1,4-butanediol, C4H10O2, InChI=1S/C4H10O2/c5-3-1-2-4-6/h5-6H,1-4H2
Compound 14: .gamma.-butyrolactone, C4H6O2, InChI=1S/C4H6O2/c5-4-2-1-3-6-4/h1-3H2

System: oxirane; phases: Liquid, Gas
Property: Vapor or sublimation pressure, kPa (Liquid); method: CCELL::UFactor:2
Temperature, K	Vapor or sublimation pressure, kPa	uncertainty
298.15	174.71	1.63
348.15	766.7	5

System: 2-methylpropane; phases: Liquid, Gas
Property: Vapor or sublimation pressure, kPa (Liquid); method: CCELL::UFactor:2
Temperature, K	Vapor or sublimation pressure, kPa	uncertainty
298.15	352.39	2.84
348.15	1212.7	7.9

System: acetophenone; phases: Liquid, Gas
Property: Vapor or sublimation pressure, kPa (Liquid); method: CCELL::UFactor:2
Temperature, K	Vapor or sublimation pressure, kPa	uncertainty
373.1	3.573	0.091
433.15	32.024	0.236

System: phenol; phases: Liquid, Gas
Property: Vapor or sublimation pressure, kPa (Liquid); method: CCELL::UFactor:2
Temperature, K	Vapor or sublimation pressure, kPa	uncertainty
373.1	5.506	0.116
433.15	53.234	0.37

System: (Z)-1,3-dichloro-1-propene; phases: Liquid, Gas
Property: Vapor or sublimation pressure, kPa (Liquid); method: CCELL::UFactor:2
Temperature, K	Vapor or sublimation pressure, kPa	uncertainty
333.15	22.605	0.25
353.15	47.292	0.42

System: 1,2-dichloropropane; phases: Liquid, Gas
Property: Vapor or sublimation pressure, kPa (Liquid); method: CCELL::UFactor:2
Temperature, K	Vapor or sublimation pressure, kPa	uncertainty
333.15	30.138	0.272
353.15	61.068	0.44

System: 1,5-hexadiene; phases: Liquid, Gas
Property: Vapor or sublimation pressure, kPa (Liquid); method: CCELL::UFactor:2
Temperature, K	Vapor or sublimation pressure, kPa	uncertainty
333.15	103.15	1.3
373.1	316.61	2.24

System: 3-chloro-1-propene; phases: Liquid, Gas
Property: Vapor or sublimation pressure, kPa (Liquid); method: CCELL::UFactor:2
Temperature, K	Vapor or sublimation pressure, kPa	uncertainty
333.15	164.65	1.65
373.1	489.25	3.38

System: 1-methylethyl ethanoate; phases: Liquid, Gas
Property: Vapor or sublimation pressure, kPa (Liquid); method: CCELL::UFactor:2
Temperature, K	Vapor or sublimation pressure, kPa	uncertainty
333.15	37.733	0.441
393.15	249.59	1.75
453.15	939.9	6

System: acetonitrile; phases: Liquid, Gas
Property: Vapor or sublimation pressure, kPa (Liquid); method: CCELL::UFactor:2
Temperature, K	Vapor or sublimation pressure, kPa	uncertainty
333.15	49.155	0.533
393.15	297.37	2.07
453.15	1096.9	7

System: chloroethene; phases: Liquid, Gas
Property: Vapor or sublimation pressure, kPa (Liquid); method: CCELL::UFactor:2
Temperature, K	Vapor or sublimation pressure, kPa	uncertainty
273.1	172	1.8
313.15	601.5	4

System: chloromethane; phases: Liquid, Gas
Property: Vapor or sublimation pressure, kPa (Liquid); method: CCELL:UFactor:2
Temperature, K	Vapor or sublimation pressure, kPa	uncertainty
273.1	260.1	2.4
313.15	870.9	5.6

System: 1,4-butanediol; phases: Liquid, Gas
Property: Vapor or sublimation pressure, kPa (Liquid); method: CCELL::UFactor:2
Temperature, K	Vapor or sublimation pressure, kPa	uncertainty
383.15	0.664	0.064

System: .gamma.-butyrolactone; phases: Liquid, Gas
Property: Vapor or sublimation pressure, kPa (Liquid); method: CCELL::UFactor:2
Temperature, K	Vapor or sublimation pressure, kPa	uncertainty
383.15	5.15	0.087

System: oxirane + 2-methylpropane; phases: Liquid, Gas
Property: Vapor or sublimation pressure, kPa (Liquid); method: CCELL:UFactor:2
Temperature, K	Mole fraction of oxirane	Vapor or sublimation pressure, kPa	uncertainty
298.15	0	352.39	2.84
298.15	0.0424	361.91	2.91
298.15	0.1111	371.97	2.99
298.15	0.2576	379.21	3.06
298.15	0.3826	375.21	3.04
298.15	0.4506	371.01	3.01
298.15	0.4622	369.77	3
298.15	0.5238	364.46	2.96
298.15	0.5972	356.18	2.89
298.15	0.6794	343.7	2.8
298.15	0.8211	308.2	2.5
298.15	0.897	273.45	2.27
298.15	0.9504	231.87	2
298.15	1	174.71	1.63
348.15	0	1212.7	7.9
348.15	0.0415	1241.7	8.1
348.15	0.1096	1279.5	8.3
348.15	0.2567	1314.5	8.5
348.15	0.383	1309.7	8.5
348.15	0.4516	1297.3	8.4
348.15	0.4625	1295.3	8.4
348.15	0.5251	1276.7	8.3
348.15	0.5993	1248.3	8.1
348.15	0.6831	1205.5	7.8
348.15	0.8268	1089.3	7
348.15	0.9019	988.9	6.4
348.15	0.9535	890.7	5.8
348.15	1	766.7	5

System: acetophenone + phenol; phases: Liquid, Gas
Property: Vapor or sublimation pressure, kPa (Liquid); method: CCELL:UFactor:2
Temperature, K	Mole fraction of acetophenone	Vapor or sublimation pressure, kPa	uncertainty
373.1	0	5.506	0.116
373.1	0.0483	5.229	0.113
373.1	0.103	4.904	0.11
373.1	0.2097	4.305	0.104
373.1	0.3142	3.774	0.098
373.1	0.4074	3.408	0.093
373.1	0.4911	3.222	0.091
373.1	0.5092	3.172	0.091
373.1	0.5888	3.098	0.089
373.1	0.6923	3.118	0.089
373.1	0.7936	3.232	0.089
373.1	0.8955	3.412	0.09
373.1	0.9562	3.508	0.09
373.1	1	3.573	0.091
433.15	0	53.234	0.37
433.15	0.0604	50.709	0.354
433.15	0.1088	48.676	0.341
433.15	0.215	43.86	0.31
433.15	0.3236	39.191	0.281
433.15	0.4289	35.425	0.257
433.15	0.5213	33.001	0.241
433.15	0.5436	32.487	0.238
433.15	0.5895	31.817	0.234
433.15	0.5966	31.779	0.234
433.15	0.6898	31.145	0.23
433.15	0.6899	31.064	0.229
433.15	0.7941	31.084	0.229
433.15	0.8983	31.477	0.232
433.15	0.9456	31.801	0.234
433.15	1	32.024	0.236

System: 1,2-dichloropropane + (Z)-1,3-dichloro-1-propene; phases: Liquid, Gas
Property: Vapor or sublimation pressure, kPa (Liquid); method: CCELL:UFactor:2
Temperature, K	Mole fraction of (Z)-1,3-dichloro-1-propene	Vapor or sublimation pressure, kPa	uncertainty
333.15	0	30.138	0.272
333.15	0.0434	29.835	0.27
333.15	0.1011	29.387	0.268
333.15	0.207	28.688	0.266
333.15	0.308	27.903	0.263
333.15	0.4127	27.068	0.261
333.15	0.4631	26.731	0.26
333.15	0.5156	26.218	0.258
333.15	0.5819	25.835	0.257
333.15	0.6957	24.826	0.255
333.15	0.7924	24.085	0.253
333.15	0.8916	23.433	0.252
333.15	0.9469	23.074	0.251
333.15	1	22.605	0.25
353.15	0	61.068	0.44
353.15	0.0614	60.259	0.437
353.15	0.1131	59.451	0.434
353.15	0.2223	58.185	0.431
353.15	0.3162	56.878	0.428
353.15	0.4174	55.565	0.426
353.15	0.4475	54.933	0.423
353.15	0.4905	54.441	0.424
353.15	0.5256	54.036	0.424
353.15	0.5897	53.089	0.423
353.15	0.6916	51.765	0.422
353.15	0.7939	50.232	0.421
353.15	0.8884	48.912	0.421
353.15	0.9431	48.105	0.42
353.15	1	47.292	0.42

System: 3-chloro-1-propene + 1,5-hexadiene; phases: Liquid, Gas
Property: Vapor or sublimation pressure, kPa (Liquid); method: CCELL:UFactor:2
Temperature, K	Mole fraction of 1,5-hexadiene	Vapor or sublimation pressure, kPa	uncertainty
333.15	0	164.65	1.65
333.15	0.0535	162.92	1.64
333.15	0.1042	161.48	1.63
333.15	0.2118	157.06	1.6
333.15	0.3089	152.17	1.57
333.15	0.4129	146.31	1.53
333.15	0.4722	142.93	1.52
333.15	0.5098	141.41	1.5
333.15	0.5791	136.38	1.48
333.15	0.6843	128.93	1.44
333.15	0.7739	122.45	1.4
333.15	0.873	113.9	1.4
333.15	0.9406	108.11	1.33
333.15	1	103.15	1.3
373.1	0	489.25	3.38
373.1	0.0538	483.18	3.33
373.1	0.1048	477.53	3.29
373.1	0.2126	463.26	3.19
373.1	0.3098	448.78	3.08
373.1	0.4136	432.71	2.97
373.1	0.4727	425.27	2.91
373.1	0.5103	417.68	2.86
373.1	0.5799	406.51	2.78
373.1	0.6854	386.11	2.64
373.1	0.775	368.52	2.54
373.1	0.8739	346.05	2.41
373.1	0.9411	330.74	2.32
373.1	1	316.61	2.24

System: acetonitrile + 1-methylethyl ethanoate; phases: Liquid, Gas
Property: Vapor or sublimation pressure, kPa (Liquid); method: CCELL:UFactor:2
Temperature, K	Mole fraction of 1-methylethyl ethanoate	Vapor or sublimation pressure, kPa	uncertainty
333.15	0	49.155	0.533
333.15	0.0468	49.995	0.544
333.15	0.1061	50.595	0.551
333.15	0.2038	51.277	0.559
333.15	0.3057	51.164	0.561
333.15	0.3193	51.369	0.561
333.15	0.3578	50.945	0.56
333.15	0.4002	50.856	0.558
333.15	0.5049	49.877	0.551
333.15	0.587	48.893	0.542
333.15	0.7026	46.879	0.524
333.15	0.7928	45.1	0.507
333.15	0.8846	42.087	0.48
333.15	0.9407	40.125	0.463
333.15	1	37.733	0.441
393.15	0	297.37	2.07
393.15	0.0506	304.2	2.11
393.15	0.1035	308.68	2.14
393.15	0.155	312.61	2.17
393.15	0.2566	315.43	2.21
393.15	0.2914	314.68	2.18
393.15	0.3623	315.09	2.18
393.15	0.3908	313.37	2.17
393.15	0.4912	310.4	2.15
393.15	0.591	304.47	2.11
393.15	0.7015	294.82	2.05
393.15	0.7882	285.17	1.98
393.15	0.8944	270.07	1.88
393.15	0.9472	260.9	1.82
393.15	1	249.59	1.75
453.15	0	1096.9	7
453.15	0.0502	1117.3	7.1
453.15	0.103	1133.1	7.2
453.15	0.1545	1142.7	7.2
453.15	0.2565	1152.5	7.3
453.15	0.2914	1153	7.3
453.15	0.3624	1151.2	7.3
453.15	0.3911	1147.2	7.3
453.15	0.4922	1136.2	7.2
453.15	0.5929	1114.7	7.1
453.15	0.7042	1082.1	6.9
453.15	0.7911	1049.7	6.7
453.15	0.8965	1001.1	6.4
453.15	0.9485	972.5	6.2
453.15	1	939.9	6

System: chloromethane + chloroethene; phases: Liquid, Gas
Property: Vapor or sublimation pressure, kPa (Liquid); method: CCELL:UFactor:2
Temperature, K	Mole fraction of chloroethene	Vapor or sublimation pressure, kPa	uncertainty
273.1	0	260.1	2.4
273.1	0.0509	255.5	2.3
273.1	0.0964	251.1	2.3
273.1	0.2104	241	2.2
273.1	0.2628	236	2.2
273.1	0.3768	227	2.1
273.1	0.4286	222.2	2.1
273.1	0.4484	220.1	2.1
273.1	0.5166	213.9	2.1
273.1	0.5207	213.3	2
273.1	0.5773	208.3	2
273.1	0.6292	203.9	2
273.1	0.6805	199.4	2
273.1	0.796	189.2	1.9
273.1	0.8989	180.7	1.8
273.1	0.9411	176.8	1.8
273.1	1	172	1.8
313.15	0	870.9	5.6
313.15	0.0516	856	5.5
313.15	0.0976	843.2	5.5
313.15	0.2123	812	5.3
313.15	0.2649	796.5	5.2
313.15	0.3788	767.2	5
313.15	0.4296	753.6	4.9
313.15	0.4502	747.9	4.9
313.15	0.5181	728.7	4.7
313.15	0.5221	727.7	4.7
313.15	0.5789	712.6	4.6
313.15	0.6301	700.1	4.6
313.15	0.6822	685.5	4.5
313.15	0.7975	655.2	4.3
313.15	0.8999	628.7	4.1
313.15	0.9417	617.8	4.1
313.15	1	601.5	4

System: .gamma.-butyrolactone + 1,4-butanediol; phases: Gas, Liquid
Fixed: Temperature, K = 383.15
Property: Mole fraction of 1,4-butanediol (Gas); method: Chromatography
Mole fraction of 1,4-butanediol	Mole fraction of 1,4-butanediol	uncertainty
0.1008	0.0353	0.0014
0.3061	0.0773	0.0032
0.4108	0.0943	0.0039
0.5157	0.1106	0.0045
0.6091	0.1328	0.0054
0.7067	0.1659	0.0068

System: .gamma.-butyrolactone + 1,4-butanediol; phases: Liquid, Gas
Fixed: Temperature, K = 383.15
Property: Vapor or sublimation pressure, kPa (Liquid); method: CCELL:UFactor:2
Mole fraction of 1,4-butanediol	Vapor or sublimation pressure, kPa	uncertainty
0	5.15	0.087
0.0549	5.048	0.086
0.1091	4.892	0.086
0.2022	4.632	0.084
0.3417	4.268	0.083
0.4075	4.11	0.082
0.42	4.068	0.082
0.4542	3.993	0.081
0.4984	3.833	0.08
0.5553	3.658	0.08
0.5701	3.61	0.079
0.6603	3.265	0.078
0.7737	2.694	0.075
0.8811	1.917	0.072
0.9296	1.452	0.071
1	0.664	0.064
