Measured thermophysical data. Densities and Vapor Pressures of Highly Fluorinated Compounds
Source: J. Chem. Eng. Data, 2005, 10.1021/je050056e
Compound 1: eicosafluorononane, C9F20, InChI=1S/C9F20/c10-1(11,2(12,13)4(16,17)6(20,21)8(24,25)26)3(14,15)5(18,19)7(22,23)9(27,28)29, purity 99%
Compound 2: perfluorodecalin, C10F18, InChI=1S/C10F18/c11-1-2(12,5(17,18)9(25,26)7(21,22)3(1,13)14)6(19,20)10(27,28)8(23,24)4(1,15)16, purity 99%
Compound 3: perfluorohexane, C6F14, InChI=1S/C6F14/c7-1(8,3(11,12)5(15,16)17)2(9,10)4(13,14)6(18,19)20, purity 99%
Compound 4: 1-bromoperfluorooctane, C8BrF17, InChI=1S/C8BrF17/c9-7(22,23)5(18,19)3(14,15)1(10,11)2(12,13)4(16,17)6(20,21)8(24,25)26, purity 99%
Compound 5: 1H-perfluorooctane, C8HF17, InChI=1S/C8HF17/c9-1(10)2(11,12)3(13,14)4(15,16)5(17,18)6(19,20)7(21,22)8(23,24)25/h1H, purity 99%
Compound 6: octafluorotoluene, C7F8, InChI=1S/C7F8/c8-2-1(7(13,14)15)3(9)5(11)6(12)4(2)10, purity 99%
Compound 7: hexafluorobenzene, C6F6, InChI=1S/C6F6/c7-1-2(8)4(10)6(12)5(11)3(1)9, purity 99%

System: eicosafluorononane; phases: Liquid, Gas
Property: Vapor or sublimation pressure, kPa (Liquid); method: CCELL:UFactor:6
Temperature, K	Vapor or sublimation pressure, kPa	uncertainty
288.18	0.68	0.04
293.18	0.94	0.05
298.11	1.29	0.07
303.1	1.71	0.06
308.19	2.32	0.07
313.17	3.06	0.08
318.22	3.99	0.09
323.15	5.14	0.1
328.15	6.59	0.11
333.15	8.42	0.13

System: eicosafluorononane; phases: Liquid
Fixed: Pressure, kPa = 101.325
Property: Mass density, kg/m3 (Liquid); method: VIBTUB:UFactor:4
Temperature, K	Mass density, kg/m3	uncertainty
288.15	1812.2	1.7
293.15	1800.1	1.7
298.15	1787.9	1.7
303.15	1775.7	1.7
313.15	1750.9	1.6

System: perfluorodecalin; phases: Liquid, Gas
Property: Vapor or sublimation pressure, kPa (Liquid); method: CCELL:UFactor:6
Temperature, K	Vapor or sublimation pressure, kPa	uncertainty
288.25	0.57	0.03
293.25	0.73	0.04
298.21	0.91	0.05
303.29	1.25	0.06
308.23	1.59	0.06
313.22	2.05	0.07
318.21	2.66	0.07
323.18	3.45	0.08
328.17	4.41	0.09
333.2	5.47	0.1

System: perfluorodecalin; phases: Liquid
Fixed: Pressure, kPa = 101.325
Property: Mass density, kg/m3 (Liquid); method: VIBTUB:UFactor:4
Temperature, K	Mass density, kg/m3	uncertainty
288.15	1952.8	1.9
293.15	1941.7	1.9
298.15	1930.5	1.9
303.15	1919.2	1.9
313.15	1896.6	1.8

System: perfluorohexane; phases: Liquid, Gas
Property: Vapor or sublimation pressure, kPa (Liquid); method: CCELL:UFactor:6
Temperature, K	Vapor or sublimation pressure, kPa	uncertainty
288.31	18.78	2.01
293.22	23.58	2.01
298.09	29.28	2.02
302.98	36.19	2.03
307.97	44.38	2.04
313.17	54.56	2.06
318.15	65.86	2.09
323.13	78.91	2.13
328.11	94.08	2.17
333.1	111.39	2.23

System: perfluorohexane; phases: Liquid
Fixed: Pressure, kPa = 101.325
Property: Mass density, kg/m3 (Liquid); method: VIBTUB:UFactor:4
Temperature, K	Mass density, kg/m3	uncertainty
288.15	1705.6	1.5
293.15	1691	1.5
298.15	1676.1	1.5
303.15	1661.1	1.5
313.15	1630.2	1.4

System: 1-bromoperfluorooctane; phases: Liquid, Gas
Property: Vapor or sublimation pressure, kPa (Liquid); method: CCELL:UFactor:6
Temperature, K	Vapor or sublimation pressure, kPa	uncertainty
288.22	0.38	0.02
293.2	0.54	0.03
298.08	0.69	0.04
303.26	0.98	0.05
308.22	1.3	0.06
313.18	1.67	0.06
318.09	2.24	0.07
322.92	2.89	0.08
327.88	3.69	0.08
332.78	4.7	0.09

System: 1-bromoperfluorooctane; phases: Liquid
Fixed: Pressure, kPa = 101.325
Property: Mass density, kg/m3 (Liquid); method: VIBTUB:UFactor:4
Temperature, K	Mass density, kg/m3	uncertainty
288.15	1938.6	1.9
293.15	1926.7	1.9
298.15	1914.8	1.9
303.15	1902.8	1.9
308.15	1890.8	1.8
313.15	1878.6	1.8

System: 1H-perfluorooctane; phases: Liquid, Gas
Property: Vapor or sublimation pressure, kPa (Liquid); method: CCELL:UFactor:6
Temperature, K	Vapor or sublimation pressure, kPa	uncertainty
288.35	1.18	0.06
293.26	1.6	0.06
298.26	2.18	0.07
303.19	2.84	0.07
308.15	3.72	0.08
313.13	4.87	0.1
318.06	6.22	0.11
323.01	8.07	0.13
328	10.25	0.15
332.89	12.83	0.17

System: 1H-perfluorooctane; phases: Liquid
Fixed: Pressure, kPa = 101.325
Property: Mass density, kg/m3 (Liquid); method: VIBTUB:UFactor:4
Temperature, K	Mass density, kg/m3	uncertainty
288.15	1773.6	1.6
293.15	1761.8	1.6
298.15	1749.9	1.6
303.15	1737.9	1.6
308.15	1725.8	1.6
313.15	1713.6	1.6

System: octafluorotoluene; phases: Liquid, Gas
Property: Vapor or sublimation pressure, kPa (Liquid); method: CCELL:UFactor:6
Temperature, K	Vapor or sublimation pressure, kPa	uncertainty
288.23	2.18	0.07
293.2	2.95	0.08
298.28	3.87	0.09
303.18	5.09	0.1
308.15	6.54	0.11
313.15	8.43	0.13
318.15	10.69	0.15
323.15	13.38	0.18
328.45	16.86	0.22
333.93	21.31	0.26

System: octafluorotoluene; phases: Liquid
Fixed: Pressure, kPa = 101.325
Property: Mass density, kg/m3 (Liquid); method: VIBTUB:UFactor:4
Temperature, K	Mass density, kg/m3	uncertainty
288.15	1682.8	1.5
293.15	1672.2	1.5
298.15	1661.6	1.5
303.15	1650.9	1.4
308.15	1640.2	1.4
313.15	1629.4	1.4

System: hexafluorobenzene; phases: Liquid, Gas
Property: Vapor or sublimation pressure, kPa (Liquid); method: CCELL:UFactor:6
Temperature, K	Vapor or sublimation pressure, kPa	uncertainty
288.23	6.9	0.12
293.51	9	0.14
297.98	11.16	0.16
302.96	14.2	0.19
307.96	17.93	0.23
312.96	22.25	0.27
317.96	27.56	0.33
322.96	33.85	0.39
327.95	41.16	0.46
333.01	49.95	0.54

System: hexafluorobenzene; phases: Liquid
Fixed: Pressure, kPa = 101.325
Property: Mass density, kg/m3 (Liquid); method: VIBTUB:UFactor:4
Temperature, K	Mass density, kg/m3	uncertainty
288.15	1628.9	1.4
293.15	1617.5	1.4
298.15	1606.2	1.4
303.15	1594.8	1.4
308.15	1583.3	1.3
313.15	1571.8	1.3
