Measured thermophysical data. Viscosity Measurements on Methanol Vapor and Their Evaluation
Source: J. Chem. Eng. Data, 2006, 10.1021/je050429b
Compound 1: methanol, CH4O, InChI=1S/CH4O/c1-2/h2H,1H3

System: methanol; phases: Gas
Property: Viscosity, Pa*s (Gas); method: Oscillating disk viscometry
Temperature, K	Amount density, mol/m3	Viscosity, Pa*s	uncertainty
297.64	3.79	9.594e-06	4.88e-07
312.54	3.79	1.0098e-05	5.03e-07
324.75	3.79	1.0504e-05	5.15e-07
338.69	3.79	1.0977e-05	5.29e-07
352.91	3.79	1.1478e-05	5.44e-07
352.93	3.79	1.1444e-05	5.43e-07
366.84	3.79	1.1914e-05	5.57e-07
381.27	3.79	1.2396e-05	5.72e-07
395.39	3.79	1.2872e-05	5.86e-07
411.3	3.79	1.343e-05	6.03e-07
423.5	3.79	1.3828e-05	6.15e-07
440.61	3.79	1.4412e-05	6.32e-07
468.85	3.79	1.5365e-05	6.61e-07
496.65	3.79	1.6308e-05	6.89e-07
525.41	3.79	1.7267e-05	7.18e-07
547.13	3.79	1.802e-05	7.41e-07
569.26	3.79	1.8787e-05	7.64e-07
597.6	3.79	1.9772e-05	7.93e-07
298.16	6.32	9.594e-06	4.88e-07
312.25	6.32	1.0076e-05	5.02e-07
325.91	6.32	1.0544e-05	5.16e-07
339.77	6.32	1.1007e-05	5.3e-07
353.3	6.32	1.148e-05	5.44e-07
355.5	6.32	1.152e-05	5.46e-07
367.84	6.32	1.1949e-05	5.59e-07
382.15	6.32	1.2438e-05	5.73e-07
396.23	6.32	1.2908e-05	5.87e-07
411.31	6.32	1.3425e-05	6.03e-07
424.73	6.32	1.3883e-05	6.17e-07
440.07	6.32	1.4406e-05	6.32e-07
297.43	8.17	9.551e-06	4.87e-07
311.23	8.17	1.0023e-05	5.01e-07
325.15	8.17	1.0502e-05	5.15e-07
338.47	8.17	1.0951e-05	5.29e-07
352.62	8.17	1.1434e-05	5.43e-07
353.05	8.17	1.1457e-05	5.44e-07
366.82	8.17	1.191e-05	5.57e-07
381.38	8.17	1.2405e-05	5.72e-07
394.76	8.17	1.2857e-05	5.86e-07
412.33	8.17	1.346e-05	6.04e-07
423.31	8.17	1.3821e-05	6.15e-07
437.81	8.17	1.4312e-05	6.29e-07
496.4	8.17	1.6275e-05	6.88e-07
525.42	8.17	1.7265e-05	7.18e-07
546.79	8.17	1.8001e-05	7.4e-07
602.56	8.17	1.9937e-05	7.98e-07
297.41	10.1	9.532e-06	4.86e-07
313.89	10.1	1.0084e-05	5.03e-07
325.22	10.1	1.0496e-05	5.15e-07
338.62	10.1	1.0942e-05	5.28e-07
352.86	10.1	1.1425e-05	5.43e-07
353.44	10.1	1.1471e-05	5.44e-07
366.59	10.1	1.1892e-05	5.57e-07
380.86	10.1	1.2381e-05	5.71e-07
394.63	10.1	1.2854e-05	5.86e-07
409.51	10.1	1.3362e-05	6.01e-07
423.96	10.1	1.3852e-05	6.16e-07
437.6	10.1	1.4314e-05	6.29e-07
467.33	10.1	1.5302e-05	6.59e-07
496.56	10.1	1.6289e-05	6.89e-07
298.54	13.2	9.579e-06	4.87e-07
314.18	13.2	1.0076e-05	5.02e-07
325.76	13.2	1.0488e-05	5.15e-07
339.34	13.2	1.0957e-05	5.29e-07
353.22	13.2	1.1435e-05	5.43e-07
353.26	13.2	1.1432e-05	5.43e-07
367.1	13.2	1.1894e-05	5.57e-07
380.97	13.2	1.2361e-05	5.71e-07
395.4	13.2	1.2853e-05	5.86e-07
409.39	13.2	1.3331e-05	6e-07
423.77	13.2	1.3826e-05	6.15e-07
438.41	13.2	1.4318e-05	6.3e-07
467.74	13.2	1.531e-05	6.59e-07
496.43	13.2	1.6273e-05	6.88e-07
526.39	13.2	1.7286e-05	7.19e-07
546.84	13.2	1.7978e-05	7.39e-07
567.4	13.2	1.8684e-05	7.61e-07
596.93	13.2	1.9693e-05	7.91e-07
301.53	17.93	9.672e-06	4.9e-07
311.12	17.93	9.959e-06	4.99e-07
325.59	17.93	1.0455e-05	5.14e-07
339.25	17.93	1.0937e-05	5.28e-07
353.58	17.93	1.1426e-05	5.43e-07
355.67	17.93	1.1485e-05	5.45e-07
366.93	17.93	1.1881e-05	5.56e-07
381.53	17.93	1.2385e-05	5.72e-07
395.23	17.93	1.2846e-05	5.85e-07
412.01	17.93	1.3385e-05	6.02e-07
424.38	17.93	1.3827e-05	6.15e-07
439.47	17.93	1.4335e-05	6.3e-07
468.08	17.93	1.5318e-05	6.6e-07
496.41	17.93	1.6289e-05	6.89e-07
527.99	17.93	1.7343e-05	7.2e-07
548.52	17.93	1.8063e-05	7.42e-07
571.83	17.93	1.8856e-05	7.66e-07
597.15	17.93	1.9726e-05	7.92e-07
299.92	24.58	9.618e-06	4.89e-07
310.88	24.58	9.948e-06	4.98e-07
325.98	24.58	1.0417e-05	5.13e-07
340.14	24.58	1.0918e-05	5.28e-07
353.71	24.58	1.1421e-05	5.43e-07
355.05	24.58	1.1428e-05	5.43e-07
368.03	24.58	1.1902e-05	5.57e-07
383.55	24.58	1.2429e-05	5.73e-07
395.18	24.58	1.2821e-05	5.85e-07
409.75	24.58	1.3327e-05	6e-07
424.41	24.58	1.3819e-05	6.15e-07
439.2	24.58	1.4318e-05	6.3e-07
466.95	24.58	1.5281e-05	6.58e-07
496.44	24.58	1.6292e-05	6.89e-07
526.84	24.58	1.7304e-05	7.19e-07
299.79	32.22	9.602e-06	4.88e-07
311.6	32.22	9.969e-06	4.99e-07
324.78	32.22	1.0382e-05	5.11e-07
338.66	32.22	1.0826e-05	5.25e-07
353.78	32.22	1.1385e-05	5.42e-07
355.04	32.22	1.1427e-05	5.43e-07
366.99	32.22	1.184e-05	5.55e-07
381.92	32.22	1.2368e-05	5.71e-07
395.16	32.22	1.2818e-05	5.85e-07
410.18	32.22	1.3332e-05	6e-07
423.88	32.22	1.3796e-05	6.14e-07
439.16	32.22	1.4305e-05	6.29e-07
467.62	32.22	1.5281e-05	6.58e-07
496.97	32.22	1.6302e-05	6.89e-07
526.17	32.22	1.7268e-05	7.18e-07
547.3	32.22	1.801e-05	7.4e-07
567.53	32.22	1.8724e-05	7.62e-07
597.12	32.22	1.9747e-05	7.92e-07
297.92	38.68	9.555e-06	4.87e-07
311.6	38.68	9.971e-06	4.99e-07
326.88	38.68	1.0437e-05	5.13e-07
338.72	38.68	1.0796e-05	5.24e-07
353.06	38.68	1.1321e-05	5.4e-07
353.18	38.68	1.1336e-05	5.4e-07
367.87	38.68	1.1842e-05	5.55e-07
381.9	38.68	1.2329e-05	5.7e-07
395.37	38.68	1.2805e-05	5.84e-07
410.35	38.68	1.3314e-05	5.99e-07
425.1	38.68	1.3803e-05	6.14e-07
441.61	38.68	1.4372e-05	6.31e-07
467.34	38.68	1.5278e-05	6.58e-07
496.21	38.68	1.6256e-05	6.88e-07
527.02	38.68	1.7272e-05	7.18e-07
547.49	38.68	1.8002e-05	7.4e-07
568.11	38.68	1.8722e-05	7.62e-07
598.6	38.68	1.9794e-05	7.94e-07
298.71	49.53	9.576e-06	4.87e-07
314.2	49.53	1.0038e-05	5.01e-07
324.77	49.53	1.0373e-05	5.11e-07
338.81	49.53	1.0772e-05	5.23e-07
352.35	49.53	1.1251e-05	5.38e-07
353.2	49.53	1.1266e-05	5.38e-07
367.81	49.53	1.1819e-05	5.55e-07
381.27	49.53	1.23e-05	5.69e-07
394.88	49.53	1.2778e-05	5.83e-07
411.32	49.53	1.3352e-05	6.01e-07
423.52	49.53	1.3758e-05	6.13e-07
439.56	49.53	1.4301e-05	6.29e-07
467.49	49.53	1.5285e-05	6.59e-07
496.48	49.53	1.6251e-05	6.88e-07
525.14	49.53	1.7235e-05	7.17e-07
548.04	49.53	1.8033e-05	7.41e-07
569.93	49.53	1.8745e-05	7.62e-07
597.28	49.53	1.971e-05	7.91e-07
