Measured thermophysical data. Critical Pressures and Temperatures of n-Diaminoalkanes (C2 to C12)
Source: J. Chem. Eng. Data, 2006, 10.1021/je050424e
Compound 1: ethane-1,2-diamine, C2H8N2, InChI=1S/C2H8N2/c3-1-2-4/h1-4H2
Compound 2: 1,3-propanediamine, C3H10N2, InChI=1S/C3H10N2/c4-2-1-3-5/h1-5H2
Compound 3: 1,4-butanediamine, C4H12N2, InChI=1S/C4H12N2/c5-3-1-2-4-6/h1-6H2
Compound 4: 1,6-hexanediamine, C6H16N2, InChI=1S/C6H16N2/c7-5-3-1-2-4-6-8/h1-8H2
Compound 5: 1,8-diaminooctane, C8H20N2, InChI=1S/C8H20N2/c9-7-5-3-1-2-4-6-8-10/h1-10H2
Compound 6: 1,9-diaminononane, C9H22N2, InChI=1S/C9H22N2/c10-8-6-4-2-1-3-5-7-9-11/h1-11H2
Compound 7: 1,10-diaminodecane, C10H24N2, InChI=1S/C10H24N2/c11-9-7-5-3-1-2-4-6-8-10-12/h1-12H2
Compound 8: 1,12-dodecanediamine, C12H28N2, InChI=1S/C12H28N2/c13-11-9-7-5-3-1-2-4-6-8-10-12-14/h1-14H2

System: ethane-1,2-diamine; phases: Liquid, Gas
Property: Critical pressure, kPa (Liquid); method: pulse heating
Critical pressure, kPa	uncertainty
6650	340

System: ethane-1,2-diamine; phases: Liquid, Gas
Property: Critical temperature, K (Liquid); method: pulse heating:FP
Critical temperature, K	uncertainty
614	6

System: 1,3-propanediamine; phases: Liquid, Gas
Property: Critical pressure, kPa (Liquid); method: pulse heating
Critical pressure, kPa	uncertainty
5590	280

System: 1,3-propanediamine; phases: Liquid, Gas
Property: Critical temperature, K (Liquid); method: pulse heating
Critical temperature, K	uncertainty
632	7

System: 1,4-butanediamine; phases: Liquid, Gas
Property: Critical pressure, kPa (Liquid); method: pulse heating
Critical pressure, kPa	uncertainty
4540	220

System: 1,4-butanediamine; phases: Liquid, Gas
Property: Critical temperature, K (Liquid); method: pulse heating
Critical temperature, K	uncertainty
651	7

System: 1,6-hexanediamine; phases: Liquid, Gas
Property: Critical pressure, kPa (Liquid); method: pulse heating
Critical pressure, kPa	uncertainty
3590	160

System: 1,6-hexanediamine; phases: Liquid, Gas
Property: Critical temperature, K (Liquid); method: pulse heating
Critical temperature, K	uncertainty
685	7

System: 1,8-diaminooctane; phases: Liquid, Gas
Property: Critical pressure, kPa (Liquid); method: pulse heating
Critical pressure, kPa	uncertainty
2800	160

System: 1,8-diaminooctane; phases: Liquid, Gas
Property: Critical temperature, K (Liquid); method: pulse heating
Critical temperature, K	uncertainty
712	7

System: 1,9-diaminononane; phases: Liquid, Gas
Property: Critical pressure, kPa (Liquid); method: pulse heating
Critical pressure, kPa	uncertainty
2630	140

System: 1,9-diaminononane; phases: Liquid, Gas
Property: Critical temperature, K (Liquid); method: pulse heating
Critical temperature, K	uncertainty
726	7

System: 1,10-diaminodecane; phases: Liquid, Gas
Property: Critical pressure, kPa (Liquid); method: pulse heating
Critical pressure, kPa	uncertainty
2430	120

System: 1,10-diaminodecane; phases: Liquid, Gas
Property: Critical temperature, K (Liquid); method: pulse heating
Critical temperature, K	uncertainty
736	8

System: 1,12-dodecanediamine; phases: Liquid, Gas
Property: Critical pressure, kPa (Liquid); method: pulse heating
Critical pressure, kPa	uncertainty
2010	120

System: 1,12-dodecanediamine; phases: Liquid, Gas
Property: Critical temperature, K (Liquid); method: pulse heating
Critical temperature, K	uncertainty
767	8
