Measured thermophysical data. Densities, Viscosities, and Refractive Indices for Binary and Ternary Mixtures of Ethanol, 2-Methylpropan-2-ol, and 2,2,4-Trimethylpentane
Source: J. Chem. Eng. Data, 2005, 10.1021/je0501639
Compound 1: ethanol, C2H6O, InChI=1S/C2H6O/c1-2-3/h3H,2H2,1H3
Compound 2: 2-methylpropan-2-ol, C4H10O, InChI=1S/C4H10O/c1-4(2,3)5/h5H,1-3H3
Compound 3: 2,2,4-trimethylpentane, C8H18, InChI=1S/C8H18/c1-7(2)6-8(3,4)5/h7H,6H2,1-5H3

System: ethanol; phases: Liquid
Fixed: Pressure, kPa = 101.325
Property: Refractive index (Na D-line) (Liquid); method: Standard Abbe refractometry
Temperature, K	Refractive index (Na D-line)	uncertainty
298.15	1.35932	0.00031
308.15	1.35509	0.00031
318.15	1.351	0.00031
318.15	1.35095	0.00031

System: ethanol; phases: Liquid
Fixed: Pressure, kPa = 100.8
Property: Viscosity, Pa*s (Liquid); method: Falling or rolling sphere viscometry
Temperature, K	Viscosity, Pa*s	uncertainty
298.15	0.001085	1.4e-05
308.15	0.000906	1.4e-05
318.15	0.000756	1.3e-05

System: ethanol; phases: Liquid
Fixed: Pressure, kPa = 100.8
Property: Mass density, kg/m3 (Liquid); method: VIBTUB:UFactor:2
Temperature, K	Mass density, kg/m3	uncertainty
298.15	785.1	0.24
308.15	776.43	0.25
318.15	767.61	0.26

System: 2-methylpropan-2-ol; phases: Liquid
Fixed: Pressure, kPa = 101.325
Property: Refractive index (Na D-line) (Liquid); method: Standard Abbe refractometry
Temperature, K	Refractive index (Na D-line)	uncertainty
298.15	1.38481	0.00033
308.15	1.3796	0.00033
318.15	1.37416	0.00033

System: 2-methylpropan-2-ol; phases: Liquid
Fixed: Pressure, kPa = 100.8
Property: Viscosity, Pa*s (Liquid); method: Falling or rolling sphere viscometry
Temperature, K	Viscosity, Pa*s	uncertainty
298.15	0.00443	4e-05
308.15	0.002622	2.7e-05
318.15	0.001708	2e-05

System: 2-methylpropan-2-ol; phases: Liquid
Fixed: Pressure, kPa = 100.8
Property: Mass density, kg/m3 (Liquid); method: VIBTUB:UFactor:2
Temperature, K	Mass density, kg/m3	uncertainty
298.15	780.99	0.31
308.15	770.7	0.31
318.15	760.05	0.32

System: 2,2,4-trimethylpentane; phases: Liquid
Fixed: Pressure, kPa = 101.325
Property: Refractive index (Na D-line) (Liquid); method: Standard Abbe refractometry
Temperature, K	Refractive index (Na D-line)	uncertainty
298.15	1.38898	0.00032
308.15	1.38398	0.00032
318.15	1.37898	0.00032

System: 2,2,4-trimethylpentane; phases: Liquid
Fixed: Pressure, kPa = 100.8
Property: Viscosity, Pa*s (Liquid); method: SPHERE:UFactor:2
Temperature, K	Viscosity, Pa*s	uncertainty
298.15	0.000474	1.4e-05
298.15	0.000475	1.4e-05
308.15	0.000425	1.4e-05
318.15	0.00038	1.3e-05

System: 2,2,4-trimethylpentane; phases: Liquid
Fixed: Pressure, kPa = 100.8
Property: Mass density, kg/m3 (Liquid); method: VIBTUB:UFactor:2
Temperature, K	Mass density, kg/m3	uncertainty
298.15	687.89	0.32
308.15	679.55	0.33
318.15	671.1	0.34

System: ethanol + 2-methylpropan-2-ol; phases: Liquid
Fixed: Pressure, kPa = 100.8
Property: Viscosity, Pa*s (Liquid); method: Falling or rolling sphere viscometry
Temperature, K	Mole fraction of ethanol	Viscosity, Pa*s	uncertainty
298.15	0	0.00443	4e-05
298.15	0.05	0.004295	3.9e-05
298.15	0.1	0.004135	3.7e-05
298.15	0.15	0.003949	3.5e-05
298.15	0.2	0.003752	3.3e-05
298.15	0.25	0.003552	3.2e-05
298.15	0.3	0.003348	3e-05
298.15	0.35	0.003134	2.8e-05
298.15	0.4	0.002905	2.6e-05
298.15	0.45	0.002668	2.4e-05
298.15	0.5	0.002462	2.3e-05
298.15	0.55	0.002272	2.1e-05
298.15	0.6	0.002097	2e-05
298.15	0.65	0.001934	1.9e-05
298.15	0.7	0.001782	1.8e-05
298.15	0.75	0.001644	1.7e-05
298.15	0.8	0.001518	1.7e-05
298.15	0.85	0.0014	1.6e-05
298.15	0.9	0.001285	1.5e-05
298.15	0.95	0.001188	1.5e-05
298.15	1	0.001085	1.4e-05
308.15	0	0.002622	2.7e-05
308.15	0.05	0.002587	2.6e-05
308.15	0.1	0.002536	2.5e-05
308.15	0.15	0.002463	2.5e-05
308.15	0.2	0.002374	2.4e-05
308.15	0.25	0.002277	2.3e-05
308.15	0.3	0.00218	2.2e-05
308.15	0.35	0.002082	2.1e-05
308.15	0.4	0.001978	2e-05
308.15	0.45	0.001877	1.9e-05
308.15	0.5	0.001772	1.9e-05
308.15	0.55	0.001675	1.8e-05
308.15	0.6	0.001575	1.7e-05
308.15	0.65	0.001475	1.7e-05
308.15	0.7	0.00138	1.6e-05
308.15	0.75	0.001291	1.6e-05
308.15	0.8	0.001206	1.5e-05
308.15	0.85	0.001126	1.5e-05
308.15	0.9	0.001048	1.4e-05
308.15	0.95	0.000976	1.4e-05
308.15	1	0.000906	1.4e-05
318.15	0	0.001708	2e-05
318.15	0.05	0.00173	2e-05
318.15	0.1	0.001719	1.9e-05
318.15	0.15	0.001698	1.9e-05
318.15	0.2	0.001662	1.9e-05
318.15	0.25	0.001618	1.8e-05
318.15	0.3	0.001568	1.8e-05
318.15	0.35	0.001515	1.7e-05
318.15	0.4	0.001456	1.7e-05
318.15	0.45	0.001395	1.7e-05
318.15	0.5	0.001332	1.6e-05
318.15	0.55	0.001272	1.6e-05
318.15	0.6	0.001213	1.5e-05
318.15	0.65	0.001153	1.5e-05
318.15	0.7	0.001092	1.5e-05
318.15	0.75	0.001032	1.4e-05
318.15	0.8	0.000974	1.4e-05
318.15	0.85	0.000919	1.4e-05
318.15	0.9	0.000862	1.4e-05
318.15	0.95	0.000805	1.3e-05
318.15	1	0.000756	1.3e-05

System: ethanol + 2-methylpropan-2-ol; phases: Liquid
Fixed: Pressure, kPa = 100.8
Property: Refractive index (Na D-line) (Liquid); method: Standard Abbe refractometry
Temperature, K	Mole fraction of ethanol	Refractive index (Na D-line)	uncertainty
298.15	0	1.38481	0.00033
298.15	0.05	1.38427	0.00033
298.15	0.1	1.38367	0.00033
298.15	0.15	1.38294	0.00032
298.15	0.2	1.38213	0.00032
298.15	0.25	1.38123	0.00032
298.15	0.3	1.38027	0.00032
298.15	0.35	1.37923	0.00032
298.15	0.4	1.37813	0.00032
298.15	0.45	1.37698	0.00032
298.15	0.5	1.37576	0.00032
298.15	0.55	1.37449	0.00032
298.15	0.6	1.37312	0.00032
298.15	0.65	1.37171	0.00032
298.15	0.7	1.37018	0.00032
298.15	0.75	1.36859	0.00032
298.15	0.8	1.3669	0.00032
298.15	0.85	1.36515	0.00031
298.15	0.9	1.36332	0.00031
298.15	0.95	1.36137	0.00031
298.15	1	1.35932	0.00031
308.15	0	1.3796	0.00033
308.15	0.05	1.37911	0.00033
308.15	0.1	1.37861	0.00033
308.15	0.15	1.37797	0.00032
308.15	0.2	1.37726	0.00032
308.15	0.25	1.37648	0.00032
308.15	0.3	1.37558	0.00032
308.15	0.35	1.37463	0.00032
308.15	0.4	1.3736	0.00032
308.15	0.45	1.37253	0.00032
308.15	0.5	1.37136	0.00032
308.15	0.55	1.37013	0.00032
308.15	0.6	1.36883	0.00032
308.15	0.65	1.36741	0.00032
308.15	0.7	1.36593	0.00032
308.15	0.75	1.36438	0.00032
308.15	0.8	1.36271	0.00032
308.15	0.85	1.36096	0.00031
308.15	0.9	1.35914	0.00031
308.15	0.95	1.3572	0.00031
308.15	1	1.35509	0.00031
318.15	0	1.37416	0.00033
318.15	0.05	1.37378	0.00033
318.15	0.1	1.37336	0.00033
318.15	0.15	1.37284	0.00032
318.15	0.2	1.37224	0.00032
318.15	0.25	1.3715	0.00032
318.15	0.3	1.37072	0.00032
318.15	0.35	1.36984	0.00032
318.15	0.4	1.36891	0.00032
318.15	0.45	1.36791	0.00032
318.15	0.5	1.36682	0.00032
318.15	0.55	1.36567	0.00032
318.15	0.6	1.36442	0.00032
318.15	0.65	1.36304	0.00032
318.15	0.7	1.36162	0.00032
318.15	0.75	1.36007	0.00032
318.15	0.8	1.35848	0.00032
318.15	0.85	1.35677	0.00031
318.15	0.9	1.35498	0.00031
318.15	0.95	1.35308	0.00031
318.15	1	1.351	0.00031

System: ethanol + 2-methylpropan-2-ol; phases: Liquid
Fixed: Pressure, kPa = 100.8
Property: Mass density, kg/m3 (Liquid); method: VIBTUB:UFactor:2
Temperature, K	Mole fraction of ethanol	Mass density, kg/m3	uncertainty
298.15	0	780.99	0.31
298.15	0.05	782.27	0.3
298.15	0.1	782.82	0.3
298.15	0.15	783.19	0.29
298.15	0.2	783.47	0.29
298.15	0.25	783.65	0.29
298.15	0.3	783.81	0.28
298.15	0.35	783.94	0.28
298.15	0.4	784.03	0.28
298.15	0.45	784.11	0.27
298.15	0.5	784.18	0.27
298.15	0.55	784.29	0.27
298.15	0.6	784.32	0.26
298.15	0.65	784.4	0.26
298.15	0.7	784.42	0.26
298.15	0.75	784.49	0.26
298.15	0.8	784.62	0.25
298.15	0.85	784.75	0.25
298.15	0.9	784.86	0.25
298.15	0.95	785.02	0.25
298.15	1	785.1	0.24
308.15	0	770.7	0.31
308.15	0.05	772.23	0.31
308.15	0.1	772.95	0.3
308.15	0.15	773.6	0.3
308.15	0.2	774.03	0.29
308.15	0.25	774.34	0.29
308.15	0.3	774.62	0.29
308.15	0.35	774.87	0.28
308.15	0.4	775.07	0.28
308.15	0.45	775.29	0.28
308.15	0.5	775.45	0.27
308.15	0.55	775.61	0.27
308.15	0.6	775.68	0.27
308.15	0.65	775.77	0.27
308.15	0.7	775.85	0.26
308.15	0.75	775.93	0.26
308.15	0.8	776.07	0.26
308.15	0.85	776.18	0.26
308.15	0.9	776.28	0.25
308.15	0.95	776.4	0.25
308.15	1	776.43	0.25
318.15	0	760.05	0.32
318.15	0.05	761.94	0.31
318.15	0.1	762.82	0.31
318.15	0.15	763.53	0.3
318.15	0.2	764.14	0.3
318.15	0.25	764.59	0.3
318.15	0.3	765.01	0.29
318.15	0.35	765.41	0.29
318.15	0.4	765.74	0.29
318.15	0.45	766.04	0.28
318.15	0.5	766.31	0.28
318.15	0.55	766.58	0.28
318.15	0.6	766.72	0.27
318.15	0.65	766.87	0.27
318.15	0.7	767.01	0.27
318.15	0.75	767.15	0.27
318.15	0.8	767.27	0.26
318.15	0.85	767.41	0.26
318.15	0.9	767.51	0.26
318.15	0.95	767.6	0.26
318.15	1	767.61	0.26

System: ethanol + 2,2,4-trimethylpentane; phases: Liquid
Fixed: Pressure, kPa = 100.8
Property: Viscosity, Pa*s (Liquid); method: SPHERE:UFactor:2
Temperature, K	Mole fraction of ethanol	Viscosity, Pa*s	uncertainty
298.15	0	0.000474	1.4e-05
298.15	0.05	0.000472	1.4e-05
298.15	0.1	0.00047	1.4e-05
298.15	0.15	0.000476	1.4e-05
298.15	0.2	0.000485	1.4e-05
298.15	0.25	0.000494	1.4e-05
298.15	0.3	0.000506	1.4e-05
298.15	0.35	0.00052	1.4e-05
298.15	0.4	0.000538	1.4e-05
298.15	0.45	0.000558	1.4e-05
298.15	0.5	0.000583	1.5e-05
298.15	0.55	0.000611	1.5e-05
298.15	0.6	0.000642	1.5e-05
298.15	0.65	0.000675	1.5e-05
298.15	0.7	0.00071	1.6e-05
298.15	0.75	0.00075	1.6e-05
298.15	0.8	0.000797	1.7e-05
298.15	0.85	0.000853	1.7e-05
298.15	0.9	0.000916	1.8e-05
298.15	0.95	0.000989	1.9e-05
298.15	1	0.001085	2e-05
308.15	0	0.000425	1.4e-05
308.15	0.05	0.000421	1.3e-05
308.15	0.1	0.000419	1.3e-05
308.15	0.15	0.000423	1.4e-05
308.15	0.2	0.000428	1.4e-05
308.15	0.25	0.000435	1.4e-05
308.15	0.3	0.000443	1.4e-05
308.15	0.35	0.000453	1.4e-05
308.15	0.4	0.000469	1.4e-05
308.15	0.45	0.000487	1.4e-05
308.15	0.5	0.000507	1.4e-05
308.15	0.55	0.00053	1.4e-05
308.15	0.6	0.000555	1.4e-05
308.15	0.65	0.000583	1.5e-05
308.15	0.7	0.000614	1.5e-05
308.15	0.75	0.000647	1.5e-05
308.15	0.8	0.000685	1.6e-05
308.15	0.85	0.000731	1.6e-05
308.15	0.9	0.000784	1.7e-05
308.15	0.95	0.000843	1.7e-05
308.15	1	0.000906	1.8e-05
318.15	0	0.00038	1.3e-05
318.15	0.05	0.000376	1.3e-05
318.15	0.1	0.000377	1.3e-05
318.15	0.15	0.000378	1.3e-05
318.15	0.2	0.000381	1.3e-05
318.15	0.25	0.000387	1.3e-05
318.15	0.3	0.000392	1.3e-05
318.15	0.35	0.000401	1.3e-05
318.15	0.4	0.000413	1.3e-05
318.15	0.45	0.000426	1.4e-05
318.15	0.5	0.000443	1.4e-05
318.15	0.55	0.000461	1.4e-05
318.15	0.6	0.000483	1.4e-05
318.15	0.65	0.000505	1.4e-05
318.15	0.7	0.000528	1.4e-05
318.15	0.75	0.000557	1.4e-05
318.15	0.8	0.000589	1.5e-05
318.15	0.85	0.000626	1.5e-05
318.15	0.9	0.000668	1.5e-05
318.15	0.95	0.000712	1.6e-05
318.15	1	0.000756	1.6e-05

System: ethanol + 2,2,4-trimethylpentane; phases: Liquid
Fixed: Pressure, kPa = 100.8
Property: Refractive index (Na D-line) (Liquid); method: Standard Abbe refractometry
Temperature, K	Mole fraction of ethanol	Refractive index (Na D-line)	uncertainty
298.15	0	1.38898	0.00032
298.15	0.05	1.38825	0.00032
298.15	0.1	1.38749	0.00032
298.15	0.15	1.38668	0.00032
298.15	0.2	1.38586	0.00032
298.15	0.25	1.38499	0.00032
298.15	0.3	1.38408	0.00032
298.15	0.35	1.38311	0.00032
298.15	0.4	1.38208	0.00032
298.15	0.45	1.38098	0.00032
298.15	0.5	1.3798	0.00032
298.15	0.55	1.37853	0.00032
298.15	0.6	1.37716	0.00031
298.15	0.65	1.37567	0.00031
298.15	0.7	1.37403	0.00031
298.15	0.75	1.37223	0.00031
298.15	0.8	1.37023	0.00031
298.15	0.85	1.36799	0.00031
298.15	0.9	1.36547	0.00031
298.15	0.95	1.36261	0.00031
298.15	1	1.35932	0.00031
308.15	0	1.38398	0.00032
308.15	0.05	1.38325	0.00032
308.15	0.1	1.38247	0.00032
308.15	0.15	1.38169	0.00032
308.15	0.2	1.38087	0.00032
308.15	0.25	1.38002	0.00032
308.15	0.3	1.37913	0.00032
308.15	0.35	1.37819	0.00032
308.15	0.4	1.37719	0.00032
308.15	0.45	1.37612	0.00032
308.15	0.5	1.37497	0.00032
308.15	0.55	1.37373	0.00032
308.15	0.6	1.37239	0.00031
308.15	0.65	1.37093	0.00031
308.15	0.7	1.36933	0.00031
308.15	0.75	1.36757	0.00031
308.15	0.8	1.36562	0.00031
308.15	0.85	1.36345	0.00031
308.15	0.9	1.36102	0.00031
308.15	0.95	1.35826	0.00031
308.15	1	1.35509	0.00031
318.15	0	1.37898	0.00032
318.15	0.05	1.37815	0.00032
318.15	0.1	1.37738	0.00032
318.15	0.15	1.37662	0.00032
318.15	0.2	1.37584	0.00032
318.15	0.25	1.37503	0.00032
318.15	0.3	1.37417	0.00032
318.15	0.35	1.37326	0.00032
318.15	0.4	1.37229	0.00032
318.15	0.45	1.37125	0.00032
318.15	0.5	1.37013	0.00032
318.15	0.55	1.36892	0.00032
318.15	0.6	1.36762	0.00031
318.15	0.65	1.36621	0.00031
318.15	0.7	1.36466	0.00031
318.15	0.75	1.36295	0.00031
318.15	0.8	1.36106	0.00031
318.15	0.85	1.35896	0.00031
318.15	0.9	1.3566	0.00031
318.15	0.95	1.35396	0.00031
318.15	1	1.35095	0.00031

System: ethanol + 2,2,4-trimethylpentane; phases: Liquid
Fixed: Pressure, kPa = 100.8
Property: Mass density, kg/m3 (Liquid); method: VIBTUB:UFactor:2
Temperature, K	Mole fraction of ethanol	Mass density, kg/m3	uncertainty
298.15	0	687.89	0.32
298.15	0.05	688.94	0.32
298.15	0.1	690.43	0.32
298.15	0.15	692.16	0.32
298.15	0.2	694.08	0.32
298.15	0.25	696.22	0.32
298.15	0.3	698.58	0.31
298.15	0.35	701.19	0.31
298.15	0.4	704.04	0.31
298.15	0.45	707.19	0.31
298.15	0.5	710.69	0.3
298.15	0.55	714.59	0.3
298.15	0.6	718.95	0.3
298.15	0.65	723.82	0.29
298.15	0.7	729.34	0.29
298.15	0.75	735.56	0.28
298.15	0.8	742.67	0.28
298.15	0.85	750.87	0.27
298.15	0.9	760.47	0.27
298.15	0.95	771.78	0.26
298.15	1	785.1	0.24
308.15	0	679.55	0.33
308.15	0.05	680.44	0.33
308.15	0.1	681.85	0.33
308.15	0.15	683.55	0.33
308.15	0.2	685.46	0.32
308.15	0.25	687.59	0.32
308.15	0.3	689.91	0.32
308.15	0.35	692.48	0.32
308.15	0.4	695.33	0.31
308.15	0.45	698.47	0.31
308.15	0.5	701.95	0.31
308.15	0.55	705.81	0.31
308.15	0.6	710.14	0.3
308.15	0.65	714.99	0.3
308.15	0.7	720.46	0.29
308.15	0.75	726.64	0.29
308.15	0.8	733.71	0.28
308.15	0.85	741.88	0.28
308.15	0.9	751.45	0.27
308.15	0.95	762.83	0.27
308.15	1	776.43	0.25
318.15	0	671.1	0.34
318.15	0.05	671.89	0.33
318.15	0.1	673.2	0.33
318.15	0.15	674.81	0.33
318.15	0.2	676.67	0.33
318.15	0.25	678.74	0.33
318.15	0.3	681.05	0.33
318.15	0.35	683.6	0.32
318.15	0.4	686.41	0.32
318.15	0.45	689.53	0.32
318.15	0.5	693	0.32
318.15	0.55	696.87	0.31
318.15	0.6	701.18	0.31
318.15	0.65	706	0.3
318.15	0.7	711.43	0.3
318.15	0.75	717.6	0.3
318.15	0.8	724.66	0.29
318.15	0.85	732.81	0.29
318.15	0.9	742.33	0.28
318.15	0.95	753.76	0.27
318.15	1	767.61	0.26

System: 2-methylpropan-2-ol + 2,2,4-trimethylpentane; phases: Liquid
Fixed: Pressure, kPa = 100.8
Property: Viscosity, Pa*s (Liquid); method: SPHERE:UFactor:4
Temperature, K	Mole fraction of 2-methylpropan-2-ol	Viscosity, Pa*s	uncertainty
298.15	0	0.000475	1.8e-05
298.15	0.05	0.000483	1.8e-05
298.15	0.1	0.000509	1.9e-05
298.15	0.15	0.000515	1.9e-05
298.15	0.2	0.000553	2e-05
298.15	0.25	0.000564	2e-05
298.15	0.3	0.000598	2.1e-05
298.15	0.35	0.000614	2.1e-05
298.15	0.4	0.000665	2.3e-05
298.15	0.45	0.000698	2.3e-05
298.15	0.5	0.000765	2.5e-05
298.15	0.55	0.000805	2.6e-05
298.15	0.6	0.000912	2.9e-05
298.15	0.65	0.000984	3.1e-05
298.15	0.7	0.001107	3.5e-05
298.15	0.75	0.001297	4.1e-05
298.15	0.8	0.001557	4.9e-05
298.15	0.85	0.001895	6e-05
298.15	0.9	0.002426	7.6e-05
298.15	0.95	0.003172	0.0001
298.15	1	0.00443	0.000139
308.15	0	0.000425	1.7e-05
308.15	0.05	0.000425	1.7e-05
308.15	0.1	0.000449	1.8e-05
308.15	0.15	0.000447	1.8e-05
308.15	0.2	0.000478	1.8e-05
308.15	0.25	0.00048	1.8e-05
308.15	0.3	0.000522	1.9e-05
308.15	0.35	0.000523	1.9e-05
308.15	0.4	0.000564	2e-05
308.15	0.45	0.00059	2.1e-05
308.15	0.5	0.000633	2.2e-05
308.15	0.55	0.000672	2.3e-05
308.15	0.6	0.000726	2.4e-05
308.15	0.65	0.000786	2.6e-05
308.15	0.7	0.000866	2.8e-05
308.15	0.75	0.000994	3.1e-05
308.15	0.8	0.00114	3.6e-05
308.15	0.85	0.001332	4.2e-05
308.15	0.9	0.001622	5.1e-05
308.15	0.95	0.00202	6.4e-05
308.15	1	0.002622	8.3e-05
318.15	0	0.00038	1.6e-05
318.15	0.05	0.000377	1.6e-05
318.15	0.1	0.0004	1.7e-05
318.15	0.15	0.000394	1.7e-05
318.15	0.2	0.000413	1.7e-05
318.15	0.25	0.00042	1.7e-05
318.15	0.3	0.000449	1.8e-05
318.15	0.35	0.00045	1.8e-05
318.15	0.4	0.00048	1.8e-05
318.15	0.45	0.000504	1.9e-05
318.15	0.5	0.000542	2e-05
318.15	0.55	0.000564	2e-05
318.15	0.6	0.000614	2.1e-05
318.15	0.65	0.000649	2.2e-05
318.15	0.7	0.000706	2.4e-05
318.15	0.75	0.000798	2.6e-05
318.15	0.8	0.000889	2.8e-05
318.15	0.85	0.001028	3.2e-05
318.15	0.9	0.001164	3.7e-05
318.15	0.95	0.001398	4.4e-05
318.15	1	0.001708	5.4e-05

System: 2-methylpropan-2-ol + 2,2,4-trimethylpentane; phases: Liquid
Fixed: Pressure, kPa = 100.8
Property: Refractive index (Na D-line) (Liquid); method: Standard Abbe refractometry
Temperature, K	Mole fraction of 2-methylpropan-2-ol	Refractive index (Na D-line)	uncertainty
298.15	0	1.38898	0.00032
298.15	0.05	1.38834	0.00032
298.15	0.1	1.38784	0.00032
298.15	0.15	1.38735	0.00032
298.15	0.2	1.38693	0.00032
298.15	0.25	1.3865	0.00032
298.15	0.3	1.38612	0.00032
298.15	0.35	1.38573	0.00032
298.15	0.4	1.38537	0.00032
298.15	0.45	1.38505	0.00032
298.15	0.5	1.38473	0.00032
298.15	0.55	1.38445	0.00032
298.15	0.6	1.3842	0.00032
298.15	0.65	1.38398	0.00032
298.15	0.7	1.38381	0.00032
298.15	0.75	1.38371	0.00032
298.15	0.8	1.38368	0.00032
298.15	0.85	1.38381	0.00033
298.15	0.9	1.38405	0.00033
298.15	0.95	1.38436	0.00033
298.15	1	1.38481	0.00033
308.15	0	1.38398	0.00032
308.15	0.05	1.38325	0.00032
308.15	0.1	1.38271	0.00032
308.15	0.15	1.38219	0.00032
308.15	0.2	1.38177	0.00032
308.15	0.25	1.38135	0.00032
308.15	0.3	1.38095	0.00032
308.15	0.35	1.38055	0.00032
308.15	0.4	1.38021	0.00032
308.15	0.45	1.37986	0.00032
308.15	0.5	1.37955	0.00032
308.15	0.55	1.37926	0.00032
308.15	0.6	1.37903	0.00032
308.15	0.65	1.37881	0.00032
308.15	0.7	1.37862	0.00032
308.15	0.75	1.3785	0.00032
308.15	0.8	1.37847	0.00032
308.15	0.85	1.37858	0.00033
308.15	0.9	1.37879	0.00033
308.15	0.95	1.37914	0.00033
308.15	1	1.3796	0.00033
318.15	0	1.37898	0.00032
318.15	0.05	1.37818	0.00032
318.15	0.1	1.37755	0.00032
318.15	0.15	1.37703	0.00032
318.15	0.2	1.37655	0.00032
318.15	0.25	1.37611	0.00032
318.15	0.3	1.3757	0.00032
318.15	0.35	1.37528	0.00032
318.15	0.4	1.37491	0.00032
318.15	0.45	1.37458	0.00032
318.15	0.5	1.37427	0.00032
318.15	0.55	1.37397	0.00032
318.15	0.6	1.37371	0.00032
318.15	0.65	1.37348	0.00032
318.15	0.7	1.37331	0.00032
318.15	0.75	1.37317	0.00032
318.15	0.8	1.37313	0.00032
318.15	0.85	1.37323	0.00033
318.15	0.9	1.37339	0.00033
318.15	0.95	1.37372	0.00033
318.15	1	1.37416	0.00033

System: 2-methylpropan-2-ol + 2,2,4-trimethylpentane; phases: Liquid
Fixed: Pressure, kPa = 100.8
Property: Mass density, kg/m3 (Liquid); method: VIBTUB:UFactor:2
Temperature, K	Mole fraction of 2-methylpropan-2-ol	Mass density, kg/m3	uncertainty
298.15	0	687.89	0.32
298.15	0.05	689.77	0.32
298.15	0.1	691.89	0.32
298.15	0.15	694.45	0.32
298.15	0.2	697.14	0.32
298.15	0.25	700.02	0.32
298.15	0.3	703.12	0.32
298.15	0.35	706.4	0.32
298.15	0.4	709.87	0.32
298.15	0.45	713.52	0.32
298.15	0.5	717.43	0.32
298.15	0.55	721.62	0.32
298.15	0.6	726.19	0.32
298.15	0.65	731.11	0.32
298.15	0.7	736.55	0.32
298.15	0.75	742.44	0.31
298.15	0.8	748.88	0.31
298.15	0.85	755.87	0.31
298.15	0.9	763.54	0.31
298.15	0.95	771.9	0.31
298.15	1	780.99	0.31
308.15	0	679.55	0.33
308.15	0.05	681.15	0.33
308.15	0.1	683.25	0.33
308.15	0.15	685.62	0.33
308.15	0.2	688.28	0.33
308.15	0.25	691.11	0.33
308.15	0.3	694.14	0.33
308.15	0.35	697.38	0.33
308.15	0.4	700.8	0.33
308.15	0.45	704.42	0.32
308.15	0.5	708.24	0.32
308.15	0.55	712.37	0.32
308.15	0.6	716.85	0.32
308.15	0.65	721.69	0.32
308.15	0.7	727.03	0.32
308.15	0.75	732.81	0.32
308.15	0.8	739.1	0.32
308.15	0.85	745.89	0.32
308.15	0.9	753.43	0.32
308.15	0.95	761.62	0.31
308.15	1	770.7	0.31
318.15	0	671.1	0.34
318.15	0.05	672.12	0.34
318.15	0.1	674.11	0.34
318.15	0.15	676.56	0.34
318.15	0.2	679.2	0.33
318.15	0.25	681.96	0.33
318.15	0.3	684.92	0.33
318.15	0.35	688.11	0.33
318.15	0.4	691.43	0.33
318.15	0.45	694.99	0.33
318.15	0.5	698.77	0.33
318.15	0.55	702.81	0.33
318.15	0.6	707.21	0.33
318.15	0.65	711.98	0.33
318.15	0.7	717.21	0.33
318.15	0.75	722.88	0.32
318.15	0.8	729.03	0.32
318.15	0.85	735.65	0.32
318.15	0.9	743.04	0.32
318.15	0.95	751.07	0.32
318.15	1	760.05	0.32
