Measured thermophysical data. Solubility of Organic Systems Containing 1,4-Dioxan-2-one
Source: J. Chem. Eng. Data, 2006, 10.1021/je050406x
Compound 1: 1,4-dioxan-2-one, C4H6O3, InChI=1S/C4H6O3/c5-4-3-6-1-2-7-4/h1-3H2
Compound 2: acetone, C3H6O, InChI=1S/C3H6O/c1-3(2)4/h1-2H3
Compound 3: tetrahydrofuran, C4H8O, InChI=1S/C4H8O/c1-2-4-5-3-1/h1-4H2
Compound 4: methanol, CH4O, InChI=1S/CH4O/c1-2/h2H,1H3
Compound 5: ethanol, C2H6O, InChI=1S/C2H6O/c1-2-3/h3H,2H2,1H3
Compound 6: propan-1-ol, C3H8O, InChI=1S/C3H8O/c1-2-3-4/h4H,2-3H2,1H3
Compound 7: butan-1-ol, C4H10O, InChI=1S/C4H10O/c1-2-3-4-5/h5H,2-4H2,1H3
Compound 8: pentan-1-ol, C5H12O, InChI=1S/C5H12O/c1-2-3-4-5-6/h6H,2-5H2,1H3

System: 1,4-dioxan-2-one; phases: Crystal, Liquid, Air at 1 atmosphere
Property: Molar enthalpy of transition or fusion, kJ/mol (Crystal); method: DSC
Molar enthalpy of transition or fusion, kJ/mol	uncertainty
15.7	0.38

System: 1,4-dioxan-2-one; phases: Crystal, Liquid, Air at 1 atmosphere
Property: Normal melting temperature, K (Crystal); method: DTA
Normal melting temperature, K	uncertainty
301.41	0.5

System: acetone + 1,4-dioxan-2-one; phases: Liquid, Crystal
Fixed: Pressure, kPa = 101
Property: Solid-liquid equilibrium temperature, K (Liquid); method: VISOBS:UFactor:6
Mole fraction of 1,4-dioxan-2-one	Solid-liquid equilibrium temperature, K	uncertainty
0.2766	263.05	0.93
0.3114	265.55	0.93
0.3326	268.15	0.93
0.3608	270.55	0.93
0.4019	273.15	0.93
0.4395	275.65	0.93
0.4859	278.45	0.93
0.5325	280.75	0.93
0.5778	283.25	0.93
0.6371	285.55	0.93
0.6813	288.45	0.93

System: tetrahydrofuran + 1,4-dioxan-2-one; phases: Liquid, Crystal
Fixed: Pressure, kPa = 101
Property: Solid-liquid equilibrium temperature, K (Liquid); method: VISOBS:UFactor:6
Mole fraction of 1,4-dioxan-2-one	Solid-liquid equilibrium temperature, K	uncertainty
0.1531	263.25	0.93
0.1752	265.55	0.93
0.2	268.15	0.93
0.2311	271.05	0.93
0.2683	273.45	0.93
0.2958	275.55	0.93
0.3437	278.15	0.93
0.3905	281.05	0.93
0.4561	283.15	0.93
0.5264	286.05	0.93
0.6017	288.35	0.93

System: methanol + 1,4-dioxan-2-one; phases: Liquid, Crystal
Fixed: Pressure, kPa = 101
Property: Solid-liquid equilibrium temperature, K (Liquid); method: VISOBS:UFactor:4
Mole fraction of 1,4-dioxan-2-one	Solid-liquid equilibrium temperature, K	uncertainty
0.0557	263.15	0.62
0.0693	265.75	0.62
0.0864	268.05	0.62
0.1084	270.95	0.62
0.14	273.45	0.62
0.1876	275.75	0.62
0.2394	278.05	0.62
0.3166	280.85	0.62
0.4022	283.15	0.62
0.5067	285.65	0.62
0.6212	288.45	0.62

System: ethanol + 1,4-dioxan-2-one; phases: Liquid, Crystal
Fixed: Pressure, kPa = 101
Property: Solid-liquid equilibrium temperature, K (Liquid); method: VISOBS:UFactor:4
Mole fraction of 1,4-dioxan-2-one	Solid-liquid equilibrium temperature, K	uncertainty
0.0145	263.45	0.63
0.0215	265.65	0.64
0.0272	268.15	0.63
0.039	270.95	0.63
0.0492	273.15	0.62
0.066	275.75	0.62
0.1016	278.25	0.62
0.1501	280.75	0.62
0.2101	283.15	0.62
0.3119	285.75	0.62
0.4094	288.35	0.62

System: propan-1-ol + 1,4-dioxan-2-one; phases: Liquid, Crystal
Fixed: Pressure, kPa = 101
Property: Solid-liquid equilibrium temperature, K (Liquid); method: VISOBS:UFactor:4
Mole fraction of 1,4-dioxan-2-one	Solid-liquid equilibrium temperature, K	uncertainty
0.0055	263.15	0.69
0.0086	265.55	0.7
0.012	268.45	0.66
0.0173	270.65	0.64
0.0233	273.15	0.63
0.0345	275.65	0.63
0.0468	278.45	0.62
0.0761	280.65	0.62
0.1131	283.15	0.62
0.1757	285.95	0.62
0.2376	288.05	0.62

System: butan-1-ol + 1,4-dioxan-2-one; phases: Liquid, Crystal
Fixed: Pressure, kPa = 101
Property: Solid-liquid equilibrium temperature, K (Liquid); method: VISOBS:UFactor:8
Mole fraction of 1,4-dioxan-2-one	Solid-liquid equilibrium temperature, K	uncertainty
0.0029	263.15	1.44
0.0043	265.75	1.41
0.0058	268.05	1.3
0.0091	270.55	1.27
0.0134	273.45	1.25
0.0227	275.95	1.25
0.0287	278.15	1.25
0.0536	280.55	1.24
0.0681	283.25	1.24
0.1137	285.95	1.24
0.1529	288.15	1.24

System: pentan-1-ol + 1,4-dioxan-2-one; phases: Liquid, Crystal
Fixed: Pressure, kPa = 101
Property: Solid-liquid equilibrium temperature, K (Liquid); method: VISOBS:UFactor:4
Mole fraction of 1,4-dioxan-2-one	Solid-liquid equilibrium temperature, K	uncertainty
0.0012	263.15	2.17
0.0017	265.75	1.29
0.0029	268.25	1.08
0.004	270.85	1.05
0.0052	273.15	0.72
0.0091	275.95	0.66
0.0142	278.25	0.64
0.0219	280.75	0.63
0.0291	283.05	0.62
0.0466	285.65	0.62
0.0631	288.15	0.62
