Measured thermophysical data. Influence of High Pressure on the Liquidus Curve Shape in Binary Hydrocarbon Mixtures: Experimental Data, Correlation, and Prediction
Source: J. Chem. Eng. Data, 2005, 10.1021/je050039p
Compound 1: tridecane, C13H28, InChI=1S/C13H28/c1-3-5-7-9-11-13-12-10-8-6-4-2/h3-13H2,1-2H3
Compound 2: 3-methylpentane, C6H14, InChI=1S/C6H14/c1-4-6(3)5-2/h6H,4-5H2,1-3H3
Compound 3: 2,2-dimethylbutane, C6H14, InChI=1S/C6H14/c1-5-6(2,3)4/h5H2,1-4H3
Compound 4: 1-hexyne, C6H10, InChI=1S/C6H10/c1-3-5-6-4-2/h1H,4-6H2,2H3
Compound 5: benzene, C6H6, InChI=1S/C6H6/c1-2-4-6-5-3-1/h1-6H

System: tridecane; phases: Crystal 1, Liquid, Air at 1 atmosphere
Property: Normal melting temperature, K (Crystal 1); method: VISOBS
Normal melting temperature, K	uncertainty
269.01	0.5

System: benzene; phases: Crystal 1, Liquid, Air at 1 atmosphere
Property: Normal melting temperature, K (Crystal 1); method: VISOBS
Normal melting temperature, K	uncertainty
279.05	0.5

System: 3-methylpentane + tridecane; phases: Liquid, Crystal 1
Fixed: Pressure, kPa = 100
Property: Solid-liquid equilibrium temperature, K (Liquid); method: VISOBS:UFactor:2
Mole fraction of tridecane	Solid-liquid equilibrium temperature, K	uncertainty
0.4898	255	0.31
0.5076	255.8	0.31
0.52	256.29	0.31
0.5413	257.14	0.31
0.5633	258	0.31
0.5854	258.62	0.31
0.6044	259.33	0.31
0.6474	260.55	0.31
0.6783	261.48	0.31
0.7217	262.6	0.31
0.7457	263.17	0.31
0.7794	264.08	0.31
0.8003	264.65	0.31
0.8421	265.85	0.31
0.8968	267.11	0.31
0.9537	268.08	0.31
1	269.01	0.31

System: 3-methylpentane + tridecane; phases: Liquid, Crystal 2
Fixed: Pressure, kPa = 100
Property: Solid-liquid equilibrium temperature, K (Liquid); method: VISOBS:UFactor:4
Mole fraction of tridecane	Solid-liquid equilibrium temperature, K	uncertainty
0.0962	237.79	0.62
0.1227	239.7	0.62
0.1553	241.93	0.62
0.1774	243.33	0.62
0.2325	245.52	0.62
0.2591	246.93	0.62
0.2837	248.77	0.62
0.3145	249.45	0.62
0.3364	250.68	0.62
0.3872	252.53	0.62
0.4181	253.39	0.62
0.4464	254.01	0.62
0.4593	254.25	0.62
0.4776	254.59	0.62

System: 3-methylpentane + tridecane; phases: Liquid, Crystal
Property: Vapor or sublimation pressure, kPa (Liquid); method: discontinuity in P-V curve on crystallization
Temperature, K	Mole fraction of tridecane	Vapor or sublimation pressure, kPa	uncertainty
293.15	0.0624	622920	25800
293.15	0.1001	511920	22890
293.15	0.1687	400920	21360
293.15	0.2588	349060	21980
293.15	0.3404	297210	21220
293.15	0.4159	267710	21350
293.15	0.4995	238200	21240
293.15	0.5798	217950	21100
293.15	0.6594	201260	21120
293.15	0.7382	180780	20880
293.15	0.8185	173710	21200
293.15	0.8995	150380	20930
293.15	0.9788	148100	21330
293.15	1	133010	21010
303.15	0.0624	785650	25800
303.15	0.1001	644020	24030
303.15	0.1687	502390	22520
303.15	0.2588	438360	22040
303.15	0.3404	374320	21600
303.15	0.4159	343210	21520
303.15	0.4995	312100	21440
303.15	0.5798	285830	21250
303.15	0.6594	267380	21190
303.15	0.7382	245040	21140
303.15	0.8185	238270	21130
303.15	0.8995	218700	21210
303.15	0.9788	214950	21180
303.15	1	197130	21090
313.15	0.0624	948380	25810
313.15	0.1001	777770	24130
313.15	0.1687	607150	22680
313.15	0.2588	533350	22290
313.15	0.3404	459550	21930
313.15	0.4159	425680	21800
313.15	0.4995	391810	21670
313.15	0.5798	360590	21510
313.15	0.6594	339930	21420
313.15	0.7382	316600	21400
313.15	0.8185	308250	21320
313.15	0.8995	290310	21340
313.15	0.9788	285920	21340
313.15	1	265400	21240
323.15	0.0624	1111110	25820
323.15	0.1001	913160	24230
323.15	0.1687	715220	22840
323.15	0.2588	634050	22560
323.15	0.3404	552880	22280
323.15	0.4159	515100	22090
323.15	0.4995	477310	21910
323.15	0.5798	442230	21780
323.15	0.6594	418930	21680
323.15	0.7382	395440	21690
323.15	0.8185	383670	21530
323.15	0.8995	365190	21480
323.15	0.9788	361000	21510
323.15	1	337830	21410
333.15	0.0624	1273840	25830
333.15	0.1001	1050210	24340
333.15	0.1687	826580	23010
333.15	0.2588	740450	22840
333.15	0.3404	654310	22660
333.15	0.4159	611470	22410
333.15	0.4995	568630	22170
333.15	0.5798	530760	22080
333.15	0.6594	504380	21950
333.15	0.7382	481580	22010
333.15	0.8185	464520	21770
333.15	0.8995	443360	21630
333.15	0.9788	440200	21700
333.15	1	414420	21590
343.15	0.0624	1436570	25850
343.15	0.1001	1188900	27320
343.15	0.1687	941240	27120
343.15	0.2588	852550	22850
343.15	0.3404	763860	23440
343.15	0.4159	714800	22670
343.15	0.4995	665750	22440
343.15	0.5798	626170	22390
343.15	0.6594	596260	22230
343.15	0.7382	575010	22160
343.15	0.8185	550800	21890
343.15	0.8995	524800	22050
343.15	0.9788	523520	21350
343.15	1	495180	21710

System: 2,2-dimethylbutane + tridecane; phases: Liquid, Crystal 1
Fixed: Pressure, kPa = 100
Property: Solid-liquid equilibrium temperature, K (Liquid); method: VISOBS:UFactor:4
Mole fraction of tridecane	Solid-liquid equilibrium temperature, K	uncertainty
0.4921	254.2	0.62
0.5073	255.18	0.62
0.5303	255.98	0.62
0.5469	257.05	0.62
0.5738	258.41	0.62
0.6035	259.75	0.62
0.6201	260.64	0.62
0.6764	262.09	0.62
0.7216	263.27	0.62
0.7721	264.37	0.62
0.8044	265.17	0.62
0.8436	266.32	0.62
0.8881	267.01	0.62
0.9138	267.36	0.62
0.9591	268.33	0.62
1	269.01	0.62

System: 2,2-dimethylbutane + tridecane; phases: Liquid, Crystal 2
Fixed: Pressure, kPa = 100
Property: Solid-liquid equilibrium temperature, K (Liquid); method: VISOBS:UFactor:4
Mole fraction of tridecane	Solid-liquid equilibrium temperature, K	uncertainty
0.0552	228.55	0.65
0.0862	234.62	0.64
0.0981	235.68	0.63
0.1184	237.34	0.63
0.1316	238.65	0.63
0.1471	239.96	0.62
0.1563	240.54	0.63
0.1841	243.3	0.62
0.2084	244.66	0.62
0.2349	245.94	0.62
0.2593	246.94	0.62
0.2846	247.93	0.62
0.3071	248.64	0.62
0.3241	249.45	0.62
0.3432	250.03	0.62
0.3608	250.78	0.62
0.3804	251.36	0.62
0.4118	252.4	0.62
0.4321	252.88	0.62
0.4546	253.45	0.62
0.473	253.83	0.62
0.4861	254.11	0.62

System: 2,2-dimethylbutane + tridecane; phases: Liquid, Crystal
Property: Vapor or sublimation pressure, kPa (Liquid); method: discontinuity in P-V curve on crystallization
Temperature, K	Mole fraction of tridecane	Vapor or sublimation pressure, kPa	uncertainty
293.15	0.0882	522930	23110
293.15	0.1803	399290	21430
293.15	0.2602	334890	21670
293.15	0.3401	288590	21610
293.15	0.4198	255760	21420
293.15	0.5001	226540	20870
293.15	0.578	216130	21330
293.15	0.6587	193440	21180
293.15	0.7392	172500	21360
293.15	0.8197	151570	21330
293.15	0.8971	147000	21260
293.15	0.9777	135820	21040
293.15	1	133010	21010
303.15	0.0882	638460	23110
303.15	0.1803	491180	22190
303.15	0.2602	423960	22070
303.15	0.3401	374530	21900
303.15	0.4198	333530	21580
303.15	0.5001	291900	21260
303.15	0.578	286010	21330
303.15	0.6587	263340	21270
303.15	0.7392	247060	21390
303.15	0.8197	230770	21520
303.15	0.8971	216650	21210
303.15	0.9777	200930	21120
303.15	1	197130	21090
313.15	0.0882	754000	23120
313.15	0.1803	590830	22540
313.15	0.2602	520720	22410
313.15	0.3401	466350	22160
313.15	0.4198	416720	21800
313.15	0.5001	369720	21720
313.15	0.578	363050	21600
313.15	0.6587	336790	21400
313.15	0.7392	323030	21460
313.15	0.8197	309260	21510
313.15	0.8971	286730	21320
313.15	0.9777	270080	21270
313.15	1	265400	21240
323.15	0.0882	869540	23130
323.15	0.1803	698250	22920
323.15	0.2602	625170	22780
323.15	0.3401	564040	22430
323.15	0.4198	505340	22030
323.15	0.5001	460000	22250
323.15	0.578	447230	21890
323.15	0.6587	413790	21550
323.15	0.7392	400410	21530
323.15	0.8197	387030	21510
323.15	0.8971	361760	21510
323.15	0.9777	343270	21430
323.15	1	337830	21410
333.15	0.0882	985070	23140
333.15	0.1803	813420	23320
333.15	0.2602	737300	23170
333.15	0.3401	667610	22710
333.15	0.4198	599380	22280
333.15	0.5001	562730	22840
333.15	0.578	538570	22210
333.15	0.6587	494330	21700
333.15	0.7392	479210	21610
333.15	0.8197	464090	21510
333.15	0.8971	441740	21730
333.15	0.9777	420510	21610
333.15	1	414420	21590
343.15	0.0882	1100610	23150
343.15	0.1803	936360	24780
343.15	0.2602	857130	23370
343.15	0.3401	777060	22900
343.15	0.4198	698850	23330
343.15	0.5001	677910	22830
343.15	0.578	637070	22160
343.15	0.6587	578430	22340
343.15	0.7392	559430	21660
343.15	0.8197	540420	21590
343.15	0.8971	526670	21730
343.15	0.9777	501780	21730
343.15	1	495180	21710

System: tridecane + 1-hexyne; phases: Liquid, Crystal 1
Fixed: Pressure, kPa = 100
Property: Solid-liquid equilibrium temperature, K (Liquid); method: VISOBS:UFactor:4
Mole fraction of tridecane	Solid-liquid equilibrium temperature, K	uncertainty
0.4103	255.32	0.62
0.4282	255.78	0.62
0.448	256.65	0.62
0.4714	257.43	0.62
0.5056	258.44	0.62
0.5451	259.37	0.62
0.5745	260.06	0.62
0.6053	260.95	0.62
0.6397	262.05	0.62
0.6663	262.72	0.62
0.6957	263.31	0.62
0.7338	264.45	0.62
0.7731	265.3	0.62
0.8093	266	0.62
0.8372	266.74	0.62
0.8774	267.47	0.62
0.9203	268.13	0.62
0.9697	268.81	0.62
1	269.01	0.62

System: tridecane + 1-hexyne; phases: Liquid, Crystal 2
Fixed: Pressure, kPa = 100
Property: Solid-liquid equilibrium temperature, K (Liquid); method: VISOBS:UFactor:4
Mole fraction of tridecane	Solid-liquid equilibrium temperature, K	uncertainty
0.0035	231.94	0.64
0.0665	240.75	0.63
0.1057	245.25	0.63
0.1473	247.76	0.62
0.1744	248.79	0.62
0.1981	249.62	0.62
0.2314	250.91	0.62
0.2593	251.64	0.62
0.2904	252.69	0.62
0.3058	253.15	0.62
0.3321	253.55	0.62
0.3457	253.77	0.62
0.3556	253.81	0.62
0.3702	254.12	0.62
0.3828	254.37	0.62

System: tridecane + 1-hexyne; phases: Liquid, Crystal
Property: Vapor or sublimation pressure, kPa (Liquid); method: discontinuity in P-V curve on crystallization
Temperature, K	Mole fraction of tridecane	Vapor or sublimation pressure, kPa	uncertainty
293.15	0.0312	505230	22130
293.15	0.1007	393930	21250
293.15	0.1798	334430	21880
293.15	0.2589	274930	21310
293.15	0.3403	247510	21600
293.15	0.4196	226700	21740
293.15	0.4994	206590	21370
293.15	0.5616	199010	21280
293.15	0.6587	184210	21220
293.15	0.7391	170900	21180
293.15	0.8084	162000	21120
293.15	0.9001	149100	21190
293.15	0.9791	138180	21140
293.15	1	133010	21010
303.15	0.0312	599850	22010
303.15	0.1007	486550	21950
303.15	0.1798	423040	21850
303.15	0.2589	359530	21750
303.15	0.3403	330800	21780
303.15	0.4196	311940	21700
303.15	0.4994	284740	21570
303.15	0.5616	270760	21390
303.15	0.6587	254490	21290
303.15	0.7391	241220	21290
303.15	0.8084	229340	21180
303.15	0.9001	218700	21230
303.15	0.9791	205250	21180
303.15	1	197130	21090
313.15	0.0312	688490	21870
313.15	0.1007	574190	21750
313.15	0.1798	509620	21770
313.15	0.2589	445060	21790
313.15	0.3403	419350	22000
313.15	0.4196	394500	21780
313.15	0.4994	367320	21750
313.15	0.5616	349670	21660
313.15	0.6587	329290	21470
313.15	0.7391	315730	21450
313.15	0.8084	299820	21350
313.15	0.9001	290040	21310
313.15	0.9791	276070	21320
313.15	1	265400	21240
323.15	0.0312	776120	21850
323.15	0.1007	656860	21570
323.15	0.1798	594180	21700
323.15	0.2589	531500	21830
323.15	0.3403	513180	21970
323.15	0.4196	482920	22030
323.15	0.4994	454350	21940
323.15	0.5616	435740	21960
323.15	0.6587	408610	21650
323.15	0.7391	394440	21630
323.15	0.8084	376760	21610
323.15	0.9001	363100	21390
323.15	0.9791	350650	21480
323.15	1	337830	21410
333.15	0.0312	863820	22230
333.15	0.1007	734560	21720
333.15	0.1798	676720	22220
333.15	0.2589	618870	22780
333.15	0.3403	599600	22270
333.15	0.4196	577190	22290
333.15	0.4994	545820	22150
333.15	0.5616	528970	22110
333.15	0.6587	492450	21850
333.15	0.7391	477350	21810
333.15	0.8084	460160	21880
333.15	0.9001	437900	21480
333.15	0.9791	428980	21420
333.15	1	414420	21590
343.15	0.0312	969260	22640
343.15	0.1007	825000	23860
343.15	0.1798	786500	22850
343.15	0.2589	748000	23830
343.15	0.3403	707000	22930
343.15	0.4196	677320	22360
343.15	0.4994	641730	22380
343.15	0.5616	620900	22020
343.15	0.6587	580810	22220
343.15	0.7391	564450	21920
343.15	0.8084	550030	21860
343.15	0.9001	514420	21730
343.15	0.9791	498100	21320
343.15	1	495180	21710

System: benzene + tridecane; phases: Liquid, Crystal 1
Fixed: Pressure, kPa = 100
Property: Solid-liquid equilibrium temperature, K (Liquid); method: VISOBS:UFactor:2
Mole fraction of tridecane	Solid-liquid equilibrium temperature, K	uncertainty
0.5019	257.02	0.31
0.5309	258.05	0.31
0.5496	258.62	0.31
0.5692	258.99	0.31
0.591	259.35	0.31
0.6135	260.01	0.31
0.63	260.55	0.31
0.6702	261.65	0.31
0.7087	262.57	0.31
0.7418	263.32	0.31
0.7733	264.17	0.31
0.8022	264.83	0.31
0.8633	266.27	0.31
0.8893	266.92	0.31
0.9229	267.51	0.31
0.9489	268.15	0.31
1	269.01	0.31

System: benzene + tridecane; phases: Liquid, Crystal 2
Fixed: Pressure, kPa = 100
Property: Solid-liquid equilibrium temperature, K (Liquid); method: VISOBS:UFactor:2
Mole fraction of tridecane	Solid-liquid equilibrium temperature, K	uncertainty
0.4757	255.71	0.32
0.4836	256.3	0.32

System: benzene + tridecane; phases: Liquid, Crystal
Fixed: Pressure, kPa = 100
Property: Solid-liquid equilibrium temperature, K (Liquid); method: VISOBS:UFactor:4
Mole fraction of tridecane	Solid-liquid equilibrium temperature, K	uncertainty
0	279.05	0.62
0.0323	277.8	0.62
0.0407	277.27	0.62
0.0492	276.68	0.62
0.0588	276.17	0.62
0.0682	275.68	0.62
0.0861	274.67	0.62
0.1042	273.7	0.62
0.1201	273.06	0.62
0.1351	272.32	0.62
0.1517	271.44	0.62
0.1745	270.49	0.62
0.196	269.57	0.62
0.221	268.36	0.62
0.2504	266.91	0.62
0.2804	265.9	0.62
0.2966	265.01	0.62
0.3242	263.5	0.62
0.3618	261.45	0.62
0.3955	259.65	0.62
0.4226	258.04	0.62
0.4381	257.11	0.62
0.4592	256.23	0.62

System: benzene + tridecane; phases: Liquid, Crystal
Property: Vapor or sublimation pressure, kPa (Liquid); method: discontinuity in P-V curve on crystallization
Temperature, K	Mole fraction of tridecane	Vapor or sublimation pressure, kPa	uncertainty
293.15	0	53620	20370
293.15	0.021	60310	20380
293.15	0.0967	90350	20400
293.15	0.1788	115270	20480
293.15	0.2642	148190	20710
293.15	0.3379	180660	21100
293.15	0.3723	198150	21180
293.15	0.4196	216440	21260
293.15	0.4735	228840	21620
293.15	0.5008	220050	21240
293.15	0.5762	208350	21190
293.15	0.6587	196050	21100
293.15	0.7373	179340	21140
293.15	0.8164	167280	21070
293.15	0.9024	150680	21030
293.15	1	133010	21010
303.15	0	92220	20390
303.15	0.021	100130	20420
303.15	0.0967	128040	20390
303.15	0.1788	161600	20580
303.15	0.2642	203150	20670
303.15	0.3379	248680	21030
303.15	0.3723	266090	21160
303.15	0.4196	285750	21280
303.15	0.4735	304200	21430
303.15	0.5008	293270	21400
303.15	0.5762	278330	21320
303.15	0.6587	261160	21180
303.15	0.7373	248940	21210
303.15	0.8164	231950	21140
303.15	0.9024	215720	21140
303.15	1	197130	21090
313.15	0	133290	20440
313.15	0.021	142240	20460
313.15	0.0967	170060	20480
313.15	0.1788	211900	20680
313.15	0.2642	252180	20760
313.15	0.3379	310160	20860
313.15	0.3723	335840	21230
313.15	0.4196	360880	21490
313.15	0.4735	381570	21680
313.15	0.5008	371100	21670
313.15	0.5762	354750	21560
313.15	0.6587	333950	21450
313.15	0.7373	319490	21410
313.15	0.8164	302670	21350
313.15	0.9024	286000	21330
313.15	1	265400	21240
323.15	0	176820	20500
323.15	0.021	186640	20510
323.15	0.0967	216430	20580
323.15	0.1788	266170	20780
323.15	0.2642	314130	21050
323.15	0.3379	366160	21270
323.15	0.3723	407470	21600
323.15	0.4196	441820	21720
323.15	0.4735	469990	22050
323.15	0.5008	458840	22030
323.15	0.5762	437600	21820
323.15	0.6587	414440	21760
323.15	0.7373	399820	21630
323.15	0.8164	379420	21590
323.15	0.9024	361540	21540
323.15	1	337830	21410
333.15	0	222810	20550
333.15	0.021	233320	20570
333.15	0.0967	267130	20690
333.15	0.1788	324420	20890
333.15	0.2642	382700	21270
333.15	0.3379	453840	21850
333.15	0.3723	497950	21930
333.15	0.4196	528580	21960
333.15	0.4735	565480	22650
333.15	0.5008	553650	22460
333.15	0.5762	526900	22110
333.15	0.6587	502620	22090
333.15	0.7373	481100	21750
333.15	0.8164	462220	21850
333.15	0.9024	442330	21770
333.15	1	414420	21590
343.15	0	271270	20580
343.15	0.021	282300	20590
343.15	0.0967	322180	20940
343.15	0.1788	386630	21000
343.15	0.2642	457910	21670
343.15	0.3379	540640	21950
343.15	0.3723	585480	21600
343.15	0.4196	621150	22350
343.15	0.4735	680100	22160
343.15	0.5008	660410	22890
343.15	0.5762	622640	22510
343.15	0.6587	598500	22150
343.15	0.7373	566270	22080
343.15	0.8164	551050	21930
343.15	0.9024	528380	21820
343.15	1	495180	21710
