Measured thermophysical data. Densities, Viscosities, and Refractive Indices for Binary and Ternary Mixtures of Diisopropyl Ether, Ethanol, and 2,2,4-Trimethylpentane
Source: J. Chem. Eng. Data, 2006, 10.1021/je050367p
Compound 1: diisopropyl ether, C6H14O, InChI=1S/C6H14O/c1-5(2)7-6(3)4/h5-6H,1-4H3, purity 99%
Compound 2: ethanol, C2H6O, InChI=1S/C2H6O/c1-2-3/h3H,2H2,1H3, purity 99.8%
Compound 3: 2,2,4-trimethylpentane, C8H18, InChI=1S/C8H18/c1-7(2)6-8(3,4)5/h7H,6H2,1-5H3, purity 99.5%

System: diisopropyl ether; phases: Liquid
Fixed: Pressure, kPa = 101.325
Property: Refractive index (Na D-line) (Liquid); method: Standard Abbe refractometry
Temperature, K	Refractive index (Na D-line)	uncertainty
288.15	1.37093	0.00032
298.15	1.36524	0.00032
308.15	1.35944	0.00032

System: diisopropyl ether; phases: Liquid
Property: Viscosity, Pa*s (Liquid); method: Capillary tube (Ostwald; Ubbelohde) method
Temperature, K	Pressure, kPa	Viscosity, Pa*s	uncertainty
288.15	100.5	0.000348	7e-06
288.15	100.8	0.000348	7e-06
298.15	100.5	0.000313	6e-06
298.15	100.8	0.000313	6e-06
308.15	100.5	0.000283	6e-06
308.15	100.8	0.000283	6e-06

System: diisopropyl ether; phases: Liquid
Property: Mass density, kg/m3 (Liquid); method: VIBTUB:UFactor:2
Temperature, K	Pressure, kPa	Mass density, kg/m3	uncertainty
288.15	100.5	729.09	0.3
288.15	100.8	729.09	0.3
298.15	100.5	718.7	0.3
298.15	100.8	718.7	0.3
308.15	100.5	708.12	0.31
308.15	100.8	708.12	0.31

System: ethanol; phases: Liquid
Fixed: Pressure, kPa = 101.325
Property: Refractive index (Na D-line) (Liquid); method: Standard Abbe refractometry
Temperature, K	Refractive index (Na D-line)	uncertainty
288.15	1.36342	0.00031
298.15	1.35924	0.00031
308.15	1.35502	0.00031

System: ethanol; phases: Liquid
Property: Viscosity, Pa*s (Liquid); method: Capillary tube (Ostwald; Ubbelohde) method
Temperature, K	Pressure, kPa	Viscosity, Pa*s	uncertainty
288.15	100.5	0.001309	9e-06
288.15	100.8	0.001309	1.1e-05
298.15	100.5	0.001084	9e-06
298.15	100.8	0.001084	9e-06
308.15	100.5	0.000905	8e-06
308.15	100.8	0.000905	8e-06

System: ethanol; phases: Liquid
Property: Mass density, kg/m3 (Liquid); method: VIBTUB:UFactor:2
Temperature, K	Pressure, kPa	Mass density, kg/m3	uncertainty
288.15	100.5	793.74	0.23
288.15	100.8	793.74	0.23
298.15	100.5	785.17	0.23
298.15	100.8	785.17	0.23
308.15	100.5	776.49	0.24
308.15	100.8	776.49	0.24

System: 2,2,4-trimethylpentane; phases: Liquid
Fixed: Pressure, kPa = 101.325
Property: Refractive index (Na D-line) (Liquid); method: Standard Abbe refractometry
Temperature, K	Refractive index (Na D-line)	uncertainty
288.15	1.39404	0.00031
298.15	1.389	0.00031
308.15	1.38395	0.00031

System: 2,2,4-trimethylpentane; phases: Liquid
Fixed: Pressure, kPa = 100.8
Property: Viscosity, Pa*s (Liquid); method: Capillary tube (Ostwald; Ubbelohde) method
Temperature, K	Viscosity, Pa*s	uncertainty
288.15	0.000537	7e-06
298.15	0.00048	7e-06
308.15	0.000432	7e-06

System: 2,2,4-trimethylpentane; phases: Liquid
Fixed: Pressure, kPa = 100.8
Property: Mass density, kg/m3 (Liquid); method: VIBTUB:UFactor:2
Temperature, K	Mass density, kg/m3	uncertainty
288.15	695.95	0.31
298.15	687.74	0.31
308.15	679.43	0.32
308.15	679.41	0.32

System: ethanol + diisopropyl ether; phases: Liquid
Fixed: Pressure, kPa = 100.5
Property: Viscosity, Pa*s (Liquid); method: Capillary tube (Ostwald; Ubbelohde) method
Temperature, K	Mole fraction of diisopropyl ether	Viscosity, Pa*s	uncertainty
288.15	0	0.001309	9e-06
288.15	0.05	0.001176	9e-06
288.15	0.1	0.001046	8e-06
288.15	0.15	0.000946	8e-06
288.15	0.2	0.00085	8e-06
288.15	0.25	0.000771	8e-06
288.15	0.3	0.000705	7e-06
288.15	0.35	0.000648	7e-06
288.15	0.4	0.000599	7e-06
288.15	0.45	0.000558	7e-06
288.15	0.5	0.000523	7e-06
288.15	0.55	0.000493	7e-06
288.15	0.6	0.000468	7e-06
288.15	0.65	0.000444	7e-06
288.15	0.7	0.000423	7e-06
288.15	0.7499	0.000407	7e-06
288.15	0.8	0.000392	7e-06
288.15	0.85	0.000378	7e-06
288.15	0.9	0.000367	7e-06
288.15	0.95	0.000357	7e-06
288.15	1	0.000348	7e-06
298.15	0	0.001084	9e-06
298.15	0.05	0.000975	8e-06
298.15	0.1	0.000875	8e-06
298.15	0.15	0.000793	8e-06
298.15	0.2	0.000719	7e-06
298.15	0.25	0.000656	7e-06
298.15	0.3	0.000603	7e-06
298.15	0.35	0.000558	7e-06
298.15	0.4	0.000519	7e-06
298.15	0.45	0.000486	7e-06
298.15	0.5	0.000458	7e-06
298.15	0.55	0.000432	7e-06
298.15	0.6	0.000412	7e-06
298.15	0.65	0.000392	7e-06
298.15	0.7	0.000376	7e-06
298.15	0.7499	0.000362	7e-06
298.15	0.8	0.00035	7e-06
298.15	0.85	0.000339	6e-06
298.15	0.9	0.000329	6e-06
298.15	0.95	0.00032	6e-06
298.15	1	0.000313	6e-06
308.15	0	0.000905	8e-06
308.15	0.05	0.000814	8e-06
308.15	0.1	0.000736	7e-06
308.15	0.15	0.00067	7e-06
308.15	0.2	0.000612	7e-06
308.15	0.25	0.000562	7e-06
308.15	0.3	0.00052	7e-06
308.15	0.35	0.000484	7e-06
308.15	0.4	0.000453	7e-06
308.15	0.45	0.000426	7e-06
308.15	0.5	0.000403	7e-06
308.15	0.55	0.000383	7e-06
308.15	0.6	0.000365	7e-06
308.15	0.65	0.00035	7e-06
308.15	0.7	0.000336	6e-06
308.15	0.7499	0.000324	6e-06
308.15	0.8	0.000314	6e-06
308.15	0.85	0.000305	6e-06
308.15	0.9	0.000297	6e-06
308.15	0.95	0.000289	6e-06
308.15	1	0.000283	6e-06

System: ethanol + diisopropyl ether; phases: Liquid
Fixed: Pressure, kPa = 100.8
Property: Refractive index (Na D-line) (Liquid); method: Standard Abbe refractometry
Temperature, K	Mole fraction of diisopropyl ether	Refractive index (Na D-line)	uncertainty
288.15	0	1.36342	0.00031
288.15	0.05	1.36501	0.00031
288.15	0.1	1.36653	0.00031
288.15	0.15	1.36768	0.00031
288.15	0.2	1.3686	0.00031
288.15	0.25	1.36935	0.00031
288.15	0.3	1.36998	0.00031
288.15	0.35	1.37047	0.00031
288.15	0.4	1.37086	0.00031
288.15	0.45	1.37117	0.00031
288.15	0.5	1.3714	0.00031
288.15	0.55	1.37159	0.00031
288.15	0.6	1.37174	0.00031
288.15	0.65	1.37183	0.00031
288.15	0.7	1.37187	0.00031
288.15	0.7499	1.37187	0.00031
288.15	0.8	1.37181	0.00031
288.15	0.85	1.37167	0.00031
288.15	0.9	1.3715	0.00031
288.15	0.95	1.3712	0.00032
288.15	1	1.37093	0.00032
298.15	0	1.35924	0.00031
298.15	0.05	1.36077	0.00031
298.15	0.1	1.3621	0.00031
298.15	0.15	1.3631	0.00031
298.15	0.2	1.36392	0.00031
298.15	0.25	1.36456	0.00031
298.15	0.3	1.3651	0.00031
298.15	0.35	1.3655	0.00031
298.15	0.4	1.36582	0.00031
298.15	0.45	1.36608	0.00031
298.15	0.5	1.3663	0.00031
298.15	0.55	1.36642	0.00031
298.15	0.6	1.36648	0.00031
298.15	0.65	1.36649	0.00031
298.15	0.7	1.36646	0.00031
298.15	0.7499	1.36638	0.00031
298.15	0.8	1.36627	0.00031
298.15	0.85	1.36611	0.00031
298.15	0.9	1.36588	0.00031
298.15	0.95	1.36558	0.00032
298.15	1	1.36524	0.00032
308.15	0	1.35502	0.00031
308.15	0.05	1.35646	0.00031
308.15	0.1	1.35763	0.00031
308.15	0.15	1.3585	0.00031
308.15	0.2	1.35923	0.00031
308.15	0.25	1.35977	0.00031
308.15	0.3	1.36021	0.00031
308.15	0.35	1.36052	0.00031
308.15	0.4	1.36077	0.00031
308.15	0.45	1.36093	0.00031
308.15	0.5	1.36103	0.00031
308.15	0.55	1.36107	0.00031
308.15	0.6	1.36109	0.00031
308.15	0.65	1.36108	0.00031
308.15	0.7	1.36098	0.00031
308.15	0.7499	1.36085	0.00031
308.15	0.8	1.36068	0.00031
308.15	0.85	1.36044	0.00031
308.15	0.9	1.36019	0.00031
308.15	0.95	1.35986	0.00032
308.15	1	1.35944	0.00032

System: ethanol + diisopropyl ether; phases: Liquid
Fixed: Pressure, kPa = 100.5
Property: Mass density, kg/m3 (Liquid); method: VIBTUB:UFactor:2
Temperature, K	Mole fraction of diisopropyl ether	Mass density, kg/m3	uncertainty
288.15	0	793.74	0.23
288.15	0.05	788.65	0.23
288.15	0.1	783.6	0.24
288.15	0.15	779.02	0.24
288.15	0.2	774.89	0.24
288.15	0.25	770.69	0.25
288.15	0.3	766.92	0.25
288.15	0.35	763.36	0.26
288.15	0.4	760.02	0.26
288.15	0.45	756.93	0.26
288.15	0.5	753.87	0.27
288.15	0.55	750.98	0.27
288.15	0.6	748.29	0.27
288.15	0.65	745.73	0.27
288.15	0.7	743.19	0.28
288.15	0.7499	740.73	0.28
288.15	0.8	738.4	0.28
288.15	0.85	735.94	0.29
288.15	0.9	733.6	0.29
288.15	0.95	731.15	0.29
288.15	1	729.09	0.3
298.15	0	785.17	0.23
298.15	0.05	779.96	0.24
298.15	0.1	774.78	0.24
298.15	0.15	770.05	0.25
298.15	0.2	765.79	0.25
298.15	0.25	761.45	0.26
298.15	0.3	757.63	0.26
298.15	0.35	753.93	0.26
298.15	0.4	750.47	0.27
298.15	0.45	747.28	0.27
298.15	0.5	744.13	0.27
298.15	0.55	741.18	0.28
298.15	0.6	738.39	0.28
298.15	0.65	735.73	0.28
298.15	0.7	733.1	0.29
298.15	0.7499	730.59	0.29
298.15	0.8	728.19	0.29
298.15	0.85	725.76	0.29
298.15	0.9	723.36	0.3
298.15	0.95	720.98	0.3
298.15	1	718.7	0.3
308.15	0	776.49	0.24
308.15	0.05	771.13	0.25
308.15	0.1	765.84	0.25
308.15	0.15	760.98	0.25
308.15	0.2	756.58	0.26
308.15	0.25	752.16	0.26
308.15	0.3	748.12	0.27
308.15	0.35	744.32	0.27
308.15	0.4	740.76	0.27
308.15	0.45	737.5	0.28
308.15	0.5	734.3	0.28
308.15	0.55	731.25	0.28
308.15	0.6	728.37	0.29
308.15	0.65	725.59	0.29
308.15	0.7	722.86	0.29
308.15	0.7499	720.23	0.3
308.15	0.8	717.79	0.3
308.15	0.85	715.31	0.3
308.15	0.9	712.89	0.3
308.15	0.95	710.53	0.31
308.15	1	708.12	0.31

System: diisopropyl ether + 2,2,4-trimethylpentane; phases: Liquid
Fixed: Pressure, kPa = 100.8
Property: Viscosity, Pa*s (Liquid); method: Capillary tube (Ostwald; Ubbelohde) method
Temperature, K	Mole fraction of diisopropyl ether	Viscosity, Pa*s	uncertainty
288.15	0	0.000537	7e-06
288.15	0.05	0.000523	7e-06
288.15	0.1	0.000511	7e-06
288.15	0.15	0.000498	7e-06
288.15	0.2	0.000486	7e-06
288.15	0.25	0.000474	7e-06
288.15	0.3	0.000463	7e-06
288.15	0.35	0.000452	7e-06
288.15	0.4	0.000442	7e-06
288.15	0.45	0.000432	7e-06
288.15	0.5	0.000423	7e-06
288.15	0.55	0.000414	7e-06
288.15	0.6	0.000405	7e-06
288.15	0.65	0.000397	7e-06
288.15	0.7	0.000389	7e-06
288.15	0.75	0.000382	7e-06
288.15	0.8	0.000375	7e-06
288.15	0.85	0.000368	7e-06
288.15	0.9	0.000361	7e-06
288.15	0.9499	0.000354	7e-06
288.15	1	0.000348	7e-06
298.15	0	0.00048	7e-06
298.15	0.05	0.000468	7e-06
298.15	0.1	0.000456	7e-06
298.15	0.15	0.000445	7e-06
298.15	0.2	0.000435	7e-06
298.15	0.25	0.000425	7e-06
298.15	0.3	0.000415	7e-06
298.15	0.35	0.000406	7e-06
298.15	0.4	0.000397	7e-06
298.15	0.45	0.000388	7e-06
298.15	0.5	0.00038	7e-06
298.15	0.55	0.000372	7e-06
298.15	0.6	0.000364	7e-06
298.15	0.65	0.000357	7e-06
298.15	0.7	0.00035	7e-06
298.15	0.75	0.000343	7e-06
298.15	0.8	0.000337	6e-06
298.15	0.85	0.00033	6e-06
298.15	0.9	0.000325	6e-06
298.15	0.9499	0.000319	6e-06
298.15	1	0.000313	6e-06
308.15	0	0.000432	7e-06
308.15	0.05	0.000422	7e-06
308.15	0.1	0.000412	7e-06
308.15	0.15	0.000402	7e-06
308.15	0.2	0.000393	7e-06
308.15	0.25	0.000384	7e-06
308.15	0.3	0.000375	7e-06
308.15	0.35	0.000367	7e-06
308.15	0.4	0.000359	7e-06
308.15	0.45	0.000351	7e-06
308.15	0.5	0.000343	7e-06
308.15	0.55	0.000336	6e-06
308.15	0.6	0.000329	6e-06
308.15	0.65	0.000323	6e-06
308.15	0.7	0.000316	6e-06
308.15	0.75	0.00031	6e-06
308.15	0.8	0.000305	6e-06
308.15	0.85	0.000299	6e-06
308.15	0.9	0.000294	6e-06
308.15	0.9499	0.000288	6e-06
308.15	1	0.000283	6e-06

System: diisopropyl ether + 2,2,4-trimethylpentane; phases: Liquid
Fixed: Pressure, kPa = 100.8
Property: Refractive index (Na D-line) (Liquid); method: Standard Abbe refractometry
Temperature, K	Mole fraction of diisopropyl ether	Refractive index (Na D-line)	uncertainty
288.15	0	1.39404	0.00031
288.15	0.05	1.39293	0.00031
288.15	0.1	1.39183	0.00031
288.15	0.15	1.39072	0.00031
288.15	0.2	1.3896	0.00031
288.15	0.25	1.38846	0.00031
288.15	0.3	1.38733	0.00031
288.15	0.35	1.38619	0.00031
288.15	0.4	1.38504	0.00031
288.15	0.45	1.3839	0.00031
288.15	0.5	1.38274	0.00031
288.15	0.55	1.38158	0.00031
288.15	0.6	1.38042	0.00031
288.15	0.65	1.37926	0.00031
288.15	0.7	1.37809	0.00031
288.15	0.75	1.37691	0.00031
288.15	0.8	1.37573	0.00031
288.15	0.85	1.37456	0.00032
288.15	0.9	1.37337	0.00032
288.15	0.9499	1.37217	0.00032
288.15	1	1.37093	0.00032
298.15	0	1.389	0.00031
298.15	0.05	1.38786	0.00031
298.15	0.1	1.38672	0.00031
298.15	0.15	1.38557	0.00031
298.15	0.2	1.38443	0.00031
298.15	0.25	1.38326	0.00031
298.15	0.3	1.38209	0.00031
298.15	0.35	1.38092	0.00031
298.15	0.4	1.37974	0.00031
298.15	0.45	1.37856	0.00031
298.15	0.5	1.37737	0.00031
298.15	0.55	1.37618	0.00031
298.15	0.6	1.37499	0.00031
298.15	0.65	1.3738	0.00031
298.15	0.7	1.37259	0.00031
298.15	0.75	1.37138	0.00031
298.15	0.8	1.37016	0.00031
298.15	0.85	1.36896	0.00032
298.15	0.9	1.36774	0.00032
298.15	0.9499	1.3665	0.00032
298.15	1	1.36524	0.00032
308.15	0	1.38395	0.00031
308.15	0.05	1.38277	0.00031
308.15	0.1	1.38159	0.00031
308.15	0.15	1.38042	0.00031
308.15	0.2	1.37924	0.00031
308.15	0.25	1.37803	0.00031
308.15	0.3	1.37682	0.00031
308.15	0.35	1.37561	0.00031
308.15	0.4	1.3744	0.00031
308.15	0.45	1.37317	0.00031
308.15	0.5	1.37195	0.00031
308.15	0.55	1.37072	0.00031
308.15	0.6	1.36949	0.00031
308.15	0.65	1.36826	0.00031
308.15	0.7	1.36703	0.00031
308.15	0.75	1.36578	0.00031
308.15	0.8	1.36452	0.00031
308.15	0.85	1.36327	0.00032
308.15	0.9	1.36201	0.00032
308.15	0.9499	1.36073	0.00032
308.15	1	1.35944	0.00032

System: diisopropyl ether + 2,2,4-trimethylpentane; phases: Liquid
Fixed: Pressure, kPa = 100.8
Property: Mass density, kg/m3 (Liquid); method: VIBTUB:UFactor:2
Temperature, K	Mole fraction of diisopropyl ether	Mass density, kg/m3	uncertainty
288.15	0	695.95	0.31
288.15	0.05	697.2	0.31
288.15	0.1	698.46	0.31
288.15	0.15	699.73	0.31
288.15	0.2	701.06	0.31
288.15	0.25	702.44	0.31
288.15	0.3	703.86	0.3
288.15	0.35	705.33	0.3
288.15	0.4	706.84	0.3
288.15	0.45	708.37	0.3
288.15	0.5	709.97	0.3
288.15	0.55	711.64	0.3
288.15	0.6	713.36	0.3
288.15	0.65	715.15	0.3
288.15	0.7	716.97	0.3
288.15	0.75	718.85	0.3
288.15	0.8	720.8	0.3
288.15	0.85	722.8	0.3
288.15	0.9	724.9	0.3
288.15	0.9499	727	0.3
288.15	1	729.09	0.3
298.15	0	687.74	0.31
298.15	0.05	688.86	0.31
298.15	0.1	690.03	0.31
298.15	0.15	691.23	0.31
298.15	0.2	692.45	0.31
298.15	0.25	693.75	0.31
298.15	0.3	695.08	0.31
298.15	0.35	696.43	0.31
298.15	0.4	697.84	0.31
298.15	0.45	699.26	0.31
298.15	0.5	700.76	0.31
298.15	0.55	702.32	0.31
298.15	0.6	703.94	0.31
298.15	0.65	705.61	0.31
298.15	0.7	707.32	0.31
298.15	0.75	709.08	0.31
298.15	0.8	710.9	0.31
298.15	0.85	712.78	0.3
298.15	0.9	714.75	0.3
298.15	0.9499	716.73	0.3
298.15	1	718.7	0.3
308.15	0	679.43	0.32
308.15	0.05	680.44	0.32
308.15	0.1	681.52	0.32
308.15	0.15	682.62	0.32
308.15	0.2	683.75	0.32
308.15	0.25	684.95	0.32
308.15	0.3	686.17	0.32
308.15	0.35	687.42	0.32
308.15	0.4	688.72	0.32
308.15	0.45	690.03	0.32
308.15	0.5	691.42	0.32
308.15	0.55	692.86	0.32
308.15	0.6	694.35	0.31
308.15	0.65	695.92	0.31
308.15	0.7	697.5	0.31
308.15	0.75	699.14	0.31
308.15	0.8	700.83	0.31
308.15	0.85	702.59	0.31
308.15	0.9	704.42	0.31
308.15	0.9499	706.28	0.31
308.15	1	708.12	0.31

System: ethanol + 2,2,4-trimethylpentane; phases: Liquid
Fixed: Pressure, kPa = 100.8
Property: Viscosity, Pa*s (Liquid); method: Capillary tube (Ostwald; Ubbelohde) method
Temperature, K	Mole fraction of ethanol	Viscosity, Pa*s	uncertainty
288.15	0	0.000537	5e-06
288.15	0.0502	0.000532	5e-06
288.15	0.1	0.000535	5e-06
288.15	0.15	0.000542	5e-06
288.15	0.2	0.000551	5e-06
288.15	0.25	0.000564	5e-06
288.15	0.3	0.00058	5e-06
288.15	0.35	0.000601	5e-06
288.15	0.4	0.000625	5e-06
288.15	0.45	0.000652	6e-06
288.15	0.5	0.000682	6e-06
288.15	0.55	0.000718	6e-06
288.15	0.6	0.000755	6e-06
288.15	0.65	0.000797	7e-06
288.15	0.7	0.000843	7e-06
288.15	0.75	0.000894	7e-06
288.15	0.8	0.000952	8e-06
288.15	0.85	0.001018	8e-06
288.15	0.9	0.001095	9e-06
288.15	0.95	0.00119	1e-05
288.15	1	0.001309	1.1e-05
298.15	0	0.00048	4e-06
298.15	0.0502	0.000473	4e-06
298.15	0.1	0.000476	4e-06
298.15	0.15	0.00048	4e-06
298.15	0.2	0.000487	4e-06
298.15	0.25	0.000497	4e-06
298.15	0.3	0.00051	5e-06
298.15	0.35	0.000526	5e-06
298.15	0.4	0.000543	5e-06
298.15	0.45	0.000565	5e-06
298.15	0.5	0.000588	5e-06
298.15	0.55	0.000615	5e-06
298.15	0.6	0.000645	6e-06
298.15	0.65	0.000677	6e-06
298.15	0.7	0.000715	6e-06
298.15	0.75	0.000755	6e-06
298.15	0.8	0.000801	7e-06
298.15	0.85	0.000854	7e-06
298.15	0.9	0.000915	8e-06
298.15	0.95	0.000991	8e-06
298.15	1	0.001084	9e-06
308.15	0	0.000432	4e-06
308.15	0.0502	0.000424	4e-06
308.15	0.1	0.000426	4e-06
308.15	0.15	0.000429	4e-06
308.15	0.2	0.000434	4e-06
308.15	0.25	0.000441	4e-06
308.15	0.3	0.000451	4e-06
308.15	0.35	0.000462	4e-06
308.15	0.4	0.000476	4e-06
308.15	0.45	0.000492	4e-06
308.15	0.5	0.00051	4e-06
308.15	0.55	0.000531	5e-06
308.15	0.6	0.000554	5e-06
308.15	0.65	0.00058	5e-06
308.15	0.7	0.000609	5e-06
308.15	0.75	0.000642	6e-06
308.15	0.8	0.000678	6e-06
308.15	0.85	0.00072	6e-06
308.15	0.9	0.000769	6e-06
308.15	0.95	0.000828	7e-06
308.15	1	0.000905	8e-06

System: ethanol + 2,2,4-trimethylpentane; phases: Liquid
Fixed: Pressure, kPa = 100.8
Property: Refractive index (Na D-line) (Liquid); method: Standard Abbe refractometry
Temperature, K	Mole fraction of ethanol	Refractive index (Na D-line)	uncertainty
288.15	0	1.39404	0.00031
288.15	0.0502	1.39319	0.00031
288.15	0.1	1.39241	0.00031
288.15	0.15	1.39162	0.00031
288.15	0.2	1.39081	0.00031
288.15	0.25	1.38996	0.00031
288.15	0.3	1.38907	0.00031
288.15	0.35	1.38811	0.00031
288.15	0.4	1.38709	0.00031
288.15	0.45	1.38597	0.00031
288.15	0.5	1.38479	0.00031
288.15	0.55	1.3835	0.00031
288.15	0.6	1.38209	0.00031
288.15	0.65	1.38055	0.00031
288.15	0.7	1.37884	0.00031
288.15	0.75	1.37694	0.00031
288.15	0.8	1.37484	0.00031
288.15	0.85	1.37249	0.00031
288.15	0.9	1.36984	0.00031
288.15	0.95	1.36684	0.00031
288.15	1	1.36342	0.00031
298.15	0	1.389	0.00031
298.15	0.0502	1.3881	0.00031
298.15	0.1	1.3873	0.00031
298.15	0.15	1.38651	0.00031
298.15	0.2	1.38569	0.00031
298.15	0.25	1.38485	0.00031
298.15	0.3	1.38397	0.00031
298.15	0.35	1.38304	0.00031
298.15	0.4	1.38204	0.00031
298.15	0.45	1.38099	0.00031
298.15	0.5	1.37984	0.00031
298.15	0.55	1.37858	0.00031
298.15	0.6	1.37722	0.00031
298.15	0.65	1.37573	0.00031
298.15	0.7	1.37408	0.00031
298.15	0.75	1.37225	0.00031
298.15	0.8	1.3702	0.00031
298.15	0.85	1.36792	0.00031
298.15	0.9	1.36536	0.00031
298.15	0.95	1.36248	0.00031
298.15	1	1.35924	0.00031
308.15	0	1.38395	0.00031
308.15	0.0502	1.38297	0.00031
308.15	0.1	1.38217	0.00031
308.15	0.15	1.38138	0.00031
308.15	0.2	1.38056	0.00031
308.15	0.25	1.37972	0.00031
308.15	0.3	1.37885	0.00031
308.15	0.35	1.37794	0.00031
308.15	0.4	1.37696	0.00031
308.15	0.45	1.37593	0.00031
308.15	0.5	1.3748	0.00031
308.15	0.55	1.37358	0.00031
308.15	0.6	1.37227	0.00031
308.15	0.65	1.37083	0.00031
308.15	0.7	1.36922	0.00031
308.15	0.75	1.36745	0.00031
308.15	0.8	1.3655	0.00031
308.15	0.85	1.3633	0.00031
308.15	0.9	1.36085	0.00031
308.15	0.95	1.35812	0.00031
308.15	1	1.35502	0.00031

System: ethanol + 2,2,4-trimethylpentane; phases: Liquid
Fixed: Pressure, kPa = 100.8
Property: Mass density, kg/m3 (Liquid); method: VIBTUB:UFactor:2
Temperature, K	Mole fraction of ethanol	Mass density, kg/m3	uncertainty
288.15	0	695.95	0.31
288.15	0.0502	697.2	0.31
288.15	0.1	698.76	0.31
288.15	0.15	700.55	0.3
288.15	0.2	702.53	0.3
288.15	0.25	704.71	0.3
288.15	0.3	707.1	0.3
288.15	0.35	709.71	0.3
288.15	0.4	712.6	0.29
288.15	0.45	715.8	0.29
288.15	0.5	719.31	0.29
288.15	0.55	723.22	0.28
288.15	0.6	727.55	0.28
288.15	0.65	732.37	0.28
288.15	0.7	737.81	0.27
288.15	0.75	743.99	0.27
288.15	0.8	751.11	0.26
288.15	0.85	759.27	0.25
288.15	0.9	768.81	0.25
288.15	0.95	780.26	0.24
288.15	1	793.74	0.23
298.15	0	687.74	0.31
298.15	0.0502	688.84	0.31
298.15	0.1	690.33	0.31
298.15	0.15	692.11	0.31
298.15	0.2	694.07	0.31
298.15	0.25	696.21	0.31
298.15	0.3	698.57	0.3
298.15	0.35	701.17	0.3
298.15	0.4	704.03	0.3
298.15	0.45	707.2	0.3
298.15	0.5	710.68	0.29
298.15	0.55	714.59	0.29
298.15	0.6	718.9	0.29
298.15	0.65	723.73	0.28
298.15	0.7	729.14	0.28
298.15	0.75	735.34	0.27
298.15	0.8	742.37	0.27
298.15	0.85	750.54	0.26
298.15	0.9	760.17	0.25
298.15	0.95	771.59	0.25
298.15	1	785.17	0.23
308.15	0	679.41	0.32
308.15	0.0502	680.36	0.32
308.15	0.1	681.76	0.32
308.15	0.15	683.52	0.32
308.15	0.2	685.43	0.31
308.15	0.25	687.56	0.31
308.15	0.3	689.88	0.31
308.15	0.35	692.45	0.31
308.15	0.4	695.3	0.31
308.15	0.45	698.44	0.3
308.15	0.5	701.91	0.3
308.15	0.55	705.8	0.3
308.15	0.6	710.11	0.29
308.15	0.65	714.93	0.29
308.15	0.7	720.34	0.29
308.15	0.75	726.54	0.28
308.15	0.8	733.58	0.27
308.15	0.85	741.75	0.27
308.15	0.9	751.44	0.26
308.15	0.95	762.84	0.25
308.15	1	776.49	0.24

System: ethanol + diisopropyl ether + 2,2,4-trimethylpentane; phases: Liquid
Fixed: Temperature, K = 298.15
Fixed: Pressure, kPa = 100.8
Property: Viscosity, Pa*s (Liquid); method: Capillary tube (Ostwald; Ubbelohde) method
Mole fraction of diisopropyl ether	Mole fraction of ethanol	Viscosity, Pa*s	uncertainty
0.05	0.05	0.000461	7e-06
0.05	0.2	0.000474	7e-06
0.05	0.3	0.000494	7e-06
0.05	0.3999	0.000523	7e-06
0.05	0.5001	0.000565	7e-06
0.05	0.6	0.000618	7e-06
0.05	0.7	0.000682	7e-06
0.05	0.8	0.000768	8e-06
0.05	0.9	0.000879	8e-06
0.0501	0.0999	0.000464	7e-06
0.1	0.05	0.000453	7e-06
0.1	0.1501	0.00046	7e-06
0.1	0.25	0.000475	7e-06
0.1	0.35	0.0005	7e-06
0.1	0.4499	0.000533	7e-06
0.1	0.55	0.000574	7e-06
0.1	0.65	0.000631	7e-06
0.1	0.75	0.000702	7e-06
0.1	0.85	0.0008	8e-06
0.2	0.05	0.000432	7e-06
0.2	0.1501	0.000439	7e-06
0.2	0.25	0.000453	7e-06
0.2	0.3501	0.000475	7e-06
0.2	0.45	0.000504	7e-06
0.2	0.55	0.000543	7e-06
0.2	0.65	0.000596	7e-06
0.2	0.75	0.000664	7e-06
0.3	0.05	0.000414	7e-06
0.3	0.15	0.000421	7e-06
0.3	0.2501	0.000432	7e-06
0.3	0.35	0.000452	7e-06
0.3	0.45	0.000479	7e-06
0.3	0.55	0.000515	7e-06
0.3	0.65	0.000564	7e-06
0.3999	0.0501	0.000395	7e-06
0.3999	0.2501	0.000414	7e-06
0.4	0.15	0.000402	7e-06
0.4	0.3501	0.000431	7e-06
0.4	0.4501	0.000456	7e-06
0.4	0.55	0.000492	7e-06
0.5	0.05	0.000379	7e-06
0.5	0.1501	0.000387	7e-06
0.5	0.2499	0.000398	7e-06
0.5	0.35	0.000413	7e-06
0.5	0.45	0.000436	7e-06
0.5999	0.1502	0.00037	7e-06
0.6	0.0499	0.000363	7e-06
0.6	0.25	0.000382	7e-06
0.6	0.35	0.000398	7e-06
0.6999	0.05	0.000349	7e-06
0.7	0.1499	0.000355	7e-06
0.7	0.25	0.000366	7e-06
0.7999	0.05	0.000336	6e-06
0.7999	0.1501	0.000343	7e-06
0.8999	0.0501	0.000324	6e-06

System: ethanol + diisopropyl ether + 2,2,4-trimethylpentane; phases: Liquid
Fixed: Temperature, K = 298.15
Fixed: Pressure, kPa = 100.8
Property: Refractive index (Na D-line) (Liquid); method: Standard Abbe refractometry
Mole fraction of diisopropyl ether	Mole fraction of ethanol	Refractive index (Na D-line)	uncertainty
0.05	0.05	1.38719	0.00031
0.05	0.2	1.38474	0.00031
0.05	0.3	1.38297	0.00031
0.05	0.3999	1.38101	0.00031
0.05	0.5001	1.37872	0.00031
0.05	0.6	1.37605	0.00031
0.05	0.7	1.37278	0.00031
0.05	0.8	1.36881	0.00031
0.05	0.9	1.36383	0.00031
0.0501	0.0999	1.38637	0.00031
0.1	0.05	1.38605	0.00031
0.1	0.1501	1.38446	0.00031
0.1	0.25	1.38275	0.00031
0.1	0.35	1.38083	0.00031
0.1	0.4499	1.37866	0.00031
0.1	0.55	1.37609	0.00031
0.1	0.65	1.37305	0.00031
0.1	0.75	1.36938	0.00031
0.1	0.85	1.36481	0.00031
0.2	0.05	1.38382	0.00031
0.2	0.1501	1.38221	0.00031
0.2	0.25	1.38042	0.00031
0.2	0.3501	1.37842	0.00031
0.2	0.45	1.3761	0.00031
0.2	0.55	1.37338	0.00031
0.2	0.65	1.37017	0.00031
0.2	0.75	1.36628	0.00031
0.3	0.05	1.38153	0.00031
0.3	0.15	1.37991	0.00031
0.3	0.2501	1.37804	0.00031
0.3	0.35	1.37592	0.00031
0.3	0.45	1.37345	0.00031
0.3	0.55	1.37058	0.00031
0.3	0.65	1.3672	0.00031
0.3999	0.0501	1.37923	0.00031
0.3999	0.2501	1.3756	0.00031
0.4	0.15	1.37756	0.00031
0.4	0.3501	1.37335	0.00031
0.4	0.4501	1.37077	0.00031
0.4	0.55	1.36775	0.00031
0.5	0.05	1.37684	0.00031
0.5	0.1501	1.37513	0.00031
0.5	0.2499	1.37309	0.00031
0.5	0.35	1.37073	0.00031
0.5	0.45	1.36799	0.00031
0.5999	0.1502	1.37262	0.00031
0.6	0.0499	1.3744	0.00031
0.6	0.25	1.3705	0.00031
0.6	0.35	1.36803	0.00031
0.6999	0.05	1.37197	0.00031
0.7	0.1499	1.37012	0.00031
0.7	0.25	1.3679	0.00031
0.7999	0.05	1.36951	0.00031
0.7999	0.1501	1.36759	0.00031
0.8999	0.0501	1.36701	0.00032

System: ethanol + diisopropyl ether + 2,2,4-trimethylpentane; phases: Liquid
Fixed: Temperature, K = 298.15
Fixed: Pressure, kPa = 100.5
Property: Mass density, kg/m3 (Liquid); method: VIBTUB:UFactor:2
Mole fraction of diisopropyl ether	Mole fraction of ethanol	Mass density, kg/m3	uncertainty
0.05	0.05	690.25	0.31
0.05	0.2	695.9	0.31
0.05	0.3	700.73	0.3
0.05	0.3999	706.56	0.3
0.05	0.5001	713.68	0.29
0.05	0.6	722.4	0.28
0.05	0.7	733.46	0.28
0.05	0.8	747.79	0.26
0.05	0.9	767.21	0.25
0.0501	0.0999	691.93	0.31
0.1	0.05	691.66	0.31
0.1	0.1501	695.52	0.31
0.1	0.25	700.2	0.3
0.1	0.35	705.85	0.3
0.1	0.4499	712.68	0.29
0.1	0.55	721.15	0.29
0.1	0.65	731.66	0.28
0.1	0.75	745.18	0.27
0.1	0.85	763.3	0.25
0.2	0.05	694.47	0.31
0.2	0.1501	698.93	0.31
0.2	0.25	704.24	0.3
0.2	0.3501	710.62	0.3
0.2	0.45	718.37	0.29
0.2	0.55	727.92	0.28
0.2	0.65	739.99	0.27
0.2	0.75	755.85	0.26
0.3	0.05	697.4	0.31
0.3	0.15	702.5	0.3
0.3	0.2501	708.46	0.3
0.3	0.35	715.59	0.29
0.3	0.45	724.34	0.29
0.3	0.55	735.2	0.28
0.3	0.65	749.06	0.27
0.3999	0.0501	700.47	0.31
0.3999	0.2501	712.86	0.3
0.4	0.15	706.2	0.3
0.4	0.3501	720.86	0.29
0.4	0.4501	730.69	0.28
0.4	0.55	743.02	0.27
0.5	0.05	703.69	0.31
0.5	0.1501	710.11	0.3
0.5	0.2499	717.54	0.29
0.5	0.35	726.48	0.29
0.5	0.45	737.49	0.28
0.5999	0.1502	714.25	0.3
0.6	0.0499	707.12	0.31
0.6	0.25	722.51	0.29
0.6	0.35	732.5	0.28
0.6999	0.05	710.76	0.3
0.7	0.1499	718.63	0.3
0.7	0.25	727.78	0.29
0.7999	0.05	714.65	0.3
0.7999	0.1501	723.3	0.29
0.8999	0.0501	718.76	0.3
