Measured thermophysical data. Solubility of Several Short-Chain Lithium Dialkyldithiocarbamates in Liquid and Supercritical Carbon Dioxide
Source: J. Chem. Eng. Data, 2005, 10.1021/je0502952
Compound 1: carbon dioxide, CO2, InChI=1S/CO2/c2-1-3, purity 99.999%
Compound 2: lithium diethylcarbamodithioate, C5H10LiNS2, InChI=1S/C5H11NS2.Li/c1-3-6(4-2)5(7)8;/h3-4H2,1-2H3,(H,7,8);/q;+1/p-1, purity 98%
Compound 3: lithium dipropyldithiocarbamate, C7H14LiNS2, InChI=1S/C7H15NS2.Li/c1-3-5-8(6-4-2)7(9)10;/h3-6H2,1-2H3,(H,9,10);/q;+1/p-1, purity 98%
Compound 4: lithium dibutyldithiocarbamate, C9H18LiNS2, InChI=1S/C9H19NS2.Li/c1-3-5-7-10(9(11)12)8-6-4-2;/h3-8H2,1-2H3,(H,11,12);/q;+1/p-1, purity 98%
Compound 5: lithium bis(trifluoroethyl)dithiocarbamate, C5H4F6LiNS2, InChI=1S/C5H5F6NS2.Li/c6-4(7,8)1-12(3(13)14)2-5(9,10)11;/h1-2H2,(H,13,14);/q;+1/p-1, purity 98%

System: carbon dioxide + lithium diethylcarbamodithioate; phases: Fluid (supercritical or subcritical phases), Crystal
Property: Vapor or sublimation pressure, kPa (Fluid (supercritical or subcritical phases)); method: Closed cell (Static) method
Temperature, K	Mole fraction of lithium diethylcarbamodithioate	Vapor or sublimation pressure, kPa	uncertainty
298	2.6e-07	8500	800
298	1.02e-05	10000	1000
298	1.97e-05	12500	1200
298	2.91e-05	15000	1400
298	3.65e-05	17500	1700
298	4.09e-05	20000	1900
298	4.46e-05	22500	2200
298	5.84e-05	25000	2400
308	1.65e-05	10000	1000
308	3.61e-05	12500	1200
308	3.92e-05	15000	1400
308	5.36e-05	17500	1700
308	5.97e-05	20000	1900
308	6.96e-05	22500	2200
308	0.0001002	25000	2400
318	2.04e-05	12500	1200
318	5.6e-05	15000	1400
318	8.83e-05	17500	1700
318	0.0001146	18700	1800
318	0.000127	20000	1900
318	0.0001647	22500	2200

System: carbon dioxide + lithium dipropyldithiocarbamate; phases: Fluid (supercritical or subcritical phases), Crystal
Property: Vapor or sublimation pressure, kPa (Fluid (supercritical or subcritical phases)); method: Closed cell (Static) method
Temperature, K	Mole fraction of lithium dipropyldithiocarbamate	Vapor or sublimation pressure, kPa	uncertainty
298	5e-07	12200	1200
298	2.5e-06	15100	1400
298	5.5e-06	17500	1700
298	7.5e-06	20000	1900
298	1.17e-05	22500	2200
298	1.37e-05	23700	2300
298	1.99e-05	25000	2400
308	5.6e-07	10000	1000
308	2.3e-06	12500	1200
308	5.9e-06	15000	1400
308	9e-06	17500	1700
308	1.87e-05	20000	1900
308	2.1e-05	22500	2200
308	2.42e-05	23700	2300
308	2.6e-05	25000	2400
318	2e-06	12100	1200
318	1.02e-05	15200	1500
318	1.97e-05	17500	1700
318	2.33e-05	20000	1900
318	2.74e-05	22500	2200
318	3.15e-05	23700	2300
318	4e-05	25000	2400

System: carbon dioxide + lithium dibutyldithiocarbamate; phases: Fluid (supercritical or subcritical phases), Crystal
Property: Vapor or sublimation pressure, kPa (Fluid (supercritical or subcritical phases)); method: Closed cell (Static) method
Temperature, K	Mole fraction of lithium dibutyldithiocarbamate	Vapor or sublimation pressure, kPa	uncertainty
298	2.57e-05	8000	1000
298	3.15e-05	8900	1000
298	3.94e-05	9900	1000
298	4.8e-05	12400	1000
298	5.74e-05	14900	1000
298	7.48e-05	17400	1000
298	8.34e-05	19900	1000
298	9.16e-05	22400	1000
298	0.0001134	24800	1000
308	3.9e-05	8500	1000
308	5.22e-05	9900	1000
308	6.98e-05	12500	1000
308	8.19e-05	14900	1000
308	0.0001029	17500	1000
308	0.0001084	19900	1000
308	0.0001235	22400	1000
308	0.0001437	24900	1000
318	9.23e-05	8100	1000
318	0.0001029	9000	1000
318	0.0001056	10000	1000
318	0.0001264	12400	1000
318	0.0001433	14900	1100
318	0.0001426	17400	1100
318	0.000149	19900	1000
318	0.0001524	22400	1000
318	0.0001689	24900	1000

System: carbon dioxide + lithium bis(trifluoroethyl)dithiocarbamate; phases: Fluid (supercritical or subcritical phases), Crystal
Property: Vapor or sublimation pressure, kPa (Fluid (supercritical or subcritical phases)); method: Closed cell (Static) method
Temperature, K	Mole fraction of lithium bis(trifluoroethyl)dithiocarbamate	Vapor or sublimation pressure, kPa	uncertainty
298	2.57e-05	9900	900
298	3.41e-05	12400	1200
298	3.68e-05	14900	1400
298	5.13e-05	17300	1700
298	5.13e-05	19900	1900
298	5.66e-05	22400	2100
298	6.47e-05	24800	2400
308	3.15e-05	9900	1000
308	3.22e-05	9900	1000
308	3.96e-05	12400	1200
308	4.29e-05	14900	1400
308	5.35e-05	17300	1700
308	5.69e-05	19900	1900
308	5.79e-05	22400	2100
308	6.08e-05	24900	2400
308	6.18e-05	24900	2400
318	1.73e-05	9900	900
318	3.64e-05	12400	1200
318	4.45e-05	14900	1400
318	5.29e-05	17300	1700
318	5.81e-05	19900	1900
318	5.94e-05	22400	2100
318	6.86e-05	24800	2400
