Measured thermophysical data. Thermodynamics of the Sublimation and of the Vaporization of e-Caprolactam
Source: J. Chem. Eng. Data, 2006, 10.1021/je050277k
Compound 1: 1-aza-2-cycloheptanone, C6H11NO, InChI=1S/C6H11NO/c8-6-4-2-1-3-5-7-6/h1-5H2,(H,7,8), purity 99.9%

System: 1-aza-2-cycloheptanone; phases: Crystal, Gas
Property: Vapor or sublimation pressure, kPa (Crystal); method: Calculated from knudsen effusion weight loss
Temperature, K	Vapor or sublimation pressure, kPa	uncertainty
293.43	0.000153	9e-06
298.39	0.000275	1.7e-05
303.32	0.000474	2.9e-05
308.31	0.000813	5.1e-05
308.38	0.000858	5.4e-05
313.22	0.00143	0.00013
318.09	0.00235	0.00023
322.98	0.00393	0.00041
323.06	0.00379	0.0004
327.93	0.00636	0.00071
328	0.0061	0.00068
332.89	0.01	0.0012
332.93	0.0105	0.0012
337.82	0.0155	0.0019

System: 1-aza-2-cycloheptanone; phases: Crystal, Gas
Property: Vapor or sublimation pressure, kPa (Crystal); method: Transpiration method
Temperature, K	Vapor or sublimation pressure, kPa	uncertainty
302.3	0.00043	3e-05
305.4	0.00066	4e-05
306.2	0.0007	4e-05
309.2	0.00093	6e-05
312.2	0.00127	8e-05
314.7	0.00175	0.00011
316.7	0.0021	0.00013
321.1	0.00327	0.0002
321.3	0.00365	0.00023
323.9	0.00427	0.00026
326.3	0.00568	0.00035
328.3	0.00668	0.00041
330.2	0.00801	0.00049
333.2	0.01064	0.00065
336.3	0.01422	0.00087
337.4	0.01727	0.00106
339	0.01833	0.00112

System: 1-aza-2-cycloheptanone; phases: Liquid, Gas
Property: Vapor or sublimation pressure, kPa (Liquid); method: Transpiration method
Temperature, K	Vapor or sublimation pressure, kPa	uncertainty
345.2	0.0319	0.002
345.8	0.0322	0.002
347.8	0.0376	0.0023
350.9	0.0457	0.0028
353.9	0.0564	0.0035
355.4	0.0612	0.0037
357	0.071	0.0043
359.1	0.0758	0.0046
360.2	0.089	0.0055
362.1	0.0992	0.0061
363.1	0.103	0.0063
364.9	0.1189	0.0073
366.3	0.1294	0.0079
369.7	0.16	0.0098
372.2	0.1866	0.0114
