Measured thermophysical data. Thermodynamics and Equilibrium Solubility of Carbon Dioxide in Diglycolamine/ Morpholine/Water
Source: J. Chem. Eng. Data, 2006, 10.1021/je050472z
Compound 1: 2-(2-aminoethoxy)ethanol, C4H11NO2, InChI=1S/C4H11NO2/c5-1-3-7-4-2-6/h6H,1-5H2
Compound 2: tetrahydro-1,4-oxazine, C4H9NO, InChI=1S/C4H9NO/c1-3-6-4-2-5-1/h5H,1-4H2
Compound 3: water, H2O, InChI=1S/H2O/h1H2, purity 99.8%
Compound 4: carbon dioxide, CO2, InChI=1S/CO2/c2-1-3, purity 99%

System: carbon dioxide + 2-(2-aminoethoxy)ethanol + water; phases: Liquid, Gas
Fixed: Solvent: Molality, mol/kg of 2-(2-aminoethoxy)ethanol = 17.7
Property: Mole fraction of carbon dioxide (Liquid); method: IR spectroscopy
Temperature, K	Pressure, kPa of carbon dioxide	Mole fraction of carbon dioxide	uncertainty
297.2	15	0.23	0.02
296.8	735	0.43	0.04
314.2	10	0.1	0.07
312.5	75	0.23	0.08
311.9	2120	0.42	0.04
331.5	145	0.11	0.01
333.2	795	0.24	0.03
332.6	14750	0.42	0.04

System: tetrahydro-1,4-oxazine + carbon dioxide + water; phases: Liquid, Gas
Fixed: Solvent: Molality, mol/kg of tetrahydro-1,4-oxazine = 3.5
Property: Mole fraction of carbon dioxide (Liquid); method: IR spectroscopy
Pressure, kPa of carbon dioxide	Temperature, K	Mole fraction of carbon dioxide	uncertainty
10	297.4	0.08	0.01
35	312.8	0.08	0.01
250	333	0.08	0.01
1175	312.8	0.21	0.02
6150	332.5	0.21	0.02
9540	297	0.32	0.03
53700	313.1	0.32	0.03
