Measured thermophysical data. Surface Tensions of Aqueous Solutions of Sodium Alkyl Sulfates in Contact with Methane under Hydrate-Forming Conditions
Source: J. Chem. Eng. Data, 2005, 10.1021/je050139v
Compound 1: methane, CH4, InChI=1S/CH4/h1H4, purity 99.9%
Compound 2: sodium dodecyl sulfate, C12H25NaO4S, InChI=1S/C12H26O4S.Na/c1-2-3-4-5-6-7-8-9-10-11-12-16-17(13,14)15;/h2-12H2,1H3,(H,13,14,15);/q;+1/p-1, purity 99.5%
Compound 3: sodium tetradecyl sulfate, C14H29NaO4S, InChI=1S/C14H30O4S.Na/c1-2-3-4-5-6-7-8-9-10-11-12-13-14-18-19(15,16)17;/h2-14H2,1H3,(H,15,16,17);/q;+1/p-1, purity 98.5%
Compound 4: sodium hexadecyl sulfate, C16H33NaO4S, InChI=1S/C16H34O4S.Na/c1-2-3-4-5-6-7-8-9-10-11-12-13-14-15-16-20-21(17,18)19;/h2-16H2,1H3,(H,17,18,19);/q;+1/p-1, purity 98.5%
Compound 5: water, H2O, InChI=1S/H2O/h1H2

System: methane + sodium dodecyl sulfate + water; phases: Liquid, Gas
Fixed: Pressure, kPa = 3900
Property: Surface tension liquid-gas, N/m (Liquid); method: Pendant drop shape
Temperature, K	Solvent: Mass ratio of component to other component of binary solvent of sodium dodecyl sulfate	Surface tension liquid-gas, N/m	uncertainty
275	0.0005	0.0519	0.0017
275	0.001	0.0436	0.0014
275	0.0012	0.04	0.0013
275	0.0014	0.0389	0.0013
275	0.0015	0.0369	0.0012
275	0.00175	0.035	0.0011
275	0.0019	0.0345	0.0011
275	0.002	0.0322	0.0011
275	0.0021	0.0322	0.0011
275	0.00225	0.0309	0.001
275	0.0025	0.0306	0.001
275	0.003	0.031	0.001
293	0.001	0.0388	0.0013
293	0.0015	0.0336	0.0011
293	0.002	0.0317	0.001
293	0.00225	0.0295	0.001
293	0.0025	0.0291	0.001
293	0.003	0.0293	0.001

System: methane + sodium tetradecyl sulfate + water; phases: Liquid, Gas
Fixed: Temperature, K = 275
Fixed: Pressure, kPa = 3900
Property: Surface tension liquid-gas, N/m (Liquid); method: Pendant drop shape
Solvent: Mass ratio of component to other component of binary solvent of sodium tetradecyl sulfate	Surface tension liquid-gas, N/m	uncertainty
0.00015	0.0495	0.0016
0.0002	0.0449	0.0015
0.00025	0.0433	0.0014
0.0003	0.0394	0.0013
0.0004	0.0384	0.0013
0.0005	0.0402	0.0013

System: methane + sodium hexadecyl sulfate + water; phases: Liquid, Gas
Fixed: Temperature, K = 275
Fixed: Pressure, kPa = 3900
Property: Surface tension liquid-gas, N/m (Liquid); method: Pendant drop shape
Solvent: Mass ratio of component to other component of binary solvent of sodium hexadecyl sulfate	Surface tension liquid-gas, N/m	uncertainty
1e-05	0.0574	0.0019
2.5e-05	0.054	0.0018
3e-05	0.0528	0.0017
4e-05	0.0503	0.0017
5e-05	0.0502	0.0017
