Measured thermophysical data. Vapor-Liquid Equilibrium Behaviors of Coumarin and Vanillin in Ethanol, 1-Propanol, and 2-Propanol
Source: J. Chem. Eng. Data, 2006, 10.1021/je0505164
Compound 1: ethanol, C2H6O, InChI=1S/C2H6O/c1-2-3/h3H,2H2,1H3, purity 99.9%
Compound 2: propan-1-ol, C3H8O, InChI=1S/C3H8O/c1-2-3-4/h4H,2-3H2,1H3, purity 99.9%
Compound 3: propan-2-ol, C3H8O, InChI=1S/C3H8O/c1-3(2)4/h3-4H,1-2H3, purity 99.9%
Compound 4: 1,2-benzopyrone, C9H6O2, InChI=1S/C9H6O2/c10-9-6-5-7-3-1-2-4-8(7)11-9/h1-6H, purity 99%
Compound 5: vanillin, C8H8O3, InChI=1S/C8H8O3/c1-11-8-4-6(5-9)2-3-7(8)10/h2-5,10H,1H3, purity 98%

System: ethanol; phases: Liquid, Gas
Property: Normal boiling temperature, K (Liquid); method: Ebulliometric method (Recirculating still)
Normal boiling temperature, K	uncertainty
351.46	0.2

System: ethanol; phases: Liquid
Property: Mass density, kg/m3 (Liquid); method: VIBTUB:UFactor:2
Temperature, K	Pressure, kPa	Mass density, kg/m3	uncertainty
298.15	101.325	785.1	0.3

System: propan-1-ol; phases: Liquid, Gas
Property: Normal boiling temperature, K (Liquid); method: Ebulliometric method (Recirculating still)
Normal boiling temperature, K	uncertainty
370.21	0.2

System: propan-1-ol; phases: Liquid
Property: Mass density, kg/m3 (Liquid); method: VIBTUB:UFactor:2
Temperature, K	Pressure, kPa	Mass density, kg/m3	uncertainty
298.15	101.325	799.6	0.3

System: propan-2-ol; phases: Liquid, Gas
Property: Normal boiling temperature, K (Liquid); method: Ebulliometric method (Recirculating still)
Normal boiling temperature, K	uncertainty
355.39	0.2

System: propan-2-ol; phases: Liquid
Property: Mass density, kg/m3 (Liquid); method: VIBTUB:UFactor:2
Temperature, K	Pressure, kPa	Mass density, kg/m3	uncertainty
298.15	101.325	780.8	0.3

System: ethanol + 1,2-benzopyrone; phases: Liquid, Gas
Property: Vapor or sublimation pressure, kPa (Liquid); method: Ebulliometric method (Recirculating still)
Mole fraction of 1,2-benzopyrone	Temperature, K	Vapor or sublimation pressure, kPa	uncertainty
0.0202	351.54	98.25	0.43
0.0321	351.66	97.09	0.47
0.0391	351.89	98.15	0.44
0.0503	351.84	97.13	0.42

System: ethanol + 1,2-benzopyrone; phases: Gas, Liquid
Property: Mole fraction of 1,2-benzopyrone (Gas); method: spectrophotometer
Mole fraction of 1,2-benzopyrone	Temperature, K	Mole fraction of 1,2-benzopyrone	uncertainty
0.0202	351.54	3.8e-05	2e-06
0.0321	351.66	6.3e-05	2e-06
0.0391	351.89	7.6e-05	2e-06
0.0503	351.84	0.0001	2e-06

System: propan-1-ol + 1,2-benzopyrone; phases: Liquid, Gas
Property: Vapor or sublimation pressure, kPa (Liquid); method: Ebulliometric method (Recirculating still)
Mole fraction of 1,2-benzopyrone	Temperature, K	Vapor or sublimation pressure, kPa	uncertainty
0.0108	370.3	99.06	0.43
0.0166	370.49	99.21	0.44
0.0218	370.65	99.39	0.44
0.0257	370.63	98.65	0.44

System: propan-1-ol + 1,2-benzopyrone; phases: Gas, Liquid
Property: Mole fraction of 1,2-benzopyrone (Gas); method: spectophotometer
Mole fraction of 1,2-benzopyrone	Temperature, K	Mole fraction of 1,2-benzopyrone	uncertainty
0.0108	370.3	4.5e-05	2e-06
0.0166	370.49	6.8e-05	2e-06
0.0218	370.65	9.1e-05	2e-06
0.0257	370.63	0.000108	2e-06

System: propan-2-ol + 1,2-benzopyrone; phases: Liquid, Gas
Property: Vapor or sublimation pressure, kPa (Liquid); method: Ebulliometric method (Recirculating still)
Mole fraction of 1,2-benzopyrone	Temperature, K	Vapor or sublimation pressure, kPa	uncertainty
0.0171	355.72	99.4	0.44
0.0226	355.7	98.8	0.43
0.0281	355.85	98.91	0.43
0.0324	356.14	99.6	0.43

System: propan-2-ol + 1,2-benzopyrone; phases: Gas, Liquid
Property: Mole fraction of 1,2-benzopyrone (Gas); method: spectrophotometer
Mole fraction of 1,2-benzopyrone	Temperature, K	Mole fraction of 1,2-benzopyrone	uncertainty
0.0171	355.72	3.9e-05	2e-06
0.0226	355.7	5.7e-05	2e-06
0.0281	355.85	6.5e-05	2e-06
0.0324	356.14	7.7e-05	2e-06

System: ethanol + vanillin; phases: Liquid, Gas
Property: Vapor or sublimation pressure, kPa (Liquid); method: Ebulliometric method (Recirculating still)
Mole fraction of vanillin	Temperature, K	Vapor or sublimation pressure, kPa	uncertainty
0.0097	351.21	99.13	0.43
0.0179	351.62	99.46	0.43
0.0265	352.16	99.73	0.43
0.0357	352.25	98.98	0.43

System: ethanol + vanillin; phases: Gas, Liquid
Property: Mole fraction of vanillin (Gas); method: spectrophotometer
Mole fraction of vanillin	Temperature, K	Mole fraction of vanillin	uncertainty
0.0097	351.21	1.3e-05	2e-06
0.0179	351.62	2.2e-05	2e-06
0.0265	352.16	3.3e-05	2e-06
0.0357	352.25	4.6e-05	2e-06

System: propan-1-ol + vanillin; phases: Liquid, Gas
Property: Vapor or sublimation pressure, kPa (Liquid); method: Ebulliometric method (Recirculating still)
Mole fraction of vanillin	Temperature, K	Vapor or sublimation pressure, kPa	uncertainty
0.0109	369.79	97.15	0.43
0.0199	370.38	98.47	0.43
0.0262	370.48	98.14	0.42
0.0298	370.09	96.61	0.42

System: propan-1-ol + vanillin; phases: Gas, Liquid
Property: Mole fraction of vanillin (Gas); method: spectrophotometer
Mole fraction of vanillin	Temperature, K	Mole fraction of vanillin	uncertainty
0.0109	369.79	2.5e-05	2e-06
0.0199	370.38	4.8e-05	2e-06
0.0262	370.48	6.8e-05	2e-06
0.0298	370.09	7.5e-05	2e-06

System: propan-2-ol + vanillin; phases: Liquid, Gas
Property: Vapor or sublimation pressure, kPa (Liquid); method: Ebulliometric method (Recirculating still)
Mole fraction of vanillin	Temperature, K	Vapor or sublimation pressure, kPa	uncertainty
0.0062	355.44	99.61	0.43
0.0102	354.92	98.1	0.44
0.0171	355.9	99.34	0.43
0.0196	356.22	98.84	0.44

System: propan-2-ol + vanillin; phases: Gas, Liquid
Property: Mole fraction of vanillin (Gas); method: spectrophotometer
Mole fraction of vanillin	Temperature, K	Mole fraction of vanillin	uncertainty
0.0062	355.44	9e-06	2e-06
0.0102	354.92	1.6e-05	2e-06
0.0171	355.9	2.8e-05	2e-06
0.0196	356.22	3.1e-05	2e-06
