Measured thermophysical data. Densities, Surface Tensions, and Refractive Indexes of Propyl Propanoate + Hexane + m-Xylene at 298.15 K
Source: J. Chem. Eng. Data, 2006, 10.1021/je0504111
Compound 1: propyl propanoate, C6H12O2, InChI=1S/C6H12O2/c1-3-5-8-6(7)4-2/h3-5H2,1-2H3, purity 99%
Compound 2: hexane, C6H14, InChI=1S/C6H14/c1-3-5-6-4-2/h3-6H2,1-2H3, purity 99.5%
Compound 3: 1,3-dimethylbenzene, C8H10, InChI=1S/C8H10/c1-7-4-3-5-8(2)6-7/h3-6H,1-2H3, purity 99%

System: propyl propanoate; phases: Liquid
Property: Refractive index (Na D-line) (Liquid); method: Standard Abbe refractometry
Temperature, K	Pressure, kPa	Refractive index (Na D-line)	uncertainty
298.15	101.325	1.3905	0.0004

System: propyl propanoate; phases: Liquid
Property: Mass density, kg/m3 (Liquid); method: VIBTUB:UFactor:4
Temperature, K	Pressure, kPa	Mass density, kg/m3	uncertainty
298.15	101.325	875.53	0.61

System: propyl propanoate; phases: Liquid, Air at 1 atmosphere
Property: Surface tension liquid-gas, N/m (Liquid); method: Drop volume
Temperature, K	Surface tension liquid-gas, N/m	uncertainty
298.15	0.0241	0.00019

System: hexane; phases: Liquid
Property: Refractive index (Na D-line) (Liquid); method: Standard Abbe refractometry
Temperature, K	Pressure, kPa	Refractive index (Na D-line)	uncertainty
298.15	101.325	1.3723	0.0004

System: hexane; phases: Liquid
Property: Mass density, kg/m3 (Liquid); method: VIBTUB:UFactor:2
Temperature, K	Pressure, kPa	Mass density, kg/m3	uncertainty
298.15	101.325	654.7	0.47

System: hexane; phases: Liquid, Air at 1 atmosphere
Property: Surface tension liquid-gas, N/m (Liquid); method: Drop volume
Temperature, K	Surface tension liquid-gas, N/m	uncertainty
298.15	0.01791	0.00013

System: 1,3-dimethylbenzene; phases: Liquid
Property: Refractive index (Na D-line) (Liquid); method: Standard Abbe refractometry
Temperature, K	Pressure, kPa	Refractive index (Na D-line)	uncertainty
298.15	101.325	1.4945	0.0004

System: 1,3-dimethylbenzene; phases: Liquid
Property: Mass density, kg/m3 (Liquid); method: VIBTUB:UFactor:4
Temperature, K	Pressure, kPa	Mass density, kg/m3	uncertainty
298.15	101.325	859.78	0.63

System: 1,3-dimethylbenzene; phases: Liquid, Air at 1 atmosphere
Property: Surface tension liquid-gas, N/m (Liquid); method: Drop volume
Temperature, K	Surface tension liquid-gas, N/m	uncertainty
298.15	0.02803	0.00021

System: 1,3-dimethylbenzene + hexane; phases: Liquid, Air at 1 atmosphere
Fixed: Temperature, K = 298.15
Property: Surface tension liquid-gas, N/m (Liquid); method: Drop volume
Mole fraction of hexane	Surface tension liquid-gas, N/m	uncertainty
0.0522	0.02713	0.0002
0.0797	0.02669	0.0002
0.1442	0.02566	0.00019
0.2008	0.02485	0.00018
0.2281	0.02448	0.00018
0.3075	0.0235	0.00017
0.3603	0.02291	0.00017
0.4106	0.02239	0.00016
0.4174	0.02233	0.00016
0.5086	0.0215	0.00016
0.5677	0.02101	0.00015
0.6431	0.02041	0.00015
0.6771	0.02015	0.00015
0.7418	0.0197	0.00014
0.7668	0.01954	0.00014
0.8545	0.01899	0.00014
0.8802	0.01883	0.00014
0.96	0.01829	0.00014

System: 1,3-dimethylbenzene + hexane; phases: Liquid
Fixed: Pressure, kPa = 101
Fixed: Temperature, K = 298.15
Property: Refractive index (Na D-line) (Liquid); method: ABBE:UFactor:2
Mole fraction of hexane	Refractive index (Na D-line)	uncertainty
0.0431	1.4891	0.0007
0.083	1.484	0.0007
0.1562	1.4748	0.0007
0.2093	1.4682	0.0007
0.2997	1.4569	0.0007
0.3521	1.4502	0.0007
0.4276	1.4409	0.0007
0.5167	1.43	0.0007
0.5798	1.4223	0.0006
0.6769	1.4106	0.0006
0.7318	1.404	0.0006
0.8329	1.392	0.0006
0.8836	1.386	0.0006
0.9325	1.3803	0.0006

System: 1,3-dimethylbenzene + hexane; phases: Liquid
Fixed: Pressure, kPa = 101
Fixed: Temperature, K = 298.15
Property: Mass density, kg/m3 (Liquid); method: VIBTUB:UFactor:4
Mole fraction of hexane	Mass density, kg/m3	uncertainty
0.0431	850.57	0.55
0.0825	842.28	0.55
0.1572	826.64	0.55
0.2093	815.69	0.55
0.2575	805.59	0.56
0.2997	796.8	0.56
0.3563	785.03	0.56
0.4278	770.24	0.57
0.483	758.86	0.58
0.5167	751.98	0.58
0.5833	738.31	0.6
0.6294	728.97	0.6
0.6769	719.32	0.61
0.7318	708.21	0.62
0.7817	698.13	0.63
0.8329	687.89	0.65
0.8914	676.22	0.66
0.9446	665.65	0.67

System: propyl propanoate + 1,3-dimethylbenzene; phases: Liquid
Fixed: Pressure, kPa = 101
Fixed: Temperature, K = 298.15
Property: Refractive index (Na D-line) (Liquid); method: ABBE:UFactor:2
Mole fraction of propyl propanoate	Refractive index (Na D-line)	uncertainty
0.0448	1.4894	0.0007
0.1176	1.4814	0.0007
0.1702	1.4756	0.0007
0.2173	1.4704	0.0007
0.3134	1.4599	0.0007
0.3923	1.4515	0.0007
0.4461	1.4458	0.0007
0.4902	1.4412	0.0007
0.5421	1.4358	0.0007
0.5906	1.4308	0.0007
0.6442	1.4254	0.0007
0.7474	1.4151	0.0007
0.7982	1.4101	0.0007
0.8483	1.4052	0.0007
0.8942	1.4008	0.0007
0.9522	1.3952	0.0007

System: propyl propanoate + 1,3-dimethylbenzene + hexane; phases: Liquid, Air at 1 atmosphere
Fixed: Temperature, K = 298.15
Property: Surface tension liquid-gas, N/m (Liquid); method: Drop volume
Mole fraction of propyl propanoate	Mole fraction of hexane	Surface tension liquid-gas, N/m	uncertainty
0.0926	0.7321	0.01983	0.00015
0.0958	0.2995	0.02337	0.00017
0.0968	0.4515	0.02187	0.00016
0.0974	0.2347	0.02409	0.00018
0.1017	0.8161	0.01933	0.00014
0.1024	0.5282	0.02122	0.00016
0.1106	0.6165	0.02054	0.00015
0.1607	0.1508	0.02495	0.00019
0.1613	0.5846	0.02071	0.00015
0.1634	0.4118	0.02208	0.00016
0.1635	0.7612	0.01957	0.00014
0.1668	0.2234	0.02407	0.00018
0.1701	0.2783	0.02337	0.00017
0.1704	0.462	0.02161	0.00016
0.1709	0.6375	0.02031	0.00015
0.2296	0.514	0.02109	0.00016
0.2613	0.3146	0.02277	0.00017
0.2629	0.4824	0.02123	0.00016
0.2644	0.6613	0.0199	0.00015
0.2645	0.2183	0.02376	0.00018
0.2713	0.1406	0.02463	0.00018
0.2734	0.378	0.0221	0.00016
0.2782	0.5399	0.02075	0.00015
0.3319	0.2294	0.02348	0.00018
0.3343	0.48	0.02106	0.00016
0.3522	0.2843	0.02279	0.00017
0.3576	0.1166	0.02471	0.00019
0.3607	0.5604	0.02034	0.00015
0.417	0.4056	0.02144	0.00016
0.4207	0.0851	0.0249	0.00019
0.4353	0.1269	0.02435	0.00018
0.4362	0.4839	0.02073	0.00016
0.4394	0.2002	0.02343	0.00018
0.4795	0.2398	0.02293	0.00017
0.4903	0.2463	0.02281	0.00017
0.4917	0.0824	0.0247	0.00019
0.503	0.4116	0.02115	0.00016
0.5103	0.305	0.02215	0.00017
0.511	0.1206	0.02421	0.00018
0.5722	0.0833	0.02443	0.00019
0.5769	0.2436	0.0226	0.00017
0.5925	0.1537	0.02354	0.00018
0.664	0.1544	0.02334	0.00018
0.6909	0.2289	0.02242	0.00017
0.7393	0.0871	0.02392	0.00018
0.7758	0.1526	0.02306	0.00018
0.8633	0.0568	0.02389	0.00018

System: propyl propanoate + 1,3-dimethylbenzene + hexane; phases: Liquid
Fixed: Pressure, kPa = 101
Fixed: Temperature, K = 298.15
Property: Refractive index (Na D-line) (Liquid); method: ABBE:UFactor:2
Mole fraction of propyl propanoate	Mole fraction of hexane	Refractive index (Na D-line)	uncertainty
0.0729	0.3299	1.445	0.0007
0.0732	0.5131	1.4223	0.0007
0.0733	0.6652	1.4041	0.0006
0.0743	0.584	1.4136	0.0006
0.0758	0.42	1.4335	0.0007
0.0775	0.2433	1.4553	0.0007
0.0775	0.7582	1.3926	0.0006
0.0777	0.8416	1.3828	0.0006
0.0945	0.0835	1.4732	0.0007
0.0969	0.1599	1.4634	0.0007
0.1741	0.4043	1.425	0.0007
0.1744	0.5709	1.4047	0.0006
0.1765	0.0677	1.4664	0.0007
0.1769	0.4892	1.4145	0.0007
0.1777	0.2319	1.4459	0.0007
0.1799	0.3319	1.433	0.0007
0.1807	0.7374	1.3844	0.0006
0.1846	0.6768	1.3914	0.0006
0.2513	0.3342	1.4254	0.0007
0.2525	0.4913	1.4066	0.0007
0.2531	0.6671	1.3853	0.0006
0.2546	0.0616	1.4584	0.0007
0.2548	0.5863	1.3947	0.0006
0.2555	0.2447	1.4357	0.0007
0.2557	0.4128	1.4153	0.0007
0.3374	0.5799	1.3871	0.0006
0.3392	0.0576	1.45	0.0007
0.3407	0.4041	1.4077	0.0007
0.3427	0.3229	1.4173	0.0007
0.3456	0.4902	1.3974	0.0007
0.3979	0.1752	1.4294	0.0007
0.4227	0.2355	1.4196	0.0007
0.424	0.4108	1.3984	0.0007
0.4271	0.3106	1.4101	0.0007
0.4274	0.1557	1.4287	0.0007
0.4319	0.4812	1.3894	0.0007
0.4322	0.0647	1.4392	0.0007
0.4985	0.1563	1.4213	0.0007
0.4988	0.2365	1.4116	0.0007
0.507	0.41	1.3904	0.0007
0.5156	0.3121	1.401	0.0007
0.521	0.0639	1.4301	0.0007
0.5934	0.0626	1.4229	0.0007
0.5948	0.1654	1.4107	0.0007
0.5956	0.2406	1.4016	0.0007
0.6055	0.3107	1.3923	0.0007
0.6762	0.2387	1.3937	0.0007
0.6764	0.1589	1.4033	0.0007
0.6939	0.0652	1.4125	0.0007
0.7554	0.1607	1.3953	0.0007
0.7714	0.0625	1.4052	0.0007
0.85	0.0658	1.3971	0.0007

System: propyl propanoate + 1,3-dimethylbenzene + hexane; phases: Liquid
Fixed: Pressure, kPa = 101
Fixed: Temperature, K = 298.15
Property: Mass density, kg/m3 (Liquid); method: VIBTUB:UFactor:4
Mole fraction of propyl propanoate	Mole fraction of hexane	Mass density, kg/m3	uncertainty
0.0729	0.3299	791.78	0.59
0.0733	0.6652	722.83	0.63
0.0743	0.584	739.44	0.62
0.0758	0.42	773.16	0.6
0.0775	0.2433	809.96	0.59
0.0775	0.7582	704.12	0.65
0.0777	0.8416	687.37	0.67
0.0945	0.0835	843.84	0.59
0.0969	0.1599	827.85	0.58
0.1741	0.4043	778.11	0.6
0.1744	0.5709	743.72	0.62
0.1765	0.0677	848.62	0.59
0.1774	0.1627	828.58	0.58
0.1799	0.3319	793.18	0.59
0.1807	0.7374	709.91	0.64
0.2513	0.3342	793.99	0.59
0.2515	0.1547	831.58	0.58
0.2525	0.4913	761.39	0.6
0.2531	0.6671	725.34	0.63
0.2546	0.0616	851.29	0.59
0.2548	0.5863	741.9	0.62
0.2555	0.2447	812.75	0.58
0.2557	0.4128	777.72	0.6
0.3374	0.5799	744.67	0.61
0.3392	0.0576	853.57	0.58
0.3407	0.4041	780.86	0.59
0.3427	0.3229	797.81	0.59
0.3979	0.1752	829.66	0.58
0.4227	0.2355	817.39	0.58
0.424	0.4108	780.83	0.59
0.4271	0.3106	801.79	0.58
0.4274	0.1557	834.27	0.58
0.4322	0.0647	853.58	0.58
0.4985	0.1563	835.24	0.58
0.4988	0.2365	818.35	0.58
0.507	0.41	782.33	0.59
0.521	0.0639	855.16	0.58
0.5934	0.0626	856.56	0.58
0.5948	0.1654	834.76	0.58
0.5956	0.2406	819.04	0.58
0.6055	0.3107	804.53	0.58
0.6762	0.2387	820.67	0.58
0.6764	0.1589	837.5	0.58
0.6939	0.0652	857.52	0.58
0.7554	0.1607	838.31	0.58
0.7714	0.0625	859.27	0.58
0.85	0.0658	859.7	0.58
