Measured thermophysical data. Limiting Separation Factors and Limiting Activity Coefficients for 2-Phenylethanol and 2-Phenylethanal in Water at 100 C
Source: J. Chem. Eng. Data, 2005, 10.1021/je050171p
Compound 1: water, H2O, InChI=1S/H2O/h1H2
Compound 2: 2-phenylethanol, C8H10O, InChI=1S/C8H10O/c9-7-6-8-4-2-1-3-5-8/h1-5,9H,6-7H2
Compound 3: .alpha.-tolualdehyde, C8H8O, InChI=1S/C8H8O/c9-7-6-8-4-2-1-3-5-8/h1-5,7H,6H2

System: 2-phenylethanol + water; phases: Liquid, Gas
Property: Activity coefficient of 2-phenylethanol (Liquid); method: Differential ebulliometry
Temperature, K	Mole fraction of 2-phenylethanol	Activity coefficient of 2-phenylethanol	uncertainty
373.1	0	167	8

System: 2-phenylethanol + water; phases: Gas, Liquid
Property: Amount concentration (molarity), mol/dm3 of 2-phenylethanol (Gas); method: UV Spectroscopy
Temperature, K	Mole fraction of 2-phenylethanol	Amount concentration (molarity), mol/dm3 of 2-phenylethanol	uncertainty
373.1	0	2.28	0.23

System: .alpha.-tolualdehyde + water; phases: Liquid, Gas
Property: Activity coefficient of .alpha.-tolualdehyde (Liquid); method: Differential ebulliometry
Temperature, K	Mole fraction of .alpha.-tolualdehyde	Activity coefficient of .alpha.-tolualdehyde	uncertainty
373.1	0	234	12

System: .alpha.-tolualdehyde + water; phases: Gas, Liquid
Property: Amount concentration (molarity), mol/dm3 of .alpha.-tolualdehyde (Gas); method: UV Spectroscopy
Temperature, K	Mole fraction of .alpha.-tolualdehyde	Amount concentration (molarity), mol/dm3 of .alpha.-tolualdehyde	uncertainty
373.1	0	5.32	0.53
