Measured thermophysical data. Entrainer Effect of Ethanol on High-Pressure Vapor-Liquid Equilibria for Supercritical Carbon Dioxide + Limonene + Linalool System
Source: J. Chem. Eng. Data, 2005, 10.1021/je050079t
Compound 1: carbon dioxide, CO2, InChI=1S/CO2/c2-1-3
Compound 2: 3,7-dimethyl-1,6-octadien-3-ol, C10H18O, InChI=1S/C10H18O/c1-5-10(4,11)8-6-7-9(2)3/h5,7,11H,1,6,8H2,2-4H3
Compound 3: (R)-1-methyl-4-(1-methylethenyl)cyclohexene, C10H16, InChI=1S/C10H16/c1-8(2)10-6-4-9(3)5-7-10/h4,10H,1,5-7H2,2-3H3/t10-/m0/s1
Compound 4: ethanol, C2H6O, InChI=1S/C2H6O/c1-2-3/h3H,2H2,1H3

System: ethanol + carbon dioxide + (R)-1-methyl-4-(1-methylethenyl)cyclohexene; phases: Liquid, Gas
Fixed: Pressure, kPa = 6.9
Fixed: Temperature, K = 313.2
Property: Mole fraction of carbon dioxide (Liquid); method: Chromatography
Property: Mole fraction of (R)-1-methyl-4-(1-methylethenyl)cyclohexene (Gas); method: Chromatography
Property: Mole fraction of carbon dioxide (Gas); method: Chromatography
Mole fraction of (R)-1-methyl-4-(1-methylethenyl)cyclohexene	Mole fraction of carbon dioxide	uncertainty	Mole fraction of (R)-1-methyl-4-(1-methylethenyl)cyclohexene	uncertainty	Mole fraction of carbon dioxide	uncertainty
0.3206	0.6699	0.0269	0.0013	0.0003	0.9973	
0.2718	0.7036	0.0282	0.0013	0.0003	0.9953	
0.2882	0.6793	0.0273	0.0013	0.0003	0.9944	
0.2575	0.7086	0.0284	0.0013	0.0003	0.9941	
0.2639	0.6828	0.0274	0.0015	0.0003	0.9932	
0.2192	0.717	0.0288	0.0013	0.0003	0.9927	
0.1851	0.7194	0.0288	0.0012	0.0002	0.9919	

System: ethanol + 3,7-dimethyl-1,6-octadien-3-ol + carbon dioxide; phases: Liquid, Gas
Property: Mole fraction of 3,7-dimethyl-1,6-octadien-3-ol (Liquid); method: Chromatography
Property: Mole fraction of 3,7-dimethyl-1,6-octadien-3-ol (Gas); method: Chromatography
Property: Mole fraction of carbon dioxide (Gas); method: Chromatography
Temperature, K	Pressure, kPa	Mole fraction of carbon dioxide	Mole fraction of 3,7-dimethyl-1,6-octadien-3-ol	uncertainty	Mole fraction of 3,7-dimethyl-1,6-octadien-3-ol	uncertainty	Mole fraction of carbon dioxide	uncertainty
313.2	6900	0.6918	0.267	0.0268	0.0005	0.0001	0.998	
313.2	6900	0.6501	0.2665	0.0267	0.0005	0.0001	0.9967	
313.2	6900	0.5876	0.272	0.0273	0.0004	0.0001	0.9962	
313.2	6900	0.6029	0.2382	0.0239	0.0005	0.0001	0.9945	
333.2	10000	0.7314	0.2353	0.0236	0.0031	0.0006	0.9939	
333.2	10000	0.7252	0.21	0.0211	0.0026	0.0005	0.9909	
333.2	10000	0.7105	0.198	0.0198	0.0025	0.0005	0.989	
333.2	10000	0.6791	0.1735	0.0174	0.0024	0.0005	0.985	
