Measured thermophysical data. Vapor Pressure Measurements of Binary Solutions of CaCl2 with Methanol and Ethanol at T = (298.15 to 323.15) K Using a Static Method
Source: J. Chem. Eng. Data, 2006, 10.1021/je0502086
Compound 1: methanol, CH4O, InChI=1S/CH4O/c1-2/h2H,1H3, purity 99.8%
Compound 2: ethanol, C2H6O, InChI=1S/C2H6O/c1-2-3/h3H,2H2,1H3, purity 99.8%
Compound 3: calcium chloride, CaCl2, InChI=1S/Ca.2ClH/h;2*1H/q+2;;/p-2, purity 99.8%

System: methanol + calcium chloride; phases: Liquid, Gas
Property: Vapor or sublimation pressure, kPa (Liquid); method: Closed cell (Static) method
Temperature, K	Molality, mol/kg of calcium chloride	Vapor or sublimation pressure, kPa	uncertainty
298.15	0.10402	16.849	0.071
298.15	0.18097	16.774	0.071
298.15	0.30129	16.663	0.07
298.15	0.34007	16.625	0.07
298.15	0.37895	16.589	0.07
298.15	0.56187	16.4	0.069
298.15	0.65834	16.293	0.069
298.15	1.02825	15.778	0.067
298.15	1.08516	15.689	0.067
298.15	1.23112	15.448	0.066
298.15	1.42494	15.093	0.065
298.15	1.86317	14.212	0.062
298.15	2.45128	12.939	0.058
298.15	2.59613	12.635	0.057
303.15	0.10402	21.742	0.086
303.15	0.18097	21.649	0.086
303.15	0.30129	21.509	0.085
303.15	0.34007	21.465	0.085
303.15	0.37895	21.418	0.085
303.15	0.56187	21.185	0.084
303.15	0.65834	21.053	0.084
303.15	1.02825	20.406	0.082
303.15	1.08516	20.289	0.081
303.15	1.23112	19.99	0.08
303.15	1.42494	19.523	0.079
303.15	1.86317	18.411	0.075
303.15	2.45128	16.77	0.07
303.15	2.59613	16.36	0.069
308.15	0.10402	27.785	0.106
308.15	0.18097	27.67	0.105
308.15	0.30129	27.501	0.105
308.15	0.34007	27.444	0.105
308.15	0.37895	27.388	0.104
308.15	0.56187	27.104	0.104
308.15	0.65834	26.944	0.103
308.15	1.02825	26.144	0.1
308.15	1.08516	25.997	0.1
308.15	1.23112	25.608	0.099
308.15	1.42494	25.018	0.097
308.15	1.86317	23.617	0.092
308.15	2.45128	21.527	0.085
308.15	2.59613	21.011	0.084
313.15	0.10402	35.232	0.13
313.15	0.18097	35.093	0.129
313.15	0.30129	34.888	0.129
313.15	0.34007	34.818	0.128
313.15	0.37895	34.752	0.128
313.15	0.56187	34.417	0.127
313.15	0.65834	34.223	0.126
313.15	1.02825	33.236	0.123
313.15	1.08516	33.061	0.123
313.15	1.23112	32.555	0.121
313.15	1.42494	31.863	0.119
313.15	1.86317	30.068	0.113
313.15	2.45128	27.435	0.104
313.15	2.59613	26.778	0.102
318.15	0.10402	44.27	0.159
318.15	0.18097	44.1	0.158
318.15	0.30129	43.85	0.157
318.15	0.34007	43.771	0.157
318.15	0.37895	43.695	0.157
318.15	0.56187	43.301	0.156
318.15	0.65834	43.069	0.155
318.15	1.02825	41.865	0.151
318.15	1.08516	41.637	0.15
318.15	1.23112	41.022	0.148
318.15	1.42494	40.162	0.146
318.15	1.86317	37.97	0.139
318.15	2.45128	34.672	0.128
318.15	2.59613	33.887	0.125
323.15	0.10402	55.265	0.193
323.15	0.18097	55.059	0.192
323.15	0.30129	54.764	0.192
323.15	0.34007	54.665	0.191
323.15	0.37895	54.576	0.191
323.15	0.56187	54.126	0.189
323.15	0.65834	53.843	0.189
323.15	1.02825	52.354	0.184
323.15	1.08516	52.102	0.183
323.15	1.23112	51.355	0.181
323.15	1.42494	50.307	0.177
323.15	1.86317	47.575	0.168
323.15	2.45128	43.479	0.155
323.15	2.59613	42.429	0.152

System: ethanol + calcium chloride; phases: Liquid, Gas
Property: Vapor or sublimation pressure, kPa (Liquid); method: Closed cell (Static) method
Temperature, K	Molality, mol/kg of calcium chloride	Vapor or sublimation pressure, kPa	uncertainty
298.15	0.12359	7.82	0.041
298.15	0.21856	7.785	0.041
298.15	0.4359	7.691	0.041
298.15	0.63208	7.6	0.04
298.15	0.89583	7.464	0.04
298.15	1.14832	7.321	0.04
298.15	1.44645	7.132	0.039
298.15	1.81882	6.856	0.038
298.15	2.12091	6.602	0.037
303.15	0.12359	10.391	0.049
303.15	0.21856	10.345	0.049
303.15	0.4359	10.223	0.049
303.15	0.63208	10.103	0.048
303.15	0.89583	9.928	0.048
303.15	1.14832	9.743	0.047
303.15	1.44645	9.496	0.046
303.15	1.81882	9.131	0.045
303.15	2.12091	8.793	0.044
308.15	0.12359	13.666	0.06
308.15	0.21856	13.607	0.06
308.15	0.4359	13.45	0.059
308.15	0.63208	13.296	0.059
308.15	0.89583	13.07	0.058
308.15	1.14832	12.83	0.057
308.15	1.44645	12.509	0.056
308.15	1.81882	12.036	0.055
308.15	2.12091	11.599	0.053
313.15	0.12359	17.777	0.073
313.15	0.21856	17.701	0.073
313.15	0.4359	17.501	0.072
313.15	0.63208	17.306	0.072
313.15	0.89583	17.013	0.071
313.15	1.14832	16.706	0.07
313.15	1.44645	16.296	0.068
313.15	1.81882	15.693	0.066
313.15	2.12091	15.133	0.065
318.15	0.12359	22.902	0.09
318.15	0.21856	22.806	0.09
318.15	0.4359	22.555	0.089
318.15	0.63208	22.306	0.088
318.15	0.89583	21.942	0.087
318.15	1.14832	21.549	0.086
318.15	1.44645	21.031	0.084
318.15	1.81882	20.263	0.081
318.15	2.12091	19.552	0.079
323.15	0.12359	29.257	0.11
323.15	0.21856	29.137	0.109
323.15	0.4359	28.823	0.108
323.15	0.63208	28.516	0.107
323.15	0.89583	28.06	0.106
323.15	1.14832	27.566	0.104
323.15	1.44645	26.909	0.102
323.15	1.81882	25.943	0.099
323.15	2.12091	25.057	0.096
