Measured thermophysical data. Solubility of Puerarin in Ethanol + Supercritical Carbon Dioxide
Source: J. Chem. Eng. Data, 2005, 10.1021/je050192j
Compound 1: 4H-1-benzopyran-4-one, 8-.beta.-D-glucopyranosyl-7-hydroxy-3-(4-hydroxyphenyl)-, C21H20O9, InChI=1S/C21H20O9/c22-7-14-17(26)18(27)19(28)21(30-14)15-13(24)6-5-11-16(25)12(8-29-20(11)15)9-1-3-10(23)4-2-9/h1-6,8,14,17-19,21-24,26-28H,7H2/t14-,17-,18+,19-,21+/m1/s1
Compound 2: ethanol, C2H6O, InChI=1S/C2H6O/c1-2-3/h3H,2H2,1H3
Compound 3: carbon dioxide, CO2, InChI=1S/CO2/c2-1-3

System: ethanol + 4H-1-benzopyran-4-one, 8-.beta.-D-glucopyranosyl-7-hydroxy-3-(4-hydroxyphenyl)-; phases: Fluid (supercritical or subcritical phases), Crystal
Fixed: Pressure, kPa = 100
Property: Mole fraction of 4H-1-benzopyran-4-one, 8-.beta.-D-glucopyranosyl-7-hydroxy-3-(4-hydroxyphenyl)- (Fluid (supercritical or subcritical phases)); method: UV spectrophotometry and calibration curve
Temperature, K	Mole fraction of 4H-1-benzopyran-4-one, 8-.beta.-D-glucopyranosyl-7-hydroxy-3-(4-hydroxyphenyl)-	uncertainty
308	0.007687	0.000335
318	0.007021	0.000306
328	0.006171	0.000278

System: ethanol + carbon dioxide + 4H-1-benzopyran-4-one, 8-.beta.-D-glucopyranosyl-7-hydroxy-3-(4-hydroxyphenyl)-; phases: Fluid (supercritical or subcritical phases), Crystal
Property: Mole fraction of 4H-1-benzopyran-4-one, 8-.beta.-D-glucopyranosyl-7-hydroxy-3-(4-hydroxyphenyl)- (Fluid (supercritical or subcritical phases)); method: UV spectrophotometry and calibration curve
Temperature, K	Pressure, kPa	Mole fraction of carbon dioxide	Mole fraction of 4H-1-benzopyran-4-one, 8-.beta.-D-glucopyranosyl-7-hydroxy-3-(4-hydroxyphenyl)-	uncertainty
308	100	0	0.007687	0.000335
308	2000	0.153	0.007921	0.000345
308	3300	0.241	0.007998	0.002058
308	4000	0.29	0.007578	0.000521
308	4500	0.35	0.006054	0.000596
308	5000	0.391	0.004515	0.000546
308	5500	0.45	0.002894	0.000269
308	6000	0.528	0.00192	8.9e-05
308	7000	0.77	0.001212	6e-05
308	8000	0.81	0.000695	3.7e-05
308	9000	0.845	0.000584	3.4e-05
308	10000	0.876	0.000394	2.2e-05
308	12000	0.892	0.000242	2e-05
308	14000	0.904	0.000178	2.9e-05
308	17000	0.928	0.000112	1.6e-05
308	20000	0.945	0.000108	7e-06
318	100	0	0.007021	0.000306
318	2100	0.096	0.007281	0.000356
318	3300	0.156	0.007351	0.000361
318	4200	0.191	0.007108	0.000329
318	4600	0.232	0.006202	0.000315
318	5100	0.262	0.00468	0.000457
318	5500	0.305	0.00317	0.000146
318	6000	0.362	0.002313	0.000117
318	7000	0.54	0.001714	7.9e-05
318	8000	0.581	0.001293	6.5e-05
318	9000	0.62	0.000907	5.1e-05
318	10000	0.659	0.000542	2.7e-05
318	12000	0.705	0.000287	1.6e-05
318	14000	0.752	0.000225	4.1e-05
318	17000	0.841	0.000188	5.9e-05
318	20000	0.936	0.000147	7.3e-05
328	100	0	0.006171	0.000278
328	2400	0.061	0.006298	0.000291
328	3500	0.101	0.006273	0.000342
328	4000	0.125	0.006038	0.000393
328	4400	0.154	0.005197	0.000267
328	5200	0.176	0.003882	0.000233
328	5500	0.207	0.003327	0.000216
328	6000	0.248	0.002745	0.000274
328	7000	0.379	0.00188	8.7e-05
328	8000	0.417	0.001539	6.8e-05
328	9000	0.456	0.001083	6.4e-05
328	10000	0.495	0.000858	4.5e-05
328	12000	0.557	0.000526	2.4e-05
328	14000	0.666	0.000355	3.2e-05
328	17000	0.81	0.000295	1.3e-05
328	20000	0.926	0.000234	1.1e-05
