Measured thermophysical data. Isothermal Vapor-Liquid Equilibrium of (Pentafluoroethane + Fluoroethane) at Temperatures between (265.15 and 303.15) K Obtained with a Recirculating Still
Source: J. Chem. Eng. Data, 2006, 10.1021/je050539i
Compound 1: pentafluoroethane, C2HF5, InChI=1S/C2HF5/c3-1(4)2(5,6)7/h1H
Compound 2: fluoroethane, C2H5F, InChI=1S/C2H5F/c1-2-3/h2H2,1H3

System: pentafluoroethane; phases: Liquid, Gas
Property: Vapor or sublimation pressure, kPa (Liquid); method: EBULLIO:UFactor:4
Temperature, K	Vapor or sublimation pressure, kPa	uncertainty
265.15	517	8.174
275.15	714.3	11.229
283.15	908.8	14.245
293.15	1205	18.834
303.15	1567	24.444
313.15	2006	31.244

System: fluoroethane; phases: Liquid, Gas
Property: Vapor or sublimation pressure, kPa (Liquid); method: EBULLIO:UFactor:4
Temperature, K	Vapor or sublimation pressure, kPa	uncertainty
265.15	336	5.648
275.15	468.9	7.43
283.15	602.9	9.509
293.15	808.2	12.693
303.15	1051.4	16.464
313.15	1348.6	21.071

System: fluoroethane + pentafluoroethane; phases: Liquid, Gas
Property: Vapor or sublimation pressure, kPa (Liquid); method: EBULLIO:UFactor:4
Mole fraction of pentafluoroethane	Temperature, K	Vapor or sublimation pressure, kPa	uncertainty
0	265.15	336	5.648
0	275.15	468.9	7.43
0	283.15	602.9	9.509
0	293.15	808.2	12.693
0	303.15	1051.4	16.464
0	313.15	1348.6	21.071
0.1165	283.15	632.5	9.981
0.1437	283.15	636.5	10.088
0.237	283.15	663.7	10.524
0.3229	283.15	690.5	10.922
0.3234	265.15	392.8	6.425
0.3293	293.15	955.9	15.076
0.402	265.15	410.9	6.645
0.4254	265.15	414.7	6.668
0.4452	313.15	1812.6	28.281
0.4516	275.15	578.8	9.14
0.4527	303.15	1393	21.784
0.466	283.15	737.4	11.69
0.5154	313.15	1833.6	28.608
0.5383	293.15	1038.7	16.601
0.5438	283.15	766.6	12.163
0.5511	275.15	599.9	9.543
0.5563	265.15	438.8	7.002
0.5591	303.15	1422.1	22.258
0.562	293.15	1053.3	16.517
0.5844	313.15	1857.3	28.965
0.5999	275.15	624.6	9.9
0.6053	293.15	1079.7	16.945
0.6068	303.15	1442.6	22.553
0.6332	283.15	809.1	12.751
0.6592	313.15	1872.7	29.209
0.674	265.15	461.7	7.358
0.6806	283.15	812.8	12.788
0.6859	293.15	1093.3	17.128
0.7184	313.15	1899.9	30.145
0.7236	313.15	1907.3	30.258
0.7257	265.15	471.647	7.522
0.7289	303.15	1487.8	23.28
0.7319	275.15	651	10.294
0.7348	283.15	830.5	13.192
0.7551	293.15	1118.9	17.607
0.7558	283.15	839.8	13.231
0.759	265.15	480.5	7.649
0.7596	303.15	1491.9	23.355
0.7724	275.15	659.4	10.383
0.7749	313.15	1917	29.876
0.7832	303.15	1506.9	23.647
0.7856	293.15	1123.4	17.981
0.7936	265.15	485.1	7.702
0.7966	293.15	1133.6	17.893
0.7968	303.15	1514.7	23.646
0.799	283.15	849.2	13.398
0.8075	275.15	666.3	10.603
0.8094	293.15	1134.4	18.003
0.8129	265.15	488.7	7.866
0.8202	265.15	495.8	8.756
0.826	275.15	679	11.044
0.832	293.15	1140.1	18.522
0.8322	313.15	1928	30.056
0.8335	283.15	863.57	13.616
0.8385	275.15	681.6	10.73
0.8451	303.15	1529.3	23.914
0.8464	293.15	1156.1	18.661
0.8551	275.15	690.8	10.902
0.8575	265.15	502.3	7.959
0.8602	303.15	1539.3	24.428
0.8695	313.15	1944	30.34
0.88	275.15	702.4	11.351
0.8837	283.15	880.935	13.825
1	265.15	517	8.174
1	275.15	714.3	11.229
1	283.15	908.8	14.245
1	293.15	1205	18.834
1	303.15	1567	24.444
1	313.15	2006	31.244

System: fluoroethane + pentafluoroethane; phases: Gas, Liquid
Property: Mole fraction of pentafluoroethane (Gas); method: CHROM:UFactor:6
Mole fraction of pentafluoroethane	Temperature, K	Mole fraction of pentafluoroethane	uncertainty
0	265.15	0	0.0001
0	275.15	0	0.0001
0	283.15	0	0.0001
0	293.15	0	0.0001
0	303.15	0	0.0001
0	313.15	0	0.0001
0.1165	283.15	0.1577	0.0104
0.1437	283.15	0.1938	0.012
0.237	283.15	0.3131	0.0182
0.3229	283.15	0.4156	0.0236
0.3234	265.15	0.4248	0.0242
0.3293	293.15	0.4234	0.0241
0.402	265.15	0.5227	0.0271
0.4254	265.15	0.5498	0.0255
0.4452	313.15	0.483	0.0273
0.4516	275.15	0.5712	0.0243
0.4527	303.15	0.503	0.028
0.466	283.15	0.5776	0.024
0.5154	313.15	0.5558	0.0251
0.5383	293.15	0.6383	0.0205
0.5438	283.15	0.652	0.0198
0.5511	275.15	0.6706	0.0188
0.5563	265.15	0.6703	0.0187
0.5591	303.15	0.6045	0.0224
0.562	293.15	0.6609	0.0195
0.5844	313.15	0.6161	0.0217
0.5999	275.15	0.7124	0.0163
0.6053	293.15	0.706	0.0167
0.6068	303.15	0.6444	0.0201
0.6332	283.15	0.7311	0.0154
0.6592	313.15	0.6845	0.018
0.674	265.15	0.7743	0.013
0.6806	283.15	0.7786	0.0128
0.6859	293.15	0.7689	0.0132
0.7184	313.15	0.7471	0.0153
0.7236	313.15	0.7548	0.0149
0.7257	265.15	0.8022	0.0113
0.7289	303.15	0.7536	0.0143
0.7319	275.15	0.8134	0.0108
0.7348	283.15	0.814	0.0107
0.7551	293.15	0.8128	0.0107
0.7558	283.15	0.8323	0.0099
0.759	265.15	0.8232	0.0103
0.7596	303.15	0.7839	0.0128
0.7724	275.15	0.8404	0.0094
0.7749	313.15	0.8043	0.0115
0.7832	303.15	0.8039	0.0116
0.7856	293.15	0.8328	0.0097
0.7936	265.15	0.8507	0.0091
0.7966	293.15	0.8409	0.0101
0.7968	303.15	0.8214	0.0104
0.799	283.15	0.8613	0.0085
0.8075	275.15	0.8633	0.0085
0.8094	293.15	0.8596	0.009
0.8129	265.15	0.8616	0.0087
0.8202	265.15	0.8744	0.0103
0.826	275.15	0.8759	0.008
0.832	293.15	0.873	0.0079
0.8322	313.15	0.8529	0.0092
0.8335	283.15	0.8849	0.0076
0.8385	275.15	0.884	0.0073
0.8451	303.15	0.8595	0.0089
0.8464	293.15	0.8818	0.0076
0.8551	275.15	0.8889	0.0078
0.8575	265.15	0.8873	0.0076
0.8602	303.15	0.8738	0.0096
0.8695	313.15	0.89	0.0077
0.88	275.15	0.9196	0.0074
0.8837	283.15	0.9191	0.0064
1	265.15	1	0.0001
1	275.15	1	0.0001
1	283.15	1	0.0001
1	293.15	1	0.0001
1	303.15	1	0.0001
1	313.15	1	0.0001
