Measured thermophysical data. Phase Equilibria on Four Binary Systems: 1,2-Dichloroethane + trans-1,2-Dichloroethylene, 1-Octene + 2-Methyl Thiophene, 2-Ethyl Thiophene + 2,2,4-Trimethylpentane, and Cyclopropanecarbonitrile + Water
Source: J. Chem. Eng. Data, 2006, 10.1021/je050473r
Compound 1: 1,2-dichloroethane, C2H4Cl2, InChI=1S/C2H4Cl2/c3-1-2-4/h1-2H2
Compound 2: (E)-1,2-dichloroethene, C2H2Cl2, InChI=1S/C2H2Cl2/c3-1-2-4/h1-2H/b2-1+
Compound 3: oct-1-ene, C8H16, InChI=1S/C8H16/c1-3-5-7-8-6-4-2/h3H,1,4-8H2,2H3
Compound 4: 2-methylthiophene, C5H6S, InChI=1S/C5H6S/c1-5-3-2-4-6-5/h2-4H,1H3
Compound 5: 2-ethylthiophene, C6H8S, InChI=1S/C6H8S/c1-2-6-4-3-5-7-6/h3-5H,2H2,1H3
Compound 6: 2,2,4-trimethylpentane, C8H18, InChI=1S/C8H18/c1-7(2)6-8(3,4)5/h7H,6H2,1-5H3
Compound 7: cyclopropanecarbonitrile, C4H5N, InChI=1S/C4H5N/c5-3-4-1-2-4/h4H,1-2H2
Compound 8: water, H2O, InChI=1S/H2O/h1H2

System: 1,2-dichloroethane; phases: Liquid, Gas
Property: Vapor or sublimation pressure, kPa (Liquid); method: Closed cell (Static) method
Temperature, K	Vapor or sublimation pressure, kPa	uncertainty
303.15	13.28	1.01
353.15	90.9	1

System: (E)-1,2-dichloroethene; phases: Liquid, Gas
Property: Vapor or sublimation pressure, kPa (Liquid); method: Closed cell (Static) method
Temperature, K	Vapor or sublimation pressure, kPa	uncertainty
303.15	53.33	1.1
353.15	269.9	1.3

System: oct-1-ene; phases: Liquid, Gas
Property: Vapor or sublimation pressure, kPa (Liquid); method: Closed cell (Static) method
Temperature, K	Vapor or sublimation pressure, kPa	uncertainty
373.1	53.82	1.05
413.15	165.9	1.2

System: 2-methylthiophene; phases: Liquid, Gas
Property: Vapor or sublimation pressure, kPa (Liquid); method: Closed cell (Static) method
Temperature, K	Vapor or sublimation pressure, kPa	uncertainty
373.1	69.87	1.08
413.15	209.8	1.2

System: 2-ethylthiophene; phases: Liquid, Gas
Property: Vapor or sublimation pressure, kPa (Liquid); method: Closed cell (Static) method
Temperature, K	Vapor or sublimation pressure, kPa	uncertainty
373.1	33.26	1.03
413.15	111.4	1.1

System: 2,2,4-trimethylpentane; phases: Liquid, Gas
Property: Vapor or sublimation pressure, kPa (Liquid); method: Closed cell (Static) method
Temperature, K	Vapor or sublimation pressure, kPa	uncertainty
373.1	103.49	1.14
413.15	282.8	1.4

System: cyclopropanecarbonitrile; phases: Liquid, Gas
Property: Vapor or sublimation pressure, kPa (Liquid); method: CCELL::UFactor:2
Temperature, K	Vapor or sublimation pressure, kPa	uncertainty
373.1	35.2	1
408.15	102.2	1.2

System: water; phases: Liquid, Gas
Property: Vapor or sublimation pressure, kPa (Liquid); method: CCELL::UFactor:2
Temperature, K	Vapor or sublimation pressure, kPa	uncertainty
373.1	101.4	1.3
408.15	312.4	2.1

System: 1,2-dichloroethane + (E)-1,2-dichloroethene; phases: Liquid, Gas
Property: Vapor or sublimation pressure, kPa (Liquid); method: Closed cell (Static) method
Temperature, K	Mole fraction of 1,2-dichloroethane	Vapor or sublimation pressure, kPa	uncertainty
303.15	0	53.33	1.1
303.15	0.0263	52.51	1.1
303.15	0.0527	51.57	1.1
303.15	0.1051	49.82	1.09
303.15	0.1572	47.93	1.09
303.15	0.2095	46.06	1.08
303.15	0.3152	42.52	1.07
303.15	0.4237	38.73	1.06
303.15	0.4447	37.81	1.06
303.15	0.4901	36.21	1.05
303.15	0.5278	34.92	1.05
303.15	0.5811	32.9	1
303.15	0.6082	31.73	1.04
303.15	0.7108	27.49	1.04
303.15	0.8064	23.24	1.03
303.15	0.8547	20.97	1.02
303.15	0.904	18.56	1.02
303.15	0.9289	17.19	1.02
303.15	0.9524	15.98	1.02
303.15	0.9758	14.65	1.01
303.15	1	13.28	1.01
353.15	0	269.9	1.3
353.15	0.0268	266.6	1.3
353.15	0.0554	262	1
353.15	0.1021	254.3	1.3
353.15	0.1582	245.7	1.3
353.15	0.2169	236.1	1.3
353.15	0.3285	218.9	1.2
353.15	0.4391	201.1	1.2
353.15	0.4567	198	1
353.15	0.5076	189.3	1.2
353.15	0.5462	183	1
353.15	0.6011	173.3	1.2
353.15	0.6092	171.5	1.2
353.15	0.7139	152.5	1.1
353.15	0.817	131.3	1.1
353.15	0.864	121.1	1.1
353.15	0.9105	111.3	1.1
353.15	0.955	101.1	1.1
353.15	0.9781	95.4	1.1
353.15	1	90.9	1

System: oct-1-ene + 2-methylthiophene; phases: Liquid, Gas
Property: Vapor or sublimation pressure, kPa (Liquid); method: Closed cell (Static) method
Temperature, K	Mole fraction of oct-1-ene	Vapor or sublimation pressure, kPa	uncertainty
373.1	0	69.87	1.08
373.1	0.0268	70.13	1.08
373.1	0.0514	70.18	1.08
373.1	0.0987	70.3	1.08
373.1	0.1458	70.32	1.08
373.1	0.1948	70.24	1.08
373.1	0.2953	69.78	1.08
373.1	0.3951	68.82	1.08
373.1	0.4897	67.14	1.08
373.1	0.5914	65.2	1.07
373.1	0.6955	62.87	1.07
373.1	0.8017	59.99	1.06
373.1	0.8504	58.6	1.06
373.1	0.8992	57.15	1.06
373.1	0.948	55.63	1.06
373.1	0.9739	54.77	1.06
373.1	1	53.82	1.05
413.15	0	209.8	1.2
413.15	0.0252	210.3	1.2
413.15	0.0505	210.4	1.2
413.15	0.1014	210.6	1.2
413.15	0.1586	209.9	1.2
413.15	0.2076	209.1	1.2
413.15	0.3164	206.5	1.2
413.15	0.4319	202.2	1.2
413.15	0.4842	199.9	1.2
413.15	0.5905	194.4	1.2
413.15	0.6912	188.4	1.2
413.15	0.7909	182.2	1.2
413.15	0.8439	178.5	1.2
413.15	0.9011	173.7	1.2
413.15	0.9475	170.1	1.2
413.15	0.9734	167.9	1.2
413.15	1	165.9	1.2

System: 2,2,4-trimethylpentane + 2-ethylthiophene; phases: Liquid, Gas
Property: Vapor or sublimation pressure, kPa (Liquid); method: Closed cell (Static) method
Temperature, K	Mole fraction of 2-ethylthiophene	Vapor or sublimation pressure, kPa	uncertainty
373.1	0	103.49	1.14
373.1	0.0263	102.24	1.14
373.1	0.0516	100.94	1.13
373.1	0.0935	98.72	1.13
373.1	0.1485	95.92	1.12
373.1	0.2083	92.6	1.12
373.1	0.3136	87.01	1.11
373.1	0.3543	84.78	1.1
373.1	0.3657	84.03	1.1
373.1	0.4151	81.43	1.1
373.1	0.4182	81.04	1.1
373.1	0.5148	75.74	1.09
373.1	0.6186	69.28	1.08
373.1	0.7199	62.17	1.07
373.1	0.8211	53.86	1.06
373.1	0.8627	49.9	1.05
373.1	0.9068	45.21	1.04
373.1	0.9531	39.52	1.04
373.1	0.976	36.64	1.03
373.1	1	33.26	1.03
413.15	0	282.8	1.4
413.15	0.0277	279	1.4
413.15	0.0545	275.8	1.4
413.15	0.1063	269.3	1.3
413.15	0.1541	263.1	1.3
413.15	0.2049	256.8	1.3
413.15	0.3165	241.9	1.3
413.15	0.3452	237.5	1.3
413.15	0.3729	233.9	1.3
413.15	0.3997	229.7	1.3
413.15	0.4293	226.1	1.3
413.15	0.5062	214.4	1.3
413.15	0.6109	197.7	1.3
413.15	0.7199	178.8	1.2
413.15	0.8247	158.6	1.2
413.15	0.8679	148.5	1.2
413.15	0.912	137.5	1.2
413.15	0.9535	125.7	1.1
413.15	0.9762	119.2	1.1
413.15	1	111.4	1.1

System: cyclopropanecarbonitrile + water; phases: Liquid mixture 1, Liquid mixture 2, Gas
Property: Vapor or sublimation pressure, kPa (Liquid mixture 1); method: Closed cell (Static) method
Temperature, K	Vapor or sublimation pressure, kPa	uncertainty
373.1	126.9	1.2

System: cyclopropanecarbonitrile + water; phases: Gas, Liquid mixture 1, Liquid mixture 2
Property: Mole fraction of cyclopropanecarbonitrile (Gas); method: Chromatography and Karl Fischer titration
Temperature, K	Mole fraction of cyclopropanecarbonitrile	uncertainty
373.1	0.2198	0.0088

System: cyclopropanecarbonitrile + water; phases: Liquid mixture 1, Liquid mixture 2, Gas
Property: Mole fraction of cyclopropanecarbonitrile (Liquid mixture 1); method: Chromatography
Temperature, K	Mole fraction of cyclopropanecarbonitrile	uncertainty
373.1	0.5534	0.0115

System: cyclopropanecarbonitrile + water; phases: Liquid mixture 2, Liquid mixture 1, Gas
Property: Mole fraction of cyclopropanecarbonitrile (Liquid mixture 2); method: Chromatography
Temperature, K	Mole fraction of cyclopropanecarbonitrile	uncertainty
373.1	0.0425	0.0017

System: cyclopropanecarbonitrile + water; phases: Liquid, Gas
Property: Vapor or sublimation pressure, kPa (Liquid); method: CCELL:UFactor:2
Temperature, K	Mole fraction of cyclopropanecarbonitrile	Vapor or sublimation pressure, kPa	uncertainty
373.1	0	101.4	1.3
373.1	0.0087	112.6	1.4
373.1	0.0172	118.5	1.4
373.1	0.0355	125.1	1.4
373.1	0.5206	126.9	1.4
373.1	0.5702	126.2	1.4
373.1	0.5881	124.9	1.4
373.1	0.6269	124	1.4
373.1	0.6344	123.9	1.4
373.1	0.6703	122	1.4
373.1	0.6888	120.5	1.4
373.1	0.7118	119.1	1.4
373.1	0.7374	116.1	1.3
373.1	0.7533	115.1	1.3
373.1	0.7765	111	1.3
373.1	0.7951	109.3	1.3
373.1	0.8224	104.6	1.3
373.1	0.8438	99.9	1.3
373.1	0.8644	94.3	1.2
373.1	0.8775	90.4	1.2
373.1	0.8884	86.5	1.2
373.1	0.9118	77.6	1.2
373.1	0.9389	66.1	1.1
373.1	0.9533	58.1	1.1
373.1	0.9689	50.9	1.1
373.1	1	35.2	1
408.15	0	312.4	2.1
408.15	0.008	336.7	2.3
408.15	0.0085	336.7	2.3
408.15	0.0164	350.9	2.3
408.15	0.0168	350.9	2.3
408.15	0.0348	366.5	2.4
408.15	0.0351	366.5	2.4
408.15	0.0418	369.7	2.4
408.15	0.0419	369.7	2.4
408.15	0.0519	372.5	2.5
408.15	0.052	372.5	2.5
408.15	0.0692	374.6	2.5
408.15	0.0693	374.6	2.5
408.15	0.0867	375.6	2.5
408.15	0.0891	376.1	2.5
408.15	0.0893	376.1	2.5
408.15	0.0924	376	2.5
408.15	0.0926	376	2.5
408.15	0.1093	376	2.5
408.15	0.1094	376	2.5
408.15	0.1316	376.1	2.6
408.15	0.1317	376.1	2.6
408.15	0.1408	376.5	2.6
408.15	0.1448	376.2	2.6
408.15	0.1451	376.2	2.6
408.15	0.153	376.5	2.6
408.15	0.1531	376.5	2.6
408.15	0.1995	376.2	2.6
408.15	0.1999	376.2	2.6
408.15	0.2106	376.4	2.6
408.15	0.2566	376.2	2.6
408.15	0.2572	376.2	2.6
408.15	0.265	376.2	2.6
408.15	0.3175	375.8	2.6
408.15	0.3184	375.8	2.6
408.15	0.3225	375.8	2.6
408.15	0.3797	375.1	2.6
408.15	0.3809	375.1	2.6
408.15	0.4307	373.8	2.6
408.15	0.4323	373.8	2.6
408.15	0.4345	374.1	2.6
408.15	0.4346	374.1	2.6
408.15	0.4965	370.2	2.5
408.15	0.4984	370.2	2.5
408.15	0.5417	368	2.5
408.15	0.542	368.1	2.5
408.15	0.5447	364.9	2.4
408.15	0.5468	364.9	2.4
408.15	0.5917	362.4	2.4
408.15	0.592	362.4	2.4
408.15	0.5949	357.8	2.4
408.15	0.5969	357.8	2.4
408.15	0.6306	355.8	2.4
408.15	0.631	355.8	2.4
408.15	0.6744	346.3	2.3
408.15	0.6749	346.3	2.3
408.15	0.7161	333.5	2.2
408.15	0.7166	333.5	2.2
408.15	0.7536	320.2	2.2
408.15	0.7554	320.2	2.2
408.15	0.758	318.1	2.2
408.15	0.7584	318.1	2.2
408.15	0.7999	297.9	2.1
408.15	0.8002	297.9	2.1
408.15	0.8273	282	2
408.15	0.8275	282	2
408.15	0.8486	266.6	1.9
408.15	0.8487	266.6	1.9
408.15	0.869	249.9	1.8
408.15	0.8908	231.7	1.7
408.15	0.8912	231.7	1.7
408.15	0.8926	228.1	1.7
408.15	0.8927	228.1	1.7
408.15	0.9154	205.3	1.6
408.15	0.9157	205.3	1.6
408.15	0.9417	176.4	1.5
408.15	0.9421	176.4	1.5
408.15	0.9705	141.3	1.3
408.15	0.9709	141.3	1.3
408.15	1	102.2	1.2
408.15	0	312.4	2.1
408.15	0.0867	375.6	2.5
408.15	0.1408	376.5	2.6
408.15	0.2106	376.4	2.6
408.15	0.265	376.2	2.6
408.15	0.3225	375.8	2.6
408.15	0.869	249.9	1.8
408.15	1	102.2	1.2

System: cyclopropanecarbonitrile + water; phases: Liquid, Gas
Fixed: Temperature, K = 408.15
Property: Vapor or sublimation pressure, kPa (Liquid); method: Closed cell (Static) method
Mole fraction of cyclopropanecarbonitrile	Vapor or sublimation pressure, kPa	uncertainty
0.08954	376.1	2.4
0.17511	375.6	2.4
0.2413	376.6	2.4

System: cyclopropanecarbonitrile + water; phases: Gas, Liquid
Fixed: Temperature, K = 408.15
Property: Mole fraction of cyclopropanecarbonitrile (Gas); method: Chromatography
Mole fraction of cyclopropanecarbonitrile	Mole fraction of cyclopropanecarbonitrile	uncertainty
0.08954	0.18825	0.00587
0.17511	0.191	0.00596
0.2413	0.19559	0.0061
