Measured thermophysical data. Densities, Viscosities, and Ultrasonic Velocity Studies of Binary Mixtures of Chloroform with Propan-1-ol and Butan-1-ol at (303.15 and 313.15) K
Source: J. Chem. Eng. Data, 2006, 10.1021/je050169y
Compound 1: trichloromethane, CHCl3, InChI=1S/CHCl3/c2-1(3)4/h1H
Compound 2: propan-1-ol, C3H8O, InChI=1S/C3H8O/c1-2-3-4/h4H,2-3H2,1H3, purity 99.5%
Compound 3: butan-1-ol, C4H10O, InChI=1S/C4H10O/c1-2-3-4-5/h5H,2-4H2,1H3

System: trichloromethane; phases: Liquid
Fixed: Pressure, kPa = 101
Property: Viscosity, Pa*s (Liquid); method: CAPTUB:UFactor:4
Temperature, K	Viscosity, Pa*s	uncertainty
303.15	0.000534	1.5e-05
313.15	0.000491	1.4e-05

System: trichloromethane; phases: Liquid
Fixed: Pressure, kPa = 101
Property: Speed of sound, m/s (Liquid); method: FPINT:UFactor:4
Temperature, K	Speed of sound, m/s	uncertainty
303.15	969	3
313.15	934	3

System: trichloromethane; phases: Liquid
Fixed: Pressure, kPa = 101
Property: Mass density, kg/m3 (Liquid); method: PYCNOM:UFactor:2
Temperature, K	Mass density, kg/m3	uncertainty
303.15	1469.21	1.88
313.15	1449.74	1.9

System: propan-1-ol; phases: Liquid
Fixed: Pressure, kPa = 101
Property: Viscosity, Pa*s (Liquid); method: CAPTUB::UFactor:4
Temperature, K	Viscosity, Pa*s	uncertainty
303.15	0.001719	4.1e-05
313.15	0.001363	3.3e-05

System: propan-1-ol; phases: Liquid
Fixed: Pressure, kPa = 101
Property: Speed of sound, m/s (Liquid); method: FPINT::UFactor:4
Temperature, K	Speed of sound, m/s	uncertainty
303.15	1193	3
313.15	1159	3

System: propan-1-ol; phases: Liquid
Fixed: Pressure, kPa = 101
Property: Mass density, kg/m3 (Liquid); method: PYCNOM::UFactor:2
Temperature, K	Mass density, kg/m3	uncertainty
303.15	796.66	0.8
313.15	788.31	0.83

System: butan-1-ol; phases: Liquid
Fixed: Pressure, kPa = 101
Property: Viscosity, Pa*s (Liquid); method: CAPTUB::UFactor:4
Temperature, K	Viscosity, Pa*s	uncertainty
303.15	0.002274	5.4e-05
313.15	0.001783	4.3e-05

System: butan-1-ol; phases: Liquid
Fixed: Pressure, kPa = 101
Property: Speed of sound, m/s (Liquid); method: FPINT:UFactor:4
Temperature, K	Speed of sound, m/s	uncertainty
303.15	1227	4
313.15	1193	3

System: butan-1-ol; phases: Liquid
Fixed: Pressure, kPa = 101
Property: Mass density, kg/m3 (Liquid); method: PYCNOM::UFactor:2
Temperature, K	Mass density, kg/m3	uncertainty
303.15	802.31	0.86
313.15	794.37	0.89

System: trichloromethane + propan-1-ol; phases: Liquid
Fixed: Pressure, kPa = 101
Property: Viscosity, Pa*s (Liquid); method: CAPTUB:UFactor:4
Temperature, K	Mole fraction of trichloromethane	Viscosity, Pa*s	uncertainty
303.15	0	0.001719	4.1e-05
303.15	0.0521	0.001628	3.9e-05
303.15	0.0996	0.001541	3.7e-05
303.15	0.1504	0.001435	3.5e-05
303.15	0.201	0.001331	3.2e-05
303.15	0.2498	0.001233	3e-05
303.15	0.3057	0.001113	2.8e-05
303.15	0.3499	0.001044	2.6e-05
303.15	0.4031	0.000956	2.4e-05
303.15	0.451	0.000884	2.3e-05
303.15	0.5056	0.000813	2.1e-05
303.15	0.5541	0.00076	2e-05
303.15	0.5994	0.000723	1.9e-05
303.15	0.6511	0.00068	1.8e-05
303.15	0.7033	0.000654	1.8e-05
303.15	0.7506	0.000629	1.7e-05
303.15	0.8	0.000608	1.7e-05
303.15	0.8507	0.000596	1.6e-05
303.15	0.9001	0.000579	1.6e-05
303.15	0.9484	0.000562	1.6e-05
303.15	1	0.000534	1.5e-05
313.15	0	0.001363	3.3e-05
313.15	0.0521	0.001302	3.2e-05
313.15	0.0996	0.001243	3.1e-05
313.15	0.1504	0.001163	2.9e-05
313.15	0.201	0.001077	2.7e-05
313.15	0.2498	0.001013	2.6e-05
313.15	0.3057	0.000919	2.3e-05
313.15	0.3499	0.000872	2.2e-05
313.15	0.4031	0.000811	2.1e-05
313.15	0.451	0.000752	2e-05
313.15	0.5056	0.000703	1.9e-05
313.15	0.5541	0.000662	1.8e-05
313.15	0.5994	0.000635	1.7e-05
313.15	0.6511	0.000605	1.6e-05
313.15	0.7033	0.000592	1.6e-05
313.15	0.7506	0.00057	1.6e-05
313.15	0.8	0.000558	1.5e-05
313.15	0.8507	0.000547	1.5e-05
313.15	0.9001	0.000531	1.5e-05
313.15	0.9484	0.000517	1.5e-05
313.15	1	0.000491	1.4e-05

System: trichloromethane + propan-1-ol; phases: Liquid
Fixed: Pressure, kPa = 101
Property: Speed of sound, m/s (Liquid); method: FPINT:UFactor:4
Temperature, K	Mole fraction of trichloromethane	Speed of sound, m/s	uncertainty
303.15	0	1193	3
303.15	0.0521	1171	3
303.15	0.0996	1153	3
303.15	0.1504	1134	3
303.15	0.201	1116	3
303.15	0.2498	1100	3
303.15	0.3057	1083	3
303.15	0.3499	1070	3
303.15	0.4031	1056	3
303.15	0.451	1042	3
303.15	0.5056	1028	3
303.15	0.5541	1017	3
303.15	0.5994	1007	3
303.15	0.6511	997	3
303.15	0.7033	988	3
303.15	0.7506	980	3
303.15	0.8	974	3
303.15	0.8507	970	3
303.15	0.9001	967	3
303.15	0.9484	966	3
303.15	1	969	3
313.15	0	1159	3
313.15	0.0521	1136	3
313.15	0.0996	1117	3
313.15	0.1504	1098	3
313.15	0.201	1080	3
313.15	0.2498	1064	3
313.15	0.3057	1047	3
313.15	0.3499	1034	3
313.15	0.4031	1018	3
313.15	0.451	1006	3
313.15	0.5056	992	3
313.15	0.5541	981	3
313.15	0.5994	972	3
313.15	0.6511	961	3
313.15	0.7033	951	3
313.15	0.7506	944	3
313.15	0.8	939	3
313.15	0.8507	933	3
313.15	0.9001	931	3
313.15	0.9484	931	3
313.15	1	934	3

System: trichloromethane + propan-1-ol; phases: Liquid
Fixed: Pressure, kPa = 101
Property: Mass density, kg/m3 (Liquid); method: PYCNOM:UFactor:2
Temperature, K	Mole fraction of trichloromethane	Mass density, kg/m3	uncertainty
303.15	0	796.66	0.8
303.15	0.0521	834.23	0.85
303.15	0.0996	868.17	0.9
303.15	0.1504	904.1	0.96
303.15	0.201	939.51	1.01
303.15	0.2498	973.47	1.07
303.15	0.3057	1011.95	1.14
303.15	0.3499	1042.15	1.19
303.15	0.4031	1078.28	1.25
303.15	0.451	1110.46	1.31
303.15	0.5056	1147.02	1.37
303.15	0.5541	1179.18	1.42
303.15	0.5994	1209.1	1.46
303.15	0.6511	1243.11	1.52
303.15	0.7033	1277.26	1.57
303.15	0.7506	1308.1	1.62
303.15	0.8	1340.17	1.67
303.15	0.8507	1373.01	1.73
303.15	0.9001	1404.92	1.78
303.15	0.9484	1436.03	1.83
303.15	1	1469.21	1.88
313.15	0	788.31	0.83
313.15	0.0521	825.28	0.89
313.15	0.0996	858.68	0.94
313.15	0.1504	894.03	1
313.15	0.201	928.92	1.05
313.15	0.2498	962.29	1.11
313.15	0.3057	1000.09	1.17
313.15	0.3499	1029.85	1.23
313.15	0.4031	1065.26	1.29
313.15	0.451	1097	1.34
313.15	0.5056	1132.88	1.41
313.15	0.5541	1164.5	1.45
313.15	0.5994	1193.91	1.49
313.15	0.6511	1227.27	1.54
313.15	0.7033	1260.87	1.6
313.15	0.7506	1291.08	1.65
313.15	0.8	1322.66	1.7
313.15	0.8507	1354.88	1.75
313.15	0.9001	1386.24	1.8
313.15	0.9484	1416.96	1.85
313.15	1	1449.74	1.9

System: trichloromethane + butan-1-ol; phases: Liquid
Fixed: Pressure, kPa = 101
Property: Viscosity, Pa*s (Liquid); method: CAPTUB:UFactor:4
Temperature, K	Mole fraction of trichloromethane	Viscosity, Pa*s	uncertainty
303.15	0	0.002274	5.4e-05
303.15	0.0513	0.002125	5.1e-05
303.15	0.0999	0.001989	4.8e-05
303.15	0.149	0.001829	4.4e-05
303.15	0.2009	0.001683	4.1e-05
303.15	0.2506	0.001531	3.7e-05
303.15	0.2999	0.001394	3.4e-05
303.15	0.3659	0.001224	3e-05
303.15	0.407	0.001137	2.8e-05
303.15	0.4515	0.001045	2.6e-05
303.15	0.4997	0.00096	2.4e-05
303.15	0.5502	0.000877	2.3e-05
303.15	0.6011	0.00082	2.1e-05
303.15	0.6527	0.000754	2e-05
303.15	0.702	0.000709	1.9e-05
303.15	0.7519	0.000676	1.8e-05
303.15	0.802	0.000636	1.7e-05
303.15	0.8517	0.000622	1.7e-05
303.15	0.9023	0.000587	1.6e-05
303.15	0.9509	0.000569	1.6e-05
303.15	1	0.000534	1.5e-05
313.15	0	0.001783	4.3e-05
313.15	0.0512	0.00167	4.1e-05
313.15	0.1	0.001566	3.9e-05
313.15	0.149	0.00145	3.6e-05
313.15	0.2009	0.001341	3.3e-05
313.15	0.2506	0.00123	3.1e-05
313.15	0.2999	0.001136	2.9e-05
313.15	0.3659	0.001018	2.6e-05
313.15	0.407	0.000943	2.4e-05
313.15	0.4515	0.000878	2.3e-05
313.15	0.4997	0.00082	2.1e-05
313.15	0.5502	0.000758	2e-05
313.15	0.6012	0.000712	1.9e-05
313.15	0.6527	0.000671	1.8e-05
313.15	0.7021	0.000633	1.7e-05
313.15	0.7519	0.000615	1.7e-05
313.15	0.8021	0.000579	1.6e-05
313.15	0.8518	0.000572	1.6e-05
313.15	0.9024	0.000547	1.5e-05
313.15	0.951	0.000524	1.5e-05
313.15	1	0.000491	1.4e-05

System: trichloromethane + butan-1-ol; phases: Liquid
Fixed: Pressure, kPa = 101
Property: Speed of sound, m/s (Liquid); method: FPINT:UFactor:4
Temperature, K	Mole fraction of trichloromethane	Speed of sound, m/s	uncertainty
303.15	0	1227	4
303.15	0.0513	1207	4
303.15	0.0999	1189	3
303.15	0.149	1170	3
303.15	0.2009	1152	3
303.15	0.2506	1134	3
303.15	0.2999	1118	3
303.15	0.3659	1097	3
303.15	0.407	1084	3
303.15	0.4515	1071	3
303.15	0.4997	1056	3
303.15	0.5502	1043	3
303.15	0.6011	1030	3
303.15	0.6527	1018	3
303.15	0.702	1007	3
303.15	0.7519	997	3
303.15	0.802	989	3
303.15	0.8517	981	3
303.15	0.9023	975	3
303.15	0.9509	971	3
303.15	1	969	3
313.15	0	1193	3
313.15	0.0512	1172	3
313.15	0.1	1154	3
313.15	0.149	1135	3
313.15	0.2009	1116	3
313.15	0.2506	1098	3
313.15	0.2999	1081	3
313.15	0.3659	1060	3
313.15	0.407	1047	3
313.15	0.4515	1034	3
313.15	0.4997	1019	3
313.15	0.5502	1006	3
313.15	0.6012	993	3
313.15	0.6527	981	3
313.15	0.7021	970	3
313.15	0.7519	961	3
313.15	0.8021	952	3
313.15	0.8518	945	3
313.15	0.9024	939	3
313.15	0.951	936	3
313.15	1	934	3

System: trichloromethane + butan-1-ol; phases: Liquid
Fixed: Pressure, kPa = 101
Property: Mass density, kg/m3 (Liquid); method: PYCNOM:UFactor:2
Temperature, K	Mole fraction of trichloromethane	Mass density, kg/m3	uncertainty
303.15	0	802.31	0.86
303.15	0.0513	832.44	0.91
303.15	0.0999	861.44	0.95
303.15	0.149	890.91	1
303.15	0.2009	922.47	1.05
303.15	0.2506	953.06	1.1
303.15	0.2999	983.75	1.15
303.15	0.3659	1025.5	1.22
303.15	0.407	1051.86	1.26
303.15	0.4515	1080.69	1.32
303.15	0.4997	1112.25	1.37
303.15	0.5502	1145.88	1.42
303.15	0.6011	1180.26	1.47
303.15	0.6527	1215.51	1.52
303.15	0.702	1249.87	1.57
303.15	0.7519	1285.1	1.63
303.15	0.802	1320.98	1.68
303.15	0.8517	1357.17	1.74
303.15	0.9023	1394.7	1.8
303.15	0.9509	1431.43	1.84
303.15	1	1469.21	1.88
313.15	0	794.37	0.89
313.15	0.0512	823.95	0.93
313.15	0.1	852.45	0.97
313.15	0.149	881.47	1.02
313.15	0.2009	912.53	1.07
313.15	0.2506	942.58	1.11
313.15	0.2999	972.85	1.16
313.15	0.3659	1013.85	1.23
313.15	0.407	1039.75	1.28
313.15	0.4515	1067.95	1.33
313.15	0.4997	1099	1.38
313.15	0.5502	1132.03	1.43
313.15	0.6012	1165.78	1.48
313.15	0.6527	1200.35	1.52
313.15	0.7021	1234	1.58
313.15	0.7519	1268.52	1.63
313.15	0.8021	1303.85	1.68
313.15	0.8518	1339.4	1.74
313.15	0.9024	1376.18	1.79
313.15	0.951	1412.42	1.84
313.15	1	1449.74	1.9
