Measured thermophysical data. Static Relative Permittivities of Water + Ethane-1,2-diol and Water + Propane-1,2,3-triol under Pressures up to 300 MPa at 298.15 K
Source: J. Chem. Eng. Data, 2006, 10.1021/je050353j
Compound 1: water, H2O, InChI=1S/H2O/h1H2
Compound 2: 1,2-ethanediol, C2H6O2, InChI=1S/C2H6O2/c3-1-2-4/h3-4H,1-2H2, purity 99%
Compound 3: glycerol, C3H8O3, InChI=1S/C3H8O3/c4-1-3(6)2-5/h3-6H,1-2H2, purity 99%

System: 1,2-ethanediol; phases: Liquid
Property: Refractive index (Na D-line) (Liquid); method: Standard Abbe refractometry
Temperature, K	Pressure, kPa	Refractive index (Na D-line)	uncertainty
298.15	100	1.4304	0.0008

System: glycerol; phases: Liquid
Property: Refractive index (Na D-line) (Liquid); method: Standard Abbe refractometry
Temperature, K	Pressure, kPa	Refractive index (Na D-line)	uncertainty
298.15	100	1.4722	0.0008

System: 1,2-ethanediol + water; phases: Liquid
Fixed: Temperature, K = 298.15
Property: Relative permittivity at zero frequency (Liquid); method: Parallel plate capacitor
Pressure, kPa	Mole fraction of 1,2-ethanediol	Relative permittivity at zero frequency	uncertainty
100	0	78.39	0.17
100	0.2	65.26	0.14
100	0.4	56.38	0.12
100	0.6	49.73	0.11
100	0.8	44.76	0.1
50000	0	80.18	0.17
50000	0.2	66.72	0.14
50000	0.4	57.74	0.12
50000	0.6	50.99	0.11
50000	0.8	45.95	0.1
100000	0	81.88	0.17
100000	0.2	68.04	0.14
100000	0.4	58.96	0.13
100000	0.6	52.14	0.11
100000	0.8	47.04	0.1
150000	0	83.47	0.18
150000	0.2	69.3	0.15
150000	0.4	60.14	0.13
150000	0.6	53.21	0.11
150000	0.8	48.05	0.1
200000	0	85.01	0.18
200000	0.2	70.47	0.15
200000	0.4	61.19	0.13
200000	0.6	54.2	0.12
200000	0.8	49	0.1
250000	0	86.48	0.18
250000	0.2	71.6	0.15
250000	0.4	62.23	0.13
250000	0.6	55.15	0.12
250000	0.8	49.89	0.11
300000	0	87.94	0.19
300000	0.2	72.68	0.15
300000	0.4	63.22	0.13
300000	0.6	56.06	0.12
300000	0.8	50.72	0.11

System: glycerol + water; phases: Liquid
Fixed: Temperature, K = 298.15
Property: Relative permittivity at zero frequency (Liquid); method: Parallel plate capacitor
Pressure, kPa	Mole fraction of glycerol	Relative permittivity at zero frequency	uncertainty
100	0.2	63.79	0.14
100	0.4	55.26	0.12
100	0.6	49.52	0.11
100	0.8	45.48	0.1
50000	0.2	65.05	0.14
50000	0.4	56.37	0.12
50000	0.6	50.55	0.11
50000	0.8	46.43	0.1
100000	0.2	66.28	0.14
100000	0.4	57.44	0.12
100000	0.6	51.5	0.11
100000	0.8	47.33	0.1
150000	0.2	67.44	0.14
150000	0.4	58.46	0.12
150000	0.6	52.42	0.11
150000	0.8	48.18	0.1
200000	0.2	68.55	0.15
200000	0.4	59.43	0.13
200000	0.6	53.29	0.11
200000	0.8	48.99	0.1
250000	0.2	69.62	0.15
250000	0.4	60.37	0.13
250000	0.6	54.14	0.11
250000	0.8	49.77	0.11
300000	0.2	70.65	0.15
300000	0.4	61.28	0.13
300000	0.6	54.95	0.12
300000	0.8	50.53	0.11
