Measured thermophysical data. Dynamic Viscosities of a Series of 1-Alkyl-3-methylimidazolium Chloride Ionic Liquids and Their Binary Mixtures with Water at Several Temperatures
Source: J. Chem. Eng. Data, 2006, 10.1021/je050460d
Compound 1: 1-butyl-3-methylimidazolium chloride, C8H15ClN2, InChI=1S/C8H15N2.ClH/c1-3-4-5-10-7-6-9(2)8-10;/h6-8H,3-5H2,1-2H3;1H/q+1;/p-1
Compound 2: 1-hexyl-3-methylimidazolium chloride, C10H19ClN2, InChI=1S/C10H19N2.ClH/c1-3-4-5-6-7-12-9-8-11(2)10-12;/h8-10H,3-7H2,1-2H3;1H/q+1;/p-1
Compound 3: 1-methyl-3-octylimidazolium chloride, C12H23ClN2, InChI=1S/C12H23N2.ClH/c1-3-4-5-6-7-8-9-14-11-10-13(2)12-14;/h10-12H,3-9H2,1-2H3;1H/q+1;/p-1
Compound 4: water, H2O, InChI=1S/H2O/h1H2

System: 1-hexyl-3-methylimidazolium chloride; phases: Liquid
Fixed: Pressure, kPa = 101.325
Property: Viscosity, Pa*s (Liquid); method: Capillary tube (Ostwald; Ubbelohde) method
Temperature, K	Viscosity, Pa*s	uncertainty
298.15	18.089	2.3581
313.15	3.429	0.3267
328.15	0.9421	0.0647
343.15	0.3395	0.0166

System: 1-hexyl-3-methylimidazolium chloride; phases: Liquid
Fixed: Pressure, kPa = 101.325
Property: Refractive index (Na D-line) (Liquid); method: Standard Abbe refractometry
Temperature, K	Refractive index (Na D-line)	uncertainty
298.15	1.5172	0.00105
303.15	1.5158	0.00105
308.15	1.51437	0.00105
313.15	1.51294	0.00105
318.15	1.51151	0.00105
323.15	1.51009	0.00105
328.15	1.50868	0.00105
333.15	1.50727	0.00105
338.15	1.50586	0.00105
343.15	1.50445	0.00105

System: 1-hexyl-3-methylimidazolium chloride; phases: Liquid
Fixed: Pressure, kPa = 101.325
Property: Mass density, kg/m3 (Liquid); method: Vibrating tube method
Temperature, K	Mass density, kg/m3	uncertainty
298.15	1039.67	2.74
303.15	1036.81	2.73
308.15	1033.96	2.72
313.15	1031.13	2.71
318.15	1028.3	2.71
323.15	1025.49	2.7
328.15	1022.69	2.69
333.15	1019.89	2.68
338.15	1017.11	2.68
343.15	1014.32	2.67

System: 1-methyl-3-octylimidazolium chloride; phases: Liquid
Fixed: Pressure, kPa = 101.325
Property: Viscosity, Pa*s (Liquid); method: Capillary tube (Ostwald; Ubbelohde) method
Temperature, K	Viscosity, Pa*s	uncertainty
298.15	20.883	2.7862
313.15	4.066	0.4018
328.15	1.091	0.0781
343.15	0.3872	0.0198

System: 1-methyl-3-octylimidazolium chloride; phases: Liquid
Fixed: Pressure, kPa = 101.325
Property: Refractive index (Na D-line) (Liquid); method: Standard Abbe refractometry
Temperature, K	Refractive index (Na D-line)	uncertainty
298.15	1.50987	0.00105
303.15	1.50838	0.00105
308.15	1.50689	0.00105
313.15	1.50543	0.00105
318.15	1.50396	0.00105
323.15	1.5025	0.00105
328.15	1.50103	0.00105
333.15	1.49956	0.00105
338.15	1.4981	0.00105
343.15	1.49664	0.00105

System: 1-methyl-3-octylimidazolium chloride; phases: Liquid
Fixed: Pressure, kPa = 101.325
Property: Mass density, kg/m3 (Liquid); method: Vibrating tube method
Temperature, K	Mass density, kg/m3	uncertainty
298.15	1008.82	2.66
303.15	1005.94	2.65
308.15	1003.06	2.64
313.15	1000.2	2.63
318.15	997.37	2.62
323.15	994.5	2.62
328.15	991.67	2.61
333.15	988.85	2.6
338.15	986.04	2.6
343.15	983.24	2.59

System: water + 1-butyl-3-methylimidazolium chloride; phases: Liquid
Fixed: Pressure, kPa = 101
Property: Viscosity, Pa*s (Liquid); method: Capillary tube (Ostwald; Ubbelohde) method
Temperature, K	Mole fraction of water	Viscosity, Pa*s	uncertainty
298.15	0.5666	0.1235	0.003039
298.15	0.607	0.07216	0.001132
298.15	0.6933	0.03566	0.000452
298.15	0.7698	0.01808	0.000206
298.15	0.8279	0.01019	0.000108
298.15	0.8674	0.006628	6.7e-05
298.15	0.9194	0.003543	3.5e-05
298.15	0.9625	0.001886	1.8e-05
298.15	0.9885	0.001175	1.1e-05
313.15	0.5666	0.05663	0.000876
313.15	0.607	0.03536	0.000506
313.15	0.6933	0.01894	0.000241
313.15	0.7698	0.01011	0.000117
313.15	0.8279	0.006125	6.7e-05
313.15	0.8674	0.004123	4.3e-05
313.15	0.9194	0.002311	2.3e-05
313.15	0.9625	0.001297	1.3e-05
313.15	0.9885	0.000955	9e-06
328.15	0.5666	0.03004	0.00047
328.15	0.607	0.01975	0.000282
328.15	0.6933	0.01132	0.000145
328.15	0.7699	0.006474	7.6e-05
328.15	0.8279	0.004019	4.5e-05
328.15	0.8674	0.002795	3e-05
328.15	0.9194	0.001635	1.7e-05
328.15	0.9625	0.000955	9e-06
328.15	0.9885	0.000753	7e-06
343.15	0.5666	0.01769	0.000268
343.15	0.607	0.0122	0.000175
343.15	0.6933	0.007386	9.6e-05
343.15	0.7699	0.004419	5.3e-05
343.15	0.8279	0.002858	3.2e-05
343.15	0.8674	0.002043	2.2e-05
343.15	0.9194	0.001228	1.3e-05
343.15	0.9625	0.000741	8e-06
343.15	0.9885	0.000652	7e-06

System: water + 1-butyl-3-methylimidazolium chloride; phases: Liquid
Fixed: Pressure, kPa = 101
Property: Mass density, kg/m3 (Liquid); method: Vibrating tube method
Temperature, K	Mole fraction of water	Mass density, kg/m3	uncertainty
298.15	0.5666	1081	1.5
298.15	0.607	1079.9	1.4
298.15	0.6933	1076.5	1.2
298.15	0.7698	1071.1	1.1
298.15	0.8279	1063.8	0.9
298.15	0.8674	1057.1	0.8
298.15	0.9194	1042.3	0.7
298.15	0.9625	1022.3	0.6
298.15	0.9885	1005.2	0.5
313.15	0.5666	1072	1.5
313.15	0.607	1070.8	1.4
313.15	0.6933	1067.2	1.2
313.15	0.7698	1061.5	1
313.15	0.8279	1054.1	0.9
313.15	0.8674	1047.1	0.8
313.15	0.9194	1032.8	0.7
313.15	0.9625	1014	0.6
313.15	0.9885	999.1	0.5
328.15	0.5666	1063.4	1.5
328.15	0.607	1062	1.4
328.15	0.6933	1058.1	1.2
328.15	0.7699	1052.1	1
328.15	0.8279	1044.5	0.9
328.15	0.8674	1037.3	0.8
328.15	0.9194	1023.3	0.7
328.15	0.9625	1006.1	0.6
328.15	0.9885	989.3	0.5
343.15	0.5666	1054.7	1.5
343.15	0.607	1053.1	1.4
343.15	0.6933	1048.8	1.2
343.15	0.7699	1042.4	1
343.15	0.8279	1034.4	0.9
343.15	0.8674	1027.1	0.8
343.15	0.9194	1013.1	0.7
343.15	0.9625	996.7	0.6
343.15	0.9885	979.6	0.5

System: water + 1-hexyl-3-methylimidazolium chloride; phases: Liquid
Fixed: Pressure, kPa = 101
Property: Viscosity, Pa*s (Liquid); method: Capillary tube (Ostwald; Ubbelohde) method
Temperature, K	Mole fraction of water	Viscosity, Pa*s	uncertainty
298.15	0	18.089	1.848869
298.15	0.1274	7.667	0.67174
298.15	0.3173	1.02	0.056008
298.15	0.3906	0.4994	0.021267
298.15	0.5594	0.2012	0.005548
298.15	0.7127	0.06075	0.000723
298.15	0.783	0.03379	0.000351
298.15	0.8935	0.008688	7.8e-05
298.15	0.9417	0.003505	3e-05
298.15	1	0.000895	7e-06
313.15	0	3.429	0.258871
313.15	0.1274	1.746	0.111688
313.15	0.3173	0.3935	0.015694
313.15	0.3906	0.1889	0.00539
313.15	0.5594	0.08811	0.001509
313.15	0.7127	0.03004	0.000359
313.15	0.783	0.01749	0.000183
313.15	0.8935	0.005191	4.8e-05
313.15	0.9417	0.002323	2e-05
313.15	1	0.000658	6e-06
328.15	0	0.9421	0.052277
328.15	0.1274	0.5164	0.023454
328.15	0.3173	0.1657	0.004614
328.15	0.3906	0.08676	0.001715
328.15	0.5594	0.04487	0.000654
328.15	0.7127	0.01683	0.000201
328.15	0.783	0.01017	0.000108
328.15	0.8935	0.003367	3.1e-05
328.15	0.9417	0.001649	1.4e-05
328.15	1	0.000519	5e-06
343.15	0	0.3395	0.013919
343.15	0.1274	0.2074	0.006852
343.15	0.3173	0.07907	0.001618
343.15	0.3906	0.04552	0.000809
343.15	0.5594	0.02537	0.00037
343.15	0.7127	0.01039	0.000124
343.15	0.783	0.006542	7e-05
343.15	0.8935	0.002358	2.2e-05
343.15	0.9417	0.001224	1.1e-05
343.15	1	0.000419	4e-06

System: water + 1-hexyl-3-methylimidazolium chloride; phases: Liquid
Fixed: Pressure, kPa = 101
Property: Mass density, kg/m3 (Liquid); method: Vibrating tube method
Temperature, K	Mole fraction of water	Mass density, kg/m3	uncertainty
298.15	0	1039.67	2.74
298.15	0.1274	1040.45	2.45
298.15	0.3173	1040.7	2.02
298.15	0.3906	1040.95	1.85
298.15	0.5594	1041.4	1.48
298.15	0.7127	1038.77	1.14
298.15	0.783	1035.72	0.99
298.15	0.8935	1025.28	0.74
298.15	0.9417	1018.17	0.64
298.15	1	997.03	0.5
313.15	0	1031.13	2.71
313.15	0.1274	1031.89	2.43
313.15	0.3173	1032.22	2
313.15	0.3906	1032.63	1.84
313.15	0.5594	1032.76	1.47
313.15	0.7127	1029.8	1.13
313.15	0.783	1026.67	0.98
313.15	0.8935	1016.2	0.74
313.15	0.9417	1009.43	0.63
313.15	1	992.2	0.5
328.15	0	1022.69	2.69
328.15	0.1274	1023.44	2.41
328.15	0.3173	1023.8	1.98
328.15	0.3906	1024.3	1.82
328.15	0.5594	1024.14	1.46
328.15	0.7127	1020.75	1.12
328.15	0.783	1017.17	0.97
328.15	0.8935	1006.79	0.73
328.15	0.9417	1000.13	0.63
328.15	1	985.68	0.5
343.15	0	1014.34	2.67
343.15	0.1274	1015.06	2.39
343.15	0.3173	1015.5	1.97
343.15	0.3906	1015.77	1.81
343.15	0.5594	1015.4	1.44
343.15	0.7127	1011.45	1.11
343.15	0.783	1007.71	0.96
343.15	0.8935	997	0.72
343.15	0.9417	990.26	0.62
343.15	1	977.75	0.5

System: water + 1-methyl-3-octylimidazolium chloride; phases: Liquid
Fixed: Pressure, kPa = 101
Property: Viscosity, Pa*s (Liquid); method: Capillary tube (Ostwald; Ubbelohde) method
Temperature, K	Mole fraction of water	Viscosity, Pa*s	uncertainty
298.15	0	20.883	2.78624
298.15	0.1484	5.57	0.58352
298.15	0.203	3.815	0.36809
298.15	0.4076	1.325	0.09712
298.15	0.5334	0.9211	0.0599
298.15	0.6807	0.433	0.021
298.15	0.8185	0.1934	0.00599
298.15	0.8803	0.08077	0.00107
298.15	0.9307	0.02248	0.0002
298.15	0.9635	0.00571	5e-05
298.15	1	0.0009	1e-05
313.15	0	4.066	0.40183
313.15	0.1484	1.47	0.11289
313.15	0.203	1.097	0.07724
313.15	0.4076	0.3879	0.01858
313.15	0.5334	0.3379	0.01493
313.15	0.6807	0.1755	0.00525
313.15	0.8185	0.08387	0.00122
313.15	0.8803	0.03802	0.00036
313.15	0.9307	0.01327	0.00012
313.15	0.9635	0.00425	4e-05
313.15	1	0.00066	1e-05
328.15	0	1.091	0.07813
328.15	0.1484	0.4846	0.02628
328.15	0.203	0.3935	0.01955
328.15	0.4076	0.1708	0.00545
328.15	0.5334	0.1477	0.00412
328.15	0.6807	0.08326	0.00135
328.15	0.8185	0.04222	0.00043
328.15	0.8803	0.02045	0.00019
328.15	0.9307	0.00818	7e-05
328.15	0.9635	0.0033	3e-05
328.15	1	0.00052	1e-05
343.15	0	0.3872	0.01985
343.15	0.1484	0.2001	0.00753
343.15	0.203	0.1654	0.00557
343.15	0.4076	0.08475	0.00175
343.15	0.5334	0.07431	0.00126
343.15	0.6807	0.04423	0.00056
343.15	0.8185	0.02422	0.00025
343.15	0.8803	0.01217	0.00012
343.15	0.9307	0.00533	5e-05
343.15	0.9635	0.00265	3e-05
343.15	1	0.00042	1e-05

System: water + 1-methyl-3-octylimidazolium chloride; phases: Liquid
Fixed: Pressure, kPa = 101
Property: Mass density, kg/m3 (Liquid); method: Vibrating tube method
Temperature, K	Mole fraction of water	Mass density, kg/m3	uncertainty
298.15	0	1008.82	2.66
298.15	0.1484	1009.61	2.33
298.15	0.203	1009.99	2.21
298.15	0.4076	1011.83	1.76
298.15	0.5334	1012.7	1.49
298.15	0.6807	1012.37	1.18
298.15	0.8185	1009.16	0.89
298.15	0.8803	1006.63	0.76
298.15	0.9307	1003.69	0.65
298.15	0.9635	1001.1	0.58
298.15	1	997.03	0.5
313.15	0	1000.2	2.63
313.15	0.1484	1000.98	2.31
313.15	0.203	1001.35	2.19
313.15	0.4076	1003.2	1.75
313.15	0.5334	1003.76	1.48
313.15	0.6807	1003.16	1.17
313.15	0.8185	1000.09	0.88
313.15	0.8803	997.6	0.75
313.15	0.9307	995.12	0.64
313.15	0.9635	993.58	0.58
313.15	1	992.2	0.5
328.15	0	991.67	2.61
328.15	0.1484	992.42	2.29
328.15	0.203	992.77	2.17
328.15	0.4076	994.4	1.73
328.15	0.5334	994.81	1.47
328.15	0.6807	993.98	1.16
328.15	0.8185	990.76	0.87
328.15	0.8803	988.16	0.74
328.15	0.9307	985.89	0.64
328.15	0.9635	985.06	0.57
328.15	1	985.68	0.5
343.15	0	983.24	2.59
343.15	0.1484	983.87	2.27
343.15	0.203	984.21	2.15
343.15	0.4076	985.6	1.72
343.15	0.5334	985.96	1.46
343.15	0.6807	984.8	1.15
343.15	0.8185	981.11	0.86
343.15	0.8803	978.39	0.74
343.15	0.9307	976.15	0.63
343.15	0.9635	975.71	0.57
343.15	1	977.75	0.5
