Measured thermophysical data. Solubility of Ethane in Diethylene Glycol
Source: J. Chem. Eng. Data, 2005, 10.1021/je050219z
Compound 1: diethylene glycol, C4H10O3, InChI=1S/C4H10O3/c5-1-3-7-4-2-6/h5-6H,1-4H2
Compound 2: ethane, C2H6, InChI=1S/C2H6/c1-2/h1-2H3

System: ethane + diethylene glycol; phases: Liquid mixture 1, Liquid mixture 2, Gas
Property: Vapor or sublimation pressure, kPa (Liquid mixture 1); method: Closed cell (Static) method
Temperature, K	Vapor or sublimation pressure, kPa	uncertainty
298.15	4220	50

System: ethane + diethylene glycol; phases: Liquid, Gas
Property: Mole fraction of ethane (Liquid); method: Phase equilibration
Temperature, K	Pressure, kPa	Mole fraction of ethane	uncertainty
298.15	30	0.000518	1.6e-05
298.15	116	0.00199	6e-05
298.15	312	0.00535	0.00016
298.15	544	0.00905	0.00027
298.15	890	0.0151	0.0005
298.15	1740	0.027	0.0008
298.15	2630	0.0389	0.0012
298.15	3750	0.051	0.0015
298.15	4220	0.0551	0.0017
298.15	5460	0.0561	0.0017
298.15	7720	0.0572	0.0017
298.15	9680	0.0597	0.0018
298.15	11840	0.0602	0.0018
298.15	14700	0.0609	0.0018
298.15	17460	0.0616	0.0018
298.15	20450	0.0611	0.0018
323.15	25	0.00035	1.1e-05
323.15	125	0.001627	4.9e-05
323.15	242	0.00313	9e-05
323.15	636	0.00819	0.00025
323.15	1620	0.0204	0.0006
323.15	3120	0.0351	0.0011
323.15	5540	0.0539	0.0016
323.15	6650	0.0564	0.0017
323.15	9150	0.0604	0.0018
323.15	11930	0.0637	0.0019
323.15	14590	0.0655	0.002
323.15	17050	0.0676	0.002
323.15	19580	0.0698	0.0021
348.15	39	0.000425	1.3e-05
348.15	126	0.00138	4e-05
348.15	167	0.00177	5e-05
348.15	263	0.00284	9e-05
348.15	672	0.00711	0.00021
348.15	1640	0.017	0.0005
348.15	2790	0.0272	0.0008
348.15	3450	0.0327	0.001
348.15	4490	0.0411	0.0012
348.15	6380	0.0518	0.0016
348.15	8160	0.058	0.0017
348.15	10580	0.0646	0.0019
348.15	12680	0.0674	0.002
348.15	14780	0.0706	0.0021
348.15	17370	0.0732	0.0022
348.15	20040	0.0769	0.0023
373.15	43	0.000409	1.2e-05
373.15	116	0.00108	3e-05
373.15	220	0.00212	6e-05
373.15	256	0.00242	7e-05
373.15	338	0.00314	9e-05
373.15	643	0.00589	0.00018
373.15	2170	0.019	0.0006
373.15	3790	0.0326	0.001
373.15	4130	0.0344	0.001
373.15	6500	0.0496	0.0015
373.15	8930	0.0591	0.0018
373.15	11650	0.0683	0.0021
373.15	14300	0.0741	0.0022
373.15	16980	0.0784	0.0024
373.15	19480	0.0825	0.0025
398.15	29	0.000266	8e-06
398.15	125	0.001065	3.2e-05
398.15	284	0.0025	8e-05
398.15	814	0.00682	0.00021
398.15	1380	0.0117	0.0004
398.15	2340	0.019	0.0006
398.15	3870	0.0302	0.0009
398.15	4450	0.0346	0.001
398.15	6570	0.0468	0.0014
398.15	8980	0.058	0.0017
398.15	11400	0.0689	0.0021
398.15	13970	0.077	0.0023
398.15	16350	0.0844	0.0025
398.15	18890	0.0877	0.0026
