Measured thermophysical data. Thermal properties of Ethyl Undecanoate and Ethyl Tridecanoate by Adiabatic Calorimetry
Source: J. Chem. Eng. Data, 2005, 10.1021/je050065n
Compound 1: ethyl undecanoate, C13H26O2, InChI=1S/C13H26O2/c1-3-5-6-7-8-9-10-11-12-13(14)15-4-2/h3-12H2,1-2H3, purity 99%
Compound 2: ethyl tridecanoate, C15H30O2, InChI=1S/C15H30O2/c1-3-5-6-7-8-9-10-11-12-13-14-15(16)17-4-2/h3-14H2,1-2H3, purity 99%

System: ethyl undecanoate; phases: Crystal, Liquid, Gas
Property: Molar enthalpy of transition or fusion, kJ/mol (Crystal); method: ADIACA:UFactor:8:FP
Molar enthalpy of transition or fusion, kJ/mol	uncertainty
36.1	0.3

System: ethyl undecanoate; phases: Crystal, Liquid, Gas
Property: Triple point temperature, K (Crystal); method: ADIACA:UFactor:8:FP
Triple point temperature, K	uncertainty
259.17	0.31

System: ethyl undecanoate; phases: Metastable crystal, Liquid, Air at 1 atmosphere
Property: Normal melting temperature, K (Metastable crystal); method: HCURVE:FP
Normal melting temperature, K	uncertainty
251.3	0.1

System: ethyl undecanoate; phases: Crystal
Fixed: Pressure, kPa = 101.325
Property: Molar heat capacity at constant pressure, J/K/mol (Crystal); method: VADIAC:UFactor:8
Temperature, K	Molar heat capacity at constant pressure, J/K/mol	uncertainty
111.58	173.66	2.99
113.84	175.94	3.01
116.71	178.91	3.03
119.57	181.88	3.06
122.42	185.27	3.08
128.15	190.48	3.12
131.02	194.47	3.16
133.86	198.69	3.19
136.66	198.56	3.19
139.44	201.64	3.21
142.19	204.69	3.24
144.9	207.94	3.26
147.59	211.29	3.29
150.26	213.75	3.31
152.89	217.3	3.34
155.51	220.97	3.37
158.1	224.09	3.39
160.67	229.12	3.43
163.21	233.25	3.47
165.73	236.15	3.49
168.24	230.57	3.44
170.74	232.17	3.46
173.23	234.76	3.48
175.7	236.78	3.49
178.15	239.4	3.52
180.59	242.15	3.54
183.01	244.19	3.55
185.42	245.75	3.57
187.81	248.17	3.59
190.18	251.89	3.62
192.55	256.43	3.65
194.9	257.21	3.66
197.24	257.78	3.66
199.56	262.12	3.7
201.88	266.33	3.73
204.18	269.86	3.76
206.47	268.45	3.75
208.75	272.25	3.78
211.01	276.09	3.81
213.26	279.59	3.84
215.5	279.55	3.84
217.73	283.48	3.87
219.95	287.5	3.9
222.16	290.42	3.92
224.36	293.74	3.95
226.54	297.69	3.98
228.71	302.05	4.02
230.87	307.08	4.06
233.01	312.1	4.1
235.14	318.94	4.15
237.26	327.12	4.22
239.36	337.32	4.3
241.44	349.15	4.4
243.49	366.65	4.54
245.51	390.29	4.73
247.49	425.06	5.01

System: ethyl undecanoate; phases: Liquid
Fixed: Pressure, kPa = 101.325
Property: Molar heat capacity at constant pressure, J/K/mol (Liquid); method: VADIAC:UFactor:4
Temperature, K	Molar heat capacity at constant pressure, J/K/mol	uncertainty
265.23	419.66	2.48
267.18	419.56	2.48
269.12	420.55	2.48
271.06	421.01	2.48
272.99	421.34	2.49
274.93	422.4	2.49
276.86	423.5	2.49
278.79	424.54	2.5
280.72	424.74	2.5
282.65	425.25	2.5
284.57	425.82	2.5
286.49	426.92	2.51
288.42	427.56	2.51
290.34	427.6	2.51
292.25	429.47	2.52
292.35	429.73	2.52
293.82	430.15	2.52
294.17	430.48	2.52
295.74	431.35	2.53
296.09	431.3	2.53
297.65	432.04	2.53
298	431.45	2.53
299.55	433.51	2.53
299.92	432.3	2.53
301.45	434.67	2.54
301.84	434.2	2.54
303.35	436.03	2.54
303.75	436.09	2.54
305.23	437.3	2.55
305.67	436.86	2.55
307.12	438.29	2.55
307.58	437.94	2.55
309	438.55	2.55
309.5	438.69	2.55
310.87	439.73	2.56
311.41	439.51	2.56
312.74	440.36	2.56
313.32	440.63	2.56
314.61	441.72	2.57
315.24	441.69	2.57
316.48	441.83	2.57
317.15	443.16	2.57
318.35	443.44	2.57
320.22	444.36	2.58
322.09	445.9	2.58
323.96	447.6	2.59
325.83	448.49	2.59
327.7	449.5	2.6
329.57	450.4	2.6
331.44	451.66	2.61
333.31	453.33	2.61
335.19	455.41	2.62
337.06	456.14	2.62
338.94	456.81	2.63
340.81	458.35	2.63
342.69	459.47	2.64
344.57	461	2.64
346.45	462.31	2.65
348.34	463.75	2.66
350.22	465.1	2.66
352.11	466.34	2.67
354	467.34	2.67
355.9	468.59	2.67
357.8	469.5	2.68
359.7	471.05	2.68
361.6	472.21	2.69
363.51	473.69	2.69
365.42	475.18	2.7

System: ethyl tridecanoate; phases: Crystal, Liquid, Gas
Property: Molar enthalpy of transition or fusion, kJ/mol (Crystal); method: ADIACA:UFactor:8:FP
Molar enthalpy of transition or fusion, kJ/mol	uncertainty
40.7	0.3

System: ethyl tridecanoate; phases: Crystal, Liquid, Gas
Property: Triple point temperature, K (Crystal); method: ADIACA:UFactor:8:FP
Triple point temperature, K	uncertainty
272.4	0.3

System: ethyl tridecanoate; phases: Crystal
Fixed: Pressure, kPa = 101.325
Property: Molar heat capacity at constant pressure, J/K/mol (Crystal); method: VADIAC:UFactor:8
Temperature, K	Molar heat capacity at constant pressure, J/K/mol	uncertainty
203.72	303.18	4.03
204.3	304.48	4.04
206.07	306.99	4.06
209.03	310.71	4.09
211.98	314.26	4.11
214.92	318.07	4.14
217.87	321.89	4.18
220.82	325.88	4.21
226.72	334	4.27
229.65	338.41	4.31
232.57	342.7	4.34
235.47	347.41	4.38
238.34	352.35	4.42
241.19	357.3	4.46
244.03	362.39	4.5
246.84	368.11	4.55
249.63	374.08	4.59
252.4	380.86	4.65
255.15	387.34	4.7
257.88	398.08	4.79
260.57	413.23	4.91

System: ethyl tridecanoate; phases: Liquid
Fixed: Pressure, kPa = 101.325
Property: Molar heat capacity at constant pressure, J/K/mol (Liquid); method: VADIAC:UFactor:4
Temperature, K	Molar heat capacity at constant pressure, J/K/mol	uncertainty
277.28	486.51	2.75
279.73	487.34	2.75
282.18	488.17	2.75
288.64	490.72	2.76
291.29	492.03	2.77
293.93	493	2.77
296.56	494.67	2.78
299.2	496	2.78
301.82	497.42	2.79
304.44	498.94	2.8
307.06	500.72	2.8
309.67	502.48	2.81
312.27	503.98	2.82
314.87	505.99	2.82
317.47	507.58	2.83
320.06	509.22	2.84
