Measured thermophysical data. Vapor Pressures of Hexanal, 2-Methylcyclohexanone, and 2-Cyclohexen-1-one
Source: J. Chem. Eng. Data, 2006, 10.1021/je0504358
Compound 1: hexanal, C6H12O, InChI=1S/C6H12O/c1-2-3-4-5-6-7/h6H,2-5H2,1H3, purity 99.98%
Compound 2: 2-cyclohexen-1-one, C6H8O, InChI=1S/C6H8O/c7-6-4-2-1-3-5-6/h2,4H,1,3,5H2, purity 99.98%
Compound 3: 2-methylcyclohexanone, C7H12O, InChI=1S/C7H12O/c1-6-4-2-3-5-7(6)8/h6H,2-5H2,1H3, purity 99.98%

System: hexanal; phases: Liquid, Gas
Property: Vapor or sublimation pressure, kPa (Liquid); method: Twin ebulliometer
Temperature, K	Vapor or sublimation pressure, kPa	uncertainty
322.27	5.184	0.015
325.43	6.001	0.016
327.84	6.711	0.016
330.22	7.51	0.016
333.56	8.713	0.016
338.89	10.99	0.016
342.12	12.59	0.016
347.22	15.555	0.017
353.44	19.795	0.017
360.11	25.445	0.018
366.28	31.908	0.019
371.95	38.875	0.021
377.98	47.562	0.022
402.17	99.716	0.028

System: 2-cyclohexen-1-one; phases: Liquid, Gas
Property: Vapor or sublimation pressure, kPa (Liquid); method: Twin ebulliometer
Temperature, K	Vapor or sublimation pressure, kPa	uncertainty
350.4	4.147	0.015
353.66	4.786	0.015
357.56	5.662	0.015
361.48	6.709	0.016
366.16	8.095	0.016
370.32	9.581	0.016
374.97	11.462	0.016
379	13.312	0.016
380.5	14.06	0.016
386.63	17.526	0.017
388.4	18.676	0.017
391.77	20.949	0.017
397.16	25.204	0.018
404.53	32.026	0.018
407.95	35.563	0.019
410.86	39.01	0.02
424.23	57.636	0.024
445	100.399	0.027

System: 2-methylcyclohexanone; phases: Liquid, Gas
Property: Vapor or sublimation pressure, kPa (Liquid); method: Twin ebulliometer
Temperature, K	Vapor or sublimation pressure, kPa	uncertainty
338.76	3.333	0.015
342.2	3.912	0.015
348.85	5.267	0.015
350.96	5.763	0.015
353.34	6.401	0.016
355.93	7.129	0.016
358.53	7.941	0.016
360.73	8.678	0.016
363.09	9.543	0.016
366.66	10.98	0.016
369.65	12.305	0.016
372.7	13.788	0.016
376.36	15.794	0.017
381.72	19.121	0.017
384.91	21.366	0.017
389.42	24.903	0.018
394.59	29.53	0.018
398.32	33.288	0.019
399.98	35.05	0.019
408.17	45.028	0.02
411.64	49.985	0.022
414	53.525	0.023
418.28	60.46	0.023
436.94	99.707	0.027
