Measured thermophysical data. Liquid-Liquid Equilibria for Ternary Mixtures (an Ionic Liquid + Benzene +Heptane or Hexadecane) at T ) 298.2 K and Atmospheric Pressure
Source: J. Chem. Eng. Data, 2006, 10.1021/je050494l
Compound 1: 1-ethyl-3-methylimidazolium octyl sulfate, C14H28N2O4S, InChI=1S/C8H18O4S.C6H11N2/c1-2-3-4-5-6-7-8-12-13(9,10)11;1-3-8-5-4-7(2)6-8/h2-8H2,1H3,(H,9,10,11);4-6H,3H2,1-2H3/q;+1/p-1
Compound 2: 1-methyl-3-octylimidazolium 2-(2-methoxyethoxy)ethyl sulfate, C17H34N2O6S, InChI=1S/C12H23N2.C5H12O6S/c1-3-4-5-6-7-8-9-14-11-10-13(2)12-14;1-9-2-3-10-4-5-11-12(6,7)8/h10-12H,3-9H2,1-2H3;2-5H2,1H3,(H,6,7,8)/q+1;/p-1
Compound 3: heptane, C7H16, InChI=1S/C7H16/c1-3-5-7-6-4-2/h3-7H2,1-2H3
Compound 4: hexadecane, C16H34, InChI=1S/C16H34/c1-3-5-7-9-11-13-15-16-14-12-10-8-6-4-2/h3-16H2,1-2H3
Compound 5: benzene, C6H6, InChI=1S/C6H6/c1-2-4-6-5-3-1/h1-6H

System: 1-ethyl-3-methylimidazolium octyl sulfate; phases: Liquid
Property: Refractive index (Na D-line) (Liquid); method: Standard Abbe refractometry
Temperature, K	Pressure, kPa	Refractive index (Na D-line)	uncertainty
298.2	101.325	1.471	0.0006

System: 1-methyl-3-octylimidazolium 2-(2-methoxyethoxy)ethyl sulfate; phases: Liquid
Property: Refractive index (Na D-line) (Liquid); method: ABBE:UFactor:2
Temperature, K	Pressure, kPa	Refractive index (Na D-line)	uncertainty
298.2	101.325	1.466	0.0009

System: heptane; phases: Liquid
Property: Refractive index (Na D-line) (Liquid); method: ABBE:UFactor:2
Temperature, K	Pressure, kPa	Refractive index (Na D-line)	uncertainty
298.2	101.325	1.385	0.0009

System: hexadecane; phases: Liquid
Property: Refractive index (Na D-line) (Liquid); method: ABBE:UFactor:2
Temperature, K	Pressure, kPa	Refractive index (Na D-line)	uncertainty
298.2	101.325	1.4318	0.0009

System: benzene; phases: Liquid
Property: Refractive index (Na D-line) (Liquid); method: ABBE:UFactor:2
Temperature, K	Pressure, kPa	Refractive index (Na D-line)	uncertainty
298.2	101.325	1.4972	0.0009

System: benzene + heptane + 1-ethyl-3-methylimidazolium octyl sulfate; phases: Liquid mixture 1, Liquid mixture 2
Fixed: Temperature, K = 298.2
Fixed: Pressure, kPa = 101
Property: Mole fraction of benzene (Liquid mixture 1); method: Titration method
Mole fraction of 1-ethyl-3-methylimidazolium octyl sulfate	Mole fraction of benzene	uncertainty
0.0001	0.5103	0.0183
0.0001	0.6187	0.0161
0.0003	0.9997	0.0003
0.001	0.231	0.0178
0.0011	0.8127	0.0132
0.0018	0	0.0001
0.0587	0.8852	0.0895
0.1196	0.8804	0.0615
0.1335	0.8106	0.0617
0.2468	0.6757	0.0208
0.86	0	0.0001

System: benzene + heptane + 1-ethyl-3-methylimidazolium octyl sulfate; phases: Liquid mixture 1, Liquid mixture 2
Fixed: Pressure, kPa = 101
Fixed: Temperature, K = 298.2
Property: Mole fraction of heptane (Liquid mixture 1); method: Index of refraction calibration data
Property: Mole fraction of heptane (Liquid mixture 2); method: Index of refraction calibration data
Property: Mole fraction of benzene (Liquid mixture 2); method: Index of refraction calibration data
Mole fraction of benzene	Mole fraction of heptane	uncertainty	Mole fraction of heptane	uncertainty	Mole fraction of benzene	uncertainty
0.841	0.1585	0.017	0.0898	0.012	0.6321	
0.6766	0.3227	0.017	0.1026	0.012	0.4368	
0.4531	0.546	0.017	0.1191	0.0121	0.2577	
0.2737	0.7252	0.017	0.1316	0.0121	0.1344	

System: benzene + hexadecane + 1-ethyl-3-methylimidazolium octyl sulfate; phases: Liquid mixture 1, Liquid mixture 2
Fixed: Temperature, K = 298.2
Fixed: Pressure, kPa = 101
Property: Mole fraction of benzene (Liquid mixture 1); method: Titration method
Mole fraction of 1-ethyl-3-methylimidazolium octyl sulfate	Mole fraction of benzene	uncertainty
0.0004	0.5288	0.018
0.0005	0.786	0.0134
0.0009	0.4971	0.0186
0.001	0.2851	0.015
0.0016	0.9984	0.0016
0.0037	0	0.0001
0.1488	0.8511	0.0544
0.1998	0.7831	0.0206
0.3739	0.5586	0.0228
0.5835	0.3097	0.0199
0.7452	0.15	0.0155
0.9944	0	0.0001

System: benzene + hexadecane + 1-ethyl-3-methylimidazolium octyl sulfate; phases: Liquid mixture 1, Liquid mixture 2
Fixed: Temperature, K = 298.2
Fixed: Pressure, kPa = 101
Property: Mole fraction of hexadecane (Liquid mixture 1); method: Index of refraction calibration data
Property: Mole fraction of hexadecane (Liquid mixture 2); method: Index of refraction calibration data
Property: Mole fraction of benzene (Liquid mixture 2); method: Index of refraction calibration data
Mole fraction of benzene	Mole fraction of hexadecane	uncertainty	Mole fraction of hexadecane	uncertainty	Mole fraction of benzene	uncertainty
0.3525	0.6458	0.017	0.0972	0.0121	0.3886	
0.4439	0.5545	0.017	0.0811	0.0122	0.4778	
0.216	0.782	0.017	0.1119	0.0121	0.2458	
0.5416	0.4571	0.0169	0.0565	0.0123	0.6125	
0.6326	0.3663	0.017	0.0231	0.0123	0.7588	

System: benzene + heptane + 1-methyl-3-octylimidazolium 2-(2-methoxyethoxy)ethyl sulfate; phases: Liquid mixture 1, Liquid mixture 2
Fixed: Temperature, K = 298.2
Fixed: Pressure, kPa = 101
Property: Mole fraction of benzene (Liquid mixture 1); method: Titration method
Mole fraction of 1-methyl-3-octylimidazolium 2-(2-methoxyethoxy)ethyl sulfate	Mole fraction of benzene	uncertainty
0.0004	0.4618	0.019
0.0006	0.7707	0.0142
0.0008	0.8011	0.014
0.0018	0	0.0001
0.002	0.998	0.002
0.0305	0.9695	0.017
0.1921	0.7902	0.0189
0.352	0.612	0.021
0.5816	0.359	0.021
0.7739	0.1212	0.0188
0.8909	0	0.0001

System: benzene + heptane + 1-methyl-3-octylimidazolium 2-(2-methoxyethoxy)ethyl sulfate; phases: Liquid mixture 1, Liquid mixture 2
Fixed: Pressure, kPa = 101
Fixed: Temperature, K = 298.2
Property: Mole fraction of heptane (Liquid mixture 1); method: Index of refraction calibration data
Property: Mole fraction of heptane (Liquid mixture 2); method: Index of refraction calibration data
Property: Mole fraction of benzene (Liquid mixture 2); method: Index of refraction calibration data
Mole fraction of benzene	Mole fraction of heptane	uncertainty	Mole fraction of heptane	uncertainty	Mole fraction of benzene	uncertainty
0.325	0.675	0.017	0.1093	0.0121	0.033	
0.4374	0.5626	0.017	0.1012	0.0121	0.0915	
0.5785	0.4214	0.017	0.0883	0.0121	0.1854	
0.7241	0.2758	0.017	0.069	0.0121	0.3256	

System: benzene + hexadecane + 1-methyl-3-octylimidazolium 2-(2-methoxyethoxy)ethyl sulfate; phases: Liquid mixture 1, Liquid mixture 2
Fixed: Temperature, K = 298.2
Fixed: Pressure, kPa = 101
Property: Mole fraction of benzene (Liquid mixture 1); method: Titration method
Mole fraction of 1-methyl-3-octylimidazolium 2-(2-methoxyethoxy)ethyl sulfate	Mole fraction of benzene	uncertainty
0.0002	0.3119	0.0154
0.0002	0.4867	0.0185
0.0005	0.9447	0.0121
0.0007	0.8316	0.0132
0.001	0.8372	0.0134
0.002	0	0.0001
0.0342	0.9658	0.0342
0.0936	0.8511	0.022
0.1557	0.7831	0.0179
0.3903	0.5586	0.0211
0.626	0.3097	0.019
0.9526	0	0.0001

System: benzene + hexadecane + 1-methyl-3-octylimidazolium 2-(2-methoxyethoxy)ethyl sulfate; phases: Liquid mixture 1, Liquid mixture 2
Fixed: Temperature, K = 298.2
Fixed: Pressure, kPa = 101
Property: Mole fraction of hexadecane (Liquid mixture 1); method: Index of refraction calibration data
Property: Mole fraction of hexadecane (Liquid mixture 2); method: Index of refraction calibration data
Property: Mole fraction of benzene (Liquid mixture 2); method: Index of refraction calibration data
Mole fraction of benzene	Mole fraction of hexadecane	uncertainty	Mole fraction of hexadecane	uncertainty	Mole fraction of benzene	uncertainty
0.7029	0.2946	0.017	0.0421	0.012	0.5798	
0.5521	0.446	0.017	0.0505	0.012	0.4371	
0.3929	0.6057	0.017	0.0543	0.012	0.3194	
0.2187	0.7807	0.017	0.0547	0.012	0.1906	
