Measured thermophysical data. Density and Viscosity Correlation for Several Common Fragrance and Flavor Esters
Source: J. Chem. Eng. Data, 2005, 10.1021/je050001c
Compound 1: ethyl methanoate, C3H6O2, InChI=1S/C3H6O2/c1-2-5-3-4/h3H,2H2,1H3
Compound 2: (Z)-3-hexenyl formate, C7H12O2, InChI=1S/C7H12O2/c1-2-3-4-5-6-9-7-8/h3-4,7H,2,5-6H2,1H3/b4-3-
Compound 3: ethyl acetate, C4H8O2, InChI=1S/C4H8O2/c1-3-6-4(2)5/h3H2,1-2H3
Compound 4: butyl ethanoate, C6H12O2, InChI=1S/C6H12O2/c1-3-4-5-8-6(2)7/h3-5H2,1-2H3
Compound 5: 3-methylbutyl ethanoate, C7H14O2, InChI=1S/C7H14O2/c1-6(2)4-5-9-7(3)8/h6H,4-5H2,1-3H3
Compound 6: hexyl ethanoate, C8H16O2, InChI=1S/C8H16O2/c1-3-4-5-6-7-10-8(2)9/h3-7H2,1-2H3
Compound 7: (E)-2-hexenyl acetate, C8H14O2, InChI=1S/C8H14O2/c1-3-4-5-6-7-10-8(2)9/h5-6H,3-4,7H2,1-2H3/b6-5+
Compound 8: (Z)-3-hexenyl acetate, C8H14O2, InChI=1S/C8H14O2/c1-3-4-5-6-7-10-8(2)9/h4-5H,3,6-7H2,1-2H3/b5-4-
Compound 9: ethyl propanoate, C5H10O2, InChI=1S/C5H10O2/c1-3-5(6)7-4-2/h3-4H2,1-2H3
Compound 10: ethyl butanoate, C6H12O2, InChI=1S/C6H12O2/c1-3-5-6(7)8-4-2/h3-5H2,1-2H3
Compound 11: butyl butanoate, C8H16O2, InChI=1S/C8H16O2/c1-3-5-7-10-8(9)6-4-2/h3-7H2,1-2H3
Compound 12: 3-methylbutyl butanoate, C9H18O2, InChI=1S/C9H18O2/c1-4-5-9(10)11-7-6-8(2)3/h8H,4-7H2,1-3H3
Compound 13: hexyl butanoate, C10H20O2, InChI=1S/C10H20O2/c1-3-5-6-7-9-12-10(11)8-4-2/h3-9H2,1-2H3
Compound 14: cis-3-hexenyl isobutyrate, C10H18O2, InChI=1S/C10H18O2/c1-4-5-6-7-8-12-10(11)9(2)3/h5-6,9H,4,7-8H2,1-3H3
Compound 15: ethyl 3-methylbutanoate, C7H14O2, InChI=1S/C7H14O2/c1-4-9-7(8)5-6(2)3/h6H,4-5H2,1-3H3
Compound 16: ethyl 2-methylbutanoate, C7H14O2, InChI=1S/C7H14O2/c1-4-6(3)7(8)9-5-2/h6H,4-5H2,1-3H3
Compound 17: ethyl hexanoate, C8H16O2, InChI=1S/C8H16O2/c1-3-5-6-7-8(9)10-4-2/h3-7H2,1-2H3

System: ethyl methanoate; phases: Liquid
Fixed: Pressure, kPa = 101.325
Property: Viscosity, Pa*s (Liquid); method: Falling or rolling sphere viscometry
Temperature, K	Viscosity, Pa*s	uncertainty
293.15	0.000402	9e-06
298.15	0.000381	9e-06
303.15	0.000362	9e-06
308.15	0.000345	9e-06
313.15	0.000329	9e-06
318.15	0.000314	9e-06
323.15	0.0003	9e-06

System: ethyl methanoate; phases: Liquid
Fixed: Pressure, kPa = 101.325
Property: Mass density, kg/m3 (Liquid); method: VIBTUB:UFactor:32
Temperature, K	Mass density, kg/m3	uncertainty
293.15	917.82	2.76
298.15	912.06	2.85
303.15	907.68	2.92
308.15	899.54	3.05
313.15	891.5	3.18
318.15	887.41	3.24
323.15	882.14	3.33

System: (Z)-3-hexenyl formate; phases: Liquid
Fixed: Pressure, kPa = 101.325
Property: Viscosity, Pa*s (Liquid); method: Falling or rolling sphere viscometry
Temperature, K	Viscosity, Pa*s	uncertainty
293.15	0.000599	1.2e-05
298.15	0.000561	1.2e-05
303.15	0.000527	1.1e-05
308.15	0.000496	1.1e-05
313.15	0.000469	1.1e-05
318.15	0.000443	1e-05
323.15	0.000421	1e-05
328.15	0.0004	1e-05
333.15	0.00038	1e-05
338.15	0.000363	1e-05
343.15	0.000346	1e-05

System: (Z)-3-hexenyl formate; phases: Liquid
Fixed: Pressure, kPa = 101.325
Property: Mass density, kg/m3 (Liquid); method: VIBTUB:UFactor:32
Temperature, K	Mass density, kg/m3	uncertainty
293.15	909.15	3.03
298.15	908.13	3.05
303.15	906.6	3.07
308.15	904.95	3.09
313.15	903.17	3.12
318.15	901.19	3.15
323.15	898.99	3.18
328.15	896.72	3.22
333.15	894.16	3.26
338.15	891.54	3.3
343.15	888.73	3.34

System: ethyl acetate; phases: Liquid
Fixed: Pressure, kPa = 101.325
Property: Viscosity, Pa*s (Liquid); method: Falling or rolling sphere viscometry
Temperature, K	Viscosity, Pa*s	uncertainty
293.15	0.000443	9e-06
298.15	0.000421	9e-06
303.15	0.000399	9e-06
308.15	0.000381	9e-06
313.15	0.000363	9e-06
318.15	0.000346	8e-06
323.15	0.00033	8e-06
328.15	0.000315	8e-06
333.15	0.000301	8e-06
338.15	0.000288	8e-06
343.15	0.000275	8e-06

System: ethyl acetate; phases: Liquid
Fixed: Pressure, kPa = 101.325
Property: Mass density, kg/m3 (Liquid); method: VIBTUB:UFactor:32
Temperature, K	Mass density, kg/m3	uncertainty
293.15	900.48	2.93
298.15	894.81	3.02
303.15	887.14	3.15
308.15	882.21	3.23
313.15	878.92	3.28
318.15	874.51	3.36
323.15	870.39	3.43
328.15	867.13	3.48
333.15	864.72	3.52
338.15	861.41	3.58
343.15	858.36	3.63

System: butyl ethanoate; phases: Liquid
Fixed: Pressure, kPa = 101.325
Property: Viscosity, Pa*s (Liquid); method: Falling or rolling sphere viscometry
Temperature, K	Viscosity, Pa*s	uncertainty
293.15	0.000732	1e-05
298.15	0.000677	1e-05
303.15	0.000628	9e-06
308.15	0.000585	9e-06
313.15	0.000546	9e-06
318.15	0.000512	9e-06
323.15	0.000481	9e-06
328.15	0.000453	9e-06
333.15	0.000428	9e-06
338.15	0.000405	9e-06
343.15	0.000384	9e-06

System: butyl ethanoate; phases: Liquid
Fixed: Pressure, kPa = 101.325
Property: Mass density, kg/m3 (Liquid); method: VIBTUB:UFactor:32
Temperature, K	Mass density, kg/m3	uncertainty
293.15	881.04	5.87
298.15	876.45	5.89
303.15	871.3	5.91
308.15	866.25	5.94
313.15	861.84	5.96
318.15	857.32	5.98
323.15	854.61	6
328.15	850.78	6.02
333.15	847.92	6.03
338.15	844.39	6.05
343.15	841.77	6.07

System: 3-methylbutyl ethanoate; phases: Liquid
Fixed: Pressure, kPa = 101.325
Property: Viscosity, Pa*s (Liquid); method: Falling or rolling sphere viscometry
Temperature, K	Viscosity, Pa*s	uncertainty
293.15	0.000888	1.2e-05
298.15	0.000827	1.1e-05
303.15	0.000773	1.1e-05
308.15	0.000724	1.1e-05
313.15	0.000678	1e-05
318.15	0.000638	1e-05
323.15	0.000601	1e-05
328.15	0.000567	1e-05
333.15	0.000536	9e-06
338.15	0.000507	9e-06
343.15	0.000481	9e-06

System: 3-methylbutyl ethanoate; phases: Liquid
Fixed: Pressure, kPa = 101.325
Property: Mass density, kg/m3 (Liquid); method: VIBTUB:UFactor:32
Temperature, K	Mass density, kg/m3	uncertainty
293.15	878.24	12.23
298.15	876.01	12.24
303.15	875.94	12.24
308.15	873.1	12.24
313.15	870.15	12.25
318.15	867.32	12.26
323.15	864.31	12.27
328.15	860.14	12.28
333.15	857.98	12.28
338.15	854.05	12.29
343.15	851.07	12.3

System: hexyl ethanoate; phases: Liquid
Fixed: Pressure, kPa = 101.325
Property: Viscosity, Pa*s (Liquid); method: Falling or rolling sphere viscometry
Temperature, K	Viscosity, Pa*s	uncertainty
293.15	0.001118	1.3e-05
298.15	0.001036	1.2e-05
303.15	0.000962	1.2e-05
308.15	0.000895	1.1e-05
313.15	0.000836	1.1e-05
318.15	0.000782	1.1e-05
323.15	0.000733	1e-05
328.15	0.000689	1e-05
333.15	0.000649	1e-05
338.15	0.000612	1e-05
343.15	0.000579	1e-05

System: hexyl ethanoate; phases: Liquid
Fixed: Pressure, kPa = 101.325
Property: Mass density, kg/m3 (Liquid); method: VIBTUB:UFactor:32
Temperature, K	Mass density, kg/m3	uncertainty
293.15	872.9	3.4
298.15	867.3	3.49
303.15	862.6	3.57
308.15	858.33	3.64
313.15	854.9	3.7
318.15	848.84	3.8
323.15	844.21	3.88
328.15	839.64	3.95
333.15	835.15	4.03
338.15	831.4	4.09
343.15	826.3	4.18

System: (E)-2-hexenyl acetate; phases: Liquid
Fixed: Pressure, kPa = 101.325
Property: Viscosity, Pa*s (Liquid); method: Falling or rolling sphere viscometry
Temperature, K	Viscosity, Pa*s	uncertainty
293.15	0.000901	1.2e-05
298.15	0.000831	1.1e-05
303.15	0.00077	1.1e-05
308.15	0.000715	1.1e-05
313.15	0.000666	1e-05
318.15	0.000622	1e-05
323.15	0.000582	1e-05
328.15	0.000547	1e-05
333.15	0.000514	9e-06

System: (E)-2-hexenyl acetate; phases: Liquid
Fixed: Pressure, kPa = 101.325
Property: Mass density, kg/m3 (Liquid); method: VIBTUB:UFactor:32
Temperature, K	Mass density, kg/m3	uncertainty
293.15	897.84	3
298.15	894.32	3.06
303.15	891.78	3.1
308.15	888.46	3.16
313.15	884.35	3.23
318.15	880.19	3.29
323.15	876.14	3.36
328.15	872.81	3.42
333.15	867.49	3.51

System: (Z)-3-hexenyl acetate; phases: Liquid
Fixed: Pressure, kPa = 101.325
Property: Viscosity, Pa*s (Liquid); method: Falling or rolling sphere viscometry
Temperature, K	Viscosity, Pa*s	uncertainty
293.15	0.000893	1.1e-05
298.15	0.000823	1e-05
303.15	0.000763	1e-05
308.15	0.000708	1e-05
313.15	0.00066	1e-05
318.15	0.000616	9e-06
323.15	0.000576	9e-06
328.15	0.000542	9e-06
333.15	0.000509	9e-06

System: (Z)-3-hexenyl acetate; phases: Liquid
Fixed: Pressure, kPa = 101.325
Property: Mass density, kg/m3 (Liquid); method: VIBTUB:UFactor:32
Temperature, K	Mass density, kg/m3	uncertainty
293.15	900.82	2.92
298.15	897.14	2.98
303.15	893.14	3.05
308.15	890.28	3.1
313.15	886.19	3.17
318.15	881.43	3.25
323.15	877.89	3.3
328.15	875.21	3.35
333.15	871.43	3.41

System: ethyl propanoate; phases: Liquid
Fixed: Pressure, kPa = 101.325
Property: Viscosity, Pa*s (Liquid); method: Falling or rolling sphere viscometry
Temperature, K	Viscosity, Pa*s	uncertainty
293.15	0.000523	9e-06
298.15	0.000492	9e-06
303.15	0.000464	9e-06
308.15	0.000441	9e-06
313.15	0.000418	9e-06
318.15	0.000398	9e-06
323.15	0.000378	9e-06
328.15	0.00036	9e-06
333.15	0.000344	8e-06
338.15	0.000329	8e-06
343.15	0.000315	8e-06

System: ethyl propanoate; phases: Liquid
Fixed: Pressure, kPa = 101.325
Property: Mass density, kg/m3 (Liquid); method: VIBTUB:UFactor:32
Temperature, K	Mass density, kg/m3	uncertainty
293.15	891.62	6.39
298.15	884.1	6.42
303.15	879.31	6.44
308.15	874.12	6.46
313.15	870.61	6.47
318.15	867.34	6.49
323.15	864.33	6.5
328.15	860.89	6.52
333.15	858.14	6.53
338.15	856.81	6.54
343.15	853.48	6.55

System: ethyl butanoate; phases: Liquid
Fixed: Pressure, kPa = 101.325
Property: Viscosity, Pa*s (Liquid); method: Falling or rolling sphere viscometry
Temperature, K	Viscosity, Pa*s	uncertainty
293.15	0.000662	1e-05
298.15	0.00062	9e-06
303.15	0.000583	9e-06
308.15	0.000549	9e-06
313.15	0.000519	9e-06
318.15	0.000491	9e-06
323.15	0.000465	9e-06
328.15	0.000442	9e-06
333.15	0.00042	9e-06
338.15	0.0004	9e-06
343.15	0.000382	9e-06

System: ethyl butanoate; phases: Liquid
Fixed: Pressure, kPa = 101.325
Property: Mass density, kg/m3 (Liquid); method: VIBTUB:UFactor:32
Temperature, K	Mass density, kg/m3	uncertainty
293.15	876.91	6.44
298.15	874.42	6.45
303.15	870.13	6.47
308.15	866.21	6.49
313.15	864.31	6.5
318.15	861.32	6.51
323.15	858.43	6.53
328.15	854.44	6.54
333.15	853.89	6.55
338.15	851.32	6.56
343.15	850.04	6.57

System: butyl butanoate; phases: Liquid
Fixed: Pressure, kPa = 101.325
Property: Viscosity, Pa*s (Liquid); method: Falling or rolling sphere viscometry
Temperature, K	Viscosity, Pa*s	uncertainty
293.15	0.000948	1.1e-05
298.15	0.000876	1.1e-05
303.15	0.000812	1.1e-05
308.15	0.000755	1e-05
313.15	0.000705	1e-05
318.15	0.000659	1e-05
323.15	0.000618	1e-05
328.15	0.000581	9e-06
333.15	0.000548	9e-06
338.15	0.000517	9e-06
343.15	0.000486	9e-06

System: butyl butanoate; phases: Liquid
Fixed: Pressure, kPa = 101.325
Property: Mass density, kg/m3 (Liquid); method: VIBTUB:UFactor:32
Temperature, K	Mass density, kg/m3	uncertainty
293.15	872.45	3.39
298.15	869.14	3.45
303.15	866.1	3.5
308.15	862.19	3.57
313.15	858.94	3.62
318.15	854.31	3.7
323.15	851.47	3.75
328.15	848.01	3.8
333.15	846.22	3.84
338.15	844.03	3.87
343.15	841.47	3.92

System: 3-methylbutyl butanoate; phases: Liquid
Fixed: Pressure, kPa = 101.325
Property: Viscosity, Pa*s (Liquid); method: Falling or rolling sphere viscometry
Temperature, K	Viscosity, Pa*s	uncertainty
293.15	0.001044	1.4e-05
298.15	0.000967	1.3e-05
303.15	0.000897	1.3e-05
308.15	0.000836	1.2e-05
313.15	0.000781	1.2e-05
318.15	0.000731	1.1e-05
323.15	0.000686	1.1e-05
328.15	0.000646	1.1e-05
333.15	0.000609	1e-05
338.15	0.000575	1e-05
343.15	0.000545	1e-05

System: 3-methylbutyl butanoate; phases: Liquid
Fixed: Pressure, kPa = 101.325
Property: Mass density, kg/m3 (Liquid); method: VIBTUB:UFactor:32
Temperature, K	Mass density, kg/m3	uncertainty
293.15	866.13	5.61
298.15	862.04	5.63
303.15	859.14	5.65
308.15	857.08	5.66
313.15	853.42	5.68
318.15	850.11	5.7
323.15	845.78	5.72
328.15	842.31	5.74
333.15	840.73	5.75
338.15	835.45	5.78
343.15	832.76	5.8

System: hexyl butanoate; phases: Liquid
Fixed: Pressure, kPa = 101.325
Property: Viscosity, Pa*s (Liquid); method: SPHERE:UFactor:4
Temperature, K	Viscosity, Pa*s	uncertainty
293.15	0.001351	4.4e-05
298.15	0.001234	4e-05
303.15	0.001131	3.7e-05
308.15	0.001014	3.3e-05
313.15	0.000961	3.1e-05
318.15	0.000889	2.9e-05
323.15	0.000825	2.7e-05
328.15	0.000768	2.5e-05
333.15	0.000716	2.3e-05
338.15	0.000669	2.2e-05
343.15	0.000627	2e-05

System: hexyl butanoate; phases: Liquid
Fixed: Pressure, kPa = 101.325
Property: Mass density, kg/m3 (Liquid); method: VIBTUB:UFactor:32
Temperature, K	Mass density, kg/m3	uncertainty
293.15	860.73	3.64
298.15	851	3.8
303.15	846.52	3.87
308.15	841.51	3.95
313.15	837.46	4.02
318.15	834.65	4.07
323.15	830.78	4.13
328.15	828.19	4.17
333.15	826.77	4.2
338.15	823.81	4.25
343.15	820.76	4.3

System: cis-3-hexenyl isobutyrate; phases: Liquid
Fixed: Pressure, kPa = 101.325
Property: Viscosity, Pa*s (Liquid); method: Falling or rolling sphere viscometry
Temperature, K	Viscosity, Pa*s	uncertainty
293.15	0.001024	2.3e-05
298.15	0.000941	2.1e-05
303.15	0.000868	2e-05
308.15	0.000804	1.8e-05
313.15	0.000741	1.7e-05
318.15	0.00069	1.6e-05
323.15	0.00065	1.6e-05
328.15	0.000606	1.5e-05
333.15	0.00056	1.4e-05
338.15	0.000535	1.4e-05
343.15	0.000503	1.3e-05

System: cis-3-hexenyl isobutyrate; phases: Liquid
Fixed: Pressure, kPa = 101.325
Property: Mass density, kg/m3 (Liquid); method: VIBTUB:UFactor:32
Temperature, K	Mass density, kg/m3	uncertainty
293.15	885.08	3.62
298.15	878.12	3.72
303.15	873.61	3.78
308.15	870.34	3.83
313.15	865.22	3.9
318.15	861.49	3.95
323.15	857.38	4.01
328.15	852.44	4.08
333.15	848.44	4.14
338.15	845.31	4.19
343.15	840.09	4.27

System: ethyl 3-methylbutanoate; phases: Liquid
Fixed: Pressure, kPa = 101.325
Property: Viscosity, Pa*s (Liquid); method: Falling or rolling sphere viscometry
Temperature, K	Viscosity, Pa*s	uncertainty
293.15	0.000805	1.1e-05
298.15	0.000752	1.1e-05
303.15	0.000703	1.1e-05
308.15	0.000659	1e-05
313.15	0.00062	1e-05
318.15	0.000581	1e-05
323.15	0.000544	1e-05
328.15	0.000516	9e-06
333.15	0.000485	9e-06
338.15	0.000457	9e-06
343.15	0.000431	9e-06

System: ethyl 3-methylbutanoate; phases: Liquid
Fixed: Pressure, kPa = 101.325
Property: Mass density, kg/m3 (Liquid); method: VIBTUB:UFactor:32
Temperature, K	Mass density, kg/m3	uncertainty
293.15	866.23	6.51
298.15	864.01	6.52
303.15	860.12	6.53
308.15	855.98	6.55
313.15	851.79	6.57
318.15	847.39	6.59
323.15	846.24	6.6
328.15	842.35	6.62
333.15	840.07	6.63
338.15	836.31	6.65
343.15	833.62	6.66

System: ethyl 2-methylbutanoate; phases: Liquid
Fixed: Pressure, kPa = 101.325
Property: Viscosity, Pa*s (Liquid); method: Falling or rolling sphere viscometry
Temperature, K	Viscosity, Pa*s	uncertainty
293.15	0.000831	1.1e-05
298.15	0.000774	1e-05
303.15	0.000723	1e-05
308.15	0.000677	1e-05
313.15	0.000635	1e-05
318.15	0.000597	1e-05
323.15	0.000563	9e-06
328.15	0.000532	9e-06
333.15	0.000503	9e-06
338.15	0.000476	9e-06
343.15	0.000452	9e-06

System: ethyl 2-methylbutanoate; phases: Liquid
Fixed: Pressure, kPa = 101.325
Property: Mass density, kg/m3 (Liquid); method: VIBTUB:UFactor:32
Temperature, K	Mass density, kg/m3	uncertainty
293.15	869.73	7.42
298.15	865	7.43
303.15	861.48	7.45
308.15	857.88	7.46
313.15	853.41	7.48
318.15	849.32	7.5
323.15	846.74	7.51
328.15	841.59	7.53
333.15	838.41	7.55
338.15	835.48	7.56
343.15	831.46	7.58

System: ethyl hexanoate; phases: Liquid
Fixed: Pressure, kPa = 101.325
Property: Viscosity, Pa*s (Liquid); method: Falling or rolling sphere viscometry
Temperature, K	Viscosity, Pa*s	uncertainty
293.15	0.000816	1.1e-05
298.15	0.000757	1.1e-05
303.15	0.000704	1.1e-05
308.15	0.000656	1e-05
313.15	0.000614	1e-05
318.15	0.000576	1e-05
323.15	0.000541	1e-05
328.15	0.000509	9e-06
333.15	0.000482	9e-06
338.15	0.000456	9e-06
343.15	0.000429	9e-06

System: ethyl hexanoate; phases: Liquid
Fixed: Pressure, kPa = 101.325
Property: Mass density, kg/m3 (Liquid); method: VIBTUB:UFactor:32
Temperature, K	Mass density, kg/m3	uncertainty
293.15	879.01	3.32
298.15	872.53	3.43
303.15	869.31	3.48
308.15	866.74	3.52
313.15	863.28	3.58
318.15	860.19	3.63
323.15	856.42	3.7
328.15	851.93	3.77
333.15	847.88	3.84
338.15	845.32	3.88
343.15	841.46	3.95
