Measured thermophysical data. Liquid-Liquid Coexistence Curves for Binary Systems: Methanol + Cyclohexane and + Several Isomers of Hexane
Source: J. Chem. Eng. Data, 2006, 10.1021/je0505321
Compound 1: methanol, CH4O, InChI=1S/CH4O/c1-2/h2H,1H3
Compound 2: hexane, C6H14, InChI=1S/C6H14/c1-3-5-6-4-2/h3-6H2,1-2H3
Compound 3: 2-methylpentane, C6H14, InChI=1S/C6H14/c1-4-5-6(2)3/h6H,4-5H2,1-3H3
Compound 4: 2,2-dimethylbutane, C6H14, InChI=1S/C6H14/c1-5-6(2,3)4/h5H2,1-4H3
Compound 5: 2,3-dimethylbutane, C6H14, InChI=1S/C6H14/c1-5(2)6(3)4/h5-6H,1-4H3
Compound 6: cyclohexane, C6H12, InChI=1S/C6H12/c1-2-4-6-5-3-1/h1-6H2
Compound 7: 3-methylpentane, C6H14, InChI=1S/C6H14/c1-4-6(3)5-2/h6H,4-5H2,1-3H3

System: methanol + hexane; phases: Liquid mixture 1, Liquid mixture 2
Fixed: Pressure, kPa = 100
Property: Liquid-liquid equilibrium temperature, K (Liquid mixture 1); method: VISOBS:UFactor:12
Mole fraction of methanol	Liquid-liquid equilibrium temperature, K	uncertainty
0.1403	294.39	2.4
0.2119	305.03	2.4
0.3009	312.03	2.4
0.3539	312.15	2.4
0.3947	314.86	2.4
0.4091	314.39	2.4
0.4355	313.09	2.4
0.4509	311.83	2.4
0.4907	313.41	2.4
0.4941	314.41	2.4
0.5498	310.96	2.4
0.5532	311.05	2.4
0.6545	310.27	2.4
0.7545	305.63	2.4

System: methanol + 2-methylpentane; phases: Liquid mixture 1, Liquid mixture 2
Fixed: Pressure, kPa = 100
Property: Liquid-liquid equilibrium temperature, K (Liquid mixture 1); method: VISOBS:UFactor:12
Mole fraction of methanol	Liquid-liquid equilibrium temperature, K	uncertainty
0.1516	291.88	2.4
0.2554	300.87	2.4
0.2852	303.57	2.4
0.3613	302.45	2.4
0.4052	304.06	2.4
0.4946	305.76	2.4
0.5442	303.69	2.4
0.5993	302.99	2.4
0.6462	302.89	2.4
0.7042	300.86	2.4
0.7995	292.46	2.4

System: methanol + 2,2-dimethylbutane; phases: Liquid mixture 1, Liquid mixture 2
Fixed: Pressure, kPa = 100
Property: Liquid-liquid equilibrium temperature, K (Liquid mixture 1); method: VISOBS:UFactor:12
Mole fraction of methanol	Liquid-liquid equilibrium temperature, K	uncertainty
0.1516	289.49	2.4
0.2372	290.26	2.4
0.3128	292.07	2.4
0.3536	295.8	2.4
0.3967	293.04	2.4
0.401	291.37	2.4
0.4429	292.81	2.4
0.5046	291.76	2.4
0.5487	291.26	2.4
0.5982	290.98	2.4
0.6502	289.23	2.4
0.8036	274.7	2.4

System: methanol + 2,3-dimethylbutane; phases: Liquid mixture 1, Liquid mixture 2
Fixed: Pressure, kPa = 100
Property: Liquid-liquid equilibrium temperature, K (Liquid mixture 1); method: VISOBS:UFactor:12
Mole fraction of methanol	Liquid-liquid equilibrium temperature, K	uncertainty
0.1552	296.68	2.4
0.2529	295.43	2.4
0.2905	298.42	2.4
0.347	298.74	2.4
0.403	298.87	2.4
0.4494	296.86	2.4
0.4988	298.89	2.4
0.5507	297.38	2.4
0.605	297.33	2.4
0.641	296.16	2.4
0.7015	294.54	2.4
0.8051	283.42	2.4

System: methanol + cyclohexane; phases: Liquid mixture 1, Liquid mixture 2
Fixed: Pressure, kPa = 100
Property: Liquid-liquid equilibrium temperature, K (Liquid mixture 1); method: VISOBS:UFactor:8
Mole fraction of methanol	Liquid-liquid equilibrium temperature, K	uncertainty
0.1471	308.36	1.6
0.2503	317.36	1.6
0.3018	319.24	1.6
0.3553	320.86	1.6
0.404	322.22	1.6
0.4578	321.53	1.6
0.5082	321.64	1.6
0.5582	321.36	1.6
0.6008	321.3	1.6
0.7015	319.09	1.6
0.8019	306.28	1.6

System: methanol + 3-methylpentane; phases: Liquid mixture 1, Liquid mixture 2
Fixed: Pressure, kPa = 100
Property: Liquid-liquid equilibrium temperature, K (Liquid mixture 1); method: VISOBS:UFactor:12
Mole fraction of methanol	Liquid-liquid equilibrium temperature, K	uncertainty
0.162	290.6	2.4
0.2492	303.24	2.4
0.2854	300.85	2.4
0.3451	305.35	2.4
0.3994	307.83	2.4
0.4344	305.04	2.4
0.493	305.38	2.4
0.5457	304.31	2.4
0.5943	304.07	2.4
0.6991	300.99	2.4
0.8001	291.46	2.4
