Measured thermophysical data. Density and Viscosity of Binary Mixtures of Ethyl-2-methylbutyrate and Ethyl Hexanoate with Methanol, Ethanol, and 1-Propanol at (293.15, 303.15, and 313.15) K
Source: J. Chem. Eng. Data, 2005, 10.1021/je0500633
Compound 1: ethanol, C2H6O, InChI=1S/C2H6O/c1-2-3/h3H,2H2,1H3, purity 99%
Compound 2: propan-1-ol, C3H8O, InChI=1S/C3H8O/c1-2-3-4/h4H,2-3H2,1H3, purity 99%
Compound 3: ethyl 2-methylbutanoate, C7H14O2, InChI=1S/C7H14O2/c1-4-6(3)7(8)9-5-2/h6H,4-5H2,1-3H3, purity 99%
Compound 4: ethyl hexanoate, C8H16O2, InChI=1S/C8H16O2/c1-3-5-6-7-8(9)10-4-2/h3-7H2,1-2H3, purity 99%
Compound 5: methanol, CH4O, InChI=1S/CH4O/c1-2/h2H,1H3, purity 99%

System: ethanol; phases: Liquid
Fixed: Pressure, kPa = 101.325
Property: Viscosity, Pa*s (Liquid); method: Falling or rolling sphere viscometry
Temperature, K	Viscosity, Pa*s	uncertainty
293.15	0.00116	1.1e-05
303.15	0.000968	9e-06
313.15	0.00081	8e-06

System: ethanol; phases: Liquid
Fixed: Pressure, kPa = 101.325
Property: Mass density, kg/m3 (Liquid); method: VIBTUB:UFactor:4
Temperature, K	Mass density, kg/m3	uncertainty
293.15	788.24	0.62
303.15	780.73	0.63
313.15	771.98	0.64

System: propan-1-ol; phases: Liquid
Fixed: Pressure, kPa = 101.325
Property: Viscosity, Pa*s (Liquid); method: Falling or rolling sphere viscometry
Temperature, K	Viscosity, Pa*s	uncertainty
293.15	0.002188	2.1e-05
303.15	0.001713	1.6e-05
313.15	0.001378	1.3e-05

System: propan-1-ol; phases: Liquid
Fixed: Pressure, kPa = 101.325
Property: Mass density, kg/m3 (Liquid); method: VIBTUB:UFactor:4
Temperature, K	Mass density, kg/m3	uncertainty
293.15	803.64	0.61
303.15	795.48	0.62
313.15	787.02	0.63

System: ethyl 2-methylbutanoate; phases: Liquid
Fixed: Pressure, kPa = 101.325
Property: Viscosity, Pa*s (Liquid); method: Falling or rolling sphere viscometry
Temperature, K	Viscosity, Pa*s	uncertainty
293.15	0.000831	8e-06
303.15	0.000723	7e-06
313.15	0.000635	6e-06

System: ethyl 2-methylbutanoate; phases: Liquid
Fixed: Pressure, kPa = 101.325
Property: Mass density, kg/m3 (Liquid); method: VIBTUB:UFactor:4
Temperature, K	Mass density, kg/m3	uncertainty
293.15	869.73	0.57
303.15	861.48	0.58
313.15	853.41	0.58

System: ethyl hexanoate; phases: Liquid
Fixed: Pressure, kPa = 101.325
Property: Viscosity, Pa*s (Liquid); method: Falling or rolling sphere viscometry
Temperature, K	Viscosity, Pa*s	uncertainty
293.15	0.000816	8e-06
303.15	0.000704	7e-06
313.15	0.000614	6e-06

System: ethyl hexanoate; phases: Liquid
Fixed: Pressure, kPa = 101.325
Property: Mass density, kg/m3 (Liquid); method: VIBTUB:UFactor:4
Temperature, K	Mass density, kg/m3	uncertainty
293.15	879.01	4.03
303.15	869.31	4.04
313.15	863.28	4.04

System: methanol; phases: Liquid
Fixed: Pressure, kPa = 101.325
Property: Viscosity, Pa*s (Liquid); method: Falling or rolling sphere viscometry
Temperature, K	Viscosity, Pa*s	uncertainty
293.15	0.000577	5e-06
303.15	0.000512	5e-06
313.15	0.000447	4e-06

System: methanol; phases: Liquid
Fixed: Pressure, kPa = 101.325
Property: Mass density, kg/m3 (Liquid); method: VIBTUB:UFactor:4
Temperature, K	Mass density, kg/m3	uncertainty
293.15	791.08	0.63
303.15	781.95	0.64
313.15	772.01	0.65

System: methanol + ethyl hexanoate; phases: Liquid
Fixed: Pressure, kPa = 101.325
Property: Viscosity, Pa*s (Liquid); method: Falling or rolling sphere viscometry
Temperature, K	Mole fraction of ethyl hexanoate	Viscosity, Pa*s	uncertainty
293.15	0	0.000577	5e-06
293.15	0.0902	0.000595	6e-06
293.15	0.2147	0.000622	6e-06
293.15	0.3046	0.000641	6e-06
293.15	0.4008	0.000663	6e-06
293.15	0.5031	0.000687	6e-06
293.15	0.6098	0.000713	7e-06
293.15	0.7106	0.000738	7e-06
293.15	0.8074	0.000763	7e-06
293.15	0.9105	0.000791	7e-06
293.15	1	0.000816	8e-06
303.15	0	0.000512	5e-06
303.15	0.0902	0.000527	5e-06
303.15	0.2147	0.000548	5e-06
303.15	0.3046	0.000564	5e-06
303.15	0.4008	0.000582	6e-06
303.15	0.5031	0.000601	6e-06
303.15	0.6098	0.000622	6e-06
303.15	0.7106	0.000642	6e-06
303.15	0.8074	0.000662	6e-06
303.15	0.9105	0.000684	6e-06
303.15	1	0.000704	7e-06
313.15	0	0.000447	4e-06
313.15	0.0902	0.00046	4e-06
313.15	0.2147	0.000479	5e-06
313.15	0.3046	0.000492	5e-06
313.15	0.4008	0.000508	5e-06
313.15	0.5031	0.000524	5e-06
313.15	0.6098	0.000543	5e-06
313.15	0.7106	0.00056	5e-06
313.15	0.8074	0.000578	5e-06
313.15	0.9105	0.000597	6e-06
313.15	1	0.000614	6e-06

System: methanol + ethyl hexanoate; phases: Liquid
Fixed: Pressure, kPa = 101.325
Property: Mass density, kg/m3 (Liquid); method: VIBTUB:UFactor:4
Temperature, K	Mole fraction of ethyl hexanoate	Mass density, kg/m3	uncertainty
293.15	0	791.08	0.63
293.15	0.0902	799.01	0.62
293.15	0.2147	809.96	0.62
293.15	0.3046	817.86	0.61
293.15	0.4008	826.32	0.61
293.15	0.5031	835.32	0.6
293.15	0.6098	844.7	0.59
293.15	0.7106	853.56	0.59
293.15	0.8074	862.07	0.58
293.15	0.9105	871.14	0.58
293.15	1	879.01	0.58
303.15	0	781.95	0.64
303.15	0.0902	789.83	0.63
303.15	0.2147	800.71	0.62
303.15	0.3046	808.56	0.62
303.15	0.4008	816.96	0.61
303.15	0.5031	825.9	0.6
303.15	0.6098	835.22	0.59
303.15	0.7106	844.03	0.59
303.15	0.8074	852.48	0.58
303.15	0.9105	861.49	0.58
303.15	1	869.31	0.57
313.15	0	772.01	0.65
313.15	0.0902	780.24	0.64
313.15	0.2147	791.61	0.63
313.15	0.3046	799.81	0.62
313.15	0.4008	808.59	0.61
313.15	0.5031	817.93	0.6
313.15	0.6098	827.67	0.59
313.15	0.7106	836.87	0.59
313.15	0.8074	845.7	0.58
313.15	0.9105	855.11	0.57
313.15	1	863.28	0.56

System: ethanol + ethyl 2-methylbutanoate; phases: Liquid
Fixed: Pressure, kPa = 101.325
Property: Viscosity, Pa*s (Liquid); method: Falling or rolling sphere viscometry
Temperature, K	Mole fraction of ethyl 2-methylbutanoate	Viscosity, Pa*s	uncertainty
293.15	0	0.00116	1.1e-05
293.15	0.1148	0.001116	1.1e-05
293.15	0.2087	0.001082	1e-05
293.15	0.3049	0.001047	1e-05
293.15	0.4058	0.001013	1e-05
293.15	0.5096	0.000978	9e-06
293.15	0.6143	0.000945	9e-06
293.15	0.7033	0.000917	9e-06
293.15	0.8056	0.000886	8e-06
293.15	0.9049	0.000857	8e-06
293.15	1	0.000831	8e-06
303.15	0	0.000968	9e-06
303.15	0.1148	0.000936	9e-06
303.15	0.2087	0.00091	9e-06
303.15	0.3049	0.000885	8e-06
303.15	0.4058	0.000859	8e-06
303.15	0.5096	0.000834	8e-06
303.15	0.6143	0.000809	8e-06
303.15	0.7033	0.000788	7e-06
303.15	0.8056	0.000765	7e-06
303.15	0.9049	0.000743	7e-06
303.15	1	0.000723	7e-06
313.15	0	0.00081	8e-06
313.15	0.1148	0.000787	7e-06
313.15	0.2087	0.000769	7e-06
313.15	0.3049	0.000752	7e-06
313.15	0.4058	0.000733	7e-06
313.15	0.5096	0.000715	7e-06
313.15	0.6143	0.000697	7e-06
313.15	0.7033	0.000682	6e-06
313.15	0.8056	0.000665	6e-06
313.15	0.9049	0.000649	6e-06
313.15	1	0.000635	6e-06

System: ethanol + ethyl 2-methylbutanoate; phases: Liquid
Fixed: Pressure, kPa = 101.325
Property: Mass density, kg/m3 (Liquid); method: VIBTUB:UFactor:4
Temperature, K	Mole fraction of ethyl 2-methylbutanoate	Mass density, kg/m3	uncertainty
293.15	0	788.24	0.62
293.15	0.1148	797.6	0.62
293.15	0.2087	805.25	0.61
293.15	0.3049	813.09	0.61
293.15	0.4058	821.31	0.6
293.15	0.5096	829.77	0.59
293.15	0.6143	838.3	0.59
293.15	0.7033	845.55	0.58
293.15	0.8056	853.89	0.58
293.15	0.9049	861.98	0.58
293.15	1	869.73	0.57
303.15	0	780.73	0.63
303.15	0.1148	790	0.63
303.15	0.2087	797.58	0.62
303.15	0.3049	805.35	0.61
303.15	0.4058	813.5	0.61
303.15	0.5096	821.88	0.6
303.15	0.6143	830.33	0.6
303.15	0.7033	837.52	0.59
303.15	0.8056	845.78	0.59
303.15	0.9049	853.8	0.58
303.15	1	861.48	0.58
313.15	0	771.98	0.64
313.15	0.1148	781.33	0.64
313.15	0.2087	788.97	0.63
313.15	0.3049	796.81	0.62
313.15	0.4058	805.02	0.62
313.15	0.5096	813.48	0.61
313.15	0.6143	822	0.6
313.15	0.7033	829.25	0.6
313.15	0.8056	837.58	0.59
313.15	0.9049	845.67	0.59
313.15	1	853.41	0.58

System: ethanol + ethyl hexanoate; phases: Liquid
Fixed: Pressure, kPa = 101.325
Property: Viscosity, Pa*s (Liquid); method: Falling or rolling sphere viscometry
Temperature, K	Mole fraction of ethyl hexanoate	Viscosity, Pa*s	uncertainty
293.15	0	0.00116	1.1e-05
293.15	0.1044	0.001118	1.1e-05
293.15	0.2078	0.001078	1e-05
293.15	0.3105	0.001039	1e-05
293.15	0.4008	0.001007	9e-06
293.15	0.5171	0.000967	9e-06
293.15	0.5908	0.000942	9e-06
293.15	0.7133	0.000902	9e-06
293.15	0.8046	0.000874	8e-06
293.15	0.9051	0.000843	8e-06
293.15	1	0.000816	8e-06
303.15	0	0.000968	9e-06
303.15	0.1044	0.000936	9e-06
303.15	0.2078	0.000906	9e-06
303.15	0.3105	0.000876	8e-06
303.15	0.4008	0.000852	8e-06
303.15	0.5171	0.000821	8e-06
303.15	0.5908	0.000801	8e-06
303.15	0.7133	0.000771	7e-06
303.15	0.8046	0.000749	7e-06
303.15	0.9051	0.000725	7e-06
303.15	1	0.000704	7e-06
313.15	0	0.00081	8e-06
313.15	0.1044	0.000786	7e-06
313.15	0.2078	0.000764	7e-06
313.15	0.3105	0.000743	7e-06
313.15	0.4008	0.000724	7e-06
313.15	0.5171	0.000701	7e-06
313.15	0.5908	0.000687	7e-06
313.15	0.7133	0.000664	6e-06
313.15	0.8046	0.000648	6e-06
313.15	0.9051	0.00063	6e-06
313.15	1	0.000614	6e-06

System: ethanol + ethyl hexanoate; phases: Liquid
Fixed: Pressure, kPa = 101.325
Property: Mass density, kg/m3 (Liquid); method: VIBTUB:UFactor:4
Temperature, K	Mole fraction of ethyl hexanoate	Mass density, kg/m3	uncertainty
293.15	0	788.24	0.62
293.15	0.1044	797.72	0.62
293.15	0.2078	807.1	0.61
293.15	0.3105	816.42	0.61
293.15	0.4008	824.62	0.6
293.15	0.5171	835.18	0.59
293.15	0.5908	841.87	0.59
293.15	0.7133	852.99	0.59
293.15	0.8046	861.27	0.58
293.15	0.9051	870.4	0.58
293.15	1	879.01	0.58
303.15	0	780.73	0.63
303.15	0.1044	789.98	0.63
303.15	0.2078	799.14	0.62
303.15	0.3105	808.23	0.61
303.15	0.4008	816.23	0.6
303.15	0.5171	826.53	0.6
303.15	0.5908	833.06	0.59
303.15	0.7133	843.91	0.59
303.15	0.8046	852	0.58
303.15	0.9051	860.9	0.58
303.15	1	869.31	0.57
313.15	0	771.98	0.64
313.15	0.1044	781.51	0.63
313.15	0.2078	790.95	0.62
313.15	0.3105	800.33	0.62
313.15	0.4008	808.57	0.61
313.15	0.5171	819.19	0.6
313.15	0.5908	825.92	0.59
313.15	0.7133	837.1	0.58
313.15	0.8046	845.44	0.58
313.15	0.9051	854.62	0.57
313.15	1	863.28	0.56

System: propan-1-ol + ethyl 2-methylbutanoate; phases: Liquid
Fixed: Pressure, kPa = 101.325
Property: Viscosity, Pa*s (Liquid); method: Falling or rolling sphere viscometry
Temperature, K	Mole fraction of ethyl 2-methylbutanoate	Viscosity, Pa*s	uncertainty
293.15	0	0.002188	2.1e-05
293.15	0.1132	0.001961	1.9e-05
293.15	0.2146	0.001778	1.7e-05
293.15	0.2937	0.001647	1.6e-05
293.15	0.4056	0.001477	1.4e-05
293.15	0.4903	0.001361	1.3e-05
293.15	0.6051	0.001218	1.1e-05
293.15	0.7244	0.001085	1e-05
293.15	0.8134	0.000996	9e-06
293.15	0.9057	0.00091	9e-06
293.15	1	0.000831	8e-06
303.15	0	0.001713	1.6e-05
303.15	0.1132	0.001554	1.5e-05
303.15	0.2146	0.001424	1.4e-05
303.15	0.2937	0.001329	1.3e-05
303.15	0.4056	0.001207	1.1e-05
303.15	0.4903	0.001122	1.1e-05
303.15	0.6051	0.001016	1e-05
303.15	0.7244	0.000917	9e-06
303.15	0.8134	0.000849	8e-06
303.15	0.9057	0.000784	7e-06
303.15	1	0.000723	7e-06
313.15	0	0.001378	1.3e-05
313.15	0.1132	0.001262	1.2e-05
313.15	0.2146	0.001167	1.1e-05
313.15	0.2937	0.001098	1e-05
313.15	0.4056	0.001006	1e-05
313.15	0.4903	0.000943	9e-06
313.15	0.6051	0.000862	8e-06
313.15	0.7244	0.000786	7e-06
313.15	0.8134	0.000734	7e-06
313.15	0.9057	0.000683	6e-06
313.15	1	0.000635	6e-06

System: propan-1-ol + ethyl 2-methylbutanoate; phases: Liquid
Fixed: Pressure, kPa = 101.325
Property: Mass density, kg/m3 (Liquid); method: VIBTUB:UFactor:4
Temperature, K	Mole fraction of ethyl 2-methylbutanoate	Mass density, kg/m3	uncertainty
293.15	0	803.64	0.61
293.15	0.1132	811.12	0.61
293.15	0.2146	817.82	0.6
293.15	0.2937	823.05	0.6
293.15	0.4056	830.45	0.6
293.15	0.4903	836.04	0.59
293.15	0.6051	843.63	0.59
293.15	0.7244	851.52	0.58
293.15	0.8134	857.4	0.58
293.15	0.9057	863.5	0.58
293.15	1	869.73	0.57
303.15	0	795.48	0.62
303.15	0.1132	802.95	0.62
303.15	0.2146	809.64	0.61
303.15	0.2937	814.86	0.61
303.15	0.4056	822.25	0.6
303.15	0.4903	827.84	0.6
303.15	0.6051	835.42	0.59
303.15	0.7244	843.29	0.59
303.15	0.8134	849.16	0.58
303.15	0.9057	855.26	0.58
303.15	1	861.48	0.58
313.15	0	787.02	0.63
313.15	0.1132	794.54	0.62
313.15	0.2146	801.27	0.62
313.15	0.2937	806.52	0.61
313.15	0.4056	813.95	0.61
313.15	0.4903	819.57	0.6
313.15	0.6051	827.19	0.6
313.15	0.7244	835.11	0.59
313.15	0.8134	841.02	0.59
313.15	0.9057	847.15	0.58
313.15	1	853.41	0.58

System: methanol + ethyl 2-methylbutanoate; phases: Liquid
Fixed: Pressure, kPa = 101.325
Property: Viscosity, Pa*s (Liquid); method: Falling or rolling sphere viscometry
Temperature, K	Mole fraction of ethyl 2-methylbutanoate	Viscosity, Pa*s	uncertainty
293.15	0	0.000577	5e-06
293.15	0.1084	0.0006	6e-06
293.15	0.2031	0.000621	6e-06
293.15	0.3197	0.000648	6e-06
293.15	0.4001	0.000667	6e-06
293.15	0.4982	0.000692	7e-06
293.15	0.6152	0.000722	7e-06
293.15	0.7045	0.000746	7e-06
293.15	0.8028	0.000773	7e-06
293.15	0.9144	0.000805	8e-06
293.15	1	0.000831	8e-06
303.15	0	0.000512	5e-06
303.15	0.1084	0.000531	5e-06
303.15	0.2031	0.000549	5e-06
303.15	0.3197	0.000572	5e-06
303.15	0.4001	0.000588	6e-06
303.15	0.4982	0.000608	6e-06
303.15	0.6152	0.000633	6e-06
303.15	0.7045	0.000653	6e-06
303.15	0.8028	0.000675	6e-06
303.15	0.9144	0.000702	7e-06
303.15	1	0.000723	7e-06
313.15	0	0.000447	4e-06
313.15	0.1084	0.000464	4e-06
313.15	0.2031	0.00048	5e-06
313.15	0.3197	0.0005	5e-06
313.15	0.4001	0.000514	5e-06
313.15	0.4982	0.000532	5e-06
313.15	0.6152	0.000555	5e-06
313.15	0.7045	0.000572	5e-06
313.15	0.8028	0.000593	6e-06
313.15	0.9144	0.000616	6e-06
313.15	1	0.000635	6e-06

System: methanol + ethyl 2-methylbutanoate; phases: Liquid
Fixed: Pressure, kPa = 101.325
Property: Mass density, kg/m3 (Liquid); method: VIBTUB:UFactor:4
Temperature, K	Mole fraction of ethyl 2-methylbutanoate	Mass density, kg/m3	uncertainty
293.15	0	791.08	0.63
293.15	0.1084	799.61	0.62
293.15	0.2031	807.05	0.62
293.15	0.3197	816.22	0.61
293.15	0.4001	822.55	0.6
293.15	0.4982	830.26	0.6
293.15	0.6152	839.47	0.59
293.15	0.7045	846.49	0.59
293.15	0.8028	854.22	0.58
293.15	0.9144	863	0.58
293.15	1	869.73	0.57
303.15	0	781.95	0.64
303.15	0.1084	790.57	0.63
303.15	0.2031	798.1	0.62
303.15	0.3197	807.38	0.62
303.15	0.4001	813.77	0.61
303.15	0.4982	821.57	0.61
303.15	0.6152	830.88	0.6
303.15	0.7045	837.98	0.59
303.15	0.8028	845.8	0.59
303.15	0.9144	854.67	0.58
303.15	1	861.48	0.58
313.15	0	772.01	0.65
313.15	0.1084	780.83	0.64
313.15	0.2031	788.54	0.63
313.15	0.3197	798.03	0.63
313.15	0.4001	804.58	0.62
313.15	0.4982	812.56	0.61
313.15	0.6152	822.09	0.6
313.15	0.7045	829.36	0.6
313.15	0.8028	837.36	0.59
313.15	0.9144	846.44	0.59
313.15	1	853.41	0.58

System: propan-1-ol + ethyl hexanoate; phases: Liquid
Fixed: Pressure, kPa = 101.325
Property: Viscosity, Pa*s (Liquid); method: Falling or rolling sphere viscometry
Temperature, K	Mole fraction of ethyl hexanoate	Viscosity, Pa*s	uncertainty
293.15	0	0.002188	2.1e-05
293.15	0.1032	0.001976	1.9e-05
293.15	0.2075	0.001783	1.7e-05
293.15	0.3144	0.001605	1.5e-05
293.15	0.4082	0.001463	1.4e-05
293.15	0.5003	0.001336	1.3e-05
293.15	0.6024	0.001208	1.1e-05
293.15	0.7056	0.001091	1e-05
293.15	0.8184	0.000976	9e-06
293.15	0.9035	0.000898	8e-06
293.15	1	0.000816	8e-06
303.15	0	0.001713	1.6e-05
303.15	0.1032	0.001563	1.5e-05
303.15	0.2075	0.001424	1.4e-05
303.15	0.3144	0.001295	1.2e-05
303.15	0.4082	0.001192	1.1e-05
303.15	0.5003	0.001098	1e-05
303.15	0.6024	0.001003	1e-05
303.15	0.7056	0.000915	9e-06
303.15	0.8184	0.000827	8e-06
303.15	0.9035	0.000767	7e-06
303.15	1	0.000704	7e-06
313.15	0	0.001378	1.3e-05
313.15	0.1032	0.001268	1.2e-05
313.15	0.2075	0.001165	1.1e-05
313.15	0.3144	0.001069	1e-05
313.15	0.4082	0.000991	9e-06
313.15	0.5003	0.000919	9e-06
313.15	0.6024	0.000847	8e-06
313.15	0.7056	0.000779	7e-06
313.15	0.8184	0.000711	7e-06
313.15	0.9035	0.000664	6e-06
313.15	1	0.000614	6e-06

System: propan-1-ol + ethyl hexanoate; phases: Liquid
Fixed: Pressure, kPa = 101.325
Property: Mass density, kg/m3 (Liquid); method: VIBTUB:UFactor:4
Temperature, K	Mole fraction of ethyl hexanoate	Mass density, kg/m3	uncertainty
293.15	0	803.64	0.61
293.15	0.1032	811.42	0.61
293.15	0.2075	819.28	0.6
293.15	0.3144	827.34	0.6
293.15	0.4082	834.41	0.6
293.15	0.5003	841.35	0.59
293.15	0.6024	849.04	0.59
293.15	0.7056	856.82	0.59
293.15	0.8184	865.32	0.58
293.15	0.9035	871.74	0.58
293.15	1	879.01	0.58
303.15	0	795.48	0.62
303.15	0.1032	803.1	0.62
303.15	0.2075	810.8	0.61
303.15	0.3144	818.69	0.6
303.15	0.4082	825.62	0.6
303.15	0.5003	832.42	0.59
303.15	0.6024	839.96	0.59
303.15	0.7056	847.57	0.58
303.15	0.8184	855.9	0.58
303.15	0.9035	862.19	0.57
303.15	1	869.31	0.57
313.15	0	787.02	0.63
313.15	0.1032	794.89	0.62
313.15	0.2075	802.84	0.61
313.15	0.3144	811	0.61
313.15	0.4082	818.15	0.6
313.15	0.5003	825.17	0.59
313.15	0.6024	832.96	0.59
313.15	0.7056	840.83	0.58
313.15	0.8184	849.43	0.57
313.15	0.9035	855.92	0.57
313.15	1	863.28	0.56
