Measured thermophysical data. Thermodynamic Properties of Mixtures Containing Ionic Liquids. 6. Activity Coefficients at Infinite Dilution of Hydrocarbons, Alcohols, Esters, and Aldehydes in 1-Methyl-3-octyl-imidazolium Tetrafluoroborate Using Gas-Liquid Chromatography
Source: J. Chem. Eng. Data, 2005, 10.1021/je050134y
Compound 1: 1-methyl-3-octylimidazolium tetrafluoroborate, C12H23BF4N2, InChI=1S/C12H23N2.BF4/c1-3-4-5-6-7-8-9-14-11-10-13(2)12-14;2-1(3,4)5/h10-12H,3-9H2,1-2H3;/q+1;-1
Compound 2: pentane, C5H12, InChI=1S/C5H12/c1-3-5-4-2/h3-5H2,1-2H3, purity 99.9%
Compound 3: hexane, C6H14, InChI=1S/C6H14/c1-3-5-6-4-2/h3-6H2,1-2H3, purity 99.9%
Compound 4: heptane, C7H16, InChI=1S/C7H16/c1-3-5-7-6-4-2/h3-7H2,1-2H3, purity 99.9%
Compound 5: octane, C8H18, InChI=1S/C8H18/c1-3-5-7-8-6-4-2/h3-8H2,1-2H3, purity 99.9%
Compound 6: 1-pentene, C5H10, InChI=1S/C5H10/c1-3-5-4-2/h3H,1,4-5H2,2H3, purity 99.9%
Compound 7: hex-1-ene, C6H12, InChI=1S/C6H12/c1-3-5-6-4-2/h3H,1,4-6H2,2H3, purity 99.9%
Compound 8: 1-heptene, C7H14, InChI=1S/C7H14/c1-3-5-7-6-4-2/h3H,1,4-7H2,2H3, purity 99.9%
Compound 9: oct-1-ene, C8H16, InChI=1S/C8H16/c1-3-5-7-8-6-4-2/h3H,1,4-8H2,2H3, purity 99.9%
Compound 10: methanol, CH4O, InChI=1S/CH4O/c1-2/h2H,1H3, purity 99.9%
Compound 11: ethanol, C2H6O, InChI=1S/C2H6O/c1-2-3/h3H,2H2,1H3, purity 99.9%
Compound 12: propan-1-ol, C3H8O, InChI=1S/C3H8O/c1-2-3-4/h4H,2-3H2,1H3, purity 99.9%
Compound 13: butan-1-ol, C4H10O, InChI=1S/C4H10O/c1-2-3-4-5/h5H,2-4H2,1H3, purity 99.9%
Compound 14: pentan-1-ol, C5H12O, InChI=1S/C5H12O/c1-2-3-4-5-6/h6H,2-5H2,1H3, purity 99.9%
Compound 15: hexan-1-ol, C6H14O, InChI=1S/C6H14O/c1-2-3-4-5-6-7/h7H,2-6H2,1H3, purity 99.9%
Compound 16: nonane, C9H20, InChI=1S/C9H20/c1-3-5-7-9-8-6-4-2/h3-9H2,1-2H3, purity 99.9%
Compound 17: decane, C10H22, InChI=1S/C10H22/c1-3-5-7-9-10-8-6-4-2/h3-10H2,1-2H3, purity 99.9%
Compound 18: undecane, C11H24, InChI=1S/C11H24/c1-3-5-7-9-11-10-8-6-4-2/h3-11H2,1-2H3, purity 99.9%
Compound 19: dodecane, C12H26, InChI=1S/C12H26/c1-3-5-7-9-11-12-10-8-6-4-2/h3-12H2,1-2H3, purity 99.9%
Compound 20: 1-nonene, C9H18, InChI=1S/C9H18/c1-3-5-7-9-8-6-4-2/h3H,1,4-9H2,2H3, purity 99.9%
Compound 21: 1-decene, C10H20, InChI=1S/C10H20/c1-3-5-7-9-10-8-6-4-2/h3H,1,4-10H2,2H3, purity 99.9%
Compound 22: 1-undecene, C11H22, InChI=1S/C11H22/c1-3-5-7-9-11-10-8-6-4-2/h3H,1,4-11H2,2H3, purity 99.9%
Compound 23: 1-dodecene, C12H24, InChI=1S/C12H24/c1-3-5-7-9-11-12-10-8-6-4-2/h3H,1,4-12H2,2H3, purity 99.9%
Compound 24: 1,3-cyclohexadiene, C6H8, InChI=1S/C6H8/c1-2-4-6-5-3-1/h1-4H,5-6H2, purity 99.9%

System: pentane + 1-methyl-3-octylimidazolium tetrafluoroborate; phases: Liquid
Property: Activity coefficient of pentane (Liquid); method: Chromatography
Temperature, K	Pressure, kPa	Mole fraction of pentane	Activity coefficient of pentane	uncertainty
298	101.3	0	9.07	0.62

System: hexane + 1-methyl-3-octylimidazolium tetrafluoroborate; phases: Liquid
Property: Activity coefficient of hexane (Liquid); method: Chromatography
Temperature, K	Pressure, kPa	Mole fraction of hexane	Activity coefficient of hexane	uncertainty
298	101.3	0	12.4	0.8

System: heptane + 1-methyl-3-octylimidazolium tetrafluoroborate; phases: Liquid
Property: Activity coefficient of heptane (Liquid); method: Chromatography
Temperature, K	Pressure, kPa	Mole fraction of heptane	Activity coefficient of heptane	uncertainty
298	101.3	0	16	1.1

System: octane + 1-methyl-3-octylimidazolium tetrafluoroborate; phases: Liquid
Property: Activity coefficient of octane (Liquid); method: Chromatography
Temperature, K	Pressure, kPa	Mole fraction of octane	Activity coefficient of octane	uncertainty
298	101.3	0	22	1.5

System: 1-pentene + 1-methyl-3-octylimidazolium tetrafluoroborate; phases: Liquid
Property: Activity coefficient of 1-pentene (Liquid); method: Chromatography
Temperature, K	Pressure, kPa	Mole fraction of 1-pentene	Activity coefficient of 1-pentene	uncertainty
298	101.3	0	5.08	0.35

System: hex-1-ene + 1-methyl-3-octylimidazolium tetrafluoroborate; phases: Liquid
Property: Activity coefficient of hex-1-ene (Liquid); method: Chromatography
Temperature, K	Pressure, kPa	Mole fraction of hex-1-ene	Activity coefficient of hex-1-ene	uncertainty
298	101.3	0	7.06	0.48

System: 1-heptene + 1-methyl-3-octylimidazolium tetrafluoroborate; phases: Liquid
Property: Activity coefficient of 1-heptene (Liquid); method: Chromatography
Temperature, K	Pressure, kPa	Mole fraction of 1-heptene	Activity coefficient of 1-heptene	uncertainty
298	101.3	0	9.76	0.67

System: oct-1-ene + 1-methyl-3-octylimidazolium tetrafluoroborate; phases: Liquid
Property: Activity coefficient of oct-1-ene (Liquid); method: Chromatography
Temperature, K	Pressure, kPa	Mole fraction of oct-1-ene	Activity coefficient of oct-1-ene	uncertainty
298	101.3	0	13.1	0.9

System: methanol + 1-methyl-3-octylimidazolium tetrafluoroborate; phases: Liquid
Property: Activity coefficient of methanol (Liquid); method: Chromatography
Temperature, K	Pressure, kPa	Mole fraction of methanol	Activity coefficient of methanol	uncertainty
298	101.3	0	1.07	0.07

System: ethanol + 1-methyl-3-octylimidazolium tetrafluoroborate; phases: Liquid
Property: Activity coefficient of ethanol (Liquid); method: Chromatography
Temperature, K	Pressure, kPa	Mole fraction of ethanol	Activity coefficient of ethanol	uncertainty
298	101.3	0	1.75	0.12

System: propan-1-ol + 1-methyl-3-octylimidazolium tetrafluoroborate; phases: Liquid
Property: Activity coefficient of propan-1-ol (Liquid); method: Chromatography
Temperature, K	Pressure, kPa	Mole fraction of propan-1-ol	Activity coefficient of propan-1-ol	uncertainty
298	101.3	0	2.18	0.15

System: butan-1-ol + 1-methyl-3-octylimidazolium tetrafluoroborate; phases: Liquid
Property: Activity coefficient of butan-1-ol (Liquid); method: Chromatography
Temperature, K	Pressure, kPa	Mole fraction of butan-1-ol	Activity coefficient of butan-1-ol	uncertainty
298	101.3	0	2.32	0.16

System: pentan-1-ol + 1-methyl-3-octylimidazolium tetrafluoroborate; phases: Liquid
Property: Activity coefficient of pentan-1-ol (Liquid); method: Chromatography
Temperature, K	Pressure, kPa	Mole fraction of pentan-1-ol	Activity coefficient of pentan-1-ol	uncertainty
298	101.3	0	2.38	0.16

System: hexan-1-ol + 1-methyl-3-octylimidazolium tetrafluoroborate; phases: Liquid
Property: Activity coefficient of hexan-1-ol (Liquid); method: Chromatography
Temperature, K	Pressure, kPa	Mole fraction of hexan-1-ol	Activity coefficient of hexan-1-ol	uncertainty
298	101.3	0	2.58	0.18

System: nonane + 1-methyl-3-octylimidazolium tetrafluoroborate; phases: Liquid
Property: Activity coefficient of nonane (Liquid); method: Chromatography
Temperature, K	Pressure, kPa	Mole fraction of nonane	Activity coefficient of nonane	uncertainty
298	101.3	0	28.4	1.9

System: decane + 1-methyl-3-octylimidazolium tetrafluoroborate; phases: Liquid
Property: Activity coefficient of decane (Liquid); method: Chromatography
Temperature, K	Pressure, kPa	Mole fraction of decane	Activity coefficient of decane	uncertainty
298	101.3	0	36.4	2.5

System: undecane + 1-methyl-3-octylimidazolium tetrafluoroborate; phases: Liquid
Property: Activity coefficient of undecane (Liquid); method: Chromatography
Temperature, K	Pressure, kPa	Mole fraction of undecane	Activity coefficient of undecane	uncertainty
298	101.3	0	60.9	4.2

System: dodecane + 1-methyl-3-octylimidazolium tetrafluoroborate; phases: Liquid
Property: Activity coefficient of dodecane (Liquid); method: Chromatography
Temperature, K	Pressure, kPa	Mole fraction of dodecane	Activity coefficient of dodecane	uncertainty
298	101.3	0	77.9	5.3

System: 1-nonene + 1-methyl-3-octylimidazolium tetrafluoroborate; phases: Liquid
Property: Activity coefficient of 1-nonene (Liquid); method: Chromatography
Temperature, K	Pressure, kPa	Mole fraction of 1-nonene	Activity coefficient of 1-nonene	uncertainty
298	101.3	0	16.5	1.1

System: 1-decene + 1-methyl-3-octylimidazolium tetrafluoroborate; phases: Liquid
Property: Activity coefficient of 1-decene (Liquid); method: Chromatography
Temperature, K	Pressure, kPa	Mole fraction of 1-decene	Activity coefficient of 1-decene	uncertainty
298	101.3	0	21.4	1.5

System: 1-undecene + 1-methyl-3-octylimidazolium tetrafluoroborate; phases: Liquid
Property: Activity coefficient of 1-undecene (Liquid); method: Chromatography
Temperature, K	Pressure, kPa	Mole fraction of 1-undecene	Activity coefficient of 1-undecene	uncertainty
298	101.3	0	25.8	1.8

System: 1-dodecene + 1-methyl-3-octylimidazolium tetrafluoroborate; phases: Liquid
Property: Activity coefficient of 1-dodecene (Liquid); method: Chromatography
Temperature, K	Pressure, kPa	Mole fraction of 1-dodecene	Activity coefficient of 1-dodecene	uncertainty
298	101.3	0	32.7	2.2

System: 1,3-cyclohexadiene + 1-methyl-3-octylimidazolium tetrafluoroborate; phases: Liquid
Property: Activity coefficient of 1,3-cyclohexadiene (Liquid); method: Chromatography
Temperature, K	Pressure, kPa	Mole fraction of 1,3-cyclohexadiene	Activity coefficient of 1,3-cyclohexadiene	uncertainty
298	101.3	0	2.69	0.18
