Measured thermophysical data. Densities and Viscosities of Binary Mixtures of 1-Bromobutane with Butanol Isomers at Several Temperatures
Source: J. Chem. Eng. Data, 2005, 10.1021/je0501235
Compound 1: butan-1-ol, C4H10O, InChI=1S/C4H10O/c1-2-3-4-5/h5H,2-4H2,1H3, purity 99.8%
Compound 2: 2-methyl-1-propanol, C4H10O, InChI=1S/C4H10O/c1-4(2)3-5/h4-5H,3H2,1-2H3, purity 99.5%
Compound 3: butan-2-ol, C4H10O, InChI=1S/C4H10O/c1-3-4(2)5/h4-5H,3H2,1-2H3, purity 99%
Compound 4: 2-methylpropan-2-ol, C4H10O, InChI=1S/C4H10O/c1-4(2,3)5/h5H,1-3H3, purity 99.5%
Compound 5: 1-bromobutane, C4H9Br, InChI=1S/C4H9Br/c1-2-3-4-5/h2-4H2,1H3, purity 99%

System: butan-1-ol; phases: Liquid
Fixed: Pressure, kPa = 101.325
Property: Viscosity, Pa*s (Liquid); method: CAPTUB:UFactor:2
Temperature, K	Viscosity, Pa*s	uncertainty
288.15	0.003346	3.8e-05
298.15	0.00256	2.9e-05
308.15	0.001991	2.3e-05
318.15	0.001569	1.9e-05

System: butan-1-ol; phases: Liquid
Fixed: Pressure, kPa = 101.325
Property: Mass density, kg/m3 (Liquid); method: VIBTUB:UFactor:4
Temperature, K	Mass density, kg/m3	uncertainty
288.15	813.42	0.43
298.15	805.4	0.44
308.15	798.14	0.45
318.15	790.19	0.47

System: 2-methyl-1-propanol; phases: Liquid
Fixed: Pressure, kPa = 101.325
Property: Viscosity, Pa*s (Liquid); method: CAPTUB:UFactor:2
Temperature, K	Viscosity, Pa*s	uncertainty
288.15	0.004805	5.5e-05
298.15	0.003435	4e-05
308.15	0.002508	2.9e-05
318.15	0.00187	2.2e-05

System: 2-methyl-1-propanol; phases: Liquid
Fixed: Pressure, kPa = 101.325
Property: Mass density, kg/m3 (Liquid); method: VIBTUB:UFactor:4
Temperature, K	Mass density, kg/m3	uncertainty
288.15	805.47	0.48
298.15	797.37	0.49
308.15	790.1	0.5
318.15	781.99	0.51

System: butan-2-ol; phases: Liquid
Fixed: Pressure, kPa = 101.325
Property: Viscosity, Pa*s (Liquid); method: CAPTUB:UFactor:2
Temperature, K	Viscosity, Pa*s	uncertainty
288.15	0.004509	5.5e-05
298.15	0.003035	3.8e-05
308.15	0.002111	2.7e-05
318.15	0.001523	2e-05

System: butan-2-ol; phases: Liquid
Fixed: Pressure, kPa = 101.325
Property: Mass density, kg/m3 (Liquid); method: VIBTUB:UFactor:4
Temperature, K	Mass density, kg/m3	uncertainty
288.15	810.72	0.59
298.15	801.82	0.6
308.15	794.07	0.61
318.15	785.15	0.61

System: 2-methylpropan-2-ol; phases: Liquid
Fixed: Pressure, kPa = 101.325
Property: Viscosity, Pa*s (Liquid); method: CAPTUB:UFactor:2
Temperature, K	Viscosity, Pa*s	uncertainty
298.15	0.004433	5.1e-05
303.15	0.003355	3.9e-05
308.15	0.002611	3.1e-05
313.15	0.002074	2.5e-05
318.15	0.001685	2e-05

System: 2-methylpropan-2-ol; phases: Liquid
Fixed: Pressure, kPa = 101.325
Property: Mass density, kg/m3 (Liquid); method: VIBTUB:UFactor:4
Temperature, K	Mass density, kg/m3	uncertainty
298.15	779.96	0.51
303.15	775.3	0.52
308.15	770.19	0.53
313.15	764.83	0.54
318.15	759.52	0.54

System: 1-bromobutane; phases: Liquid
Fixed: Pressure, kPa = 101.325
Property: Viscosity, Pa*s (Liquid); method: CAPTUB:UFactor:2
Temperature, K	Viscosity, Pa*s	uncertainty
288.15	0.000677	1e-05
298.15	0.000607	9e-06
303.15	0.000575	8e-06
308.15	0.000546	8e-06
313.15	0.000519	8e-06
318.15	0.000494	7e-06

System: 1-bromobutane; phases: Liquid
Fixed: Pressure, kPa = 101.325
Property: Mass density, kg/m3 (Liquid); method: VIBTUB:UFactor:4
Temperature, K	Mass density, kg/m3	uncertainty
288.15	1281.69	0.86
298.15	1266.83	0.84
303.15	1259.9	0.83
308.15	1252.71	0.82
313.15	1245.31	0.81
318.15	1238.05	0.8

System: butan-1-ol + 1-bromobutane; phases: Liquid
Fixed: Pressure, kPa = 101.325
Property: Viscosity, Pa*s (Liquid); method: CAPTUB:UFactor:2
Temperature, K	Mole fraction of butan-1-ol	Viscosity, Pa*s	uncertainty
288.15	0.1114	0.000712	1e-05
288.15	0.2168	0.000784	1.1e-05
288.15	0.3241	0.000883	1.2e-05
288.15	0.4255	0.001016	1.3e-05
288.15	0.5172	0.001183	1.5e-05
288.15	0.6158	0.001424	1.7e-05
288.15	0.7127	0.00175	2.1e-05
288.15	0.7911	0.002079	2.4e-05
288.15	0.8968	0.002645	3.1e-05
298.15	0.1114	0.00063	9e-06
298.15	0.2168	0.000685	9e-06
298.15	0.3241	0.000759	1e-05
298.15	0.4255	0.00086	1.1e-05
298.15	0.5172	0.000983	1.3e-05
298.15	0.6158	0.001158	1.4e-05
298.15	0.7127	0.001394	1.7e-05
298.15	0.7911	0.001636	2e-05
298.15	0.8968	0.002046	2.4e-05
308.15	0.1114	0.000554	8e-06
308.15	0.2168	0.000588	8e-06
308.15	0.3241	0.000638	9e-06
308.15	0.4255	0.000706	9e-06
308.15	0.5172	0.000793	1e-05
308.15	0.6158	0.000918	1.2e-05
308.15	0.7127	0.001086	1.3e-05
308.15	0.7911	0.001261	1.5e-05
308.15	0.8968	0.001581	1.9e-05
318.15	0.1114	0.000495	7e-06
318.15	0.2168	0.000522	8e-06
318.15	0.3241	0.000561	8e-06
318.15	0.4255	0.000613	8e-06
318.15	0.5172	0.000679	9e-06
318.15	0.6158	0.000771	1e-05
318.15	0.7127	0.000899	1.1e-05
318.15	0.7911	0.001029	1.3e-05
318.15	0.8968	0.001264	1.5e-05

System: butan-1-ol + 1-bromobutane; phases: Liquid
Fixed: Pressure, kPa = 101.325
Property: Mass density, kg/m3 (Liquid); method: VIBTUB:UFactor:4
Temperature, K	Mole fraction of butan-1-ol	Mass density, kg/m3	uncertainty
288.15	0.0651	1254.36	0.81
288.15	0.0908	1243.72	0.78
288.15	0.1711	1210.18	0.71
288.15	0.2243	1187.62	0.66
288.15	0.3496	1133.18	0.54
288.15	0.4142	1104.35	0.49
288.15	0.4554	1085.66	0.45
288.15	0.5543	1039.78	0.37
288.15	0.6421	997.92	0.31
288.15	0.7017	968.75	0.31
288.15	0.7817	928.75	0.33
288.15	0.8097	914.45	0.34
288.15	0.8665	885.03	0.37
288.15	0.9373	847.42	0.41
288.15	0.8665	885.03	0.37
308.15	0.1003	1211.63	0.73
308.15	0.1981	1171.51	0.65
308.15	0.2872	1134.22	0.57
308.15	0.3997	1086.06	0.47
308.15	0.5004	1041.57	0.39
308.15	0.6152	989.22	0.32
308.15	0.7005	948.99	0.33
308.15	0.7972	901.96	0.35
308.15	0.8995	850.58	0.41
318.15	0.0985	1197.92	0.72
318.15	0.1984	1157.54	0.63
318.15	0.2858	1121.53	0.55
318.15	0.3937	1075.99	0.46
318.15	0.4965	1031.33	0.38
318.15	0.5958	986.93	0.33
318.15	0.6965	940.53	0.33
318.15	0.7954	893.34	0.36
318.15	0.8967	843.28	0.42
318.15	0.9519	815.23	0.45

System: 2-methyl-1-propanol + 1-bromobutane; phases: Liquid
Fixed: Pressure, kPa = 101.325
Property: Viscosity, Pa*s (Liquid); method: CAPTUB:UFactor:2
Temperature, K	Mole fraction of 2-methyl-1-propanol	Viscosity, Pa*s	uncertainty
288.15	0.101	0.000706	1e-05
288.15	0.2014	0.000768	1e-05
288.15	0.308	0.000866	1.2e-05
288.15	0.4025	0.000984	1.3e-05
288.15	0.5066	0.00119	1.5e-05
288.15	0.61	0.001497	1.9e-05
288.15	0.7006	0.001844	2.2e-05
288.15	0.8004	0.002436	2.9e-05
288.15	0.8984	0.003333	3.9e-05
298.15	0.101	0.000626	9e-06
298.15	0.2014	0.000671	9e-06
298.15	0.308	0.000743	1e-05
298.15	0.4025	0.00083	1.1e-05
298.15	0.5066	0.00098	1.3e-05
298.15	0.61	0.001196	1.5e-05
298.15	0.7006	0.001436	1.8e-05
298.15	0.8004	0.001845	2.2e-05
298.15	0.8984	0.002449	2.9e-05
308.15	0.101	0.000549	8e-06
308.15	0.2014	0.000576	8e-06
308.15	0.308	0.000624	9e-06
308.15	0.4025	0.000682	9e-06
308.15	0.5066	0.000783	1e-05
308.15	0.61	0.000934	1.2e-05
308.15	0.7006	0.0011	1.4e-05
308.15	0.8004	0.001387	1.7e-05
308.15	0.8984	0.001807	2.2e-05
318.15	0.101	0.000492	7e-06
318.15	0.2014	0.000512	7e-06
318.15	0.308	0.000555	8e-06
318.15	0.4025	0.000593	8e-06
318.15	0.5066	0.000664	9e-06
318.15	0.61	0.000774	1e-05
318.15	0.7006	0.000895	1.2e-05
318.15	0.8004	0.001098	1.4e-05
318.15	0.8984	0.001389	1.7e-05

System: 2-methyl-1-propanol + 1-bromobutane; phases: Liquid
Fixed: Pressure, kPa = 101.325
Property: Mass density, kg/m3 (Liquid); method: VIBTUB:UFactor:4
Temperature, K	Mole fraction of 2-methyl-1-propanol	Mass density, kg/m3	uncertainty
288.15	0.0278	1269.4	0.84
288.15	0.0624	1254.6	0.82
288.15	0.1314	1225.12	0.76
288.15	0.2047	1193.36	0.7
288.15	0.2862	1157.47	0.64
288.15	0.3542	1126.98	0.58
288.15	0.4107	1101.21	0.54
288.15	0.4499	1083.17	0.51
288.15	0.5347	1043.44	0.45
288.15	0.5743	1024.55	0.43
288.15	0.693	966.57	0.39
288.15	0.7389	943.57	0.4
288.15	0.7991	912.89	0.41
288.15	0.8566	883.02	0.43
288.15	0.903	858.35	0.45
288.15	0.9444	835.99	0.47
288.15	0.9516	832.05	0.47
308.15	0.0981	1211.21	0.75
308.15	0.1965	1169.47	0.67
308.15	0.2793	1133.98	0.61
308.15	0.3949	1083.44	0.52
308.15	0.4989	1036.68	0.45
308.15	0.5936	992.85	0.4
308.15	0.6956	944.28	0.4
308.15	0.7937	896.28	0.42
308.15	0.9005	842.19	0.46
318.15	0.0581	1213.35	0.76
318.15	0.0947	1198.04	0.73
318.15	0.1896	1158.5	0.66
318.15	0.2827	1119.03	0.59
318.15	0.3863	1074.39	0.52
318.15	0.4919	1027.54	0.45
318.15	0.616	970.79	0.4
318.15	0.6927	934.7	0.41
318.15	0.786	889.86	0.43
318.15	0.893	836.77	0.47

System: butan-2-ol + 1-bromobutane; phases: Liquid
Fixed: Pressure, kPa = 101.325
Property: Viscosity, Pa*s (Liquid); method: CAPTUB:UFactor:2
Temperature, K	Mole fraction of butan-2-ol	Viscosity, Pa*s	uncertainty
288.15	0.11	0.000692	1e-05
288.15	0.208	0.000731	1e-05
288.15	0.3145	0.000796	1.1e-05
288.15	0.3968	0.00087	1.2e-05
288.15	0.4998	0.001001	1.3e-05
288.15	0.6057	0.001206	1.6e-05
288.15	0.7046	0.001508	1.9e-05
288.15	0.786	0.001896	2.4e-05
288.15	0.8988	0.002816	3.5e-05
298.15	0.11	0.000613	9e-06
298.15	0.208	0.000642	9e-06
298.15	0.3145	0.000689	1e-05
298.15	0.3968	0.000742	1e-05
298.15	0.4998	0.000833	1.1e-05
298.15	0.6057	0.000975	1.3e-05
298.15	0.7046	0.001176	1.5e-05
298.15	0.786	0.001428	1.9e-05
298.15	0.8988	0.002018	2.6e-05
308.15	0.11	0.000538	8e-06
308.15	0.208	0.000552	8e-06
308.15	0.3145	0.000581	8e-06
308.15	0.3968	0.000614	9e-06
308.15	0.4998	0.000675	9e-06
308.15	0.6057	0.00077	1.1e-05
308.15	0.7046	0.000905	1.2e-05
308.15	0.786	0.001075	1.4e-05
308.15	0.8988	0.001461	1.9e-05
318.15	0.11	0.000483	7e-06
318.15	0.208	0.000492	7e-06
318.15	0.3145	0.000512	8e-06
318.15	0.3968	0.000537	8e-06
318.15	0.4998	0.000579	8e-06
318.15	0.6057	0.000653	9e-06
318.15	0.7046	0.000741	1e-05
318.15	0.786	0.000855	1.2e-05
318.15	0.8988	0.001111	1.5e-05

System: butan-2-ol + 1-bromobutane; phases: Liquid
Fixed: Pressure, kPa = 101.325
Property: Mass density, kg/m3 (Liquid); method: VIBTUB:UFactor:4
Temperature, K	Mole fraction of butan-2-ol	Mass density, kg/m3	uncertainty
288.15	0.0491	1259.95	0.84
288.15	0.0823	1245.78	0.82
288.15	0.1594	1212.63	0.78
288.15	0.2504	1173.14	0.72
288.15	0.2889	1156.22	0.7
288.15	0.3943	1109.18	0.65
288.15	0.4675	1075.75	0.61
288.15	0.5438	1040.28	0.58
288.15	0.6796	975.28	0.54
288.15	0.7143	958.3	0.54
288.15	0.7675	931.85	0.55
288.15	0.8287	900.94	0.56
288.15	0.888	870.41	0.57
288.15	0.9581	833.31	0.59
308.15	0.0952	1211.55	0.77
308.15	0.2083	1163.56	0.71
308.15	0.2848	1130.78	0.67
308.15	0.3969	1081.85	0.62
308.15	0.497	1037.11	0.57
308.15	0.5969	991.4	0.54
308.15	0.6985	943.71	0.54
308.15	0.7967	896.46	0.56
308.15	0.8994	845.59	0.58
318.15	0.0933	1197.87	0.76
318.15	0.1938	1155.45	0.7
318.15	0.2787	1119.47	0.66
318.15	0.3912	1071.08	0.6
318.15	0.4931	1026.14	0.56
318.15	0.5904	982.29	0.54
318.15	0.689	936.92	0.54
318.15	0.7866	890.76	0.56
318.15	0.8967	837.14	0.59

System: 2-methylpropan-2-ol + 1-bromobutane; phases: Liquid
Fixed: Pressure, kPa = 101.325
Property: Viscosity, Pa*s (Liquid); method: CAPTUB:UFactor:2
Temperature, K	Mole fraction of 2-methylpropan-2-ol	Viscosity, Pa*s	uncertainty
298.15	0.0988	0.000597	9e-06
298.15	0.197	0.000612	9e-06
298.15	0.3014	0.000643	9e-06
298.15	0.4101	0.000692	9e-06
298.15	0.5017	0.000798	1.1e-05
298.15	0.5982	0.000926	1.2e-05
298.15	0.7029	0.001148	1.4e-05
298.15	0.7982	0.001509	1.9e-05
298.15	0.8931	0.002232	2.7e-05
303.15	0.0988	0.000564	8e-06
303.15	0.197	0.000576	8e-06
303.15	0.3014	0.000602	8e-06
303.15	0.4101	0.000642	9e-06
303.15	0.5017	0.000736	1e-05
303.15	0.5982	0.000839	1.1e-05
303.15	0.7029	0.001018	1.3e-05
303.15	0.7982	0.001302	1.6e-05
303.15	0.8931	0.001841	2.2e-05
308.15	0.0988	0.000534	8e-06
308.15	0.197	0.00054	8e-06
308.15	0.3014	0.000563	8e-06
308.15	0.4101	0.000598	8e-06
308.15	0.5017	0.000679	9e-06
308.15	0.5982	0.000763	1e-05
308.15	0.7029	0.000909	1.2e-05
308.15	0.7982	0.001134	1.4e-05
308.15	0.8931	0.001543	1.9e-05
313.15	0.0988	0.000508	7e-06
313.15	0.197	0.000511	7e-06
313.15	0.3014	0.000529	8e-06
313.15	0.4101	0.000557	8e-06
313.15	0.5017	0.000632	9e-06
313.15	0.5982	0.0007	9e-06
313.15	0.7029	0.000817	1.1e-05
313.15	0.7982	0.000995	1.3e-05
313.15	0.8931	0.001311	1.6e-05
318.15	0.0988	0.000494	7e-06
318.15	0.197	0.000482	7e-06
318.15	0.3014	0.000497	7e-06
318.15	0.4101	0.000521	7e-06
318.15	0.5017	0.000581	8e-06
318.15	0.5982	0.000638	9e-06
318.15	0.7029	0.000737	1e-05
318.15	0.7982	0.000882	1.1e-05
318.15	0.8931	0.001127	1.4e-05

System: 2-methylpropan-2-ol + 1-bromobutane; phases: Liquid
Fixed: Pressure, kPa = 101.325
Property: Mass density, kg/m3 (Liquid); method: VIBTUB:UFactor:4
Temperature, K	Mole fraction of 2-methylpropan-2-ol	Mass density, kg/m3	uncertainty
303.15	0.1016	1212.26	0.75
303.15	0.1957	1168.89	0.67
303.15	0.2803	1129.95	0.61
303.15	0.3841	1081.32	0.53
303.15	0.4877	1032.05	0.45
303.15	0.5853	984.72	0.41
303.15	0.6906	932.91	0.41
303.15	0.7842	885.96	0.43
303.15	0.8924	830.98	0.48
303.15	0.9481	802.35	0.51
308.15	0.0606	1223.94	0.78
308.15	0.1002	1205.58	0.74
308.15	0.195	1162.33	0.66
308.15	0.2446	1139.39	0.63
308.15	0.3414	1094.54	0.55
308.15	0.4891	1024.82	0.45
308.15	0.5891	976.59	0.41
308.15	0.6909	926.67	0.42
308.15	0.7899	877.35	0.44
308.15	0.8499	847.04	0.46
308.15	0.9446	798.88	0.51
313.15	0.1012	1197.57	0.73
313.15	0.1882	1157.81	0.66
313.15	0.279	1116.19	0.59
313.15	0.3873	1066.07	0.51
313.15	0.4858	1019.64	0.44
313.15	0.5848	972.2	0.41
313.15	0.6887	921.63	0.42
313.15	0.7888	871.83	0.45
313.15	0.9031	814.45	0.49
318.15	0.0517	1213.46	0.77
318.15	0.1069	1187.93	0.72
318.15	0.1938	1148.16	0.65
318.15	0.2703	1113.16	0.59
318.15	0.3791	1063.03	0.51
318.15	0.4825	1014.56	0.44
318.15	0.5831	966.6	0.41
318.15	0.6845	917.46	0.42
318.15	0.7853	867.82	0.45
318.15	0.8905	815.19	0.5
318.15	0.9288	795.92	0.52
