Measured thermophysical data. Measurement and Modeling of the High-Pressure Phase Behavior of the Binary System Carbon Dioxide + 1,2-Epoxycyclohexane
Source: J. Chem. Eng. Data, 2005, 10.1021/je050156k
Compound 1: carbon dioxide, CO2, InChI=1S/CO2/c2-1-3
Compound 2: 7-oxabicyclo[4.1.0]heptane, C6H10O, InChI=1S/C6H10O/c1-2-4-6-5(3-1)7-6/h5-6H,1-4H2

System: 7-oxabicyclo[4.1.0]heptane; phases: Liquid, Gas
Property: Vapor or sublimation pressure, kPa (Liquid); method: Closed cell (Static) method
Temperature, K	Vapor or sublimation pressure, kPa	uncertainty
360.91	25.5	1.5
361.13	25.8	1.5
382.47	52.4	1.5
383.09	53.6	1.5
404.87	101.3	10
405.48	103.8	10
423.87	167	10
443.95	268	10
453.99	333	10
463.99	409	10.1
474.03	497	10.1

System: 7-oxabicyclo[4.1.0]heptane; phases: Liquid
Fixed: Pressure, kPa = 101.325
Property: Mass density, kg/m3 (Liquid); method: PYCNOM:UFactor:8
Temperature, K	Mass density, kg/m3	uncertainty
277.7	988.4	2.5
289	978	2.4
293.2	972.2	2.3
303.2	963.8	2.4
313.2	955	2.5
323.2	944.8	2.6
333.2	935.4	2.8
343.2	925.5	2.9
353.2	915.7	3.1
363.2	903.9	3.2

System: carbon dioxide + 7-oxabicyclo[4.1.0]heptane; phases: Liquid, Gas
Property: Vapor or sublimation pressure, kPa (Liquid); method: Closed cell (Static) method
Mole fraction of carbon dioxide	Temperature, K	Vapor or sublimation pressure, kPa	uncertainty
0.101	353.92	1535	13
0.101	363.9	1700	13
0.101	373.89	1870	14
0.101	383.9	2045	14
0.101	393.9	2220	15
0.101	403.9	2400	16
0.101	413.92	2580	16
0.101	423.92	2755	17
0.201	353.77	3115	18
0.201	363.74	3450	19
0.201	373.89	3785	21
0.201	383.87	4115	22
0.201	393.91	4450	23
0.201	403.9	4775	25
0.201	413.91	5095	26
0.201	423.95	5415	27
0.3	353.73	4670	23
0.3	363.74	5175	25
0.3	373.81	5685	28
0.3	383.73	6190	30
0.3	393.98	6695	32
0.3	403.92	7175	34
0.3	413.9	7640	36
0.3	423.98	8095	38
0.401	353.85	6289	29
0.401	363.88	6979	32
0.401	373.91	7669	34
0.401	383.94	8349	37
0.401	394.06	9014	40
0.401	403.97	9654	43
0.401	414.01	10269	46
0.401	423.98	10849	48
0.499	353.75	7942	34
0.499	363.73	8827	38
0.499	373.78	9702	42
0.499	383.81	10562	45
0.499	393.83	11392	49
0.499	403.81	12177	52
0.499	413.83	12917	55
0.499	423.82	13647	58
