Measured thermophysical data. Enthalpies of Transfer of Amino Acids from Water to Aqueous Solutions of Alkali Metal Nitrates
Source: J. Chem. Eng. Data, 2005, 10.1021/je050296u
Compound 1: 2-aminoacetic acid, C2H5NO2, InChI=1S/C2H5NO2/c3-1-2(4)5/h1,3H2,(H,4,5)
Compound 2: water, H2O, InChI=1S/H2O/h1H2
Compound 3: (S)-2-aminopropanoic acid, C3H7NO2, InChI=1S/C3H7NO2/c1-2(4)3(5)6/h2H,4H2,1H3,(H,5,6)/t2-/m0/s1
Compound 4: L-serine, C3H7NO3, InChI=1S/C3H7NO3/c4-2(1-5)3(6)7/h2,5H,1,4H2,(H,6,7)/t2-/m0/s1
Compound 5: sodium nitrate, NNaO3, InChI=1S/NO3.Na/c2-1(3)4;/q-1;+1
Compound 6: potassium nitrate, KNO3, InChI=1S/K.NO3/c;2-1(3)4/q+1;-1
Compound 7: lithium nitrate, LiNO3, InChI=1S/Li.NO3/c;2-1(3)4/q+1;-1

System: 2-aminoacetic acid + water; phases: Liquid
Property: Apparent molar enthalpy, kJ/mol (Liquid); method: CALVET:solid
Temperature, K	Pressure, kPa	Molality, mol/kg of 2-aminoacetic acid	Apparent molar enthalpy, kJ/mol	uncertainty
298.15	101.33	0.1	14.15	0.24

System: (S)-2-aminopropanoic acid + water; phases: Liquid
Property: Apparent molar enthalpy, kJ/mol (Liquid); method: CALVET:solid
Temperature, K	Pressure, kPa	Molality, mol/kg of (S)-2-aminopropanoic acid	Apparent molar enthalpy, kJ/mol	uncertainty
298.15	101.33	0.1	7.57	0.15

System: L-serine + water; phases: Liquid
Property: Apparent molar enthalpy, kJ/mol (Liquid); method: CALVET:solid
Temperature, K	Pressure, kPa	Molality, mol/kg of L-serine	Apparent molar enthalpy, kJ/mol	uncertainty
298.15	101.33	0.1	11.34	0.2

System: 2-aminoacetic acid + sodium nitrate + water; phases: Liquid
Fixed: Temperature, K = 298.15
Fixed: Pressure, kPa = 101
Fixed: Molality, mol/kg of 2-aminoacetic acid = 0.1
Property: Apparent molar enthalpy, kJ/mol (Liquid); method: CALVET:solid
Solvent: Molality, mol/kg of sodium nitrate	Apparent molar enthalpy, kJ/mol	uncertainty
0	14.15	0.24
0.1997	13.68	0.23
0.4997	13.07	0.22
0.6996	12.69	0.22
0.9999	12.23	0.21
1.4967	11.27	0.2
2.0001	10.63	0.19
2.4433	10.25	0.19
2.9954	9.92	0.18

System: 2-aminoacetic acid + water + potassium nitrate; phases: Liquid
Fixed: Temperature, K = 298.15
Fixed: Pressure, kPa = 101
Fixed: Molality, mol/kg of 2-aminoacetic acid = 0.1
Property: Apparent molar enthalpy, kJ/mol (Liquid); method: CALVET:solid
Solvent: Molality, mol/kg of potassium nitrate	Apparent molar enthalpy, kJ/mol	uncertainty
0	14.15	0.24
0.1999	13.79	0.23
0.5	13.26	0.22
0.7	12.8	0.22
0.9992	12.4	0.21
1.4918	11.57	0.2
1.9988	10.97	0.19
2.4785	10.45	0.19
2.9819	10.18	0.18

System: 2-aminoacetic acid + water + lithium nitrate; phases: Liquid
Fixed: Temperature, K = 298.15
Fixed: Pressure, kPa = 101
Fixed: Molality, mol/kg of 2-aminoacetic acid = 0.1
Property: Apparent molar enthalpy, kJ/mol (Liquid); method: CALVET:solid
Solvent: Molality, mol/kg of lithium nitrate	Apparent molar enthalpy, kJ/mol	uncertainty
0	14.15	0.24
0.2	13.77	0.23
0.5	13.45	0.23
0.7	13.16	0.22
0.9999	12.57	0.22
1.5	12.02	0.21
1.9998	11.21	0.2
2.4994	10.71	0.19
2.9998	10.35	0.19

System: (S)-2-aminopropanoic acid + water + lithium nitrate; phases: Liquid
Fixed: Temperature, K = 298.15
Fixed: Pressure, kPa = 101
Fixed: Molality, mol/kg of (S)-2-aminopropanoic acid = 0.1
Property: Apparent molar enthalpy, kJ/mol (Liquid); method: CALVET:solid
Solvent: Molality, mol/kg of lithium nitrate	Apparent molar enthalpy, kJ/mol	uncertainty
0	7.57	0.15
0.1989	7.35	0.15
0.5	7.05	0.15
0.6916	6.86	0.14
0.9872	6.78	0.14
1.5	6.72	0.14
1.9913	6.67	0.14
2.4927	6.58	0.14
2.98	6.52	0.14

System: (S)-2-aminopropanoic acid + sodium nitrate + water; phases: Liquid
Fixed: Temperature, K = 298.15
Fixed: Pressure, kPa = 101
Fixed: Molality, mol/kg of (S)-2-aminopropanoic acid = 0.1
Property: Apparent molar enthalpy, kJ/mol (Liquid); method: CALVET:solid
Solvent: Molality, mol/kg of sodium nitrate	Apparent molar enthalpy, kJ/mol	uncertainty
0	7.57	0.15
0.1993	7.23	0.15
0.4988	6.93	0.14
0.7002	6.61	0.14
1.0004	6.46	0.14
1.4998	6.3	0.14
1.9906	6.26	0.14
2.5001	6.22	0.14
3.0005	6.18	0.13

System: (S)-2-aminopropanoic acid + water + potassium nitrate; phases: Liquid
Fixed: Temperature, K = 298.15
Fixed: Pressure, kPa = 101
Fixed: Molality, mol/kg of (S)-2-aminopropanoic acid = 0.1
Property: Apparent molar enthalpy, kJ/mol (Liquid); method: CALVET:solid
Solvent: Molality, mol/kg of potassium nitrate	Apparent molar enthalpy, kJ/mol	uncertainty
0	7.57	0.15
0.2	7.39	0.15
0.5001	7.21	0.15
0.6999	7.17	0.15
0.9999	7.12	0.15
1.4991	7.02	0.15
1.9992	6.98	0.14
2.4996	6.96	0.14
2.9979	6.96	0.14

System: L-serine + water + lithium nitrate; phases: Liquid
Fixed: Temperature, K = 298.15
Fixed: Pressure, kPa = 101
Fixed: Molality, mol/kg of L-serine = 0.1
Property: Apparent molar enthalpy, kJ/mol (Liquid); method: CALVET:solid
Solvent: Molality, mol/kg of lithium nitrate	Apparent molar enthalpy, kJ/mol	uncertainty
0	11.34	0.2
0.2	10.64	0.19
0.4998	10.4	0.19
0.6998	10.05	0.18
0.9999	9.61	0.18
1.4995	9.18	0.17
1.9993	8.47	0.16
2.4997	8.2	0.16
2.9986	8.09	0.16

System: L-serine + sodium nitrate + water; phases: Liquid
Fixed: Temperature, K = 298.15
Fixed: Pressure, kPa = 101
Fixed: Molality, mol/kg of L-serine = 0.1
Property: Apparent molar enthalpy, kJ/mol (Liquid); method: CALVET:solid
Solvent: Molality, mol/kg of sodium nitrate	Apparent molar enthalpy, kJ/mol	uncertainty
0	11.34	0.2
0.1998	10.39	0.19
0.4997	9.56	0.18
0.6991	9.1	0.17
0.9999	8.64	0.17
1.4982	8.14	0.16
2.0572	7.57	0.15
2.5001	7.19	0.15
2.9987	6.86	0.14

System: L-serine + water + potassium nitrate; phases: Liquid
Fixed: Temperature, K = 298.15
Fixed: Pressure, kPa = 101
Fixed: Molality, mol/kg of L-serine = 0.1
Property: Apparent molar enthalpy, kJ/mol (Liquid); method: CALVET:solid
Solvent: Molality, mol/kg of potassium nitrate	Apparent molar enthalpy, kJ/mol	uncertainty
0	11.34	0.2
0.2	10.57	0.19
0.4998	9.9	0.18
0.6999	9.56	0.18
1	9.18	0.17
1.4765	8.46	0.16
2.003	7.97	0.16
2.5	7.54	0.15
2.9973	7.25	0.15
