Measured thermophysical data. Viscosity Measurements on Gaseous Ethane
Source: J. Chem. Eng. Data, 2006, 10.1021/je050287l
Compound 1: ethane, C2H6, InChI=1S/C2H6/c1-2/h1-2H3, purity 99.95%

System: ethane; phases: Gas
Property: Viscosity, Pa*s (Gas); method: Vibrating wire viscometry
Temperature, K	Pressure, kPa	Viscosity, Pa*s	uncertainty
290	79.597	8.994e-06	4.5e-08
290	103.08	8.998e-06	4.5e-08
290	124.24	9.001e-06	4.5e-08
290	148.27	9.006e-06	4.5e-08
290	176.98	9.009e-06	4.5e-08
290	202.62	9.013e-06	4.5e-08
290	225.58	9.013e-06	4.5e-08
290	246.46	9.015e-06	4.5e-08
290	271.01	9.018e-06	4.6e-08
290	300.59	9.019e-06	4.6e-08
290	327.37	9.023e-06	4.6e-08
290	353.88	9.026e-06	4.6e-08
290	378.73	9.029e-06	4.6e-08
290	412.83	9.032e-06	4.6e-08
290	437.94	9.037e-06	4.6e-08
290	476.96	9.042e-06	4.6e-08
290	508.87	9.048e-06	4.6e-08
290	556.2	9.053e-06	4.6e-08
290	595.19	9.059e-06	4.6e-08
290	636.89	9.063e-06	4.6e-08
290	671.53	9.068e-06	4.6e-08
290	710.98	9.075e-06	4.6e-08
290	775.23	9.084e-06	4.6e-08
290	825.27	9.095e-06	4.6e-08
290	882.03	9.103e-06	4.6e-08
290	913.28	9.109e-06	4.6e-08
290	958.42	9.12e-06	4.6e-08
290	1009.5	9.131e-06	4.6e-08
290	1064.4	9.142e-06	4.6e-08
290	1123.3	9.155e-06	4.6e-08
290	1181.7	9.169e-06	4.6e-08
290	1216.6	9.177e-06	4.6e-08
290	1259.3	9.188e-06	4.6e-08
290	1350.1	9.213e-06	4.6e-08
290	1438.1	9.239e-06	4.7e-08
290	1484.8	9.25e-06	4.7e-08
290	1559.5	9.275e-06	4.7e-08
290	1615.3	9.293e-06	4.7e-08
290	1667.3	9.308e-06	4.7e-08
290	1716.8	9.326e-06	4.7e-08
290	1816	9.365e-06	4.7e-08
290	1884.5	9.391e-06	4.7e-08
290	1946.8	9.416e-06	4.7e-08
290	2026.7	9.451e-06	4.8e-08
290	2080.6	9.475e-06	4.8e-08
290	2139.4	9.502e-06	4.8e-08
290	2227.5	9.547e-06	4.8e-08
290	2279.9	9.574e-06	4.8e-08
290	2347.3	9.611e-06	4.8e-08
290	2438.7	9.664e-06	4.9e-08
290	2475.4	9.69e-06	4.9e-08
290	2532.7	9.725e-06	4.9e-08
290	2602.6	9.773e-06	4.9e-08
290	2675.1	9.822e-06	4.9e-08
290	2747.8	9.879e-06	5e-08
290	2795.4	9.918e-06	5e-08
290	2853.6	9.968e-06	5e-08
290	2890.1	1e-05	5e-08
290	2916	1.0021e-05	5e-08
300	71.393	9.301e-06	4.7e-08
300	102.6	9.304e-06	4.7e-08
300	125.56	9.31e-06	4.7e-08
300	151.72	9.312e-06	4.7e-08
300	178.4	9.312e-06	4.7e-08
300	203.62	9.315e-06	4.7e-08
300	224.2	9.323e-06	4.7e-08
300	254.24	9.323e-06	4.7e-08
300	275.46	9.324e-06	4.7e-08
300	305.63	9.329e-06	4.7e-08
300	334.53	9.333e-06	4.7e-08
300	358.06	9.337e-06	4.7e-08
300	388.48	9.34e-06	4.7e-08
300	419.92	9.344e-06	4.7e-08
300	447.23	9.348e-06	4.7e-08
300	481.95	9.352e-06	4.7e-08
300	507.29	9.355e-06	4.7e-08
300	545.78	9.362e-06	4.7e-08
300	579.91	9.365e-06	4.7e-08
300	618.84	9.372e-06	4.7e-08
300	649.95	9.377e-06	4.7e-08
300	683.78	9.381e-06	4.7e-08
300	728.32	9.387e-06	4.7e-08
300	778.72	9.396e-06	4.7e-08
300	813.14	9.405e-06	4.7e-08
300	869.08	9.413e-06	4.7e-08
300	911.25	9.42e-06	4.8e-08
300	974.32	9.434e-06	4.8e-08
300	1013.5	9.444e-06	4.8e-08
300	1064.6	9.454e-06	4.8e-08
300	1116.4	9.464e-06	4.8e-08
300	1160	9.474e-06	4.8e-08
300	1251.5	9.496e-06	4.8e-08
300	1321.3	9.516e-06	4.8e-08
300	1364.6	9.525e-06	4.8e-08
300	1446.4	9.548e-06	4.8e-08
300	1514.9	9.568e-06	4.8e-08
300	1551	9.58e-06	4.8e-08
300	1610.7	9.599e-06	4.8e-08
300	1653.6	9.611e-06	4.8e-08
300	1760.9	9.646e-06	4.9e-08
300	1829.2	9.672e-06	4.9e-08
300	1871.3	9.688e-06	4.9e-08
300	1910.3	9.699e-06	4.9e-08
300	2005.6	9.738e-06	4.9e-08
300	2082.7	9.771e-06	4.9e-08
300	2130.4	9.791e-06	4.9e-08
300	2244	9.843e-06	5e-08
300	2333.8	9.884e-06	5e-08
300	2391.7	9.914e-06	5e-08
300	2455.4	9.947e-06	5e-08
300	2558.4	1.0004e-05	5e-08
300	2606.2	1.0032e-05	5e-08
300	2688.1	1.008e-05	5.1e-08
300	2745.7	1.0119e-05	5.1e-08
300	2853.7	1.0191e-05	5.1e-08
300	2904.9	1.0227e-05	5.1e-08
300	2986.6	1.0289e-05	5.2e-08
300	3054.5	1.0344e-05	5.2e-08
300	3131.8	1.0408e-05	5.2e-08
300	3213.8	1.0485e-05	5.3e-08
300	3267.4	1.0532e-05	5.3e-08
300	3349.1	1.0616e-05	5.3e-08
300	3404.2	1.0681e-05	5.4e-08
300	3483.6	1.0772e-05	5.4e-08
300	3535.2	1.0832e-05	5.4e-08
300	3619.9	1.095e-05	5.5e-08
300	3692.7	1.1058e-05	5.6e-08
300	3760	1.1166e-05	5.6e-08
300	3800.7	1.1232e-05	5.7e-08
300	3838	1.13e-05	5.7e-08
310	99.999	9.6e-06	4.8e-08
310	123.15	9.605e-06	4.8e-08
310	148.48	9.607e-06	4.8e-08
310	175.41	9.609e-06	4.8e-08
310	200.44	9.617e-06	4.8e-08
310	226.3	9.62e-06	4.8e-08
310	248.76	9.621e-06	4.8e-08
310	274.29	9.624e-06	4.8e-08
310	299.7	9.629e-06	4.9e-08
310	328.47	9.631e-06	4.9e-08
310	354.89	9.635e-06	4.9e-08
310	382.87	9.635e-06	4.9e-08
310	439.93	9.645e-06	4.9e-08
310	468.57	9.648e-06	4.9e-08
310	498.24	9.654e-06	4.9e-08
310	533.99	9.659e-06	4.9e-08
310	581.86	9.666e-06	4.9e-08
310	623.38	9.675e-06	4.9e-08
310	670.29	9.678e-06	4.9e-08
310	714	9.686e-06	4.9e-08
310	756.22	9.694e-06	4.9e-08
310	815.85	9.706e-06	4.9e-08
310	859.52	9.711e-06	4.9e-08
310	924.11	9.726e-06	4.9e-08
310	983.07	9.738e-06	4.9e-08
310	1052.8	9.752e-06	4.9e-08
310	1133.6	9.77e-06	4.9e-08
310	1191.4	9.785e-06	4.9e-08
310	1251.4	9.798e-06	4.9e-08
310	1357.6	9.824e-06	4.9e-08
310	1428.8	9.843e-06	5e-08
310	1497.2	9.862e-06	5e-08
310	1568.9	9.884e-06	5e-08
310	1607.5	9.895e-06	5e-08
310	1714.1	9.928e-06	5e-08
310	1790.8	9.952e-06	5e-08
310	1833.7	9.967e-06	5e-08
310	1917.4	9.996e-06	5e-08
310	1998.3	1.0026e-05	5e-08
310	2078.3	1.0055e-05	5.1e-08
310	2158	1.0087e-05	5.1e-08
310	2236.3	1.012e-05	5.1e-08
310	2348.3	1.0168e-05	5.1e-08
310	2449.3	1.0218e-05	5.1e-08
310	2529.4	1.0255e-05	5.2e-08
310	2633.4	1.0306e-05	5.2e-08
310	2741.5	1.0366e-05	5.2e-08
310	2846.9	1.0431e-05	5.2e-08
310	2926.8	1.0481e-05	5.3e-08
310	3015.6	1.0532e-05	5.3e-08
310	3161	1.0633e-05	5.3e-08
310	3229.9	1.0685e-05	5.4e-08
310	3346.2	1.0776e-05	5.4e-08
310	3445.6	1.0859e-05	5.4e-08
310	3573.2	1.0969e-05	5.5e-08
310	3666.3	1.1063e-05	5.5e-08
310	3799.1	1.1212e-05	5.6e-08
310	3907.9	1.1337e-05	5.7e-08
310	4097	1.1589e-05	5.8e-08
310	4223.4	1.1787e-05	5.9e-08
310	4370.5	1.2053e-05	6.1e-08
310	4494.9	1.2316e-05	6.3e-08
310	4596.3	1.2557e-05	6.5e-08
310	4702.6	1.2879e-05	6.7e-08
310	4809.2	1.3245e-05	7e-08
310	4892.2	1.3594e-05	7.6e-08
310	4941.2	1.3843e-05	7.8e-08
310	5009.4	1.4242e-05	8.2e-08
310	5055.9	1.4569e-05	8.7e-08
310	5108.7	1.5031e-05	1.02e-07
310	5164	1.564e-05	1.15e-07
310	5195.5	1.6108e-05	1.34e-07
310	5222.4	1.6594e-05	1.61e-07
310	5255.5	1.7227e-05	1.96e-07
310	5272.2	1.7793e-05	2.04e-07
310	5296.9	1.8499e-05	2.22e-07
310	5317.4	1.9216e-05	2.35e-07
310	5335.7	2.0022e-05	2.36e-07
310	5354.2	2.0925e-05	2.92e-07
310	5374.8	2.1827e-05	2.96e-07
310	5394.8	2.2778e-05	2.93e-07
310	5414	2.3525e-05	2.84e-07
310	5435.1	2.4283e-05	2.85e-07
310	5460.2	2.5147e-05	3.15e-07
310	5493.2	2.601e-05	3.11e-07
310	5530.6	2.6891e-05	2.99e-07
310	5581.2	2.7863e-05	3e-07
310	5645.5	2.8898e-05	3.25e-07
310	5736.2	2.9978e-05	3.34e-07
310	5848.8	3.1134e-05	3.45e-07
310	5991.9	3.2358e-05	3.5e-07
310	6166.7	3.3593e-05	3.44e-07
310	6385.6	3.4917e-05	3.23e-07
310	6844.2	3.7132e-05	2.89e-07
310	7383.2	3.922e-05	2.7e-07
310	8208.1	4.1793e-05	2.58e-07
310	8880.4	4.3561e-05	2.57e-07
310	9706.3	4.5447e-05	2.62e-07
310	10618	4.7357e-05	2.65e-07
310	11697	4.9395e-05	2.72e-07
310	12756	5.1214e-05	2.8e-07
310	14805	5.4366e-05	2.91e-07
310	16313	5.6464e-05	3.01e-07
310	18248	5.8971e-05	3.12e-07
310	19609	6.0659e-05	3.19e-07
310	22390	6.3843e-05	3.34e-07
310	24935	6.6613e-05	3.48e-07
320	119.57	9.899e-06	5e-08
320	152.92	9.904e-06	5e-08
320	181.5	9.91e-06	5e-08
320	215.3	9.914e-06	5e-08
320	243.93	9.918e-06	5e-08
320	278.7	9.923e-06	5e-08
320	313.02	9.927e-06	5e-08
320	345.57	9.932e-06	5e-08
320	377.95	9.933e-06	5e-08
320	412.1	9.939e-06	5e-08
320	448.82	9.943e-06	5e-08
320	477.8	9.951e-06	5e-08
320	509.18	9.955e-06	5e-08
320	544.11	9.961e-06	5e-08
320	584.95	9.962e-06	5e-08
320	620.2	9.973e-06	5e-08
320	670.29	9.979e-06	5e-08
320	719.06	9.984e-06	5e-08
320	781.87	9.995e-06	5e-08
320	854.01	1.0014e-05	5e-08
320	899.65	1.0024e-05	5e-08
320	952.26	1.003e-05	5.1e-08
320	1049.8	1.0049e-05	5.1e-08
320	1125.9	1.0067e-05	5.1e-08
320	1222.5	1.0088e-05	5.1e-08
320	1345.6	1.0119e-05	5.1e-08
320	1449.6	1.0148e-05	5.1e-08
320	1525.6	1.0164e-05	5.1e-08
320	1639	1.0199e-05	5.1e-08
320	1757	1.0236e-05	5.2e-08
320	1853.7	1.0266e-05	5.2e-08
320	1962.1	1.0301e-05	5.2e-08
320	2068.2	1.0334e-05	5.2e-08
320	2212	1.0391e-05	5.2e-08
320	2327.4	1.0439e-05	5.3e-08
320	2466.7	1.0494e-05	5.3e-08
320	2594.2	1.0553e-05	5.3e-08
320	2710.6	1.0612e-05	5.3e-08
320	2850.1	1.0679e-05	5.4e-08
320	2965.5	1.0746e-05	5.4e-08
320	3083.1	1.0813e-05	5.4e-08
320	3226.8	1.0897e-05	5.5e-08
320	3372.1	1.1e-05	5.5e-08
320	3495.1	1.1081e-05	5.6e-08
320	3628	1.1181e-05	5.6e-08
320	3711.2	1.1252e-05	5.6e-08
320	3995.5	1.1503e-05	5.8e-08
320	4174.2	1.1685e-05	5.9e-08
320	4326.4	1.1861e-05	6e-08
320	4506.5	1.2091e-05	6.1e-08
320	4679.8	1.2347e-05	6.2e-08
320	4802.6	1.2552e-05	6.3e-08
320	4971.5	1.2864e-05	6.5e-08
320	5150.2	1.3264e-05	7.1e-08
320	5276	1.3578e-05	7.5e-08
320	5401.1	1.3948e-05	9.1e-08
320	5516.4	1.4351e-05	1.11e-07
320	5655.9	1.4933e-05	1.15e-07
320	5738.6	1.5335e-05	2.08e-07
320	5847.9	1.5926e-05	2.44e-07
320	5934.6	1.6518e-05	3.37e-07
320	6017.4	1.7154e-05	2.4e-07
320	6083.4	1.7701e-05	2.99e-07
320	6131.8	1.8172e-05	2.87e-07
320	6201.3	1.89e-05	1.66e-07
320	6270.1	1.9653e-05	2.47e-07
320	6344.6	2.0562e-05	3.2e-07
320	6421.5	2.1483e-05	1.6e-07
320	6484.3	2.222e-05	1.63e-07
320	6542.4	2.2947e-05	1.95e-07
320	6603.2	2.363e-05	1.7e-07
320	6699.9	2.4705e-05	2.24e-07
320	6820.6	2.59e-05	2e-07
320	6970	2.7184e-05	1.93e-07
320	7084.6	2.8142e-05	1.94e-07
320	7278.4	2.9498e-05	2.07e-07
320	7560.5	3.1136e-05	2.14e-07
320	7921.5	3.295e-05	2.2e-07
320	8226.4	3.4264e-05	2.23e-07
320	8606.9	3.5683e-05	2.25e-07
320	9057.3	3.7169e-05	2.29e-07
320	9550.8	3.8629e-05	2.31e-07
320	10191	4.0328e-05	2.36e-07
320	10925	4.2047e-05	2.39e-07
320	12245	4.4767e-05	2.48e-07
320	13361	4.6799e-05	2.55e-07
320	15697	5.0504e-05	2.7e-07
320	17376	5.2899e-05	2.81e-07
320	19353	5.5434e-05	2.92e-07
320	21685	5.8259e-05	3.02e-07
320	24197	6.1045e-05	3.18e-07
320	25347	6.228e-05	3.24e-07
340	105.61	1.0478e-05	5.3e-08
340	135.53	1.0485e-05	5.3e-08
340	173	1.0492e-05	5.3e-08
340	203.75	1.0498e-05	5.3e-08
340	246.71	1.0506e-05	5.3e-08
340	281.07	1.0513e-05	5.3e-08
340	317.73	1.0514e-05	5.3e-08
340	340.53	1.0519e-05	5.3e-08
340	365.44	1.0524e-05	5.3e-08
340	406.17	1.0531e-05	5.3e-08
340	430.83	1.0534e-05	5.3e-08
340	471.02	1.0534e-05	5.3e-08
340	524	1.0548e-05	5.3e-08
340	563.09	1.0552e-05	5.3e-08
340	632.12	1.0567e-05	5.3e-08
340	668.44	1.0571e-05	5.3e-08
340	746.01	1.0583e-05	5.3e-08
340	826.84	1.0595e-05	5.3e-08
340	865.72	1.0604e-05	5.3e-08
340	924.23	1.0618e-05	5.3e-08
340	978.06	1.0628e-05	5.3e-08
340	1047.1	1.064e-05	5.4e-08
340	1133.5	1.0658e-05	5.4e-08
340	1206.6	1.0676e-05	5.4e-08
340	1333.7	1.0708e-05	5.4e-08
340	1452.9	1.0739e-05	5.4e-08
340	1550	1.0756e-05	5.4e-08
340	1616	1.0777e-05	5.4e-08
340	1729.5	1.081e-05	5.4e-08
340	1841.8	1.0842e-05	5.5e-08
340	1956.3	1.0878e-05	5.5e-08
340	2076	1.0919e-05	5.5e-08
340	2208.9	1.0962e-05	5.5e-08
340	2348.8	1.101e-05	5.5e-08
340	2499	1.1068e-05	5.6e-08
340	2602.7	1.1106e-05	5.6e-08
340	2711.9	1.1151e-05	5.6e-08
340	2892.8	1.123e-05	5.6e-08
340	3009.1	1.1281e-05	5.7e-08
340	3131.3	1.134e-05	5.7e-08
340	3257.1	1.1402e-05	5.7e-08
340	3452.1	1.1504e-05	5.8e-08
340	3564.4	1.1568e-05	5.8e-08
340	3674.2	1.1631e-05	5.8e-08
340	3778.4	1.1693e-05	5.9e-08
340	3876	1.1752e-05	5.9e-08
340	3952.9	1.1799e-05	5.9e-08
340	4079.4	1.1892e-05	6e-08
340	4236.7	1.2e-05	6e-08
340	4399	1.213e-05	6.1e-08
340	4487.2	1.22e-05	6.1e-08
340	4577.5	1.2275e-05	6.2e-08
340	4669.5	1.2358e-05	6.2e-08
340	4964.9	1.2636e-05	6.3e-08
340	5080.4	1.2757e-05	6.4e-08
340	5188.4	1.2876e-05	6.5e-08
340	5312.3	1.3019e-05	6.5e-08
340	5429.8	1.3156e-05	6.6e-08
340	5556.8	1.3313e-05	7.1e-08
340	6232.1	1.4377e-05	7.6e-08
340	6448.5	1.4812e-05	8e-08
340	6663.5	1.5284e-05	1.02e-07
340	6848.4	1.5737e-05	8.9e-08
340	7040.9	1.6265e-05	1.06e-07
340	7221.8	1.6804e-05	1.35e-07
340	7403.8	1.7397e-05	1.1e-07
340	7583.4	1.802e-05	1.07e-07
340	8081.6	2.0031e-05	1.37e-07
340	8262.8	2.081e-05	1.24e-07
340	8448.5	2.1646e-05	1.79e-07
340	8644.6	2.2543e-05	1.33e-07
340	8861.9	2.3501e-05	1.65e-07
340	9077.1	2.4427e-05	1.47e-07
340	9322.7	2.5459e-05	1.74e-07
340	9574.5	2.6471e-05	1.54e-07
340	9854.7	2.7537e-05	1.58e-07
340	10697	3.0401e-05	1.78e-07
340	11140	3.1701e-05	1.79e-07
340	11651	3.3123e-05	1.88e-07
340	12243	3.4616e-05	1.93e-07
340	12873	3.6055e-05	1.99e-07
340	13585	3.755e-05	2.05e-07
340	14512	3.933e-05	2.12e-07
340	15608	4.1267e-05	2.22e-07
340	16887	4.333e-05	2.31e-07
340	18734	4.5995e-05	2.43e-07
340	20544	4.8385e-05	2.54e-07
340	22692	5.1005e-05	2.66e-07
340	24738	5.3295e-05	2.79e-07
370	113.32	1.1348e-05	5.7e-08
370	147.46	1.1356e-05	5.7e-08
370	180.32	1.1363e-05	5.7e-08
370	219.78	1.1368e-05	5.7e-08
370	250.53	1.1374e-05	5.7e-08
370	277.77	1.1378e-05	5.7e-08
370	320.51	1.1385e-05	5.7e-08
370	346.69	1.1388e-05	5.7e-08
370	373.36	1.1395e-05	5.7e-08
370	400.72	1.1401e-05	5.7e-08
370	439.73	1.1403e-05	5.7e-08
370	485.6	1.1418e-05	5.7e-08
370	519.47	1.1418e-05	5.7e-08
370	562.25	1.143e-05	5.7e-08
370	598.82	1.143e-05	5.7e-08
370	639.5	1.1436e-05	5.7e-08
370	742.62	1.145e-05	5.8e-08
370	790.53	1.1457e-05	5.8e-08
370	851.13	1.1471e-05	5.8e-08
370	897.21	1.1483e-05	5.8e-08
370	957.22	1.1492e-05	5.8e-08
370	1061.3	1.1509e-05	5.8e-08
370	1145.1	1.1528e-05	5.8e-08
370	1245	1.1552e-05	5.8e-08
370	1356.8	1.1578e-05	5.8e-08
370	1444.2	1.1598e-05	5.8e-08
370	1544	1.1617e-05	5.8e-08
370	1691.6	1.1658e-05	5.9e-08
370	1792.1	1.168e-05	5.9e-08
370	1890.4	1.1711e-05	5.9e-08
370	2039.8	1.1752e-05	5.9e-08
370	2203.9	1.1797e-05	5.9e-08
370	2348.7	1.184e-05	5.9e-08
370	2474.5	1.1879e-05	6e-08
370	2660.2	1.1942e-05	6e-08
370	2735.4	1.1968e-05	6e-08
370	2950	1.2044e-05	6e-08
370	3097.6	1.2102e-05	6.1e-08
370	3253.8	1.216e-05	6.1e-08
370	3413.1	1.2228e-05	6.1e-08
370	3571.8	1.2292e-05	6.2e-08
370	3749.7	1.2377e-05	6.2e-08
370	4010.6	1.2497e-05	6.3e-08
370	4256.8	1.2623e-05	6.3e-08
370	4408.2	1.2698e-05	6.4e-08
370	4642.8	1.2835e-05	6.4e-08
370	4829.1	1.2946e-05	6.5e-08
370	5031.8	1.3072e-05	6.6e-08
370	5303.7	1.3255e-05	6.6e-08
370	5567.2	1.3442e-05	6.7e-08
370	5790.4	1.3615e-05	6.8e-08
370	5962.1	1.3746e-05	6.9e-08
370	6228.2	1.3978e-05	7e-08
370	6502.9	1.4221e-05	7.1e-08
370	6800.2	1.4517e-05	7.3e-08
370	7065	1.4802e-05	7.4e-08
370	7360.2	1.5129e-05	7.7e-08
370	7672.9	1.5508e-05	7.9e-08
370	8020.1	1.597e-05	8.5e-08
370	8250.4	1.6295e-05	8.3e-08
370	8589.3	1.6805e-05	9.1e-08
370	8848.5	1.7219e-05	9e-08
370	9106.3	1.7645e-05	9.2e-08
370	9463.4	1.8297e-05	1e-07
370	9764.3	1.8862e-05	1.05e-07
370	10125	1.957e-05	1.04e-07
370	10524	2.0405e-05	1.2e-07
370	10821	2.1036e-05	1.17e-07
370	11121	2.1682e-05	1.17e-07
370	11584	2.2696e-05	1.24e-07
370	11948	2.3495e-05	1.34e-07
370	12311	2.4276e-05	1.32e-07
370	12696	2.5117e-05	1.41e-07
370	13112	2.6008e-05	1.4e-07
370	14179	2.817e-05	1.54e-07
370	14733	2.9235e-05	1.56e-07
370	15324	3.0329e-05	1.63e-07
370	15969	3.1489e-05	1.67e-07
370	17164	3.348e-05	1.78e-07
370	18821	3.5995e-05	1.9e-07
370	20693	3.8582e-05	2.03e-07
370	23709	4.2285e-05	2.21e-07
370	25448	4.4242e-05	2.3e-07
370	27478	4.6379e-05	2.38e-07
370	29959	4.8814e-05	2.51e-07
400	113.97	1.2186e-05	6.1e-08
400	143.04	1.2196e-05	6.1e-08
400	172.06	1.2197e-05	6.1e-08
400	220.1	1.2205e-05	6.1e-08
400	256.28	1.2217e-05	6.1e-08
400	290.91	1.2219e-05	6.1e-08
400	313.22	1.2229e-05	6.1e-08
400	340.31	1.2231e-05	6.1e-08
400	379.05	1.2234e-05	6.1e-08
400	412.95	1.2241e-05	6.1e-08
400	452.22	1.2249e-05	6.1e-08
400	493.06	1.2255e-05	6.2e-08
400	539.15	1.2262e-05	6.2e-08
400	583.2	1.2268e-05	6.2e-08
400	612.6	1.2274e-05	6.2e-08
400	650.91	1.2281e-05	6.2e-08
400	697	1.2285e-05	6.2e-08
400	769.42	1.2302e-05	6.2e-08
400	828.12	1.2308e-05	6.2e-08
400	882.81	1.2319e-05	6.2e-08
400	935.77	1.2328e-05	6.2e-08
400	1048.2	1.2353e-05	6.2e-08
400	1174.6	1.2374e-05	6.2e-08
400	1279.3	1.2393e-05	6.2e-08
400	1386	1.242e-05	6.2e-08
400	1491.3	1.2438e-05	6.2e-08
400	1572.9	1.246e-05	6.3e-08
400	1673.5	1.2485e-05	6.3e-08
400	1797.2	1.2514e-05	6.3e-08
400	1896.5	1.2537e-05	6.3e-08
400	2054.7	1.2576e-05	6.3e-08
400	2240	1.2626e-05	6.3e-08
400	2392.1	1.2668e-05	6.4e-08
400	2533	1.2709e-05	6.4e-08
400	2674.5	1.2751e-05	6.4e-08
400	2841.8	1.2801e-05	6.4e-08
400	3003.5	1.2849e-05	6.4e-08
400	3194.5	1.2914e-05	6.5e-08
400	3340.9	1.2963e-05	6.5e-08
400	3516.8	1.303e-05	6.5e-08
400	3669.8	1.3081e-05	6.6e-08
400	3778.4	1.3118e-05	6.6e-08
400	3988	1.3199e-05	6.6e-08
400	4168.4	1.3271e-05	6.7e-08
400	4352.6	1.335e-05	6.7e-08
400	4582.4	1.3448e-05	6.7e-08
400	4783.4	1.3541e-05	6.8e-08
400	4973.1	1.3626e-05	6.8e-08
400	5178.5	1.3726e-05	6.9e-08
400	5404.2	1.3845e-05	6.9e-08
400	5646.7	1.3972e-05	7e-08
400	5902.2	1.4113e-05	7.1e-08
400	6167	1.4269e-05	7.2e-08
400	6465.3	1.4452e-05	7.2e-08
400	6870	1.4719e-05	7.4e-08
400	7332.7	1.5041e-05	7.5e-08
400	7767.6	1.5374e-05	7.7e-08
400	8216.2	1.5739e-05	7.9e-08
400	8682.8	1.6145e-05	8.1e-08
400	9060	1.6498e-05	8.3e-08
400	9435.6	1.6863e-05	8.5e-08
400	9837.1	1.7281e-05	8.7e-08
400	10232	1.7709e-05	8.9e-08
400	10615	1.814e-05	9.3e-08
400	11009	1.8607e-05	9.5e-08
400	11425	1.9125e-05	9.8e-08
400	11864	1.9686e-05	1.01e-07
400	12272	2.021e-05	1.04e-07
400	12725	2.0829e-05	1.08e-07
400	13189	2.1469e-05	1.11e-07
400	14034	2.2657e-05	1.19e-07
400	14540	2.3377e-05	1.24e-07
400	15072	2.413e-05	1.25e-07
400	15650	2.4976e-05	1.3e-07
400	16442	2.6082e-05	1.36e-07
400	17258	2.7218e-05	1.42e-07
400	18095	2.8359e-05	1.5e-07
400	18892	2.9423e-05	1.54e-07
400	19765	3.0538e-05	1.6e-07
400	20714	3.171e-05	1.65e-07
400	21765	3.2988e-05	1.7e-07
400	22931	3.4351e-05	1.78e-07
400	24246	3.5793e-05	1.84e-07
400	25689	3.7349e-05	1.93e-07
400	27359	3.9012e-05	2.01e-07
400	29228	4.0859e-05	2.12e-07
430	138.54	1.3004e-05	6.5e-08
430	186.79	1.3017e-05	6.5e-08
430	220.94	1.3025e-05	6.5e-08
430	248.21	1.3029e-05	6.5e-08
430	284.7	1.3037e-05	6.5e-08
430	314.45	1.3039e-05	6.5e-08
430	338.2	1.3044e-05	6.5e-08
430	360.36	1.3047e-05	6.5e-08
430	400.1	1.3055e-05	6.6e-08
430	429.22	1.3061e-05	6.6e-08
430	460.5	1.307e-05	6.6e-08
430	521.75	1.3078e-05	6.6e-08
430	572.47	1.3084e-05	6.6e-08
430	607.44	1.3088e-05	6.6e-08
430	670.06	1.31e-05	6.6e-08
430	737.74	1.3109e-05	6.6e-08
430	783.92	1.3117e-05	6.6e-08
430	862.64	1.3132e-05	6.6e-08
430	905.7	1.3137e-05	6.6e-08
430	976.56	1.315e-05	6.6e-08
430	1087.4	1.317e-05	6.6e-08
430	1180.9	1.3186e-05	6.6e-08
430	1348.4	1.3222e-05	6.6e-08
430	1446.4	1.3243e-05	6.6e-08
430	1530.8	1.3261e-05	6.7e-08
430	1620.8	1.3279e-05	6.7e-08
430	1717.1	1.3298e-05	6.7e-08
430	1818	1.3321e-05	6.7e-08
430	1924.7	1.335e-05	6.7e-08
430	2096.8	1.3384e-05	6.7e-08
430	2291.4	1.3432e-05	6.7e-08
430	2428.1	1.3466e-05	6.8e-08
430	2573.5	1.3502e-05	6.8e-08
430	2724.2	1.3542e-05	6.8e-08
430	2898.6	1.3584e-05	6.8e-08
430	3053.2	1.363e-05	6.8e-08
430	3194.6	1.3675e-05	6.9e-08
430	3356.6	1.372e-05	6.9e-08
430	3507.9	1.3762e-05	6.9e-08
430	3656.9	1.3816e-05	6.9e-08
430	3831.3	1.3867e-05	7e-08
430	3954.5	1.3909e-05	7e-08
430	4110.6	1.3959e-05	7e-08
430	4343.8	1.4041e-05	7e-08
430	4492.1	1.4094e-05	7.1e-08
430	4786	1.4204e-05	7.1e-08
430	5105.4	1.4321e-05	7.2e-08
430	5477.7	1.4476e-05	7.3e-08
430	5739.3	1.4595e-05	7.3e-08
430	6014.3	1.4713e-05	7.4e-08
430	6310.1	1.4847e-05	7.4e-08
430	6613.3	1.5002e-05	7.5e-08
430	6932.1	1.5166e-05	7.6e-08
430	7322.6	1.5369e-05	7.7e-08
430	7787.2	1.563e-05	7.8e-08
430	8292.4	1.5933e-05	8e-08
430	8671	1.6168e-05	8.1e-08
430	9056.8	1.6422e-05	8.2e-08
430	9598.5	1.679e-05	8.4e-08
430	10163	1.7209e-05	8.6e-08
430	10894	1.7771e-05	8.9e-08
430	11360	1.8155e-05	9.1e-08
430	11839	1.8552e-05	9.4e-08
430	12362	1.9017e-05	9.6e-08
430	12882	1.9498e-05	9.9e-08
430	13394	1.997e-05	1.01e-07
430	14177	2.0727e-05	1.05e-07
430	14772	2.1307e-05	1.09e-07
430	15400	2.1957e-05	1.12e-07
430	16025	2.2601e-05	1.16e-07
430	16743	2.3359e-05	1.2e-07
430	17527	2.4186e-05	1.24e-07
430	18351	2.5052e-05	1.29e-07
430	19231	2.5984e-05	1.34e-07
430	20081	2.6868e-05	1.39e-07
430	21171	2.7994e-05	1.44e-07
430	22413	2.9262e-05	1.51e-07
430	23636	3.0478e-05	1.57e-07
430	24931	3.1734e-05	1.63e-07
430	26291	3.2995e-05	1.7e-07
430	27712	3.4317e-05	1.77e-07
430	29313	3.5728e-05	1.84e-07
430	30906	3.7098e-05	1.91e-07
