Measured thermophysical data. Density and Relative Permittivity for 1-Alkanols + Dodecane at 298.15 K
Source: J. Chem. Eng. Data, 2005, 10.1021/je050116g
Compound 1: dodecane, C12H26, InChI=1S/C12H26/c1-3-5-7-9-11-12-10-8-6-4-2/h3-12H2,1-2H3
Compound 2: methanol, CH4O, InChI=1S/CH4O/c1-2/h2H,1H3
Compound 3: ethanol, C2H6O, InChI=1S/C2H6O/c1-2-3/h3H,2H2,1H3
Compound 4: propan-1-ol, C3H8O, InChI=1S/C3H8O/c1-2-3-4/h4H,2-3H2,1H3
Compound 5: butan-1-ol, C4H10O, InChI=1S/C4H10O/c1-2-3-4-5/h5H,2-4H2,1H3
Compound 6: pentan-1-ol, C5H12O, InChI=1S/C5H12O/c1-2-3-4-5-6/h6H,2-5H2,1H3
Compound 7: hexan-1-ol, C6H14O, InChI=1S/C6H14O/c1-2-3-4-5-6-7/h7H,2-6H2,1H3
Compound 8: heptan-1-ol, C7H16O, InChI=1S/C7H16O/c1-2-3-4-5-6-7-8/h8H,2-7H2,1H3
Compound 9: octan-1-ol, C8H18O, InChI=1S/C8H18O/c1-2-3-4-5-6-7-8-9/h9H,2-8H2,1H3
Compound 10: nonan-1-ol, C9H20O, InChI=1S/C9H20O/c1-2-3-4-5-6-7-8-9-10/h10H,2-9H2,1H3
Compound 11: decan-1-ol, C10H22O, InChI=1S/C10H22O/c1-2-3-4-5-6-7-8-9-10-11/h11H,2-10H2,1H3

System: dodecane; phases: Liquid
Property: Mass density, kg/m3 (Liquid); method: VIBTUB:UFactor:2
Temperature, K	Pressure, kPa	Mass density, kg/m3	uncertainty
298.15	101.325	745.435	0.303

System: methanol; phases: Liquid
Property: Mass density, kg/m3 (Liquid); method: VIBTUB:UFactor:2
Temperature, K	Pressure, kPa	Mass density, kg/m3	uncertainty
298.15	101.325	786.538	0.304

System: ethanol; phases: Liquid
Property: Mass density, kg/m3 (Liquid); method: VIBTUB:UFactor:2
Temperature, K	Pressure, kPa	Mass density, kg/m3	uncertainty
298.15	101.325	785.055	0.29

System: propan-1-ol; phases: Liquid
Property: Mass density, kg/m3 (Liquid); method: VIBTUB:UFactor:2
Temperature, K	Pressure, kPa	Mass density, kg/m3	uncertainty
298.15	101.325	799.564	0.283

System: butan-1-ol; phases: Liquid
Property: Mass density, kg/m3 (Liquid); method: VIBTUB:UFactor:2
Temperature, K	Pressure, kPa	Mass density, kg/m3	uncertainty
298.15	101.325	805.767	0.29

System: pentan-1-ol; phases: Liquid
Property: Mass density, kg/m3 (Liquid); method: VIBTUB:UFactor:2
Temperature, K	Pressure, kPa	Mass density, kg/m3	uncertainty
298.15	101.325	810.883	0.274

System: hexan-1-ol; phases: Liquid
Property: Mass density, kg/m3 (Liquid); method: VIBTUB:UFactor:2
Temperature, K	Pressure, kPa	Mass density, kg/m3	uncertainty
298.15	101.325	815.275	0.27

System: heptan-1-ol; phases: Liquid
Property: Mass density, kg/m3 (Liquid); method: VIBTUB:UFactor:2
Temperature, K	Pressure, kPa	Mass density, kg/m3	uncertainty
298.15	101.325	818.746	0.267

System: octan-1-ol; phases: Liquid
Property: Mass density, kg/m3 (Liquid); method: VIBTUB:UFactor:2
Temperature, K	Pressure, kPa	Mass density, kg/m3	uncertainty
298.15	101.325	821.694	0.422

System: nonan-1-ol; phases: Liquid
Property: Mass density, kg/m3 (Liquid); method: VIBTUB:UFactor:2
Temperature, K	Pressure, kPa	Mass density, kg/m3	uncertainty
298.15	101.325	824.263	0.267

System: decan-1-ol; phases: Liquid
Property: Mass density, kg/m3 (Liquid); method: VIBTUB:UFactor:2
Temperature, K	Pressure, kPa	Mass density, kg/m3	uncertainty
298.15	101.325	826.421	0.267

System: methanol + dodecane; phases: Liquid
Fixed: Temperature, K = 298.15
Fixed: Pressure, kPa = 101.325
Fixed: Frequency, MHz = 0.03
Property: Relative permittivity at various frequencies (Liquid); method: Parallel plate capacitor
Mole fraction of methanol	Relative permittivity at various frequencies	uncertainty
0.000771	2.008222	0.000346
0.001621	2.009272	0.000347
0.00274	2.010659	0.000347
0.003489	2.011589	0.000348
0.004562	2.012925	0.000339
0.005874	2.014482	0.000321
0.008056	2.016939	0.000297
0.010608	2.019513	0.000274
0.013096	2.021872	0.00026
0.014907	2.023498	0.000243
0.018967	2.02697	0.000233
0.02456	2.031548	0.000227
0.03063	2.036439	0.000231
0.03798	2.042625	0.000242
0.04663	2.050229	0.000255
0.05524	2.05834	0.000277
0.06621	2.069539	0.000308
0.08007	2.085608	0.000325

System: methanol + dodecane; phases: Liquid
Fixed: Temperature, K = 298.15
Fixed: Pressure, kPa = 101.325
Property: Mass density, kg/m3 (Liquid); method: VIBTUB:UFactor:2
Mole fraction of methanol	Mass density, kg/m3	uncertainty
0.00135	745.406	0.262
0.00185	745.4	0.262
0.00406	745.379	0.262
0.00925	745.332	0.262
0.01113	745.324	0.262
0.01828	745.284	0.262
0.02969	745.265	0.262
0.0464	745.259	0.262
0.0642	745.271	0.262
0.08321	745.289	0.262
0.09518	745.306	0.262

System: ethanol + dodecane; phases: Liquid
Fixed: Temperature, K = 298.15
Fixed: Pressure, kPa = 101.325
Fixed: Frequency, MHz = 0.03
Property: Relative permittivity at various frequencies (Liquid); method: Parallel plate capacitor
Mole fraction of ethanol	Relative permittivity at various frequencies	uncertainty
0.000779	2.008124	0.000347
0.001608	2.009152	0.000348
0.002571	2.01035	0.000348
0.003578	2.011599	0.000348
0.004642	2.012927	0.000341
0.005982	2.014531	0.00033
0.007701	2.016532	0.000318
0.009387	2.0184	0.000303
0.011113	2.020222	0.000279
0.013085	2.02209	0.000257
0.015887	2.024614	0.000242
0.02008	2.028153	0.000231
0.02502	2.032142	0.000224
0.03098	2.036888	0.000224
0.03829	2.042741	0.000227
0.04601	2.049071	0.000236
0.055	2.056819	0.00025
0.06553	2.066488	0.000267
0.07632	2.077165	0.00029
0.08814	2.089857	0.000318
0.1017	2.105961	0.000333

System: ethanol + dodecane; phases: Liquid
Fixed: Temperature, K = 298.15
Fixed: Pressure, kPa = 101.325
Property: Mass density, kg/m3 (Liquid); method: VIBTUB:UFactor:2
Mole fraction of ethanol	Mass density, kg/m3	uncertainty
0.00284	745.404	0.262
0.0035	745.397	0.262
0.00482	745.386	0.262
0.0076	745.363	0.262
0.01169	745.338	0.262
0.01342	745.329	0.262
0.0189	745.313	0.262
0.02678	745.305	0.262
0.04127	745.348	0.262
0.06055	745.432	0.262
0.08084	745.514	0.262
0.09645	745.601	0.262

System: propan-1-ol + dodecane; phases: Liquid
Fixed: Temperature, K = 298.15
Fixed: Pressure, kPa = 101.325
Fixed: Frequency, MHz = 0.03
Property: Relative permittivity at various frequencies (Liquid); method: Parallel plate capacitor
Mole fraction of propan-1-ol	Relative permittivity at various frequencies	uncertainty
0.001113	2.008412	0.000344
0.001805	2.009261	0.000344
0.00262	2.010262	0.000346
0.003582	2.011456	0.000347
0.004766	2.012923	0.000345
0.006045	2.014492	0.000339
0.00741	2.016128	0.000327
0.00918	2.018154	0.000307
0.011305	2.020401	0.000284
0.014079	2.023126	0.000262
0.018183	2.026847	0.000242
0.0234	2.031194	0.000229
0.02953	2.036123	0.000223
0.03486	2.040329	0.000222
0.04243	2.046346	0.000224
0.05033	2.052715	0.000232
0.06022	2.061082	0.000243
0.07048	2.070192	0.000259
0.08292	2.082062	0.000279
0.09516	2.094737	0.000306
0.10999	2.111571	0.000318

System: propan-1-ol + dodecane; phases: Liquid
Fixed: Temperature, K = 298.15
Fixed: Pressure, kPa = 101.325
Property: Mass density, kg/m3 (Liquid); method: VIBTUB:UFactor:2
Mole fraction of propan-1-ol	Mass density, kg/m3	uncertainty
0.00273	745.43	0.262
0.00429	745.426	0.262
0.007	745.424	0.262
0.01162	745.429	0.262
0.0181	745.456	0.262
0.0248	745.504	0.262
0.04304	745.689	0.262
0.06062	745.916	0.262
0.07866	746.164	0.262
0.10253	746.495	0.261

System: butan-1-ol + dodecane; phases: Liquid
Fixed: Temperature, K = 298.15
Fixed: Pressure, kPa = 101.325
Fixed: Frequency, MHz = 0.03
Property: Relative permittivity at various frequencies (Liquid); method: Parallel plate capacitor
Mole fraction of butan-1-ol	Relative permittivity at various frequencies	uncertainty
0.000394	2.007748	0.000345
0.001092	2.008608	0.000347
0.001852	2.009553	0.000347
0.002663	2.010557	0.000348
0.003575	2.011694	0.000349
0.004582	2.012951	0.000348
0.005742	2.014384	0.000341
0.007082	2.015999	0.000331
0.008478	2.017621	0.000317
0.009996	2.019302	0.000299
0.01196	2.021339	0.000281
0.014717	2.024049	0.000267
0.01783	2.026932	0.000251
0.02067	2.029389	0.000236
0.0262	2.033992	0.000228
0.03349	2.039841	0.000224
0.04201	2.046631	0.000225
0.05197	2.05466	0.000229
0.06201	2.062984	0.000238
0.07269	2.072278	0.000253
0.08613	2.084755	0.000269
0.09876	2.097321	0.000279

System: butan-1-ol + dodecane; phases: Liquid
Fixed: Temperature, K = 298.15
Fixed: Pressure, kPa = 101.325
Property: Mass density, kg/m3 (Liquid); method: VIBTUB:UFactor:2
Mole fraction of butan-1-ol	Mass density, kg/m3	uncertainty
0.00247	745.45	0.262
0.00337	745.455	0.262
0.00504	745.466	0.262
0.0089	745.497	0.262
0.01274	745.535	0.262
0.01568	745.569	0.262
0.02553	745.703	0.262
0.04126	745.979	0.262
0.06044	746.372	0.261
0.07754	746.736	0.261
0.10338	747.278	0.261

System: pentan-1-ol + dodecane; phases: Liquid
Fixed: Temperature, K = 298.15
Fixed: Pressure, kPa = 101.325
Fixed: Frequency, MHz = 0.03
Property: Relative permittivity at various frequencies (Liquid); method: Parallel plate capacitor
Mole fraction of pentan-1-ol	Relative permittivity at various frequencies	uncertainty
0.000482	2.007671	0.000353
0.001089	2.008436	0.000352
0.001796	2.009324	0.000351
0.002589	2.010318	0.000353
0.00344	2.011396	0.000355
0.004549	2.012804	0.000354
0.005875	2.014478	0.000349
0.007295	2.01623	0.000336
0.009216	2.018495	0.000317
0.011622	2.021135	0.000296
0.014101	2.023652	0.000274
0.01688	2.026285	0.000255
0.0211	2.030031	0.000241
0.02571	2.033879	0.000229
0.03208	2.039026	0.000224
0.03962	2.044995	0.000223
0.04963	2.052978	0.000226
0.05931	2.060899	0.000232
0.07029	2.070108	0.000241
0.08177	2.08023	0.000254
0.09402	2.091619	0.000269
0.10681	2.10429	0.000277

System: pentan-1-ol + dodecane; phases: Liquid
Fixed: Temperature, K = 298.15
Fixed: Pressure, kPa = 101.325
Property: Mass density, kg/m3 (Liquid); method: VIBTUB:UFactor:2
Mole fraction of pentan-1-ol	Mass density, kg/m3	uncertainty
0.00199	745.463	0.262
0.00476	745.503	0.262
0.00753	745.546	0.262
0.01643	745.714	0.262
0.02691	745.951	0.262
0.03525	746.159	0.262
0.05055	746.571	0.262
0.06514	746.983	0.261
0.08115	747.444	0.261
0.09931	747.979	0.261

System: hexan-1-ol + dodecane; phases: Liquid
Fixed: Temperature, K = 298.15
Fixed: Pressure, kPa = 101.325
Fixed: Frequency, MHz = 0.03
Property: Relative permittivity at various frequencies (Liquid); method: Parallel plate capacitor
Mole fraction of hexan-1-ol	Relative permittivity at various frequencies	uncertainty
0.000504	2.00799	0.000356
0.001087	2.008731	0.000356
0.001795	2.009633	0.000357
0.002783	2.010894	0.000357
0.004043	2.012498	0.000356
0.005459	2.014299	0.000353
0.006744	2.015904	0.000341
0.008507	2.018017	0.000327
0.010459	2.02024	0.000306
0.012777	2.02269	0.000281
0.016562	2.026391	0.000265
0.02	2.029519	0.000246
0.02535	2.034118	0.000235
0.03116	2.038875	0.000227
0.03741	2.043878	0.000224
0.04472	2.049696	0.000224
0.05324	2.056521	0.000226
0.06176	2.063462	0.000232
0.07197	2.072	0.000239
0.08324	2.081771	0.000249
0.0941	2.09164	0.00026
0.10523	2.102215	0.000266

System: hexan-1-ol + dodecane; phases: Liquid
Fixed: Temperature, K = 298.15
Fixed: Pressure, kPa = 101.325
Property: Mass density, kg/m3 (Liquid); method: VIBTUB:UFactor:2
Mole fraction of hexan-1-ol	Mass density, kg/m3	uncertainty
0.00175	745.477	0.262
0.0046	745.539	0.262
0.00826	745.625	0.262
0.01788	745.888	0.262
0.02646	746.157	0.262
0.03537	746.455	0.262
0.04959	746.947	0.261
0.0656	747.525	0.261
0.07934	748.03	0.26
0.09708	748.704	0.26

System: heptan-1-ol + dodecane; phases: Liquid
Fixed: Temperature, K = 298.15
Fixed: Pressure, kPa = 101.325
Fixed: Frequency, MHz = 0.03
Property: Relative permittivity at various frequencies (Liquid); method: Parallel plate capacitor
Mole fraction of heptan-1-ol	Relative permittivity at various frequencies	uncertainty
0.000586	2.007864	0.000361
0.001199	2.008654	0.000361
0.001873	2.009525	0.000361
0.002621	2.010487	0.000362
0.003507	2.011638	0.000362
0.004712	2.013193	0.00036
0.006033	2.014886	0.000353
0.007493	2.016697	0.000342
0.009131	2.018667	0.000326
0.011034	2.020819	0.000305
0.013453	2.023382	0.000285
0.01639	2.026282	0.000263
0.02108	2.030551	0.000247
0.02571	2.034487	0.000234
0.03171	2.039427	0.000228
0.0379	2.044405	0.000225
0.04415	2.049401	0.000224
0.0517	2.055433	0.000226
0.06004	2.062194	0.00023
0.07079	2.071112	0.000236
0.08135	2.08016	0.000245
0.09339	2.090889	0.000257
0.10854	2.105048	0.000262

System: heptan-1-ol + dodecane; phases: Liquid
Fixed: Temperature, K = 298.15
Fixed: Pressure, kPa = 101.325
Property: Mass density, kg/m3 (Liquid); method: VIBTUB:UFactor:2
Mole fraction of heptan-1-ol	Mass density, kg/m3	uncertainty
0.00183	745.491	0.262
0.00384	745.55	0.262
0.00719	745.657	0.262
0.01509	745.934	0.262
0.02602	746.357	0.262
0.03537	746.74	0.261
0.04943	747.341	0.261
0.06486	748.019	0.26
0.08181	748.778	0.26
0.10235	749.709	0.259

System: octan-1-ol + dodecane; phases: Liquid
Fixed: Temperature, K = 298.15
Fixed: Pressure, kPa = 101.325
Fixed: Frequency, MHz = 0.03
Property: Relative permittivity at various frequencies (Liquid); method: Parallel plate capacitor
Mole fraction of octan-1-ol	Relative permittivity at various frequencies	uncertainty
0.000468	2.007818	0.000361
0.000994	2.008496	0.000361
0.00174	2.009458	0.000361
0.002707	2.010704	0.000362
0.003781	2.012094	0.000364
0.005049	2.013748	0.000364
0.006519	2.015655	0.000354
0.008207	2.017743	0.000337
0.009844	2.01966	0.000314
0.012661	2.022753	0.00029
0.016705	2.026791	0.000266
0.02183	2.031464	0.000246
0.02777	2.03652	0.000235
0.03323	2.041006	0.000227
0.0398	2.046276	0.000225
0.04865	2.053382	0.000226
0.05937	2.062047	0.000229
0.06843	2.069532	0.000233
0.0778	2.077407	0.00024
0.08823	2.086476	0.000247
0.09795	2.095204	0.000257
0.11105	2.107428	0.000261

System: octan-1-ol + dodecane; phases: Liquid
Fixed: Temperature, K = 298.15
Fixed: Pressure, kPa = 101.325
Property: Mass density, kg/m3 (Liquid); method: VIBTUB:UFactor:2
Mole fraction of octan-1-ol	Mass density, kg/m3	uncertainty
0.00204	745.513	0.262
0.00419	745.594	0.262
0.00734	745.718	0.262
0.01454	746.026	0.262
0.02591	746.56	0.262
0.03144	746.83	0.261
0.04912	747.72	0.261
0.06408	748.489	0.26
0.08146	749.394	0.26
0.10144	750.468	0.259

System: dodecane + nonan-1-ol; phases: Liquid
Fixed: Temperature, K = 298.15
Fixed: Pressure, kPa = 101.325
Fixed: Frequency, MHz = 0.03
Property: Relative permittivity at various frequencies (Liquid); method: Parallel plate capacitor
Mole fraction of nonan-1-ol	Relative permittivity at various frequencies	uncertainty
0.000477	2.007822	0.000367
0.001008	2.008517	0.000368
0.001576	2.009265	0.000368
0.002254	2.010153	0.000366
0.002998	2.011122	0.000367
0.003815	2.0122	0.00037
0.004639	2.013292	0.000369
0.005985	2.015058	0.000359
0.007553	2.017027	0.000344
0.009513	2.01939	0.000322
0.012351	2.022553	0.000294
0.01662	2.026872	0.000272
0.02124	2.03118	0.000256
0.0241	2.033697	0.000241
0.02897	2.03784	0.000233
0.03592	2.043555	0.000229
0.04265	2.049022	0.000227
0.04937	2.05445	0.000227
0.05678	2.060471	0.000229
0.06467	2.066955	0.000232
0.07288	2.073812	0.000236
0.08103	2.080753	0.000242
0.09058	2.089102	0.000249
0.10266	2.099992	0.000253

System: dodecane + nonan-1-ol; phases: Liquid
Fixed: Temperature, K = 298.15
Fixed: Pressure, kPa = 101.325
Property: Mass density, kg/m3 (Liquid); method: VIBTUB:UFactor:2
Mole fraction of nonan-1-ol	Mass density, kg/m3	uncertainty
0.00099	745.467	0.262
0.0047	745.637	0.262
0.00777	745.786	0.262
0.01456	746.133	0.262
0.02651	746.79	0.262
0.03533	747.291	0.262
0.05117	748.212	0.262
0.06465	749.011	0.262
0.08043	749.97	0.262
0.09832	751.064	0.261

System: decan-1-ol + dodecane; phases: Liquid
Fixed: Temperature, K = 298.15
Fixed: Pressure, kPa = 101.325
Fixed: Frequency, MHz = 0.03
Property: Relative permittivity at various frequencies (Liquid); method: Parallel plate capacitor
Mole fraction of decan-1-ol	Relative permittivity at various frequencies	uncertainty
0.001971	2.009738	0.000372
0.002902	2.010975	0.000372
0.003662	2.011985	0.000374
0.004525	2.01314	0.000374
0.005614	2.014591	0.00037
0.006788	2.016132	0.000361
0.007983	2.017642	0.000346
0.009268	2.019198	0.00033
0.010893	2.02107	0.000315
0.012832	2.023212	0.000303
0.014453	2.024922	0.000286
0.01654	2.027001	0.000273
0.01864	2.029002	0.000262
0.02121	2.031366	0.000247
0.02459	2.034256	0.000244
0.02958	2.038642	0.000238
0.03739	2.045142	0.000231
0.04685	2.052861	0.000229
0.05669	2.060885	0.00023
0.06704	2.06945	0.000234
0.07856	2.079149	0.000239
0.08846	2.087731	0.000248
0.10509	2.102617	0.000251

System: decan-1-ol + dodecane; phases: Liquid
Fixed: Temperature, K = 298.15
Fixed: Pressure, kPa = 101.325
Property: Mass density, kg/m3 (Liquid); method: VIBTUB:UFactor:2
Mole fraction of decan-1-ol	Mass density, kg/m3	uncertainty
0.001264	745.351	0.263
0.002235	745.401	0.263
0.00462	745.527	0.263
0.011828	745.934	0.262
0.032299	747.221	0.261
0.056688	748.861	0.26
0.083338	750.666	0.259
0.10691	752.273	0.258
