Measured thermophysical data. Excess Molar Enthalpies of Methyl Acetate and (1-Propanol, 2-Propanol, 1-Butanol, 2-Butanol, and 1-Pentanol) at T = (298.15 and 308.15) K and P = (5.0 and 10.0) MPa
Source: J. Chem. Eng. Data, 2005, 10.1021/je050175u
Compound 1: methyl ethanoate, C3H6O2, InChI=1S/C3H6O2/c1-3(4)5-2/h1-2H3, purity 99.9%
Compound 2: propan-1-ol, C3H8O, InChI=1S/C3H8O/c1-2-3-4/h4H,2-3H2,1H3, purity 99.85%
Compound 3: propan-2-ol, C3H8O, InChI=1S/C3H8O/c1-3(2)4/h3-4H,1-2H3, purity 99.85%
Compound 4: butan-1-ol, C4H10O, InChI=1S/C4H10O/c1-2-3-4-5/h5H,2-4H2,1H3, purity 99.85%
Compound 5: 2-methyl-1-propanol, C4H10O, InChI=1S/C4H10O/c1-4(2)3-5/h4-5H,3H2,1-2H3, purity 99.85%
Compound 6: pentan-1-ol, C5H12O, InChI=1S/C5H12O/c1-2-3-4-5-6/h6H,2-5H2,1H3, purity 99.85%

System: propan-1-ol + methyl ethanoate; phases: Liquid
Property: Excess molar enthalpy (molar enthalpy of mixing), kJ/mol (Liquid); method: Flow calorimetry
Temperature, K	Pressure, kPa	Mole fraction of methyl ethanoate	Excess molar enthalpy (molar enthalpy of mixing), kJ/mol	uncertainty
298.15	5000	0.051	0.3129	0.0072
298.15	5000	0.099	0.5974	0.0088
298.15	5000	0.149	0.8406	0.0106
298.15	5000	0.199	1.0367	0.0122
298.15	5000	0.251	1.1999	0.0136
298.15	5000	0.3	1.3219	0.0147
298.15	5000	0.349	1.4143	0.0155
298.15	5000	0.4	1.4824	0.0161
298.15	5000	0.451	1.5181	0.0164
298.15	5000	0.501	1.5228	0.0164
298.15	5000	0.551	1.4979	0.0161
298.15	5000	0.6	1.4538	0.0157
298.15	5000	0.65	1.3826	0.0149
298.15	5000	0.701	1.2758	0.0138
298.15	5000	0.749	1.1425	0.0125
298.15	5000	0.8	0.9874	0.0109
298.15	5000	0.85	0.7973	0.009
298.15	5000	0.899	0.5709	0.0067
298.15	5000	0.951	0.2976	0.004
298.15	10000	0.051	0.3401	0.0071
298.15	10000	0.099	0.6084	0.0088
298.15	10000	0.149	0.8444	0.0104
298.15	10000	0.199	1.0383	0.0119
298.15	10000	0.25	1.2018	0.0133
298.15	10000	0.3	1.3208	0.0144
298.15	10000	0.349	1.4106	0.0152
298.15	10000	0.399	1.4749	0.0158
298.15	10000	0.45	1.5125	0.0161
298.15	10000	0.5	1.5158	0.0162
298.15	10000	0.55	1.4955	0.016
298.15	10000	0.599	1.4496	0.0155
298.15	10000	0.649	1.3787	0.0149
298.15	10000	0.7	1.275	0.0139
298.15	10000	0.749	1.148	0.0128
298.15	10000	0.799	0.9898	0.0115
298.15	10000	0.849	0.7905	0.0099
298.15	10000	0.899	0.5654	0.0083
298.15	10000	0.951	0.2856	0.0066
298.15	5000	0.051	0.3129	0.0072
298.15	5000	0.099	0.5974	0.0088
298.15	5000	0.149	0.8406	0.0106
298.15	5000	0.199	1.0367	0.0122
298.15	5000	0.251	1.1999	0.0136
298.15	5000	0.3	1.3219	0.0147
298.15	5000	0.349	1.4143	0.0155
298.15	5000	0.4	1.4824	0.0161
298.15	5000	0.451	1.5181	0.0164
298.15	5000	0.501	1.5228	0.0164
298.15	5000	0.551	1.4979	0.0161
298.15	5000	0.6	1.4538	0.0157
298.15	5000	0.65	1.3826	0.0149
298.15	5000	0.701	1.2758	0.0138
298.15	5000	0.749	1.1425	0.0125
298.15	5000	0.8	0.9874	0.0109
298.15	5000	0.85	0.7973	0.009
298.15	5000	0.899	0.5709	0.0067
333.15	10000	0.051	0.4022	0.0086
333.15	10000	0.099	0.7037	0.0099
333.15	10000	0.15	0.9723	0.0118
333.15	10000	0.2	1.201	0.0136
333.15	10000	0.25	1.3767	0.0151
333.15	10000	0.3	1.5191	0.0164
333.15	10000	0.35	1.6258	0.0174
333.15	10000	0.399	1.7066	0.0181
333.15	10000	0.448	1.7488	0.0185
333.15	10000	0.5	1.7664	0.0187
333.15	10000	0.548	1.7514	0.0185
333.15	10000	0.599	1.6953	0.018
333.15	10000	0.65	1.6052	0.0172
333.15	10000	0.7	1.4849	0.0161
333.15	10000	0.751	1.325	0.0147
333.15	10000	0.801	1.1322	0.013
333.15	10000	0.85	0.8981	0.0112
333.15	10000	0.899	0.627	0.0094
333.15	10000	0.949	0.3143	0.0076

System: propan-2-ol + methyl ethanoate; phases: Liquid
Property: Excess molar enthalpy (molar enthalpy of mixing), kJ/mol (Liquid); method: Flow calorimetry
Temperature, K	Pressure, kPa	Mole fraction of methyl ethanoate	Excess molar enthalpy (molar enthalpy of mixing), kJ/mol	uncertainty
298.15	5000	0.1	0.5579	0.008
298.15	5000	0.151	0.7942	0.0099
298.15	5000	0.199	0.9826	0.0115
298.15	5000	0.249	1.1528	0.0131
298.15	5000	0.299	1.2901	0.0143
298.15	5000	0.349	1.399	0.0153
298.15	5000	0.401	1.486	0.0161
298.15	5000	0.45	1.537	0.0166
298.15	5000	0.499	1.5653	0.0168
298.15	5000	0.55	1.5633	0.0168
298.15	5000	0.599	1.534	0.0164
298.15	5000	0.649	1.4718	0.0158
298.15	5000	0.7	1.3838	0.0149
298.15	5000	0.75	1.2548	0.0136
298.15	5000	0.799	1.0965	0.012
298.15	5000	0.851	0.8827	0.0098
298.15	5000	0.9	0.6435	0.0074
298.15	5000	0.949	0.3576	0.0046
298.15	10000	0.1	0.5524	0.0081
298.15	10000	0.151	0.794	0.01
298.15	10000	0.201	0.9952	0.0116
298.15	10000	0.251	1.1612	0.013
298.15	10000	0.301	1.2968	0.0142
298.15	10000	0.351	1.4028	0.0151
298.15	10000	0.4	1.4801	0.0159
298.15	10000	0.45	1.5306	0.0163
298.15	10000	0.501	1.556	0.0166
298.15	10000	0.55	1.5522	0.0165
298.15	10000	0.601	1.5191	0.0162
298.15	10000	0.651	1.4563	0.0156
298.15	10000	0.699	1.3675	0.0148
298.15	10000	0.749	1.2395	0.0137
298.15	10000	0.799	1.0813	0.0124
298.15	10000	0.851	0.8681	0.0107
298.15	10000	0.9	0.6269	0.0091
298.15	10000	0.949	0.339	0.0073
308.15	10000	0.048	0.3119	0.0066
308.15	10000	0.097	0.5929	0.0087
308.15	10000	0.145	0.831	0.0104
308.15	10000	0.195	1.0496	0.0122
308.15	10000	0.243	1.2241	0.0136
308.15	10000	0.293	1.3756	0.015
308.15	10000	0.342	1.4948	0.0161
308.15	10000	0.392	1.5871	0.0169
308.15	10000	0.441	1.6429	0.0174
308.15	10000	0.49	1.6721	0.0177
308.15	10000	0.541	1.6734	0.0177
308.15	10000	0.592	1.6396	0.0174
308.15	10000	0.643	1.5746	0.0168
308.15	10000	0.693	1.4813	0.016
308.15	10000	0.743	1.3559	0.0149
308.15	10000	0.793	1.1851	0.0135
308.15	10000	0.897	0.7082	0.0096
308.15	10000	0.949	0.3799	0.0082

System: butan-1-ol + methyl ethanoate; phases: Liquid
Property: Excess molar enthalpy (molar enthalpy of mixing), kJ/mol (Liquid); method: Flow calorimetry
Temperature, K	Pressure, kPa	Mole fraction of methyl ethanoate	Excess molar enthalpy (molar enthalpy of mixing), kJ/mol	uncertainty
298.15	5000	0.05	0.3246	0.0071
298.15	5000	0.1	0.6068	0.0088
298.15	5000	0.149	0.8401	0.0105
298.15	5000	0.199	1.0376	0.0122
298.15	5000	0.249	1.2028	0.0137
298.15	5000	0.3	1.3376	0.0149
298.15	5000	0.349	1.4354	0.0158
298.15	5000	0.399	1.5026	0.0163
298.15	5000	0.45	1.5482	0.0167
298.15	5000	0.501	1.558	0.0168
298.15	5000	0.55	1.5407	0.0166
298.15	5000	0.6	1.5015	0.0161
298.15	5000	0.651	1.427	0.0154
298.15	5000	0.699	1.3226	0.0143
298.15	5000	0.751	1.1889	0.0129
298.15	5000	0.801	1.0214	0.0112
298.15	5000	0.851	0.8127	0.0091
298.15	5000	0.899	0.589	0.0069
298.15	5000	0.951	0.3039	0.004
298.15	10000	0.05	0.3222	0.007
298.15	10000	0.1	0.6036	0.0087
298.15	10000	0.149	0.835	0.0103
298.15	10000	0.201	1.041	0.012
298.15	10000	0.251	1.2066	0.0134
298.15	10000	0.3	1.331	0.0145
298.15	10000	0.351	1.4339	0.0154
298.15	10000	0.401	1.5044	0.0161
298.15	10000	0.449	1.5438	0.0164
298.15	10000	0.5	1.5563	0.0166
298.15	10000	0.549	1.5409	0.0164
298.15	10000	0.599	1.4988	0.016
298.15	10000	0.65	1.4246	0.0154
298.15	10000	0.701	1.3158	0.0144
298.15	10000	0.751	1.1879	0.0132
298.15	10000	0.8	1.0201	0.0118
298.15	10000	0.851	0.8182	0.0102
298.15	10000	0.899	0.5908	0.0086
298.15	10000	0.951	0.3037	0.0068
308.15	10000	0.047	0.3064	0.0073
308.15	10000	0.098	0.6155	0.0092
308.15	10000	0.146	0.8718	0.0109
308.15	10000	0.193	1.0771	0.0124
308.15	10000	0.243	1.2587	0.014
308.15	10000	0.291	1.4008	0.0152
308.15	10000	0.343	1.5191	0.0163
308.15	10000	0.39	1.5964	0.017
308.15	10000	0.44	1.651	0.0175
308.15	10000	0.492	1.6667	0.0177
308.15	10000	0.541	1.6558	0.0176
308.15	10000	0.591	1.6103	0.0171
308.15	10000	0.641	1.5424	0.0165
308.15	10000	0.692	1.4393	0.0156
308.15	10000	0.744	1.2949	0.0143
308.15	10000	0.794	1.1177	0.0129
308.15	10000	0.896	0.6596	0.0091
308.15	10000	0.947	0.3534	0.0077

System: 2-methyl-1-propanol + methyl ethanoate; phases: Liquid
Property: Excess molar enthalpy (molar enthalpy of mixing), kJ/mol (Liquid); method: Flow calorimetry
Temperature, K	Pressure, kPa	Mole fraction of methyl ethanoate	Excess molar enthalpy (molar enthalpy of mixing), kJ/mol	uncertainty
298.15	5000	0.303	1.4278	0.0155
298.15	5000	0.352	1.541	0.0165
298.15	5000	0.402	1.6228	0.0173
298.15	5000	0.453	1.6774	0.0178
298.15	5000	0.504	1.695	0.018
298.15	5000	0.553	1.6835	0.0179
298.15	5000	0.603	1.6405	0.0174
298.15	5000	0.654	1.5653	0.0167
298.15	5000	0.702	1.4539	0.0155
298.15	5000	0.751	1.3192	0.0142
298.15	5000	0.801	1.1324	0.0123
298.15	5000	0.851	0.9147	0.0102
298.15	5000	0.902	0.6463	0.0076
298.15	5000	0.951	0.3462	0.0047
298.15	10000	0.049	0.3141	0.0072
298.15	10000	0.099	0.611	0.009
298.15	10000	0.15	0.8701	0.0108
298.15	10000	0.199	1.0839	0.0125
298.15	10000	0.249	1.2688	0.0141
298.15	10000	0.3	1.4179	0.0154
298.15	10000	0.349	1.5328	0.0165
298.15	10000	0.401	1.6222	0.0173
298.15	10000	0.449	1.6737	0.0178
298.15	10000	0.5	1.6921	0.0179
298.15	10000	0.55	1.6811	0.0178
298.15	10000	0.6	1.6414	0.0175
298.15	10000	0.65	1.5643	0.0167
298.15	10000	0.699	1.4598	0.0158
298.15	10000	0.752	1.3088	0.0145
298.15	10000	0.798	1.1399	0.0131
298.15	10000	0.849	0.913	0.0112
298.15	10000	0.901	0.6424	0.0093
298.15	10000	0.95	0.3387	0.0076
308.15	10000	0.047	0.2986	0.0074
308.15	10000	0.098	0.6205	0.0094
308.15	10000	0.146	0.89	0.0112
308.15	10000	0.193	1.1115	0.0129
308.15	10000	0.243	1.3133	0.0146
308.15	10000	0.291	1.4708	0.016
308.15	10000	0.343	1.6026	0.0172
308.15	10000	0.39	1.6904	0.0179
308.15	10000	0.492	1.7805	0.0188
308.15	10000	0.541	1.7744	0.0188
308.15	10000	0.591	1.7377	0.0184
308.15	10000	0.641	1.6651	0.0178
308.15	10000	0.692	1.5539	0.0167
308.15	10000	0.744	1.4029	0.0154
308.15	10000	0.794	1.2163	0.014
308.15	10000	0.896	0.7025	0.0097
308.15	10000	0.947	0.3814	0.0081
308.15	10000	0.492	1.7709	0.0187

System: pentan-1-ol + methyl ethanoate; phases: Liquid
Property: Excess molar enthalpy (molar enthalpy of mixing), kJ/mol (Liquid); method: Flow calorimetry
Temperature, K	Pressure, kPa	Mole fraction of methyl ethanoate	Excess molar enthalpy (molar enthalpy of mixing), kJ/mol	uncertainty
298.15	5000	0.049	0.3437	0.0076
298.15	5000	0.1	0.6585	0.0095
298.15	5000	0.15	0.9223	0.0115
298.15	5000	0.2	1.1417	0.0134
298.15	5000	0.249	1.3154	0.0149
298.15	5000	0.299	1.4603	0.0162
298.15	5000	0.349	1.5701	0.0171
298.15	5000	0.401	1.6486	0.0178
298.15	5000	0.451	1.6914	0.0182
298.15	5000	0.5	1.7034	0.0183
298.15	5000	0.55	1.6867	0.0181
298.15	5000	0.599	1.6368	0.0175
298.15	5000	0.65	1.5504	0.0166
298.15	5000	0.749	1.2968	0.014
298.15	5000	0.801	1.1053	0.0121
298.15	5000	0.85	0.8922	0.0099
298.15	5000	0.901	0.6273	0.0073
298.15	5000	0.95	0.3347	0.0043
298.15	10000	0.049	0.3461	0.0077
298.15	10000	0.099	0.6612	0.0095
298.15	10000	0.15	0.9235	0.0113
298.15	10000	0.199	1.1412	0.013
298.15	10000	0.248	1.3162	0.0145
298.15	10000	0.299	1.4631	0.0158
298.15	10000	0.348	1.5703	0.0168
298.15	10000	0.4	1.6477	0.0175
298.15	10000	0.45	1.6914	0.0179
298.15	10000	0.499	1.7045	0.018
298.15	10000	0.55	1.6856	0.0179
298.15	10000	0.599	1.6355	0.0174
298.15	10000	0.649	1.5502	0.0167
298.15	10000	0.748	1.2922	0.0142
298.15	10000	0.8	1.1012	0.0127
298.15	10000	0.85	0.8798	0.0109
298.15	10000	0.901	0.6121	0.0091
298.15	10000	0.95	0.3126	0.0074
308.15	10000	0.051	0.359	0.0081
308.15	10000	0.099	0.6791	0.0097
308.15	10000	0.15	0.9322	0.0114
308.15	10000	0.199	1.1744	0.0134
308.15	10000	0.251	1.3603	0.015
308.15	10000	0.299	1.5121	0.0163
308.15	10000	0.351	1.6217	0.0173
308.15	10000	0.4	1.7006	0.0181
308.15	10000	0.45	1.7475	0.0185
308.15	10000	0.499	1.7536	0.0185
308.15	10000	0.55	1.737	0.0184
308.15	10000	0.599	1.6802	0.0179
308.15	10000	0.649	1.5964	0.0171
308.15	10000	0.701	1.4697	0.016
308.15	10000	0.752	1.324	0.0146
308.15	10000	0.8	1.1398	0.0131
308.15	10000	0.85	0.9206	0.0114
308.15	10000	0.901	0.6341	0.0094
308.15	10000	0.95	0.3271	0.0077
