Measured thermophysical data. Measurement and Correlation of Phase Equilibria for Dodecane + sec-Butylbenzene + N-Methyl-2-pyrrolidone
Source: J. Chem. Eng. Data, 2005, 10.1021/je050191r
Compound 1: dodecane, C12H26, InChI=1S/C12H26/c1-3-5-7-9-11-12-10-8-6-4-2/h3-12H2,1-2H3
Compound 2: (1-methylpropyl)benzene, C10H14, InChI=1S/C10H14/c1-3-9(2)10-7-5-4-6-8-10/h4-9H,3H2,1-2H3
Compound 3: N-methylpyrrolidone, C5H9NO, InChI=1S/C5H9NO/c1-6-4-2-3-5(6)7/h2-4H2,1H3

System: dodecane + (1-methylpropyl)benzene + N-methylpyrrolidone; phases: Liquid mixture 1, Liquid mixture 2
Fixed: Pressure, kPa = 101.3
Property: Upper consolute temperature, K (Liquid mixture 1); method: VISOBS:UFactor:2
Mole fraction of N-methylpyrrolidone	Upper consolute temperature, K	uncertainty
0.311	303.8	0.8
0.356	310	0.8
0.414	316.8	0.8
0.436	320	0.8
0.469	323	0.8
0.489	325.4	0.8
0.521	328.4	0.8
0.552	331	0.8
0.571	332.4	0.8
0.584	333.7	0.8
0.61	334.8	0.8
0.639	336	0.8
0.662	336.4	0.8
0.681	336.6	0.8
0.699	336.2	0.8
0.728	335.2	0.8
0.76	332.8	0.8
0.791	330	0.8
0.796	328.2	0.8
0.814	326.4	0.8
0.822	325.2	0.8
0.837	322	0.8
0.854	318.6	0.8

System: dodecane + (1-methylpropyl)benzene + N-methylpyrrolidone; phases: Liquid mixture 1, Liquid mixture 2
Fixed: Pressure, kPa = 101.325
Property: Mole fraction of (1-methylpropyl)benzene (Liquid mixture 1); method: Chromatography
Property: Mole fraction of (1-methylpropyl)benzene (Liquid mixture 2); method: Chromatography
Property: Mole fraction of dodecane (Liquid mixture 2); method: Chromatography
Temperature, K	Mole fraction of dodecane	Mole fraction of (1-methylpropyl)benzene	uncertainty	Mole fraction of (1-methylpropyl)benzene	uncertainty	Mole fraction of dodecane	uncertainty
288.15	0.9343	0	0.0001	0	0.0001	0.0123	
288.15	0.8982	0.0333	0.0125	0.0171	0.0171	0.0214	
288.15	0.8579	0.0513	0.0122	0.0267	0.0267	0.0248	
288.15	0.7761	0.1077	0.0116	0.0573	0.0361	0.0323	
288.15	0.6624	0.1577	0.0109	0.0902	0.0256	0.0425	
288.15	0.5297	0.2017	0.0106	0.1242	0.0174	0.0602	
288.15	0.4901	0.2128	0.0105	0.1335	0.0176	0.0651	
288.15	0.4339	0.2286	0.0105	0.1558	0.014	0.0881	
298.15	0.8157	0	0.0001	0	0.0001	0.0316	
298.15	0.7996	0.0336	0.0159	0.0191	0.0191	0.0358	
298.15	0.7341	0.0629	0.0118	0.0376	0.024	0.0399	
298.15	0.6779	0.1066	0.0121	0.0633	0.0213	0.0509	
298.15	0.6272	0.1338	0.0113	0.0819	0.0226	0.0574	
298.15	0.5171	0.1856	0.011	0.1251	0.0184	0.0827	
298.15	0.4797	0.1974	0.0105	0.1382	0.0146	0.0951	
298.15	0.3811	0.2209	0.0105	0.1683	0.0149	0.1225	
308.15	0.7724	0	0.0001	0	0.0001	0.0409	
308.15	0.7249	0.0294	0.0113	0.0193	0.0193	0.0457	
308.15	0.6613	0.0609	0.0121	0.0402	0.0227	0.0508	
308.15	0.6182	0.0976	0.0131	0.0662	0.0243	0.0597	
308.15	0.5791	0.1318	0.0112	0.0928	0.0179	0.0785	
308.15	0.4598	0.1764	0.0107	0.1312	0.017	0.1036	
308.15	0.4215	0.1843	0.0104	0.1417	0.014	0.1144	
308.15	0.3377	0.2062	0.0105	0.1691	0.0136	0.1449	
318.15	0.7346	0	0.0001	0	0.0001	0.0474	
318.15	0.6948	0.0258	0.0115	0.0196	0.0196	0.0601	
318.15	0.6328	0.0581	0.0115	0.0449	0.0241	0.0672	
318.15	0.5865	0.0853	0.0111	0.0669	0.0168	0.0781	
318.15	0.4786	0.1257	0.0108	0.1017	0.0142	0.1079	
318.15	0.3517	0.1694	0.0107	0.1518	0.0127	0.1621	
318.15	0.3078	0.1807	0.0105	0.1713	0.0113	0.2003	
