Measured thermophysical data. Solubility of Lovastatin in Acetone, Methanol, Ethanol, Ethyl Acetate, and Butyl Acetate between 283 K and 323 K
Source: J. Chem. Eng. Data, 2005, 10.1021/je0500781
Compound 1: lovastatin, C24H36O5, InChI=1S/C24H36O5/c1-5-15(3)24(27)29-21-11-14(2)10-17-7-6-16(4)20(23(17)21)9-8-19-12-18(25)13-22(26)28-19/h6-7,10,14-16,18-21,23,25H,5,8-9,11-13H2,1-4H3/t14-,15-,16-,18+,19+,20-,21-,23-/m0/s1
Compound 2: acetone, C3H6O, InChI=1S/C3H6O/c1-3(2)4/h1-2H3
Compound 3: methanol, CH4O, InChI=1S/CH4O/c1-2/h2H,1H3
Compound 4: ethanol, C2H6O, InChI=1S/C2H6O/c1-2-3/h3H,2H2,1H3
Compound 5: ethyl acetate, C4H8O2, InChI=1S/C4H8O2/c1-3-6-4(2)5/h3H2,1-2H3
Compound 6: butyl ethanoate, C6H12O2, InChI=1S/C6H12O2/c1-3-4-5-8-6(2)7/h3-5H2,1-2H3

System: acetone + lovastatin; phases: Liquid, Crystal
Fixed: Pressure, kPa = 101
Property: Mole fraction of lovastatin (Liquid); method: Phase equilibration
Temperature, K	Mole fraction of lovastatin	uncertainty
278.65	0.006375	0.000395
283.2	0.007416	0.000459
288.2	0.008692	0.000538
293.25	0.01043	0.00065
298.75	0.01233	0.00076
303.95	0.01573	0.00097
308.25	0.01832	0.00114
313.25	0.02259	0.0014
318.15	0.02716	0.00168
322.65	0.03206	0.00199

System: methanol + lovastatin; phases: Liquid, Crystal
Fixed: Pressure, kPa = 101
Property: Mole fraction of lovastatin (Liquid); method: Phase equilibration
Temperature, K	Mole fraction of lovastatin	uncertainty
278.55	0.001277	8.4e-05
283.4	0.001595	0.000105
288.2	0.001971	0.00013
294.15	0.002514	0.000166
298.35	0.003147	0.000207
303.3	0.003863	0.000255
308.05	0.004959	0.000327
313.95	0.006293	0.000415
317.85	0.00777	0.000513
321.45	0.009292	0.000613

System: ethanol + lovastatin; phases: Liquid, Crystal
Fixed: Pressure, kPa = 101
Property: Mole fraction of lovastatin (Liquid); method: Phase equilibration
Temperature, K	Mole fraction of lovastatin	uncertainty
278.25	0.001402	8.8e-05
283.3	0.001797	0.000113
288.25	0.002256	0.000142
294.95	0.002981	0.000188
298.15	0.003529	0.000223
303.05	0.00446	0.000281
307.8	0.005536	0.000349
313.05	0.007094	0.000447
318.65	0.009326	0.000588
322.65	0.01119	0.00071

System: ethyl acetate + lovastatin; phases: Liquid, Crystal
Fixed: Pressure, kPa = 101
Property: Mole fraction of lovastatin (Liquid); method: Phase equilibration
Temperature, K	Mole fraction of lovastatin	uncertainty
278.6	0.002911	0.000177
282.25	0.003397	0.000207
288.25	0.004078	0.000248
291.65	0.004713	0.000287
297.85	0.005684	0.000346
303.15	0.006881	0.000419
309.85	0.008492	0.000517
312.95	0.009872	0.000602
318.25	0.01197	0.00073
323.65	0.01481	0.0009

System: butyl ethanoate + lovastatin; phases: Liquid, Crystal
Fixed: Pressure, kPa = 101
Property: Mole fraction of lovastatin (Liquid); method: Phase equilibration
Temperature, K	Mole fraction of lovastatin	uncertainty
279.1	0.002727	0.000165
283.15	0.00319	0.000193
288.25	0.003763	0.000228
292.95	0.00441	0.000267
298.25	0.005279	0.00032
303.05	0.006403	0.000388
308.25	0.007541	0.000457
313.15	0.009004	0.000545
317.95	0.01069	0.00065
323.35	0.01312	0.00079
