Measured thermophysical data. Thermodynamic Properties for 2-(1'-Hydroxycyclohexyl)cyclohexanone and Equilibrium of Dimerization of Cyclohexanone
Source: J. Chem. Eng. Data, 2006, 10.1021/je0501078
Compound 1: carbon dioxide, CO2, InChI=1S/CO2/c2-1-3
Compound 2: water, H2O, InChI=1S/H2O/h1H2
Compound 3: oxygen, O2, InChI=1S/O2/c1-2
Compound 4: cyclohexanone, C6H10O, InChI=1S/C6H10O/c7-6-4-2-1-3-5-6/h1-5H2
Compound 5: 1'-hydroxy-[1,1'-bicyclohexyl]-2-one, C12H20O2, InChI=1S/C12H20O2/c13-11-7-3-2-6-10(11)12(14)8-4-1-5-9-12/h10,14H,1-9H2

System: 1'-hydroxy-[1,1'-bicyclohexyl]-2-one; phases: Crystal, Liquid, Gas
Property: Molar enthalpy of transition or fusion, kJ/mol (Crystal); method: Adiabatic calorimetry
Molar enthalpy of transition or fusion, kJ/mol	uncertainty
20.812	0.034

System: 1'-hydroxy-[1,1'-bicyclohexyl]-2-one; phases: Crystal, Liquid, Air at 1 atmosphere
Property: Molar enthalpy of transition or fusion, kJ/mol (Crystal); method: DSC
Molar enthalpy of transition or fusion, kJ/mol	uncertainty
20.69	0.62

System: 1'-hydroxy-[1,1'-bicyclohexyl]-2-one; phases: Crystal, Liquid, Gas
Property: Triple point temperature, K (Crystal); method: Adiabatic calorimetry
Triple point temperature, K	uncertainty
306.75	0.05

System: 1'-hydroxy-[1,1'-bicyclohexyl]-2-one; phases: Crystal, Liquid, Air at 1 atmosphere
Property: Triple point temperature, K (Crystal); method: DSC
Triple point temperature, K	uncertainty
306.9	0.8

System: 1'-hydroxy-[1,1'-bicyclohexyl]-2-one; phases: Crystal
Property: Mass density, kg/m3 (Crystal); method: Pycnometric method
Temperature, K	Pressure, kPa	Mass density, kg/m3	uncertainty
292	101.325	1140	20

System: 1'-hydroxy-[1,1'-bicyclohexyl]-2-one; phases: Crystal
Fixed: Pressure, kPa = 101.325
Property: Molar heat capacity at constant pressure, J/K/mol (Crystal); method: VADIAC:UFactor:4
Temperature, K	Molar heat capacity at constant pressure, J/K/mol	uncertainty
5	0.496	0.047
10	3.909	0.127
15	10.08	0.24
20	17.48	0.33
25	25.17	0.38
30	32.48	0.32
35	39.18	0.37
40	45.5	0.42
45	51.25	0.45
50	56.58	0.49
60	66.47	0.56
70	75.55	0.62
80	84.14	0.67
90	92.37	0.92
100	100.7	0.92
110	108.6	1
120	116.4	1
130	124.2	1.1
140	132	1.1
150	139.8	1.1
160	147.7	1.2
170	155.8	1.2
180	163.9	1.2
190	171.9	1.2
200	180	1.3
210	188.2	1.3
220	196.6	1.3
230	205.1	1.4
240	213.9	1.4
250	223.2	1.5
260	233.2	1.6
270	243.9	1.6
280	255.5	1.7
290	268	1.7
300	281.5	1.7
306.75	291.3	1.8

System: 1'-hydroxy-[1,1'-bicyclohexyl]-2-one; phases: Liquid
Fixed: Pressure, kPa = 101.325
Property: Molar heat capacity at constant pressure, J/K/mol (Liquid); method: Large sample (1 g) DSC
Temperature, K	Molar heat capacity at constant pressure, J/K/mol	uncertainty
306.75	350	8.6
310	352	8.6
320	359.3	8.8
330	367.5	9
340	376.8	9.2
350	387.2	9.5
360	398.7	9.7
370	411.2	10.1

System: 1'-hydroxy-[1,1'-bicyclohexyl]-2-one; phases: Crystal, Gas
Property: Molar heat capacity at saturation pressure, J/K/mol (Crystal); method: VADIAC:UFactor:4
Temperature, K	Molar heat capacity at saturation pressure, J/K/mol	uncertainty
5.16	0.533	0.0461
5.41	0.6159	0.0485
5.68	0.7141	0.0511
5.97	0.8182	0.0538
6.29	0.9686	0.057
6.62	1.137	0.062
6.94	1.337	0.067
7.27	1.564	0.073
7.69	1.849	0.08
8.09	2.166	0.087
8.51	2.524	0.096
8.97	2.903	0.105
9.4	3.307	0.114
9.86	3.764	0.124
10.32	4.247	0.135
10.8	4.745	0.145
11.34	5.386	0.158
11.91	6.078	0.171
12.5	6.783	0.185
13.09	7.518	0.199
13.65	8.27	0.212
14.26	9.088	0.224
14.87	9.894	0.241
15.47	10.71	0.25
16.12	11.66	0.27
16.79	12.66	0.28
17.47	13.66	0.29
18.17	14.72	0.31
18.86	15.8	0.32
19.61	16.87	0.33
20.52	18.24	0.34
21.52	19.81	0.36
22.54	21.36	0.37
23.56	22.97	0.37
24.68	24.67	0.38
25.89	26.58	0.39
27.12	28.34	0.38
28.37	30.15	0.38
29.78	32.21	0.37
31.31	34.26	0.34
32.81	36.25	0.35
34.25	38.29	0.37
35.69	40.02	0.37
37.25	42.05	0.39
38.95	44.28	0.41
40.79	46.36	0.42
42.67	48.72	0.43
44.41	50.59	0.45
46.25	52.77	0.47
48.19	54.67	0.47
50.08	56.63	0.49
51.93	58.46	0.5
53.83	60.66	0.52
55.82	62.66	0.53
57.81	64.39	0.54
59.76	66.21	0.56
61.73	68.03	0.56
63.72	69.96	0.58
65.71	71.5	0.59
67.67	73.51	0.61
69.76	75.35	0.61
72.08	77.34	0.63
74.55	79.53	0.65
76.99	81.52	0.66
79.43	83.56	0.67
81.9	85.64	0.67
84.37	87.8	0.67
86.86	89.8	0.75
89.34	92.04	0.75
91.79	93.87	0.92
94.27	96.03	0.92
96.74	97.94	0.92
99.23	100.3	0.92
99.86	100.6	0.92
101.72	102.1	0.92
101.89	102.2	0.92
103.96	103.9	0.92
104.22	104.1	1
106	105.5	1
108.09	107.2	1
110.22	108.8	1
112.32	110.3	1
114.47	112.2	1
116.67	113.7	1
118.84	115.6	1
120.97	117	1
123.07	118.7	1
125.14	120.4	1
127.19	122.1	1
129.21	123.6	1.1
131.21	125.2	1.1
133.17	126.7	1.1
135.12	128.2	1.1
137.05	129.6	1.1
138.96	131.3	1.1
141	132.8	1.1
143.17	134.4	1.1
145.31	136.2	1.1
147.42	137.7	1.1
149.52	139.4	1.1
149.69	139.5	1.1
151.77	141.3	1.1
153.83	142.8	1.2
155.94	144.7	1.2
158.11	146.2	1.2
160.26	148.1	1.2
162.4	149.6	1.2
164.58	151.5	1.2
166.82	153.1	1.2
169.05	154.8	1.2
171.25	156.7	1.2
173.43	158.6	1.2
175.59	160.1	1.2
177.74	162	1.2
179.87	163.8	1.2
181.98	165.4	1.2
184.22	167.4	1.2
186.58	169.1	1.2
188.92	171.2	1.2
191.24	172.9	1.2
193.62	174.9	1.2
196.06	176.6	1.2
198.49	179	1.3
200.89	180.8	1.3
203.28	182.7	1.3
205.65	184.8	1.3
208.08	186.7	1.3
210.57	188.6	1.3
213.04	191	1.3
215.63	192.9	1.3
218.36	195.1	1.3
220.54	197.1	1.4
223.28	199.4	1.4
226	201.5	1.4
228.71	203.8	1.4
231.37	206.2	1.4
234.03	209.2	1.4
236.67	210.8	1.4
239.45	214	1.4
242.37	216.3	1.5
245.3	218.9	1.5
248.2	221.7	1.5
251.09	224	1.5
253.97	227.2	1.5
256.81	229.6	1.5
259.61	232.7	1.6
262.37	235.2	1.6
265.1	238.8	1.6
267.8	241.5	1.6
270.46	244.1	1.6
273.22	247.9	1.6
274.83	249.2	1.6
276.1	250.8	1.7
277.41	252.4	1.7
278.95	254.3	1.7
279.97	255.8	1.7
281.77	257.8	1.7
282.51	258.4	1.7
284.57	261.4	1.7
285.02	262	1.7
287.35	264.2	1.7
287.51	264.9	1.7
289.97	267.6	1.7
290.11	268.6	1.7
292.4	271.5	1.7
292.83	271.4	1.7
294.18	273.5	1.7
295.66	275.3	1.7

System: 1'-hydroxy-[1,1'-bicyclohexyl]-2-one; phases: Liquid, Gas
Property: Molar heat capacity at saturation pressure, J/K/mol (Liquid); method: VADIAC:UFactor:4
Temperature, K	Molar heat capacity at saturation pressure, J/K/mol	uncertainty
308.34	351	2.1
310.04	351.5	2.1
311.73	353.4	2.1

System: 1'-hydroxy-[1,1'-bicyclohexyl]-2-one; phases: Crystal
Fixed: Pressure, kPa = 101.325
Property: Molar enthalpy function {Hm(T)-Hm(0)}/T, J/K/mol (Crystal); method: VADIAC:UFactor:4
Temperature, K	Molar enthalpy function {Hm(T)-Hm(0)}/T, J/K/mol	uncertainty
5	0.124	0.035
10	1	0.056
15	2.951	0.093
20	5.647	0.13
25	8.78	0.158
30	12.13	0.2
35	15.52	0.22
40	18.88	0.24
45	22.16	0.26
50	25.34	0.28
60	31.39	0.32
70	37.05	0.36
80	42.4	0.39
90	47.5	0.77
100	52.41	0.78
110	57.15	0.8
120	61.77	0.81
130	66.27	0.82
140	70.69	0.84
150	75.04	0.85
160	79.33	0.86
170	83.56	0.92
180	87.8	0.92
190	92.04	0.92
200	96.2	0.92
210	100.4	0.92
220	104.6	1
230	108.8	1
240	113	1
250	117.2	1
260	121.5	1
270	125.8	1.1
280	130.2	1.1
290	134.8	1.1
300	139.4	1.1
306.75	142.7	1.2

System: 1'-hydroxy-[1,1'-bicyclohexyl]-2-one; phases: Liquid
Fixed: Pressure, kPa = 101.325
Property: Molar enthalpy function {Hm(T)-Hm(0)}/T, J/K/mol (Liquid); method: Vacuum adiabatic calorimetry
Temperature, K	Molar enthalpy function {Hm(T)-Hm(0)}/T, J/K/mol	uncertainty
306.75	210.5	3.3
310	212	3.3

System: 1'-hydroxy-[1,1'-bicyclohexyl]-2-one; phases: Crystal
Fixed: Pressure, kPa = 101.325
Property: Molar entropy, J/K/mol (Crystal); method: Vacuum adiabatic calorimetry
Temperature, K	Molar entropy, J/K/mol	uncertainty
5	0.166	0.014
10	1.332	0.025
15	4.026	0.048
20	7.926	0.076
25	12.65	0.11
30	17.89	0.13
35	23.41	0.17
40	29.06	0.21
45	34.75	0.24
50	40.43	0.27
60	51.64	0.35
70	62.57	0.42
80	73.23	0.48
90	83.64	0.58
100	93.79	0.67
110	103.8	0.67
120	113.6	0.75
130	123.1	0.83
140	132.6	0.83
150	142	0.92
160	151.3	1
170	160.5	1
180	169.6	1.1
190	178.7	1.2
200	187.7	1.2
210	196.7	1.2
220	205.6	1.3
230	214.6	1.3
240	223.5	1.4
250	232.4	1.5
260	241.4	1.5
270	250.3	1.6
280	259.4	1.7
290	268.6	1.7
300	278	1.7
306.75	284.3	1.7

System: 1'-hydroxy-[1,1'-bicyclohexyl]-2-one; phases: Liquid
Fixed: Pressure, kPa = 101.325
Property: Molar entropy, J/K/mol (Liquid); method: VADIAC:UFactor:4
Temperature, K	Molar entropy, J/K/mol	uncertainty
306.75	352.1	3.2
310	355.9	3.2

System: cyclohexanone + water + 1'-hydroxy-[1,1'-bicyclohexyl]-2-one; phases: Liquid mixture 1, Liquid
Fixed: Pressure, kPa = 101.325
Property: Liquid-liquid equilibrium temperature, K (Liquid mixture 1); method: VISOBS
Solvent: Mole fraction of 1'-hydroxy-[1,1'-bicyclohexyl]-2-one	Mole fraction of water	Liquid-liquid equilibrium temperature, K	uncertainty
0.0121	0.249	326.4	1
0.0121	0.253	327.5	1
0.0121	0.264	328.7	1
0.0121	0.284	332.7	1
0.0121	0.312	341.9	1
0.0326	0.245	328.2	1
0.0326	0.26	331.2	1
0.0326	0.28	334.7	1
0.0326	0.307	343.6	1
0.1346	0.082	294.9	1
0.1346	0.23	333.6	1
0.1346	0.263	345	1

Reaction: -1 1'-hydroxy-[1,1'-bicyclohexyl]-2-one + 12 carbon dioxide + 10 water + -16 oxygen
Property: Specific internal energy of reaction at constant volume, J/g
-35524

Reaction: 2 cyclohexanone + -1 1'-hydroxy-[1,1'-bicyclohexyl]-2-one
Property: Equilibrium constant in terms of mole fraction
5.668
5.468
13.961
13.961
28.428
28.897
60.128
60.516
79.313
82.046
