Measured thermophysical data. Densities and Viscosities of Aqueous Solutions of Pyrrolidine and Piperidine from (20 to 50) deg C
Source: J. Chem. Eng. Data, 2005, 10.1021/je050005h
Compound 1: pyrrolidine, C4H9N, InChI=1S/C4H9N/c1-2-4-5-3-1/h5H,1-4H2
Compound 2: piperidine, C5H11N, InChI=1S/C5H11N/c1-2-4-6-5-3-1/h6H,1-5H2
Compound 3: water, H2O, InChI=1S/H2O/h1H2

System: pyrrolidine; phases: Liquid
Fixed: Pressure, kPa = 101
Property: Kinematic viscosity, m2/s (Liquid); method: CAPTUB::UFactor:8
Temperature, K	Kinematic viscosity, m2/s	uncertainty
293.15	9.545e-07	4.76e-08
303.15	8.268e-07	4.21e-08
313.15	7.432e-07	3.85e-08
323.15	6.412e-07	3.41e-08

System: pyrrolidine; phases: Liquid
Fixed: Pressure, kPa = 101
Property: Mass density, kg/m3 (Liquid); method: VIBTUB::UFactor:32
Temperature, K	Mass density, kg/m3	uncertainty
293.15	859.87	2.78
303.15	850.11	2.9
313.15	840.24	3.02
323.15	833.88	3.1

System: piperidine; phases: Liquid
Fixed: Pressure, kPa = 101
Property: Kinematic viscosity, m2/s (Liquid); method: CAPTUB::UFactor:8
Temperature, K	Kinematic viscosity, m2/s	uncertainty
293.15	1.795e-06	8.3e-08
303.15	1.488e-06	7e-08
313.15	1.253e-06	6e-08
323.15	1.064e-06	5.2e-08

System: piperidine; phases: Liquid
Fixed: Pressure, kPa = 101
Property: Mass density, kg/m3 (Liquid); method: VIBTUB::UFactor:32
Temperature, K	Mass density, kg/m3	uncertainty
293.15	863.81	2.71
303.15	854.5	2.82
313.15	845.08	2.94
323.15	835.56	3.06

System: pyrrolidine + water; phases: Liquid
Fixed: Pressure, kPa = 101
Property: Kinematic viscosity, m2/s (Liquid); method: CAPTUB:UFactor:8
Temperature, K	Mole fraction of pyrrolidine	Kinematic viscosity, m2/s	uncertainty
293.15	0	9.899e-07	4.89e-08
293.15	0.0221	1.438e-06	6.8e-08
293.15	0.0678	2.471e-06	1.12e-07
293.15	0.1158	3.518e-06	1.56e-07
293.15	0.2076	4.528e-06	1.98e-07
293.15	0.3039	4.776e-06	2.08e-07
293.15	0.3958	4.356e-06	1.91e-07
293.15	0.4834	3.639e-06	1.61e-07
293.15	0.5671	2.994e-06	1.34e-07
293.15	0.6858	2.133e-06	9.8e-08
293.15	0.8675	1.312e-06	6.3e-08
293.15	1	9.545e-07	4.76e-08
303.15	0	8.101e-07	4.12e-08
303.15	0.0221	1.121e-06	5.5e-08
303.15	0.0678	1.763e-06	8.2e-08
303.15	0.1158	2.419e-06	1.1e-07
303.15	0.2076	3.154e-06	1.41e-07
303.15	0.3039	3.343e-06	1.49e-07
303.15	0.3958	3.131e-06	1.4e-07
303.15	0.4834	2.733e-06	1.23e-07
303.15	0.5671	2.236e-06	1.02e-07
303.15	0.6858	1.706e-06	8e-08
303.15	0.8675	1.067e-06	5.2e-08
303.15	1	8.268e-07	4.21e-08
313.15	0	6.655e-07	3.5e-08
313.15	0.0221	8.805e-07	4.42e-08
313.15	0.0678	1.342e-06	6.4e-08
313.15	0.1158	1.77e-06	8.2e-08
313.15	0.2076	2.272e-06	1.04e-07
313.15	0.3039	2.457e-06	1.12e-07
313.15	0.3958	2.307e-06	1.05e-07
313.15	0.4834	2.085e-06	9.6e-08
313.15	0.5671	1.764e-06	8.2e-08
313.15	0.6858	1.368e-06	6.5e-08
313.15	0.8675	9.134e-07	4.58e-08
313.15	1	7.432e-07	3.85e-08
323.15	0	5.61e-07	3.05e-08
323.15	0.0221	7.629e-07	3.92e-08
323.15	0.0678	1.063e-06	5.2e-08
323.15	0.1158	1.364e-06	6.5e-08
323.15	0.2076	1.728e-06	8.1e-08
323.15	0.3039	1.866e-06	8.7e-08
323.15	0.3958	1.79e-06	8.3e-08
323.15	0.4834	1.605e-06	7.5e-08
323.15	0.5671	1.393e-06	6.6e-08
323.15	0.6858	1.119e-06	5.5e-08
323.15	0.8675	7.842e-07	4.02e-08
323.15	1	6.412e-07	3.41e-08

System: pyrrolidine + water; phases: Liquid
Fixed: Pressure, kPa = 101
Property: Mass density, kg/m3 (Liquid); method: VIBTUB:UFactor:32
Temperature, K	Mole fraction of pyrrolidine	Mass density, kg/m3	uncertainty
293.15	0	998.21	1.02
293.15	0.0057	997.13	1.04
293.15	0.0101	996.33	1.05
293.15	0.0221	994.47	1.07
293.15	0.0678	989.46	1.13
293.15	0.1158	980.95	1.24
293.15	0.2076	962.31	1.48
293.15	0.3039	943.39	1.72
293.15	0.3958	928.64	1.9
293.15	0.4834	917.04	2.05
293.15	0.5671	906.1	2.19
293.15	0.6858	893.17	2.35
293.15	0.8675	872.39	2.62
293.15	1	859.87	2.78
303.15	0	995.65	1.05
303.15	0.0057	994.41	1.08
303.15	0.0101	993.49	1.09
303.15	0.0221	991.12	1.11
303.15	0.0678	983.41	1.21
303.15	0.1158	973.19	1.34
303.15	0.2076	953.57	1.59
303.15	0.3039	934.33	1.83
303.15	0.3958	919.34	2.02
303.15	0.4834	907.58	2.17
303.15	0.5671	896	2.31
303.15	0.6858	883.53	2.47
303.15	0.8675	862.69	2.74
303.15	1	850.11	2.9
313.15	0	992.21	1.09
313.15	0.0057	990.83	1.12
313.15	0.0101	989.78	1.14
313.15	0.0221	986.92	1.17
313.15	0.0678	976.91	1.3
313.15	0.1158	965.26	1.44
313.15	0.2076	944.65	1.7
313.15	0.3039	925.06	1.94
313.15	0.3958	909.83	2.13
313.15	0.4834	897.92	2.29
313.15	0.5671	886.2	2.43
313.15	0.6858	873.7	2.59
313.15	0.8675	852.81	2.86
313.15	1	840.24	3.02
323.15	0	988.02	1.14
323.15	0.0057	986.46	1.18
323.15	0.0101	985.31	1.2
323.15	0.0221	982	1.24
323.15	0.0678	970.03	1.39
323.15	0.1158	957.15	1.54
323.15	0.2076	935.51	1.81
323.15	0.3039	915.6	2.06
323.15	0.3958	900.11	2.26
323.15	0.4834	888.05	2.41
323.15	0.5671	877.7	2.54
323.15	0.6858	863.68	2.72
323.15	0.8675	846.3	2.94
323.15	1	833.88	3.1

System: piperidine + water; phases: Liquid
Fixed: Pressure, kPa = 101
Property: Kinematic viscosity, m2/s (Liquid); method: CAPTUB:UFactor:8
Temperature, K	Mole fraction of piperidine	Kinematic viscosity, m2/s	uncertainty
293.15	0	9.899e-07	4.89e-08
293.15	0.0055	1.106e-06	5.4e-08
293.15	0.011	1.21e-06	5.8e-08
293.15	0.028	1.502e-06	7.1e-08
293.15	0.0573	2.2e-06	1.01e-07
293.15	0.0986	3.55e-06	1.57e-07
293.15	0.1795	5.936e-06	2.47e-07
293.15	0.2672	7.621e-06	2.99e-07
293.15	0.3536	8.023e-06	3.11e-07
293.15	0.4387	7.036e-06	2.81e-07
293.15	0.5225	6.088e-06	2.51e-07
293.15	0.6458	4.49e-06	1.97e-07
293.15	0.8455	2.598e-06	1.18e-07
293.15	1	1.795e-06	8.3e-08
303.15	0	8.101e-07	4.12e-08
303.15	0.0055	8.817e-07	4.43e-08
303.15	0.011	9.527e-07	4.74e-08
303.15	0.028	1.205e-06	5.8e-08
303.15	0.0573	1.741e-06	8.1e-08
303.15	0.0986	2.553e-06	1.16e-07
303.15	0.1795	4.007e-06	1.77e-07
303.15	0.2672	5.058e-06	2.2e-07
303.15	0.3536	5.417e-06	2.31e-07
303.15	0.4387	4.968e-06	2.16e-07
303.15	0.5225	4.371e-06	1.92e-07
303.15	0.6458	3.22e-06	1.44e-07
303.15	0.8455	1.997e-06	9.2e-08
303.15	1	1.488e-06	7e-08
313.15	0	6.655e-07	3.5e-08
313.15	0.0055	7.181e-07	3.72e-08
313.15	0.011	7.723e-07	3.96e-08
313.15	0.028	9.421e-07	4.69e-08
313.15	0.0573	1.325e-06	6.3e-08
313.15	0.0986	1.881e-06	8.7e-08
313.15	0.1795	2.813e-06	1.27e-07
313.15	0.2672	3.48e-06	1.55e-07
313.15	0.3536	3.705e-06	1.64e-07
313.15	0.4387	3.488e-06	1.55e-07
313.15	0.5225	3.104e-06	1.39e-07
313.15	0.6458	2.333e-06	1.06e-07
313.15	0.8455	1.621e-06	7.6e-08
313.15	1	1.253e-06	6e-08
323.15	0	5.61e-07	3.05e-08
323.15	0.0055	5.981e-07	3.21e-08
323.15	0.011	6.363e-07	3.37e-08
323.15	0.028	8.125e-07	4.13e-08
323.15	0.0573	1.066e-06	5.2e-08
323.15	0.0986	1.47e-06	7e-08
323.15	0.1795	2.139e-06	9.8e-08
323.15	0.2672	2.616e-06	1.18e-07
323.15	0.3536	2.68e-06	1.21e-07
323.15	0.4387	2.526e-06	1.15e-07
323.15	0.5225	2.311e-06	1.06e-07
323.15	0.6458	1.832e-06	8.5e-08
323.15	0.8455	1.315e-06	6.3e-08
323.15	1	1.064e-06	5.2e-08

System: piperidine + water; phases: Liquid
Fixed: Pressure, kPa = 101
Property: Mass density, kg/m3 (Liquid); method: VIBTUB:UFactor:32
Temperature, K	Mole fraction of piperidine	Mass density, kg/m3	uncertainty
293.15	0	998.21	1.02
293.15	0.0055	997.07	1.04
293.15	0.011	995.89	1.06
293.15	0.028	992.43	1.1
293.15	0.0573	985.56	1.19
293.15	0.0986	974.58	1.33
293.15	0.1795	955.67	1.56
293.15	0.2672	940.18	1.75
293.15	0.3536	927.85	1.9
293.15	0.4387	917.5	2.03
293.15	0.5225	906.51	2.17
293.15	0.6458	892.99	2.34
293.15	0.8454	875.08	2.56
293.15	1	863.81	2.71
303.15	0	995.65	1.05
303.15	0.0055	994.34	1.08
303.15	0.011	992.89	1.11
303.15	0.028	987.87	1.17
303.15	0.0573	979.56	1.27
303.15	0.0986	967.57	1.41
303.15	0.1795	947.6	1.66
303.15	0.2672	931.55	1.86
303.15	0.3536	918.89	2.01
303.15	0.4387	908	2.15
303.15	0.5225	897.28	2.28
303.15	0.6458	883.65	2.45
303.15	0.8454	865.74	2.68
303.15	1	854.5	2.82
313.15	0	992.21	1.09
313.15	0.0055	990.68	1.13
313.15	0.011	989.03	1.17
313.15	0.028	982.66	1.24
313.15	0.0573	973.25	1.35
313.15	0.0986	960.35	1.51
313.15	0.1795	939.32	1.76
313.15	0.2672	922.71	1.97
313.15	0.3536	909.73	2.13
313.15	0.4387	899	2.26
313.15	0.5225	887.84	2.4
313.15	0.6458	874.16	2.57
313.15	0.8454	856.27	2.8
313.15	1	845.08	2.94
323.15	0	988.02	1.14
323.15	0.0055	986.17	1.2
323.15	0.011	984.42	1.23
323.15	0.028	976.92	1.32
323.15	0.0573	966.6	1.44
323.15	0.0986	952.86	1.6
323.15	0.1795	930.84	1.87
323.15	0.2672	913.66	2.08
323.15	0.3536	900.37	2.24
323.15	0.4387	889	2.39
323.15	0.5225	878.22	2.52
323.15	0.6458	864.51	2.69
323.15	0.8454	846.67	2.92
323.15	1	835.56	3.06
