Measured thermophysical data. Solubility of Valdecoxib in the Presence of Glycerol, Propylene Glycol, and Poly(ethylene glycol) 400 at (298.15, 303.15, and 308.15) K
Source: J. Chem. Eng. Data, 2005, 10.1021/je050190z
Compound 1: water, H2O, InChI=1S/H2O/h1H2
Compound 2: glycerol, C3H8O3, InChI=1S/C3H8O3/c4-1-3(6)2-5/h3-6H,1-2H2, purity 99.8%
Compound 3: 1,2-propanediol, C3H8O2, InChI=1S/C3H8O2/c1-3(5)2-4/h3-5H,2H2,1H3, purity 99%
Compound 4: valdecoxib, C16H14N2O3S, InChI=1S/C16H14N2O3S/c1-11-15(12-7-9-14(10-8-12)22(17,19)20)16(18-21-11)13-5-3-2-4-6-13/h2-10H,1H3,(H2,17,19,20), purity 99.6%

System: water + valdecoxib; phases: Liquid, Crystal
Fixed: Pressure, kPa = 101.325
Property: Mass concentration, kg/m3 (Liquid); method: UV Spectrophotometer
Temperature, K	Mass concentration, kg/m3	uncertainty
298.15	0.01025	0.00205
303.15	0.0104	0.0021
308.15	0.0111	0.0022

System: glycerol + valdecoxib; phases: Liquid, Crystal
Fixed: Pressure, kPa = 101.325
Property: Mass concentration, kg/m3 (Liquid); method: UV Spectrophotometer
Temperature, K	Mass concentration, kg/m3	uncertainty
298.15	0.0504	0.0101
303.15	0.0567	0.0113
308.15	0.0603	0.0121

System: 1,2-propanediol + valdecoxib; phases: Liquid, Crystal
Fixed: Pressure, kPa = 101.325
Property: Mass concentration, kg/m3 (Liquid); method: UV Spectrophotometer
Temperature, K	Mass concentration, kg/m3	uncertainty
298.15	1.4344	0.2876
303.15	1.9257	0.3863
308.15	2.9368	0.5888

System: glycerol + water + valdecoxib; phases: Liquid, Crystal
Fixed: Pressure, kPa = 101.325
Property: Mass concentration, kg/m3 of valdecoxib (Liquid); method: UV Spectrophotometer
Temperature, K	Solvent: Mass fraction of glycerol	Mass concentration, kg/m3 of valdecoxib	uncertainty
298.15	0	0.01025	0.00205
298.15	0.1	0.0122	0.0024
298.15	0.2	0.0162	0.0032
298.15	0.3	0.0218	0.0044
298.15	1	0.0504	0.0101
303.15	0	0.0104	0.0021
303.15	0.1	0.0133	0.0027
303.15	0.2	0.0194	0.0039
303.15	0.3	0.0297	0.0059
303.15	1	0.0567	0.0113
308.15	0	0.0111	0.0022
308.15	0.1	0.0138	0.0028
308.15	0.2	0.0237	0.0047
308.15	0.3	0.0363	0.0073
308.15	1	0.0603	0.0121

System: 1,2-propanediol + water + valdecoxib; phases: Liquid, Crystal
Fixed: Pressure, kPa = 101.325
Property: Mass concentration, kg/m3 of valdecoxib (Liquid); method: UV Spectrophotometer
Temperature, K	Solvent: Mass fraction of 1,2-propanediol	Mass concentration, kg/m3 of valdecoxib	uncertainty
298.15	0	0.01025	0.00205
298.15	0.2	0.0413	0.0083
298.15	0.4	0.1876	0.0377
298.15	0.6	0.6502	0.131
298.15	0.8	1.0386	0.2097
298.15	1	1.4344	0.2876
303.15	0	0.0104	0.0021
303.15	0.2	0.0762	0.0153
303.15	0.4	0.3912	0.0785
303.15	0.6	1.027	0.2058
303.15	0.8	1.7656	0.3544
303.15	1	1.9257	0.3863
308.15	0	0.0111	0.0022
308.15	0.2	0.1183	0.0243
308.15	0.4	0.5067	0.1018
308.15	0.6	1.2678	0.2541
308.15	0.8	2.5245	0.5053
308.15	1	2.9368	0.5888
