Measured thermophysical data. Bubble Point Pressure of the Solutions of H2SiF6 + H2O and H2SiF6 + CO(NH2)2 + H2O from 323 K to 353 K
Source: J. Chem. Eng. Data, 2006, 10.1021/je050245x
Compound 1: hexafluorosilic acid, F6H2Si, InChI=1S/F6Si/c1-7(2,3,4,5)6/q-2/p+2, purity 97%
Compound 2: urea, CH4N2O, InChI=1S/CH4N2O/c2-1(3)4/h(H4,2,3,4), purity 99.99%
Compound 3: water, H2O, InChI=1S/H2O/h1H2

System: water + hexafluorosilic acid; phases: Liquid, Gas
Property: Vapor or sublimation pressure, kPa (Liquid); method: CCELL:UFactor:16
Temperature, K	Mass fraction of hexafluorosilic acid	Vapor or sublimation pressure, kPa	uncertainty
323	0.003	13.4	0.93
323	0.0048	13.65	0.94
323	0.006	14.11	0.97
328	0.003	16.32	1.08
328	0.0048	16.84	1.11
328	0.006	18.36	1.19
333	0.003	21.37	1.34
333	0.0048	21.89	1.37
333	0.006	23.14	1.43
338	0.003	26.42	1.6
338	0.0048	27.2	1.64
338	0.006	28.72	1.72
343	0.003	35.45	2.06
343	0.0048	36.23	2.1
343	0.006	36.69	2.12
348	0.003	40.49	2.31
348	0.0048	41.55	2.37
348	0.006	42.8	2.43
353	0.003	51.65	2.89
353	0.0048	52.57	2.94
353	0.006	54.23	3.02

System: urea + water; phases: Liquid, Gas
Fixed: Mass fraction of urea = 0.2
Property: Vapor or sublimation pressure, kPa (Liquid); method: CCELL:UFactor:8
Temperature, K	Vapor or sublimation pressure, kPa	uncertainty
323	11.84	0.45
328	15.03	0.53
333	19.01	0.64
338	23.79	0.77
343	29.9	0.94
348	37.34	1.14
353	46.11	1.37

System: urea + water + hexafluorosilic acid; phases: Liquid, Gas
Property: Vapor or sublimation pressure, kPa (Liquid); method: CCELL:UFactor:8
Temperature, K	Mass fraction of hexafluorosilic acid	Mass fraction of urea	Vapor or sublimation pressure, kPa	uncertainty
323	0.003	0.004	13.36	0.48
323	0.003	0.012	12.43	0.47
323	0.003	0.02	11.99	0.46
323	0.0048	0.004	13.48	0.49
323	0.006	0.004	13.58	0.5
323	0.006	0.012	12.69	0.47
323	0.006	0.02	12.43	0.47
323	0.048	0.012	12.52	0.47
323	0.048	0.02	12.32	0.47
328	0.003	0.004	15.75	0.56
328	0.003	0.012	15.62	0.55
328	0.003	0.02	15.18	0.54
328	0.0048	0.004	16.41	0.58
328	0.006	0.004	17.03	0.59
328	0.006	0.012	15.87	0.56
328	0.006	0.02	15.62	0.55
328	0.048	0.012	15.71	0.56
328	0.048	0.02	15.78	0.56
333	0.003	0.004	20.8	0.7
333	0.003	0.012	19.87	0.67
333	0.003	0.02	19.43	0.66
333	0.0048	0.004	21.19	0.71
333	0.006	0.004	21.28	0.71
333	0.006	0.012	20.12	0.68
333	0.006	0.02	19.87	0.67
333	0.048	0.012	19.96	0.67
333	0.048	0.02	19.5	0.66
338	0.003	0.004	25.31	0.82
338	0.003	0.012	24.12	0.79
338	0.003	0.02	23.94	0.79
338	0.0048	0.004	26.5	0.85
338	0.006	0.004	26.6	0.86
338	0.006	0.012	25.44	0.83
338	0.006	0.02	24.12	0.79
338	0.048	0.012	24.74	0.81
338	0.048	0.02	24.54	0.8
343	0.003	0.004	31.69	1
343	0.003	0.012	30.76	0.98
343	0.003	0.02	30.58	0.97
343	0.0048	0.004	32.35	1.02
343	0.006	0.004	32.97	1.04
343	0.006	0.012	31.81	1
343	0.006	0.02	30.76	0.98
343	0.048	0.012	31.11	0.99
343	0.048	0.02	31.18	0.99
348	0.003	0.004	38.6	1.19
348	0.003	0.012	38.55	1.2
348	0.003	0.02	37.93	1.18
348	0.0048	0.004	40.58	1.25
348	0.006	0.004	40.68	1.25
348	0.006	0.012	39.25	1.21
348	0.006	0.02	38.03	1.18
348	0.048	0.012	39.08	1.21
348	0.048	0.02	38.36	1.19
353	0.003	0.004	48.43	1.46
353	0.003	0.012	48.38	1.46
353	0.003	0.02	48.03	1.45
353	0.0048	0.004	50.68	1.52
353	0.006	0.004	50.77	1.53
353	0.006	0.012	49.08	1.48
353	0.006	0.02	48.63	1.47
353	0.048	0.012	48.91	1.47
353	0.048	0.02	48.19	1.45
