Measured thermophysical data. Liquid-Liquid Equilibrium of (Water + Acetone) with Cumene or r-Methylstyrene or Phenol at Temperatures of (323.15 and 333.15) K
Source: J. Chem. Eng. Data, 2006, 10.1021/je050500d
Compound 1: phenol, C6H6O, InChI=1S/C6H6O/c7-6-4-2-1-3-5-6/h1-5,7H, purity 99.5%
Compound 2: isopropylbenzene, C9H12, InChI=1S/C9H12/c1-8(2)9-6-4-3-5-7-9/h3-8H,1-2H3, purity 99.5%
Compound 3: water, H2O, InChI=1S/H2O/h1H2
Compound 4: acetone, C3H6O, InChI=1S/C3H6O/c1-3(2)4/h1-2H3
Compound 5: (1-methylethenyl)benzene, C9H10, InChI=1S/C9H10/c1-8(2)9-6-4-3-5-7-9/h3-7H,1H2,2H3, purity 99.8%

System: acetone + phenol + water; phases: Liquid mixture 1, Liquid mixture 2
Fixed: Pressure, kPa = 101
Property: Mass fraction of acetone (Liquid mixture 1); method: Chromatography
Property: Mass fraction of water (Liquid mixture 2); method: Chromatography
Property: Mass fraction of acetone (Liquid mixture 2); method: Chromatography
Temperature, K	Mass fraction of water	Mass fraction of acetone	uncertainty	Mass fraction of water	uncertainty	Mass fraction of acetone	uncertainty
323.15	0.9005	0.0309	0.0188	0.2248	0.0115	0.1469	
323.15	0.8992	0.0305	0.0203	0.201	0.0116	0.1472	
323.15	0.8974	0.0284	0.0242	0.2018	0.0116	0.1392	
323.15	0.8967	0.0147	0.0147	0.2553	0.0137	0.0782	
323.15	0.8933	0.0448	0.0173	0.1953	0.0106	0.1958	
323.15	0.8915	0.046	0.018	0.1896	0.0106	0.2012	
323.15	0.8853	0.0544	0.0249	0.1806	0.011	0.2253	
323.15	0.8773	0.0667	0.0156	0.1684	0.0103	0.2552	
323.15	0.8691	0.0776	0.0154	0.1805	0.0104	0.2732	
323.15	0.8318	0.116	0.0145	0.1839	0.0186	0.3341	
323.15	0.8187	0.1278	0.0138	0.1802	0.0105	0.354	
323.15	0.8139	0.1345	0.0147	0.2061	0.0186	0.3487	
333.15	0.8827	0.0337	0.0223	0.2308	0.0105	0.1456	
333.15	0.8823	0.0305	0.0253	0.2204	0.0134	0.1332	
333.15	0.8805	0.0161	0.0161	0.2755	0.014	0.0737	
333.15	0.8793	0.0472	0.0179	0.2138	0.0111	0.1901	
333.15	0.8765	0.0341	0.0305	0.2197	0.0117	0.1427	
333.15	0.8702	0.058	0.026	0.2013	0.0111	0.2183	
333.15	0.864	0.0693	0.0239	0.1901	0.0104	0.2478	
333.15	0.853	0.0834	0.0147	0.2076	0.0105	0.2743	
333.15	0.813	0.1227	0.0139	0.2068	0.0127	0.331	
333.15	0.7919	0.1411	0.0136	0.2199	0.0129	0.3483	
333.15	0.7965	0.135	0.0128	0.2154	0.0127	0.3429	

System: acetone + isopropylbenzene + water; phases: Liquid mixture 1, Liquid mixture 2
Fixed: Pressure, kPa = 101
Property: Mass fraction of acetone (Liquid mixture 1); method: Chromatography
Property: Mass fraction of water (Liquid mixture 2); method: Chromatography
Property: Mass fraction of acetone (Liquid mixture 2); method: Chromatography
Temperature, K	Mass fraction of water	Mass fraction of acetone	uncertainty	Mass fraction of water	uncertainty	Mass fraction of acetone	uncertainty
323.15	0.9747	0.0253	0.0144	0	0.0001	0.0189	
323.15	0.9156	0.0843	0.0144	0	0.0001	0.0665	
323.15	0.9097	0.0901	0.0144	0	0.0001	0.071	
323.15	0.8487	0.1511	0.0144	0	0.0001	0.1239	
323.15	0.8577	0.1421	0.0144	0.0147	0.0102	0.1225	
323.15	0.8087	0.1908	0.0144	0.0033	0.0033	0.171	
323.15	0.7066	0.2916	0.0144	0.0146	0.0103	0.2945	
323.15	0.5902	0.4044	0.0145	0.0377	0.0103	0.4396	
333.15	0.9197	0.0801	0.0144	0	0.0001	0.0698	
333.15	0.9138	0.086	0.0144	0	0.0001	0.0725	
333.15	0.8354	0.1642	0.0144	0	0.0001	0.1514	
333.15	0.8567	0.143	0.0144	0	0.0001	0.1304	
333.15	0.8159	0.1836	0.0144	0	0.0001	0.1782	
333.15	0.8173	0.1821	0.0144	0	0.0001	0.174	
333.15	0.7694	0.2298	0.0143	0	0.0001	0.2329	
333.15	0.7646	0.2345	0.0143	0	0.0001	0.2361	
333.15	0.5996	0.3947	0.0145	0.0362	0.0104	0.4489	
333.15	0.6015	0.393	0.0145	0.0264	0.0103	0.4525	
333.15	0.6052	0.3892	0.0145	0.0288	0.0103	0.4507	

System: acetone + (1-methylethenyl)benzene + water; phases: Liquid mixture 1, Liquid mixture 2
Fixed: Pressure, kPa = 101
Property: Mass fraction of acetone (Liquid mixture 1); method: Chromatography
Property: Mass fraction of water (Liquid mixture 2); method: Chromatography
Property: Mass fraction of acetone (Liquid mixture 2); method: Chromatography
Temperature, K	Mass fraction of water	Mass fraction of acetone	uncertainty	Mass fraction of water	uncertainty	Mass fraction of acetone	uncertainty
323.15	0.7657	0.2331	0.0144	0.0107	0.0102	0.249	
323.15	0.6985	0.2991	0.0144	0.0192	0.0104	0.3413	
323.15	0.6942	0.3031	0.0144	0.0372	0.0104	0.343	
323.15	0.664	0.3323	0.0143	0.0366	0.0102	0.378	
323.15	0.6614	0.3347	0.0143	0.0334	0.0106	0.3907	
323.15	0.599	0.3942	0.0142	0.0226	0.0104	0.4655	
323.15	0.6271	0.3676	0.0143	0.0466	0.0104	0.4178	
323.15	0.573	0.4176	0.0141	0.0339	0.0103	0.4979	
323.15	0.543	0.4454	0.0145	0.0308	0.0102	0.5263	
333.15	0.7733	0.2253	0.0144	0.0231	0.0103	0.2514	
333.15	0.716	0.2814	0.0144	0.0317	0.0102	0.3358	
333.15	0.7129	0.2845	0.0144	0.0354	0.0102	0.3333	
333.15	0.6804	0.3157	0.0143	0.028	0.0102	0.3883	
333.15	0.6715	0.3242	0.0143	0.0305	0.0102	0.3925	
333.15	0.6689	0.3269	0.0143	0.0261	0.0102	0.3969	
333.15	0.6391	0.3552	0.0143	0.0406	0.0103	0.4385	
333.15	0.6212	0.3719	0.0142	0.0491	0.0104	0.445	
333.15	0.6156	0.3777	0.0144	0.0326	0.0172	0.4571	
