Measured thermophysical data. Isothermal and Isobaric Vapor-Liquid Equilibria of the Ternary System of 2,2-Dimethoxypropane + Acetone + Methanol
Source: J. Chem. Eng. Data, 2005, 10.1021/je050013y
Compound 1: 3,3-dimethyl-2,4-dioxapentane, C5H12O2, InChI=1S/C5H12O2/c1-5(2,6-3)7-4/h1-4H3
Compound 2: acetone, C3H6O, InChI=1S/C3H6O/c1-3(2)4/h1-2H3
Compound 3: methanol, CH4O, InChI=1S/CH4O/c1-2/h2H,1H3

System: 3,3-dimethyl-2,4-dioxapentane; phases: Liquid
Property: Refractive index (Na D-line) (Liquid); method: Standard Abbe refractometry
Temperature, K	Pressure, kPa	Refractive index (Na D-line)	uncertainty
293.15	101.325	1.378	0.0007

System: 3,3-dimethyl-2,4-dioxapentane; phases: Liquid
Property: Mass density, kg/m3 (Liquid); method: VIBTUB:UFactor:2
Temperature, K	Pressure, kPa	Mass density, kg/m3	uncertainty
293.15	101.325	840.2	4.5

System: acetone; phases: Liquid
Property: Refractive index (Na D-line) (Liquid); method: Standard Abbe refractometry
Temperature, K	Pressure, kPa	Refractive index (Na D-line)	uncertainty
293.15	101.325	1.3589	0.0007

System: acetone; phases: Liquid
Property: Mass density, kg/m3 (Liquid); method: VIBTUB:UFactor:2
Temperature, K	Pressure, kPa	Mass density, kg/m3	uncertainty
293.15	101.325	784.6	3

System: methanol; phases: Liquid
Property: Refractive index (Na D-line) (Liquid); method: Standard Abbe refractometry
Temperature, K	Pressure, kPa	Refractive index (Na D-line)	uncertainty
293.15	101.325	1.3289	0.0007

System: methanol; phases: Liquid
Property: Mass density, kg/m3 (Liquid); method: VIBTUB:UFactor:2
Temperature, K	Pressure, kPa	Mass density, kg/m3	uncertainty
293.15	101.325	786.5	0.3

System: methanol + acetone + 3,3-dimethyl-2,4-dioxapentane; phases: Liquid, Gas
Fixed: Temperature, K = 323.15
Property: Vapor or sublimation pressure, kPa (Liquid); method: Ebulliometric method (Recirculating still)
Mole fraction of 3,3-dimethyl-2,4-dioxapentane	Mole fraction of acetone	Vapor or sublimation pressure, kPa	uncertainty
0.1242	0.1231	68.82	0.47
0.1248	0.6598	81.16	0.52
0.125	0.2537	74.11	0.49
0.1278	0.3834	77.67	0.51
0.1383	0.7422	80.52	0.52
0.2458	0.2629	74.32	0.49
0.2499	0.1252	69.83	0.48
0.25	0.6239	77.53	0.51
0.2503	0.3748	76.04	0.5
0.2506	0.4995	77.5	0.51
0.3745	0.4994	73.99	0.49
0.3749	0.2494	71.85	0.48
0.3751	0.3717	73.87	0.49
0.496	0.1303	67.59	0.47
0.4984	0.2499	69.23	0.47
0.51	0.3677	69.18	0.47
0.6241	0.2499	64.55	0.46
0.6249	0.125	63.76	0.45
0.7494	0.125	58.06	0.43

System: methanol + acetone + 3,3-dimethyl-2,4-dioxapentane; phases: Liquid, Gas
Property: Boiling temperature at pressure P, K (Liquid); method: Ebulliometric method (Recirculating still)
Mole fraction of 3,3-dimethyl-2,4-dioxapentane	Mole fraction of acetone	Pressure, kPa	Boiling temperature at pressure P, K	uncertainty
0.1242	0.1231	66.66	322.28	0.19
0.1242	0.1231	79.99	327.03	0.19
0.1248	0.6598	66.66	318.08	0.18
0.1248	0.6598	79.99	322.77	0.19
0.125	0.2537	66.66	320.48	0.18
0.125	0.2537	79.99	325.06	0.19
0.1278	0.3834	66.66	319.27	0.18
0.1278	0.3834	79.99	323.91	0.19
0.1383	0.7422	66.66	318.2	0.19
0.1383	0.7422	79.99	322.97	0.19
0.2458	0.2629	66.66	320.42	0.18
0.2458	0.2629	79.99	325.02	0.19
0.2499	0.1252	66.66	322	0.17
0.2499	0.1252	79.99	326.58	0.19
0.25	0.6239	66.66	319.21	0.19
0.25	0.6239	79.99	323.98	0.19
0.2503	0.3748	66.66	319.65	0.18
0.2503	0.3748	79.99	324.5	0.19
0.2506	0.4995	66.66	319.24	0.18
0.2506	0.4995	79.99	323.98	0.19
0.3745	0.4994	66.66	320.43	0.19
0.3745	0.4994	79.99	325.23	0.19
0.3749	0.2494	66.66	321.07	0.19
0.3749	0.2494	79.99	326.04	0.19
0.3751	0.3717	66.66	320.47	0.18
0.3751	0.3717	79.99	325.26	0.2
0.496	0.1303	66.66	322.83	0.17
0.496	0.1303	79.99	327.35	0.2
0.4984	0.2499	66.66	322.1	0.18
0.4984	0.2499	79.99	327.06	0.2
0.51	0.3677	66.66	322.18	0.19
0.51	0.3677	79.99	327.07	0.19
0.6241	0.2499	66.66	323.95	0.19
0.6241	0.2499	79.99	328.73	0.19
0.6249	0.125	66.66	324.28	0.18
0.6249	0.125	79.99	329.06	0.2
0.7494	0.125	66.66	326.72	0.18
0.7494	0.125	79.99	331.41	0.19
