Measured thermophysical data. Surface Tensions of Dilute Solutions of Cycloheptanol in Ethylene Glycol
Source: J. Chem. Eng. Data, 2005, 10.1021/je050055m
Compound 1: cycloheptanol, C7H14O, InChI=1S/C7H14O/c8-7-5-3-1-2-4-6-7/h7-8H,1-6H2
Compound 2: 1,2-ethanediol, C2H6O2, InChI=1S/C2H6O2/c3-1-2-4/h3-4H,1-2H2

System: cycloheptanol; phases: Liquid, Gas
Property: Surface tension liquid-gas, N/m (Liquid); method: Ring tensiometer
Temperature, K	Surface tension liquid-gas, N/m	uncertainty
293.15	0.02968	0.00301
298.15	0.02876	0.00291
303.15	0.02786	0.00282
308.15	0.02688	0.00273
313.15	0.02599	0.00264
318.15	0.02518	0.00255
323.15	0.02426	0.00246

System: 1,2-ethanediol; phases: Liquid, Gas
Property: Surface tension liquid-gas, N/m (Liquid); method: Ring tensiometer
Temperature, K	Surface tension liquid-gas, N/m	uncertainty
293.15	0.04855	0.00065
298.15	0.04811	0.00065
303.15	0.04758	0.00064
308.15	0.04714	0.00064
313.15	0.04679	0.00063
318.15	0.04629	0.00063
323.15	0.04599	0.00062

System: 1,2-ethanediol + cycloheptanol; phases: Liquid, Gas
Property: Surface tension liquid-gas, N/m (Liquid); method: Ring tensiometer
Temperature, K	Mole fraction of cycloheptanol	Surface tension liquid-gas, N/m	uncertainty
293.15	0	0.04855	0.00203
298.15	0	0.04811	0.00201
303.15	0	0.04758	0.00199
308.15	0	0.04714	0.00197
313.15	0	0.04679	0.00196
318.15	0	0.04629	0.00194
323.15	0	0.04599	0.00193
293.15	0.003	0.04826	0.00202
298.15	0.003	0.04783	0.002
303.15	0.003	0.04744	0.00199
308.15	0.003	0.04702	0.00197
313.15	0.003	0.0466	0.00195
318.15	0.003	0.0462	0.00193
323.15	0.003	0.04581	0.00192
298.15	0.006	0.04754	0.00199
293.15	0.006	0.04793	0.00201
303.15	0.006	0.04716	0.00197
308.15	0.006	0.04677	0.00196
313.15	0.006	0.04636	0.00194
318.15	0.006	0.04603	0.00193
323.15	0.006	0.04563	0.00191
298.15	0.008	0.04742	0.00199
303.15	0.008	0.04709	0.00197
293.15	0.008	0.04776	0.002
308.15	0.008	0.0467	0.00196
313.15	0.008	0.04634	0.00194
318.15	0.008	0.04595	0.00192
323.15	0.008	0.0456	0.00191
308.15	0.009	0.0464	0.00194
293.15	0.009	0.04739	0.00198
298.15	0.009	0.04706	0.00197
313.15	0.009	0.04605	0.00193
303.15	0.009	0.0467	0.00196
318.15	0.009	0.04572	0.00192
323.15	0.009	0.04537	0.0019
298.15	0.011	0.04689	0.00196
308.15	0.011	0.04624	0.00194
313.15	0.011	0.04589	0.00192
293.15	0.011	0.0472	0.00198
318.15	0.011	0.04453	0.00187
303.15	0.011	0.04654	0.00195
323.15	0.011	0.0452	0.00189
303.15	0.019	0.04507	0.00189
313.15	0.019	0.04446	0.00186
298.15	0.019	0.04544	0.0019
308.15	0.019	0.04479	0.00188
318.15	0.019	0.04411	0.00185
293.15	0.019	0.04574	0.00192
323.15	0.019	0.04384	0.00184
313.15	0.046	0.04116	0.00173
303.15	0.046	0.04175	0.00175
293.15	0.046	0.04233	0.00178
298.15	0.046	0.04201	0.00176
318.15	0.046	0.04086	0.00171
308.15	0.046	0.04142	0.00174
323.15	0.046	0.04053	0.0017
298.15	0.06	0.04055	0.0017
303.15	0.06	0.04041	0.0017
313.15	0.06	0.03991	0.00168
318.15	0.06	0.0397	0.00167
293.15	0.06	0.04089	0.00172
308.15	0.06	0.04016	0.00169
323.15	0.06	0.03943	0.00166
293.15	0.072	0.03998	0.00168
318.15	0.072	0.03855	0.00162
308.15	0.072	0.0391	0.00164
298.15	0.072	0.0397	0.00167
303.15	0.072	0.03939	0.00165
313.15	0.072	0.03884	0.00163
323.15	0.072	0.03824	0.00161
