Measured thermophysical data. Densities and Viscosities of Binary Mixtures of Propylene Glycol Monomethyl Ether Acetate with Methacrylic Acid, Benzyl Methacrylate, and 2-Hydroxyethyl Methacrylate between 298.15 K and 318.15 K
Source: J. Chem. Eng. Data, 2005, 10.1021/je050196o
Compound 1: 1-methoxy-2-propyl acetate, C6H12O3, InChI=1S/C6H12O3/c1-5(4-8-3)9-6(2)7/h5H,4H2,1-3H3, purity 99%
Compound 2: benzyl methacrylate, C11H12O2, InChI=1S/C11H12O2/c1-9(2)11(12)13-8-10-6-4-3-5-7-10/h3-7H,1,8H2,2H3, purity 98%
Compound 3: 2-hydroxyethyl 2-methyl-2-propenoate, C6H10O3, InChI=1S/C6H10O3/c1-5(2)6(8)9-4-3-7/h7H,1,3-4H2,2H3, purity 98%
Compound 4: 2-methyl-2-propenoic acid, C4H6O2, InChI=1S/C4H6O2/c1-3(2)4(5)6/h1H2,2H3,(H,5,6), purity 99.5%

System: 1-methoxy-2-propyl acetate; phases: Liquid
Fixed: Pressure, kPa = 101
Property: Viscosity, Pa*s (Liquid); method: Capillary tube (Ostwald; Ubbelohde) method
Temperature, K	Viscosity, Pa*s	uncertainty
298.15	0.001071	8e-05
308.15	0.000904	8e-05
318.15	0.000777	8e-05

System: 1-methoxy-2-propyl acetate; phases: Liquid
Fixed: Pressure, kPa = 101
Property: Mass density, kg/m3 (Liquid); method: Pycnometric method
Temperature, K	Mass density, kg/m3	uncertainty
298.15	961.4	2
308.15	951.4	2
318.15	940.7	2

System: benzyl methacrylate; phases: Liquid
Fixed: Pressure, kPa = 101
Property: Viscosity, Pa*s (Liquid); method: Capillary tube (Ostwald; Ubbelohde) method
Temperature, K	Viscosity, Pa*s	uncertainty
298.15	0.002302	6.5e-05
308.15	0.001885	6.4e-05
318.15	0.00158	6.3e-05

System: benzyl methacrylate; phases: Liquid
Fixed: Pressure, kPa = 101
Property: Mass density, kg/m3 (Liquid); method: Pycnometric method
Temperature, K	Mass density, kg/m3	uncertainty
298.15	1034.7	2.3
308.15	1025.8	2.3
318.15	1017	2.3

System: 2-hydroxyethyl 2-methyl-2-propenoate; phases: Liquid
Fixed: Pressure, kPa = 101
Property: Viscosity, Pa*s (Liquid); method: Capillary tube (Ostwald; Ubbelohde) method
Temperature, K	Viscosity, Pa*s	uncertainty
298.15	0.005784	0.000132
308.15	0.004194	9.6e-05
318.15	0.003181	8.8e-05

System: 2-hydroxyethyl 2-methyl-2-propenoate; phases: Liquid
Fixed: Pressure, kPa = 101
Property: Mass density, kg/m3 (Liquid); method: Pycnometric method
Temperature, K	Mass density, kg/m3	uncertainty
298.15	1067.1	2.4
308.15	1057.7	2.4
318.15	1048.6	2.4

System: 2-methyl-2-propenoic acid; phases: Liquid
Fixed: Pressure, kPa = 101
Property: Viscosity, Pa*s (Liquid); method: Capillary tube (Ostwald; Ubbelohde) method
Temperature, K	Viscosity, Pa*s	uncertainty
298.15	0.001267	2.6e-05
308.15	0.001078	2.3e-05
318.15	0.000945	2e-05

System: 2-methyl-2-propenoic acid; phases: Liquid
Fixed: Pressure, kPa = 101
Property: Mass density, kg/m3 (Liquid); method: Pycnometric method
Temperature, K	Mass density, kg/m3	uncertainty
298.15	1009.5	2
308.15	999.4	2
318.15	989.2	2

System: 1-methoxy-2-propyl acetate + 2-hydroxyethyl 2-methyl-2-propenoate; phases: Liquid
Fixed: Pressure, kPa = 101
Property: Viscosity, Pa*s (Liquid); method: Capillary tube (Ostwald; Ubbelohde) method
Temperature, K	Mole fraction of 1-methoxy-2-propyl acetate	Viscosity, Pa*s	uncertainty
298.15	0	0.005784	0.000132
298.15	0.1	0.004764	0.000108
298.15	0.2	0.00384	8.9e-05
298.15	0.3	0.003222	8.6e-05
298.15	0.4	0.002719	8.4e-05
298.15	0.5	0.002257	8.3e-05
298.15	0.6	0.001922	8.2e-05
298.15	0.7	0.001651	8.1e-05
298.15	0.8	0.001389	8.1e-05
298.15	0.8999	0.001234	8.1e-05
298.15	1	0.001071	8e-05
308.15	0	0.004194	9.6e-05
308.15	0.1	0.003519	8.9e-05
308.15	0.2	0.0029	8.5e-05
308.15	0.3	0.002477	8.4e-05
308.15	0.4	0.002123	8.3e-05
308.15	0.5	0.00179	8.2e-05
308.15	0.6	0.00155	8.1e-05
308.15	0.7	0.001341	8.1e-05
308.15	0.8	0.001147	8.1e-05
308.15	0.8999	0.001052	8e-05
308.15	1	0.000904	8e-05
318.15	0	0.003181	8.8e-05
318.15	0.1	0.00271	8.5e-05
318.15	0.2	0.002273	8.3e-05
318.15	0.3	0.001969	8.2e-05
318.15	0.4	0.001709	8.2e-05
318.15	0.5	0.001461	8.1e-05
318.15	0.6	0.001284	8.1e-05
318.15	0.7	0.001117	8.1e-05
318.15	0.8	0.000969	8e-05
318.15	0.8999	0.000889	8e-05
318.15	1	0.000777	8e-05

System: 1-methoxy-2-propyl acetate + 2-hydroxyethyl 2-methyl-2-propenoate; phases: Liquid
Fixed: Pressure, kPa = 101
Property: Mass density, kg/m3 (Liquid); method: Pycnometric method
Temperature, K	Mole fraction of 1-methoxy-2-propyl acetate	Mass density, kg/m3	uncertainty
298.15	0	1067.1	2.4
298.15	0.1	1056.4	2.4
298.15	0.2	1045.7	2.3
298.15	0.3	1034.9	2.3
298.15	0.4	1024.1	2.2
298.15	0.5	1013.5	2.2
298.15	0.6	1003	2.1
298.15	0.7	992.6	2.1
298.15	0.8	982.2	2.1
298.15	0.8999	971.8	2
298.15	1	961.4	2
308.15	0	1057.7	2.4
308.15	0.1	1046.7	2.3
308.15	0.2	1035.9	2.3
308.15	0.3	1025	2.2
308.15	0.4	1014.2	2.2
308.15	0.5	1003.5	2.2
308.15	0.6	993	2.1
308.15	0.7	982.5	2.1
308.15	0.8	971.9	2
308.15	0.8999	961.5	2
308.15	1	951.4	2
318.15	0	1048.6	2.4
318.15	0.1	1037.3	2.3
318.15	0.2	1026.1	2.3
318.15	0.3	1015.1	2.2
318.15	0.4	1004.1	2.2
318.15	0.5	993.3	2.1
318.15	0.6	982.6	2.1
318.15	0.7	972	2.1
318.15	0.8	961.3	2
318.15	0.8999	950.8	2
318.15	1	940.7	2

System: 1-methoxy-2-propyl acetate + benzyl methacrylate; phases: Liquid
Fixed: Pressure, kPa = 101
Property: Viscosity, Pa*s (Liquid); method: Capillary tube (Ostwald; Ubbelohde) method
Temperature, K	Mole fraction of 1-methoxy-2-propyl acetate	Viscosity, Pa*s	uncertainty
298.15	0	0.002302	6.5e-05
298.15	0.1	0.002245	6.5e-05
298.15	0.2	0.002123	6.4e-05
298.15	0.3	0.001991	6.3e-05
298.15	0.4	0.001857	6.3e-05
298.15	0.4999	0.001694	6.2e-05
298.15	0.6	0.001559	6.2e-05
298.15	0.7	0.001434	6.1e-05
298.15	0.8	0.001327	6.1e-05
298.15	0.9	0.001232	6.1e-05
298.15	1	0.001071	6.1e-05
308.15	0	0.001885	6.4e-05
308.15	0.1	0.00184	6.3e-05
308.15	0.2	0.001743	6.3e-05
308.15	0.3	0.001638	6.2e-05
308.15	0.4	0.00153	6.2e-05
308.15	0.4999	0.001399	6.1e-05
308.15	0.6	0.001286	6.1e-05
308.15	0.7	0.001189	6.1e-05
308.15	0.8	0.001105	6.1e-05
308.15	0.9	0.001028	6.1e-05
308.15	1	0.000904	6e-05
318.15	0	0.00158	6.3e-05
318.15	0.1	0.001544	6.2e-05
318.15	0.2	0.001465	6.2e-05
318.15	0.3	0.001377	6.2e-05
318.15	0.4	0.001289	6.1e-05
318.15	0.4999	0.001183	6.1e-05
318.15	0.6	0.001086	6.1e-05
318.15	0.7	0.001007	6.1e-05
318.15	0.8	0.000937	6.1e-05
318.15	0.9	0.000874	6e-05
318.15	1	0.000777	6e-05

System: 1-methoxy-2-propyl acetate + benzyl methacrylate; phases: Liquid
Fixed: Pressure, kPa = 101
Property: Mass density, kg/m3 (Liquid); method: Pycnometric method
Temperature, K	Mole fraction of 1-methoxy-2-propyl acetate	Mass density, kg/m3	uncertainty
298.15	0	1034.7	2.3
298.15	0.1	1029	2.3
298.15	0.2	1023.1	2.3
298.15	0.3	1017	2.2
298.15	0.4	1010.6	2.2
298.15	0.4999	1003.8	2.2
298.15	0.6	996.6	2.1
298.15	0.7	989	2.1
298.15	0.8	980.7	2.1
298.15	0.9	971.9	2
298.15	1	961.4	2
308.15	0	1025.8	2.3
308.15	0.1	1019.9	2.3
308.15	0.2	1013.8	2.2
308.15	0.3	1007.6	2.2
308.15	0.4	1001.1	2.2
308.15	0.4999	994.2	2.1
308.15	0.6	986.9	2.1
308.15	0.7	979.2	2.1
308.15	0.8	970.7	2
308.15	0.9	961.8	2
308.15	1	951.4	2
318.15	0	1017	2.3
318.15	0.1	1010.9	2.3
318.15	0.2	1004.6	2.2
318.15	0.3	998.2	2.2
318.15	0.4	991.5	2.2
318.15	0.4999	984.4	2.1
318.15	0.6	976.9	2.1
318.15	0.7	969	2.1
318.15	0.8	960.3	2
318.15	0.9	951.2	2
318.15	1	940.7	2

System: 2-methyl-2-propenoic acid + 1-methoxy-2-propyl acetate; phases: Liquid
Fixed: Pressure, kPa = 101
Property: Viscosity, Pa*s (Liquid); method: Capillary tube (Ostwald; Ubbelohde) method
Temperature, K	Mole fraction of 1-methoxy-2-propyl acetate	Viscosity, Pa*s	uncertainty
298.15	0	0.001267	2.6e-05
298.15	0.1	0.001423	3e-05
298.15	0.2	0.001506	3.2e-05
298.15	0.3	0.00156	3.3e-05
298.15	0.3999	0.001585	3.3e-05
298.15	0.5	0.001569	3.3e-05
298.15	0.6	0.001499	3.2e-05
298.15	0.7	0.001411	3e-05
298.15	0.7999	0.001301	2.8e-05
298.15	0.9	0.001175	2.5e-05
298.15	1	0.001071	2.3e-05
308.15	0	0.001078	2.3e-05
308.15	0.1	0.001202	2.5e-05
308.15	0.2	0.001301	2.7e-05
308.15	0.3	0.001345	2.8e-05
308.15	0.3999	0.001348	2.8e-05
308.15	0.5	0.00131	2.8e-05
308.15	0.6	0.00124	2.6e-05
308.15	0.7	0.001168	2.5e-05
308.15	0.7999	0.001081	2.3e-05
308.15	0.9	0.000985	2.1e-05
308.15	1	0.000904	1.9e-05
318.15	0	0.000945	2e-05
318.15	0.1	0.001033	2.2e-05
318.15	0.2	0.001105	2.3e-05
318.15	0.3	0.001124	2.4e-05
318.15	0.3999	0.001125	2.4e-05
318.15	0.5	0.0011	2.3e-05
318.15	0.6	0.001049	2.2e-05
318.15	0.7	0.000988	2.1e-05
318.15	0.7999	0.000929	2e-05
318.15	0.9	0.000844	1.8e-05
318.15	1	0.000777	1.7e-05

System: 2-methyl-2-propenoic acid + 1-methoxy-2-propyl acetate; phases: Liquid
Fixed: Pressure, kPa = 101
Property: Mass density, kg/m3 (Liquid); method: Pycnometric method
Temperature, K	Mole fraction of 1-methoxy-2-propyl acetate	Mass density, kg/m3	uncertainty
298.15	0	1009.5	2
298.15	0.1	1004	2
298.15	0.2	999	2
298.15	0.3	993.9	2
298.15	0.3999	989.1	2
298.15	0.5	984.8	2
298.15	0.6	980.1	2
298.15	0.7	975.8	2
298.15	0.7999	970.8	2
298.15	0.9	965.8	2
298.15	1	961.4	2
308.15	0	999.4	2
308.15	0.1	994.1	2
308.15	0.2	989.3	2
308.15	0.3	984.1	2
308.15	0.3999	979.2	2
308.15	0.5	975	2
308.15	0.6	970.3	2
308.15	0.7	966	2
308.15	0.7999	960.9	2
308.15	0.9	956	2
308.15	1	951.4	2
318.15	0	989.2	2
318.15	0.1	983.9	2
318.15	0.2	979.4	2
318.15	0.3	973.9	2
318.15	0.3999	968.9	2
318.15	0.5	964.8	2
318.15	0.6	959.9	2
318.15	0.7	955.5	2
318.15	0.7999	950.5	2
318.15	0.9	945.6	2
318.15	1	940.7	2
