Measured thermophysical data. Vapor Pressure Determination of the KOH + K2CrO4 + H2O System
Source: J. Chem. Eng. Data, 2006, 10.1021/je0501538
Compound 1: potassium chromate(VI), CrK2O4, InChI=1S/Cr.2K.4O/q;2*+1;;;2*-1, purity 99%
Compound 2: potassium hydroxide, HKO, InChI=1S/K.H2O/h;1H2/q+1;/p-1, purity 82%
Compound 3: water, H2O, InChI=1S/H2O/h1H2

System: potassium hydroxide + water + potassium chromate(VI); phases: Liquid, Gas
Property: Vapor or sublimation pressure, kPa (Liquid); method: HGMAN:UFactor:16
Temperature, K	Amount concentration (molarity), mol/dm3 of potassium chromate(VI)	Amount concentration (molarity), mol/dm3 of potassium hydroxide	Vapor or sublimation pressure, kPa	uncertainty
328.15	0.0525	2.5558	15.9	1.1
328.15	0.0525	5.0024	14	1
328.15	0.0525	6.6286	11.1	0.8
328.15	0.0525	8.3981	9.9	0.8
328.15	0.105	4.0896	15	1
328.15	0.1062	0.8397	14.2	1
328.15	0.1062	2.5558	13.4	0.9
328.15	0.1062	5.0024	14.3	1
328.15	0.2721	0.8397	15.2	1
328.15	0.2721	5.0024	11.1	0.8
328.15	0.5263	2.5558	13.3	0.9
328.15	0.5339	0.8397	15.2	1
328.15	1.0588	0.8397	14.2	1
328.15	1.0588	2.5558	11.8	0.8
336.15	0.0525	2.5558	21.1	1.3
336.15	0.0525	5.0024	17.9	1.2
336.15	0.0525	6.6286	14.9	1
336.15	0.0525	8.3981	13.3	0.9
336.15	0.105	4.0896	20.9	1.3
336.15	0.1062	0.8397	20.8	1.3
336.15	0.1062	2.5558	18.8	1.2
336.15	0.1062	5.0024	18	1.2
336.15	0.2721	0.8397	21.7	1.3
336.15	0.2721	5.0024	15.3	1
336.15	0.5263	2.5558	17.2	1.1
336.15	0.5339	0.8397	21.4	1.3
336.15	1.0588	0.8397	19.5	1.2
336.15	1.0588	2.5558	16.4	1.1
344.15	0.0525	2.5558	27.5	1.7
344.15	0.0525	5.0024	22.7	1.4
344.15	0.0525	6.6286	19.7	1.3
344.15	0.0525	8.3981	17.7	1.2
344.15	0.105	4.0896	28.6	1.7
344.15	0.1062	0.8397	30.1	1.8
344.15	0.1062	2.5558	26	1.6
344.15	0.1062	5.0024	22.5	1.4
344.15	0.2721	0.8397	30.4	1.8
344.15	0.2721	5.0024	20.8	1.3
344.15	0.5263	2.5558	22.1	1.4
344.15	0.5339	0.8397	29.6	1.7
344.15	1.0588	0.8397	26.6	1.6
344.15	1.0588	2.5558	22.5	1.4
352.15	0.0525	2.5558	35.6	2.1
352.15	0.0525	5.0024	28.4	1.7
352.15	0.0525	6.6286	25.7	1.6
352.15	0.0525	8.3981	23.3	1.5
352.15	0.105	4.0896	38.6	2.2
352.15	0.1062	0.8397	42.7	2.4
352.15	0.1062	2.5558	35.4	2.1
352.15	0.1062	5.0024	27.7	1.7
352.15	0.2721	0.8397	41.9	2.4
352.15	0.2721	5.0024	27.9	1.7
352.15	0.5263	2.5558	28	1.7
352.15	0.5339	0.8397	40.4	2.3
352.15	1.0588	0.8397	35.6	2
352.15	1.0588	2.5558	30.4	1.8
360.15	0.0525	2.5558	45.5	2.6
360.15	0.0525	5.0024	35.2	2.1
360.15	0.0525	6.6286	33.1	2
360.15	0.0525	8.3981	30.1	1.8
360.15	0.105	4.0896	51.4	2.9
360.15	0.1062	0.8397	59.6	3.3
360.15	0.1062	2.5558	47.5	2.7
360.15	0.1062	5.0024	33.8	2
360.15	0.2721	0.8397	57	3.1
360.15	0.2721	5.0024	36.8	2.1
360.15	0.5263	2.5558	35.1	2
360.15	0.5339	0.8397	54.2	3
360.15	1.0588	0.8397	47.1	2.6
360.15	1.0588	2.5558	40.5	2.3
368.15	0.0525	2.5558	57.5	3.2
368.15	0.0525	5.0024	43.3	2.5
368.15	0.0525	6.6286	42.1	2.4
368.15	0.0525	8.3981	38.6	2.3
368.15	0.105	4.0896	67.6	3.7
368.15	0.1062	0.8397	82.1	4.4
368.15	0.1062	2.5558	63	3.5
368.15	0.1062	5.0024	41	2.4
368.15	0.2721	0.8397	76.5	4.1
368.15	0.2721	5.0024	48.1	2.7
368.15	0.5263	2.5558	43.6	2.5
368.15	0.5339	0.8397	72	3.9
368.15	1.0588	0.8397	61.5	3.4
368.15	1.0588	2.5558	53.2	3
