Measured thermophysical data. Temperature Dependence of Speed of Sound, Densities, and Isentropic Compressibilities of Hexane + Hexadecane, In the Range (293.15 to 373.15) K
Source: J. Chem. Eng. Data, 2005, 10.1021/je050060q
Compound 1: hexane, C6H14, InChI=1S/C6H14/c1-3-5-6-4-2/h3-6H2,1-2H3, purity 99.7%
Compound 2: hexadecane, C16H34, InChI=1S/C16H34/c1-3-5-7-9-11-13-15-16-14-12-10-8-6-4-2/h3-16H2,1-2H3, purity 99.5%

System: hexane; phases: Liquid, Gas
Property: Speed of sound, m/s (Liquid); method: PULSEH:UFactor:4
Temperature, K	Speed of sound, m/s	uncertainty
293.15	1098	3
298.15	1076	3
303.15	1054	3
308.15	1032	3
313.15	1010	3
318.15	988	3
323.15	966	3
328.15	944	3
333.15	921	3
338.15	900	3
343.15	878	3
348.15	856	3
353.15	834	3
358.15	812	3
363.15	790	3
368.15	768	3
373.15	747	3

System: hexane; phases: Liquid, Gas
Property: Mass density, kg/m3 (Liquid); method: Pycnometric method
Temperature, K	Mass density, kg/m3	uncertainty
293.15	659.44	0.16
298.15	654.93	0.17
303.15	650.36	0.18
308.15	645.74	0.19
313.15	641.08	0.19
318.15	636.37	0.2
323.15	631.61	0.21
328.15	626.81	0.22
333.15	621.95	0.23

System: hexadecane; phases: Liquid, Gas
Property: Speed of sound, m/s (Liquid); method: PULSEH:UFactor:4
Temperature, K	Speed of sound, m/s	uncertainty
293.15	1357	3
298.15	1338	3
303.15	1312	10
308.15	1301	3
313.15	1283	3
318.15	1265	3
323.15	1246	3
328.15	1228	3
333.15	1211	3
338.15	1193	3
343.15	1176	3
348.15	1158	3
353.15	1141	3
358.15	1124	3
363.15	1107	3
368.15	1090	3
373.15	1074	3

System: hexadecane; phases: Liquid, Gas
Property: Mass density, kg/m3 (Liquid); method: Pycnometric method
Temperature, K	Mass density, kg/m3	uncertainty
293.15	773.38	0.25
298.15	769.97	0.26
303.15	766.55	0.27
308.15	763.12	0.27
313.15	759.68	0.28
318.15	756.24	0.29
323.15	752.79	0.29
328.15	749.33	0.3
333.15	745.86	0.31
338.15	742.39	0.32
343.15	738.91	0.33
348.15	735.42	0.33
353.15	731.93	0.34
358.15	728.43	0.35
363.15	724.92	0.36
368.15	721.4	0.37
373.15	717.88	0.38

System: hexane + hexadecane; phases: Liquid
Fixed: Pressure, kPa = 101.3
Property: Speed of sound, m/s (Liquid); method: PULSEH:UFactor:4
Temperature, K	Mole fraction of hexane	Speed of sound, m/s	uncertainty
293.15	0.1	1341	3
293.15	0.2	1327	3
293.15	0.3	1314	3
293.15	0.4	1297	3
293.15	0.5	1277	3
293.15	0.6	1254	3
293.15	0.7	1228	3
293.15	0.8	1196	3
293.15	0.9	1151	3
298.15	0.1	1322	3
298.15	0.2	1308	3
298.15	0.3	1295	3
298.15	0.4	1277	3
298.15	0.5	1257	3
298.15	0.6	1234	3
298.15	0.7	1207	3
298.15	0.8	1175	3
298.15	0.9	1129	3
303.15	0.1	1304	3
303.15	0.2	1289	3
303.15	0.3	1275	3
303.15	0.4	1258	3
303.15	0.5	1237	3
303.15	0.6	1215	3
303.15	0.7	1187	3
303.15	0.8	1154	3
303.15	0.9	1108	3
308.15	0.1	1285	3
308.15	0.2	1270	3
308.15	0.3	1256	3
308.15	0.4	1238	3
308.15	0.5	1217	3
308.15	0.6	1195	3
308.15	0.7	1167	3
308.15	0.8	1133	3
308.15	0.9	1086	3
313.15	0.1	1266	3
313.15	0.2	1251	3
313.15	0.3	1237	3
313.15	0.4	1219	3
313.15	0.5	1198	3
313.15	0.6	1175	3
313.15	0.7	1146	3
313.15	0.8	1112	3
313.15	0.9	1065	3
318.15	0.1	1248	3
318.15	0.2	1232	3
318.15	0.3	1219	3
318.15	0.4	1200	3
318.15	0.5	1178	3
318.15	0.6	1156	3
318.15	0.7	1126	3
318.15	0.8	1091	3
318.15	0.9	1044	3
323.15	0.1	1230	3
323.15	0.2	1214	3
323.15	0.3	1200	3
323.15	0.4	1181	3
323.15	0.5	1159	3
323.15	0.6	1136	3
323.15	0.7	1107	3
323.15	0.8	1071	3
323.15	0.9	1023	3
328.15	0.1	1211	3
328.15	0.2	1196	3
328.15	0.3	1182	3
328.15	0.4	1163	3
328.15	0.5	1140	3
328.15	0.6	1117	3
328.15	0.7	1087	3
328.15	0.8	1050	3
328.15	0.9	1002	3
333.15	0.1	1193	3
333.15	0.2	1177	3
333.15	0.3	1163	3
333.15	0.4	1144	3
333.15	0.5	1122	3
333.15	0.6	1098	3
333.15	0.7	1067	3
333.15	0.8	1030	3
333.15	0.9	981	3
338.15	0.1	1176	3
338.15	0.2	1160	3
338.15	0.3	1145	3
338.15	0.4	1126	3
338.15	0.5	1103	3
338.15	0.6	1079	3
338.15	0.7	1048	3
338.15	0.8	1010	3
338.15	0.9	960	3
343.15	0.1	1158	3
343.15	0.2	1142	3
343.15	0.3	1127	3
343.15	0.4	1108	3
343.15	0.5	1084	3
343.15	0.6	1060	3
343.15	0.7	1029	3
343.15	0.8	990	3
343.15	0.9	939	3
348.15	0.1	1140	3
348.15	0.2	1124	3
348.15	0.3	1109	3
348.15	0.4	1089	3
348.15	0.5	1066	3
348.15	0.6	1042	3
348.15	0.7	1010	3
348.15	0.8	971	3
348.15	0.9	918	3
353.15	0.1	1123	3
353.15	0.2	1106	3
353.15	0.3	1092	3
353.15	0.4	1072	3
353.15	0.5	1048	3
353.15	0.6	1023	3
353.15	0.7	991	3
353.15	0.8	951	3
353.15	0.9	898	3
358.15	0.1	1106	3
358.15	0.2	1089	3
358.15	0.3	1074	3
358.15	0.4	1054	3
358.15	0.5	1030	3
358.15	0.6	1005	3
358.15	0.7	972	3
358.15	0.8	932	3
358.15	0.9	877	3
363.15	0.1	1088	3
363.15	0.2	1071	3
363.15	0.3	1057	3
363.15	0.4	1036	3
363.15	0.5	1012	3
363.15	0.6	986	3
363.15	0.7	953	3
363.15	0.8	912	3
363.15	0.9	857	3
368.15	0.1	1072	3
368.15	0.2	1054	3
368.15	0.3	1039	3
368.15	0.4	1019	3
368.15	0.5	995	3
368.15	0.6	968	3
368.15	0.7	935	3
368.15	0.8	893	3
368.15	0.9	837	3
373.15	0.1	1055	3
373.15	0.2	1037	3
373.15	0.3	1022	3
373.15	0.4	1002	3
373.15	0.5	977	3
373.15	0.6	950	3
373.15	0.7	916	3
373.15	0.8	874	3
373.15	0.9	816	3

System: hexane + hexadecane; phases: Liquid
Fixed: Pressure, kPa = 101.3
Property: Mass density, kg/m3 (Liquid); method: Pycnometric method
Temperature, K	Mole fraction of hexane	Mass density, kg/m3	uncertainty
293.15	0.1	768.1	0.25
293.15	0.2	762.36	0.24
293.15	0.3	756.02	0.23
293.15	0.4	748.67	0.22
293.15	0.5	740.14	0.21
293.15	0.6	729.79	0.2
293.15	0.7	717.46	0.2
293.15	0.8	702.3	0.19
293.15	0.9	683.23	0.18
298.15	0.1	764.7	0.25
298.15	0.2	758.88	0.24
298.15	0.3	752.56	0.24
298.15	0.4	745.03	0.23
298.15	0.5	736.52	0.22
298.15	0.6	726.08	0.21
298.15	0.7	713.68	0.2
298.15	0.8	698.4	0.19
298.15	0.9	679.04	0.18
303.15	0.1	761.25	0.26
303.15	0.2	755.4	0.25
303.15	0.3	749.09	0.24
303.15	0.4	741.49	0.24
303.15	0.5	732.9	0.23
303.15	0.6	722.32	0.22
303.15	0.7	709.86	0.21
303.15	0.8	694.47	0.2
303.15	0.9	674.8	0.19
308.15	0.1	757.78	0.27
308.15	0.2	751.9	0.26
308.15	0.3	745.61	0.25
308.15	0.4	737.93	0.24
308.15	0.5	729.25	0.24
308.15	0.6	718.63	0.23
308.15	0.7	706.03	0.22
308.15	0.8	690.5	0.21
308.15	0.9	670.53	0.2
313.15	0.1	754.31	0.27
313.15	0.2	748.41	0.27
313.15	0.3	741.92	0.26
313.15	0.4	734.37	0.25
313.15	0.5	725.59	0.24
313.15	0.6	714.88	0.24
313.15	0.7	702.18	0.23
313.15	0.8	686.49	0.22
313.15	0.9	666.22	0.21
318.15	0.1	750.84	0.28
318.15	0.2	744.91	0.27
318.15	0.3	738.42	0.27
318.15	0.4	730.8	0.26
318.15	0.5	721.92	0.25
318.15	0.6	711.12	0.24
318.15	0.7	698.3	0.23
318.15	0.8	682.45	0.23
318.15	0.9	661.87	0.22
323.15	0.1	747.36	0.29
323.15	0.2	741.4	0.28
323.15	0.3	734.92	0.27
323.15	0.4	727.21	0.27
323.15	0.5	718.23	0.26
323.15	0.6	707.34	0.25
323.15	0.7	694.38	0.24
323.15	0.8	678.36	0.23
323.15	0.9	657.47	0.22
328.15	0.1	743.88	0.3
328.15	0.2	737.89	0.29
328.15	0.3	731.41	0.28
328.15	0.4	723.62	0.28
328.15	0.5	714.52	0.27
328.15	0.6	703.55	0.26
328.15	0.7	690.44	0.25
328.15	0.8	674.25	0.24
328.15	0.9	653.04	0.23
333.15	0.1	740.37	0.3
333.15	0.2	734.36	0.3
333.15	0.3	727.88	0.29
333.15	0.4	720.01	0.28
333.15	0.5	710.8	0.28
333.15	0.6	699.74	0.27
333.15	0.7	686.47	0.26
333.15	0.8	670.09	0.25
333.15	0.9	648.56	0.24
