Measured thermophysical data. Solubilities of Gases in 1,1,3,3-Tetramethylguanidium Lactate at Elevated Pressures
Source: J. Chem. Eng. Data, 2006, 10.1021/je050437s
Compound 1: 1,1,3,3-tetramethylguanidinium lactate, C8H19N3O3, InChI=1S/C5H13N3.C3H6O3/c1-7(2)5(6)8(3)4;1-2(4)3(5)6/h6H,1-4H3;2,4H,1H3,(H,5,6), purity 98.2%
Compound 2: oxygen, O2, InChI=1S/O2/c1-2, purity 99.95%
Compound 3: nitrogen, N2, InChI=1S/N2/c1-2, purity 99.95%
Compound 4: methane, CH4, InChI=1S/CH4/h1H4, purity 99.9%
Compound 5: hydrogen, H2, InChI=1S/H2/h1H, purity 99.9%

System: oxygen + 1,1,3,3-tetramethylguanidinium lactate; phases: Liquid, Gas
Property: Mole fraction of oxygen (Liquid); method: Phase equilibration
Temperature, K	Pressure, kPa	Mole fraction of oxygen	uncertainty
308	1180	0.0037	0.0002
308	1500	0.0049	0.0003
308	1980	0.0067	0.0004
308	2870	0.0106	0.0006
308	3270	0.0147	0.0009
308	3910	0.0176	0.0011
308	5760	0.0282	0.0017
308	6700	0.0323	0.0019
308	7990	0.0363	0.0022
308	8850	0.0405	0.0024
318	1250	0.0035	0.0002
318	1570	0.0043	0.0003
318	2070	0.0058	0.0004
318	3010	0.0093	0.0006
318	3420	0.0118	0.0007
318	4090	0.0147	0.0009
318	6030	0.0228	0.0014
318	7020	0.0279	0.0017
318	8370	0.0318	0.0019
318	9270	0.0335	0.002
328	1330	0.003	0.0002
328	1650	0.0034	0.0002
328	2170	0.0054	0.0003
328	3140	0.0084	0.0005
328	3590	0.0107	0.0006
328	4300	0.0131	0.0008
328	6330	0.0204	0.0012
328	7370	0.0233	0.0014
328	8780	0.0275	0.0017
328	9720	0.0306	0.0018

System: nitrogen + 1,1,3,3-tetramethylguanidinium lactate; phases: Liquid, Gas
Property: Mole fraction of nitrogen (Liquid); method: Phase equilibration
Temperature, K	Pressure, kPa	Mole fraction of nitrogen	uncertainty
308	2160	0.0036	0.0002
308	3230	0.0054	0.0003
308	3490	0.0059	0.0004
308	3600	0.006	0.0004
308	4300	0.0072	0.0004
308	5040	0.0084	0.0005
308	6190	0.0105	0.0006
308	6800	0.0112	0.0007
308	8050	0.0129	0.0008
318	2270	0.0032	0.0002
318	3350	0.0049	0.0003
318	3660	0.0052	0.0003
318	3890	0.0055	0.0003
318	4520	0.0062	0.0004
318	5270	0.0072	0.0004
318	6460	0.0089	0.0005
318	7160	0.0095	0.0006
318	8370	0.0103	0.0006
328	2400	0.0027	0.0002
328	3410	0.0038	0.0002
328	3800	0.0042	0.0003
328	4000	0.0046	0.0003
328	4750	0.0052	0.0003
328	5470	0.0057	0.0003
328	6750	0.0068	0.0004
328	7450	0.0073	0.0004
328	8740	0.0083	0.0005

System: methane + 1,1,3,3-tetramethylguanidinium lactate; phases: Liquid, Gas
Property: Mole fraction of methane (Liquid); method: Phase equilibration
Temperature, K	Pressure, kPa	Mole fraction of methane	uncertainty
308	1260	0.0014	0.0001
308	1910	0.0021	0.0001
308	3510	0.0037	0.0002
308	4290	0.0043	0.0003
308	4950	0.0049	0.0003
308	5370	0.0051	0.0003
308	6930	0.0062	0.0004
308	7220	0.0065	0.0004
308	8510	0.0075	0.0005
308	9330	0.0079	0.0005
318	1300	0.0013	0.0001
318	1960	0.0018	0.0001
318	3600	0.0031	0.0002
318	4430	0.0036	0.0002
318	5110	0.004	0.0002
318	5540	0.0043	0.0003
318	7160	0.0054	0.0003
318	7410	0.0056	0.0003
318	8790	0.0064	0.0004
318	9600	0.0069	0.0004
328	1350	0.0012	0.0001
328	2010	0.0015	0.0001
328	3740	0.0025	0.0002
328	4570	0.0029	0.0002
328	5250	0.0033	0.0002
328	5720	0.0034	0.0002
328	7380	0.0044	0.0003
328	7650	0.0045	0.0003
328	9050	0.0051	0.0003
328	9910	0.0055	0.0003

System: hydrogen + 1,1,3,3-tetramethylguanidinium lactate; phases: Liquid, Gas
Property: Mole fraction of hydrogen (Liquid); method: Phase equilibration
Temperature, K	Pressure, kPa	Mole fraction of hydrogen	uncertainty
308	1040	0.0025	0.0002
308	1420	0.0042	0.0003
308	2560	0.0121	0.0007
308	3410	0.0171	0.001
308	4290	0.0221	0.0013
308	5730	0.0291	0.0018
308	6510	0.0329	0.002
308	7730	0.0386	0.0023
308	8610	0.0418	0.0025
308	9660	0.0431	0.0026
318	1070	0.0016	0.0001
318	1470	0.0036	0.0002
318	2650	0.0091	0.0006
318	3510	0.0129	0.0008
318	4430	0.0173	0.001
318	5970	0.0227	0.0014
318	6690	0.0272	0.0016
318	7970	0.0323	0.002
318	8910	0.0355	0.0021
318	9990	0.0386	0.0023
328	1110	0.0009	0.0001
328	1560	0.0028	0.0002
328	2730	0.0071	0.0004
328	3690	0.0104	0.0006
328	4570	0.0135	0.0008
328	6140	0.0184	0.0011
328	6930	0.0222	0.0013
328	8230	0.0255	0.0015
328	9190	0.0281	0.0017
328	10340	0.0305	0.0018
