Measured thermophysical data. Solubility of Potassium Clavulanate in Aqueous 2-Propanol Mixtures
Source: J. Chem. Eng. Data, 2006, 10.1021/je0503958
Compound 1: potassium (2R,5R,Z)-3-(2-hydroxyethylidene)-7-oxo-4-oxa-1-azabicyclo[3.2.0]heptane-2-carboxylate, C8H8KNO5, InChI=1S/C8H9NO5.K/c10-2-1-4-7(8(12)13)9-5(11)3-6(9)14-4;/h1,6-7,10H,2-3H2,(H,12,13);/q;+1/p-1/b4-1-;/t6-,7-;/m1./s1
Compound 2: propan-2-ol, C3H8O, InChI=1S/C3H8O/c1-3(2)4/h3-4H,1-2H3
Compound 3: water, H2O, InChI=1S/H2O/h1H2

System: propan-2-ol + potassium (2R,5R,Z)-3-(2-hydroxyethylidene)-7-oxo-4-oxa-1-azabicyclo[3.2.0]heptane-2-carboxylate; phases: Liquid, Crystal
Fixed: Pressure, kPa = 101.3
Property: Solid-liquid equilibrium temperature, K (Liquid); method: variation in laser intensity
Mole fraction of potassium (2R,5R,Z)-3-(2-hydroxyethylidene)-7-oxo-4-oxa-1-azabicyclo[3.2.0]heptane-2-carboxylate	Solid-liquid equilibrium temperature, K	uncertainty
4.94e-05	273.9	1
5.45e-05	277.15	1
6.05e-05	281.05	1
6.81e-05	285.35	1
7.47e-05	289.3	1
8.13e-05	293.25	1
9.17e-05	297.35	1
0.0001031	301.35	1
0.0001231	305.4	1

System: propan-2-ol + water + potassium (2R,5R,Z)-3-(2-hydroxyethylidene)-7-oxo-4-oxa-1-azabicyclo[3.2.0]heptane-2-carboxylate; phases: Liquid, Crystal
Fixed: Pressure, kPa = 101.3
Property: Solid-liquid equilibrium temperature, K (Liquid); method: variation in laser intensity
Solvent: Mole fraction of propan-2-ol	Mole fraction of potassium (2R,5R,Z)-3-(2-hydroxyethylidene)-7-oxo-4-oxa-1-azabicyclo[3.2.0]heptane-2-carboxylate	Solid-liquid equilibrium temperature, K	uncertainty
0.7993	0.0013148	274.4	1
0.7993	0.0014327	277.35	1
0.7993	0.0016072	281.3	1
0.7993	0.0017923	285.25	1
0.7993	0.0020538	289.35	1
0.7993	0.0022788	293.25	1
0.7993	0.0025631	297.15	1
0.7993	0.0028517	301.05	1
0.7993	0.0029573	302.25	1
0.8506	0.000516	274.35	1
0.8506	0.0005778	277.4	1
0.8506	0.0006535	281.25	1
0.8506	0.0007307	285.2	1
0.8506	0.0007869	289.35	1
0.8506	0.0009202	293.25	1
0.8506	0.0010085	297.15	1
0.8506	0.0011552	301.05	1
0.8506	0.0013369	305.3	1
0.9061	0.0002314	274.4	1
0.9061	0.0002371	277.35	1
0.9061	0.0002626	281.35	1
0.9061	0.0002844	285.1	1
0.9061	0.0003165	289.15	1
0.9061	0.0003546	293.15	1
0.9061	0.0004128	297.15	1
0.9061	0.0004963	301.15	1
0.9061	0.0005941	305.15	1
0.9498	0.0001034	274	1
0.9498	0.0001105	277.15	1
0.9498	0.0001222	281	1
0.9498	0.0001391	285.1	1
0.9498	0.0001525	289.15	1
0.9498	0.0001742	293.25	1
0.9498	0.0001982	297.25	1
0.9498	0.0002224	301.05	1
0.9498	0.000249	305.4	1
1	4.94e-05	273.9	1
1	5.45e-05	277.15	1
1	6.05e-05	281.05	1
1	6.81e-05	285.35	1
1	7.47e-05	289.3	1
1	8.13e-05	293.25	1
1	9.17e-05	297.35	1
1	0.0001031	301.35	1
1	0.0001231	305.4	1
