Measured thermophysical data. Measurements of Quaternary Liquid-Liquid Equilibrium for Water + Acetic Acid + Propionic Acid + Solvent (Butyronitrile, Benzyl Acetate, or Methyl Isobutyl Ketone) at 298.15 K
Source: J. Chem. Eng. Data, 2006, 10.1021/je050527x
Compound 1: acetic acid, C2H4O2, InChI=1S/C2H4O2/c1-2(3)4/h1H3,(H,3,4)
Compound 2: propanoic acid, C3H6O2, InChI=1S/C3H6O2/c1-2-3(4)5/h2H2,1H3,(H,4,5)
Compound 3: butanenitrile, C4H7N, InChI=1S/C4H7N/c1-2-3-4-5/h2-3H2,1H3
Compound 4: benzyl ethanoate, C9H10O2, InChI=1S/C9H10O2/c1-8(10)11-7-9-5-3-2-4-6-9/h2-6H,7H2,1H3
Compound 5: 4-methylpentan-2-one, C6H12O, InChI=1S/C6H12O/c1-5(2)4-6(3)7/h5H,4H2,1-3H3

System: acetic acid; phases: Liquid, Gas
Property: Normal boiling temperature, K (Liquid); method: Fischer boiling-point apparatus
Normal boiling temperature, K	uncertainty
390.85	0.2

System: acetic acid; phases: Liquid
Property: Refractive index (Na D-line) (Liquid); method: Standard Abbe refractometry
Temperature, K	Pressure, kPa	Refractive index (Na D-line)	uncertainty
293.1	101.325	1.3721	0.0011

System: acetic acid; phases: Liquid
Property: Mass density, kg/m3 (Liquid); method: VIBTUB:UFactor:2
Temperature, K	Pressure, kPa	Mass density, kg/m3	uncertainty
298.1	101.325	1044.3	0.5

System: propanoic acid; phases: Liquid, Gas
Property: Normal boiling temperature, K (Liquid); method: Fischer boiling-point apparatus
Normal boiling temperature, K	uncertainty
414.05	0.2

System: propanoic acid; phases: Liquid
Property: Refractive index (Na D-line) (Liquid); method: Standard Abbe refractometry
Temperature, K	Pressure, kPa	Refractive index (Na D-line)	uncertainty
293.1	101.325	1.3811	0.0011

System: propanoic acid; phases: Liquid
Property: Mass density, kg/m3 (Liquid); method: VIBTUB:UFactor:2
Temperature, K	Pressure, kPa	Mass density, kg/m3	uncertainty
298.1	101.325	988	0.5

System: butanenitrile; phases: Liquid, Gas
Property: Normal boiling temperature, K (Liquid); method: Fischer boiling-point apparatus
Normal boiling temperature, K	uncertainty
390.55	0.2

System: butanenitrile; phases: Liquid
Property: Refractive index (Na D-line) (Liquid); method: Standard Abbe refractometry
Temperature, K	Pressure, kPa	Refractive index (Na D-line)	uncertainty
293.1	101.325	1.384	0.0011

System: butanenitrile; phases: Liquid
Property: Mass density, kg/m3 (Liquid); method: VIBTUB:UFactor:8
Temperature, K	Pressure, kPa	Mass density, kg/m3	uncertainty
293.1	101.325	793.7	1.1

System: benzyl ethanoate; phases: Liquid, Gas
Property: Normal boiling temperature, K (Liquid); method: Fischer boiling-point apparatus
Normal boiling temperature, K	uncertainty
486.25	0.2

System: benzyl ethanoate; phases: Liquid
Property: Refractive index (Na D-line) (Liquid); method: Standard Abbe refractometry
Temperature, K	Pressure, kPa	Refractive index (Na D-line)	uncertainty
293.1	101.325	1.5235	0.0011

System: benzyl ethanoate; phases: Liquid
Property: Mass density, kg/m3 (Liquid); method: VIBTUB:UFactor:8
Temperature, K	Pressure, kPa	Mass density, kg/m3	uncertainty
293.1	101.325	1055.2	0.9

System: 4-methylpentan-2-one; phases: Liquid, Gas
Property: Normal boiling temperature, K (Liquid); method: Fischer boiling-point apparatus
Normal boiling temperature, K	uncertainty
389.45	0.2

System: 4-methylpentan-2-one; phases: Liquid
Property: Refractive index (Na D-line) (Liquid); method: Standard Abbe refractometry
Temperature, K	Pressure, kPa	Refractive index (Na D-line)	uncertainty
293.1	101.325	1.3959	0.0011

System: 4-methylpentan-2-one; phases: Liquid
Property: Mass density, kg/m3 (Liquid); method: VIBTUB:UFactor:8
Temperature, K	Pressure, kPa	Mass density, kg/m3	uncertainty
298.1	101.325	796.2	1.1
