Measured thermophysical data. Vapor Pressure of Di-tert-butylsilane
Source: J. Chem. Eng. Data, 2005, 10.1021/je050084x
Compound 1: di-tert-butylsilane, C8H20Si, InChI=1S/C8H20Si/c1-7(2,3)9-8(4,5)6/h9H2,1-6H3

System: di-tert-butylsilane; phases: Liquid, Gas
Property: Vapor or sublimation pressure, kPa (Liquid); method: Closed cell (Static) method
Temperature, K	Vapor or sublimation pressure, kPa	uncertainty
241.49	0.04624	0.00134
241.49	0.04615	0.00134
241.49	0.04621	0.00134
241.49	0.04622	0.00134
242.49	0.0502	0.00142
242.49	0.05031	0.00142
242.49	0.05034	0.00142
243.49	0.05486	0.00152
243.49	0.05486	0.00152
243.49	0.05484	0.00152
248.49	0.08308	0.0021
248.49	0.08308	0.0021
248.49	0.08309	0.0021
253.49	0.12444	0.00295
253.49	0.12445	0.00295
253.49	0.12444	0.00295
253.49	0.12445	0.00295
253.49	0.12444	0.00295
258.49	0.18165	0.00326
258.49	0.18165	0.00326
258.49	0.18165	0.00326
258.49	0.18165	0.00326
258.49	0.18164	0.00326
263.49	0.26061	0.00414
263.49	0.26057	0.00413
263.49	0.26054	0.00413
263.49	0.26059	0.00414
263.49	0.26059	0.00414
268.48	0.36648	0.00532
268.48	0.36641	0.00532
268.48	0.36644	0.00532
268.48	0.36636	0.00532
268.48	0.36633	0.00532
273.49	0.51211	0.00694
273.49	0.512	0.00694
273.49	0.51196	0.00694
273.49	0.51183	0.00694
273.49	0.51188	0.00694
275.99	0.60329	0.00797
275.99	0.6032	0.00797
275.99	0.60319	0.00797
275.99	0.60312	0.00797
278.49	0.7057	0.00911
278.49	0.70565	0.00911
278.49	0.7056	0.00911
278.49	0.7056	0.00911
280.99	0.82199	0.01042
280.99	0.82209	0.01042
280.99	0.82219	0.01042
280.99	0.82208	0.01042
283.49	0.95506	0.01191
283.49	0.95511	0.01191
283.49	0.95493	0.01191
283.49	0.95471	0.01191
285.99	1.1052	0.0136
285.99	1.1046	0.0136
285.99	1.1045	0.0136
288.19	1.2547	0.0153
288.19	1.2546	0.0153
288.19	1.2545	0.0153
288.19	1.2539	0.0153
