Measured thermophysical data. Densities, Viscosities, and Refractive Indices of Binary Mixtures of Anisole with Benzene, Methylbenzene, Ethylbenzene, Propylbenzene, and Butylbenzene at (293.15 and 303.15) K
Source: J. Chem. Eng. Data, 2006, 10.1021/je0502546
Compound 1: anisole, C7H8O, InChI=1S/C7H8O/c1-8-7-5-3-2-4-6-7/h2-6H,1H3, purity 99.15%
Compound 2: benzene, C6H6, InChI=1S/C6H6/c1-2-4-6-5-3-1/h1-6H, purity 99.46%
Compound 3: toluene, C7H8, InChI=1S/C7H8/c1-7-5-3-2-4-6-7/h2-6H,1H3, purity 99.49%
Compound 4: ethylbenzene, C8H10, InChI=1S/C8H10/c1-2-8-6-4-3-5-7-8/h3-7H,2H2,1H3, purity 99.75%
Compound 5: propylbenzene, C9H12, InChI=1S/C9H12/c1-2-6-9-7-4-3-5-8-9/h3-5,7-8H,2,6H2,1H3, purity 99.21%
Compound 6: butylbenzene, C10H14, InChI=1S/C10H14/c1-2-3-7-10-8-5-4-6-9-10/h4-6,8-9H,2-3,7H2,1H3, purity 99.21%

System: anisole; phases: Liquid
Fixed: Pressure, kPa = 101.325
Property: Refractive index (Na D-line) (Liquid); method: Standard Abbe refractometry
Temperature, K	Refractive index (Na D-line)	uncertainty
293.15	1.5177	0.0007
303.15	1.5124	0.0007

System: anisole; phases: Liquid
Fixed: Pressure, kPa = 101
Property: Viscosity, Pa*s (Liquid); method: Capillary tube (Ostwald; Ubbelohde) method
Temperature, K	Viscosity, Pa*s	uncertainty
293.15	0.001084	1e-05
303.15	0.000931	9e-06

System: anisole; phases: Liquid
Fixed: Pressure, kPa = 101
Property: Mass density, kg/m3 (Liquid); method: VIBTUB:UFactor:2
Temperature, K	Mass density, kg/m3	uncertainty
293.15	993.8	0.44
303.15	984.37	0.44

System: benzene; phases: Liquid
Fixed: Pressure, kPa = 101.325
Property: Refractive index (Na D-line) (Liquid); method: Standard Abbe refractometry
Temperature, K	Refractive index (Na D-line)	uncertainty
293.15	1.5011	0.0008
303.15	1.4947	0.0008

System: benzene; phases: Liquid
Fixed: Pressure, kPa = 101
Property: Viscosity, Pa*s (Liquid); method: Capillary tube (Ostwald; Ubbelohde) method
Temperature, K	Viscosity, Pa*s	uncertainty
293.15	0.000647	6e-06
303.15	0.000563	5e-06

System: benzene; phases: Liquid
Fixed: Pressure, kPa = 101
Property: Mass density, kg/m3 (Liquid); method: VIBTUB::UFactor:2
Temperature, K	Mass density, kg/m3	uncertainty
293.15	877.43	0.3
303.15	868.26	0.3

System: toluene; phases: Liquid
Fixed: Pressure, kPa = 101.325
Property: Refractive index (Na D-line) (Liquid); method: Standard Abbe refractometry
Temperature, K	Refractive index (Na D-line)	uncertainty
293.15	1.4962	0.0006
303.15	1.4914	0.0006

System: toluene; phases: Liquid
Fixed: Pressure, kPa = 101
Property: Viscosity, Pa*s (Liquid); method: Capillary tube (Ostwald; Ubbelohde) method
Temperature, K	Viscosity, Pa*s	uncertainty
293.15	0.000588	5e-06
303.15	0.000523	5e-06

System: toluene; phases: Liquid
Fixed: Pressure, kPa = 101
Property: Mass density, kg/m3 (Liquid); method: VIBTUB::UFactor:2
Temperature, K	Mass density, kg/m3	uncertainty
293.15	866.88	0.29
303.15	857.46	0.29

System: ethylbenzene; phases: Liquid
Fixed: Pressure, kPa = 101.325
Property: Refractive index (Na D-line) (Liquid); method: Standard Abbe refractometry
Temperature, K	Refractive index (Na D-line)	uncertainty
293.15	1.4957	0.0007
303.15	1.4902	0.0007

System: ethylbenzene; phases: Liquid
Fixed: Pressure, kPa = 101
Property: Viscosity, Pa*s (Liquid); method: Capillary tube (Ostwald; Ubbelohde) method
Temperature, K	Viscosity, Pa*s	uncertainty
293.15	0.000669	6e-06
303.15	0.000596	5e-06

System: ethylbenzene; phases: Liquid
Fixed: Pressure, kPa = 101
Property: Mass density, kg/m3 (Liquid); method: VIBTUB::UFactor:2
Temperature, K	Mass density, kg/m3	uncertainty
293.15	866.95	0.22
303.15	858.01	0.22

System: propylbenzene; phases: Liquid
Fixed: Pressure, kPa = 101.325
Property: Refractive index (Na D-line) (Liquid); method: Standard Abbe refractometry
Temperature, K	Refractive index (Na D-line)	uncertainty
293.15	1.4916	0.0007
303.15	1.4858	0.0007

System: propylbenzene; phases: Liquid
Fixed: Pressure, kPa = 101
Property: Viscosity, Pa*s (Liquid); method: Capillary tube (Ostwald; Ubbelohde) method
Temperature, K	Viscosity, Pa*s	uncertainty
293.15	0.000855	8e-06
303.15	0.000744	7e-06

System: propylbenzene; phases: Liquid
Fixed: Pressure, kPa = 101
Property: Mass density, kg/m3 (Liquid); method: VIBTUB::UFactor:2
Temperature, K	Mass density, kg/m3	uncertainty
293.15	863.13	0.39
303.15	854.71	0.39

System: butylbenzene; phases: Liquid
Fixed: Pressure, kPa = 101.325
Property: Refractive index (Na D-line) (Liquid); method: Standard Abbe refractometry
Temperature, K	Refractive index (Na D-line)	uncertainty
293.15	1.4895	0.0007
303.15	1.4845	0.0007

System: butylbenzene; phases: Liquid
Fixed: Pressure, kPa = 101
Property: Viscosity, Pa*s (Liquid); method: Capillary tube (Ostwald; Ubbelohde) method
Temperature, K	Viscosity, Pa*s	uncertainty
293.15	0.001034	9e-06
303.15	0.000893	8e-06

System: butylbenzene; phases: Liquid
Fixed: Pressure, kPa = 101
Property: Mass density, kg/m3 (Liquid); method: VIBTUB::UFactor:2
Temperature, K	Mass density, kg/m3	uncertainty
293.15	861.26	0.39
303.15	852.23	0.39

System: benzene + anisole; phases: Liquid
Fixed: Pressure, kPa = 101
Property: Viscosity, Pa*s (Liquid); method: Capillary tube (Ostwald; Ubbelohde) method
Mole fraction of anisole	Temperature, K	Viscosity, Pa*s	uncertainty
0	293.15	0.000647	6e-06
0	303.15	0.000563	5e-06
0.0938	293.15	0.000677	6e-06
0.0938	303.15	0.000587	5e-06
0.1955	293.15	0.000711	6e-06
0.1955	303.15	0.000616	6e-06
0.3053	293.15	0.000751	7e-06
0.3053	303.15	0.000649	6e-06
0.3994	293.15	0.000788	7e-06
0.3994	303.15	0.000679	6e-06
0.5	293.15	0.000829	7e-06
0.5	303.15	0.000714	7e-06
0.6005	293.15	0.000874	8e-06
0.6005	303.15	0.000751	7e-06
0.6996	293.15	0.000921	8e-06
0.6996	303.15	0.000791	7e-06
0.8013	293.15	0.000972	9e-06
0.8013	303.15	0.000836	8e-06
0.8978	293.15	0.001025	9e-06
0.8978	303.15	0.00088	8e-06
1	293.15	0.001084	1e-05
1	303.15	0.000931	9e-06

System: benzene + anisole; phases: Liquid
Fixed: Pressure, kPa = 101
Property: Refractive index (Na D-line) (Liquid); method: Standard Abbe refractometry
Mole fraction of anisole	Temperature, K	Refractive index (Na D-line)	uncertainty
0	293.15	1.5011	0.0008
0	303.15	1.4947	0.0008
0.0938	293.15	1.5032	0.0008
0.0938	303.15	1.4967	0.0008
0.1955	293.15	1.5053	0.0008
0.1955	303.15	1.4989	0.0008
0.3053	293.15	1.5074	0.0008
0.3053	303.15	1.5011	0.0008
0.3994	293.15	1.5091	0.0008
0.3994	303.15	1.5028	0.0008
0.5	293.15	1.5108	0.0008
0.5	303.15	1.5046	0.0008
0.6005	293.15	1.5124	0.0007
0.6005	303.15	1.5064	0.0007
0.6996	293.15	1.5139	0.0007
0.6996	303.15	1.508	0.0007
0.8013	293.15	1.5153	0.0007
0.8013	303.15	1.5096	0.0007
0.8978	293.15	1.5166	0.0007
0.8978	303.15	1.511	0.0007
1	293.15	1.5177	0.0007
1	303.15	1.5124	0.0007

System: benzene + anisole; phases: Liquid
Fixed: Pressure, kPa = 101
Property: Mass density, kg/m3 (Liquid); method: VIBTUB:UFactor:2
Mole fraction of anisole	Temperature, K	Mass density, kg/m3	uncertainty
0	293.15	877.43	0.3
0	303.15	868.26	0.3
0.0938	293.15	889.8	0.31
0.0938	303.15	881.47	0.31
0.1955	293.15	903.56	0.32
0.1955	303.15	895.16	0.32
0.3053	293.15	917.74	0.33
0.3053	303.15	909.24	0.33
0.3994	293.15	929.35	0.35
0.3994	303.15	920.76	0.35
0.5	293.15	941.27	0.36
0.5	303.15	932.57	0.36
0.6005	293.15	952.68	0.38
0.6005	303.15	943.88	0.37
0.6996	293.15	963.47	0.39
0.6996	303.15	954.56	0.39
0.8013	293.15	974.11	0.41
0.8013	303.15	965.08	0.41
0.8978	293.15	983.8	0.43
0.8978	303.15	974.66	0.42
1	293.15	993.8	0.44
1	303.15	984.37	0.44

System: anisole + toluene; phases: Liquid
Fixed: Pressure, kPa = 101
Property: Viscosity, Pa*s (Liquid); method: Capillary tube (Ostwald; Ubbelohde) method
Mole fraction of anisole	Temperature, K	Viscosity, Pa*s	uncertainty
0	293.15	0.000588	5e-06
0	303.15	0.000523	5e-06
0.0966	293.15	0.00062	6e-06
0.0966	303.15	0.000549	5e-06
0.1954	293.15	0.000656	6e-06
0.1954	303.15	0.000579	5e-06
0.2911	293.15	0.000693	6e-06
0.2911	303.15	0.00061	6e-06
0.3936	293.15	0.000736	7e-06
0.3936	303.15	0.000645	6e-06
0.5043	293.15	0.000787	7e-06
0.5043	303.15	0.000687	6e-06
0.5985	293.15	0.000834	7e-06
0.5985	303.15	0.000726	7e-06
0.6995	293.15	0.00089	8e-06
0.6995	303.15	0.000772	7e-06
0.7956	293.15	0.000947	8e-06
0.7956	303.15	0.000818	7e-06
0.8986	293.15	0.001013	9e-06
0.8986	303.15	0.000872	8e-06
1	293.15	0.001084	1e-05
1	303.15	0.000931	9e-06

System: anisole + toluene; phases: Liquid
Fixed: Pressure, kPa = 101
Property: Refractive index (Na D-line) (Liquid); method: Standard Abbe refractometry
Mole fraction of anisole	Temperature, K	Refractive index (Na D-line)	uncertainty
0	293.15	1.4962	0.0006
0	303.15	1.4914	0.0006
0.0966	293.15	1.4993	0.0007
0.0966	303.15	1.4936	0.0007
0.1954	293.15	1.5016	0.0007
0.1954	303.15	1.4959	0.0007
0.2911	293.15	1.5037	0.0007
0.2911	303.15	1.4981	0.0007
0.3936	293.15	1.506	0.0007
0.3936	303.15	1.5003	0.0007
0.5043	293.15	1.5083	0.0007
0.5043	303.15	1.5027	0.0007
0.5985	293.15	1.5102	0.0007
0.5985	303.15	1.5046	0.0007
0.6995	293.15	1.5122	0.0007
0.6995	303.15	1.5067	0.0007
0.7956	293.15	1.514	0.0007
0.7956	303.15	1.5085	0.0007
0.8986	293.15	1.5159	0.0007
0.8986	303.15	1.5105	0.0007
1	293.15	1.5177	0.0007
1	303.15	1.5124	0.0007

System: anisole + toluene; phases: Liquid
Fixed: Pressure, kPa = 101
Property: Mass density, kg/m3 (Liquid); method: VIBTUB:UFactor:2
Mole fraction of anisole	Temperature, K	Mass density, kg/m3	uncertainty
0	293.15	866.88	0.29
0	303.15	857.46	0.29
0.0966	293.15	879.58	0.3
0.0966	303.15	870.21	0.3
0.1954	293.15	892.47	0.31
0.1954	303.15	883.13	0.31
0.2911	293.15	904.89	0.32
0.2911	303.15	895.55	0.32
0.3936	293.15	918.06	0.34
0.3936	303.15	908.76	0.34
0.5043	293.15	932.17	0.35
0.5043	303.15	922.89	0.35
0.5985	293.15	944.06	0.37
0.5985	303.15	934.8	0.37
0.6995	293.15	956.7	0.39
0.6995	303.15	947.44	0.38
0.7956	293.15	968.63	0.4
0.7956	303.15	959.38	0.4
0.8986	293.15	981.29	0.42
0.8986	303.15	972.06	0.42
1	293.15	993.8	0.44
1	303.15	984.37	0.44

System: ethylbenzene + anisole; phases: Liquid
Fixed: Pressure, kPa = 101
Property: Viscosity, Pa*s (Liquid); method: Capillary tube (Ostwald; Ubbelohde) method
Mole fraction of anisole	Temperature, K	Viscosity, Pa*s	uncertainty
0	293.15	0.000669	6e-06
0	303.15	0.000596	5e-06
0.1061	293.15	0.000691	6e-06
0.1061	303.15	0.000616	5e-06
0.2202	293.15	0.000721	6e-06
0.2202	303.15	0.000639	6e-06
0.3206	293.15	0.000752	6e-06
0.3206	303.15	0.000662	6e-06
0.4278	293.15	0.000789	7e-06
0.4278	303.15	0.000689	6e-06
0.5402	293.15	0.000834	7e-06
0.5402	303.15	0.000725	6e-06
0.6322	293.15	0.000876	8e-06
0.6322	303.15	0.000759	7e-06
0.7282	293.15	0.000923	8e-06
0.7282	303.15	0.000798	7e-06
0.8198	293.15	0.000973	9e-06
0.8198	303.15	0.000841	8e-06
0.8994	293.15	0.00102	9e-06
0.8994	303.15	0.000878	8e-06
1	293.15	0.001084	1e-05
1	303.15	0.000931	9e-06

System: ethylbenzene + anisole; phases: Liquid
Fixed: Pressure, kPa = 101
Property: Refractive index (Na D-line) (Liquid); method: Standard Abbe refractometry
Mole fraction of anisole	Temperature, K	Refractive index (Na D-line)	uncertainty
0	293.15	1.4957	0.0007
0	303.15	1.4902	0.0007
0.1061	293.15	1.4977	0.0007
0.1061	303.15	1.4922	0.0007
0.2202	293.15	1.5	0.0007
0.2202	303.15	1.4944	0.0007
0.3206	293.15	1.502	0.0007
0.3206	303.15	1.4964	0.0007
0.4278	293.15	1.5041	0.0007
0.4278	303.15	1.4986	0.0007
0.5402	293.15	1.5065	0.0007
0.5402	303.15	1.501	0.0007
0.6322	293.15	1.5086	0.0007
0.6322	303.15	1.5031	0.0007
0.7282	293.15	1.5108	0.0007
0.7282	303.15	1.5053	0.0007
0.8198	293.15	1.513	0.0007
0.8198	303.15	1.5075	0.0007
0.8994	293.15	1.5153	0.0007
0.8994	303.15	1.5099	0.0007
1	293.15	1.5177	0.0007
1	303.15	1.5124	0.0007

System: ethylbenzene + anisole; phases: Liquid
Fixed: Pressure, kPa = 101
Property: Mass density, kg/m3 (Liquid); method: VIBTUB:UFactor:2
Mole fraction of anisole	Temperature, K	Mass density, kg/m3	uncertainty
0	293.15	866.95	0.22
0	303.15	858.01	0.22
0.1061	293.15	879.21	0.23
0.1061	303.15	870.49	0.23
0.2202	293.15	892.9	0.24
0.2202	303.15	884.19	0.24
0.3206	293.15	905.19	0.26
0.3206	303.15	896.45	0.26
0.4278	293.15	918.51	0.28
0.4278	303.15	909.71	0.28
0.5402	293.15	932.69	0.31
0.5402	303.15	923.84	0.31
0.6322	293.15	944.49	0.33
0.6322	303.15	935.58	0.33
0.7282	293.15	956.99	0.36
0.7282	303.15	948.02	0.36
0.8198	293.15	969.11	0.39
0.8198	303.15	960.07	0.38
0.8994	293.15	979.84	0.41
0.8994	303.15	970.71	0.41
1	293.15	993.8	0.44
1	303.15	984.37	0.44

System: anisole + propylbenzene; phases: Liquid
Fixed: Pressure, kPa = 101
Property: Viscosity, Pa*s (Liquid); method: Capillary tube (Ostwald; Ubbelohde) method
Mole fraction of anisole	Temperature, K	Viscosity, Pa*s	uncertainty
0	293.15	0.000855	8e-06
0	303.15	0.000744	7e-06
0.1216	293.15	0.000857	8e-06
0.1216	303.15	0.000748	7e-06
0.2422	293.15	0.000862	8e-06
0.2422	303.15	0.000752	7e-06
0.3455	293.15	0.000874	8e-06
0.3455	303.15	0.000758	7e-06
0.4531	293.15	0.000892	8e-06
0.4531	303.15	0.00077	7e-06
0.5658	293.15	0.000915	8e-06
0.5658	303.15	0.00079	7e-06
0.6574	293.15	0.00094	9e-06
0.6574	303.15	0.000812	7e-06
0.7486	293.15	0.000971	9e-06
0.7486	303.15	0.00084	8e-06
0.8349	293.15	0.001005	9e-06
0.8349	303.15	0.00087	8e-06
0.916	293.15	0.001042	9e-06
0.916	303.15	0.000899	8e-06
1	293.15	0.001084	1e-05
1	303.15	0.000931	9e-06

System: anisole + propylbenzene; phases: Liquid
Fixed: Pressure, kPa = 101
Property: Refractive index (Na D-line) (Liquid); method: Standard Abbe refractometry
Mole fraction of anisole	Temperature, K	Refractive index (Na D-line)	uncertainty
0	293.15	1.4916	0.0007
0	303.15	1.4858	0.0007
0.1216	293.15	1.4944	0.0007
0.1216	303.15	1.4886	0.0007
0.2422	293.15	1.4972	0.0007
0.2422	303.15	1.4914	0.0007
0.3455	293.15	1.4996	0.0007
0.3455	303.15	1.4939	0.0007
0.4531	293.15	1.5023	0.0007
0.4531	303.15	1.4966	0.0007
0.5658	293.15	1.5051	0.0007
0.5658	303.15	1.4995	0.0007
0.6574	293.15	1.5076	0.0007
0.6574	303.15	1.5019	0.0007
0.7486	293.15	1.5101	0.0007
0.7486	303.15	1.5045	0.0007
0.8349	293.15	1.5126	0.0007
0.8349	303.15	1.507	0.0007
0.916	293.15	1.515	0.0007
0.916	303.15	1.5095	0.0007
1	293.15	1.5177	0.0007
1	303.15	1.5124	0.0007

System: anisole + propylbenzene; phases: Liquid
Fixed: Pressure, kPa = 101
Property: Mass density, kg/m3 (Liquid); method: VIBTUB:UFactor:2
Mole fraction of anisole	Temperature, K	Mass density, kg/m3	uncertainty
0	293.15	863.13	0.39
0	303.15	854.71	0.39
0.1216	293.15	876.73	0.4
0.1216	303.15	868.36	0.39
0.2422	293.15	890.73	0.4
0.2422	303.15	882.36	0.4
0.3455	293.15	903.18	0.4
0.3455	303.15	894.78	0.4
0.4531	293.15	916.62	0.41
0.4531	303.15	908.15	0.41
0.5658	293.15	931.23	0.42
0.5658	303.15	922.67	0.41
0.6574	293.15	943.52	0.42
0.6574	303.15	934.9	0.42
0.7486	293.15	956.19	0.43
0.7486	303.15	947.46	0.42
0.8349	293.15	968.57	0.43
0.8349	303.15	959.71	0.43
0.916	293.15	980.65	0.44
0.916	303.15	971.62	0.43
1	293.15	993.8	0.44
1	303.15	984.37	0.44

System: anisole + butylbenzene; phases: Liquid
Fixed: Pressure, kPa = 101
Property: Viscosity, Pa*s (Liquid); method: Capillary tube (Ostwald; Ubbelohde) method
Mole fraction of anisole	Temperature, K	Viscosity, Pa*s	uncertainty
0	293.15	0.001034	9e-06
0	303.15	0.000893	8e-06
0.1238	293.15	0.001005	9e-06
0.1238	303.15	0.000872	8e-06
0.225	293.15	0.000985	9e-06
0.225	303.15	0.000855	8e-06
0.3541	293.15	0.000971	9e-06
0.3541	303.15	0.000841	8e-06
0.48	293.15	0.000965	9e-06
0.48	303.15	0.000837	8e-06
0.581	293.15	0.00097	9e-06
0.581	303.15	0.000842	8e-06
0.67	293.15	0.000983	9e-06
0.67	303.15	0.000851	8e-06
0.7672	293.15	0.001002	9e-06
0.7672	303.15	0.000867	8e-06
0.8483	293.15	0.001027	9e-06
0.8483	303.15	0.000885	8e-06
0.9201	293.15	0.001052	9e-06
0.9201	303.15	0.000905	8e-06
1	293.15	0.001084	1e-05
1	303.15	0.000931	9e-06

System: anisole + butylbenzene; phases: Liquid
Fixed: Pressure, kPa = 101
Property: Refractive index (Na D-line) (Liquid); method: Standard Abbe refractometry
Mole fraction of anisole	Temperature, K	Refractive index (Na D-line)	uncertainty
0	293.15	1.4895	0.0007
0	303.15	1.4845	0.0007
0.1238	293.15	1.4923	0.0007
0.1238	303.15	1.4872	0.0007
0.225	293.15	1.4948	0.0007
0.225	303.15	1.4896	0.0007
0.3541	293.15	1.498	0.0007
0.3541	303.15	1.4927	0.0007
0.48	293.15	1.5014	0.0007
0.48	303.15	1.4961	0.0007
0.581	293.15	1.5042	0.0007
0.581	303.15	1.4989	0.0007
0.67	293.15	1.5068	0.0007
0.67	303.15	1.5014	0.0007
0.7672	293.15	1.5097	0.0007
0.7672	303.15	1.5043	0.0007
0.8483	293.15	1.5123	0.0007
0.8483	303.15	1.5068	0.0007
0.9201	293.15	1.5148	0.0007
0.9201	303.15	1.5093	0.0007
1	293.15	1.5177	0.0007
1	303.15	1.5124	0.0007

System: anisole + butylbenzene; phases: Liquid
Fixed: Pressure, kPa = 101
Property: Mass density, kg/m3 (Liquid); method: VIBTUB:UFactor:2
Mole fraction of anisole	Temperature, K	Mass density, kg/m3	uncertainty
0	293.15	861.26	0.39
0	303.15	852.23	0.39
0.1238	293.15	873.01	0.4
0.1238	303.15	865.04	0.39
0.225	293.15	884.01	0.4
0.225	303.15	875.92	0.4
0.3541	293.15	898.83	0.4
0.3541	303.15	890.71	0.4
0.48	293.15	914.4	0.41
0.48	303.15	906.13	0.41
0.581	293.15	927.77	0.41
0.581	303.15	919.36	0.41
0.67	293.15	940.23	0.42
0.67	303.15	931.73	0.42
0.7672	293.15	954.65	0.43
0.7672	303.15	946.15	0.42
0.8483	293.15	967.5	0.43
0.8483	303.15	958.84	0.43
0.9201	293.15	979.53	0.44
0.9201	303.15	970.6	0.43
1	293.15	993.8	0.44
1	303.15	984.37	0.44
