Measured thermophysical data. Henry's Law Constants for Eleven Polychlorinated Biphenyls at 20 C
Source: J. Chem. Eng. Data, 2006, 10.1021/je0500835
Compound 1: 1,1'-biphenyl, 2,4,4'-trichloro-, C12H7Cl3, InChI=1S/C12H7Cl3/c13-9-3-1-8(2-4-9)11-6-5-10(14)7-12(11)15/h1-7H
Compound 2: 2,5,2',5'-tetrachlorobiphenyl, C12H6Cl4, InChI=1S/C12H6Cl4/c13-7-1-3-11(15)9(5-7)10-6-8(14)2-4-12(10)16/h1-6H
Compound 3: 2,3,5,6-tetrachloro-1,1'-biphenyl, C12H6Cl4, InChI=1S/C12H6Cl4/c13-8-6-9(14)12(16)10(11(8)15)7-4-2-1-3-5-7/h1-6H
Compound 4: 1,1'-biphenyl, 2,3,3',4,4'-pentachloro-, C12H5Cl5, InChI=1S/C12H5Cl5/c13-8-3-1-6(5-10(8)15)7-2-4-9(14)12(17)11(7)16/h1-5H
Compound 5: 2,3,4,5,6-pentachlorobiphenyl, C12H5Cl5, InChI=1S/C12H5Cl5/c13-8-7(6-4-2-1-3-5-6)9(14)11(16)12(17)10(8)15/h1-5H
Compound 6: 1,1'-biphenyl, 2,3',4,4',5-pentachloro-, C12H5Cl5, InChI=1S/C12H5Cl5/c13-8-2-1-6(3-10(8)15)7-4-11(16)12(17)5-9(7)14/h1-5H
Compound 7: 2,2',3,4,4',5-hexachlorobiphenyl, C12H4Cl6, InChI=1S/C12H4Cl6/c13-5-1-2-6(8(14)3-5)7-4-9(15)11(17)12(18)10(7)16/h1-4H
Compound 8: 2,2',3',4,4',5-hexachlorobiphenyl, C12H4Cl6, InChI=1S/C12H4Cl6/c13-7-2-1-5(11(17)12(7)18)6-3-9(15)10(16)4-8(6)14/h1-4H
Compound 9: 2,2',4,4',5,5'-hexachlorobiphenyl, C12H4Cl6, InChI=1S/C12H4Cl6/c13-7-3-11(17)9(15)1-5(7)6-2-10(16)12(18)4-8(6)14/h1-4H
Compound 10: 2,3,3',4,4',5-hexachlorobiphenyl, C12H4Cl6, InChI=1S/C12H4Cl6/c13-7-2-1-5(3-8(7)14)6-4-9(15)11(17)12(18)10(6)16/h1-4H
Compound 11: 2,2',3,4,4',5,5'-heptachlorobiphenyl, C12H3Cl7, InChI=1S/C12H3Cl7/c13-6-3-8(15)7(14)1-4(6)5-2-9(16)11(18)12(19)10(5)17/h1-3H
Compound 12: water, H2O, InChI=1S/H2O/h1H2

System: 1,1'-biphenyl, 2,4,4'-trichloro- + water; phases: Liquid, Gas
Property: Henry's Law constant (amount concentration scale), kPa*dm3/mol of 1,1'-biphenyl, 2,4,4'-trichloro- (Liquid); method: gas purge method
Temperature, K	Amount concentration (molarity), mol/dm3 of 1,1'-biphenyl, 2,4,4'-trichloro-	Henry's Law constant (amount concentration scale), kPa*dm3/mol of 1,1'-biphenyl, 2,4,4'-trichloro-	uncertainty
293.15	0	28.1	4.5

System: water + 2,5,2',5'-tetrachlorobiphenyl; phases: Liquid, Gas
Property: Henry's Law constant (amount concentration scale), kPa*dm3/mol of 2,5,2',5'-tetrachlorobiphenyl (Liquid); method: gas purge method
Temperature, K	Amount concentration (molarity), mol/dm3 of 2,5,2',5'-tetrachlorobiphenyl	Henry's Law constant (amount concentration scale), kPa*dm3/mol of 2,5,2',5'-tetrachlorobiphenyl	uncertainty
293.15	0	24	9

System: water + 2,3,5,6-tetrachloro-1,1'-biphenyl; phases: Liquid, Gas
Property: Henry's Law constant (amount concentration scale), kPa*dm3/mol of 2,3,5,6-tetrachloro-1,1'-biphenyl (Liquid); method: gas purge method
Temperature, K	Amount concentration (molarity), mol/dm3 of 2,3,5,6-tetrachloro-1,1'-biphenyl	Henry's Law constant (amount concentration scale), kPa*dm3/mol of 2,3,5,6-tetrachloro-1,1'-biphenyl	uncertainty
293.15	0	40	7

System: water + 1,1'-biphenyl, 2,3,3',4,4'-pentachloro-; phases: Liquid, Gas
Property: Henry's Law constant (amount concentration scale), kPa*dm3/mol of 1,1'-biphenyl, 2,3,3',4,4'-pentachloro- (Liquid); method: gas purge method
Temperature, K	Amount concentration (molarity), mol/dm3 of 1,1'-biphenyl, 2,3,3',4,4'-pentachloro-	Henry's Law constant (amount concentration scale), kPa*dm3/mol of 1,1'-biphenyl, 2,3,3',4,4'-pentachloro-	uncertainty
293.15	0	5.5	5.4

System: water + 2,3,4,5,6-pentachlorobiphenyl; phases: Liquid, Gas
Property: Henry's Law constant (amount concentration scale), kPa*dm3/mol of 2,3,4,5,6-pentachlorobiphenyl (Liquid); method: gas purge method
Temperature, K	Amount concentration (molarity), mol/dm3 of 2,3,4,5,6-pentachlorobiphenyl	Henry's Law constant (amount concentration scale), kPa*dm3/mol of 2,3,4,5,6-pentachlorobiphenyl	uncertainty
293.15	0	34	7

System: water + 1,1'-biphenyl, 2,3',4,4',5-pentachloro-; phases: Liquid, Gas
Property: Henry's Law constant (amount concentration scale), kPa*dm3/mol of 1,1'-biphenyl, 2,3',4,4',5-pentachloro- (Liquid); method: gas purge method
Temperature, K	Amount concentration (molarity), mol/dm3 of 1,1'-biphenyl, 2,3',4,4',5-pentachloro-	Henry's Law constant (amount concentration scale), kPa*dm3/mol of 1,1'-biphenyl, 2,3',4,4',5-pentachloro-	uncertainty
293.15	0	7.8	5.4

System: water + 2,2',3,4,4',5-hexachlorobiphenyl; phases: Liquid, Gas
Property: Henry's Law constant (amount concentration scale), kPa*dm3/mol of 2,2',3,4,4',5-hexachlorobiphenyl (Liquid); method: gas purge method
Temperature, K	Amount concentration (molarity), mol/dm3 of 2,2',3,4,4',5-hexachlorobiphenyl	Henry's Law constant (amount concentration scale), kPa*dm3/mol of 2,2',3,4,4',5-hexachlorobiphenyl	uncertainty
293.15	0	12	14

System: water + 2,2',3',4,4',5-hexachlorobiphenyl; phases: Liquid, Gas
Property: Henry's Law constant (amount concentration scale), kPa*dm3/mol of 2,2',3',4,4',5-hexachlorobiphenyl (Liquid); method: gas purge method
Temperature, K	Amount concentration (molarity), mol/dm3 of 2,2',3',4,4',5-hexachlorobiphenyl	Henry's Law constant (amount concentration scale), kPa*dm3/mol of 2,2',3',4,4',5-hexachlorobiphenyl	uncertainty
293.15	0	9	10

System: water + 2,2',4,4',5,5'-hexachlorobiphenyl; phases: Liquid, Gas
Property: Henry's Law constant (amount concentration scale), kPa*dm3/mol of 2,2',4,4',5,5'-hexachlorobiphenyl (Liquid); method: gas purge method
Temperature, K	Amount concentration (molarity), mol/dm3 of 2,2',4,4',5,5'-hexachlorobiphenyl	Henry's Law constant (amount concentration scale), kPa*dm3/mol of 2,2',4,4',5,5'-hexachlorobiphenyl	uncertainty
293.15	0	15	14

System: water + 2,3,3',4,4',5-hexachlorobiphenyl; phases: Liquid, Gas
Property: Henry's Law constant (amount concentration scale), kPa*dm3/mol of 2,3,3',4,4',5-hexachlorobiphenyl (Liquid); method: gas purge method
Temperature, K	Amount concentration (molarity), mol/dm3 of 2,3,3',4,4',5-hexachlorobiphenyl	Henry's Law constant (amount concentration scale), kPa*dm3/mol of 2,3,3',4,4',5-hexachlorobiphenyl	uncertainty
293.15	0	3.1	2.5

System: water + 2,2',3,4,4',5,5'-heptachlorobiphenyl; phases: Liquid, Gas
Property: Henry's Law constant (amount concentration scale), kPa*dm3/mol of 2,2',3,4,4',5,5'-heptachlorobiphenyl (Liquid); method: gas purge method
Temperature, K	Amount concentration (molarity), mol/dm3 of 2,2',3,4,4',5,5'-heptachlorobiphenyl	Henry's Law constant (amount concentration scale), kPa*dm3/mol of 2,2',3,4,4',5,5'-heptachlorobiphenyl	uncertainty
293.15	0	2.2	1.9
