Measured thermophysical data. Density and Viscosity of Aqueous Solutions of Piperazine and (2-Amino-2-methyl-1-propanol + Piperazine) from 298 to 333 K
Source: J. Chem. Eng. Data, 2006, 10.1021/je050378i
Compound 1: piperazine, C4H10N2, InChI=1S/C4H10N2/c1-2-6-4-3-5-1/h5-6H,1-4H2
Compound 2: 2-amino-2-methylpropan-1-ol, C4H11NO, InChI=1S/C4H11NO/c1-4(2,5)3-6/h6H,3,5H2,1-2H3
Compound 3: water, H2O, InChI=1S/H2O/h1H2

System: piperazine + water; phases: Liquid
Fixed: Pressure, kPa = 101.325
Property: Viscosity, Pa*s (Liquid); method: CAPTUB:UFactor:4
Temperature, K	Mass fraction of piperazine	Viscosity, Pa*s	uncertainty
298	0.0174	0.000957	3e-05
298	0.0344	0.001021	3.1e-05
298	0.0516	0.00109	3.3e-05
298	0.0688	0.001169	3.6e-05
303	0.0174	0.000861	2.7e-05
303	0.0344	0.000915	2.8e-05
303	0.0516	0.000965	3e-05
303	0.0688	0.001035	3.2e-05
308	0.0174	0.000776	2.4e-05
308	0.0344	0.000805	2.5e-05
308	0.0516	0.000865	2.7e-05
308	0.0688	0.00091	2.8e-05
313	0.0174	0.000681	2.2e-05
313	0.0344	0.000718	2.3e-05
313	0.0516	0.000763	2.4e-05
313	0.0688	0.000821	2.6e-05
318	0.0174	0.000623	2e-05
318	0.0344	0.000652	2.1e-05
318	0.0516	0.000703	2.2e-05
318	0.0688	0.000731	2.3e-05
323	0.0174	0.000573	1.8e-05
323	0.0344	0.000592	1.9e-05
323	0.0516	0.000624	2e-05
323	0.0688	0.000663	2.1e-05
328	0.0174	0.000543	1.8e-05
328	0.0344	0.000543	1.8e-05
328	0.0516	0.000569	1.8e-05
328	0.0688	0.000604	1.9e-05
333	0.0174	0.000488	1.6e-05
333	0.0344	0.000505	1.7e-05
333	0.0516	0.000523	1.7e-05
333	0.0688	0.000546	1.8e-05

System: piperazine + water; phases: Liquid
Fixed: Pressure, kPa = 101.325
Property: Mass density, kg/m3 (Liquid); method: PYCNOM:UFactor:4
Temperature, K	Mass fraction of piperazine	Mass density, kg/m3	uncertainty
298	0.0174	997.8	1.1
298	0.0345	998.5	1.1
298	0.0516	999.4	1.1
298	0.0688	1000.6	1.1
303	0.0174	996.5	1.2
303	0.0345	997.2	1.2
303	0.0516	998.1	1.2
303	0.0688	999	1.2
308	0.0174	995.1	1.2
308	0.0345	995.7	1.2
308	0.0516	996.5	1.2
308	0.0688	997.6	1.2
313	0.0174	993.2	1.2
313	0.0345	994.1	1.2
313	0.0516	994.7	1.3
313	0.0688	995.6	1.2
318	0.0174	991.4	1.3
318	0.0345	992.2	1.3
318	0.0516	992.5	1.3
318	0.0688	993.8	1.3
323	0.0174	989.3	1.3
323	0.0345	990.2	1.3
323	0.0516	990.4	1.3
323	0.0688	991.4	1.3
328	0.0174	986.7	1.4
328	0.0345	987.4	1.4
328	0.0516	988	1.4
328	0.0688	989.1	1.4
333	0.0174	984.2	1.4
333	0.0345	984.5	1.4
333	0.0516	985.7	1.4
333	0.0688	987.4	1.4

System: 2-amino-2-methylpropan-1-ol + water; phases: Liquid
Fixed: Mass fraction of 2-amino-2-methylpropan-1-ol = 0.3
Fixed: Pressure, kPa = 101.325
Property: Viscosity, Pa*s (Liquid); method: CAPTUB:UFactor:4
Temperature, K	Viscosity, Pa*s	uncertainty
298	0.003637	0.000111
303	0.002964	9.1e-05
308	0.002446	7.5e-05
313	0.002043	6.3e-05
318	0.001696	5.3e-05
323	0.001425	4.4e-05
328	0.001237	3.9e-05
333	0.001081	3.4e-05

System: 2-amino-2-methylpropan-1-ol + water; phases: Liquid
Fixed: Mass fraction of 2-amino-2-methylpropan-1-ol = 0.3
Fixed: Pressure, kPa = 101.325
Property: Mass density, kg/m3 (Liquid); method: PYCNOM:UFactor:4
Temperature, K	Mass density, kg/m3	uncertainty
298	997	1.3
303	994.2	1.4
308	991.4	1.4
313	988.4	1.4
318	985.4	1.5
323	982.1	1.5
328	978.8	1.5
333	975.5	1.6

System: piperazine + 2-amino-2-methylpropan-1-ol + water; phases: Liquid
Fixed: Pressure, kPa = 101.325
Property: Viscosity, Pa*s (Liquid); method: CAPTUB:UFactor:4
Temperature, K	Mass fraction of 2-amino-2-methylpropan-1-ol	Mass fraction of piperazine	Viscosity, Pa*s	uncertainty
298	0.22	0.08	0.004063	0.000122
298	0.25	0.05	0.003879	0.000118
298	0.28	0.02	0.003737	0.000114
298	0.3	0	0.003637	0.000111
303	0.22	0.08	0.003312	0.000101
303	0.25	0.05	0.003123	9.6e-05
303	0.28	0.02	0.003005	9.2e-05
303	0.3	0	0.002964	9.1e-05
308	0.22	0.08	0.002708	8.3e-05
308	0.25	0.05	0.002591	7.9e-05
308	0.28	0.02	0.002524	7.8e-05
308	0.3	0	0.002446	7.5e-05
313	0.22	0.08	0.002235	6.9e-05
313	0.25	0.05	0.002119	6.5e-05
313	0.28	0.02	0.00206	6.4e-05
313	0.3	0	0.002043	6.3e-05
318	0.22	0.08	0.001838	5.7e-05
318	0.25	0.05	0.001795	5.5e-05
318	0.28	0.02	0.001752	5.4e-05
318	0.3	0	0.001696	5.3e-05
323	0.22	0.08	0.001556	4.8e-05
323	0.25	0.05	0.001501	4.7e-05
323	0.28	0.02	0.001475	4.6e-05
323	0.3	0	0.001425	4.4e-05
328	0.22	0.08	0.001363	4.2e-05
328	0.25	0.05	0.001309	4.1e-05
328	0.28	0.02	0.001276	4e-05
328	0.3	0	0.001237	3.9e-05
333	0.22	0.08	0.001175	3.7e-05
333	0.25	0.05	0.001126	3.5e-05
333	0.28	0.02	0.001099	3.5e-05
333	0.3	0	0.001081	3.4e-05

System: piperazine + 2-amino-2-methylpropan-1-ol + water; phases: Liquid
Fixed: Pressure, kPa = 101.325
Property: Mass density, kg/m3 (Liquid); method: PYCNOM:UFactor:4
Temperature, K	Mass fraction of 2-amino-2-methylpropan-1-ol	Mass fraction of piperazine	Mass density, kg/m3	uncertainty
298	0.22	0.08	1003.7	1.3
298	0.25	0.05	1001	1.3
298	0.28	0.02	998.7	1.3
298	0.3	0	997	1.3
303	0.22	0.08	1001	1.3
303	0.25	0.05	998.4	1.3
303	0.28	0.02	995.9	1.3
303	0.3	0	994.2	1.4
308	0.22	0.08	998.2	1.4
308	0.25	0.05	995.6	1.4
308	0.28	0.02	993.1	1.4
308	0.3	0	991.4	1.4
313	0.22	0.08	995	1.4
313	0.25	0.05	992.6	1.4
313	0.28	0.02	990.3	1.4
313	0.3	0	988.4	1.4
318	0.22	0.08	992.2	1.4
318	0.25	0.05	989.5	1.4
318	0.28	0.02	987.1	1.5
318	0.3	0	985.4	1.5
323	0.22	0.08	988.9	1.5
323	0.25	0.05	986.5	1.5
323	0.28	0.02	983.8	1.5
323	0.3	0	982.1	1.5
328	0.22	0.08	985.8	1.5
328	0.25	0.05	983.1	1.5
328	0.28	0.02	980.7	1.5
328	0.3	0	978.8	1.5
333	0.22	0.08	982.4	1.5
333	0.25	0.05	979.9	1.6
333	0.28	0.02	977	1.6
333	0.3	0	975.5	1.6
