Measured thermophysical data. Solubility and Activity Coefficients of Acidic and Basic Nonelectrolytes in Aqueous Salt Solutions. 1. Solubility and Activity Coefficients of o-Phthalic Acid and L-Cystine in NaCl(aq), (CH3)4NCl(aq), and (C2H5)4NI(aq) at Different Ionic Strengths and at t ) 25 deg C
Source: J. Chem. Eng. Data, 2005, 10.1021/je0502039
Compound 1: 1,2-benzenedicarboxylic acid, C8H6O4, InChI=1S/C8H6O4/c9-7(10)5-3-1-2-4-6(5)8(11)12/h1-4H,(H,9,10)(H,11,12)
Compound 2: 3,3'-dithiobis-L-alanine, C6H12N2O4S2, InChI=1S/C6H12N2O4S2/c7-3(5(9)10)1-13-14-2-4(8)6(11)12/h3-4H,1-2,7-8H2,(H,9,10)(H,11,12)/t3-,4-/m0/s1
Compound 3: sodium chloride, ClNa, InChI=1S/ClH.Na/h1H;/q;+1/p-1
Compound 4: tetramethylammonium chloride, C4H12ClN, InChI=1S/C4H12N.ClH/c1-5(2,3)4;/h1-4H3;1H/q+1;/p-1
Compound 5: tetraethylammonium iodide, C8H20IN, InChI=1S/C8H20N.HI/c1-5-9(6-2,7-3)8-4;/h5-8H2,1-4H3;1H/q+1;/p-1
Compound 6: water, H2O, InChI=1S/H2O/h1H2

System: 1,2-benzenedicarboxylic acid + water; phases: Liquid, Crystal
Fixed: Temperature, K = 298.15
Fixed: Pressure, kPa = 101.325
Property: Molality, mol/kg (Liquid); method: titration
Molality, mol/kg	uncertainty
0.0482	0.006
0.0482	0.006
0.0423	0.006
0.0425	0.006
0.0427	0.006
0.0421	0.006

System: 3,3'-dithiobis-L-alanine + water; phases: Liquid, Crystal
Fixed: Temperature, K = 298.15
Fixed: Pressure, kPa = 101.325
Property: Molality, mol/kg (Liquid); method: titration
Molality, mol/kg	uncertainty
0.000694	8e-05
0.000654	8e-05

System: tetraethylammonium iodide + 1,2-benzenedicarboxylic acid + water; phases: Liquid mixture 1, Crystal
Fixed: Pressure, kPa = 101.325
Fixed: Temperature, K = 298
Property: Molality, mol/kg of 1,2-benzenedicarboxylic acid (Liquid mixture 1); method: titration
Solvent: Molality, mol/kg of tetraethylammonium iodide	Molality, mol/kg of 1,2-benzenedicarboxylic acid	uncertainty
0.155	0.0569	0.02
0.155	0.0549	0.02
0.263	0.0701	0.02
0.263	0.0703	0.02
0.277	0.0624	0.02
0.553	0.0957	0.02
0.553	0.0951	0.02
0.617	0.0829	0.02
1.042	0.1122	0.02
1.157	0.1468	0.02
1.157	0.1472	0.02
1.237	0.1648	0.02
1.237	0.1636	0.02

System: tetramethylammonium chloride + 1,2-benzenedicarboxylic acid + water; phases: Liquid mixture 1, Crystal
Fixed: Pressure, kPa = 101.325
Fixed: Temperature, K = 298
Property: Molality, mol/kg of 1,2-benzenedicarboxylic acid (Liquid mixture 1); method: titration
Solvent: Molality, mol/kg of tetramethylammonium chloride	Molality, mol/kg of 1,2-benzenedicarboxylic acid	uncertainty
0.259	0.0512	0.02
0.26	0.0543	0.02
0.26	0.0541	0.02
0.821	0.0617	0.02
0.867	0.0669	0.02
0.867	0.0671	0.02
1.793	0.0877	0.02
1.991	0.1037	0.02
2.542	0.0972	0.02
3.605	0.155	0.02
4.453	0.1582	0.02

System: 1,2-benzenedicarboxylic acid + sodium chloride + water; phases: Liquid mixture 1, Crystal
Fixed: Pressure, kPa = 101.325
Fixed: Temperature, K = 298
Property: Molality, mol/kg of 1,2-benzenedicarboxylic acid (Liquid mixture 1); method: titration
Solvent: Molality, mol/kg of sodium chloride	Molality, mol/kg of 1,2-benzenedicarboxylic acid	uncertainty
0.128	0.0413	0.004
0.246	0.0401	0.004
0.499	0.0373	0.004
0.966	0.035	0.004
0.99	0.0321	0.004
1.655	0.0256	0.004
2.037	0.0258	0.004
2.307	0.0209	0.004
3.173	0.0162	0.004
3.262	0.015	0.004
4.116	0.0116	0.004
4.693	0.0097	0.004
4.693	0.0093	0.004

System: 3,3'-dithiobis-L-alanine + tetraethylammonium iodide + water; phases: Liquid mixture 1, Crystal
Fixed: Pressure, kPa = 101.325
Fixed: Temperature, K = 298
Property: Molality, mol/kg of 3,3'-dithiobis-L-alanine (Liquid mixture 1); method: titration
Solvent: Molality, mol/kg of tetraethylammonium iodide	Molality, mol/kg of 3,3'-dithiobis-L-alanine	uncertainty
0.155	0.000549	0.00012
0.155	0.000532	0.00012
0.259	0.000589	0.00012
0.544	0.000511	0.00012
0.9	0.000415	0.00012
1.071	0.00038	0.00012
1.154	0.00036	0.00012
1.154	0.00041	0.00012

System: 3,3'-dithiobis-L-alanine + tetramethylammonium chloride + water; phases: Liquid mixture 1, Crystal
Fixed: Pressure, kPa = 101.325
Fixed: Temperature, K = 298
Property: Molality, mol/kg of 3,3'-dithiobis-L-alanine (Liquid mixture 1); method: titration
Solvent: Molality, mol/kg of tetramethylammonium chloride	Molality, mol/kg of 3,3'-dithiobis-L-alanine	uncertainty
0.302	0.00058	0.0001
0.641	0.000543	0.0001
1.449	0.000377	0.0001
1.793	0.000319	0.0001
1.793	0.000355	0.0001
2.132	0.000301	0.0001
4.427	0.000113	0.0001
4.427	0.000115	0.0001

System: 3,3'-dithiobis-L-alanine + sodium chloride + water; phases: Liquid mixture 1, Crystal
Fixed: Pressure, kPa = 101.325
Fixed: Temperature, K = 298
Property: Molality, mol/kg of 3,3'-dithiobis-L-alanine (Liquid mixture 1); method: titration
Solvent: Molality, mol/kg of sodium chloride	Molality, mol/kg of 3,3'-dithiobis-L-alanine	uncertainty
0.151	0.000836	0.0004
0.504	0.000809	0.0004
0.506	0.000966	0.0004
1.022	0.0012	0.0004
1.022	0.00085	0.0004
2.083	0.001014	0.0004
2.085	0.001282	0.0004
3.196	0.001182	0.0004
3.198	0.001728	0.0004
3.198	0.001168	0.0004
5.004	0.001434	0.0004
