Measured thermophysical data. Density, Refractive Index, Speed of Sound at 298.15 K, and Vapor-Liquid Equilibria at 101.3 kPa for Binary Mixtures of Methanol + 2-Methyl-1-butanol and Ethanol + 2-Methyl-1-butanol
Source: J. Chem. Eng. Data, 2005, 10.1021/je0500330
Compound 1: methanol, CH4O, InChI=1S/CH4O/c1-2/h2H,1H3, purity 99.8%
Compound 2: ethanol, C2H6O, InChI=1S/C2H6O/c1-2-3/h3H,2H2,1H3, purity 99.5%
Compound 3: 2-methyl-1-butanol, C5H12O, InChI=1S/C5H12O/c1-3-5(2)4-6/h5-6H,3-4H2,1-2H3, purity 99%

System: methanol; phases: Liquid
Property: Refractive index (Na D-line) (Liquid); method: Standard Abbe refractometry
Temperature, K	Pressure, kPa	Refractive index (Na D-line)	uncertainty
298.15	101.325	1.32667	0.00033

System: methanol; phases: Liquid
Property: Mass density, kg/m3 (Liquid); method: Vibrating tube method
Temperature, K	Pressure, kPa	Mass density, kg/m3	uncertainty
298.15	101.325	787.14	0.14

System: methanol; phases: Liquid, Gas
Property: Vapor or sublimation pressure, kPa (Liquid); method: EBULLIO:UFactor:8
Temperature, K	Vapor or sublimation pressure, kPa	uncertainty
337.65	101.3	3

System: methanol; phases: Liquid
Property: Speed of sound, m/s (Liquid); method: Sing-around technique in a fixed-path interferometer
Temperature, K	Pressure, kPa	Speed of sound, m/s	uncertainty
298.15	101.325	1102	2

System: ethanol; phases: Liquid
Property: Refractive index (Na D-line) (Liquid); method: Standard Abbe refractometry
Temperature, K	Pressure, kPa	Refractive index (Na D-line)	uncertainty
298.15	101.325	1.35916	0.00032

System: ethanol; phases: Liquid
Property: Mass density, kg/m3 (Liquid); method: Vibrating tube method
Temperature, K	Pressure, kPa	Mass density, kg/m3	uncertainty
298.15	101.325	785.36	0.23

System: ethanol; phases: Liquid, Gas
Property: Vapor or sublimation pressure, kPa (Liquid); method: EBULLIO:UFactor:8
Temperature, K	Vapor or sublimation pressure, kPa	uncertainty
351.5	101.3	3

System: ethanol; phases: Liquid
Property: Speed of sound, m/s (Liquid); method: Sing-around technique in a fixed-path interferometer
Temperature, K	Pressure, kPa	Speed of sound, m/s	uncertainty
298.15	101.325	1143	2

System: 2-methyl-1-butanol; phases: Liquid
Property: Refractive index (Na D-line) (Liquid); method: Standard Abbe refractometry
Temperature, K	Pressure, kPa	Refractive index (Na D-line)	uncertainty
298.15	101.325	1.40872	0.14

System: 2-methyl-1-butanol; phases: Liquid
Property: Mass density, kg/m3 (Liquid); method: Vibrating tube method
Temperature, K	Pressure, kPa	Mass density, kg/m3	uncertainty
298.15	101.325	814.87	0.2

System: 2-methyl-1-butanol; phases: Liquid, Gas
Property: Vapor or sublimation pressure, kPa (Liquid); method: EBULLIO:UFactor:8
Temperature, K	Vapor or sublimation pressure, kPa	uncertainty
401.58	101.3	3
401.86	101.3	3

System: 2-methyl-1-butanol; phases: Liquid
Property: Speed of sound, m/s (Liquid); method: Sing-around technique in a fixed-path interferometer
Temperature, K	Pressure, kPa	Speed of sound, m/s	uncertainty
298.15	101.325	1253	2

System: methanol + 2-methyl-1-butanol; phases: Liquid
Fixed: Temperature, K = 298.15
Fixed: Pressure, kPa = 101.3
Property: Refractive index (Na D-line) (Liquid); method: ABBE:UFactor:2
Mole fraction of methanol	Refractive index (Na D-line)	uncertainty
0.0485	1.40702	0.00063
0.1016	1.40511	0.00063
0.1543	1.40324	0.00063
0.1987	1.40162	0.00063
0.2528	1.39907	0.00063
0.3017	1.39712	0.00063
0.3496	1.39461	0.00063
0.4005	1.39181	0.00063
0.4506	1.38875	0.00064
0.4987	1.38569	0.00064
0.5502	1.38222	0.00064
0.6003	1.37832	0.00064
0.6487	1.37416	0.00065
0.7003	1.36946	0.00065
0.7504	1.3642	0.00066
0.8002	1.35846	0.00067
0.8503	1.35214	0.00068
0.9004	1.34482	0.0007
0.9503	1.33618	0.00071

System: methanol + 2-methyl-1-butanol; phases: Liquid
Fixed: Temperature, K = 298.15
Fixed: Pressure, kPa = 101.3
Property: Speed of sound, m/s (Liquid); method: FPINT:UFactor:3
Mole fraction of methanol	Speed of sound, m/s	uncertainty
0.0485	1250.7	2.2
0.1016	1246.7	2.2
0.1543	1242.6	2.2
0.1987	1238.7	2.2
0.2528	1233.9	2.2
0.3017	1229	2.2
0.3496	1223	2.2
0.4005	1217	2.2
0.4506	1210.7	2.2
0.4987	1204.2	2.2
0.5502	1197.2	2.2
0.6003	1188.8	2.1
0.6487	1180.7	2.1
0.7003	1171.5	2.1
0.7504	1162.7	2.1
0.8002	1151.4	2.1
0.8503	1142.2	2.1
0.9004	1131.5	2.1
0.9503	1120.5	2.1

System: methanol + 2-methyl-1-butanol; phases: Liquid, Gas
Fixed: Pressure, kPa = 101.3
Property: Boiling temperature at pressure P, K (Liquid); method: EBULLIO:UFactor:8
Mole fraction of methanol	Boiling temperature at pressure P, K	uncertainty
0	401.58	0.25
0.012	398.75	2.1
0.038	393.59	1.84
0.064	389.25	1.57
0.09	385.55	1.44
0.122	381.02	1.23
0.155	377.68	1.08
0.167	376.22	1.11
0.212	371.44	0.98
0.247	368.67	0.77
0.307	364.51	0.72
0.351	361.64	0.75
0.389	358.71	0.6
0.446	356.29	0.54
0.474	354.56	0.67
0.638	347.7	0.47
0.698	345.73	0.4
0.787	343.04	0.38
0.833	341.81	0.36
0.905	339.9	0.36
0.956	338.64	0.34
0.975	338.23	0.33
1	337.65	0.25

System: methanol + 2-methyl-1-butanol; phases: Liquid
Fixed: Temperature, K = 298.15
Fixed: Pressure, kPa = 101.3
Property: Mass density, kg/m3 (Liquid); method: VIBTUB:UFactor:4
Mole fraction of methanol	Mass density, kg/m3	uncertainty
0.0485	814.3	0.45
0.1016	813.63	0.44
0.1543	812.9	0.44
0.1987	812.22	0.44
0.2528	811.35	0.44
0.3017	810.5	0.44
0.3496	809.49	0.45
0.4005	808.36	0.45
0.4506	807.25	0.45
0.4987	806.12	0.45
0.5502	804.84	0.45
0.6003	803.4	0.45
0.6487	801.91	0.45
0.7003	800.27	0.45
0.7504	798.44	0.46
0.8002	796.5	0.46
0.8503	794.35	0.46
0.9004	791.96	0.47
0.9503	789.39	0.47

System: methanol + 2-methyl-1-butanol; phases: Gas, Liquid
Fixed: Pressure, kPa = 101.3
Property: Mole fraction of methanol (Gas); method: Density calibration data
Mole fraction of methanol	Mole fraction of methanol	uncertainty
0	0	0.001
0.012	0.098	0.082
0.038	0.273	0.081
0.064	0.393	0.056
0.09	0.474	0.045
0.122	0.572	0.037
0.155	0.634	0.029
0.167	0.663	0.029
0.212	0.737	0.025
0.247	0.777	0.019
0.307	0.827	0.018
0.351	0.856	0.017
0.389	0.883	0.015
0.446	0.9	0.015
0.474	0.915	0.016
0.638	0.965	0.014
0.698	0.967	0.014
0.787	0.98	0.014
0.833	0.985	0.014
0.905	0.993	0.007
0.956	0.997	0.003
0.975	0.999	0.001
1	1	0.001

System: ethanol + 2-methyl-1-butanol; phases: Liquid
Fixed: Temperature, K = 298.15
Fixed: Pressure, kPa = 101.3
Property: Refractive index (Na D-line) (Liquid); method: ABBE:UFactor:2
Mole fraction of ethanol	Refractive index (Na D-line)	uncertainty
0.0486	1.40734	0.00063
0.1013	1.40583	0.00063
0.1523	1.40424	0.00063
0.1987	1.40277	0.00063
0.2503	1.40112	0.00063
0.3004	1.39926	0.00063
0.3486	1.39756	0.00063
0.4003	1.39549	0.00063
0.4502	1.39341	0.00063
0.5004	1.3912	0.00063
0.5502	1.38899	0.00063
0.6004	1.38636	0.00064
0.6503	1.38373	0.00064
0.7	1.38109	0.00064
0.8009	1.37475	0.00064
0.8503	1.37134	0.00064
0.9002	1.36758	0.00065
0.9503	1.36358	0.00065

System: ethanol + 2-methyl-1-butanol; phases: Liquid
Fixed: Temperature, K = 298.15
Fixed: Pressure, kPa = 101.3
Property: Speed of sound, m/s (Liquid); method: FPINT:UFactor:3
Mole fraction of ethanol	Speed of sound, m/s	uncertainty
0.0486	1247.7	2.2
0.1013	1245	2.2
0.1523	1241.4	2.2
0.1987	1237.6	2.2
0.2503	1233.6	2.2
0.3004	1229.6	2.2
0.3486	1225.3	2.2
0.4003	1221	2.2
0.4502	1215.9	2.2
0.5004	1210.5	2.2
0.5502	1205.4	2.2
0.6004	1199.4	2.2
0.6503	1193.1	2.2
0.7	1186.9	2.2
0.8009	1173	2.2
0.8503	1166	2.2
0.9002	1158.2	2.1
0.9503	1150.2	2.1

System: ethanol + 2-methyl-1-butanol; phases: Liquid, Gas
Fixed: Pressure, kPa = 101.3
Property: Boiling temperature at pressure P, K (Liquid); method: EBULLIO:UFactor:8
Mole fraction of ethanol	Boiling temperature at pressure P, K	uncertainty
0	401.86	0.25
0.021	398.77	1.31
0.062	393.79	1.12
0.102	389.9	0.94
0.141	386.61	0.89
0.175	383.66	0.81
0.216	380.78	0.7
0.274	377.18	0.68
0.328	373.73	0.61
0.385	371.02	0.52
0.416	369.67	0.52
0.446	368.2	0.55
0.476	366.72	0.49
0.516	365.22	0.45
0.55	363.97	0.43
0.58	362.95	0.4
0.695	359.39	0.38
0.817	355.97	0.36
0.922	353.32	0.35
0.972	352.08	0.35
0.993	351.61	0.29
1	351.5	0.25

System: ethanol + 2-methyl-1-butanol; phases: Liquid
Fixed: Temperature, K = 298.15
Fixed: Pressure, kPa = 101.3
Property: Mass density, kg/m3 (Liquid); method: VIBTUB:UFactor:4
Mole fraction of ethanol	Mass density, kg/m3	uncertainty
0.0486	814.11	0.45
0.1013	813.23	0.45
0.1523	812.31	0.45
0.1987	811.39	0.45
0.2503	810.38	0.46
0.3004	809.33	0.46
0.3486	808.22	0.46
0.4003	807.02	0.46
0.4502	805.74	0.47
0.5004	804.41	0.47
0.5502	803.01	0.47
0.6004	801.43	0.48
0.6503	799.81	0.48
0.7	798.1	0.48
0.8009	794.32	0.49
0.8503	792.34	0.5
0.9002	790.13	0.5
0.9503	787.77	0.51

System: ethanol + 2-methyl-1-butanol; phases: Gas, Liquid
Fixed: Pressure, kPa = 101.3
Property: Mole fraction of ethanol (Gas); method: densimetry, speed of sound, refractive index
Mole fraction of ethanol	Mole fraction of ethanol	uncertainty
0	0	0.001
0.021	0.118	0.047
0.062	0.286	0.037
0.102	0.405	0.027
0.141	0.488	0.023
0.175	0.559	0.021
0.216	0.624	0.017
0.274	0.692	0.015
0.328	0.755	0.014
0.385	0.795	0.012
0.416	0.817	0.012
0.446	0.837	0.012
0.476	0.852	0.011
0.516	0.871	0.011
0.55	0.887	0.011
0.58	0.898	0.011
0.695	0.937	0.01
0.817	0.967	0.01
0.922	0.987	0.01
0.972	0.997	0.003
0.993	0.999	0.001
1	1	0.001
