Measured thermophysical data. Specific Heat Capacity at Constant Volume for R125 and R410A at Temperatures from (300 to 400) K and Pressures to 20 MPa
Source: J. Chem. Eng. Data, 2005, 10.1021/je0501843
Compound 1: pentafluoroethane, C2HF5, InChI=1S/C2HF5/c3-1(4)2(5,6)7/h1H, purity 99.99%
Compound 2: difluoromethane, CH2F2, InChI=1S/CH2F2/c2-1-3/h1H2, purity 99.99%

System: pentafluoroethane; phases: Fluid (supercritical or subcritical phases)
Property: Molar heat capacity at constant volume, J/K/mol (Fluid (supercritical or subcritical phases)); method: Vacuum adiabatic calorimetry
Temperature, K	Mass density, kg/m3	Molar heat capacity at constant volume, J/K/mol	uncertainty
306	1202.8	102.7742871428	2.0883715944
307	1202.7	103.9865028384	2.10037373
308	1202.5	103.9624985672	2.1123758656
309	1202.4	102.4862358884	2.10037373
310	1202.3	101.478056498	2.040363052
311	1202.1	102.6422636512	2.0643673232
312	1202	103.2063640244	2.0763694588
313	1201.9	102.6422636512	2.0643673232
314	1201.7	103.2423704312	2.0763694588
315	1201.6	102.91831277	2.0763694588
316	1201.5	103.0863426684	2.0763694588
317	1201.4	102.7262786004	2.0643673232
318	1201.2	102.1861824984	2.0523651876
319	1201.1	102.738280736	2.0643673232
320	1201	102.91831277	2.0763694588
321	1200.8	102.7502828716	2.0643673232
321	1200.8	102.7022743292	2.0643673232
322	1079.2	106.1828936532	2.1363801368
322	1200.7	102.4742337528	2.0643673232
322	1079.2	102.4742337528	2.0643673232
322	1200.7	101.8861291084	2.0523651876
323	1079.1	105.9428509412	2.1363801368
323	1200.6	102.8943084988	2.0643673232
323	1079.1	104.0225092452	2.0883715944
323	1200.6	102.1021675492	2.0523651876
324	1079	105.7148103648	2.1243780012
324	1200.5	102.7742871428	2.0643673232
324	1079	105.3067377544	2.1123758656
324	1200.5	102.4502294816	2.0643673232
325	1078.9	104.7066309744	2.10037373
325	1200.3	102.8342978208	2.0643673232
325	1078.9	104.0945220588	2.0883715944
325	1200.3	102.3062038544	2.0523651876
326	1078.8	103.2543725668	2.0763694588
326	1200.2	102.6302615156	2.0643673232
326	1078.8	103.338387516	2.0763694588
326	1200.2	102.1021675492	2.0523651876
327	1078.7	104.3105604996	2.10037373
327	1200.1	102.6542657868	2.0643673232
327	1078.7	104.3105604996	2.10037373
327	1200.1	102.3542123968	2.0643673232
328	1078.6	105.0306886356	2.1123758656
328	1199.9	102.8943084988	2.0643673232
328	1200	103.638440906	2.0883715944
328	1078.6	104.8506566016	2.1123758656
329	1078.5	104.7906459236	2.1123758656
329	1199.8	102.8102935496	2.0643673232
329	1078.5	104.4065775844	2.10037373
329	1199.8	102.6902721936	2.0643673232
330	1078.4	105.0066843644	2.1123758656
330	1199.7	103.0863426684	2.0763694588
330	1078.4	104.0705177876	2.0883715944
331	1078.3	104.358569042	2.10037373
331	1199.6	102.6422636512	2.0643673232
331	1078.3	104.2025412792	2.10037373
332	976.3	110.5636731472	2.220395086
332	1078.2	104.9826800932	2.1123758656
332	1199.4	103.4464067364	2.0763694588
332	976.3	112.1719593176	2.2564014928
332	1078.2	105.4747676528	2.1243780012
333	976.2	107.8751947728	2.1723865436
333	1078.1	105.7748210428	2.1243780012
333	1199.3	103.8304750756	2.0883715944
333	976.2	109.1234168752	2.1963908148
333	1078.1	104.8746608728	2.1123758656
334	976.2	105.2467270764	2.1123758656
334	1078	104.9826800932	2.1123758656
334	1199.2	103.3863960584	2.0763694588
334	976.2	107.11906023	2.1483822724
334	1078	103.5304216856	2.0763694588
335	976.1	106.1108808396	2.1363801368
335	1077.9	104.4305818556	2.10037373
335	1199.1	102.8462999564	2.0643673232
335	976.1	106.9870367384	2.1483822724
335	1077.9	103.5664280924	2.0883715944
336	976	107.3230965352	2.160384408
336	1077.8	104.7426373812	2.1123758656
336	1198.9	102.258195312	2.0523651876
336	976	107.2270794504	2.160384408
336	1077.8	104.0465135164	2.0883715944
337	975.9	107.599145654	2.160384408
337	1077.7	105.5707847376	2.1243780012
337	1198.8	103.7104537196	2.0883715944
337	975.9	108.4272930104	2.1843886792
337	1077.7	105.6908060936	2.1243780012
338	975.9	107.0830538232	2.160384408
338	1077.6	104.1545327368	2.10037373
338	1198.7	104.2265455504	2.10037373
338	975.9	107.5871435184	2.160384408
338	1077.6	105.0906993136	2.1123758656
339	883.4	114.1883180984	2.3044100352
339	975.8	106.2068979244	2.1363801368
339	1077.5	103.9745007028	2.0883715944
339	1198.5	103.998504974	2.0883715944
339	975.8	106.6029683992	2.1483822724
339	1077.5	103.5904323636	2.0883715944
340	883.3	112.9040895892	2.2684036284
340	975.7	106.5429577212	2.1483822724
340	1077.4	105.3547462968	2.1123758656
340	975.7	107.41911362	2.160384408
340	1077.4	104.4905925336	2.10037373
341	883.3	112.099946504	2.2564014928
341	975.6	107.8751947728	2.1723865436
341	1077.3	105.61879328	2.1243780012
341	975.6	107.6111477896	2.160384408
341	1077.3	105.1627121272	2.1123758656
342	883.2	111.0317564356	2.2323972216
342	975.6	106.999038874	2.1483822724
342	1077.2	104.9226694152	2.1123758656
342	1077.2	104.7906459236	2.1123758656
343	502.9	134.8079870592	2.7124826456
343	883.1	110.41964752	2.220395086
343	975.5	106.8550132468	2.1483822724
343	1077.1	104.1665348724	2.10037373
343	1077.1	104.838654466	2.1123758656
344	502.9	132.1555150916	2.6524719676
344	585.8	125.9744152576	2.5324506116
344	883.1	111.2958034188	2.2323972216
344	975.4	106.4109342296	2.1363801368
344	1077	104.7546395168	2.1123758656
344	1077	104.598611754	2.10037373
345	502.9	126.982594648	2.5564548828
345	585.7	123.9460543412	2.4964442048
345	585.8	131.3513720064	2.640469832
345	688.7	126.8265668852	2.5564548828
345	883	111.0197543	2.2323972216
345	975.3	107.2630858572	2.160384408
345	1076.9	105.1147035848	2.1123758656
345	1076.9	104.71863311	2.10037373
346	403.2	120.081366678	2.4124292556
346	502.9	120.1533794916	2.4244313912
346	585.7	120.32140939	2.4244313912
346	585.8	127.6547142416	2.5684570184
346	688.7	123.2139240696	2.4844420692
346	774.1	115.1964974888	2.3164121708
346	883	110.8877308084	2.2323972216
346	975.3	107.4671221624	2.160384408
346	1076.8	105.5347783308	2.1243780012
346	975.3	107.6231499252	2.160384408
346	1076.8	105.078697178	2.1123758656
347	403.2	117.7529523716	2.3644207132
347	503	115.9286277604	2.3284143064
347	585.7	117.7169459648	2.3644207132
347	585.8	123.8860436632	2.4844420692
347	688.7	119.2292150504	2.40042712
347	774.1	114.8964440988	2.3044100352
347	882.9	110.1916069436	2.220395086
347	975.2	105.5227761952	2.1243780012
347	1076.7	105.0426907712	2.1123758656
347	975.2	107.2750879928	2.160384408
347	1076.7	104.538601076	2.10037373
348	403.3	116.5887452184	2.340416442
348	503	118.4850826432	2.3764228488
348	585.7	124.8462145112	2.5084463404
348	688.7	117.7049438292	2.3644207132
348	774	114.62039498	2.3044100352
348	882.8	109.7475279264	2.2083929504
348	975.1	106.2068979244	2.1363801368
348	1076.6	104.5866096184	2.10037373
348	585.7	118.0770100328	2.3764228488
348	975.1	107.4071114844	2.160384408
348	1076.6	104.7426373812	2.10037373
349	403.3	115.6885850484	2.3284143064
349	503	119.7573090168	2.40042712
349	585.7	123.441964646	2.4844420692
349	688.6	119.0251787452	2.3884249844
349	774	115.400533794	2.3164121708
349	882.8	110.5876774184	2.220395086
349	975	107.4071114844	2.160384408
349	1076.6	105.378750568	2.1243780012
349	585.7	117.140843456	2.3524185776
349	975	108.4873036884	2.1843886792
349	1076.6	105.9548530768	2.1363801368
350	403.4	113.6722262676	2.280405764
350	503	116.8167857948	2.3524185776
350	585.7	121.8696848824	2.4484356624
350	688.6	121.82167634	2.4484356624
350	774	115.8686170824	2.3284143064
350	882.7	111.199786334	2.2323972216
350	975	106.8070047044	2.1483822724
350	1076.5	105.5107740596	2.1243780012
350	585.7	115.2565081668	2.3164121708
350	975	108.2232567052	2.1723865436
350	1076.5	105.7508167716	2.1243780012
351	403.4	114.0322903356	2.2924078996
351	503	115.4245380652	2.3164121708
351	585.7	123.2259262052	2.4724399336
351	688.6	119.9133367796	2.4124292556
351	773.9	114.0562946068	2.2924078996
351	882.7	110.2516176216	2.220395086
351	974.9	106.0148637548	2.1363801368
351	1076.4	105.258729212	2.1123758656
351	585.7	113.9962839288	2.2924078996
351	974.9	107.359102942	2.160384408
351	1076.4	105.5707847376	2.1243780012
352	403.5	110.2276133504	2.220395086
352	503	114.080298878	2.2924078996
352	585.7	123.5739881376	2.4844420692
352	688.6	117.0208221	2.3524185776
352	773.9	113.1561344368	2.280405764
352	882.6	108.9553869768	2.1963908148
352	974.8	106.9630324672	2.1483822724
352	1076.3	105.7508167716	2.1243780012
352	585.7	113.0241109452	2.2684036284
352	974.8	107.8631926372	2.1723865436
352	1076.3	105.2347249408	2.1123758656
353	403.5	109.2914467736	2.1963908148
353	503	114.32034159	2.2924078996
353	585.7	120.9935289836	2.4364335268
353	688.5	116.8047836592	2.3524185776
353	773.8	113.5642070472	2.280405764
353	882.5	110.899732944	2.2323972216
353	974.7	107.3110943996	2.160384408
353	1076.2	106.2068979244	2.1363801368
353	585.7	113.0721194876	2.2684036284
353	974.7	108.3312759256	2.1723865436
353	1076.2	105.6668018224	2.1243780012
354	403.6	113.2161451148	2.280405764
354	503	115.3645273872	2.3164121708
354	585.7	119.2052107792	2.40042712
354	688.5	117.1768498628	2.3524185776
354	773.8	113.6962305388	2.280405764
354	882.5	112.3159849448	2.2564014928
354	974.6	107.0710516876	2.1483822724
354	1076.1	105.498771924	2.1243780012
354	585.7	111.2357927408	2.2323972216
354	974.6	107.839188366	2.1723865436
354	1076.1	106.638974806	2.1483822724
355	403.6	113.060117352	2.2684036284
355	503	114.260330912	2.2924078996
355	585.7	121.1735610176	2.4364335268
355	688.5	116.5167324048	2.340416442
355	773.7	113.1441323012	2.2684036284
355	882.4	110.0355791808	2.2083929504
355	974.6	106.6269726704	2.1483822724
355	1076	104.4665882624	2.10037373
355	585.7	110.2516176216	2.220395086
355	974.6	107.2870901284	2.160384408
355	1076	105.3067377544	2.1123758656
356	403.6	111.1277735204	2.2323972216
356	503	113.9962839288	2.2924078996
356	585.7	121.3895994584	2.4364335268
356	688.4	115.4365402008	2.3164121708
356	773.7	112.5560276568	2.2684036284
356	882.4	109.8315428756	2.2083929504
356	974.5	106.758996162	2.1483822724
356	1075.9	105.5947890088	2.1243780012
356	585.7	110.5156646048	2.220395086
356	974.5	106.9750346028	2.1483822724
356	1075.9	105.0426907712	2.1123758656
357	403.6	111.139775656	2.2323972216
357	503	114.2963373188	2.2924078996
357	585.6	111.9559208768	2.2443993572
357	585.7	119.541270576	2.40042712
357	688.4	115.7245914552	2.3284143064
357	773.7	114.080298878	2.2924078996
357	882.3	111.1277735204	2.2323972216
357	974.4	107.5151307048	2.160384408
357	1075.8	106.51895345	2.1363801368
357	974.4	108.2712652476	2.1723865436
357	1075.8	106.0508701616	2.1363801368
358	403.6	111.559850402	2.2443993572
358	503	112.4720127076	2.2564014928
358	585.6	118.7251253552	2.3884249844
358	688.4	115.4245380652	2.3164121708
358	773.6	113.9122689796	2.2924078996
358	882.2	110.6236838252	2.220395086
358	974.3	107.3711050776	2.160384408
358	1075.7	105.7148103648	2.1243780012
358	585.6	110.5156646048	2.220395086
358	974.3	108.9313827056	2.1843886792
358	1075.7	106.7950025688	2.1483822724
359	403.6	112.1719593176	2.2564014928
359	503	112.7120554196	2.2684036284
359	585.6	120.7294820004	2.4244313912
359	688.3	114.5963907088	2.3044100352
359	773.6	112.6640468772	2.2684036284
359	882.2	109.4114681296	2.1963908148
359	974.3	106.8430111112	2.1483822724
359	1075.6	105.1147035848	2.1123758656
359	585.6	110.0115749096	2.2083929504
359	974.3	107.6831606032	2.160384408
359	1075.6	106.038868026	2.1363801368
360	403.6	111.0557607068	2.2323972216
360	503	113.8522583016	2.2924078996
360	585.6	119.6372876608	2.40042712
360	688.3	115.4365402008	2.3164121708
360	773.5	113.0121088096	2.2684036284
360	882.1	109.099412604	2.1963908148
360	974.2	106.6629790772	2.1483822724
360	1075.5	106.1948957888	2.1363801368
360	585.6	111.4638333172	2.2443993572
360	974.2	107.7071648744	2.160384408
360	1075.5	105.8708381276	2.1243780012
361	403.6	110.41964752	2.220395086
361	503	112.2559742668	2.2564014928
361	585.6	116.4087131844	2.340416442
361	688.3	115.6045700992	2.3284143064
361	773.5	113.8642604372	2.2924078996
361	882.1	110.8877308084	2.2323972216
361	974.1	107.1070580944	2.1483822724
361	1075.4	106.5909662636	2.1483822724
361	585.6	111.5718525376	2.2443993572
361	974.1	108.3672823324	2.1843886792
362	403.6	109.7835343332	2.2083929504
362	503	111.4038226392	2.2443993572
362	585.6	117.980992948	2.3764228488
362	688.2	115.9526320316	2.3284143064
362	773.4	112.7120554196	2.2684036284
362	882	110.8037158592	2.2323972216
362	974	107.299092264	2.160384408
362	1075.3	106.0868765684	2.1363801368
362	585.6	110.7317030456	2.2323972216
362	974	108.2232567052	2.1723865436
363	403.6	109.939562096	2.2083929504
363	503	114.1643138272	2.2924078996
363	585.5	120.741484136	2.4244313912
363	688.2	116.4447195912	2.340416442
363	773.4	110.5276667404	2.220395086
363	881.9	110.6116816896	2.220395086
363	974	106.4109342296	2.1363801368
363	1075.2	106.3749278228	2.1363801368
363	585.5	110.359636842	2.220395086
363	974	108.0192204	2.1723865436
364	403.6	111.1037692492	2.2323972216
364	503	113.42018142	2.280405764
364	585.5	119.3972449488	2.40042712
364	688.2	114.6924077936	2.3044100352
364	773.3	110.7076987744	2.2323972216
364	881.9	110.7917137236	2.2323972216
364	973.9	106.698985484	2.1483822724
364	1075.1	106.3149171448	2.1363801368
364	585.5	109.879551418	2.2083929504
364	973.9	108.1032353492	2.1723865436
365	403.6	108.6673357224	2.1843886792
365	503	111.4878375884	2.2443993572
365	585.5	117.9569886768	2.3644207132
365	688.1	115.2565081668	2.3164121708
365	773.3	119.0371808808	2.3884249844
365	881.8	110.3236304352	2.220395086
365	973.8	106.4109342296	2.1363801368
365	1075	105.7508167716	2.1243780012
365	585.5	110.0235770452	2.2083929504
365	973.8	108.2952695188	2.1723865436
366	403.6	108.1632460272	2.1723865436
366	503	114.4523650816	2.3044100352
366	585.5	119.6972983388	2.40042712
366	688.1	116.480725998	2.340416442
366	881.7	110.4316496556	2.220395086
366	973.7	107.6231499252	2.160384408
366	1074.9	106.21890006	2.1363801368
366	585.5	112.4360063008	2.2564014928
366	973.7	109.2314360956	2.1963908148
367	403.6	110.8637265372	2.2323972216
367	502.9	113.3121621996	2.280405764
367	585.4	117.62092888	2.3644207132
367	688.1	115.0524718616	2.3164121708
367	881.7	109.699519384	2.2083929504
367	973.6	107.5751413828	2.160384408
367	1074.8	106.4109342296	2.1363801368
367	585.4	110.2756218928	2.220395086
367	973.6	108.9553869768	2.1843886792
368	403.5	111.0917671136	2.2323972216
368	502.9	112.1359529108	2.2564014928
368	585.4	115.5325572856	2.3164121708
368	688	113.0121088096	2.2684036284
368	773.1	111.1637799272	2.2323972216
368	881.6	109.6155044348	2.2083929504
368	973.6	106.7469940264	2.1483822724
368	1074.7	106.1708915176	2.1363801368
368	585.4	108.8953762988	2.1843886792
368	973.6	108.5473143664	2.1843886792
369	403.5	111.6678696224	2.2443993572
369	502.9	113.4561878268	2.280405764
369	585.4	118.0290014904	2.3764228488
369	688	114.3683501324	2.3044100352
369	773.1	112.6520447416	2.2684036284
369	881.6	110.9357393508	2.2323972216
369	973.5	108.2832673832	2.1723865436
369	1074.6	106.1828936532	2.1363801368
369	585.4	110.3116282996	2.220395086
369	973.5	109.6155044348	2.2083929504
370	403.5	111.2237906052	2.2323972216
370	502.9	114.8484355564	2.3044100352
370	585.4	118.041003626	2.3764228488
370	687.9	116.0966576588	2.3284143064
370	773	113.000106674	2.2684036284
370	881.5	111.1277735204	2.2323972216
370	973.4	107.539134976	2.160384408
370	1074.5	106.5549598568	2.1363801368
370	585.4	108.8233634852	2.1843886792
370	973.4	109.81954074	2.2083929504
371	403.5	112.0879443684	2.2564014928
371	502.9	116.6247516252	2.340416442
371	585.3	116.0726533876	2.3284143064
371	687.9	113.6722262676	2.280405764
371	773	111.61986108	2.2443993572
371	881.4	110.6956966388	2.220395086
371	973.3	107.4431178912	2.160384408
371	1074.4	107.0710516876	2.1483822724
371	585.3	110.2636197572	2.220395086
371	973.3	109.1714254176	2.1963908148
372	403.5	114.0442924712	2.2924078996
372	502.8	115.2445060312	2.3164121708
372	585.3	115.8446128112	2.3284143064
372	687.9	112.8440789112	2.2684036284
372	772.9	111.5358461308	2.2443993572
372	881.4	110.299626164	2.220395086
372	973.3	107.1670687724	2.160384408
372	1074.3	106.21890006	2.1363801368
372	585.3	110.7076987744	2.220395086
372	973.3	108.0432246712	2.1723865436
373	403.5	113.1681365724	2.2684036284
373	502.8	117.0088199644	2.3524185776
373	585.3	117.200854134	2.3524185776
373	687.8	113.5642070472	2.280405764
373	772.9	111.799893114	2.2443993572
373	881.3	111.1877841984	2.2323972216
373	973.2	107.6111477896	2.160384408
373	585.3	110.9117350796	2.2323972216
373	973.2	108.7753549428	2.1843886792
374	403.4	114.4523650816	2.3044100352
374	502.8	119.1331979656	2.3884249844
374	585.3	117.500907524	2.3644207132
374	687.8	114.1643138272	2.2924078996
374	772.9	112.7120554196	2.2684036284
374	881.2	112.0039294192	2.2564014928
374	973.1	108.979391248	2.1963908148
374	585.3	112.6760490128	2.2684036284
374	973.1	110.0715855876	2.2083929504
375	403.4	112.9520981316	2.2684036284
375	502.8	117.92098227	2.3644207132
375	585.2	116.6367537608	2.340416442
375	687.8	113.3961771488	2.280405764
375	772.8	112.3279870804	2.2564014928
375	881.2	110.9957500288	2.2323972216
375	973	108.2472609764	2.1723865436
375	585.2	110.7317030456	2.220395086
375	973	109.8075386044	2.2083929504
376	403.4	116.0846555232	2.3284143064
376	502.8	116.3727067776	2.340416442
376	585.2	116.5527388116	2.340416442
376	687.7	113.5642070472	2.280405764
376	772.8	112.5560276568	2.2564014928
376	881.1	110.11959413	2.2083929504
376	973	107.5511371116	2.160384408
376	585.2	110.5156646048	2.220395086
376	973	109.0033955192	2.1963908148
377	403.4	115.4845487432	2.3164121708
377	502.7	117.2848690832	2.3524185776
377	585.2	116.3367003708	2.340416442
377	687.7	114.4523650816	2.3044100352
377	772.7	113.060117352	2.2684036284
377	881.1	110.8637265372	2.2323972216
377	972.9	108.4152908748	2.1843886792
377	585.2	111.61986108	2.2443993572
377	972.9	108.9433848412	2.1963908148
378	403.4	113.2761557928	2.280405764
378	502.7	118.2930484736	2.3764228488
378	585.1	116.8167857948	2.3524185776
378	687.6	114.8364334208	2.3044100352
378	772.7	112.5080191144	2.2564014928
378	881	111.4278269104	2.2443993572
378	972.8	108.139241756	2.1723865436
378	585.1	112.8680831824	2.2684036284
378	972.8	110.2156112148	2.220395086
379	403.3	117.9689908124	2.3764228488
379	502.7	115.2084996244	2.3164121708
379	585.1	116.1686704724	2.340416442
379	687.6	115.82060854	2.3284143064
379	772.6	113.5522049116	2.280405764
379	880.9	111.0917671136	2.2323972216
379	972.7	107.6471541964	2.160384408
379	585.1	112.3039828092	2.2564014928
379	972.7	109.2674425024	2.1963908148
380	403.3	116.0246448452	2.3284143064
380	502.7	112.640042606	2.2684036284
380	585.1	111.2717991476	2.2323972216
380	687.6	113.060117352	2.2684036284
380	772.6	113.3121621996	2.280405764
380	880.9	111.1757820628	2.2323972216
380	972.6	107.7071648744	2.1723865436
380	972.6	108.8113613496	2.1843886792
381	403.3	114.7044099292	2.3044100352
381	502.6	115.0644739972	2.3164121708
381	585	114.3923544036	2.3044100352
381	687.5	113.1441323012	2.2684036284
381	772.5	113.0721194876	2.2684036284
381	880.8	112.1119486396	2.2564014928
381	972.6	113.2881579284	2.280405764
381	972.6	109.699519384	2.2083929504
382	403.3	116.1446662012	2.3284143064
382	502.6	117.3088733544	2.3524185776
382	585	117.0448263712	2.3524185776
382	687.5	116.3847089132	2.340416442
382	772.5	113.5882113184	2.280405764
382	880.7	113.1441323012	2.2684036284
382	972.5	113.5522049116	2.280405764
382	972.5	110.2276133504	2.220395086
383	403.3	116.8287879304	2.3524185776
383	502.6	115.940629896	2.3284143064
383	585	116.4447195912	2.340416442
383	687.4	115.7966042688	2.3284143064
383	772.4	112.3159849448	2.2564014928
383	880.7	112.4120020296	2.2564014928
383	972.4	107.8751947728	2.1723865436
383	972.4	110.359636842	2.220395086
384	403.3	115.5325572856	2.3284143064
384	502.6	114.7524184716	2.3044100352
384	585	115.280512438	2.3164121708
384	687.4	113.9722796576	2.2924078996
384	772.4	111.6678696224	2.2443993572
384	880.6	112.2559742668	2.2564014928
384	972.3	108.7753549428	2.1843886792
384	972.3	109.5674958924	2.2083929504
385	403.2	109.699519384	2.2083929504
385	502.5	112.5440255212	2.2564014928
385	584.9	115.82060854	2.3284143064
385	687.4	113.72023481	2.280405764
385	772.3	112.5920340636	2.2684036284
385	880.6	111.7878909784	2.2443993572
385	972.3	110.0115749096	2.2083929504
385	972.3	109.2674425024	2.1963908148
386	403.2	109.6515108416	2.2083929504
386	502.5	114.0682967424	2.2924078996
386	584.9	117.4769032528	2.3644207132
386	687.3	115.040469726	2.3164121708
386	772.3	114.080298878	2.2924078996
386	880.5	113.1441323012	2.2684036284
386	972.2	111.0437585712	2.2323972216
386	972.2	111.4278269104	2.2443993572
387	403.2	111.979925148	2.2564014928
387	502.5	114.1043031492	2.2924078996
387	584.9	115.4365402008	2.3164121708
387	687.3	115.22050176	2.3164121708
387	772.2	113.7682433524	2.280405764
387	880.4	113.0361130808	2.2684036284
387	972.1	109.6755151128	2.2083929504
387	972.1	111.2717991476	2.2323972216
388	403.2	113.4561878268	2.280405764
388	502.5	111.199786334	2.2323972216
388	584.8	114.8244312852	2.3044100352
388	687.2	114.32034159	2.2924078996
388	772.2	113.360170742	2.280405764
388	880.4	110.8277201304	2.2323972216
388	972	109.0153976548	2.1963908148
388	972	109.9035556892	2.2083929504
389	403.2	112.1719593176	2.2564014928
389	502.4	110.5156646048	2.220395086
389	584.8	116.360704642	2.340416442
389	687.2	114.2843351832	2.2924078996
389	772.1	114.2243245052	2.2924078996
389	880.3	112.0759422328	2.2564014928
389	972	110.0835877232	2.2083929504
389	972	110.7076987744	2.220395086
390	403.1	112.2319699956	2.2564014928
390	502.4	112.4720127076	2.2564014928
390	584.8	115.0284675904	2.3164121708
390	687.2	115.4125359296	2.3164121708
390	772.1	115.460544472	2.3164121708
390	880.2	113.8522583016	2.2924078996
390	971.9	113.1441323012	2.280405764
390	971.9	111.0437585712	2.2323972216
391	403.1	115.1244846752	2.3164121708
391	502.4	111.2117884696	2.2323972216
391	584.7	113.9482753864	2.2924078996
391	687.1	114.6924077936	2.3044100352
391	772	114.4043565392	2.3044100352
391	880.2	113.1321301656	2.2684036284
391	971.8	113.7322369456	2.2924078996
391	971.8	111.1157713848	2.2323972216
392	403.1	113.9362732508	2.2924078996
392	502.4	111.31980769	2.2323972216
392	584.7	113.4441856912	2.280405764
392	687.1	113.1681365724	2.2684036284
392	772	112.4480084364	2.2564014928
392	880.1	111.3918205036	2.2443993572
392	971.7	108.9913933836	2.1963908148
392	971.7	110.5516710116	2.220395086
393	403.1	113.840256166	2.2924078996
393	502.3	114.9324505056	2.3044100352
393	584.7	112.2559742668	2.2564014928
393	687	114.980459048	2.3164121708
393	771.9	113.7682433524	2.280405764
393	880	112.82007464	2.2684036284
393	971.6	109.6035022992	2.2083929504
393	971.6	110.839722266	2.2323972216
394	403.1	113.1921408436	2.280405764
394	502.3	113.5282006404	2.280405764
394	584.6	113.5642070472	2.280405764
394	687	116.480725998	2.340416442
394	771.9	114.2843351832	2.2924078996
394	880	113.3121621996	2.280405764
394	971.6	113.4561878268	2.280405764
394	971.6	112.4120020296	2.2564014928
395	403	112.6640468772	2.2684036284
395	502.3	112.9520981316	2.2684036284
395	584.6	114.1283074204	2.2924078996
395	687	114.6323971156	2.3044100352
395	771.8	113.3721728776	2.280405764
395	879.9	112.1119486396	2.2564014928
395	971.5	112.760063962	2.2684036284
395	971.5	111.5958568088	2.2443993572
396	403	114.1883180984	2.2924078996
396	502.3	115.6045700992	2.3284143064
396	584.6	113.5282006404	2.280405764
396	686.9	113.1681365724	2.2684036284
396	771.8	113.3481686064	2.280405764
396	879.9	112.9280938604	2.2684036284
396	971.4	112.7720660976	2.2684036284
396	971.4	110.2036090792	2.220395086
397	403	115.1124825396	2.3164121708
397	502.2	113.3721728776	2.280405764
397	584.5	112.4240041652	2.2564014928
397	686.9	113.72023481	2.280405764
397	771.7	113.2281472504	2.280405764
397	879.8	113.9722796576	2.2924078996
397	971.3	112.640042606	2.2684036284
397	971.3	111.5358461308	2.2443993572
398	403	115.940629896	2.3284143064
398	502.2	111.9079123344	2.2443993572
398	584.5	113.660224132	2.280405764
398	686.8	116.240683286	2.340416442
398	771.7	114.5243778952	2.3044100352
398	879.7	113.600213454	2.280405764
398	971.3	113.4561878268	2.280405764
398	971.3	112.9160917248	2.2684036284
399	502.2	114.4283608104	2.3044100352
399	584.5	115.4365402008	2.3164121708
399	686.8	115.4965508788	2.3164121708
399	771.6	114.8484355564	2.3044100352
399	879.7	112.0519379616	2.2564014928
399	971.2	112.0759422328	2.2564014928

System: difluoromethane + pentafluoroethane; phases: Fluid (supercritical or subcritical phases)
Fixed: Mass fraction of pentafluoroethane = 0.500134
Property: Molar heat capacity at constant volume, J/K/mol (Fluid (supercritical or subcritical phases)); method: Vacuum adiabatic calorimetry
Temperature, K	Pressure, kPa	Molar heat capacity at constant volume, J/K/mol	uncertainty
301	4414	70.226	1.4156
302	4977	70.1679	1.4156
303	5537	70.2986	1.4156
303	5540	70.03	1.4156
304	6101	69.8195	1.4083
304	6103	69.9646	1.4156
305	6663	69.834	1.4083
305	6663	69.7614	1.4083
306	7227	69.9719	1.4156
306	7228	70.451	1.4228
307	7791	70.0735	1.4156
307	7792	70.2913	1.4156
308	8356	69.7469	1.4083
308	8357	69.9719	1.4156
309	8918	70.226	1.4156
309	8918	69.7469	1.4083
310	9482	70.03	1.4156
310	9484	69.8993	1.4083
311	10048	70.1244	1.4156
311	10049	69.8558	1.4083
312	10614	69.6743	1.4083
312	10615	69.6598	1.4083
313	11178	69.3258	1.401
313	11179	69.4347	1.401
314	11741	69.0209	1.3938
314	11743	69.3041	1.401
315	12309	69.1516	1.3938
315	12309	68.6652	1.3865
316	12875	69.0572	1.3938
316	12877	68.7451	1.3865
317	13440	68.8322	1.3865
317	13440	68.2079	1.3793
318	14003	67.4021	1.3647
318	14005	68.0047	1.372
319	14570	67.7796	1.372
319	14571	68.0482	1.372
320	15135	67.8087	1.372
320	15137	68.491	1.3865
321	15700	67.0464	1.3575
321	15701	67.3658	1.3575
322	16263	66.4802	1.343
322	16265	66.8287	1.3502
323	16830	66.9738	1.3502
323	16830	66.8069	1.3502
324	17394	66.9158	1.3502
324	17396	66.3931	1.343
325	5448	69.9284	1.4156
325	17959	66.1318	1.3357
325	17961	66.3132	1.343
326	5835	69.8122	1.4083
326	5836	71.4818	1.4446
326	18524	65.8922	1.3284
326	18525	66.0737	1.3357
327	6224	70.1244	1.4156
327	6225	69.9211	1.4083
327	19088	66.1608	1.3357
327	19090	66.4221	1.343
328	6615	70.4873	1.4228
328	6616	71.4746	1.4446
328	19652	66.0955	1.3357
328	19655	66.081	1.3357
329	7006	70.4655	1.4228
329	7007	71.6343	1.4446
330	7397	69.7396	1.4083
330	7399	71.0245	1.4301
331	7788	69.6888	1.4083
331	7790	71.0608	1.4373
332	8183	71.2713	1.4373
332	8184	70.5672	1.4228
333	8579	70.3566	1.4228
333	8579	71.5109	1.4446
334	8970	71.0753	1.4373
334	8971	69.5146	1.401
335	9364	69.275	1.401
335	9364	70.7559	1.4301
336	9759	69.9211	1.4083
336	9759	70.8866	1.4301
337	10156	71.3294	1.4373
337	10157	70.6035	1.4228
338	6179	73.09339	1.4736
338	10552	71.0826	1.4373
338	10553	69.8558	1.4083
339	6478	73.24583	1.4809
339	10948	68.6362	1.3865
339	10948	70.4583	1.4228
340	6782	73.55072	1.4809
340	11344	69.1589	1.3938
340	11346	71.1044	1.4373
341	7089	73.84835	1.4881
341	11743	69.7686	1.4083
341	11745	71.1334	1.4373
342	7389	73.1442	1.4736
342	12139	69.0427	1.3938
342	12142	70.6906	1.4301
343	7693	72.73768	1.4664
343	12536	68.9701	1.3938
343	12538	70.9882	1.4301
344	7998	73.01353	1.4736
344	12935	69.0645	1.3938
344	12936	70.5744	1.4228
345	8306	73.42005	1.4809
345	13334	70.0372	1.4156
346	8612	73.52168	1.4809
346	13733	70.3131	1.4228
347	6281	76.51249	1.5462
347	8917	72.75946	1.4664
347	14131	69.6089	1.4083
348	6505	75.75753	1.5317
348	9225	72.3094	1.4591
348	14528	69.079	1.3938
349	5380	96.63513	1.9455
349	6732	76.88997	1.5535
349	9535	72.88287	1.4736
349	14929	70.1969	1.4156
350	5486	95.01632	1.9164
350	5543	91.24151	1.8366
350	5720	84.88241	1.7132
350	6957	76.37457	1.539
350	9844	72.65057	1.4664
350	15331	69.9864	1.4156
351	5591	91.7061	1.8438
351	5661	90.23973	1.8148
351	5866	81.34715	1.6551
351	7184	75.15501	1.5172
351	10153	72.4546	1.4591
351	15729	68.9193	1.3938
352	5697	89.07825	1.793
352	5778	87.67722	1.764
352	5877	87.59737	1.7713
352	6013	80.14938	1.6333
352	7411	74.14598	1.4954
352	10462	72.5707	1.4664
352	16128	68.7887	1.3865
353	5802	88.35959	1.7785
353	5898	87.13278	1.7567
353	6010	87.42315	1.764
353	6163	80.29456	1.6333
353	7640	75.08968	1.5172
353	10771	72.4038	1.4591
353	16529	69.1661	1.3938
354	5907	87.37959	1.7567
354	6017	86.00759	1.735
354	6144	86.89322	1.7495
354	6312	80.46878	1.6261
354	7867	74.78479	1.5099
354	11082	72.5417	1.4664
354	16929	68.9193	1.3938
355	6013	85.59381	1.7204
355	6136	84.28715	1.6987
355	6277	85.21633	1.7132
355	6460	78.25471	1.5825
355	8099	73.81205	1.4881
355	11393	71.6198	1.4446
355	17330	68.0482	1.372
356	6119	85.68093	1.7277
356	6256	84.00404	1.6914
356	6409	84.29441	1.6987
356	6610	77.5796	1.5607
356	8331	73.9645	1.4954
356	11703	71.6778	1.4446
356	17728	68.4838	1.3793
357	6227	86.16004	1.735
357	6375	83.21278	1.6769
357	6544	84.5993	1.7059
357	6762	78.58864	1.5825
357	8563	73.79027	1.4881
357	12015	72.2005	1.4591
357	18129	68.9338	1.3938
358	6332	84.367	1.6987
358	6496	82.34167	1.6624
358	6679	84.31619	1.6987
358	6913	78.26197	1.5753
358	8795	73.4999	1.4809
358	12328	72.1206	1.4518
358	18529	68.6217	1.3865
359	6438	82.90789	1.6696
359	6616	81.68108	1.6478
359	6814	82.54493	1.6624
359	7064	76.43264	1.5462
359	9028	72.90465	1.4736
359	12639	71.5689	1.4446
359	18928	68.266	1.3793
360	6544	82.4433	1.6624
360	6737	80.96967	1.6333
360	6948	82.00049	1.6551
360	7219	76.78109	1.5535
360	9258	72.64331	1.4664
360	12952	70.7269	1.4301
361	6650	82.8353	1.6696
361	6858	80.52686	1.6261
361	7085	81.71738	1.6478
361	7368	77.23842	1.5607
361	9493	73.34746	1.4809
361	13265	71.2205	1.4373
362	6758	82.74093	1.6696
362	6980	80.56315	1.6261
362	7222	81.90612	1.6478
362	7523	75.40909	1.5244
362	9726	73.81931	1.4881
362	13581	70.5309	1.4228
363	6864	81.24552	1.6406
363	7101	80.13486	1.6116
363	7357	81.64478	1.6478
363	7676	75.62686	1.5244
363	9958	73.52168	1.4809
363	13894	70.0663	1.4156
364	6970	80.93338	1.6333
364	7223	79.29279	1.597
364	7494	80.2873	1.6188
364	7828	75.97531	1.5317
364	10192	72.65783	1.4664
364	14207	69.5944	1.4083
365	7077	80.92612	1.6333
365	7344	79.25649	1.597
365	7632	79.75012	1.6043
365	7982	75.67042	1.5244
365	10427	72.5417	1.4664
365	14520	69.0355	1.3938
366	7184	80.58493	1.6261
366	7465	80.44701	1.6188
366	7771	80.39619	1.6188
366	8137	76.0842	1.5317
366	10664	73.17324	1.4736
366	14835	69.9429	1.4083
367	7291	80.31634	1.6188
367	7587	79.45975	1.6043
367	7907	79.3073	1.597
367	8294	74.79205	1.5099
367	10900	72.0263	1.4518
367	15148	69.1008	1.3938
368	7397	79.16938	1.597
368	7708	77.5796	1.5607
368	8044	77.88449	1.568
368	8449	74.1242	1.4954
368	11133	71.2495	1.4373
368	15462	68.3168	1.3793
369	7504	79.61945	1.6043
369	7831	78.34908	1.5825
369	8183	78.64671	1.5825
369	8605	76.17857	1.539
369	11369	72.83205	1.4664
369	15777	69.7396	1.4083
370	7612	79.44523	1.6043
370	7953	77.85545	1.568
370	8323	77.55057	1.5607
370	8762	76.13501	1.5317
370	11608	72.91916	1.4736
370	16094	69.8412	1.4083
371	7719	78.97338	1.5898
371	8075	77.55783	1.5607
371	8460	76.45442	1.539
371	8917	74.86464	1.5099
371	11844	72.5199	1.4664
371	16410	69.3113	1.401
372	7825	78.43619	1.5825
372	8198	77.28923	1.5607
372	8601	75.94627	1.5317
372	9073	74.56701	1.5027
372	12081	71.7795	1.4518
372	16724	69.079	1.3938
373	7931	77.94257	1.568
373	8321	76.92627	1.5535
373	8740	76.41812	1.539
373	9230	74.02983	1.4954
373	12318	72.3239	1.4591
373	17037	69.0355	1.3938
374	8039	79.01693	1.5898
374	8445	77.80464	1.568
374	8878	77.52153	1.5607
374	9389	74.38553	1.5027
374	12556	73.35472	1.4809
374	17355	69.9356	1.4083
375	8147	78.2039	1.5753
375	8567	75.61235	1.5244
375	9016	76.25116	1.539
375	9544	73.41279	1.4809
375	12795	71.5544	1.4446
375	17669	69.5799	1.401
376	8254	77.49975	1.5607
376	8690	75.6922	1.5244
376	9155	75.06064	1.5172
376	9701	73.08613	1.4736
376	13033	71.5326	1.4446
376	17984	69.1589	1.3938
377	8362	78.12405	1.5753
377	8813	76.8682	1.5462
377	9295	76.6722	1.5462
377	9858	74.31294	1.4954
377	13272	72.67235	1.4664
377	18301	69.6743	1.4083
378	8469	77.7756	1.568
378	8937	76.49797	1.539
378	9437	77.00612	1.5535
378	10018	74.82835	1.5099
378	13511	71.9755	1.4518
378	18619	69.863	1.4083
379	8575	76.75931	1.5462
379	9060	75.82286	1.5317
379	9576	76.41812	1.539
379	10174	74.56701	1.5027
379	13747	71.8666	1.4518
379	18935	70.1389	1.4156
380	8683	76.61412	1.5462
380	9183	75.6922	1.5244
380	9715	75.59783	1.5244
380	10331	73.34746	1.4809
380	13988	71.5472	1.4446
381	8790	77.44168	1.5607
381	9306	77.28197	1.5607
381	9856	75.2639	1.5172
381	10492	73.89916	1.4881
381	14227	72.0408	1.4518
382	8897	78.40716	1.5825
382	9432	76.91901	1.5535
382	9996	76.48346	1.539
382	10651	74.52346	1.5027
382	14466	72.97724	1.4736
383	9005	77.32553	1.5607
383	9553	75.96805	1.5317
383	10136	75.35101	1.5172
383	10808	74.43635	1.5027
383	14706	72.4038	1.4591
384	9112	76.5996	1.5462
384	9679	76.51249	1.5462
384	10277	75.33649	1.5172
384	10967	74.59605	1.5027
384	14944	71.9319	1.4518
385	9219	77.25294	1.5607
385	9804	75.81561	1.5317
385	10418	76.15679	1.539
385	11125	74.06613	1.4954
385	15188	72.2586	1.4591
386	9326	78.27649	1.5753
386	9929	76.34553	1.539
386	10558	76.5996	1.5462
386	11283	75.15501	1.5172
386	15426	73.47087	1.4809
387	9434	77.15857	1.5535
387	10051	76.60686	1.5462
387	10699	76.13501	1.5317
387	11442	74.88642	1.5099
387	15666	72.65783	1.4664
388	9540	76.31649	1.539
388	10174	74.85738	1.5099
388	10840	75.56879	1.5244
388	11602	73.36924	1.4809
388	15904	71.1915	1.4373
389	9649	77.31101	1.5607
389	10296	75.86642	1.5317
389	10980	76.70849	1.5462
389	11761	73.84109	1.4881
389	16147	71.6125	1.4446
390	9756	77.57234	1.5607
390	10421	77.30375	1.5607
390	11124	76.87546	1.5535
390	11922	75.01709	1.5099
390	16388	72.1932	1.4591
391	9862	77.20938	1.5535
391	10547	76.53427	1.5462
391	11263	76.49797	1.539
391	12081	74.95901	1.5099
391	16627	71.794	1.4518
392	9969	77.39812	1.5607
392	10670	75.59057	1.5244
392	11403	75.77205	1.5244
392	12239	73.57976	1.4809
392	16868	71.2132	1.4373
393	10077	78.13131	1.5753
393	10795	76.57057	1.5462
393	11546	75.6559	1.5244
393	12400	74.26213	1.4954
393	17110	71.4746	1.4446
394	10185	78.08775	1.5753
394	10920	77.1876	1.5535
394	11688	76.5996	1.5462
394	12560	75.24212	1.5172
394	17351	71.823	1.4518
395	10292	77.53605	1.5607
395	11045	76.74479	1.5462
395	11829	75.92449	1.5317
395	12720	73.8919	1.4881
395	17590	71.6706	1.4446
396	10400	77.68123	1.568
396	11168	76.84642	1.5462
396	11972	76.15679	1.539
396	12880	73.77576	1.4881
396	17831	71.1552	1.4373
397	10508	78.41442	1.5825
397	11292	76.05516	1.5317
397	12113	76.39635	1.539
397	13040	74.3565	1.5027
397	18073	71.1769	1.4373
398	10616	78.25471	1.5753
398	11415	76.66494	1.5462
398	12256	75.91723	1.5317
398	13199	74.80657	1.5099
398	18315	72.4328	1.4591
399	10723	77.15857	1.5535
399	11538	76.80286	1.5462
399	12395	76.52701	1.5462
399	13361	74.08064	1.4954
399	18556	72.1061	1.4518

System: difluoromethane + pentafluoroethane; phases: Fluid (supercritical or subcritical phases)
Fixed: Mass fraction of pentafluoroethane = 0.500134
Property: Mass density, kg/m3 (Fluid (supercritical or subcritical phases)); method: ISOCHOR
Temperature, K	Pressure, kPa	Mass density, kg/m3	uncertainty
301	4414	1071.2	2.2
302	4977	1071	2.2
303	5537	1070.9	2.2
303	5540	1070.9	2.2
304	6101	1070.8	2.2
304	6103	1070.8	2.2
305	6663	1070.6	2.2
305	6663	1070.6	2.2
306	7227	1070.5	2.2
306	7228	1070.5	2.2
307	7791	1070.4	2.2
307	7792	1070.4	2.2
308	8356	1070.2	2.2
308	8357	1070.2	2.2
309	8918	1070.1	2.2
309	8918	1070.1	2.2
310	9482	1070	2.2
310	9484	1070	2.2
311	10048	1069.8	2.2
311	10049	1069.8	2.2
312	10614	1069.7	2.2
312	10615	1069.7	2.2
313	11178	1069.6	2.2
313	11179	1069.6	2.2
314	11741	1069.4	2.2
314	11743	1069.4	2.2
315	12309	1069.3	2.2
315	12309	1069.3	2.2
316	12875	1069.2	2.2
316	12877	1069.2	2.2
317	13440	1069	2.2
317	13440	1069	2.2
318	14003	1068.9	2.2
318	14005	1068.9	2.2
319	14570	1068.8	2.2
319	14571	1068.8	2.2
320	15135	1068.6	2.2
320	15137	1068.6	2.2
321	15700	1068.5	2.2
321	15701	1068.5	2.2
322	16263	1068.4	2.2
322	16265	1068.4	2.2
323	16830	1068.2	2.2
323	16830	1068.2	2.2
324	17394	1068.1	2.2
324	17396	1068.1	2.2
325	5448	946.2	2
325	17959	1068	2.2
325	17961	1068	2.2
326	5835	946.1	1.9
326	5836	946.1	1.9
326	18524	1067.8	2.2
326	18525	1067.8	2.2
327	6224	946	1.9
327	6225	946	1.9
327	19088	1067.7	2.2
327	19090	1067.7	2.2
328	6615	945.9	1.9
328	6616	945.9	1.9
328	19652	1067.6	2.2
328	19655	1067.6	2.2
329	7006	945.8	1.9
329	7007	945.8	1.9
330	7397	945.7	1.9
330	7399	945.7	1.9
331	7788	945.6	1.9
331	7790	945.6	1.9
332	8183	945.5	1.9
332	8184	945.5	1.9
333	8579	945.4	1.9
333	8579	945.4	1.9
334	8970	945.4	1.9
334	8971	945.4	1.9
335	9364	945.3	1.9
335	9364	945.3	1.9
336	9759	945.2	1.9
336	9759	945.2	1.9
337	10156	945.1	1.9
337	10157	945.1	1.9
338	6179	859.9	1.8
338	10552	945	1.9
338	10553	945	1.9
339	6478	859.9	1.8
339	10948	944.9	1.9
339	10948	944.9	1.9
340	6782	859.8	1.8
340	11344	944.8	1.9
340	11346	944.8	1.9
341	7089	859.7	1.7
341	11743	944.7	1.9
341	11745	944.7	1.9
342	7389	859.6	1.8
342	12139	944.6	1.9
342	12142	944.6	1.9
343	7693	859.6	1.8
343	12536	944.5	1.9
343	12538	944.5	1.9
344	7998	859.5	1.7
344	12935	944.4	1.9
344	12936	944.4	1.9
345	8306	859.4	1.7
345	13334	944.3	1.9
346	8612	859.3	1.7
346	13733	944.2	1.9
347	6281	761.1	1.6
347	8917	859.3	1.7
347	14131	944.1	1.9
348	6505	761.1	1.7
348	9225	859.2	1.7
348	14528	944	1.9
349	5380	475.9	2.4
349	6732	761	1.6
349	9535	859.1	1.7
349	14929	943.9	1.9
350	5486	475.9	3.4
350	5543	525.9	2.6
350	5720	615	2.5
350	6957	761	1.6
350	9844	859	1.7
350	15331	943.8	1.9
351	5591	475.9	3.1
351	5661	525.9	2.3
351	5866	615	2.1
351	7184	760.9	1.6
351	10153	859	1.7
351	15729	943.7	1.9
352	5697	475.9	2.7
352	5778	525.9	2.3
352	5877	571.5	2
352	6013	615	1.9
352	7411	760.8	1.6
352	10462	858.9	1.7
352	16128	943.6	1.9
353	5802	475.9	2.3
353	5898	525.9	2.2
353	6010	571.5	1.9
353	6163	615	1.8
353	7640	760.8	1.6
353	10771	858.8	1.7
353	16529	943.5	1.9
354	5907	475.9	2.1
354	6017	525.8	2
354	6144	571.4	1.8
354	6312	614.9	1.7
354	7867	760.7	1.6
354	11082	858.7	1.7
354	16929	943.4	1.9
355	6013	475.9	1.9
355	6136	525.8	1.8
355	6277	571.4	1.7
355	6460	614.9	1.6
355	8099	760.7	1.6
355	11393	858.7	1.7
355	17330	943.3	1.9
356	6119	475.9	1.8
356	6256	525.8	1.8
356	6409	571.4	1.6
356	6610	614.9	1.4
356	8331	760.6	1.6
356	11703	858.6	1.7
356	17728	943.3	1.9
357	6227	475.9	1.7
357	6375	525.8	1.7
357	6544	571.4	1.5
357	6762	614.8	1.4
357	8563	760.6	1.6
357	12015	858.5	1.7
357	18129	943.2	1.9
358	6332	475.9	1.6
358	6496	525.8	1.5
358	6679	571.3	1.5
358	6913	614.8	1.4
358	8795	760.5	1.6
358	12328	858.4	1.7
358	18529	943.1	1.9
359	6438	475.9	1.5
359	6616	525.8	1.5
359	6814	571.3	1.5
359	7064	614.8	1.5
359	9028	760.4	1.6
359	12639	858.4	1.7
359	18928	943	1.9
360	6544	475.9	1.4
360	6737	525.8	1.4
360	6948	571.3	1.4
360	7219	614.7	1.4
360	9258	760.4	1.6
360	12952	858.3	1.7
361	6650	475.8	1.4
361	6858	525.7	1.4
361	7085	571.3	1.4
361	7368	614.7	1.4
361	9493	760.3	1.6
361	13265	858.2	1.7
362	6758	475.8	1.3
362	6980	525.7	1.4
362	7222	571.2	1.4
362	7523	614.7	1.4
362	9726	760.3	1.6
362	13581	858.1	1.7
363	6864	475.8	1.3
363	7101	525.7	1.3
363	7357	571.2	1.4
363	7676	614.6	1.4
363	9958	760.2	1.6
363	13894	858.1	1.7
364	6970	475.8	1.3
364	7223	525.7	1.3
364	7494	571.2	1.3
364	7828	614.6	1.4
364	10192	760.2	1.6
364	14207	858	1.7
365	7077	475.8	1.2
365	7344	525.7	1.3
365	7632	571.2	1.3
365	7982	614.6	1.3
365	10427	760.1	1.6
365	14520	857.9	1.7
366	7184	475.8	1.2
366	7465	525.6	1.2
366	7771	571.1	1.3
366	8137	614.5	1.3
366	10664	760	1.6
366	14835	857.8	1.7
367	7291	475.8	1.2
367	7587	525.6	1.2
367	7907	571.1	1.3
367	8294	614.5	1.3
367	10900	760	1.6
367	15148	857.7	1.7
368	7397	475.8	1.2
368	7708	525.6	1.2
368	8044	571.1	1.3
368	8449	614.5	1.3
368	11133	759.9	1.6
368	15462	857.7	1.7
369	7504	475.7	1.2
369	7831	525.6	1.2
369	8183	571	1.3
369	8605	614.4	1.3
369	11369	759.9	1.6
369	15777	857.6	1.7
370	7612	475.7	1.1
370	7953	525.5	1.2
370	8323	571	1.3
370	8762	614.4	1.3
370	11608	759.8	1.5
370	16094	857.5	1.7
371	7719	475.7	1.1
371	8075	525.5	1.2
371	8460	571	1.2
371	8917	614.3	1.3
371	11844	759.7	1.5
371	16410	857.4	1.7
372	7825	475.7	1.1
372	8198	525.5	1.2
372	8601	571	1.2
372	9073	614.3	1.3
372	12081	759.7	1.5
372	16724	857.4	1.7
373	7931	475.7	1.1
373	8321	525.5	1.2
373	8740	570.9	1.2
373	9230	614.3	1.3
373	12318	759.6	1.5
373	17037	857.3	1.7
374	8039	475.6	1.1
374	8445	525.4	1.2
374	8878	570.9	1.2
374	9389	614.2	1.3
374	12556	759.6	1.5
374	17355	857.2	1.7
375	8147	475.6	1.1
375	8567	525.4	1.2
375	9016	570.9	1.2
375	9544	614.2	1.3
375	12795	759.5	1.5
375	17669	857.1	1.7
376	8254	475.6	1.1
376	8690	525.4	1.1
376	9155	570.8	1.2
376	9701	614.2	1.3
376	13033	759.5	1.5
376	17984	857.1	1.7
377	8362	475.6	1.1
377	8813	525.4	1.1
377	9295	570.8	1.2
377	9858	614.1	1.3
377	13272	759.4	1.5
377	18301	857	1.7
378	8469	475.6	1.1
378	8937	525.3	1.1
378	9437	570.8	1.2
378	10018	614.1	1.3
378	13511	759.3	1.5
378	18619	856.9	1.7
379	8575	475.5	1.1
379	9060	525.3	1.1
379	9576	570.7	1.2
379	10174	614	1.3
379	13747	759.3	1.5
379	18935	856.8	1.7
380	8683	475.5	1
380	9183	525.3	1.1
380	9715	570.7	1.2
380	10331	614	1.3
380	13988	759.2	1.5
381	8790	475.5	1
381	9306	525.2	1.1
381	9856	570.7	1.2
381	10492	614	1.3
381	14227	759.2	1.5
382	8897	475.5	1
382	9432	525.2	1.1
382	9996	570.6	1.2
382	10651	613.9	1.3
382	14466	759.1	1.5
383	9005	475.4	1
383	9553	525.2	1.1
383	10136	570.6	1.2
383	10808	613.9	1.3
383	14706	759	1.5
384	9112	475.4	1
384	9679	525.2	1.1
384	10277	570.6	1.2
384	10967	613.8	1.3
384	14944	759	1.5
385	9219	475.4	1
385	9804	525.1	1.1
385	10418	570.5	1.2
385	11125	613.8	1.3
385	15188	758.9	1.5
386	9326	475.4	1
386	9929	525.1	1.1
386	10558	570.5	1.2
386	11283	613.8	1.3
386	15426	758.9	1.5
387	9434	475.3	1
387	10051	525.1	1.1
387	10699	570.5	1.2
387	11442	613.7	1.3
387	15666	758.8	1.5
388	9540	475.3	1
388	10174	525	1.1
388	10840	570.4	1.2
388	11602	613.7	1.3
388	15904	758.7	1.5
389	9649	475.3	1
389	10296	525	1.1
389	10980	570.4	1.2
389	11761	613.6	1.3
389	16147	758.7	1.5
390	9756	475.3	1
390	10421	525	1.1
390	11124	570.3	1.2
390	11922	613.6	1.3
390	16388	758.6	1.5
391	9862	475.2	1
391	10547	524.9	1.1
391	11263	570.3	1.2
391	12081	613.6	1.3
391	16627	758.6	1.5
392	9969	475.2	1
392	10670	524.9	1.1
392	11403	570.3	1.2
392	12239	613.5	1.3
392	16868	758.5	1.5
393	10077	475.2	1
393	10795	524.9	1.1
393	11546	570.2	1.2
393	12400	613.5	1.3
393	17110	758.4	1.5
394	10185	475.2	1
394	10920	524.9	1.1
394	11688	570.2	1.2
394	12560	613.4	1.3
394	17351	758.4	1.5
395	10292	475.1	1
395	11045	524.8	1.1
395	11829	570.2	1.2
395	12720	613.4	1.3
395	17590	758.3	1.5
396	10400	475.1	1
396	11168	524.8	1.1
396	11972	570.1	1.2
396	12880	613.4	1.3
396	17831	758.3	1.5
397	10508	475.1	1
397	11292	524.8	1.1
397	12113	570.1	1.2
397	13040	613.3	1.3
397	18073	758.2	1.5
398	10616	475	1
398	11415	524.7	1.1
398	12256	570.1	1.2
398	13199	613.3	1.3
398	18315	758.1	1.5
399	10723	475	1
399	11538	524.7	1.1
399	12395	570	1.2
399	13361	613.2	1.3
399	18556	758.1	1.5
