Measured thermophysical data. Measurement and Prediction of Thermochemical Properties: Improved Increments for the Estimation of Enthalpies of Sublimation and Standard Enthalpies of Formation of Alkyl Derivatives of Urea
Source: J. Chem. Eng. Data, 2006, 10.1021/je050230z
Compound 1: urea, CH4N2O, InChI=1S/CH4N2O/c2-1(3)4/h(H4,2,3,4)
Compound 2: methylurea, C2H6N2O, InChI=1S/C2H6N2O/c1-4-2(3)5/h1H3,(H3,3,4,5)
Compound 3: N-propylurea, C4H10N2O, InChI=1S/C4H10N2O/c1-2-3-6-4(5)7/h2-3H2,1H3,(H3,5,6,7)
Compound 4: N-butylurea, C5H12N2O, InChI=1S/C5H12N2O/c1-2-3-4-7-5(6)8/h2-4H2,1H3,(H3,6,7,8)
Compound 5: (1-methylpropyl)urea, C5H12N2O, InChI=1S/C5H12N2O/c1-3-4(2)7-5(6)8/h4H,3H2,1-2H3,(H3,6,7,8)
Compound 6: N-(1,1-dimethylethyl)urea, C5H12N2O, InChI=1S/C5H12N2O/c1-5(2,3)7-4(6)8/h1-3H3,(H3,6,7,8)
Compound 7: N,N-dimethylurea, C3H8N2O, InChI=1S/C3H8N2O/c1-5(2)3(4)6/h1-2H3,(H2,4,6)
Compound 8: 1,1-diethylurea, C5H12N2O, InChI=1S/C5H12N2O/c1-3-7(4-2)5(6)8/h3-4H2,1-2H3,(H2,6,8)
Compound 9: 1,3-dimethylurea, C3H8N2O, InChI=1S/C3H8N2O/c1-4-3(6)5-2/h1-2H3,(H2,4,5,6)
Compound 10: 1,3-diethylurea, C5H12N2O, InChI=1S/C5H12N2O/c1-3-6-5(8)7-4-2/h3-4H2,1-2H3,(H2,6,7,8)

System: urea; phases: Crystal, Gas
Property: Vapor or sublimation pressure, kPa (Crystal); method: Transpiration method
Temperature, K	Vapor or sublimation pressure, kPa	uncertainty
358.3	0.00064	3e-05
363.4	0.001	5e-05
368.4	0.00151	8e-05
371.2	0.00189	9e-05
374.3	0.00246	0.00012
376.5	0.00296	0.00015
379.5	0.0038	0.00019
386.3	0.00627	0.00031
393.2	0.01036	0.00052
399	0.01559	0.00078
402	0.01931	0.00097

System: methylurea; phases: Crystal, Gas
Property: Vapor or sublimation pressure, kPa (Crystal); method: Transpiration method
Temperature, K	Vapor or sublimation pressure, kPa	uncertainty
333.1	0.0004	2e-05
338.1	0.00064	3e-05
342.7	0.001	5e-05
346.1	0.0014	7e-05
349.2	0.00192	0.0001
352.2	0.00252	0.00013
356.2	0.00356	0.00018
359.6	0.00474	0.00024
362.7	0.00612	0.00031
365.7	0.00803	0.0004
365.7	0.00815	0.00041

System: N-propylurea; phases: Crystal, Gas
Property: Vapor or sublimation pressure, kPa (Crystal); method: Transpiration method
Temperature, K	Vapor or sublimation pressure, kPa	uncertainty
333.2	0.00019	1e-05
337.4	0.0003	2e-05
342.2	0.00047	2e-05
345.7	0.00072	4e-05
346.1	0.00074	4e-05
348.7	0.00094	5e-05
349.2	0.00099	5e-05
350.2	0.00108	5e-05
354.1	0.00158	8e-05
355.2	0.00176	9e-05
357.3	0.00217	0.00011

System: N-butylurea; phases: Crystal, Gas
Property: Vapor or sublimation pressure, kPa (Crystal); method: Transpiration method
Temperature, K	Vapor or sublimation pressure, kPa	uncertainty
346.3	0.00043	2e-05
349.5	0.00059	3e-05
352.5	0.00081	4e-05
352.5	0.0008	4e-05
356.5	0.0012	6e-05
359.9	0.00169	8e-05
363	0.00221	0.00011
363.1	0.0022	0.00011
364.9	0.00257	0.00013
367.2	0.00327	0.00016

System: (1-methylpropyl)urea; phases: Crystal, Gas
Property: Vapor or sublimation pressure, kPa (Crystal); method: TRANSPIR:UFactor:1.5
Temperature, K	Vapor or sublimation pressure, kPa	uncertainty
344.9	0.00026	2e-05
348.2	0.00038	3e-05
350.2	0.00045	3e-05
351.6	0.00053	4e-05
351.6	0.00048	4e-05
356.4	0.00081	6e-05
359	0.00106	8e-05
360.6	0.00115	9e-05
361.9	0.00143	0.00011
363.2	0.00155	0.00012
366.6	0.00215	0.00016
369.7	0.00254	0.00019
370.9	0.00311	0.00023
373.1	0.00366	0.00027
375.4	0.00466	0.00035
376.4	0.00493	0.00037
379.9	0.00653	0.00049
381.7	0.00776	0.00058
383.2	0.00847	0.00064
385.4	0.01043	0.00078
387	0.01146	0.00086
390.8	0.01522	0.00114
393.6	0.01956	0.00147

System: N-(1,1-dimethylethyl)urea; phases: Crystal, Gas
Property: Vapor or sublimation pressure, kPa (Crystal); method: TRANSPIR:UFactor:1.5
Temperature, K	Vapor or sublimation pressure, kPa	uncertainty
335.3	0.00027	2e-05
340.3	0.00051	4e-05
348.2	0.00104	8e-05
357	0.00235	0.00018
360.2	0.00315	0.00024
363.1	0.00419	0.00031
366	0.00523	0.00039
369.1	0.00702	0.00053
372.2	0.00874	0.00066
376.1	0.01188	0.00089
379.2	0.01635	0.00123
382.2	0.0202	0.00152
385.2	0.02502	0.00188
388.2	0.0322	0.00242
391.2	0.04148	0.00311
394.2	0.05011	0.00376
397.2	0.06441	0.00483

System: N,N-dimethylurea; phases: Crystal, Gas
Property: Vapor or sublimation pressure, kPa (Crystal); method: Transpiration method
Temperature, K	Vapor or sublimation pressure, kPa	uncertainty
346.3	0.00314	0.00016
356.1	0.00753	0.00038
362.2	0.01256	0.00063
365.2	0.01662	0.00083
368.1	0.02055	0.00103
371.2	0.02735	0.00137
374.2	0.03444	0.00172
377.2	0.04328	0.00217
380.2	0.05427	0.00272
383.3	0.06739	0.00337
386.3	0.08651	0.00433
389.3	0.10595	0.0053
392.2	0.13009	0.00651
395.2	0.15923	0.00797
398.3	0.19768	0.00989

System: 1,1-diethylurea; phases: Crystal, Gas
Property: Vapor or sublimation pressure, kPa (Crystal); method: Transpiration method
Temperature, K	Vapor or sublimation pressure, kPa	uncertainty
312.2	0.00062	3e-05
313.1	0.00068	3e-05
315.2	0.00088	4e-05
316.7	0.00106	5e-05
320.1	0.0015	8e-05
320.2	0.0015	8e-05
324.2	0.00228	0.00011
326.2	0.0029	0.00015
328.2	0.00353	0.00018
329.2	0.00389	0.00019
330.2	0.00453	0.00023
333	0.0061	0.00031
336.7	0.00894	0.00045
339.1	0.01154	0.00058

System: 1,3-dimethylurea; phases: Crystal, Gas
Property: Vapor or sublimation pressure, kPa (Crystal); method: Transpiration method
Temperature, K	Vapor or sublimation pressure, kPa	uncertainty
313.3	0.00019	1e-05
322.9	0.00051	3e-05
326.9	0.00077	4e-05
330.9	0.00119	6e-05
335	0.00175	9e-05
339	0.00242	0.00012
343.2	0.00368	0.00018
347.3	0.00532	0.00027
351.4	0.00738	0.00037
354.6	0.00966	0.00048
357.7	0.01273	0.00064

System: 1,3-diethylurea; phases: Crystal, Gas
Property: Vapor or sublimation pressure, kPa (Crystal); method: Transpiration method
Temperature, K	Vapor or sublimation pressure, kPa	uncertainty
343.1	0.00205	0.0001
346.2	0.0027	0.00014
349.2	0.00353	0.00018
352.3	0.00476	0.00024
355.2	0.00617	0.00031
358.2	0.00783	0.00039
359.6	0.0085	0.00043
361.2	0.01028	0.00051
364.2	0.01322	0.00066
365.7	0.01474	0.00074
367.2	0.01652	0.00083
370.1	0.02108	0.00105
373.2	0.02776	0.00139
374.6	0.03023	0.00151
376.2	0.03461	0.00173
379.2	0.04348	0.00218
