Measured thermophysical data. Speeds of Sound, Densities, and Isentropic Compressibilities of 1-Iodohexane at Temperatures from (293.15 to 413.15) K and Pressures up to 200 MPa
Source: J. Chem. Eng. Data, 2005, 10.1021/je050069s
Compound 1: 1-iodohexane, C6H13I, InChI=1S/C6H13I/c1-2-3-4-5-6-7/h2-6H2,1H3, purity 99%

System: 1-iodohexane; phases: Liquid
Property: Speed of sound, m/s (Liquid); method: Pulse-echo method
Temperature, K	Pressure, kPa	Speed of sound, m/s	uncertainty
293.15	100	1045.5	4.3
293.15	5000	1064.5	4.4
293.15	10000	1082	4.5
293.15	20000	1113.9	4.6
293.15	30000	1144.3	4.7
293.15	40000	1172.4	4.8
293.15	50000	1198.8	4.9
293.15	60000	1224.5	5
293.15	70000	1248.5	5.1
293.15	80000	1272.5	5.2
293.15	90000	1295.5	5.3
293.15	100000	1318	5.4
293.15	110000	1339.6	5.5
293.15	120000	1361.6	5.6
293.15	130000	1383.8	5.7
293.15	140000	1403	5.7
293.15	150000	1422.2	5.8
293.15	160000	1441	5.9
293.15	170000	1458.3	6
293.15	180000	1473.8	6
293.15	190000	1486.4	6.1
293.15	200000	1498.6	6.1
313.15	100	989.2	4.1
313.15	5000	1008.1	4.2
313.15	10000	1026.8	4.3
313.15	20000	1061.9	4.4
313.15	30000	1094.5	4.5
313.15	40000	1124.9	4.6
313.15	50000	1153.5	4.8
313.15	60000	1180.6	4.9
313.15	70000	1206.3	5
313.15	80000	1231	5.1
313.15	90000	1254.8	5.2
313.15	100000	1277.7	5.2
313.15	110000	1300	5.3
313.15	120000	1321.6	5.4
313.15	130000	1342.6	5.5
313.15	140000	1363	5.6
313.15	150000	1382.7	5.7
313.15	160000	1401.6	5.7
313.15	170000	1419.6	5.8
313.15	180000	1436.5	5.9
313.15	190000	1452	5.9
313.15	200000	1466	6
333.15	100	934.2	3.9
333.15	5000	954.9	4
333.15	10000	974.8	4.1
333.15	20000	1012.2	4.2
333.15	30000	1046.7	4.3
333.15	40000	1078.7	4.5
333.15	50000	1108.8	4.6
333.15	60000	1137	4.7
333.15	70000	1163.8	4.8
333.15	80000	1189.4	4.9
333.15	90000	1214	5
333.15	100000	1237.7	5.1
333.15	110000	1260.6	5.2
333.15	120000	1282.9	5.3
333.15	130000	1304.5	5.3
333.15	140000	1325.5	5.4
333.15	150000	1345.8	5.5
333.15	160000	1365.3	5.6
333.15	170000	1383.9	5.7
333.15	180000	1401.5	5.7
333.15	190000	1417.7	5.8
333.15	200000	1432.3	5.9
353.15	100	880.5	3.7
353.15	5000	901.4	3.8
353.15	10000	922.9	3.9
353.15	20000	963.3	4
353.15	30000	1000.4	4.2
353.15	40000	1034.7	4.3
353.15	50000	1066.6	4.4
353.15	60000	1096.4	4.5
353.15	70000	1124.4	4.6
353.15	80000	1151	4.7
353.15	90000	1176.3	4.8
353.15	100000	1200.6	4.9
353.15	110000	1224.1	5
353.15	120000	1246.8	5.1
353.15	130000	1268.9	5.2
353.15	140000	1290.4	5.3
353.15	150000	1311.4	5.4
353.15	160000	1331.8	5.5
353.15	170000	1351.7	5.5
353.15	180000	1370.8	5.6
353.15	190000	1389.1	5.7
353.15	200000	1406.5	5.8
373.15	100	828	3.5
373.15	5000	849.1	3.6
373.15	10000	872.1	3.7
373.15	20000	915.3	3.8
373.15	30000	955.2	4
373.15	40000	992	4.1
373.15	50000	1026.1	4.3
373.15	60000	1057.9	4.4
373.15	70000	1087.6	4.5
373.15	80000	1115.5	4.6
373.15	90000	1141.9	4.7
373.15	100000	1166.9	4.8
373.15	110000	1190.8	4.9
373.15	120000	1213.8	5
373.15	130000	1236	5.1
373.15	140000	1257.4	5.2
373.15	150000	1278.2	5.2
373.15	160000	1298.6	5.3
373.15	170000	1318.3	5.4
373.15	180000	1337.6	5.5
373.15	190000	1356.4	5.6
373.15	200000	1374.6	5.6
393.15	100	776.7	3.3
393.15	5000	802.4	3.4
393.15	10000	827.2	3.5
393.15	20000	873.1	3.7
393.15	30000	914.8	3.8
393.15	40000	959.9	4
393.15	50000	988	4.1
393.15	60000	1020.6	4.2
393.15	70000	1051.2	4.4
393.15	80000	1080.1	4.5
393.15	90000	1107.6	4.6
393.15	100000	1133.9	4.7
393.15	110000	1159.1	4.8
393.15	120000	1183.3	4.9
393.15	130000	1206.4	5
393.15	140000	1228.7	5
393.15	150000	1249	5.1
393.15	160000	1267.9	5.2
393.15	170000	1292.2	5.3
393.15	180000	1307.3	5.4
393.15	190000	1327.4	5.4
393.15	200000	1342.7	5.5
413.15	100	725.6	3.1
413.15	5000	753.2	3.2
413.15	10000	779.8	3.3
413.15	20000	828.6	3.5
413.15	30000	872.6	3.7
413.15	40000	912.5	3.8
413.15	50000	949.2	4
413.15	60000	983.3	4.1
413.15	70000	1015.2	4.2
413.15	80000	1045.3	4.3
413.15	90000	1073.9	4.4
413.15	100000	1101	4.5
413.15	110000	1126.6	4.6
413.15	120000	1152.7	4.8
413.15	130000	1177.1	4.8
413.15	140000	1200.6	4.9
413.15	150000	1223.2	5
413.15	160000	1244.7	5.1
413.15	170000	1266	5.2
413.15	180000	1283.2	5.3
413.15	190000	1298.6	5.3
413.15	200000	1314.1	5.4

System: 1-iodohexane; phases: Liquid
Property: Mass density, kg/m3 (Liquid); method: acoustic piezometer
Temperature, K	Pressure, kPa	Mass density, kg/m3	uncertainty
293.15	100	1437.2	8.7
293.15	5000	1443.5	8.7
293.15	10000	1448	8.7
293.15	20000	1457.8	8.8
293.15	30000	1466.8	8.8
293.15	40000	1475	8.9
293.15	50000	1483.5	8.9
293.15	60000	1491	9
293.15	70000	1498.5	9
293.15	80000	1505.3	9.1
293.15	90000	1512.4	9.1
293.15	100000	1519.2	9.1
293.15	110000	1525.9	9.2
293.15	120000	1532	9.2
293.15	130000	1538	9.3
293.15	140000	1544.4	9.3
293.15	150000	1550.1	9.3
293.15	160000	1556	9.4
293.15	170000	1561.1	9.4
293.15	180000	1566.5	9.4
293.15	190000	1571.3	9.5
293.15	200000	1576	9.5
313.15	100	1410.4	8.5
313.15	5000	1418.1	8.5
313.15	10000	1423.2	8.6
313.15	20000	1434.5	8.6
313.15	30000	1445	8.7
313.15	40000	1454.8	8.8
313.15	50000	1464	8.8
313.15	60000	1472.7	8.9
313.15	70000	1480.9	8.9
313.15	80000	1488.7	9
313.15	90000	1496.1	9
313.15	100000	1503.2	9.1
313.15	110000	1509.9	9.1
313.15	120000	1516.4	9.1
313.15	130000	1522.6	9.2
313.15	140000	1528.5	9.2
313.15	150000	1534.3	9.2
313.15	160000	1539.8	9.3
313.15	170000	1545.1	9.3
313.15	180000	1550.3	9.3
313.15	190000	1555.2	9.4
313.15	200000	1560.1	9.4
333.15	100	1383.6	8.3
333.15	5000	1391	8.4
333.15	10000	1397	8.4
333.15	20000	1408.8	8.5
333.15	30000	1420	8.6
333.15	40000	1430.8	8.6
333.15	50000	1440.1	8.7
333.15	60000	1449.1	8.7
333.15	70000	1457.5	8.8
333.15	80000	1466.2	8.8
333.15	90000	1474.3	8.9
333.15	100000	1482.2	8.9
333.15	110000	1490	9
333.15	120000	1496.6	9
333.15	130000	1503.8	9.1
333.15	140000	1510	9.1
333.15	150000	1516.4	9.1
333.15	160000	1522.5	9.2
333.15	170000	1528.5	9.2
333.15	180000	1534.5	9.2
333.15	190000	1539.6	9.3
333.15	200000	1544.9	9.3
353.15	100	1356.7	8.2
353.15	5000	1365.6	8.2
353.15	10000	1372.3	8.3
353.15	20000	1386.1	8.3
353.15	30000	1398.7	8.4
353.15	40000	1410.4	8.5
353.15	50000	1421.3	8.6
353.15	60000	1431.4	8.6
353.15	70000	1440.9	8.7
353.15	80000	1449.9	8.7
353.15	90000	1458.3	8.8
353.15	100000	1466.3	8.8
353.15	110000	1474	8.9
353.15	120000	1481.2	8.9
353.15	130000	1488.1	9
353.15	140000	1494.7	9
353.15	150000	1501.1	9
353.15	160000	1507.1	9.1
353.15	170000	1513	9.1
353.15	180000	1518.6	9.1
353.15	190000	1524	9.2
353.15	200000	1529.3	9.2
373.15	100	1329.7	8
373.15	5000	1339	8.1
373.15	10000	1346.1	8.1
373.15	20000	1361.1	8.2
373.15	30000	1375	8.3
373.15	40000	1386.4	8.3
373.15	50000	1398.1	8.4
373.15	60000	1409	8.5
373.15	70000	1418.3	8.5
373.15	80000	1429.2	8.6
373.15	90000	1438	8.7
373.15	100000	1446.8	8.7
373.15	110000	1455.1	8.8
373.15	120000	1462.8	8.8
373.15	130000	1470	8.9
373.15	140000	1477.1	8.9
373.15	150000	1483.8	8.9
373.15	160000	1490.8	9
373.15	170000	1497	9
373.15	180000	1503.1	9.1
373.15	190000	1509.3	9.1
373.15	200000	1515.6	9.1
393.15	100	1302	7.8
393.15	5000	1314.3	7.9
393.15	10000	1321.2	8
393.15	20000	1338.3	8.1
393.15	30000	1353.7	8.2
393.15	40000	1367.6	8.2
393.15	50000	1380.5	8.3
393.15	60000	1392.3	8.4
393.15	70000	1403.3	8.4
393.15	80000	1413.5	8.5
393.15	90000	1423.1	8.6
393.15	100000	1432.1	8.6
393.15	110000	1440.7	8.7
393.15	120000	1448.7	8.7
393.15	130000	1456.4	8.8
393.15	140000	1463.7	8.8
393.15	150000	1470.6	8.9
393.15	160000	1477.3	8.9
393.15	170000	1483.7	8.9
393.15	180000	1489.8	9
393.15	190000	1495.7	9
393.15	200000	1501.3	9
413.15	100	1274	7.7
413.15	5000	1286.3	7.7
413.15	10000	1295.7	7.8
413.15	20000	1314.7	7.9
413.15	30000	1331.7	8
413.15	40000	1346.9	8.1
413.15	50000	1360.8	8.2
413.15	60000	1373.6	8.3
413.15	70000	1385.4	8.3
413.15	80000	1396.3	8.4
413.15	90000	1406.5	8.5
413.15	100000	1416	8.5
413.15	110000	1425	8.6
413.15	120000	1433.5	8.6
413.15	130000	1441.6	8.7
413.15	140000	1449.2	8.7
413.15	150000	1456.5	8.8
413.15	160000	1463.4	8.8
413.15	170000	1470.1	8.9
413.15	180000	1476.4	8.9
413.15	190000	1482.5	8.9
413.15	200000	1488.4	9
