Measured thermophysical data. Thermochemistry of Ethyl 3-Oxobutanoate Revisited: Observance of a Non-Zero Enthalpy of Mixing between Tautomers and Its Effects on Enthalpies of Formation
Source: J. Chem. Eng. Data, 2005, 10.1021/je050179z
Compound 1: ethyl 3-oxobutanoate, C6H10O3, InChI=1S/C6H10O3/c1-3-9-6(8)4-5(2)7/h3-4H2,1-2H3
Compound 2: ethyl (Z)-3-hydroxybut-2-enoate, C6H10O3, InChI=1S/C6H10O3/c1-3-9-6(8)4-5(2)7/h4,7H,3H2,1-2H3/b5-4-

System: ethyl 3-oxobutanoate; phases: Liquid, Gas
Property: Molar enthalpy of vaporization or sublimation, kJ/mol (Liquid); method: Correlation gas chromatography
Temperature, K	Molar enthalpy of vaporization or sublimation, kJ/mol	uncertainty
298.15	61.6	4.6

System: ethyl (Z)-3-hydroxybut-2-enoate; phases: Liquid, Gas
Property: Molar enthalpy of vaporization or sublimation, kJ/mol (Liquid); method: Correlation gas chromatography
Temperature, K	Molar enthalpy of vaporization or sublimation, kJ/mol	uncertainty
298.15	54.7	2.9
