Measured thermophysical data. Surface tension of decane binary and ternary mixtures with eicosane, docosane and tetracosane
Source: J. Chem. Eng. Data, 2005, 10.1021/je050024r
Compound 1: docosane, C22H46, InChI=1S/C22H46/c1-3-5-7-9-11-13-15-17-19-21-22-20-18-16-14-12-10-8-6-4-2/h3-22H2,1-2H3
Compound 2: tetracosane, C24H50, InChI=1S/C24H50/c1-3-5-7-9-11-13-15-17-19-21-23-24-22-20-18-16-14-12-10-8-6-4-2/h3-24H2,1-2H3
Compound 3: decane, C10H22, InChI=1S/C10H22/c1-3-5-7-9-10-8-6-4-2/h3-10H2,1-2H3
Compound 4: eicosane, C20H42, InChI=1S/C20H42/c1-3-5-7-9-11-13-15-17-19-20-18-16-14-12-10-8-6-4-2/h3-20H2,1-2H3

System: docosane; phases: Liquid, Air at 1 atmosphere
Property: Surface tension liquid-gas, N/m (Liquid); method: Wilhelmy plate method
Temperature, K	Surface tension liquid-gas, N/m	uncertainty
323.15	0.02742	0.00038
333.15	0.0266	0.00037
343.15	0.02579	0.00036

System: tetracosane; phases: Liquid, Air at 1 atmosphere
Property: Surface tension liquid-gas, N/m (Liquid); method: Wilhelmy plate method
Temperature, K	Surface tension liquid-gas, N/m	uncertainty
333.15	0.02705	0.00038
343.15	0.02622	0.00037

System: decane; phases: Liquid, Air at 1 atmosphere
Property: Surface tension liquid-gas, N/m (Liquid); method: Wilhelmy plate method
Temperature, K	Surface tension liquid-gas, N/m	uncertainty
293.15	0.02409	0.00034
303.15	0.02329	0.00032
313.15	0.02233	0.00031
323.15	0.02143	0.0003
333.15	0.02054	0.00029
343.15	0.01966	0.00027

System: eicosane; phases: Liquid, Air at 1 atmosphere
Property: Surface tension liquid-gas, N/m (Liquid); method: Wilhelmy plate method
Temperature, K	Surface tension liquid-gas, N/m	uncertainty
313.15	0.02758	0.00038
323.15	0.02667	0.00037
333.15	0.02585	0.00036
343.15	0.02501	0.00035

System: eicosane + decane; phases: Liquid, Air at 1 atmosphere
Property: Surface tension liquid-gas, N/m (Liquid); method: Wilhelmy plate method
Mole fraction of eicosane	Temperature, K	Surface tension liquid-gas, N/m	uncertainty
0.2	293.15	0.02545	0.00035
0.2	303.15	0.02459	0.00034
0.2	313.15	0.0237	0.00033
0.2	323.15	0.02271	0.00032
0.2	333.15	0.02183	0.0003
0.2	343.15	0.02096	0.00029
0.4	303.15	0.02577	0.00036
0.4	313.15	0.02486	0.00035
0.4	323.15	0.02404	0.00034
0.4	333.15	0.02311	0.00032
0.4	343.15	0.02218	0.00031
0.499	303.15	0.02645	0.00037
0.499	313.15	0.0255	0.00036
0.499	323.15	0.02469	0.00034
0.499	333.15	0.0236	0.00033
0.499	343.15	0.0228	0.00032
0.6	313.15	0.026	0.00036
0.6	323.15	0.02525	0.00035
0.6	333.15	0.02434	0.00034
0.6	343.15	0.0236	0.00033
0.799	313.15	0.02713	0.00038
0.799	323.15	0.02616	0.00036
0.799	333.15	0.0254	0.00035
0.799	343.15	0.02453	0.00034

System: decane + docosane; phases: Liquid, Air at 1 atmosphere
Property: Surface tension liquid-gas, N/m (Liquid); method: Wilhelmy plate method
Mole fraction of docosane	Temperature, K	Surface tension liquid-gas, N/m	uncertainty
0.2	313.15	0.02339	0.00033
0.2	323.15	0.02267	0.00032
0.2	333.15	0.02213	0.00031
0.2	343.15	0.02151	0.0003
0.4	313.15	0.02536	0.00035
0.4	323.15	0.02429	0.00034
0.4	333.15	0.02349	0.00033
0.4	343.15	0.02287	0.00032
0.499	313.15	0.02608	0.00036
0.499	323.15	0.02501	0.00035
0.499	333.15	0.02418	0.00034
0.499	343.15	0.02339	0.00033
0.6	313.15	0.02667	0.00037
0.6	323.15	0.02557	0.00036
0.6	333.15	0.02478	0.00035
0.6	343.15	0.02394	0.00033
0.8	323.15	0.02668	0.00037
0.8	333.15	0.02605	0.00036
0.8	343.15	0.02522	0.00035

System: decane + tetracosane; phases: Liquid, Air at 1 atmosphere
Property: Surface tension liquid-gas, N/m (Liquid); method: Wilhelmy plate method
Mole fraction of tetracosane	Temperature, K	Surface tension liquid-gas, N/m	uncertainty
0.2	313.15	0.02407	0.00034
0.2	323.15	0.02313	0.00032
0.2	333.15	0.02224	0.00031
0.2	343.15	0.02142	0.0003
0.401	323.15	0.02464	0.00034
0.401	333.15	0.02384	0.00033
0.401	343.15	0.02296	0.00032
0.495	323.15	0.02529	0.00035
0.495	333.15	0.02448	0.00034
0.495	343.15	0.02355	0.00033
0.6	323.15	0.02599	0.00036
0.6	333.15	0.02504	0.00035
0.6	343.15	0.0241	0.00034
0.796	323.15	0.02714	0.00038
0.796	333.15	0.02627	0.00037
0.796	343.15	0.02535	0.00035

System: eicosane + tetracosane; phases: Liquid, Air at 1 atmosphere
Fixed: Mole fraction of eicosane = 0.5
Property: Surface tension liquid-gas, N/m (Liquid); method: Wilhelmy plate method
Temperature, K	Surface tension liquid-gas, N/m	uncertainty
323.15	0.02727	0.00038
333.15	0.02651	0.00037
343.15	0.02569	0.00036

System: eicosane + decane + tetracosane; phases: Liquid, Air at 1 atmosphere
Property: Surface tension liquid-gas, N/m (Liquid); method: Wilhelmy plate method
Mole fraction of decane	Mole fraction of eicosane	Temperature, K	Surface tension liquid-gas, N/m	uncertainty
0	0.5	323.15	0.02727	0.00038
0	0.5	333.15	0.02651	0.00037
0	0.5	343.15	0.02569	0.00036
0.201	0.4	323.15	0.02626	0.00037
0.201	0.4	333.15	0.02556	0.00036
0.201	0.4	343.15	0.02477	0.00035
0.4	0.3	313.15	0.02616	0.00036
0.4	0.3	323.15	0.0252	0.00035
0.4	0.3	333.15	0.02452	0.00034
0.4	0.3	343.15	0.02367	0.00033
0.5	0.25	313.15	0.02533	0.00035
0.5	0.25	323.15	0.02465	0.00034
0.5	0.25	333.15	0.02385	0.00033
0.5	0.25	343.15	0.02316	0.00032
0.6	0.2	313.15	0.02493	0.00035
0.6	0.2	323.15	0.02396	0.00033
0.6	0.2	333.15	0.02317	0.00032
0.6	0.2	343.15	0.02238	0.00031
0.8	0.1	313.15	0.02356	0.00033
0.8	0.1	323.15	0.02286	0.00032
0.8	0.1	333.15	0.02192	0.00031
0.8	0.1	343.15	0.02102	0.00029
