Measured thermophysical data. Dynamic Viscosities of the Binary Systems Cyclohexane and Cyclopentane with Acetone, Butanone, or 2-Pentanone at Three Temperatures T ) (293.15, 298.15, and 303.15) K
Source: J. Chem. Eng. Data, 2005, 10.1021/je050110r
Compound 1: cyclohexane, C6H12, InChI=1S/C6H12/c1-2-4-6-5-3-1/h1-6H2, purity 99.8%
Compound 2: cyclopentane, C5H10, InChI=1S/C5H10/c1-2-4-5-3-1/h1-5H2, purity 99%
Compound 3: butanone, C4H8O, InChI=1S/C4H8O/c1-3-4(2)5/h3H2,1-2H3, purity 99.5%
Compound 4: acetone, C3H6O, InChI=1S/C3H6O/c1-3(2)4/h1-2H3, purity 99.8%
Compound 5: pentan-2-one, C5H10O, InChI=1S/C5H10O/c1-3-4-5(2)6/h3-4H2,1-2H3, purity 99.5%

System: cyclohexane; phases: Liquid
Fixed: Pressure, kPa = 101.325
Property: Viscosity, Pa*s (Liquid); method: CAPTUB:UFactor:2
Temperature, K	Viscosity, Pa*s	uncertainty
293.15	0.000968	1.6e-05
298.15	0.000887	1.4e-05
303.15	0.000816	1.3e-05

System: cyclohexane; phases: Liquid
Fixed: Pressure, kPa = 101.325
Property: Speed of sound, m/s (Liquid); method: Anton Paar DSA-5000
Temperature, K	Speed of sound, m/s	uncertainty
293.15	1279	2
298.15	1254	2
303.15	1230	2

System: cyclohexane; phases: Liquid
Fixed: Pressure, kPa = 101.325
Property: Mass density, kg/m3 (Liquid); method: VIBTUB:UFactor:2
Temperature, K	Mass density, kg/m3	uncertainty
293.15	778.62	0.32
298.15	773.92	0.32
303.15	769.19	0.33

System: cyclopentane; phases: Liquid
Fixed: Pressure, kPa = 101.325
Property: Viscosity, Pa*s (Liquid); method: CAPTUB:UFactor:2
Temperature, K	Viscosity, Pa*s	uncertainty
293.15	0.000439	8e-06
298.15	0.000416	8e-06
303.15	0.000394	8e-06

System: cyclopentane; phases: Liquid
Fixed: Pressure, kPa = 101.325
Property: Speed of sound, m/s (Liquid); method: Anton Paar DSA-5000
Temperature, K	Speed of sound, m/s	uncertainty
293.15	1232	2
298.15	1206	2
303.15	1180	2

System: cyclopentane; phases: Liquid
Fixed: Pressure, kPa = 101.325
Property: Mass density, kg/m3 (Liquid); method: VIBTUB:UFactor:2
Temperature, K	Mass density, kg/m3	uncertainty
293.15	744.52	0.51
298.15	739.55	0.51
303.15	734.54	0.51

System: butanone; phases: Liquid
Fixed: Pressure, kPa = 101.325
Property: Viscosity, Pa*s (Liquid); method: CAPTUB::UFactor:2
Temperature, K	Viscosity, Pa*s	uncertainty
293.15	0.000398	8e-06
298.15	0.000378	7e-06
303.15	0.00036	7e-06

System: butanone; phases: Liquid
Fixed: Pressure, kPa = 101.325
Property: Speed of sound, m/s (Liquid); method: OTHER::sMethod:Anton Paar DSA-5000
Temperature, K	Speed of sound, m/s	uncertainty
293.15	1213	2
298.15	1192	2
303.15	1171	2

System: butanone; phases: Liquid
Fixed: Pressure, kPa = 101.325
Property: Mass density, kg/m3 (Liquid); method: VIBTUB::UFactor:2
Temperature, K	Mass density, kg/m3	uncertainty
293.15	804.95	0.35
298.15	799.74	0.35
303.15	794.48	0.35

System: acetone; phases: Liquid
Fixed: Pressure, kPa = 101.325
Property: Viscosity, Pa*s (Liquid); method: CAPTUB::UFactor:2
Temperature, K	Viscosity, Pa*s	uncertainty
293.15	0.00032	7e-06
298.15	0.000306	6e-06
303.15	0.000292	6e-06

System: acetone; phases: Liquid
Fixed: Pressure, kPa = 101.325
Property: Speed of sound, m/s (Liquid); method: OTHER::sMethod:Anton Paar DSA-5000
Temperature, K	Speed of sound, m/s	uncertainty
293.15	1185	2
298.15	1162	2
303.15	1140	2

System: acetone; phases: Liquid
Fixed: Pressure, kPa = 101.325
Property: Mass density, kg/m3 (Liquid); method: VIBTUB::UFactor:2
Temperature, K	Mass density, kg/m3	uncertainty
293.15	791.11	0.31
298.15	785.41	0.31
303.15	779.66	0.32

System: pentan-2-one; phases: Liquid
Fixed: Pressure, kPa = 101.325
Property: Viscosity, Pa*s (Liquid); method: CAPTUB::UFactor:2
Temperature, K	Viscosity, Pa*s	uncertainty
293.15	0.000496	9e-06
298.15	0.000469	9e-06
303.15	0.000444	8e-06

System: pentan-2-one; phases: Liquid
Fixed: Pressure, kPa = 101.325
Property: Speed of sound, m/s (Liquid); method: OTHER::sMethod:Anton Paar DSA-5000
Temperature, K	Speed of sound, m/s	uncertainty
293.15	1233	2
298.15	1213	2
303.15	1192	2

System: pentan-2-one; phases: Liquid
Fixed: Pressure, kPa = 101.325
Property: Mass density, kg/m3 (Liquid); method: VIBTUB::UFactor:2
Temperature, K	Mass density, kg/m3	uncertainty
293.15	806.26	0.34
298.15	801.42	0.35
303.15	796.58	0.35

System: acetone + cyclohexane; phases: Liquid
Fixed: Pressure, kPa = 101.325
Property: Viscosity, Pa*s (Liquid); method: CAPTUB:UFactor:2
Temperature, K	Mole fraction of cyclohexane	Viscosity, Pa*s	uncertainty
293.15	0	0.00032	7e-06
293.15	0.049	0.000329	7e-06
293.15	0.0917	0.000336	7e-06
293.15	0.1959	0.000361	7e-06
293.15	0.2889	0.000392	8e-06
293.15	0.4092	0.000443	8e-06
293.15	0.5009	0.000486	9e-06
293.15	0.5984	0.000544	1e-05
293.15	0.7007	0.000621	1.1e-05
293.15	0.8046	0.0007	1.2e-05
293.15	0.9051	0.000818	1.3e-05
293.15	0.958	0.000895	1.5e-05
293.15	1	0.000968	1.6e-05
298.15	0	0.000306	6e-06
298.15	0.049	0.000313	6e-06
298.15	0.0917	0.00032	7e-06
298.15	0.1959	0.000343	7e-06
298.15	0.2889	0.000371	7e-06
298.15	0.4092	0.000417	8e-06
298.15	0.5009	0.000456	8e-06
298.15	0.5984	0.000509	9e-06
298.15	0.7007	0.000578	1e-05
298.15	0.8046	0.00065	1.1e-05
298.15	0.9051	0.000756	1.3e-05
298.15	0.958	0.000829	1.4e-05
298.15	1	0.000887	1.4e-05
303.15	0	0.000292	6e-06
303.15	0.049	0.000299	6e-06
303.15	0.0917	0.000305	6e-06
303.15	0.1959	0.000326	7e-06
303.15	0.2889	0.000352	7e-06
303.15	0.4092	0.000394	8e-06
303.15	0.5009	0.000429	8e-06
303.15	0.5984	0.000477	9e-06
303.15	0.7007	0.00054	1e-05
303.15	0.8046	0.000606	1e-05
303.15	0.9051	0.000701	1.2e-05
303.15	0.958	0.000762	1.3e-05
303.15	1	0.000816	1.3e-05

System: acetone + cyclohexane; phases: Liquid
Fixed: Pressure, kPa = 101.325
Property: Speed of sound, m/s (Liquid); method: Anton Paar DSA-5000
Temperature, K	Mole fraction of cyclohexane	Speed of sound, m/s	uncertainty
293.15	0	1185	2
293.15	0.049	1182	2
293.15	0.0917	1180	2
293.15	0.1959	1181	2
293.15	0.2889	1184	2
293.15	0.4092	1193	2
293.15	0.5009	1201	2
293.15	0.5984	1212	2
293.15	0.7007	1225	2
293.15	0.8046	1241	2
293.15	0.9051	1258	2
293.15	0.958	1269	2
293.15	1	1279	2
298.15	0	1162	2
298.15	0.049	1160	2
298.15	0.0917	1158	2
298.15	0.1959	1158	2
298.15	0.2889	1161	2
298.15	0.4092	1169	2
298.15	0.5009	1178	2
298.15	0.5984	1188	2
298.15	0.7007	1201	2
298.15	0.8046	1216	2
298.15	0.9051	1234	2
298.15	0.958	1245	2
298.15	1	1254	2
303.15	0	1140	2
303.15	0.049	1137	2
303.15	0.0917	1135	2
303.15	0.1959	1135	2
303.15	0.2889	1138	2
303.15	0.4092	1146	2
303.15	0.5009	1154	2
303.15	0.5984	1164	2
303.15	0.7007	1177	2
303.15	0.8046	1192	2
303.15	0.9051	1210	2
303.15	0.958	1220	2
303.15	1	1230	2

System: acetone + cyclohexane; phases: Liquid
Fixed: Pressure, kPa = 101.325
Property: Mass density, kg/m3 (Liquid); method: VIBTUB:UFactor:2
Temperature, K	Mole fraction of cyclohexane	Mass density, kg/m3	uncertainty
293.15	0	791.11	0.31
293.15	0.049	788.1	0.31
293.15	0.0917	785.55	0.31
293.15	0.1959	780.98	0.32
293.15	0.2889	777.95	0.32
293.15	0.4092	775.47	0.32
293.15	0.5009	774.37	0.32
293.15	0.5984	773.83	0.32
293.15	0.7007	773.87	0.32
293.15	0.8046	774.59	0.32
293.15	0.9051	776.04	0.32
293.15	0.958	777.27	0.32
293.15	1	778.62	0.32
298.15	0	785.41	0.31
298.15	0.049	782.46	0.31
298.15	0.0917	779.94	0.32
298.15	0.1959	775.47	0.32
298.15	0.2889	772.5	0.32
298.15	0.4092	770.14	0.33
298.15	0.5009	769.13	0.33
298.15	0.5984	768.69	0.33
298.15	0.7007	768.83	0.33
298.15	0.8046	769.66	0.33
298.15	0.9051	771.22	0.32
298.15	0.958	772.53	0.32
298.15	1	773.92	0.32
303.15	0	779.66	0.32
303.15	0.049	776.76	0.32
303.15	0.0917	774.28	0.32
303.15	0.1959	769.9	0.33
303.15	0.2889	767.02	0.33
303.15	0.4092	764.77	0.33
303.15	0.5009	763.86	0.33
303.15	0.5984	763.5	0.33
303.15	0.7007	763.75	0.33
303.15	0.8046	764.7	0.33
303.15	0.9051	766.38	0.33
303.15	0.958	767.75	0.33
303.15	1	769.19	0.33

System: butanone + cyclohexane; phases: Liquid
Fixed: Pressure, kPa = 101.325
Property: Viscosity, Pa*s (Liquid); method: CAPTUB:UFactor:2
Temperature, K	Mole fraction of cyclohexane	Viscosity, Pa*s	uncertainty
293.15	0	0.000398	8e-06
293.15	0.0479	0.000401	8e-06
293.15	0.0956	0.000404	8e-06
293.15	0.1983	0.000433	8e-06
293.15	0.3046	0.000466	9e-06
293.15	0.4002	0.000488	9e-06
293.15	0.5028	0.00053	9e-06
293.15	0.6056	0.000581	1e-05
293.15	0.703	0.000641	1.1e-05
293.15	0.8048	0.00072	1.2e-05
293.15	0.9029	0.000824	1.4e-05
293.15	0.9515	0.000888	1.4e-05
293.15	1	0.000968	1.6e-05
298.15	0	0.000378	7e-06
298.15	0.0479	0.000381	7e-06
298.15	0.0956	0.00039	8e-06
298.15	0.1983	0.00041	8e-06
298.15	0.3046	0.000441	8e-06
298.15	0.4002	0.000459	8e-06
298.15	0.5028	0.000498	9e-06
298.15	0.6056	0.000543	1e-05
298.15	0.703	0.000597	1e-05
298.15	0.8048	0.000668	1.1e-05
298.15	0.9029	0.00076	1.3e-05
298.15	0.9515	0.000816	1.3e-05
298.15	1	0.000887	1.4e-05
303.15	0	0.00036	7e-06
303.15	0.0479	0.000363	7e-06
303.15	0.0956	0.00037	7e-06
303.15	0.1983	0.000388	7e-06
303.15	0.3046	0.000419	8e-06
303.15	0.4002	0.000433	8e-06
303.15	0.5028	0.000468	9e-06
303.15	0.6056	0.00051	9e-06
303.15	0.703	0.000558	1e-05
303.15	0.8048	0.000622	1.1e-05
303.15	0.9029	0.000705	1.2e-05
303.15	0.9515	0.000754	1.3e-05
303.15	1	0.000816	1.3e-05

System: butanone + cyclohexane; phases: Liquid
Fixed: Pressure, kPa = 101.325
Property: Speed of sound, m/s (Liquid); method: Anton Paar DSA-5000
Temperature, K	Mole fraction of cyclohexane	Speed of sound, m/s	uncertainty
293.15	0	1213	2
293.15	0.0479	1212	2
293.15	0.0956	1211	2
293.15	0.1983	1210	2
293.15	0.3046	1212	2
293.15	0.4002	1215	2
293.15	0.5028	1221	2
293.15	0.6056	1229	2
293.15	0.703	1238	2
293.15	0.8048	1249	2
293.15	0.9029	1262	2
293.15	0.9515	1270	2
293.15	1	1279	2
298.15	0	1192	2
298.15	0.0479	1190	2
298.15	0.0956	1189	2
298.15	0.1983	1188	2
298.15	0.3046	1190	2
298.15	0.4002	1193	2
298.15	0.5028	1198	2
298.15	0.6056	1205	2
298.15	0.703	1214	2
298.15	0.8048	1225	2
298.15	0.9029	1238	2
298.15	0.9515	1245	2
298.15	1	1254	2
303.15	0	1171	2
303.15	0.0479	1169	2
303.15	0.0956	1167	2
303.15	0.1983	1166	2
303.15	0.3046	1168	2
303.15	0.4002	1170	2
303.15	0.5028	1175	2
303.15	0.6056	1182	2
303.15	0.703	1190	2
303.15	0.8048	1201	2
303.15	0.9029	1213	2
303.15	0.9515	1221	2
303.15	1	1230	2

System: butanone + cyclohexane; phases: Liquid
Fixed: Pressure, kPa = 101.325
Property: Mass density, kg/m3 (Liquid); method: VIBTUB:UFactor:2
Temperature, K	Mole fraction of cyclohexane	Mass density, kg/m3	uncertainty
293.15	0	804.95	0.35
293.15	0.0479	802.06	0.34
293.15	0.0956	799.43	0.34
293.15	0.1983	794.32	0.34
293.15	0.3046	789.89	0.34
293.15	0.4002	786.39	0.34
293.15	0.5028	783.42	0.33
293.15	0.6056	781.01	0.33
293.15	0.703	779.32	0.33
293.15	0.8048	778.18	0.32
293.15	0.9029	777.83	0.32
293.15	0.9515	778.02	0.32
293.15	1	778.62	0.32
298.15	0	799.74	0.35
298.15	0.0479	796.86	0.35
298.15	0.0956	794.25	0.35
298.15	0.1983	789.19	0.34
298.15	0.3046	784.78	0.34
298.15	0.4002	781.34	0.34
298.15	0.5028	778.41	0.34
298.15	0.6056	776.06	0.33
298.15	0.703	774.42	0.33
298.15	0.8048	773.34	0.33
298.15	0.9029	773.06	0.32
298.15	0.9515	773.27	0.32
298.15	1	773.92	0.32
303.15	0	794.48	0.35
303.15	0.0479	791.62	0.35
303.15	0.0956	789.03	0.35
303.15	0.1983	784.01	0.35
303.15	0.3046	779.65	0.35
303.15	0.4002	776.24	0.34
303.15	0.5028	773.37	0.34
303.15	0.6056	771.06	0.34
303.15	0.703	769.48	0.33
303.15	0.8048	768.46	0.33
303.15	0.9029	768.26	0.33
303.15	0.9515	768.51	0.33
303.15	1	769.19	0.33

System: pentan-2-one + cyclohexane; phases: Liquid
Fixed: Pressure, kPa = 101.325
Property: Viscosity, Pa*s (Liquid); method: CAPTUB:UFactor:2
Temperature, K	Mole fraction of cyclohexane	Viscosity, Pa*s	uncertainty
293.15	0	0.000496	9e-06
293.15	0.0483	0.0005	9e-06
293.15	0.0981	0.000506	9e-06
293.15	0.1932	0.000516	9e-06
293.15	0.296	0.000537	1e-05
293.15	0.3957	0.000562	1e-05
293.15	0.4987	0.000594	1e-05
293.15	0.5982	0.000625	1.1e-05
293.15	0.7002	0.00068	1.2e-05
293.15	0.8051	0.000748	1.2e-05
293.15	0.9024	0.000847	1.4e-05
293.15	0.9503	0.000898	1.5e-05
293.15	1	0.000968	1.6e-05
298.15	0	0.000469	9e-06
298.15	0.0483	0.000473	9e-06
298.15	0.0981	0.000477	9e-06
298.15	0.1932	0.000486	9e-06
298.15	0.296	0.000504	9e-06
298.15	0.3957	0.000528	9e-06
298.15	0.4987	0.000554	1e-05
298.15	0.5982	0.000591	1e-05
298.15	0.7002	0.000632	1.1e-05
298.15	0.8051	0.000694	1.2e-05
298.15	0.9024	0.000781	1.3e-05
298.15	0.9503	0.000826	1.4e-05
298.15	1	0.000887	1.4e-05
303.15	0	0.000444	8e-06
303.15	0.0483	0.000447	8e-06
303.15	0.0981	0.000452	8e-06
303.15	0.1932	0.000458	8e-06
303.15	0.296	0.000476	9e-06
303.15	0.3957	0.000498	9e-06
303.15	0.4987	0.00052	9e-06
303.15	0.5982	0.000548	1e-05
303.15	0.7002	0.000594	1e-05
303.15	0.8051	0.000645	1.1e-05
303.15	0.9024	0.000724	1.2e-05
303.15	0.9503	0.000762	1.3e-05
303.15	1	0.000816	1.3e-05

System: pentan-2-one + cyclohexane; phases: Liquid
Fixed: Pressure, kPa = 101.325
Property: Speed of sound, m/s (Liquid); method: Anton Paar DSA-5000
Temperature, K	Mole fraction of cyclohexane	Speed of sound, m/s	uncertainty
293.15	0	1233	2
293.15	0.0483	1232	2
293.15	0.0981	1230	2
293.15	0.1932	1229	2
293.15	0.296	1229	2
293.15	0.3957	1230	2
293.15	0.4987	1233	2
293.15	0.5982	1237	2
293.15	0.7002	1244	2
293.15	0.8051	1253	2
293.15	0.9024	1264	2
293.15	0.9503	1271	2
293.15	1	1279	2
298.15	0	1213	2
298.15	0.0483	1211	2
298.15	0.0981	1209	2
298.15	0.1932	1208	2
298.15	0.296	1207	2
298.15	0.3957	1208	2
298.15	0.4987	1211	2
298.15	0.5982	1215	2
298.15	0.7002	1221	2
298.15	0.8051	1229	2
298.15	0.9024	1240	2
298.15	0.9503	1246	2
298.15	1	1254	2
303.15	0	1192	2
303.15	0.0483	1190	2
303.15	0.0981	1188	2
303.15	0.1932	1186	2
303.15	0.296	1185	2
303.15	0.3957	1186	2
303.15	0.4987	1188	2
303.15	0.5982	1192	2
303.15	0.7002	1198	2
303.15	0.8051	1206	2
303.15	0.9024	1216	2
303.15	0.9503	1222	2
303.15	1	1230	2

System: pentan-2-one + cyclohexane; phases: Liquid
Fixed: Pressure, kPa = 101.325
Property: Mass density, kg/m3 (Liquid); method: VIBTUB:UFactor:2
Temperature, K	Mole fraction of cyclohexane	Mass density, kg/m3	uncertainty
293.15	0	806.26	0.34
293.15	0.0483	803.99	0.34
293.15	0.0981	801.69	0.34
293.15	0.1932	797.41	0.34
293.15	0.296	793.44	0.33
293.15	0.3957	789.93	0.33
293.15	0.4987	786.59	0.33
293.15	0.5982	783.77	0.33
293.15	0.7002	781.46	0.32
293.15	0.8051	779.55	0.32
293.15	0.9024	778.53	0.32
293.15	0.9503	778.36	0.32
293.15	1	778.62	0.32
298.15	0	801.42	0.35
298.15	0.0483	799.17	0.35
298.15	0.0981	796.87	0.34
298.15	0.1932	792.59	0.34
298.15	0.296	788.64	0.34
298.15	0.3957	785.12	0.34
298.15	0.4987	781.79	0.33
298.15	0.5982	778.98	0.33
298.15	0.7002	776.68	0.33
298.15	0.8051	774.79	0.33
298.15	0.9024	773.8	0.32
298.15	0.9503	773.64	0.32
298.15	1	773.92	0.32
303.15	0	796.58	0.35
303.15	0.0483	794.31	0.35
303.15	0.0981	792.02	0.35
303.15	0.1932	787.74	0.35
303.15	0.296	783.79	0.34
303.15	0.3957	780.27	0.34
303.15	0.4987	776.95	0.34
303.15	0.5982	774.14	0.34
303.15	0.7002	771.87	0.33
303.15	0.8051	770	0.33
303.15	0.9024	769.03	0.33
303.15	0.9503	768.89	0.33
303.15	1	769.19	0.33

System: acetone + cyclopentane; phases: Liquid
Fixed: Pressure, kPa = 101.325
Property: Viscosity, Pa*s (Liquid); method: CAPTUB:UFactor:2
Temperature, K	Mole fraction of cyclopentane	Viscosity, Pa*s	uncertainty
293.15	0	0.00032	7e-06
293.15	0.0453	0.000318	6e-06
293.15	0.0935	0.000319	6e-06
293.15	0.1869	0.000319	7e-06
293.15	0.2786	0.000324	7e-06
293.15	0.3922	0.000333	7e-06
293.15	0.517	0.000344	7e-06
293.15	0.6026	0.000357	7e-06
293.15	0.6876	0.000367	7e-06
293.15	0.795	0.000385	8e-06
293.15	0.9016	0.000408	8e-06
293.15	0.9511	0.000419	8e-06
293.15	1	0.000439	8e-06
298.15	0	0.000306	6e-06
298.15	0.0453	0.000308	6e-06
298.15	0.0935	0.000304	6e-06
298.15	0.1869	0.000304	6e-06
298.15	0.2786	0.000309	6e-06
298.15	0.3922	0.000318	7e-06
298.15	0.517	0.000327	7e-06
298.15	0.6026	0.000338	7e-06
298.15	0.6876	0.000347	7e-06
298.15	0.795	0.000365	7e-06
298.15	0.9016	0.00039	8e-06
298.15	0.9511	0.000397	8e-06
298.15	1	0.000416	8e-06
303.15	0	0.000292	6e-06
303.15	0.0453	0.00029	6e-06
303.15	0.0935	0.000291	6e-06
303.15	0.1869	0.000289	6e-06
303.15	0.2786	0.000294	6e-06
303.15	0.3922	0.000303	6e-06
303.15	0.517	0.000311	6e-06
303.15	0.6026	0.000321	7e-06
303.15	0.6876	0.000332	7e-06
303.15	0.795	0.000347	7e-06
303.15	0.9016	0.00037	7e-06
303.15	0.9511	0.000377	8e-06
303.15	1	0.000394	8e-06

System: acetone + cyclopentane; phases: Liquid
Fixed: Pressure, kPa = 101.325
Property: Speed of sound, m/s (Liquid); method: Anton Paar DSA-5000
Temperature, K	Mole fraction of cyclopentane	Speed of sound, m/s	uncertainty
293.15	0	1185	2
293.15	0.0453	1182	2
293.15	0.0935	1178	2
293.15	0.1869	1173	2
293.15	0.2786	1170	2
293.15	0.3922	1170	2
293.15	0.517	1175	2
293.15	0.6026	1180	2
293.15	0.6876	1188	2
293.15	0.795	1199	2
293.15	0.9016	1214	2
293.15	0.9511	1224	2
293.15	1	1232	2
298.15	0	1162	2
298.15	0.0453	1159	2
298.15	0.0935	1155	2
298.15	0.1869	1149	2
298.15	0.2786	1147	2
298.15	0.3922	1146	2
298.15	0.517	1150	2
298.15	0.6026	1155	2
298.15	0.6876	1162	2
298.15	0.795	1174	2
298.15	0.9016	1188	2
298.15	0.9511	1198	2
298.15	1	1206	2
303.15	0	1140	2
303.15	0.0453	1136	2
303.15	0.0935	1132	2
303.15	0.1869	1126	2
303.15	0.2786	1123	2
303.15	0.3922	1122	2
303.15	0.517	1126	2
303.15	0.6026	1130	2
303.15	0.6876	1137	2
303.15	0.795	1148	2
303.15	0.9016	1162	2
303.15	0.9511	1171	2
303.15	1	1180	2

System: acetone + cyclopentane; phases: Liquid
Fixed: Pressure, kPa = 101.325
Property: Mass density, kg/m3 (Liquid); method: VIBTUB:UFactor:2
Temperature, K	Mole fraction of cyclopentane	Mass density, kg/m3	uncertainty
293.15	0	791.11	0.31
293.15	0.0453	786.5	0.31
293.15	0.0935	782.4	0.32
293.15	0.1869	775.3	0.34
293.15	0.2786	769	0.36
293.15	0.3922	762.35	0.38
293.15	0.517	756.4	0.4
293.15	0.6026	753.16	0.42
293.15	0.6876	750.2	0.44
293.15	0.795	747.3	0.46
293.15	0.9016	745.4	0.49
293.15	0.9511	744.9	0.5
293.15	1	744.52	0.51
298.15	0	785.41	0.31
298.15	0.0453	780.9	0.32
298.15	0.0935	776.8	0.33
298.15	0.1869	769.6	0.34
298.15	0.2786	763.4	0.36
298.15	0.3922	756.78	0.38
298.15	0.517	750.9	0.41
298.15	0.6026	747.73	0.42
298.15	0.6876	744.9	0.44
298.15	0.795	742.1	0.46
298.15	0.9016	740.3	0.49
298.15	0.9511	739.9	0.5
298.15	1	739.55	0.51
303.15	0	779.66	0.32
303.15	0.0453	775.2	0.32
303.15	0.0935	771.1	0.33
303.15	0.1869	763.9	0.35
303.15	0.2786	757.8	0.37
303.15	0.3922	751.15	0.39
303.15	0.517	745.4	0.41
303.15	0.6026	742.24	0.43
303.15	0.6876	739.5	0.45
303.15	0.795	736.8	0.47
303.15	0.9016	735.2	0.49
303.15	0.9511	734.9	0.5
303.15	1	734.54	0.51

System: butanone + cyclopentane; phases: Liquid
Fixed: Pressure, kPa = 101.325
Property: Viscosity, Pa*s (Liquid); method: CAPTUB:UFactor:2
Temperature, K	Mole fraction of cyclopentane	Viscosity, Pa*s	uncertainty
293.15	0	0.000398	8e-06
293.15	0.0472	0.000397	8e-06
293.15	0.0981	0.000395	8e-06
293.15	0.1929	0.000394	8e-06
293.15	0.2932	0.00039	8e-06
293.15	0.3753	0.00039	8e-06
293.15	0.4966	0.000393	8e-06
293.15	0.6189	0.000394	8e-06
293.15	0.6838	0.000398	8e-06
293.15	0.8034	0.000407	8e-06
293.15	0.9061	0.000419	8e-06
293.15	0.9499	0.000426	8e-06
293.15	1	0.000439	8e-06
298.15	0	0.000378	7e-06
298.15	0.0472	0.000377	7e-06
298.15	0.0981	0.000375	7e-06
298.15	0.1929	0.000372	7e-06
298.15	0.2932	0.00037	7e-06
298.15	0.3753	0.00037	7e-06
298.15	0.4966	0.000373	7e-06
298.15	0.6189	0.000374	7e-06
298.15	0.6838	0.000377	7e-06
298.15	0.8034	0.000387	8e-06
298.15	0.9061	0.000397	8e-06
298.15	0.9499	0.000405	8e-06
298.15	1	0.000416	8e-06
303.15	0	0.00036	7e-06
303.15	0.0472	0.000358	7e-06
303.15	0.0981	0.000358	7e-06
303.15	0.1929	0.000354	7e-06
303.15	0.2932	0.000353	7e-06
303.15	0.3753	0.000352	7e-06
303.15	0.4966	0.000354	7e-06
303.15	0.6189	0.000355	7e-06
303.15	0.6838	0.000359	7e-06
303.15	0.8034	0.000367	7e-06
303.15	0.9061	0.000377	8e-06
303.15	0.9499	0.000383	8e-06
303.15	1	0.000394	8e-06

System: butanone + cyclopentane; phases: Liquid
Fixed: Pressure, kPa = 101.325
Property: Speed of sound, m/s (Liquid); method: Anton Paar DSA-5000
Temperature, K	Mole fraction of cyclopentane	Speed of sound, m/s	uncertainty
293.15	0	1213	2
293.15	0.0472	1211	2
293.15	0.0981	1207	2
293.15	0.1929	1202	2
293.15	0.2932	1199	2
293.15	0.3753	1198	2
293.15	0.4966	1198	2
293.15	0.6189	1200	2
293.15	0.6838	1202	2
293.15	0.8034	1210	2
293.15	0.9061	1220	2
293.15	0.9499	1225	2
293.15	1	1232	2
298.15	0	1192	2
298.15	0.0472	1189	2
298.15	0.0981	1186	2
298.15	0.1929	1180	2
298.15	0.2932	1177	2
298.15	0.3753	1175	2
298.15	0.4966	1174	2
298.15	0.6189	1176	2
298.15	0.6838	1178	2
298.15	0.8034	1185	2
298.15	0.9061	1194	2
298.15	0.9499	1200	2
298.15	1	1206	2
303.15	0	1171	2
303.15	0.0472	1168	2
303.15	0.0981	1164	2
303.15	0.1929	1158	2
303.15	0.2932	1154	2
303.15	0.3753	1152	2
303.15	0.4966	1151	2
303.15	0.6189	1152	2
303.15	0.6838	1154	2
303.15	0.8034	1160	2
303.15	0.9061	1169	2
303.15	0.9499	1174	2
303.15	1	1180	2

System: butanone + cyclopentane; phases: Liquid
Fixed: Pressure, kPa = 101.325
Property: Mass density, kg/m3 (Liquid); method: VIBTUB:UFactor:2
Temperature, K	Mole fraction of cyclopentane	Mass density, kg/m3	uncertainty
293.15	0	804.95	0.35
293.15	0.0472	801.67	0.35
293.15	0.0981	797.82	0.36
293.15	0.1929	790.79	0.38
293.15	0.2932	783.66	0.4
293.15	0.3753	778.06	0.41
293.15	0.4966	770.13	0.43
293.15	0.6189	762.7	0.45
293.15	0.6838	758.93	0.46
293.15	0.8034	752.69	0.48
293.15	0.9061	748.13	0.49
293.15	0.9499	746.57	0.5
293.15	1	744.52	0.51
298.15	0	799.74	0.35
298.15	0.0472	796.44	0.36
298.15	0.0981	792.6	0.37
298.15	0.1929	785.56	0.38
298.15	0.2932	778.43	0.4
298.15	0.3753	772.84	0.41
298.15	0.4966	764.91	0.43
298.15	0.6189	757.51	0.45
298.15	0.6838	753.77	0.46
298.15	0.8034	747.58	0.48
298.15	0.9061	743.08	0.5
298.15	0.9499	741.56	0.5
298.15	1	739.55	0.51
303.15	0	794.48	0.35
303.15	0.0472	791.18	0.36
303.15	0.0981	787.34	0.37
303.15	0.1929	780.29	0.39
303.15	0.2932	773.17	0.4
303.15	0.3753	767.57	0.42
303.15	0.4966	759.63	0.44
303.15	0.6189	752.27	0.45
303.15	0.6838	748.56	0.46
303.15	0.8034	742.42	0.48
303.15	0.9061	737.99	0.5
303.15	0.9499	736.51	0.5
303.15	1	734.54	0.51

System: pentan-2-one + cyclopentane; phases: Liquid
Fixed: Pressure, kPa = 101.325
Property: Viscosity, Pa*s (Liquid); method: CAPTUB:UFactor:2
Temperature, K	Mole fraction of cyclopentane	Viscosity, Pa*s	uncertainty
293.15	0	0.000496	9e-06
293.15	0.0411	0.00049	9e-06
293.15	0.0966	0.000481	9e-06
293.15	0.1985	0.000471	9e-06
293.15	0.3214	0.000458	9e-06
293.15	0.3876	0.000452	8e-06
293.15	0.5026	0.000443	8e-06
293.15	0.6097	0.000436	8e-06
293.15	0.6934	0.000433	8e-06
293.15	0.7996	0.000429	8e-06
293.15	0.9054	0.000429	8e-06
293.15	0.9515	0.000433	8e-06
293.15	1	0.000439	8e-06
298.15	0	0.000469	9e-06
298.15	0.0411	0.000463	9e-06
298.15	0.0966	0.000455	8e-06
298.15	0.1985	0.000445	8e-06
298.15	0.3214	0.000433	8e-06
298.15	0.3876	0.000428	8e-06
298.15	0.5026	0.000419	8e-06
298.15	0.6097	0.000414	8e-06
298.15	0.6934	0.00041	8e-06
298.15	0.7996	0.000407	8e-06
298.15	0.9054	0.000406	8e-06
298.15	0.9515	0.00041	8e-06
298.15	1	0.000416	8e-06
303.15	0	0.000444	8e-06
303.15	0.0411	0.00044	8e-06
303.15	0.0966	0.000431	8e-06
303.15	0.1985	0.000422	8e-06
303.15	0.3214	0.00041	8e-06
303.15	0.3876	0.000406	8e-06
303.15	0.5026	0.000398	8e-06
303.15	0.6097	0.000392	8e-06
303.15	0.6934	0.00039	8e-06
303.15	0.7996	0.000387	8e-06
303.15	0.9054	0.000386	8e-06
303.15	0.9515	0.000389	8e-06
303.15	1	0.000394	8e-06

System: pentan-2-one + cyclopentane; phases: Liquid
Fixed: Pressure, kPa = 101.325
Property: Speed of sound, m/s (Liquid); method: Anton Paar DSA-5000
Temperature, K	Mole fraction of cyclopentane	Speed of sound, m/s	uncertainty
293.15	0	1233	2
293.15	0.0411	1231	2
293.15	0.0966	1227	2
293.15	0.1985	1222	2
293.15	0.3214	1216	2
293.15	0.3876	1214	2
293.15	0.5026	1211	2
293.15	0.6097	1211	2
293.15	0.6934	1212	2
293.15	0.7996	1216	2
293.15	0.9054	1222	2
293.15	0.9515	1227	2
293.15	1	1232	2
298.15	0	1213	2
298.15	0.0411	1210	2
298.15	0.0966	1206	2
298.15	0.1985	1200	2
298.15	0.3214	1194	2
298.15	0.3876	1192	2
298.15	0.5026	1189	2
298.15	0.6097	1187	2
298.15	0.6934	1188	2
298.15	0.7996	1191	2
298.15	0.9054	1197	2
298.15	0.9515	1202	2
298.15	1	1206	2
303.15	0	1192	2
303.15	0.0411	1189	2
303.15	0.0966	1185	2
303.15	0.1985	1179	2
303.15	0.3214	1172	2
303.15	0.3876	1169	2
303.15	0.5026	1166	2
303.15	0.6097	1164	2
303.15	0.6934	1164	2
303.15	0.7996	1167	2
303.15	0.9054	1172	2
303.15	0.9515	1176	2
303.15	1	1180	2

System: pentan-2-one + cyclopentane; phases: Liquid
Fixed: Pressure, kPa = 101.325
Property: Mass density, kg/m3 (Liquid); method: VIBTUB:UFactor:2
Temperature, K	Mole fraction of cyclopentane	Mass density, kg/m3	uncertainty
293.15	0	806.26	0.3
293.15	0.0411	803.85	0.3
293.15	0.0966	800.08	0.31
293.15	0.1985	793.57	0.33
293.15	0.3214	785.7	0.35
293.15	0.3876	781.43	0.36
293.15	0.5026	774.2	0.38
293.15	0.6097	767.25	0.4
293.15	0.6934	762.09	0.41
293.15	0.7996	755.71	0.43
293.15	0.9054	749.64	0.45
293.15	0.9515	747.27	0.45
293.15	1	744.52	0.46
298.15	0	801.42	0.3
298.15	0.0411	799	0.31
298.15	0.0966	795.23	0.32
298.15	0.1985	788.67	0.33
298.15	0.3214	780.76	0.35
298.15	0.3876	776.48	0.36
298.15	0.5026	769.21	0.38
298.15	0.6097	762.25	0.4
298.15	0.6934	757.08	0.41
298.15	0.7996	750.7	0.43
298.15	0.9054	744.63	0.45
298.15	0.9515	742.28	0.45
298.15	1	739.55	0.46
303.15	0	796.58	0.3
303.15	0.0411	794.13	0.31
303.15	0.0966	790.34	0.32
303.15	0.1985	783.74	0.33
303.15	0.3214	775.79	0.35
303.15	0.3876	771.49	0.36
303.15	0.5026	764.19	0.38
303.15	0.6097	757.21	0.4
303.15	0.6934	752.03	0.41
303.15	0.7996	745.64	0.43
303.15	0.9054	739.59	0.45
303.15	0.9515	737.26	0.45
303.15	1	734.54	0.46
