Measured thermophysical data. Liquid-Liquid Phase Equilibria of (Ethanol or Methanol + Water) Containing either Dipotassium Hydrogen Phosphate or Sodium Dihydrogen Phosphate
Source: J. Chem. Eng. Data, 2006, 10.1021/je050408h
Compound 1: ethanol, C2H6O, InChI=1S/C2H6O/c1-2-3/h3H,2H2,1H3, purity 99.8%
Compound 2: water, H2O, InChI=1S/H2O/h1H2
Compound 3: dipotassium hydrogen phosphate, HK2O4P, InChI=1S/2K.H3O4P/c;;1-5(2,3)4/h;;(H3,1,2,3,4)/q2*+1;/p-2, purity 99%
Compound 4: sodium dihydrogen phosphate, H2NaO4P, InChI=1S/Na.H3O4P/c;1-5(2,3)4/h;(H3,1,2,3,4)/q+1;/p-1, purity 99%
Compound 5: methanol, CH4O, InChI=1S/CH4O/c1-2/h2H,1H3, purity 99.5%

System: ethanol + water + dipotassium hydrogen phosphate; phases: Liquid mixture 2, Liquid mixture 1
Fixed: Pressure, kPa = 101
Property: Mass fraction of ethanol (Liquid mixture 2); method: CHROM:UFactor:4
Property: Mass fraction of dipotassium hydrogen phosphate (Liquid mixture 1); method: CHROM:UFactor:4
Property: Mass fraction of ethanol (Liquid mixture 1); method: CHROM:UFactor:4
Temperature, K	Mass fraction of dipotassium hydrogen phosphate	Mass fraction of ethanol	uncertainty	Mass fraction of dipotassium hydrogen phosphate	uncertainty	Mass fraction of ethanol	uncertainty
288.15	0.481	0.0041	0.001	0.0017	0.0017	0.672	
288.15	0.455	0.0059	0.001	0.0034	0.0034	0.609	
288.15	0.429	0.0087	0.001	0.0077	0.006	0.533	
288.15	0.41	0.0128	0.0011	0.0132	0.006	0.48	
288.15	0.404	0.0139	0.0011	0.0152	0.006	0.465	
288.15	0.385	0.0184	0.0011	0.0236	0.006	0.41	
288.15	0.352	0.0286	0.0013	0.0443	0.006	0.334	
288.15	0.301	0.0523	0.0018	0.0887	0.006	0.251	
288.15	0.302	0.0515	0.0018	0.0884	0.006	0.247	
298.15	0.476	0.0038	0.001	0.0016	0.0016	0.679	
298.15	0.451	0.0064	0.001	0.0033	0.0033	0.628	
298.15	0.419	0.0109	0.001	0.0078	0.006	0.548	
298.15	0.393	0.0163	0.0011	0.0146	0.006	0.483	
298.15	0.365	0.0245	0.0012	0.0267	0.006	0.412	
298.15	0.329	0.039	0.0015	0.0491	0.006	0.341	
298.15	0.315	0.0442	0.0016	0.0605	0.006	0.311	
298.15	0.285	0.0622	0.002	0.0865	0.006	0.263	
298.15	0.264	0.0771	0.0024	0.1087	0.006	0.235	
308.15	0.472	0.0048	0.001	0.0017	0.0017	0.689	
308.15	0.462	0.0054	0.001	0.0023	0.0023	0.664	
308.15	0.422	0.0099	0.001	0.0061	0.006	0.578	
308.15	0.403	0.0133	0.0011	0.0095	0.006	0.534	
308.15	0.391	0.0162	0.0011	0.0125	0.006	0.504	
308.15	0.373	0.0208	0.0012	0.0179	0.006	0.466	
308.15	0.349	0.0284	0.0013	0.028	0.006	0.414	
308.15	0.3	0.0458	0.0016	0.0527	0.006	0.337	

System: ethanol + sodium dihydrogen phosphate + water; phases: Liquid mixture 2, Liquid mixture 1
Fixed: Pressure, kPa = 101
Property: Mass fraction of ethanol (Liquid mixture 2); method: CHROM:UFactor:8
Property: Mass fraction of sodium dihydrogen phosphate (Liquid mixture 1); method: CHROM:UFactor:8
Property: Mass fraction of ethanol (Liquid mixture 1); method: CHROM:UFactor:8
Temperature, K	Mass fraction of sodium dihydrogen phosphate	Mass fraction of ethanol	uncertainty	Mass fraction of sodium dihydrogen phosphate	uncertainty	Mass fraction of ethanol	uncertainty
288.15	0.475	0.0231	0.0018	0.0208	0.006	0.561	
288.15	0.456	0.0273	0.0022	0.026	0.006	0.517	
288.15	0.437	0.032	0.0026	0.0338	0.006	0.473	
288.15	0.42	0.0352	0.0028	0.0398	0.006	0.449	
288.15	0.413	0.0376	0.003	0.0444	0.006	0.429	
288.15	0.396	0.0436	0.0035	0.0531	0.006	0.402	
288.15	0.355	0.0537	0.0043	0.0751	0.006	0.349	
298.15	0.466	0.0214	0.0017	0.0156	0.006	0.603	
298.15	0.393	0.0377	0.003	0.0344	0.006	0.486	
298.15	0.376	0.0505	0.004	0.0454	0.006	0.45	
298.15	0.373	0.0511	0.0041	0.0469	0.006	0.433	
298.15	0.33	0.0768	0.0061	0.083	0.006	0.35	
298.15	0.316	0.0802	0.0064	0.0896	0.006	0.333	
298.15	0.263	0.1257	0.0101	0.1431	0.006	0.245	
308.15	0.399	0.0439	0.0035	0.0437	0.006	0.456	
308.15	0.384	0.0512	0.0041	0.0504	0.006	0.435	
308.15	0.368	0.0561	0.0045	0.0582	0.006	0.413	
308.15	0.335	0.0656	0.0052	0.07	0.006	0.372	
308.15	0.302	0.086	0.0069	0.0933	0.006	0.324	

System: methanol + water + dipotassium hydrogen phosphate; phases: Liquid mixture 2, Liquid mixture 1
Fixed: Pressure, kPa = 101
Property: Mass fraction of methanol (Liquid mixture 2); method: CHROM:UFactor:8
Property: Mass fraction of dipotassium hydrogen phosphate (Liquid mixture 1); method: CHROM:UFactor:8
Property: Mass fraction of methanol (Liquid mixture 1); method: CHROM:UFactor:8
Temperature, K	Mass fraction of dipotassium hydrogen phosphate	Mass fraction of methanol	uncertainty	Mass fraction of dipotassium hydrogen phosphate	uncertainty	Mass fraction of methanol	uncertainty
288.15	0.514	0.034	0.0027	0.0302	0.006	0.551	
288.15	0.485	0.0421	0.0034	0.046	0.006	0.504	
288.15	0.482	0.0438	0.0035	0.0475	0.006	0.498	
288.15	0.473	0.0497	0.004	0.0534	0.006	0.493	
288.15	0.475	0.0488	0.0039	0.0523	0.006	0.492	
288.15	0.467	0.0525	0.0042	0.0581	0.006	0.47	
288.15	0.448	0.0628	0.005	0.0731	0.006	0.435	
288.15	0.445	0.0604	0.0048	0.0752	0.006	0.433	
288.15	0.425	0.0717	0.0057	0.0941	0.006	0.4	
288.15	0.42	0.0712	0.0057	0.0991	0.006	0.384	
298.15	0.481	0.0448	0.0036	0.0455	0.006	0.502	
298.15	0.479	0.0437	0.0035	0.0464	0.006	0.494	
298.15	0.461	0.0509	0.0041	0.0593	0.006	0.467	
298.15	0.462	0.0506	0.004	0.0589	0.006	0.465	
298.15	0.453	0.0543	0.0043	0.066	0.006	0.448	
298.15	0.45	0.0576	0.0046	0.0672	0.006	0.442	
298.15	0.418	0.0751	0.006	0.0955	0.006	0.391	
308.15	0.511	0.0358	0.0029	0.0313	0.006	0.579	
308.15	0.511	0.038	0.003	0.0318	0.006	0.564	
308.15	0.511	0.036	0.0029	0.0316	0.006	0.563	
308.15	0.46	0.0539	0.0043	0.0596	0.0061	0.483	
308.15	0.466	0.0504	0.004	0.0559	0.006	0.482	
308.15	0.468	0.0513	0.0041	0.0544	0.006	0.478	
308.15	0.46	0.0536	0.0043	0.0597	0.006	0.464	
308.15	0.433	0.0655	0.0052	0.0805	0.006	0.423	
308.15	0.415	0.0807	0.0065	0.0977	0.006	0.395	
