Measured thermophysical data. Densities and Viscosities of Binary Mixtures of Isoamyl Acetate, Ethyl Caproate, Ethyl Benzoate, Isoamyl Butyrate, Ethyl Phenylacetate, and Ethyl Caprylate with Ethanol at T = (288.15, 298.15, 308.15, and 318.15) K
Source: J. Chem. Eng. Data, 2006, 10.1021/je050389b
Compound 1: 3-methylbutyl ethanoate, C7H14O2, InChI=1S/C7H14O2/c1-6(2)4-5-9-7(3)8/h6H,4-5H2,1-3H3, purity 99.3%
Compound 2: ethyl hexanoate, C8H16O2, InChI=1S/C8H16O2/c1-3-5-6-7-8(9)10-4-2/h3-7H2,1-2H3, purity 99.7%
Compound 3: ethyl benzoate, C9H10O2, InChI=1S/C9H10O2/c1-2-11-9(10)8-6-4-3-5-7-8/h3-7H,2H2,1H3, purity 99.8%
Compound 4: 3-methylbutyl butanoate, C9H18O2, InChI=1S/C9H18O2/c1-4-5-9(10)11-7-6-8(2)3/h8H,4-7H2,1-3H3, purity 99.4%
Compound 5: ethyl phenylacetate, C10H12O2, InChI=1S/C10H12O2/c1-2-12-10(11)8-9-6-4-3-5-7-9/h3-7H,2,8H2,1H3, purity 99.4%
Compound 6: ethyl octanoate, C10H20O2, InChI=1S/C10H20O2/c1-3-5-6-7-8-9-10(11)12-4-2/h3-9H2,1-2H3, purity 99.5%
Compound 7: ethanol, C2H6O, InChI=1S/C2H6O/c1-2-3/h3H,2H2,1H3, purity 99.9%

System: 3-methylbutyl ethanoate; phases: Liquid
Fixed: Pressure, kPa = 100.5
Property: Viscosity, Pa*s (Liquid); method: CAPTUB:UFactor:2
Temperature, K	Viscosity, Pa*s	uncertainty
288.15	0.00094	1.6e-05
298.15	0.000804	1.5e-05
308.15	0.000704	1.5e-05
318.15	0.000627	1.4e-05

System: 3-methylbutyl ethanoate; phases: Liquid
Fixed: Pressure, kPa = 100.5
Property: Mass density, kg/m3 (Liquid); method: VIBTUB:UFactor:2
Temperature, K	Mass density, kg/m3	uncertainty
288.15	877.72	0.36
298.15	867.91	0.36
308.15	858.07	0.36
318.15	848.17	0.36

System: ethyl hexanoate; phases: Liquid
Fixed: Pressure, kPa = 100.5
Property: Viscosity, Pa*s (Liquid); method: CAPTUB:UFactor:2
Temperature, K	Viscosity, Pa*s	uncertainty
288.15	0.001102	1.7e-05
298.15	0.00094	1.6e-05
308.15	0.000814	1.5e-05
318.15	0.000711	1.5e-05

System: ethyl hexanoate; phases: Liquid
Fixed: Pressure, kPa = 101
Property: Mass density, kg/m3 (Liquid); method: VIBTUB:UFactor:2
Temperature, K	Mass density, kg/m3	uncertainty
288.15	875.64	0.22
298.15	866.29	0.22
308.15	856.91	0.23
318.15	847.5	0.23

System: ethyl benzoate; phases: Liquid
Fixed: Pressure, kPa = 100.5
Property: Viscosity, Pa*s (Liquid); method: CAPTUB:UFactor:2
Temperature, K	Viscosity, Pa*s	uncertainty
288.15	0.002444	2.8e-05
298.15	0.001971	2.4e-05
308.15	0.001624	2.1e-05
318.15	0.001368	1.9e-05

System: ethyl benzoate; phases: Liquid
Fixed: Pressure, kPa = 101
Property: Mass density, kg/m3 (Liquid); method: VIBTUB:UFactor:2
Temperature, K	Mass density, kg/m3	uncertainty
288.15	1050.78	0.17
298.15	1041.42	0.17
308.15	1032.07	0.17
318.15	1022.73	0.16

System: 3-methylbutyl butanoate; phases: Liquid
Fixed: Pressure, kPa = 100.5
Property: Viscosity, Pa*s (Liquid); method: CAPTUB:UFactor:2
Temperature, K	Viscosity, Pa*s	uncertainty
288.15	0.001317	1.9e-05
298.15	0.001111	1.8e-05
308.15	0.000952	1.6e-05
318.15	0.000827	1.6e-05

System: 3-methylbutyl butanoate; phases: Liquid
Fixed: Pressure, kPa = 101
Property: Mass density, kg/m3 (Liquid); method: VIBTUB:UFactor:2
Temperature, K	Mass density, kg/m3	uncertainty
288.15	867.72	0.32
298.15	858.69	0.32
308.15	849.62	0.32
318.15	840.55	0.32

System: ethyl phenylacetate; phases: Liquid
Fixed: Pressure, kPa = 100.5
Property: Viscosity, Pa*s (Liquid); method: CAPTUB:UFactor:2
Temperature, K	Viscosity, Pa*s	uncertainty
288.15	0.003002	3.5e-05
298.15	0.002384	2.8e-05
308.15	0.001948	2.4e-05
318.15	0.001624	2.2e-05

System: ethyl phenylacetate; phases: Liquid
Fixed: Pressure, kPa = 101
Property: Mass density, kg/m3 (Liquid); method: VIBTUB:UFactor:2
Temperature, K	Mass density, kg/m3	uncertainty
288.15	1036.35	0.34
298.15	1026.96	0.33
308.15	1017.6	0.33
318.15	1008.26	0.33

System: ethyl octanoate; phases: Liquid
Fixed: Pressure, kPa = 100.5
Property: Viscosity, Pa*s (Liquid); method: CAPTUB:UFactor:2
Temperature, K	Viscosity, Pa*s	uncertainty
288.15	0.001697	2.2e-05
298.15	0.001411	2e-05
308.15	0.001193	1.8e-05
318.15	0.001027	1.7e-05

System: ethyl octanoate; phases: Liquid
Fixed: Pressure, kPa = 101
Property: Mass density, kg/m3 (Liquid); method: VIBTUB:UFactor:2
Temperature, K	Mass density, kg/m3	uncertainty
288.15	870.79	0.28
298.15	862.15	0.29
308.15	853.52	0.29
318.15	844.87	0.29

System: ethanol; phases: Liquid
Fixed: Pressure, kPa = 100.5
Property: Viscosity, Pa*s (Liquid); method: CAPTUB:UFactor:2
Temperature, K	Viscosity, Pa*s	uncertainty
288.15	0.001337	1.9e-05
298.15	0.001105	1.7e-05
308.15	0.000921	1.6e-05
318.15	0.000771	1.5e-05

System: ethanol; phases: Liquid
Property: Mass density, kg/m3 (Liquid); method: VIBTUB:UFactor:2
Temperature, K	Pressure, kPa	Mass density, kg/m3	uncertainty
288.15	100.5	793.6	0.23
288.15	101	793.6	0.23
298.15	100.5	785	0.24
298.15	101	785	0.24
308.15	100.5	776.31	0.24
308.15	101	776.31	0.24
318.15	100.5	767.44	0.25
318.15	101	767.44	0.25

System: ethanol + 3-methylbutyl ethanoate; phases: Liquid
Fixed: Pressure, kPa = 100.5
Property: Viscosity, Pa*s (Liquid); method: CAPTUB:UFactor:2
Temperature, K	Mole fraction of 3-methylbutyl ethanoate	Viscosity, Pa*s	uncertainty
288.15	0	0.001337	1.9e-05
288.15	0.05	0.00122	1.8e-05
288.15	0.1	0.001133	1.7e-05
288.15	0.15	0.001072	1.7e-05
288.15	0.2	0.001031	1.7e-05
288.15	0.25	0.000996	1.6e-05
288.15	0.3	0.000968	1.6e-05
288.15	0.35	0.000948	1.6e-05
288.15	0.4	0.000934	1.6e-05
288.15	0.45	0.000924	1.6e-05
288.15	0.5	0.000916	1.6e-05
288.15	0.55	0.00091	1.6e-05
288.15	0.6	0.000907	1.6e-05
288.15	0.65	0.000908	1.6e-05
288.15	0.7	0.000911	1.6e-05
288.15	0.75	0.000912	1.6e-05
288.15	0.8	0.000916	1.6e-05
288.15	0.85	0.000926	1.6e-05
288.15	0.9	0.000937	1.6e-05
288.15	0.95	0.000939	1.6e-05
288.15	1	0.00094	1.6e-05
298.15	0	0.001105	1.7e-05
298.15	0.05	0.001011	1.7e-05
298.15	0.1	0.000946	1.6e-05
298.15	0.15	0.000902	1.6e-05
298.15	0.2	0.000866	1.6e-05
298.15	0.25	0.000841	1.5e-05
298.15	0.3	0.000821	1.5e-05
298.15	0.35	0.000805	1.5e-05
298.15	0.4	0.000793	1.5e-05
298.15	0.45	0.000786	1.5e-05
298.15	0.5	0.000779	1.5e-05
298.15	0.55	0.000776	1.5e-05
298.15	0.6	0.000773	1.5e-05
298.15	0.65	0.000773	1.5e-05
298.15	0.7	0.000775	1.5e-05
298.15	0.75	0.00078	1.5e-05
298.15	0.8	0.000782	1.5e-05
298.15	0.85	0.000791	1.5e-05
298.15	0.9	0.000799	1.5e-05
298.15	0.95	0.000804	1.5e-05
298.15	1	0.000804	1.5e-05
308.15	0	0.000921	1.6e-05
308.15	0.05	0.000847	1.5e-05
308.15	0.1	0.000799	1.5e-05
308.15	0.15	0.000762	1.5e-05
308.15	0.2	0.000735	1.5e-05
308.15	0.25	0.000716	1.5e-05
308.15	0.3	0.000701	1.5e-05
308.15	0.35	0.000689	1.5e-05
308.15	0.4	0.00068	1.5e-05
308.15	0.45	0.000675	1.5e-05
308.15	0.5	0.000671	1.5e-05
308.15	0.55	0.000668	1.5e-05
308.15	0.6	0.000667	1.5e-05
308.15	0.65	0.000667	1.5e-05
308.15	0.7	0.00067	1.5e-05
308.15	0.75	0.000675	1.5e-05
308.15	0.8	0.00068	1.5e-05
308.15	0.85	0.000688	1.5e-05
308.15	0.9	0.000697	1.5e-05
308.15	0.95	0.000703	1.5e-05
308.15	1	0.000704	1.5e-05
318.15	0	0.000771	1.5e-05
318.15	0.05	0.000716	1.5e-05
318.15	0.1	0.00068	1.5e-05
318.15	0.15	0.000651	1.4e-05
318.15	0.2	0.00063	1.4e-05
318.15	0.25	0.000615	1.4e-05
318.15	0.3	0.000605	1.4e-05
318.15	0.35	0.000596	1.4e-05
318.15	0.4	0.00059	1.4e-05
318.15	0.45	0.000586	1.4e-05
318.15	0.5	0.000583	1.4e-05
318.15	0.55	0.000582	1.4e-05
318.15	0.6	0.000582	1.4e-05
318.15	0.65	0.000584	1.4e-05
318.15	0.7	0.000588	1.4e-05
318.15	0.75	0.000594	1.4e-05
318.15	0.8	0.000601	1.4e-05
318.15	0.85	0.000609	1.4e-05
318.15	0.9	0.000618	1.4e-05
318.15	0.95	0.000625	1.4e-05
318.15	1	0.000627	1.4e-05

System: ethanol + 3-methylbutyl ethanoate; phases: Liquid
Fixed: Pressure, kPa = 100.5
Property: Mass density, kg/m3 (Liquid); method: VIBTUB:UFactor:2
Temperature, K	Mole fraction of 3-methylbutyl ethanoate	Mass density, kg/m3	uncertainty
288.15	0	793.6	0.23
288.15	0.05	803.41	0.23
288.15	0.1	811.89	0.23
288.15	0.15	819.25	0.23
288.15	0.2	825.81	0.23
288.15	0.25	831.66	0.23
288.15	0.3	836.85	0.23
288.15	0.35	841.58	0.24
288.15	0.4	845.81	0.25
288.15	0.45	849.7	0.25
288.15	0.5	853.26	0.26
288.15	0.55	856.53	0.27
288.15	0.6	859.57	0.27
288.15	0.65	862.36	0.28
288.15	0.7	865	0.29
288.15	0.75	867.44	0.3
288.15	0.8	869.73	0.31
288.15	0.85	871.89	0.32
288.15	0.9	873.95	0.33
288.15	0.95	875.87	0.34
288.15	1	877.72	0.36
298.15	0	785	0.24
298.15	0.05	794.64	0.23
298.15	0.1	802.92	0.23
298.15	0.15	810.13	0.23
298.15	0.2	816.58	0.23
298.15	0.25	822.31	0.24
298.15	0.3	827.42	0.24
298.15	0.35	832.08	0.24
298.15	0.4	836.24	0.25
298.15	0.45	840.07	0.25
298.15	0.5	843.59	0.26
298.15	0.55	846.82	0.27
298.15	0.6	849.83	0.28
298.15	0.65	852.58	0.28
298.15	0.7	855.21	0.29
298.15	0.75	857.64	0.3
298.15	0.8	859.93	0.31
298.15	0.85	862.08	0.32
298.15	0.9	864.14	0.33
298.15	0.95	866.09	0.34
298.15	1	867.91	0.36
308.15	0	776.31	0.24
308.15	0.05	785.74	0.24
308.15	0.1	793.84	0.24
308.15	0.15	800.9	0.24
308.15	0.2	807.21	0.24
308.15	0.25	812.85	0.24
308.15	0.3	817.86	0.24
308.15	0.35	822.44	0.25
308.15	0.4	826.53	0.25
308.15	0.45	830.32	0.26
308.15	0.5	833.79	0.27
308.15	0.55	836.99	0.27
308.15	0.6	839.97	0.28
308.15	0.65	842.71	0.29
308.15	0.7	845.33	0.3
308.15	0.75	847.75	0.3
308.15	0.8	850.04	0.31
308.15	0.85	852.2	0.32
308.15	0.9	854.28	0.33
308.15	0.95	856.25	0.35
308.15	1	858.07	0.36
318.15	0	767.44	0.25
318.15	0.05	776.69	0.24
318.15	0.1	784.6	0.24
318.15	0.15	791.5	0.24
318.15	0.2	797.69	0.24
318.15	0.25	803.22	0.25
318.15	0.3	808.15	0.25
318.15	0.35	812.65	0.25
318.15	0.4	816.69	0.26
318.15	0.45	820.42	0.26
318.15	0.5	823.86	0.27
318.15	0.55	827.03	0.27
318.15	0.6	829.99	0.28
318.15	0.65	832.72	0.29
318.15	0.7	835.33	0.3
318.15	0.75	837.75	0.31
318.15	0.8	840.05	0.32
318.15	0.85	842.22	0.33
318.15	0.9	844.34	0.34
318.15	0.95	846.32	0.35
318.15	1	848.17	0.36

System: ethanol + ethyl hexanoate; phases: Liquid
Fixed: Pressure, kPa = 100.5
Property: Viscosity, Pa*s (Liquid); method: CAPTUB:UFactor:2
Temperature, K	Mole fraction of ethyl hexanoate	Viscosity, Pa*s	uncertainty
288.15	0	0.001337	1.9e-05
288.15	0.05	0.001241	1.8e-05
288.15	0.1	0.001182	1.8e-05
288.15	0.15	0.001139	1.7e-05
288.15	0.2	0.001106	1.7e-05
288.15	0.25	0.001082	1.7e-05
288.15	0.3	0.001062	1.7e-05
288.15	0.35	0.001051	1.7e-05
288.15	0.4	0.001045	1.7e-05
288.15	0.45	0.001039	1.7e-05
288.15	0.5	0.001037	1.7e-05
288.15	0.55	0.001038	1.7e-05
288.15	0.6	0.001039	1.7e-05
288.15	0.65	0.001045	1.7e-05
288.15	0.7	0.001048	1.7e-05
288.15	0.75	0.001054	1.7e-05
288.15	0.8	0.001064	1.7e-05
288.15	0.85	0.001073	1.7e-05
288.15	0.9	0.001086	1.7e-05
288.15	0.95	0.0011	1.7e-05
288.15	1	0.001102	1.7e-05
298.15	0	0.001105	1.7e-05
298.15	0.05	0.001031	1.7e-05
298.15	0.1	0.000982	1.6e-05
298.15	0.15	0.000948	1.6e-05
298.15	0.2	0.000926	1.6e-05
298.15	0.25	0.000909	1.6e-05
298.15	0.3	0.000897	1.6e-05
298.15	0.35	0.000889	1.6e-05
298.15	0.4	0.000883	1.6e-05
298.15	0.45	0.00088	1.6e-05
298.15	0.5	0.00088	1.6e-05
298.15	0.55	0.000882	1.6e-05
298.15	0.6	0.000888	1.6e-05
298.15	0.65	0.000892	1.6e-05
298.15	0.7	0.000896	1.6e-05
298.15	0.75	0.000902	1.6e-05
298.15	0.8	0.00091	1.6e-05
298.15	0.85	0.000919	1.6e-05
298.15	0.9	0.000929	1.6e-05
298.15	0.95	0.00094	1.6e-05
298.15	1	0.00094	1.6e-05
308.15	0	0.000921	1.6e-05
308.15	0.05	0.000866	1.6e-05
308.15	0.1	0.000829	1.5e-05
308.15	0.15	0.000806	1.5e-05
308.15	0.2	0.000789	1.5e-05
308.15	0.25	0.000777	1.5e-05
308.15	0.3	0.000769	1.5e-05
308.15	0.35	0.000763	1.5e-05
308.15	0.4	0.000759	1.5e-05
308.15	0.45	0.000758	1.5e-05
308.15	0.5	0.000759	1.5e-05
308.15	0.55	0.000761	1.5e-05
308.15	0.6	0.000765	1.5e-05
308.15	0.65	0.000767	1.5e-05
308.15	0.7	0.000773	1.5e-05
308.15	0.75	0.000779	1.5e-05
308.15	0.8	0.000786	1.5e-05
308.15	0.85	0.000794	1.5e-05
308.15	0.9	0.000803	1.5e-05
308.15	0.95	0.000815	1.5e-05
308.15	1	0.000814	1.5e-05
318.15	0	0.000771	1.5e-05
318.15	0.05	0.000732	1.5e-05
318.15	0.1	0.00071	1.5e-05
318.15	0.15	0.000691	1.5e-05
318.15	0.2	0.000676	1.4e-05
318.15	0.25	0.000667	1.4e-05
318.15	0.3	0.000662	1.4e-05
318.15	0.35	0.000659	1.4e-05
318.15	0.4	0.000657	1.4e-05
318.15	0.45	0.000657	1.4e-05
318.15	0.5	0.000658	1.4e-05
318.15	0.55	0.000662	1.4e-05
318.15	0.6	0.000665	1.4e-05
318.15	0.65	0.000668	1.4e-05
318.15	0.7	0.000674	1.4e-05
318.15	0.75	0.00068	1.5e-05
318.15	0.8	0.000686	1.5e-05
318.15	0.85	0.000694	1.5e-05
318.15	0.9	0.000703	1.5e-05
318.15	0.95	0.000712	1.5e-05
318.15	1	0.000711	1.5e-05

System: ethanol + ethyl hexanoate; phases: Liquid
Fixed: Pressure, kPa = 101
Property: Mass density, kg/m3 (Liquid); method: VIBTUB:UFactor:2
Temperature, K	Mole fraction of ethyl hexanoate	Mass density, kg/m3	uncertainty
288.15	0	793.6	0.23
288.15	0.05	804.18	0.23
288.15	0.1	812.99	0.22
288.15	0.15	820.54	0.22
288.15	0.2	827.14	0.22
288.15	0.25	832.89	0.21
288.15	0.3	837.94	0.21
288.15	0.35	842.47	0.21
288.15	0.4	846.5	0.21
288.15	0.45	850.15	0.21
288.15	0.5	853.47	0.21
288.15	0.55	856.51	0.21
288.15	0.6	859.28	0.21
288.15	0.65	861.84	0.21
288.15	0.7	864.22	0.21
288.15	0.75	866.43	0.21
288.15	0.8	868.48	0.21
288.15	0.85	870.41	0.22
288.15	0.9	872.22	0.22
288.15	0.95	873.99	0.22
288.15	1	875.64	0.22
298.15	0	785	0.24
298.15	0.05	795.44	0.23
298.15	0.1	804.11	0.23
298.15	0.15	811.53	0.22
298.15	0.2	818.05	0.22
298.15	0.25	823.72	0.22
298.15	0.3	828.72	0.22
298.15	0.35	833.2	0.22
298.15	0.4	837.18	0.22
298.15	0.45	840.82	0.22
298.15	0.5	844.11	0.22
298.15	0.55	847.12	0.22
298.15	0.6	849.88	0.22
298.15	0.65	852.43	0.22
298.15	0.7	854.82	0.22
298.15	0.75	857.02	0.22
298.15	0.8	859.09	0.22
298.15	0.85	861.04	0.22
298.15	0.9	862.86	0.22
298.15	0.95	864.66	0.22
298.15	1	866.29	0.22
308.15	0	776.31	0.24
308.15	0.05	786.59	0.24
308.15	0.1	795.12	0.23
308.15	0.15	802.42	0.23
308.15	0.2	808.85	0.23
308.15	0.25	814.44	0.22
308.15	0.3	819.38	0.22
308.15	0.35	823.82	0.22
308.15	0.4	827.76	0.22
308.15	0.45	831.37	0.22
308.15	0.5	834.63	0.22
308.15	0.55	837.64	0.22
308.15	0.6	840.39	0.22
308.15	0.65	842.94	0.22
308.15	0.7	845.33	0.22
308.15	0.75	847.54	0.22
308.15	0.8	849.63	0.22
308.15	0.85	851.59	0.22
308.15	0.9	853.45	0.23
308.15	0.95	855.27	0.23
308.15	1	856.91	0.23
318.15	0	767.44	0.25
318.15	0.05	777.58	0.24
318.15	0.1	785.96	0.24
318.15	0.15	793.14	0.23
318.15	0.2	799.48	0.23
318.15	0.25	805.01	0.23
318.15	0.3	809.89	0.23
318.15	0.35	814.29	0.23
318.15	0.4	818.2	0.23
318.15	0.45	821.8	0.23
318.15	0.5	825.05	0.23
318.15	0.55	828.05	0.23
318.15	0.6	830.79	0.23
318.15	0.65	833.34	0.23
318.15	0.7	835.75	0.23
318.15	0.75	837.97	0.23
318.15	0.8	840.08	0.23
318.15	0.85	842.07	0.23
318.15	0.9	843.97	0.23
318.15	0.95	845.83	0.23
318.15	1	847.5	0.23

System: ethanol + ethyl benzoate; phases: Liquid
Fixed: Pressure, kPa = 100.5
Property: Viscosity, Pa*s (Liquid); method: CAPTUB:UFactor:2
Temperature, K	Mole fraction of ethyl benzoate	Viscosity, Pa*s	uncertainty
288.15	0	0.001337	1.9e-05
288.15	0.05	0.001342	1.9e-05
288.15	0.1	0.00136	1.9e-05
288.15	0.15	0.001388	1.9e-05
288.15	0.2	0.001425	2e-05
288.15	0.25	0.001465	2e-05
288.15	0.3	0.00151	2e-05
288.15	0.35	0.001557	2.1e-05
288.15	0.4	0.001607	2.1e-05
288.15	0.45	0.001661	2.1e-05
288.15	0.5	0.001715	2.2e-05
288.15	0.55	0.001773	2.2e-05
288.15	0.6	0.001833	2.3e-05
288.15	0.65	0.001895	2.3e-05
288.15	0.7	0.001959	2.4e-05
288.15	0.75	0.002028	2.4e-05
288.15	0.8	0.002099	2.5e-05
288.15	0.85	0.002178	2.6e-05
288.15	0.9	0.002267	2.7e-05
288.15	0.95	0.002373	2.7e-05
288.15	1	0.002444	2.8e-05
298.15	0	0.001105	1.7e-05
298.15	0.05	0.001108	1.7e-05
298.15	0.1	0.001123	1.7e-05
298.15	0.15	0.001148	1.8e-05
298.15	0.2	0.001176	1.8e-05
298.15	0.25	0.001208	1.8e-05
298.15	0.3	0.001244	1.8e-05
298.15	0.35	0.001282	1.8e-05
298.15	0.4	0.001321	1.9e-05
298.15	0.45	0.001363	1.9e-05
298.15	0.5	0.001405	1.9e-05
298.15	0.55	0.001449	2e-05
298.15	0.6	0.001496	2e-05
298.15	0.65	0.001544	2.1e-05
298.15	0.7	0.001595	2.1e-05
298.15	0.75	0.001649	2.1e-05
298.15	0.8	0.001705	2.2e-05
298.15	0.85	0.001767	2.2e-05
298.15	0.9	0.001836	2.3e-05
298.15	0.95	0.001917	2.4e-05
298.15	1	0.001971	2.4e-05
308.15	0	0.000921	1.6e-05
308.15	0.05	0.000926	1.6e-05
308.15	0.1	0.000938	1.6e-05
308.15	0.15	0.000959	1.6e-05
308.15	0.2	0.000984	1.6e-05
308.15	0.25	0.001012	1.7e-05
308.15	0.3	0.001042	1.7e-05
308.15	0.35	0.001072	1.7e-05
308.15	0.4	0.001105	1.7e-05
308.15	0.45	0.001138	1.7e-05
308.15	0.5	0.001173	1.8e-05
308.15	0.55	0.001209	1.8e-05
308.15	0.6	0.001247	1.8e-05
308.15	0.65	0.001286	1.9e-05
308.15	0.7	0.001326	1.9e-05
308.15	0.75	0.00137	1.9e-05
308.15	0.8	0.001416	2e-05
308.15	0.85	0.001465	2e-05
308.15	0.9	0.001521	2e-05
308.15	0.95	0.001582	2.1e-05
308.15	1	0.001624	2.1e-05
318.15	0	0.000771	1.5e-05
318.15	0.05	0.000778	1.5e-05
318.15	0.1	0.000793	1.5e-05
318.15	0.15	0.000812	1.5e-05
318.15	0.2	0.000833	1.5e-05
318.15	0.25	0.000857	1.6e-05
318.15	0.3	0.000881	1.6e-05
318.15	0.35	0.000908	1.6e-05
318.15	0.4	0.000935	1.6e-05
318.15	0.45	0.000964	1.6e-05
318.15	0.5	0.000993	1.6e-05
318.15	0.55	0.001024	1.7e-05
318.15	0.6	0.001055	1.7e-05
318.15	0.65	0.001089	1.7e-05
318.15	0.7	0.001124	1.7e-05
318.15	0.75	0.001159	1.8e-05
318.15	0.8	0.001198	1.8e-05
318.15	0.85	0.001241	1.8e-05
318.15	0.9	0.001288	1.9e-05
318.15	0.95	0.001335	1.9e-05
318.15	1	0.001368	1.9e-05

System: ethanol + ethyl benzoate; phases: Liquid
Fixed: Pressure, kPa = 101
Property: Mass density, kg/m3 (Liquid); method: VIBTUB:UFactor:2
Temperature, K	Mole fraction of ethyl benzoate	Mass density, kg/m3	uncertainty
288.15	0	793.6	0.23
288.15	0.05	824.59	0.21
288.15	0.1	851.02	0.2
288.15	0.15	874.07	0.2
288.15	0.2	894.37	0.19
288.15	0.25	912.35	0.19
288.15	0.3	928.37	0.18
288.15	0.35	942.79	0.18
288.15	0.4	955.85	0.18
288.15	0.45	967.71	0.18
288.15	0.5	978.51	0.18
288.15	0.55	988.43	0.17
288.15	0.6	997.48	0.16
288.15	0.65	1005.91	0.16
288.15	0.7	1013.67	0.16
288.15	0.75	1020.94	0.16
288.15	0.8	1027.63	0.16
288.15	0.85	1033.99	0.16
288.15	0.9	1039.87	0.17
288.15	0.95	1045.45	0.17
288.15	1	1050.78	0.17
298.15	0	785	0.24
298.15	0.05	815.81	0.22
298.15	0.1	842.08	0.21
298.15	0.15	865.01	0.2
298.15	0.2	885.22	0.2
298.15	0.25	903.11	0.19
298.15	0.3	919.07	0.19
298.15	0.35	933.45	0.19
298.15	0.4	946.47	0.18
298.15	0.45	958.3	0.18
298.15	0.5	969.07	0.18
298.15	0.55	978.97	0.17
298.15	0.6	988.07	0.16
298.15	0.65	996.46	0.15
298.15	0.7	1004.22	0.15
298.15	0.75	1011.5	0.15
298.15	0.8	1018.2	0.16
298.15	0.85	1024.57	0.16
298.15	0.9	1030.48	0.16
298.15	0.95	1036.09	0.17
298.15	1	1041.42	0.17
308.15	0	776.31	0.24
308.15	0.05	806.92	0.23
308.15	0.1	833.03	0.21
308.15	0.15	855.84	0.21
308.15	0.2	875.95	0.2
308.15	0.25	893.77	0.2
308.15	0.3	909.68	0.19
308.15	0.35	924.02	0.19
308.15	0.4	937	0.19
308.15	0.45	948.81	0.18
308.15	0.5	959.57	0.18
308.15	0.55	969.46	0.17
308.15	0.6	978.54	0.16
308.15	0.65	986.94	0.16
308.15	0.7	994.7	0.15
308.15	0.75	1002.01	0.15
308.15	0.8	1008.72	0.15
308.15	0.85	1015.13	0.16
308.15	0.9	1021.06	0.16
308.15	0.95	1026.72	0.16
308.15	1	1032.07	0.17
318.15	0	767.44	0.25
318.15	0.05	797.88	0.23
318.15	0.1	823.84	0.22
318.15	0.15	846.52	0.21
318.15	0.2	866.54	0.2
318.15	0.25	884.29	0.2
318.15	0.3	900.15	0.2
318.15	0.35	914.45	0.19
318.15	0.4	927.41	0.19
318.15	0.45	939.2	0.19
318.15	0.5	949.95	0.19
318.15	0.55	959.84	0.17
318.15	0.6	968.93	0.17
318.15	0.65	977.35	0.16
318.15	0.7	985.12	0.15
318.15	0.75	992.45	0.15
318.15	0.8	999.19	0.15
318.15	0.85	1005.64	0.15
318.15	0.9	1011.62	0.15
318.15	0.95	1017.33	0.16
318.15	1	1022.73	0.16

System: ethanol + 3-methylbutyl butanoate; phases: Liquid
Fixed: Pressure, kPa = 100.5
Property: Viscosity, Pa*s (Liquid); method: CAPTUB:UFactor:2
Temperature, K	Mole fraction of 3-methylbutyl butanoate	Viscosity, Pa*s	uncertainty
288.15	0	0.001337	1.9e-05
288.15	0.05	0.00127	1.8e-05
288.15	0.1	0.001231	1.8e-05
288.15	0.15	0.001201	1.8e-05
288.15	0.2	0.001181	1.8e-05
288.15	0.25	0.001171	1.8e-05
288.15	0.3	0.001167	1.8e-05
288.15	0.35	0.001168	1.8e-05
288.15	0.4	0.00117	1.8e-05
288.15	0.45	0.001176	1.8e-05
288.15	0.5	0.001183	1.8e-05
288.15	0.55	0.001191	1.8e-05
288.15	0.6	0.001202	1.8e-05
288.15	0.65	0.001213	1.8e-05
288.15	0.7	0.001224	1.8e-05
288.15	0.75	0.001237	1.8e-05
288.15	0.8	0.001253	1.9e-05
288.15	0.85	0.001268	1.9e-05
288.15	0.9	0.001284	1.9e-05
288.15	0.95	0.001302	1.9e-05
288.15	1	0.001317	1.9e-05
298.15	0	0.001105	1.7e-05
298.15	0.05	0.001057	1.7e-05
298.15	0.1	0.001025	1.7e-05
298.15	0.15	0.001004	1.7e-05
298.15	0.2	0.000993	1.6e-05
298.15	0.25	0.000985	1.6e-05
298.15	0.3	0.00098	1.6e-05
298.15	0.35	0.00098	1.6e-05
298.15	0.4	0.000984	1.6e-05
298.15	0.45	0.000989	1.6e-05
298.15	0.5	0.000994	1.7e-05
298.15	0.55	0.001001	1.7e-05
298.15	0.6	0.00101	1.7e-05
298.15	0.65	0.001021	1.7e-05
298.15	0.7	0.001031	1.7e-05
298.15	0.75	0.001043	1.7e-05
298.15	0.8	0.001056	1.7e-05
298.15	0.85	0.001071	1.7e-05
298.15	0.9	0.001086	1.7e-05
298.15	0.95	0.001099	1.7e-05
298.15	1	0.001111	1.8e-05
308.15	0	0.000921	1.6e-05
308.15	0.05	0.000887	1.6e-05
308.15	0.1	0.000858	1.6e-05
308.15	0.15	0.000844	1.5e-05
308.15	0.2	0.000838	1.5e-05
308.15	0.25	0.000834	1.5e-05
308.15	0.3	0.000832	1.5e-05
308.15	0.35	0.000833	1.5e-05
308.15	0.4	0.000835	1.5e-05
308.15	0.45	0.00084	1.5e-05
308.15	0.5	0.000846	1.6e-05
308.15	0.55	0.000853	1.6e-05
308.15	0.6	0.000862	1.6e-05
308.15	0.65	0.000872	1.6e-05
308.15	0.7	0.000882	1.6e-05
308.15	0.75	0.000891	1.6e-05
308.15	0.8	0.000903	1.6e-05
308.15	0.85	0.000915	1.6e-05
308.15	0.9	0.000929	1.6e-05
308.15	0.95	0.000941	1.6e-05
308.15	1	0.000952	1.6e-05
318.15	0	0.000771	1.5e-05
318.15	0.05	0.000744	1.5e-05
318.15	0.1	0.000723	1.5e-05
318.15	0.15	0.000715	1.5e-05
318.15	0.2	0.000711	1.5e-05
318.15	0.25	0.00071	1.5e-05
318.15	0.3	0.00071	1.5e-05
318.15	0.35	0.000714	1.5e-05
318.15	0.4	0.000717	1.5e-05
318.15	0.45	0.000723	1.5e-05
318.15	0.5	0.000729	1.5e-05
318.15	0.55	0.000735	1.5e-05
318.15	0.6	0.000743	1.5e-05
318.15	0.65	0.000751	1.5e-05
318.15	0.7	0.00076	1.5e-05
318.15	0.75	0.00077	1.5e-05
318.15	0.8	0.000781	1.5e-05
318.15	0.85	0.000792	1.5e-05
318.15	0.9	0.000806	1.5e-05
318.15	0.95	0.000817	1.5e-05
318.15	1	0.000827	1.6e-05

System: ethanol + 3-methylbutyl butanoate; phases: Liquid
Fixed: Pressure, kPa = 101
Property: Mass density, kg/m3 (Liquid); method: VIBTUB:UFactor:2
Temperature, K	Mole fraction of 3-methylbutyl butanoate	Mass density, kg/m3	uncertainty
288.15	0	793.6	0.23
288.15	0.05	804.06	0.23
288.15	0.1	812.38	0.22
288.15	0.15	819.51	0.22
288.15	0.2	825.58	0.22
288.15	0.25	830.83	0.23
288.15	0.3	835.41	0.23
288.15	0.35	839.37	0.23
288.15	0.4	842.96	0.24
288.15	0.45	846.14	0.24
288.15	0.5	849.03	0.25
288.15	0.55	851.61	0.25
288.15	0.6	854.01	0.26
288.15	0.65	856.19	0.26
288.15	0.7	858.18	0.27
288.15	0.75	860.04	0.28
288.15	0.8	861.76	0.29
288.15	0.85	863.35	0.29
288.15	0.9	864.86	0.3
288.15	0.95	866.3	0.31
288.15	1	867.72	0.32
298.15	0	785	0.24
298.15	0.05	795.35	0.23
298.15	0.1	803.57	0.23
298.15	0.15	810.61	0.23
298.15	0.2	816.61	0.23
298.15	0.25	821.8	0.23
298.15	0.3	826.34	0.23
298.15	0.35	830.31	0.24
298.15	0.4	833.85	0.24
298.15	0.45	837.02	0.24
298.15	0.5	839.9	0.25
298.15	0.55	842.46	0.25
298.15	0.6	844.86	0.26
298.15	0.65	847.05	0.27
298.15	0.7	849.04	0.27
298.15	0.75	850.92	0.28
298.15	0.8	852.65	0.29
298.15	0.85	854.28	0.29
298.15	0.9	855.81	0.3
298.15	0.95	857.28	0.31
298.15	1	858.69	0.32
308.15	0	776.31	0.24
308.15	0.05	786.52	0.24
308.15	0.1	794.63	0.24
308.15	0.15	801.58	0.23
308.15	0.2	807.52	0.23
308.15	0.25	812.66	0.24
308.15	0.3	817.17	0.24
308.15	0.35	821.11	0.24
308.15	0.4	824.64	0.24
308.15	0.45	827.79	0.25
308.15	0.5	830.66	0.25
308.15	0.55	833.24	0.26
308.15	0.6	835.64	0.26
308.15	0.65	837.84	0.27
308.15	0.7	839.85	0.28
308.15	0.75	841.74	0.28
308.15	0.8	843.5	0.29
308.15	0.85	845.15	0.3
308.15	0.9	846.71	0.3
308.15	0.95	848.22	0.31
308.15	1	849.62	0.32
318.15	0	767.44	0.25
318.15	0.05	777.54	0.24
318.15	0.1	785.54	0.24
318.15	0.15	792.4	0.24
318.15	0.2	798.28	0.24
318.15	0.25	803.38	0.24
318.15	0.3	807.86	0.24
318.15	0.35	811.78	0.25
318.15	0.4	815.3	0.25
318.15	0.45	818.44	0.25
318.15	0.5	821.32	0.26
318.15	0.55	823.9	0.26
318.15	0.6	826.33	0.27
318.15	0.65	828.54	0.27
318.15	0.7	830.57	0.28
318.15	0.75	832.49	0.28
318.15	0.8	834.28	0.29
318.15	0.85	835.96	0.3
318.15	0.9	837.56	0.31
318.15	0.95	839.12	0.31
318.15	1	840.55	0.32

System: ethanol + ethyl phenylacetate; phases: Liquid
Fixed: Pressure, kPa = 100.5
Property: Viscosity, Pa*s (Liquid); method: CAPTUB:UFactor:2
Temperature, K	Mole fraction of ethyl phenylacetate	Viscosity, Pa*s	uncertainty
288.15	0	0.001337	1.9e-05
288.15	0.05	0.001366	1.9e-05
288.15	0.1	0.001393	1.9e-05
288.15	0.15	0.001447	2e-05
288.15	0.2	0.001513	2e-05
288.15	0.25	0.001584	2.1e-05
288.15	0.3	0.001663	2.2e-05
288.15	0.35	0.001742	2.2e-05
288.15	0.4	0.001822	2.3e-05
288.15	0.45	0.001904	2.4e-05
288.15	0.5	0.001989	2.4e-05
288.15	0.55	0.002076	2.5e-05
288.15	0.6	0.002164	2.6e-05
288.15	0.65	0.002255	2.7e-05
288.15	0.7	0.002348	2.8e-05
288.15	0.75	0.002446	2.9e-05
288.15	0.8	0.002555	3e-05
288.15	0.85	0.002672	3.1e-05
288.15	0.9	0.00279	3.2e-05
288.15	0.95	0.002919	3.4e-05
288.15	1	0.003002	3.5e-05
298.15	0	0.001105	1.7e-05
298.15	0.05	0.001127	1.7e-05
298.15	0.1	0.001151	1.8e-05
298.15	0.15	0.001195	1.8e-05
298.15	0.2	0.001244	1.8e-05
298.15	0.25	0.001298	1.9e-05
298.15	0.3	0.001357	1.9e-05
298.15	0.35	0.001418	2e-05
298.15	0.4	0.001479	2e-05
298.15	0.45	0.001543	2.1e-05
298.15	0.5	0.00161	2.1e-05
298.15	0.55	0.001677	2.2e-05
298.15	0.6	0.001747	2.2e-05
298.15	0.65	0.001821	2.3e-05
298.15	0.7	0.001895	2.4e-05
298.15	0.75	0.001974	2.4e-05
298.15	0.8	0.002053	2.5e-05
298.15	0.85	0.00214	2.6e-05
298.15	0.9	0.00223	2.7e-05
298.15	0.95	0.00233	2.8e-05
298.15	1	0.002384	2.8e-05
308.15	0	0.000921	1.6e-05
308.15	0.05	0.000947	1.6e-05
308.15	0.1	0.000967	1.6e-05
308.15	0.15	0.001003	1.7e-05
308.15	0.2	0.001044	1.7e-05
308.15	0.25	0.001089	1.7e-05
308.15	0.3	0.001138	1.7e-05
308.15	0.35	0.001188	1.8e-05
308.15	0.4	0.001239	1.8e-05
308.15	0.45	0.001292	1.9e-05
308.15	0.5	0.001344	1.9e-05
308.15	0.55	0.001399	2e-05
308.15	0.6	0.001455	2e-05
308.15	0.65	0.001513	2e-05
308.15	0.7	0.001571	2.1e-05
308.15	0.75	0.001635	2.2e-05
308.15	0.8	0.001702	2.2e-05
308.15	0.85	0.001772	2.3e-05
308.15	0.9	0.001847	2.3e-05
308.15	0.95	0.001914	2.4e-05
308.15	1	0.001948	2.4e-05
318.15	0	0.000771	1.5e-05
318.15	0.05	0.000798	1.5e-05
318.15	0.1	0.000823	1.5e-05
318.15	0.15	0.000855	1.6e-05
318.15	0.2	0.000891	1.6e-05
318.15	0.25	0.00093	1.6e-05
318.15	0.3	0.000971	1.6e-05
318.15	0.35	0.001012	1.7e-05
318.15	0.4	0.001055	1.7e-05
318.15	0.45	0.001099	1.7e-05
318.15	0.5	0.001145	1.8e-05
318.15	0.55	0.001191	1.8e-05
318.15	0.6	0.001238	1.8e-05
318.15	0.65	0.001286	1.9e-05
318.15	0.7	0.001336	1.9e-05
318.15	0.75	0.001387	2e-05
318.15	0.8	0.001441	2e-05
318.15	0.85	0.001498	2e-05
318.15	0.9	0.001558	2.1e-05
318.15	0.95	0.001605	2.1e-05
318.15	1	0.001624	2.2e-05

System: ethanol + ethyl phenylacetate; phases: Liquid
Fixed: Pressure, kPa = 101
Property: Mass density, kg/m3 (Liquid); method: VIBTUB:UFactor:2
Temperature, K	Mole fraction of ethyl phenylacetate	Mass density, kg/m3	uncertainty
288.15	0	793.6	0.23
288.15	0.05	825.34	0.22
288.15	0.1	852	0.21
288.15	0.15	874.72	0.2
288.15	0.2	894.42	0.2
288.15	0.25	911.6	0.2
288.15	0.3	926.72	0.21
288.15	0.35	940.14	0.21
288.15	0.4	952.17	0.22
288.15	0.45	963.02	0.22
288.15	0.5	972.79	0.23
288.15	0.55	981.67	0.23
288.15	0.6	989.81	0.24
288.15	0.65	997.27	0.25
288.15	0.7	1004.13	0.26
288.15	0.75	1010.49	0.27
288.15	0.8	1016.36	0.28
288.15	0.85	1021.84	0.3
288.15	0.9	1026.95	0.31
288.15	0.95	1031.75	0.33
288.15	1	1036.35	0.34
298.15	0	785	0.24
298.15	0.05	816.54	0.22
298.15	0.1	843.05	0.21
298.15	0.15	865.65	0.21
298.15	0.2	885.25	0.21
298.15	0.25	902.37	0.21
298.15	0.3	917.42	0.21
298.15	0.35	930.79	0.21
298.15	0.4	942.79	0.22
298.15	0.45	953.61	0.23
298.15	0.5	963.35	0.23
298.15	0.55	972.24	0.24
298.15	0.6	980.37	0.24
298.15	0.65	987.81	0.25
298.15	0.7	994.68	0.26
298.15	0.75	1001.03	0.27
298.15	0.8	1006.93	0.28
298.15	0.85	1012.41	0.29
298.15	0.9	1017.55	0.31
298.15	0.95	1022.36	0.32
298.15	1	1026.96	0.33
308.15	0	776.31	0.24
308.15	0.05	807.65	0.23
308.15	0.1	834	0.22
308.15	0.15	856.49	0.21
308.15	0.2	875.99	0.21
308.15	0.25	893.03	0.21
308.15	0.3	908.03	0.21
308.15	0.35	921.36	0.22
308.15	0.4	933.33	0.22
308.15	0.45	944.13	0.23
308.15	0.5	953.86	0.23
308.15	0.55	962.73	0.24
308.15	0.6	970.86	0.24
308.15	0.65	978.31	0.25
308.15	0.7	985.19	0.26
308.15	0.75	991.56	0.27
308.15	0.8	997.48	0.28
308.15	0.85	1002.97	0.29
308.15	0.9	1008.14	0.3
308.15	0.95	1012.99	0.32
308.15	1	1017.6	0.33
318.15	0	767.44	0.25
318.15	0.05	798.61	0.23
318.15	0.1	824.82	0.22
318.15	0.15	847.17	0.22
318.15	0.2	866.6	0.22
318.15	0.25	883.57	0.22
318.15	0.3	898.52	0.22
318.15	0.35	911.82	0.22
318.15	0.4	923.77	0.22
318.15	0.45	934.56	0.23
318.15	0.5	944.28	0.24
318.15	0.55	953.16	0.24
318.15	0.6	961.29	0.24
318.15	0.65	968.75	0.25
318.15	0.7	975.65	0.26
318.15	0.75	982.04	0.27
318.15	0.8	987.98	0.28
318.15	0.85	993.53	0.29
318.15	0.9	998.73	0.3
318.15	0.95	1003.61	0.31
318.15	1	1008.26	0.33

System: ethanol + ethyl octanoate; phases: Liquid
Fixed: Pressure, kPa = 100.5
Property: Viscosity, Pa*s (Liquid); method: CAPTUB:UFactor:2
Temperature, K	Mole fraction of ethyl octanoate	Viscosity, Pa*s	uncertainty
288.15	0	0.001337	1.9e-05
288.15	0.05	0.001322	1.9e-05
288.15	0.1	0.001299	1.9e-05
288.15	0.15	0.001306	1.9e-05
288.15	0.2	0.00132	1.9e-05
288.15	0.25	0.001337	1.9e-05
288.15	0.3	0.001356	1.9e-05
288.15	0.35	0.001375	1.9e-05
288.15	0.4	0.001398	1.9e-05
288.15	0.45	0.00142	2e-05
288.15	0.5	0.001443	2e-05
288.15	0.55	0.001468	2e-05
288.15	0.6	0.001492	2e-05
288.15	0.65	0.001517	2e-05
288.15	0.7	0.001542	2.1e-05
288.15	0.75	0.001568	2.1e-05
288.15	0.8	0.001595	2.1e-05
288.15	0.85	0.001623	2.1e-05
288.15	0.9	0.001649	2.2e-05
288.15	0.95	0.001673	2.2e-05
288.15	1	0.001697	2.2e-05
298.15	0	0.001105	1.7e-05
298.15	0.05	0.001094	1.7e-05
298.15	0.1	0.001081	1.7e-05
298.15	0.15	0.001087	1.7e-05
298.15	0.2	0.001098	1.7e-05
298.15	0.25	0.001112	1.7e-05
298.15	0.3	0.001129	1.7e-05
298.15	0.35	0.001145	1.8e-05
298.15	0.4	0.001164	1.8e-05
298.15	0.45	0.001183	1.8e-05
298.15	0.5	0.001202	1.8e-05
298.15	0.55	0.001222	1.8e-05
298.15	0.6	0.001242	1.8e-05
298.15	0.65	0.001262	1.8e-05
298.15	0.7	0.001284	1.9e-05
298.15	0.75	0.001306	1.9e-05
298.15	0.8	0.001327	1.9e-05
298.15	0.85	0.00135	1.9e-05
298.15	0.9	0.001371	1.9e-05
298.15	0.95	0.001391	2e-05
298.15	1	0.001411	2e-05
308.15	0	0.000921	1.6e-05
308.15	0.05	0.000915	1.6e-05
308.15	0.1	0.000907	1.6e-05
308.15	0.15	0.000915	1.6e-05
308.15	0.2	0.000926	1.6e-05
308.15	0.25	0.00094	1.6e-05
308.15	0.3	0.000953	1.6e-05
308.15	0.35	0.000969	1.6e-05
308.15	0.4	0.000984	1.6e-05
308.15	0.45	0.001	1.7e-05
308.15	0.5	0.001016	1.7e-05
308.15	0.55	0.001033	1.7e-05
308.15	0.6	0.00105	1.7e-05
308.15	0.65	0.001068	1.7e-05
308.15	0.7	0.001085	1.7e-05
308.15	0.75	0.001103	1.7e-05
308.15	0.8	0.001121	1.7e-05
308.15	0.85	0.00114	1.8e-05
308.15	0.9	0.001159	1.8e-05
308.15	0.95	0.001177	1.8e-05
308.15	1	0.001193	1.8e-05
318.15	0	0.000771	1.5e-05
318.15	0.05	0.000772	1.5e-05
318.15	0.1	0.000773	1.5e-05
318.15	0.15	0.00078	1.5e-05
318.15	0.2	0.000791	1.5e-05
318.15	0.25	0.000804	1.5e-05
318.15	0.3	0.000817	1.5e-05
318.15	0.35	0.000831	1.5e-05
318.15	0.4	0.000844	1.6e-05
318.15	0.45	0.000859	1.6e-05
318.15	0.5	0.000873	1.6e-05
318.15	0.55	0.000888	1.6e-05
318.15	0.6	0.000903	1.6e-05
318.15	0.65	0.000917	1.6e-05
318.15	0.7	0.000933	1.6e-05
318.15	0.75	0.000948	1.6e-05
318.15	0.8	0.000964	1.6e-05
318.15	0.85	0.000979	1.6e-05
318.15	0.9	0.000996	1.7e-05
318.15	0.95	0.001013	1.7e-05
318.15	1	0.001027	1.7e-05

System: ethanol + ethyl octanoate; phases: Liquid
Fixed: Pressure, kPa = 101
Property: Mass density, kg/m3 (Liquid); method: VIBTUB:UFactor:2
Temperature, K	Mole fraction of ethyl octanoate	Mass density, kg/m3	uncertainty
288.15	0	793.6	0.23
288.15	0.05	805.14	0.23
288.15	0.1	814.37	0.22
288.15	0.15	822.04	0.22
288.15	0.2	828.52	0.22
288.15	0.25	833.98	0.22
288.15	0.3	838.69	0.22
288.15	0.35	842.77	0.22
288.15	0.4	846.39	0.23
288.15	0.45	849.59	0.23
288.15	0.5	852.45	0.23
288.15	0.55	855.04	0.24
288.15	0.6	857.4	0.24
288.15	0.65	859.54	0.24
288.15	0.7	861.52	0.25
288.15	0.75	863.4	0.25
288.15	0.8	865.13	0.26
288.15	0.85	866.72	0.26
288.15	0.9	868.19	0.27
288.15	0.95	869.6	0.28
288.15	1	870.79	0.28
298.15	0	785	0.24
298.15	0.05	796.5	0.23
298.15	0.1	805.66	0.23
298.15	0.15	813.27	0.23
298.15	0.2	819.74	0.23
298.15	0.25	825.17	0.23
298.15	0.3	829.87	0.23
298.15	0.35	833.94	0.23
298.15	0.4	837.55	0.23
298.15	0.45	840.77	0.23
298.15	0.5	843.63	0.24
298.15	0.55	846.23	0.24
298.15	0.6	848.6	0.24
298.15	0.65	850.77	0.25
298.15	0.7	852.76	0.25
298.15	0.75	854.68	0.26
298.15	0.8	856.41	0.26
298.15	0.85	858	0.27
298.15	0.9	859.5	0.27
298.15	0.95	860.93	0.28
298.15	1	862.15	0.29
308.15	0	776.31	0.24
308.15	0.05	787.73	0.24
308.15	0.1	796.82	0.23
308.15	0.15	804.39	0.23
308.15	0.2	810.84	0.23
308.15	0.25	816.25	0.23
308.15	0.3	820.94	0.23
308.15	0.35	825.02	0.23
308.15	0.4	828.63	0.23
308.15	0.45	831.86	0.24
308.15	0.5	834.72	0.24
308.15	0.55	837.34	0.24
308.15	0.6	839.72	0.25
308.15	0.65	841.92	0.25
308.15	0.7	843.94	0.25
308.15	0.75	845.88	0.26
308.15	0.8	847.64	0.26
308.15	0.85	849.25	0.27
308.15	0.9	850.78	0.27
308.15	0.95	852.26	0.28
308.15	1	853.52	0.29
318.15	0	767.44	0.25
318.15	0.05	778.81	0.24
318.15	0.1	787.83	0.24
318.15	0.15	795.36	0.24
318.15	0.2	801.79	0.24
318.15	0.25	807.19	0.24
318.15	0.3	811.88	0.24
318.15	0.35	815.96	0.24
318.15	0.4	819.58	0.24
318.15	0.45	822.83	0.24
318.15	0.5	825.71	0.24
318.15	0.55	828.36	0.25
318.15	0.6	830.77	0.25
318.15	0.65	832.99	0.25
318.15	0.7	835.05	0.26
318.15	0.75	837.01	0.26
318.15	0.8	838.81	0.27
318.15	0.85	840.47	0.27
318.15	0.9	842.05	0.28
318.15	0.95	843.57	0.28
318.15	1	844.87	0.29
