Measured thermophysical data. Compressed Liquid Densities and Excess Volumes of CO2 + Decane Mixtures from (313 to 363) K and Pressures up to 25 MPa
Source: J. Chem. Eng. Data, 2005, 10.1021/je050020m
Compound 1: decane, C10H22, InChI=1S/C10H22/c1-3-5-7-9-10-8-6-4-2/h3-10H2,1-2H3, purity 99%
Compound 2: carbon dioxide, CO2, InChI=1S/CO2/c2-1-3, purity 99.995%

System: decane; phases: Liquid
Property: Mass density, kg/m3 (Liquid); method: Vibrating tube method
Temperature, K	Pressure, kPa	Mass density, kg/m3	uncertainty
313.09	1048	715.63	0.56
313.09	2010	716.43	0.56
313.09	2997	717.28	0.56
313.09	4060	718.18	0.57
313.09	5029	718.98	0.57
313.09	6019	719.8	0.57
313.09	7016	720.64	0.58
313.09	8050	721.47	0.58
313.09	9000	722.24	0.58
313.09	10029	723.06	0.59
313.09	11016	723.85	0.59
313.09	12012	724.63	0.6
313.09	13027	725.4	0.6
313.09	14011	726.15	0.6
313.09	15010	726.91	0.61
313.09	16030	727.65	0.61
313.09	17016	728.38	0.62
313.09	18037	729.1	0.62
313.09	19000	729.81	0.63
313.09	20019	730.5	0.63
313.09	21014	731.21	0.63
313.09	22032	731.92	0.64
313.09	23021	732.62	0.64
313.09	24016	733.33	0.65
313.09	25012	734.06	0.65
323.03	1025	707.94	0.56
323.03	2017	708.85	0.56
323.03	3015	709.76	0.56
323.03	4018	710.65	0.57
323.03	5022	711.53	0.57
323.03	6021	712.41	0.57
323.03	7018	713.31	0.58
323.03	8022	714.15	0.58
323.03	9016	715.01	0.58
323.03	10012	715.84	0.59
323.03	11022	716.67	0.59
323.03	12015	717.51	0.6
323.03	13020	718.33	0.6
323.03	14011	719.12	0.6
323.03	15010	719.9	0.61
323.03	16019	720.71	0.61
323.03	17010	721.46	0.62
323.03	18013	722.22	0.62
323.03	19033	723	0.63
323.03	20022	723.74	0.63
323.03	21014	724.45	0.64
323.03	22023	725.22	0.64
323.03	23025	725.93	0.65
323.03	24016	726.68	0.65
323.03	25021	727.42	0.66
332.95	1022	700.4	0.56
332.95	2005	701.33	0.56
332.95	3025	702.32	0.56
332.95	4025	703.25	0.56
332.95	5018	704.2	0.57
332.95	6018	705.12	0.57
332.95	7019	706.08	0.58
332.95	8023	706.96	0.58
332.95	9021	707.89	0.58
332.95	10017	708.78	0.59
332.95	11033	709.68	0.59
332.95	12023	710.54	0.6
332.95	13009	711.42	0.6
332.95	14016	712.21	0.6
332.95	15025	713.05	0.61
332.95	16011	713.87	0.61
332.95	17017	714.69	0.62
332.95	18016	715.5	0.62
332.95	19015	716.28	0.63
332.95	20029	717.09	0.63
332.95	21001	717.84	0.64
332.95	22034	718.63	0.64
332.95	23017	719.41	0.65
332.95	24023	720.18	0.65
332.95	25002	720.95	0.66
343.8	1014	692.56	0.55
343.8	2027	693.64	0.56
343.8	3016	694.64	0.56
343.8	4020	695.65	0.56
343.8	5016	696.67	0.57
343.8	6019	697.68	0.57
343.8	7026	698.66	0.58
343.8	8022	699.65	0.58
343.8	9014	700.58	0.58
343.8	10017	701.53	0.59
343.8	11022	702.48	0.59
343.8	12021	703.39	0.6
343.8	13011	704.27	0.6
343.8	14013	705.16	0.61
343.8	15025	706.05	0.61
343.8	16019	706.94	0.61
343.8	17010	707.79	0.62
343.8	18023	708.61	0.62
343.8	19030	709.47	0.63
343.8	20008	710.25	0.64
343.8	21017	711.1	0.64
343.8	22035	711.92	0.65
343.8	23004	712.73	0.65
343.8	24008	713.53	0.66
343.8	25103	714.44	0.66
352.71	2132	686.04	0.56
352.71	3053	687.07	0.56
352.71	4028	688.15	0.56
352.71	5028	689.19	0.57
352.71	6065	690.28	0.57
352.71	7007	691.26	0.57
352.71	8041	692.36	0.58
352.71	9064	693.4	0.58
352.71	10047	694.38	0.59
352.71	11019	695.38	0.59
352.71	12012	696.31	0.6
352.71	13031	697.31	0.6
352.71	14010	698.18	0.61
352.71	15014	699.14	0.61
352.71	16012	700.05	0.62
352.71	17008	700.95	0.62
352.71	17959	701.8	0.63
352.71	19020	702.7	0.63
352.71	20044	703.6	0.64
352.71	21044	704.46	0.64
352.71	22024	705.31	0.65
352.71	23009	706.13	0.65
352.71	24014	707	0.66
352.71	25000	707.86	0.66
362.63	2054	678.23	0.55
362.63	3010	679.34	0.56
362.63	4132	680.68	0.56
362.63	5020	681.68	0.57
362.63	6026	682.79	0.57
362.63	7042	683.95	0.57
362.63	8057	685.06	0.58
362.63	9014	686.08	0.58
362.63	10034	687.17	0.59
362.63	10999	688.24	0.59
362.63	12014	689.26	0.6
362.63	13025	690.26	0.6
362.63	13992	691.22	0.61
362.63	15019	692.24	0.61
362.63	16004	693.18	0.62
362.63	17008	694.11	0.62
362.63	18002	695.04	0.63
362.63	19037	696.02	0.63
362.63	20027	696.93	0.64
362.63	21030	697.8	0.64
362.63	22003	698.73	0.65
362.63	23027	699.61	0.66
362.63	24046	700.55	0.66
362.63	25011	701.39	0.67

System: decane + carbon dioxide; phases: Liquid
Property: Mass density, kg/m3 (Liquid); method: Vibrating tube method
Temperature, K	Mole fraction of carbon dioxide	Pressure, kPa	Mass density, kg/m3	uncertainty
313.1	0.0551	2005	717.94	0.55
313.1	0.0551	3035	718.98	0.55
313.1	0.0551	4061	719.88	0.56
313.1	0.0551	5063	720.72	0.56
313.1	0.0551	6029	721.55	0.56
313.1	0.0551	7028	722.42	0.57
313.1	0.0551	7998	723.25	0.57
313.1	0.0551	9019	724.09	0.57
313.1	0.0551	10010	724.92	0.58
313.1	0.0551	11032	725.72	0.58
313.1	0.0551	12046	726.55	0.58
313.1	0.0551	13029	727.32	0.59
313.1	0.0551	14011	728.1	0.59
313.1	0.0551	15013	728.84	0.6
313.1	0.0551	15992	729.58	0.6
313.1	0.0551	16999	730.32	0.6
313.1	0.0551	18044	731.13	0.61
313.1	0.0551	19030	731.85	0.61
313.1	0.0551	19999	732.57	0.62
313.1	0.0551	21031	733.3	0.62
313.1	0.0551	22015	734	0.63
313.1	0.0551	23023	734.74	0.63
313.1	0.0551	24060	735.5	0.64
313.1	0.0551	25026	736.2	0.64
313.1	0.2369	5020	728.09	0.52
313.1	0.2369	6029	729.09	0.52
313.1	0.2369	7015	730.07	0.53
313.1	0.2369	8019	731.05	0.53
313.1	0.2369	9012	732.01	0.53
313.1	0.2369	10012	732.96	0.54
313.1	0.2369	11018	733.88	0.54
313.1	0.2369	12009	734.8	0.55
313.1	0.2369	13016	735.72	0.55
313.1	0.2369	14019	736.6	0.55
313.1	0.2369	15006	737.46	0.56
313.1	0.2369	16017	738.34	0.56
313.1	0.2369	17006	739.17	0.57
313.1	0.2369	18008	740.01	0.57
313.1	0.2369	19016	740.85	0.58
313.1	0.2369	20000	741.67	0.58
313.1	0.2369	21019	742.51	0.58
313.1	0.2369	22002	743.29	0.59
313.1	0.2369	23007	744.12	0.59
313.1	0.2369	24008	744.96	0.6
313.1	0.2369	25013	745.78	0.6
313.11	0.4536	7015	742.3	0.49
313.11	0.4536	8024	743.57	0.49
313.11	0.4536	9021	744.82	0.5
313.11	0.4536	10024	746.02	0.5
313.11	0.4536	11020	747.22	0.51
313.11	0.4536	12022	748.39	0.51
313.11	0.4536	13012	749.55	0.51
313.11	0.4536	14017	750.69	0.52
313.11	0.4536	15020	751.81	0.52
313.11	0.4536	16020	752.93	0.52
313.11	0.4536	17013	753.99	0.53
313.11	0.4536	18019	755.06	0.53
313.11	0.4536	19014	756.08	0.54
313.11	0.4536	20018	757.13	0.54
313.11	0.4536	21018	758.18	0.54
313.11	0.4536	22006	759.18	0.55
313.11	0.4536	23003	760.18	0.55
313.11	0.4536	24023	761.23	0.56
313.11	0.4536	25010	762.23	0.58
313.11	0.9663	11029	714.21	1.01
313.11	0.9663	12037	738.68	0.84
313.11	0.9663	13049	758.54	0.75
313.11	0.9663	14020	774.43	0.69
313.11	0.9663	15013	788.48	0.65
313.11	0.9663	16007	800.98	0.62
313.11	0.9663	17027	812.43	0.59
313.11	0.9663	17984	822.21	0.58
313.11	0.9663	19037	832.11	0.56
313.11	0.9663	20002	840.48	0.55
313.11	0.9663	21015	848.66	0.55
313.11	0.9663	22023	856.28	0.54
313.11	0.9663	23021	863.4	0.53
313.11	0.9663	24063	870.36	0.53
313.11	0.9663	24976	876.18	0.52
313.12	0.8114	12053	782.82	0.67
313.12	0.8114	13017	785.68	0.46
313.12	0.8114	14021	788.54	0.47
313.12	0.8114	15103	791.51	0.47
313.12	0.8114	15990	793.84	0.47
313.12	0.8114	16981	796.39	0.48
313.12	0.8114	17993	798.92	0.48
313.12	0.8114	19038	801.45	0.49
313.12	0.8114	20009	803.73	0.49
313.12	0.8114	21018	806.06	0.5
313.12	0.8114	22020	808.29	0.5
313.12	0.8114	22999	810.42	0.5
313.12	0.8114	24019	812.6	0.51
313.12	0.8114	25017	814.7	0.61
323.04	0.8114	12005	762.12	0.77
323.04	0.8114	13009	765.56	0.48
323.04	0.8114	14026	769	0.48
323.04	0.8114	15008	772.02	0.49
323.04	0.8114	16046	775.13	0.49
323.04	0.8114	17018	777.99	0.49
323.04	0.8114	18002	780.75	0.49
323.04	0.8114	19025	783.58	0.49
323.04	0.8114	20031	786.22	0.49
323.04	0.8114	21047	788.86	0.5
323.04	0.8114	21988	791.16	0.5
323.04	0.8114	22999	793.66	0.5
323.04	0.8114	24016	796.11	0.5
323.04	0.8114	25054	798.55	0.51
323.04	0.9663	11016	580.54	1.31
323.04	0.9663	12030	636.15	1.14
323.04	0.9663	13015	672.02	0.91
323.04	0.9663	14007	698.83	0.8
323.04	0.9663	15021	721.04	0.72
323.04	0.9663	16018	739.12	0.67
323.04	0.9663	17026	754.76	0.64
323.04	0.9663	18010	768.22	0.62
323.04	0.9663	19001	780.23	0.6
323.04	0.9663	20025	791.43	0.58
323.04	0.9663	21021	801.33	0.57
323.04	0.9663	22023	810.55	0.56
323.04	0.9663	23026	819.05	0.55
323.04	0.9663	24036	827.07	0.55
323.04	0.9663	25030	834.47	0.54
323.05	0.0551	1989	710.33	0.55
323.05	0.0551	3015	711.28	0.55
323.05	0.0551	3984	712.18	0.55
323.05	0.0551	5002	713.14	0.56
323.05	0.0551	6010	714.04	0.56
323.05	0.0551	7043	714.97	0.56
323.05	0.0551	8018	715.86	0.57
323.05	0.0551	9009	716.73	0.57
323.05	0.0551	10008	717.66	0.58
323.05	0.0551	11036	718.47	0.58
323.05	0.0551	11995	719.35	0.58
323.05	0.0551	13035	720.16	0.59
323.05	0.0551	14026	721.01	0.59
323.05	0.0551	15008	721.76	0.6
323.05	0.0551	16035	722.62	0.6
323.05	0.0551	17008	723.4	0.61
323.05	0.0551	18019	724.22	0.61
323.05	0.0551	18994	724.89	0.61
323.05	0.0551	20009	725.73	0.62
323.05	0.0551	21010	726.47	0.62
323.05	0.0551	21987	727.22	0.63
323.05	0.0551	23060	728.04	0.63
323.05	0.0551	23980	728.74	0.64
323.05	0.0551	25055	729.61	0.64
323.06	0.2369	5014	719.6	0.52
323.06	0.2369	6022	720.66	0.52
323.06	0.2369	7021	721.73	0.53
323.06	0.2369	8020	722.8	0.53
323.06	0.2369	9010	723.79	0.54
323.06	0.2369	10030	724.84	0.54
323.06	0.2369	11018	725.81	0.54
323.06	0.2369	12021	726.78	0.55
323.06	0.2369	13001	727.75	0.55
323.06	0.2369	14021	728.7	0.56
323.06	0.2369	15014	729.63	0.56
323.06	0.2369	16010	730.54	0.56
323.06	0.2369	17006	731.46	0.57
323.06	0.2369	18028	732.36	0.57
323.06	0.2369	19016	733.24	0.58
323.06	0.2369	20015	734.11	0.58
323.06	0.2369	21027	735	0.59
323.06	0.2369	22023	735.85	0.59
323.06	0.2369	23022	736.71	0.6
323.06	0.2369	24006	737.58	0.6
323.06	0.2369	25004	738.42	0.61
323.06	0.4536	7029	732.05	0.49
323.06	0.4536	8017	733.42	0.49
323.06	0.4536	9018	734.79	0.56
323.06	0.4536	10024	736.13	0.52
323.06	0.4536	11019	737.41	0.51
323.06	0.4536	12025	738.69	0.51
323.06	0.4536	13003	739.89	0.51
323.06	0.4536	14027	741.16	0.52
323.06	0.4536	15001	742.33	0.52
323.06	0.4536	16024	743.53	0.53
323.06	0.4536	17010	744.68	0.53
323.06	0.4536	18030	745.84	0.53
323.06	0.4536	19000	746.93	0.54
323.06	0.4536	20028	748.09	0.54
323.06	0.4536	21001	749.17	0.55
323.06	0.4536	22020	750.24	0.55
323.06	0.4536	23012	751.33	0.56
323.06	0.4536	24021	752.42	0.56
323.06	0.4536	25029	753.51	0.57
332.91	0.8114	12008	740.55	1.88
332.91	0.8114	13051	744.82	0.5
332.91	0.8114	14018	748.57	0.5
332.91	0.8114	15048	752.37	0.5
332.91	0.8114	15985	755.64	0.5
332.91	0.8114	17015	759.04	0.5
332.91	0.8114	18008	762.27	0.5
332.91	0.8114	19002	765.33	0.5
332.91	0.8114	20017	768.38	0.5
332.91	0.8114	21018	771.25	0.51
332.91	0.8114	22044	774.13	0.51
332.91	0.8114	23040	776.83	0.51
332.91	0.8114	24008	779.4	0.51
332.91	0.8114	25047	782.09	0.52
332.94	0.0551	1997	702.61	0.55
332.94	0.0551	3024	703.63	0.55
332.94	0.0551	4011	704.59	0.55
332.94	0.0551	5040	705.62	0.56
332.94	0.0551	6062	706.62	0.56
332.94	0.0551	7009	707.53	0.56
332.94	0.0551	7978	708.43	0.57
332.94	0.0551	9037	709.44	0.57
332.94	0.0551	9992	710.31	0.58
332.94	0.0551	11032	711.27	0.58
332.94	0.0551	12013	712.13	0.58
332.94	0.0551	13027	713.03	0.59
332.94	0.0551	14018	713.89	0.59
332.94	0.0551	15021	714.75	0.6
332.94	0.0551	15997	715.59	0.6
332.94	0.0551	16998	716.44	0.61
332.94	0.0551	18031	717.29	0.61
332.94	0.0551	19004	718.07	0.62
332.94	0.0551	20002	718.88	0.62
332.94	0.0551	21014	719.68	0.63
332.94	0.0551	22027	720.5	0.63
332.94	0.0551	23014	721.3	0.64
332.94	0.0551	24057	722.11	0.64
332.94	0.0551	25048	722.92	0.65
332.94	0.2369	5026	711.09	0.52
332.94	0.2369	6015	712.23	0.52
332.94	0.2369	7019	713.38	0.53
332.94	0.2369	8020	714.47	0.53
332.94	0.2369	9017	715.56	0.54
332.94	0.2369	10015	716.65	0.54
332.94	0.2369	11009	717.69	0.54
332.94	0.2369	12015	718.74	0.55
332.94	0.2369	13015	719.76	0.55
332.94	0.2369	14011	720.77	0.56
332.94	0.2369	15003	721.75	0.56
332.94	0.2369	16019	722.73	0.57
332.94	0.2369	17015	723.7	0.57
332.94	0.2369	18026	724.66	0.58
332.94	0.2369	19022	725.6	0.58
332.94	0.2369	20012	726.51	0.58
332.94	0.2369	21024	727.44	0.59
332.94	0.2369	22021	728.35	0.59
332.94	0.2369	23010	729.26	0.6
332.94	0.2369	24025	730.17	0.6
332.94	0.2369	25028	731.08	0.61
332.94	0.4536	7015	721.74	0.49
332.94	0.4536	8025	723.26	0.5
332.94	0.4536	9016	724.72	0.5
332.94	0.4536	10023	726.15	0.6
332.94	0.4536	11014	727.55	0.51
332.94	0.4536	12001	728.9	0.51
332.94	0.4536	13045	730.28	0.52
332.94	0.4536	13998	731.55	0.52
332.94	0.4536	15000	732.81	0.52
332.94	0.4536	16032	734.14	0.53
332.94	0.4536	17018	735.36	0.53
332.94	0.4536	18021	736.57	0.54
332.94	0.4536	19012	737.79	0.54
332.94	0.4536	20002	738.93	0.55
332.94	0.4536	21028	740.14	0.55
332.94	0.4536	22021	741.29	0.56
332.94	0.4536	23009	742.44	0.56
332.94	0.4536	24026	743.58	0.56
332.94	0.4536	25022	744.71	0.57
332.94	0.9663	12005	511.9	1.42
332.94	0.9663	12511	544.43	1.4
332.94	0.9663	13003	571.24	1.12
332.94	0.9663	14015	614.37	0.98
332.94	0.9663	15026	648.23	0.86
332.94	0.9663	16035	674.85	0.77
332.94	0.9663	17018	695.62	0.71
332.94	0.9663	18016	713.48	0.67
332.94	0.9663	19002	728.62	0.64
332.94	0.9663	20033	742.59	0.62
332.94	0.9663	21022	754.63	0.61
332.94	0.9663	22029	765.58	0.59
332.94	0.9663	23010	775.39	0.58
332.94	0.9663	24016	784.64	0.57
332.94	0.9663	25006	793.1	0.57
342.79	0.9663	13528	503.61	1.21
342.79	0.9663	14029	528.33	1.06
342.79	0.9663	15026	569.49	0.97
342.79	0.9663	16019	603.24	0.88
342.79	0.9663	17025	631.6	0.81
342.79	0.9663	18035	657.54	0.75
342.79	0.9663	19000	674.01	0.7
342.79	0.9663	20022	691.29	0.68
342.79	0.9663	21024	706.16	0.65
342.79	0.9663	22022	719.34	0.63
342.79	0.9663	23022	731.24	0.62
342.79	0.9663	24017	741.98	0.61
342.79	0.9663	25006	751.96	0.6
342.84	0.8114	13020	721.51	1.09
342.84	0.8114	14001	726.31	0.51
342.84	0.8114	15022	730.92	0.51
342.84	0.8114	16041	735.26	0.51
342.84	0.8114	17013	739.14	0.51
342.84	0.8114	18018	742.96	0.51
342.84	0.8114	19020	746.57	0.52
342.84	0.8114	20008	749.98	0.52
342.84	0.8114	21023	753.35	0.52
342.84	0.8114	22003	756.46	0.52
342.84	0.8114	23041	759.67	0.52
342.84	0.8114	24026	762.58	0.53
342.84	0.8114	25034	765.48	0.53
342.86	0.0551	2043	694.82	0.55
342.86	0.0551	3006	695.92	0.55
342.86	0.0551	4043	696.93	0.55
342.86	0.0551	5044	697.98	0.56
342.86	0.0551	6046	699.02	0.56
342.86	0.0551	6984	699.98	0.56
342.86	0.0551	8003	701	0.57
342.86	0.0551	8999	702.09	0.57
342.86	0.0551	10007	702.98	0.58
342.86	0.0551	11044	703.97	0.58
342.86	0.0551	11996	704.89	0.58
342.86	0.0551	13021	705.84	0.59
342.86	0.0551	13997	706.74	0.59
342.86	0.0551	15043	707.69	0.6
342.86	0.0551	16022	708.54	0.6
342.86	0.0551	17001	709.54	0.61
342.86	0.0551	17984	710.28	0.61
342.86	0.0551	19042	711.19	0.62
342.86	0.0551	20017	712.03	0.62
342.86	0.0551	21054	713.1	0.63
342.86	0.0551	22022	713.72	0.63
342.86	0.0551	23029	714.55	0.64
342.86	0.0551	24018	715.37	0.64
342.86	0.0551	25025	716.21	0.65
342.87	0.2369	5031	702.48	0.52
342.87	0.2369	6026	703.7	0.52
342.87	0.2369	7029	704.93	0.53
342.87	0.2369	8006	706.09	0.53
342.87	0.2369	9030	707.28	0.54
342.87	0.2369	10017	708.4	0.54
342.87	0.2369	11019	709.54	0.55
342.87	0.2369	12003	710.62	0.55
342.87	0.2369	13017	711.73	0.55
342.87	0.2369	14013	712.79	0.56
342.87	0.2369	15021	713.84	0.56
342.87	0.2369	16004	714.86	0.57
342.87	0.2369	17018	715.9	0.57
342.87	0.2369	18016	716.89	0.58
342.87	0.2369	19005	717.86	0.58
342.87	0.2369	20000	718.83	0.59
342.87	0.2369	21023	719.83	0.59
342.87	0.2369	22008	720.78	0.6
342.87	0.2369	23029	721.76	0.6
342.87	0.2369	23992	722.74	0.61
342.87	0.2369	25008	723.65	0.61
342.87	0.4536	7027	711.28	0.49
342.87	0.4536	8024	712.92	0.5
342.87	0.4536	9027	714.5	0.5
342.87	0.4536	10014	716.02	0.51
342.87	0.4536	11025	717.56	0.51
342.87	0.4536	12015	719.02	0.51
342.87	0.4536	13006	720.46	0.52
342.87	0.4536	14013	721.87	0.52
342.87	0.4536	15001	723.23	0.53
342.87	0.4536	16029	724.63	0.53
342.87	0.4536	17019	725.94	0.54
342.87	0.4536	18026	727.26	0.54
342.87	0.4536	19018	728.54	0.55
342.87	0.4536	20000	729.75	0.55
342.87	0.4536	21007	731.02	0.56
342.87	0.4536	22021	732.28	0.56
342.87	0.4536	23032	733.5	0.57
342.87	0.4536	24017	734.7	0.57
342.87	0.4536	25029	735.91	0.58
352.75	0.9663	14010	449.95	1.08
352.75	0.9663	15010	494.4	1.04
352.75	0.9663	16020	532.74	0.95
352.75	0.9663	17024	566.61	0.89
352.75	0.9663	18026	594.54	0.83
352.75	0.9663	19015	618.22	0.77
352.75	0.9663	20016	638.64	0.74
352.75	0.9663	21018	656.61	0.71
352.75	0.9663	22006	672.26	0.68
352.75	0.9663	23021	686.58	0.66
352.75	0.9663	24018	699.34	0.65
352.75	0.9663	25017	710.94	0.64
352.76	0.8114	14034	701.72	2.08
352.76	0.8114	15050	707.51	0.53
352.76	0.8114	15994	712.45	0.53
352.76	0.8114	17009	717.35	0.53
352.76	0.8114	18024	722.02	0.53
352.76	0.8114	19033	726.33	0.53
352.76	0.8114	20039	730.42	0.53
352.76	0.8114	21009	734.16	0.53
352.76	0.8114	22013	737.84	0.54
352.76	0.8114	23004	741.32	0.54
352.76	0.8114	24035	744.84	0.54
352.76	0.8114	25042	748.08	0.56
352.78	0.0551	2008	686.89	0.54
352.78	0.0551	3010	688.04	0.55
352.78	0.0551	4018	689.18	0.55
352.78	0.0551	5014	690.28	0.56
352.78	0.0551	6015	691.42	0.56
352.78	0.0551	7011	692.46	0.56
352.78	0.0551	8024	693.62	0.57
352.78	0.0551	8988	694.56	0.57
352.78	0.0551	10035	695.65	0.58
352.78	0.0551	11021	696.68	0.58
352.78	0.0551	12025	697.67	0.59
352.78	0.0551	13009	698.59	0.59
352.78	0.0551	14003	699.6	0.59
352.78	0.0551	15017	700.5	0.6
352.78	0.0551	16009	701.58	0.6
352.78	0.0551	17043	702.49	0.61
352.78	0.0551	18011	703.38	0.62
352.78	0.0551	18999	704.26	0.62
352.78	0.0551	19980	705.14	0.63
352.78	0.0551	21012	706.06	0.63
352.78	0.0551	22017	706.96	0.64
352.78	0.0551	23034	707.84	0.64
352.78	0.0551	24044	708.75	0.65
352.78	0.0551	24991	709.57	0.65
352.79	0.2369	6023	695.17	0.52
352.79	0.2369	7016	696.39	0.53
352.79	0.2369	8017	697.7	0.53
352.79	0.2369	9014	698.95	0.54
352.79	0.2369	10006	700.1	0.54
352.79	0.2369	11019	701.32	0.55
352.79	0.2369	12015	702.48	0.55
352.79	0.2369	13014	703.71	0.56
352.79	0.2369	14010	704.77	0.56
352.79	0.2369	15002	705.93	0.57
352.79	0.2369	16000	707.03	0.57
352.79	0.2369	17020	708.08	0.58
352.79	0.2369	18006	709.15	0.58
352.79	0.2369	19014	710.21	0.59
352.79	0.2369	19955	711.22	0.59
352.79	0.2369	21069	712.3	0.6
352.79	0.2369	22042	713.3	0.6
352.79	0.2369	23032	714.28	0.61
352.79	0.2369	24057	715.33	0.61
352.79	0.2369	24999	716.29	0.62
352.8	0.4536	8029	702.49	0.5
352.8	0.4536	9011	704.17	0.5
352.8	0.4536	10022	705.86	0.51
352.8	0.4536	11012	707.47	0.51
352.8	0.4536	12018	709.07	0.65
352.8	0.4536	13013	710.62	0.52
352.8	0.4536	14019	712.14	0.53
352.8	0.4536	15017	713.63	0.53
352.8	0.4536	16008	715.06	0.54
352.8	0.4536	17028	716.51	0.54
352.8	0.4536	18018	717.9	0.55
352.8	0.4536	19024	719.28	0.55
352.8	0.4536	20015	720.6	0.56
352.8	0.4536	21003	721.91	0.56
352.8	0.4536	22029	723.29	0.57
352.8	0.4536	23006	724.51	0.57
352.8	0.4536	24025	725.86	0.58
352.8	0.4536	25013	727.09	0.58
362.63	0.8114	15022	681.16	1.19
362.63	0.8114	16023	688.18	0.72
362.63	0.8114	17027	694.15	0.68
362.63	0.8114	18027	699.67	0.66
362.63	0.8114	19028	704.83	0.64
362.63	0.8114	20026	709.67	0.62
362.63	0.8114	21017	714.17	0.61
362.63	0.8114	22023	718.48	0.6
362.63	0.8114	23019	722.51	0.6
362.63	0.8114	24030	726.42	0.59
362.63	0.8114	25024	730.11	0.74
362.65	0.2369	5978	686.43	0.52
362.65	0.2369	7016	687.86	0.53
362.65	0.2369	8020	689.21	0.53
362.65	0.2369	9035	690.58	0.54
362.65	0.2369	10044	691.88	0.54
362.65	0.2369	11011	693.13	0.55
362.65	0.2369	12005	694.38	0.55
362.65	0.2369	13039	695.64	0.56
362.65	0.2369	14013	696.82	0.56
362.65	0.2369	15072	698.07	0.57
362.65	0.2369	16012	699.18	0.57
362.65	0.2369	17009	700.33	0.58
362.65	0.2369	18008	701.44	0.58
362.65	0.2369	19020	702.57	0.59
362.65	0.2369	20006	703.64	0.59
362.65	0.2369	21068	704.82	0.6
362.65	0.2369	22007	705.81	0.61
362.65	0.2369	23055	706.93	0.61
362.65	0.2369	24030	707.95	0.62
362.65	0.2369	25056	709.02	0.62
362.65	0.9663	15510	452.61	0.96
362.65	0.9663	16012	471.04	0.95
362.65	0.9663	17007	504.42	0.94
362.65	0.9663	18010	534.34	0.89
362.65	0.9663	19013	561.23	0.84
362.65	0.9663	20015	585.01	0.8
362.65	0.9663	21029	606.13	0.77
362.65	0.9663	22007	624.31	0.74
362.65	0.9663	23022	641.03	0.72
362.65	0.9663	24015	655.59	0.7
362.65	0.9663	25028	669.28	0.69
362.66	0.0551	2031	678.97	0.54
362.66	0.0551	3029	680.17	0.55
362.66	0.0551	4134	681.5	0.55
362.66	0.0551	5034	682.58	0.55
362.66	0.0551	6050	683.77	0.56
362.66	0.0551	7045	684.91	0.56
362.66	0.0551	8030	686.02	0.57
362.66	0.0551	9020	687.12	0.57
362.66	0.0551	10044	688.25	0.58
362.66	0.0551	11025	689.34	0.58
362.66	0.0551	11987	690.35	0.59
362.66	0.0551	13025	691.46	0.59
362.66	0.0551	14075	692.5	0.6
362.66	0.0551	15026	693.52	0.6
362.66	0.0551	16020	694.47	0.61
362.66	0.0551	17003	695.45	0.61
362.66	0.0551	18032	696.46	0.62
362.66	0.0551	19030	697.38	0.62
362.66	0.0551	19998	698.32	0.63
362.66	0.0551	21052	699.32	0.63
362.66	0.0551	22028	700.22	0.64
362.66	0.0551	22996	701.1	0.65
362.66	0.0551	24036	702.1	0.65
362.66	0.0551	25008	702.93	0.66
362.66	0.4536	9024	693.68	0.51
362.66	0.4536	10012	695.47	0.51
362.66	0.4536	11031	697.25	0.52
362.66	0.4536	12002	698.93	0.52
362.66	0.4536	13028	700.66	0.53
362.66	0.4536	14008	702.25	0.53
362.66	0.4536	15024	703.87	0.54
362.66	0.4536	16000	705.42	0.54
362.66	0.4536	17017	706.96	0.55
362.66	0.4536	18002	708.44	0.55
362.66	0.4536	19030	709.94	0.56
362.66	0.4536	20001	711.37	0.56
362.66	0.4536	21029	712.8	0.57
362.66	0.4536	22014	714.18	0.57
362.66	0.4536	23024	715.57	0.58
362.66	0.4536	24006	716.91	0.58
362.66	0.4536	25025	718.29	0.59
