Measured thermophysical data. Solubility of Potassium Clavulanate in Ethanol, 1-Propanol, 1-Butanol, 2-Propanol, and 2-Methyl-1-propanol between 273 K and 305 K
Source: J. Chem. Eng. Data, 2005, 10.1021/je050145r
Compound 1: potassium (2R,5R,Z)-3-(2-hydroxyethylidene)-7-oxo-4-oxa-1-azabicyclo[3.2.0]heptane-2-carboxylate, C8H8KNO5, InChI=1S/C8H9NO5.K/c10-2-1-4-7(8(12)13)9-5(11)3-6(9)14-4;/h1,6-7,10H,2-3H2,(H,12,13);/q;+1/p-1/b4-1-;/t6-,7-;/m1./s1
Compound 2: ethanol, C2H6O, InChI=1S/C2H6O/c1-2-3/h3H,2H2,1H3
Compound 3: propan-1-ol, C3H8O, InChI=1S/C3H8O/c1-2-3-4/h4H,2-3H2,1H3
Compound 4: butan-1-ol, C4H10O, InChI=1S/C4H10O/c1-2-3-4-5/h5H,2-4H2,1H3
Compound 5: propan-2-ol, C3H8O, InChI=1S/C3H8O/c1-3(2)4/h3-4H,1-2H3
Compound 6: 2-methyl-1-propanol, C4H10O, InChI=1S/C4H10O/c1-4(2)3-5/h4-5H,3H2,1-2H3

System: ethanol + potassium (2R,5R,Z)-3-(2-hydroxyethylidene)-7-oxo-4-oxa-1-azabicyclo[3.2.0]heptane-2-carboxylate; phases: Liquid, Crystal
Fixed: Pressure, kPa = 101.325
Property: Solid-liquid equilibrium temperature, K (Liquid); method: laser method
Mole fraction of potassium (2R,5R,Z)-3-(2-hydroxyethylidene)-7-oxo-4-oxa-1-azabicyclo[3.2.0]heptane-2-carboxylate	Solid-liquid equilibrium temperature, K	uncertainty
0.0004627	273.95	1.03
0.0004912	277.1	1.19
0.0005211	281	1.16
0.0005653	285.4	1
0.0006134	289.1	0.99
0.0006639	293.35	1.08
0.000712	297.05	1.02
0.0007767	301.45	0.84
0.0008636	305.25	0.76

System: propan-1-ol + potassium (2R,5R,Z)-3-(2-hydroxyethylidene)-7-oxo-4-oxa-1-azabicyclo[3.2.0]heptane-2-carboxylate; phases: Liquid, Crystal
Fixed: Pressure, kPa = 101.325
Property: Solid-liquid equilibrium temperature, K (Liquid); method: laser method
Mole fraction of potassium (2R,5R,Z)-3-(2-hydroxyethylidene)-7-oxo-4-oxa-1-azabicyclo[3.2.0]heptane-2-carboxylate	Solid-liquid equilibrium temperature, K	uncertainty
0.0001049	273.7	0.36
0.0001259	277.15	0.51
0.0001421	281.15	0.77
0.0001555	285.1	0.84
0.0001717	289.15	0.88
0.0001872	293.15	0.88
0.0002057	297.15	0.81
0.0002284	301.2	0.55
0.0002722	305.35	0.53

System: butan-1-ol + potassium (2R,5R,Z)-3-(2-hydroxyethylidene)-7-oxo-4-oxa-1-azabicyclo[3.2.0]heptane-2-carboxylate; phases: Liquid, Crystal
Fixed: Pressure, kPa = 101.325
Property: Solid-liquid equilibrium temperature, K (Liquid); method: laser method
Mole fraction of potassium (2R,5R,Z)-3-(2-hydroxyethylidene)-7-oxo-4-oxa-1-azabicyclo[3.2.0]heptane-2-carboxylate	Solid-liquid equilibrium temperature, K	uncertainty
6.06e-05	273.95	0.76
6.56e-05	277.05	0.94
7.06e-05	281.05	1.13
7.56e-05	285.05	1.17
8.12e-05	289.25	0.79
9.18e-05	293.15	0.6
0.0001053	297.05	0.64
0.0001187	301.2	0.63
0.0001359	305.1	0.62

System: propan-2-ol + potassium (2R,5R,Z)-3-(2-hydroxyethylidene)-7-oxo-4-oxa-1-azabicyclo[3.2.0]heptane-2-carboxylate; phases: Liquid, Crystal
Fixed: Pressure, kPa = 101.325
Property: Solid-liquid equilibrium temperature, K (Liquid); method: laser method
Mole fraction of potassium (2R,5R,Z)-3-(2-hydroxyethylidene)-7-oxo-4-oxa-1-azabicyclo[3.2.0]heptane-2-carboxylate	Solid-liquid equilibrium temperature, K	uncertainty
4.94e-05	273.9	0.64
5.45e-05	277.15	0.71
6.05e-05	281.05	0.73
6.81e-05	285.35	0.8
7.47e-05	289.3	0.9
8.13e-05	293.25	0.76
9.17e-05	297.35	0.69
0.0001031	301.35	0.53
0.0001231	305.4	0.51

System: 2-methyl-1-propanol + potassium (2R,5R,Z)-3-(2-hydroxyethylidene)-7-oxo-4-oxa-1-azabicyclo[3.2.0]heptane-2-carboxylate; phases: Liquid, Crystal
Fixed: Pressure, kPa = 101.325
Property: Solid-liquid equilibrium temperature, K (Liquid); method: laser method
Mole fraction of potassium (2R,5R,Z)-3-(2-hydroxyethylidene)-7-oxo-4-oxa-1-azabicyclo[3.2.0]heptane-2-carboxylate	Solid-liquid equilibrium temperature, K	uncertainty
3.84e-05	274.55	0.53
4.22e-05	277.15	0.6
4.78e-05	281.15	0.63
5.44e-05	285.1	0.73
6.09e-05	289.8	0.86
6.81e-05	294.7	1.07
7.22e-05	298.75	1.33
7.56e-05	301.55	1.25
9.65e-05	305.05	0.34
