Measured thermophysical data. Solubilities of 2-(2-Hydroxyphenyl)phenylphosphonic Acid in Chlorobenzene and in Water and Partition Coefficient between Water + Chlorobenzene Mixtures
Source: J. Chem. Eng. Data, 2005, 10.1021/je050201o
Compound 1: (2'-hydroxy-[1,1'-biphenyl]-2-yl)phosphinic acid, C12H11O3P, InChI=1S/C12H11O3P/c13-11-7-3-1-5-9(11)10-6-2-4-8-12(10)16(14)15/h1-8,13,16H,(H,14,15)
Compound 2: chlorobenzene, C6H5Cl, InChI=1S/C6H5Cl/c7-6-4-2-1-3-5-6/h1-5H
Compound 3: water, H2O, InChI=1S/H2O/h1H2

System: chlorobenzene + (2'-hydroxy-[1,1'-biphenyl]-2-yl)phosphinic acid; phases: Liquid, Crystal
Fixed: Pressure, kPa = 101.3
Property: Mole fraction of (2'-hydroxy-[1,1'-biphenyl]-2-yl)phosphinic acid (Liquid); method: gravimetric
Temperature, K	Mole fraction of (2'-hydroxy-[1,1'-biphenyl]-2-yl)phosphinic acid	uncertainty
300.97	0.01296	0.00053
304.47	0.01492	0.0006
308.86	0.01561	0.00064
313.71	0.01946	0.00082
319.15	0.02741	0.00114
325.56	0.03596	0.00148
332.4	0.04698	0.00192
338.93	0.05966	0.00244
342.74	0.07002	0.00289
346.96	0.08529	0.00353
349.4	0.09742	0.00406
352.87	0.1159	0.0048
355.3	0.1311	0.0054

System: water + (2'-hydroxy-[1,1'-biphenyl]-2-yl)phosphinic acid; phases: Liquid, Crystal
Fixed: Pressure, kPa = 101.3
Property: Mole fraction of (2'-hydroxy-[1,1'-biphenyl]-2-yl)phosphinic acid (Liquid); method: gravimetric
Temperature, K	Mole fraction of (2'-hydroxy-[1,1'-biphenyl]-2-yl)phosphinic acid	uncertainty
308.6	0.0002578	1.28e-05
314.7	0.0003357	1.65e-05
320.97	0.0003957	1.93e-05
332.2	0.0004959	2.42e-05
337.7	0.0005786	2.84e-05
342.4	0.0006876	3.36e-05
347.77	0.0007634	3.72e-05
352.6	0.0008586	4.19e-05
358.3	0.0009843	4.82e-05
362.37	0.001149	5.6e-05

System: chlorobenzene + water + (2'-hydroxy-[1,1'-biphenyl]-2-yl)phosphinic acid; phases: Liquid, Liquid
Fixed: Pressure, kPa = 101.3
Fixed: Mole fraction of (2'-hydroxy-[1,1'-biphenyl]-2-yl)phosphinic acid = 0
Property: Mole fraction of (2'-hydroxy-[1,1'-biphenyl]-2-yl)phosphinic acid (Liquid); method: gravimetric
Temperature, K	Mole fraction of (2'-hydroxy-[1,1'-biphenyl]-2-yl)phosphinic acid	uncertainty
299.45	17.89	0.72
303.26	20.97	0.84
308.65	24.28	0.97
314.65	27.49	1.1
318.92	30.79	1.23
324.05	33.67	1.35
329.23	36.82	1.47
334.05	39.76	1.59
