Measured thermophysical data. Densities and Viscosities of p-Aminophenol in Sulfuric Acid + Water at temperatures from (293.15 to 343.15) K
Source: J. Chem. Eng. Data, 2006, 10.1021/je050443o
Compound 1: 4-hydroxybenzenamine, C6H7NO, InChI=1S/C6H7NO/c7-5-1-3-6(8)4-2-5/h1-4,8H,7H2
Compound 2: sulfuric acid, H2O4S, InChI=1S/H2O4S/c1-5(2,3)4/h(H2,1,2,3,4), purity 95%
Compound 3: water, H2O, InChI=1S/H2O/h1H2

System: 4-hydroxybenzenamine + sulfuric acid + water; phases: Liquid
Fixed: Pressure, kPa = 101.325
Property: Mass density, kg/m3 (Liquid); method: Pycnometric method
Temperature, K	Solvent: Mass fraction of sulfuric acid	Molality, mol/kg of 4-hydroxybenzenamine	Mass density, kg/m3	uncertainty
293.15	0.1	0	1066.2	1
293.15	0.1	0.1429	1069.5	1
293.15	0.1	0.2607	1072.3	1
293.15	0.1	0.3787	1075.1	1
293.15	0.1	0.4969	1077.9	1
293.15	0.1	0.6155	1080.7	1.1
293.15	0.1	0.7213	1083.2	1.1
303.15	0.1	0	1061.9	1
303.15	0.1	0.1429	1065.2	1
303.15	0.1	0.2607	1067.9	1.1
303.15	0.1	0.3787	1070.7	1.1
303.15	0.1	0.4969	1073.5	1.1
303.15	0.1	0.6155	1076.3	1.1
303.15	0.1	0.7213	1078.8	1.1
313.15	0.1	0	1056.8	1.1
313.15	0.1	0.1429	1060.1	1.1
313.15	0.1	0.2607	1062.8	1.1
313.15	0.1	0.3787	1065.6	1.1
313.15	0.1	0.4969	1068.4	1.1
313.15	0.1	0.6155	1071.2	1.1
313.15	0.1	0.7213	1073.7	1.1
323.15	0.1	0	1051.8	1.1
323.15	0.1	0.1429	1055.1	1.1
323.15	0.1	0.2607	1057.8	1.1
323.15	0.1	0.3787	1060.6	1.1
323.15	0.1	0.4969	1063.4	1.1
323.15	0.1	0.6155	1066.2	1.1
323.15	0.1	0.7213	1068.7	1.1
333.15	0.1	0	1046.3	1.1
333.15	0.1	0.1429	1049.6	1.1
333.15	0.1	0.2607	1052.3	1.1
333.15	0.1	0.3787	1055.1	1.1
333.15	0.1	0.4969	1057.8	1.1
333.15	0.1	0.6155	1060.7	1.1
333.15	0.1	0.7213	1063.3	1.1
343.15	0.1	0	1039.6	1.1
343.15	0.1	0.1429	1042.9	1.1
343.15	0.1	0.2607	1045.6	1.1
343.15	0.1	0.3787	1048.4	1.1
343.15	0.1	0.4969	1051.1	1.1
343.15	0.1	0.6155	1053.9	1.1
343.15	0.1	0.7213	1056.6	1.1
293.15	0.2	0	1139.5	1.2
293.15	0.2	0.1441	1143.1	1.2
293.15	0.2	0.2649	1146.1	1.2
293.15	0.2	0.3857	1149.2	1.2
293.15	0.2	0.5065	1152.3	1.2
293.15	0.2	0.6274	1155.3	1.2
293.15	0.2	0.7482	1158.4	1.2
303.15	0.2	0	1133.3	1.2
303.15	0.2	0.1441	1136.9	1.2
303.15	0.2	0.2649	1139.9	1.2
303.15	0.2	0.3857	1143	1.2
303.15	0.2	0.5065	1146	1.2
303.15	0.2	0.6274	1149.1	1.2
303.15	0.2	0.7482	1152.2	1.2
313.15	0.2	0	1126.9	1.2
313.15	0.2	0.1441	1130.5	1.2
313.15	0.2	0.2649	1133.5	1.2
313.15	0.2	0.3857	1136.5	1.2
313.15	0.2	0.5065	1139.6	1.2
313.15	0.2	0.6274	1142.7	1.2
313.15	0.2	0.7482	1145.8	1.2
323.15	0.2	0	1121.1	1.2
323.15	0.2	0.1441	1124.7	1.2
323.15	0.2	0.2649	1127.7	1.2
323.15	0.2	0.3857	1130.7	1.2
323.15	0.2	0.5065	1133.8	1.2
323.15	0.2	0.6274	1136.9	1.2
323.15	0.2	0.7482	1140	1.2
333.15	0.2	0	1115.3	1.2
333.15	0.2	0.1441	1118.9	1.2
333.15	0.2	0.2649	1121.9	1.2
333.15	0.2	0.3857	1124.9	1.2
333.15	0.2	0.5065	1128	1.2
333.15	0.2	0.6274	1131.1	1.2
333.15	0.2	0.7482	1134.2	1.2
343.15	0.2	0	1108.8	1.2
343.15	0.2	0.1441	1112.4	1.2
343.15	0.2	0.2649	1115.4	1.2
343.15	0.2	0.3857	1118.4	1.2
343.15	0.2	0.5065	1121.5	1.2
343.15	0.2	0.6274	1124.6	1.2
343.15	0.2	0.7482	1127.7	1.3
293.15	0.3	0	1218.3	1.3
293.15	0.3	0.1381	1222.2	1.3
293.15	0.3	0.2549	1225.5	1.3
293.15	0.3	0.3714	1228.8	1.3
293.15	0.3	0.4877	1232.1	1.3
293.15	0.3	0.6035	1235.4	1.3
293.15	0.3	0.6728	1237.4	1.3
293.15	0.3	0.7399	1239.3	1.3
303.15	0.3	0	1211.7	1.3
303.15	0.3	0.1381	1215.6	1.3
303.15	0.3	0.2549	1218.9	1.3
303.15	0.3	0.3714	1222.2	1.3
303.15	0.3	0.4877	1225.5	1.3
303.15	0.3	0.6035	1228.8	1.4
303.15	0.3	0.6728	1230.8	1.4
303.15	0.3	0.7399	1232.7	1.4
313.15	0.3	0	1204.3	1.3
313.15	0.3	0.1381	1208.2	1.3
313.15	0.3	0.2549	1211.5	1.3
313.15	0.3	0.3714	1214.8	1.3
313.15	0.3	0.4877	1218.1	1.4
313.15	0.3	0.6035	1221.4	1.4
313.15	0.3	0.6728	1223.4	1.4
313.15	0.3	0.7399	1225.3	1.4
323.15	0.3	0	1198	1
323.15	0.3	0.1381	1201.8	1.3
323.15	0.3	0.2549	1205.2	1.4
323.15	0.3	0.3714	1208.5	1.4
323.15	0.3	0.4877	1211.8	1.4
323.15	0.3	0.6035	1215.1	1.4
323.15	0.3	0.6728	1217.1	1.4
323.15	0.3	0.7399	1219.1	1.4
333.15	0.3	0	1190.7	1.3
333.15	0.3	0.1381	1194.6	1.4
333.15	0.3	0.2549	1197.9	1.4
333.15	0.3	0.3714	1201.2	1.4
333.15	0.3	0.4877	1204.5	1.4
333.15	0.3	0.6035	1207.8	1.4
333.15	0.3	0.6728	1209.8	1.4
333.15	0.3	0.7399	1211.8	1.4
343.15	0.3	0	1184.2	1.4
343.15	0.3	0.1381	1188.1	1.4
343.15	0.3	0.2549	1191.4	1.4
343.15	0.3	0.3714	1194.7	1.4
343.15	0.3	0.4877	1198	1.4
343.15	0.3	0.6035	1201.3	1.4
343.15	0.3	0.6728	1203.3	1.4
343.15	0.3	0.7399	1205.3	1.4

System: 4-hydroxybenzenamine + sulfuric acid + water; phases: Liquid
Fixed: Pressure, kPa = 101.325
Property: Viscosity, Pa*s (Liquid); method: Capillary tube (Ostwald; Ubbelohde) method
Temperature, K	Solvent: Mass fraction of sulfuric acid	Molality, mol/kg of 4-hydroxybenzenamine	Viscosity, Pa*s	uncertainty
293.15	0.1	0	0.0012305	2.79e-05
293.15	0.1	0.1429	0.0012815	2.89e-05
293.15	0.1	0.2607	0.0013383	3.02e-05
293.15	0.1	0.3787	0.0014084	3.17e-05
293.15	0.1	0.4969	0.0014919	3.34e-05
293.15	0.1	0.6155	0.0015891	3.55e-05
293.15	0.1	0.7213	0.0016772	3.74e-05
293.15	0.2	0	0.0015502	3.47e-05
293.15	0.2	0.1441	0.0015795	3.53e-05
293.15	0.2	0.2649	0.0016251	3.63e-05
293.15	0.2	0.3857	0.0016917	3.77e-05
293.15	0.2	0.5065	0.0017619	3.92e-05
293.15	0.2	0.6274	0.0018494	4.11e-05
293.15	0.2	0.7482	0.0019351	4.29e-05
293.15	0.3	0	0.0020087	4.44e-05
293.15	0.3	0.1381	0.0020873	4.61e-05
293.15	0.3	0.2549	0.0021529	4.75e-05
293.15	0.3	0.3714	0.0022261	4.91e-05
293.15	0.3	0.4877	0.0023191	5.1e-05
293.15	0.3	0.6035	0.0024182	5.31e-05
293.15	0.3	0.6728	0.0024896	5.46e-05
293.15	0.3	0.7399	0.0025749	5.65e-05
303.15	0.1	0	0.0009804	2.25e-05
303.15	0.1	0.1429	0.0010119	2.32e-05
303.15	0.1	0.2607	0.0010476	2.4e-05
303.15	0.1	0.3787	0.0010977	2.5e-05
303.15	0.1	0.4969	0.0011603	2.64e-05
303.15	0.1	0.6155	0.0012306	2.79e-05
303.15	0.1	0.7213	0.0012932	2.92e-05
303.15	0.2	0	0.0012292	2.78e-05
303.15	0.2	0.1441	0.0012591	2.85e-05
303.15	0.2	0.2649	0.0012949	2.92e-05
303.15	0.2	0.3857	0.0013339	3.01e-05
303.15	0.2	0.5065	0.0013873	3.12e-05
303.15	0.2	0.6274	0.0014425	3.24e-05
303.15	0.2	0.7482	0.0015083	3.38e-05
303.15	0.3	0	0.0016012	3.58e-05
303.15	0.3	0.1381	0.0016493	3.68e-05
303.15	0.3	0.2549	0.0017049	3.8e-05
303.15	0.3	0.3714	0.0017651	3.93e-05
303.15	0.3	0.4877	0.0018421	4.09e-05
303.15	0.3	0.6035	0.0019332	4.28e-05
303.15	0.3	0.6728	0.0019893	4.4e-05
303.15	0.3	0.7399	0.0020521	4.54e-05
313.15	0.1	0	0.0007896	1.85e-05
313.15	0.1	0.1429	0.0008024	1.87e-05
313.15	0.1	0.2607	0.0008399	1.95e-05
313.15	0.1	0.3787	0.0008724	2.02e-05
313.15	0.1	0.4969	0.0008997	2.08e-05
313.15	0.1	0.6155	0.0009391	2.17e-05
313.15	0.1	0.7213	0.0009895	2.27e-05
313.15	0.2	0	0.0009887	2.27e-05
313.15	0.2	0.1441	0.0010172	2.33e-05
313.15	0.2	0.2649	0.0010474	2.4e-05
313.15	0.2	0.3857	0.0010835	2.47e-05
313.15	0.2	0.5065	0.0011224	2.56e-05
313.15	0.2	0.6274	0.0011658	2.65e-05
313.15	0.2	0.7482	0.0012109	2.75e-05
313.15	0.3	0	0.0013061	2.95e-05
313.15	0.3	0.1381	0.0013459	3.03e-05
313.15	0.3	0.2549	0.0013914	3.13e-05
313.15	0.3	0.3714	0.0014438	3.24e-05
313.15	0.3	0.4877	0.0015111	3.39e-05
313.15	0.3	0.6035	0.0015813	3.54e-05
313.15	0.3	0.6728	0.0016253	3.63e-05
313.15	0.3	0.7399	0.0016736	3.73e-05
323.15	0.1	0	0.000661	1.6e-05
323.15	0.1	0.1429	0.0006714	1.59e-05
323.15	0.1	0.2607	0.0006979	1.65e-05
323.15	0.1	0.3787	0.0007189	1.7e-05
323.15	0.1	0.4969	0.0007473	1.76e-05
323.15	0.1	0.6155	0.0007722	1.81e-05
323.15	0.1	0.7213	0.0008087	1.89e-05
323.15	0.2	0	0.0008311	1.93e-05
323.15	0.2	0.1441	0.0008521	1.98e-05
323.15	0.2	0.2649	0.0008774	2.03e-05
323.15	0.2	0.3857	0.0009086	2.1e-05
323.15	0.2	0.5065	0.0009402	2.17e-05
323.15	0.2	0.6274	0.0009708	2.23e-05
323.15	0.2	0.7482	0.0010083	2.31e-05
323.15	0.3	0	0.0010998	2.51e-05
323.15	0.3	0.1381	0.0011347	2.58e-05
323.15	0.3	0.2549	0.0011695	2.66e-05
323.15	0.3	0.3714	0.0012158	2.76e-05
323.15	0.3	0.4877	0.0012637	2.86e-05
323.15	0.3	0.6035	0.0013151	2.97e-05
323.15	0.3	0.6728	0.0013494	3.04e-05
323.15	0.3	0.7399	0.0013897	3.13e-05
333.15	0.1	0	0.0005598	1.36e-05
333.15	0.1	0.1429	0.0005798	1.4e-05
333.15	0.1	0.2607	0.0005998	1.44e-05
333.15	0.1	0.3787	0.0006097	1.46e-05
333.15	0.1	0.4969	0.0006254	1.5e-05
333.15	0.1	0.6155	0.0006517	1.55e-05
333.15	0.1	0.7213	0.0006771	1.61e-05
333.15	0.2	0	0.0007105	1.68e-05
333.15	0.2	0.1441	0.0007291	1.72e-05
333.15	0.2	0.2649	0.0007495	1.76e-05
333.15	0.2	0.3857	0.0007699	1.8e-05
333.15	0.2	0.5065	0.0007947	1.86e-05
333.15	0.2	0.6274	0.0008211	1.91e-05
333.15	0.2	0.7482	0.0008484	1.97e-05
333.15	0.3	0	0.0009426	2.17e-05
333.15	0.3	0.1381	0.0009707	2.23e-05
333.15	0.3	0.2549	0.0010016	2.3e-05
333.15	0.3	0.3714	0.0010376	2.38e-05
333.15	0.3	0.4877	0.0010799	2.47e-05
333.15	0.3	0.6035	0.0011222	2.56e-05
333.15	0.3	0.6728	0.0011499	2.62e-05
333.15	0.3	0.7399	0.0011809	2.68e-05
343.15	0.1	0	0.0004902	1.21e-05
343.15	0.1	0.1429	0.000499	1.2e-05
343.15	0.1	0.2607	0.0005109	1.25e-05
343.15	0.1	0.3787	0.0005283	1.29e-05
343.15	0.1	0.4969	0.0005389	1.31e-05
343.15	0.1	0.6155	0.0005596	1.36e-05
343.15	0.1	0.7213	0.0005756	1.39e-05
343.15	0.2	0	0.0006409	1.53e-05
343.15	0.2	0.1441	0.0006558	1.56e-05
343.15	0.2	0.2649	0.0006671	1.58e-05
343.15	0.2	0.3857	0.0006798	1.61e-05
343.15	0.2	0.5065	0.0006913	1.64e-05
343.15	0.2	0.6274	0.0007037	1.66e-05
343.15	0.2	0.7482	0.0007176	1.69e-05
343.15	0.3	0	0.0008467	1.97e-05
343.15	0.3	0.1381	0.0008686	2.01e-05
343.15	0.3	0.2549	0.0008937	2.07e-05
343.15	0.3	0.3714	0.0009222	2.13e-05
343.15	0.3	0.4877	0.0009544	2.2e-05
343.15	0.3	0.6035	0.0009862	2.27e-05
343.15	0.3	0.6728	0.0010068	2.31e-05
343.15	0.3	0.7399	0.0010309	2.36e-05

System: sulfuric acid + water; phases: Liquid
Fixed: Pressure, kPa = 101.325
Property: Mass density, kg/m3 (Liquid); method: PYCNOM:UFactor:2
Temperature, K	Mass fraction of sulfuric acid	Mass density, kg/m3	uncertainty
293.15	0.1	1066.2	1.2
293.15	0.2	1139.5	1.3
293.15	0.3	1218.3	1.4
303.15	0.1	1061.9	1.2
303.15	0.2	1133.3	1.3
303.15	0.3	1211.7	1.4
313.15	0.1	1056.8	1.3
313.15	0.2	1126.9	1.3
313.15	0.3	1204.3	1.4
323.15	0.1	1051.8	1.3
323.15	0.2	1121.1	1.3
323.15	0.3	1198	2
333.15	0.1	1046.3	1.3
333.15	0.2	1115.3	1.4
333.15	0.3	1190.7	1.4
343.15	0.1	1039.6	1.3
343.15	0.2	1108.8	1.4
343.15	0.3	1184.2	1.5

System: sulfuric acid + water; phases: Liquid
Fixed: Pressure, kPa = 101.325
Property: Viscosity, Pa*s (Liquid); method: CAPTUB:UFactor:3
Temperature, K	Mass fraction of sulfuric acid	Viscosity, Pa*s	uncertainty
293.15	0.1	0.0012305	2.79e-05
293.15	0.2	0.0015502	3.47e-05
293.15	0.3	0.0020087	4.44e-05
303.15	0.1	0.0009804	2.25e-05
303.15	0.2	0.0012292	2.78e-05
303.15	0.3	0.0016012	3.58e-05
313.15	0.1	0.0007896	1.85e-05
313.15	0.2	0.0009887	2.27e-05
313.15	0.3	0.0013061	2.95e-05
323.15	0.1	0.000661	1.6e-05
323.15	0.2	0.0008311	1.93e-05
323.15	0.3	0.0010998	2.51e-05
333.15	0.1	0.0005598	1.36e-05
333.15	0.2	0.0007105	1.68e-05
333.15	0.3	0.0009426	2.17e-05
343.15	0.1	0.0004902	1.21e-05
343.15	0.2	0.0006409	1.53e-05
343.15	0.3	0.0008467	1.97e-05
