Measured thermophysical data. Speeds of Sound, Densities, and Isentropic Compressibilities of 1-Chlorohexane at Temperatures from (293.15 to 413.15) K and Pressures up to 200 MPa
Source: J. Chem. Eng. Data, 2006, 10.1021/je0503204
Compound 1: 1-chlorohexane, C6H13Cl, InChI=1S/C6H13Cl/c1-2-3-4-5-6-7/h2-6H2,1H3, purity 99.9%

System: 1-chlorohexane; phases: Liquid
Property: Speed of sound, m/s (Liquid); method: Pulse-echo method
Temperature, K	Pressure, kPa	Speed of sound, m/s	uncertainty
293.15	100	1219.1	4.9
293.15	5000	1240.5	5
293.15	9910	1264.5	5.1
293.15	19720	1310	5.3
293.15	29530	1352.6	5.4
293.15	39340	1392.6	5.6
293.15	49150	1430.1	5.8
293.15	58960	1465.7	5.9
293.15	68770	1499.3	6
293.15	78580	1531.5	6.2
293.15	88390	1562.3	6.3
293.15	98200	1591.9	6.4
293.15	108000	1620.6	6.5
293.15	117800	1648.2	6.6
293.15	127600	1675.2	6.7
293.15	137400	1701.5	6.8
293.15	147200	1727.1	7
293.15	157100	1752.2	7.1
293.15	166900	1776.7	7.1
293.15	176700	1800.6	7.2
293.15	186500	1824	7.3
293.15	196300	1846.5	7.4
313.15	100	1140.7	4.6
313.15	5000	1166.4	4.7
313.15	9910	1191.8	4.8
313.15	19720	1240.1	5
313.15	29530	1285.3	5.2
313.15	39340	1327.6	5.3
313.15	49150	1367.4	5.5
313.15	58960	1405	5.7
313.15	68770	1440.6	5.8
313.15	78580	1474.6	5.9
313.15	88390	1507	6.1
313.15	98200	1538	6.2
313.15	108000	1567.9	6.3
313.15	117800	1596.7	6.4
313.15	127600	1624.5	6.5
313.15	137400	1651.4	6.6
313.15	147200	1677.5	6.8
313.15	157100	1702.6	6.9
313.15	166900	1726.9	6.9
313.15	176700	1750.3	7
313.15	186500	1772.6	7.1
313.15	196300	1793.6	7.2
333.15	100	1068.8	4.3
333.15	5000	1097.1	4.4
333.15	9910	1124.4	4.5
333.15	19720	1176	4.7
333.15	29530	1224	4.9
333.15	39340	1268.8	5.1
333.15	49150	1310.8	5.3
333.15	58960	1350.4	5.4
333.15	68770	1387.7	5.6
333.15	78580	1423.2	5.7
333.15	88390	1457	5.9
333.15	98200	1489.4	6
333.15	108000	1520.4	6.1
333.15	117800	1550.3	6.2
333.15	127600	1579.1	6.4
333.15	137400	1607	6.5
333.15	147200	1633.9	6.6
333.15	157100	1659.9	6.7
333.15	166900	1684.9	6.8
333.15	176700	1708.9	6.9
333.15	186500	1731.8	7
333.15	196300	1753.5	7.1
353.15	100	995	4
353.15	5000	1026.2	4.1
353.15	9910	1055.4	4.3
353.15	19720	1110.7	4.5
353.15	29530	1162	4.7
353.15	39340	1209.8	4.9
353.15	49150	1254.5	5.1
353.15	58960	1296.3	5.2
353.15	68770	1335.8	5.4
353.15	78580	1373	5.5
353.15	88390	1408.3	5.7
353.15	98200	1441.9	5.8
353.15	108000	1474	5.9
353.15	117800	1504.7	6.1
353.15	127600	1534.3	6.2
353.15	137400	1562.7	6.3
353.15	147200	1590.1	6.4
353.15	157100	1616.4	6.5
353.15	166900	1641.8	6.6
353.15	176700	1666.1	6.7
353.15	186500	1689.4	6.8
353.15	196300	1711.4	6.9
373.15	100	922.9	3.7
373.15	5000	957	3.9
373.15	9910	989.6	4
373.15	19720	1050.4	4.2
373.15	29530	1105.8	4.5
373.15	39340	1156.5	4.7
373.15	49150	1203.2	4.8
373.15	58960	1246.3	5
373.15	68770	1286.9	5.2
373.15	78580	1324.8	5.3
373.15	88390	1360.8	5.5
373.15	98200	1395.1	5.6
373.15	108000	1427.9	5.7
373.15	117800	1459.6	5.9
373.15	127600	1490.1	6
373.15	137400	1519.6	6.1
373.15	147200	1548.1	6.2
373.15	157100	1575.5	6.3
373.15	166900	1601.7	6.4
373.15	176700	1626.5	6.5
373.15	186500	1649.5	6.6
373.15	196300	1670.6	6.7
393.15	100	853.3	3.4
393.15	5000	893.8	3.6
393.15	9910	928.6	3.7
393.15	19720	993.2	4
393.15	29530	1051.8	4.2
393.15	39340	1105.2	4.5
393.15	49150	1154.2	4.7
393.15	58960	1199.4	4.8
393.15	68770	1241.4	5
393.15	78580	1280.8	5.2
393.15	88390	1318	5.3
393.15	98200	1353.3	5.5
393.15	108000	1387.2	5.6
393.15	117800	1419.7	5.7
393.15	127600	1451.2	5.8
393.15	137400	1481.6	6
393.15	147200	1511.1	6.1
393.15	157100	1539.5	6.2
393.15	166900	1566.9	6.3
393.15	176700	1592.8	6.4
393.15	186500	1617.2	6.5
393.15	196300	1639.7	6.6
413.15	100	784	3.2
413.15	5000	829.4	3.3
413.15	9910	867.7	3.5
413.15	19720	938.1	3.8
413.15	29530	1001.1	4
413.15	39340	1057.7	4.3
413.15	49150	1109	4.5
413.15	58960	1155.8	4.7
413.15	68770	1198.9	4.8
413.15	78580	1239.1	5
413.15	88390	1276.9	5.1
413.15	98200	1312.8	5.3
413.15	108000	1347.4	5.4
413.15	117800	1380.6	5.6
413.15	127600	1413	5.7
413.15	137400	1444.5	5.8
413.15	147200	1475.2	5.9
413.15	157100	1504.9	6.1
413.15	166900	1533.7	6.2
413.15	176700	1560.9	6.3
413.15	186500	1586.4	6.4
413.15	196300	1609.7	6.5

System: 1-chlorohexane; phases: Liquid
Property: Mass density, kg/m3 (Liquid); method: OTHER
Temperature, K	Pressure, kPa	Mass density, kg/m3	uncertainty
293.15	100	878.5	5.3
293.15	5000	884.2	5.3
293.15	9910	887	5.3
293.15	19720	894.7	5.4
293.15	29530	901.8	5.4
293.15	39340	908.4	5.5
293.15	49150	914.6	5.5
293.15	58960	920.4	5.5
293.15	68770	925.9	5.6
293.15	78580	931.1	5.6
293.15	88390	936	5.6
293.15	98200	940.7	5.6
293.15	108000	945.1	5.7
293.15	117800	949.4	5.7
293.15	127600	953.4	5.7
293.15	137400	957.3	5.7
293.15	147200	961.1	5.8
293.15	157100	964.7	5.8
293.15	166900	968.1	5.8
293.15	176700	971.5	5.8
293.15	186500	974.7	5.8
293.15	196300	977.9	5.9
313.15	100	859.4	5.2
313.15	5000	865	5.2
313.15	9910	869.8	5.2
313.15	19720	878.3	5.3
313.15	29530	886.2	5.3
313.15	39340	893.4	5.4
313.15	49150	900.1	5.4
313.15	58960	906.4	5.4
313.15	68770	912.3	5.5
313.15	78580	917.9	5.5
313.15	88390	923.1	5.5
313.15	98200	928.1	5.6
313.15	108000	932.8	5.6
313.15	117800	937.3	5.6
313.15	127600	941.6	5.7
313.15	137400	945.7	5.7
313.15	147200	949.7	5.7
313.15	157100	953.5	5.7
313.15	166900	957.1	5.7
313.15	176700	960.6	5.8
313.15	186500	964	5.8
313.15	196300	967.2	5.8
333.15	100	840.3	5
333.15	5000	847.1	5.1
333.15	9910	851.9	5.1
333.15	19720	861.5	5.2
333.15	29530	870.3	5.2
333.15	39340	878.3	5.3
333.15	49150	885.7	5.3
333.15	58960	892.6	5.4
333.15	68770	899	5.4
333.15	78580	905	5.4
333.15	88390	910.7	5.5
333.15	98200	916	5.5
333.15	108000	921.1	5.5
333.15	117800	925.9	5.6
333.15	127600	930.4	5.6
333.15	137400	934.8	5.6
333.15	147200	939	5.6
333.15	157100	943	5.7
333.15	166900	946.8	5.7
333.15	176700	950.5	5.7
333.15	186500	954	5.7
333.15	196300	957.4	5.7
353.15	100	821.3	4.9
353.15	5000	828.1	5
353.15	9910	833.7	5
353.15	19720	844.5	5.1
353.15	29530	854.3	5.1
353.15	39340	863.1	5.2
353.15	49150	871.2	5.2
353.15	58960	878.7	5.3
353.15	68770	885.6	5.3
353.15	78580	892.1	5.4
353.15	88390	898.2	5.4
353.15	98200	903.8	5.4
353.15	108000	909.2	5.5
353.15	117800	914.3	5.5
353.15	127600	919.1	5.5
353.15	137400	923.7	5.5
353.15	147200	928.1	5.6
353.15	157100	932.3	5.6
353.15	166900	936.3	5.6
353.15	176700	940.1	5.6
353.15	186500	943.8	5.7
353.15	196300	947.4	5.7
373.15	100	802.2	4.8
373.15	5000	809.3	4.9
373.15	9910	815.2	4.9
373.15	19720	827.4	5
373.15	29530	838.3	5
373.15	39340	848	5.1
373.15	49150	856.9	5.1
373.15	58960	865	5.2
373.15	68770	872.5	5.2
373.15	78580	879.4	5.3
373.15	88390	885.9	5.3
373.15	98200	891.9	5.4
373.15	108000	897.6	5.4
373.15	117800	903	5.4
373.15	127600	908.1	5.4
373.15	137400	912.9	5.5
373.15	147200	917.5	5.5
373.15	157100	921.9	5.5
373.15	166900	926.1	5.6
373.15	176700	930.1	5.6
373.15	186500	934	5.6
373.15	196300	937.7	5.6
393.15	100	780.7	4.7
393.15	5000	789.2	4.7
393.15	9910	796.7	4.8
393.15	19720	810.5	4.9
393.15	29530	822.6	4.9
393.15	39340	833.3	5
393.15	49150	843	5.1
393.15	58960	851.8	5.1
393.15	68770	859.8	5.2
393.15	78580	867.2	5.2
393.15	88390	874.1	5.2
393.15	98200	880.6	5.3
393.15	108000	886.6	5.3
393.15	117800	892.3	5.4
393.15	127600	897.6	5.4
393.15	137400	902.7	5.4
393.15	147200	907.5	5.4
393.15	157100	912.1	5.5
393.15	166900	916.4	5.5
393.15	176700	920.6	5.5
393.15	186500	924.6	5.5
393.15	196300	928.4	5.6
413.15	100	759.1	4.6
413.15	5000	769.6	4.6
413.15	9910	777.6	4.7
413.15	19720	793.3	4.8
413.15	29530	806.8	4.8
413.15	39340	818.6	4.9
413.15	49150	829.2	5
413.15	58960	838.7	5
413.15	68770	847.4	5.1
413.15	78580	855.3	5.1
413.15	88390	862.7	5.2
413.15	98200	869.5	5.2
413.15	108000	875.8	5.3
413.15	117800	881.8	5.3
413.15	127600	887.4	5.3
413.15	137400	892.7	5.4
413.15	147200	897.8	5.4
413.15	157100	902.5	5.4
413.15	166900	907.1	5.4
413.15	176700	911.4	5.5
413.15	186500	915.6	5.5
413.15	196300	919.5	5.5
