Measured thermophysical data. Vapor-Liquid Equilibrium of Binary Mixtures Containing Ethyl Acetate + 2-Methyl-1-propanol and Ethyl Acetate + 2-Methyl-1-butanol at 101.3 kPa
Source: J. Chem. Eng. Data, 2006, 10.1021/je050420+
Compound 1: ethyl acetate, C4H8O2, InChI=1S/C4H8O2/c1-3-6-4(2)5/h3H2,1-2H3, purity 99.8%
Compound 2: 2-methyl-1-propanol, C4H10O, InChI=1S/C4H10O/c1-4(2)3-5/h4-5H,3H2,1-2H3, purity 99.5%
Compound 3: 2-methyl-1-butanol, C5H12O, InChI=1S/C5H12O/c1-3-5(2)4-6/h5-6H,3-4H2,1-2H3, purity 99%

System: ethyl acetate; phases: Liquid, Gas
Property: Normal boiling temperature, K (Liquid); method: EBULLIO:UFactor:8
Normal boiling temperature, K	uncertainty
350.15	0.2

System: ethyl acetate; phases: Liquid
Property: Refractive index (Na D-line) (Liquid); method: Standard Abbe refractometry
Temperature, K	Pressure, kPa	Refractive index (Na D-line)	uncertainty
298.15	101.325	1.36978	0.00072

System: ethyl acetate; phases: Liquid
Property: Mass density, kg/m3 (Liquid); method: VIBTUB:UFactor:2
Temperature, K	Pressure, kPa	Mass density, kg/m3	uncertainty
298.15	101.325	894.3	0.2

System: ethyl acetate; phases: Liquid
Property: Speed of sound, m/s (Liquid); method: FPINT:UFactor:2
Temperature, K	Pressure, kPa	Speed of sound, m/s	uncertainty
298.15	101.325	1139.6	1.6

System: 2-methyl-1-propanol; phases: Liquid, Gas
Property: Normal boiling temperature, K (Liquid); method: Ebulliometric method (Recirculating still)
Normal boiling temperature, K	uncertainty
380.93	0.2

System: 2-methyl-1-propanol; phases: Liquid
Property: Refractive index (Na D-line) (Liquid); method: Standard Abbe refractometry
Temperature, K	Pressure, kPa	Refractive index (Na D-line)	uncertainty
298.15	101.325	1.39366	0.00073

System: 2-methyl-1-propanol; phases: Liquid
Property: Mass density, kg/m3 (Liquid); method: VIBTUB:UFactor:4
Temperature, K	Pressure, kPa	Mass density, kg/m3	uncertainty
298.15	101.325	797.8	0.6

System: 2-methyl-1-propanol; phases: Liquid
Property: Speed of sound, m/s (Liquid); method: FPINT:UFactor:2
Temperature, K	Pressure, kPa	Speed of sound, m/s	uncertainty
298.15	101.325	1186.4	1.7

System: 2-methyl-1-butanol; phases: Liquid, Gas
Property: Normal boiling temperature, K (Liquid); method: Ebulliometric method (Recirculating still)
Normal boiling temperature, K	uncertainty
401.93	0.2

System: 2-methyl-1-butanol; phases: Liquid
Property: Refractive index (Na D-line) (Liquid); method: Standard Abbe refractometry
Temperature, K	Pressure, kPa	Refractive index (Na D-line)	uncertainty
298.15	101.325	1.40866	0.00072

System: 2-methyl-1-butanol; phases: Liquid
Property: Mass density, kg/m3 (Liquid); method: VIBTUB:UFactor:4
Temperature, K	Pressure, kPa	Mass density, kg/m3	uncertainty
298.15	101.325	814.7	0.6

System: 2-methyl-1-butanol; phases: Liquid
Property: Speed of sound, m/s (Liquid); method: FPINT:UFactor:2
Temperature, K	Pressure, kPa	Speed of sound, m/s	uncertainty
298.15	101.325	1251.8	1.8

System: 2-methyl-1-propanol + ethyl acetate; phases: Liquid, Gas
Fixed: Pressure, kPa = 101
Property: Boiling temperature at pressure P, K (Liquid); method: EBULLIO:UFactor:8
Mole fraction of ethyl acetate	Boiling temperature at pressure P, K	uncertainty
0.016	379.96	0.34
0.048	377.93	0.34
0.083	375.96	0.34
0.11	374.37	0.34
0.159	371.87	0.33
0.213	369.4	0.33
0.281	366.75	0.33
0.357	364.08	0.33
0.403	362.67	0.32
0.446	361.47	0.32
0.489	360.19	0.32
0.528	359.24	0.32
0.571	358.3	0.32
0.614	357.26	0.32
0.652	356.99	0.32
0.695	355.59	0.32
0.741	354.72	0.32
0.781	353.95	0.32
0.818	353.29	0.32
0.849	352.73	0.32
0.879	352.2	0.32

System: 2-methyl-1-propanol + ethyl acetate; phases: Liquid
Fixed: Pressure, kPa = 101
Fixed: Temperature, K = 298.15
Property: Mass density, kg/m3 (Liquid); method: VIBTUB:UFactor:4
Mole fraction of ethyl acetate	Mass density, kg/m3	uncertainty
0.049	802.3	0.6
0.101	806.8	0.6
0.153	811.5	0.6
0.202	816	0.6
0.251	820.6	0.6
0.3	825.2	0.6
0.35	829.9	0.6
0.401	834.7	0.6
0.451	839.5	0.5
0.501	844.3	0.5
0.55	849	0.5
0.6	853.8	0.5
0.65	858.8	0.5
0.7	863.7	0.5
0.751	868.9	0.5
0.801	873.8	0.5
0.85	878.7	0.5
0.9	883.8	0.5
0.95	888.9	0.5

System: 2-methyl-1-propanol + ethyl acetate; phases: Gas, Liquid
Fixed: Pressure, kPa = 101
Property: Mole fraction of ethyl acetate (Gas); method: Density calibration data
Mole fraction of ethyl acetate	Mole fraction of ethyl acetate	uncertainty
0.016	0.053	0.006
0.048	0.148	0.006
0.083	0.237	0.006
0.11	0.306	0.005
0.159	0.397	0.004
0.213	0.484	0.004
0.281	0.565	0.003
0.357	0.641	0.003
0.403	0.681	0.003
0.446	0.712	0.003
0.489	0.745	0.003
0.528	0.771	0.002
0.571	0.794	0.002
0.614	0.817	0.002
0.652	0.836	0.002
0.695	0.858	0.002
0.741	0.88	0.002
0.781	0.899	0.002
0.818	0.916	0.002
0.849	0.93	0.002
0.879	0.945	0.002

System: 2-methyl-1-butanol + ethyl acetate; phases: Liquid, Gas
Fixed: Pressure, kPa = 101
Property: Boiling temperature at pressure P, K (Liquid); method: EBULLIO:UFactor:8
Mole fraction of ethyl acetate	Boiling temperature at pressure P, K	uncertainty
0.022	398.48	0.37
0.04	396.72	0.37
0.057	395.04	0.38
0.073	393.35	0.37
0.101	390.75	0.37
0.143	386.95	0.36
0.173	384.53	0.36
0.215	380.95	0.35
0.274	376.93	0.34
0.349	373	0.34
0.43	368.19	0.33
0.507	364.92	0.33
0.566	362.72	0.33
0.635	360.39	0.33
0.711	357.99	0.33
0.743	356.86	0.32
0.819	354.79	0.32
0.894	352.6	0.32
0.937	351.59	0.32

System: 2-methyl-1-butanol + ethyl acetate; phases: Liquid
Fixed: Pressure, kPa = 101
Fixed: Temperature, K = 298.15
Property: Mass density, kg/m3 (Liquid); method: VIBTUB:UFactor:4
Mole fraction of ethyl acetate	Mass density, kg/m3	uncertainty
0.05	817.8	0.6
0.099	820.9	0.6
0.15	824.2	0.5
0.2	827.5	0.5
0.25	830.9	0.5
0.3	834.4	0.5
0.349	838	0.5
0.399	841.7	0.5
0.451	845.6	0.5
0.499	849.4	0.5
0.549	853.3	0.5
0.598	857.3	0.5
0.65	861.6	0.5
0.699	865.8	0.5
0.75	870.2	0.5
0.793	874.2	0.5
0.846	879.1	0.5
0.9	884.2	0.5
0.95	889.1	0.4

System: 2-methyl-1-butanol + ethyl acetate; phases: Gas, Liquid
Fixed: Pressure, kPa = 101
Property: Mole fraction of ethyl acetate (Gas); method: Density calibration data
Mole fraction of ethyl acetate	Mole fraction of ethyl acetate	uncertainty
0.022	0.129	0.008
0.04	0.197	0.008
0.057	0.257	0.007
0.073	0.31	0.006
0.101	0.391	0.006
0.143	0.489	0.005
0.173	0.548	0.004
0.215	0.623	0.004
0.274	0.698	0.003
0.349	0.76	0.003
0.43	0.823	0.002
0.507	0.862	0.002
0.566	0.886	0.002
0.635	0.909	0.002
0.711	0.931	0.002
0.743	0.941	0.002
0.819	0.959	0.002
0.894	0.976	0.002
0.937	0.984	0.002
