Measured thermophysical data. Ternary Liquid-Liquid(-Liquid) Equilibria of Aniline + Cyclohexylamine + Water, Aniline + Cyclohexylamine + Octane, Aniline + Water + Toluene, and Aniline + Water + Octane
Source: J. Chem. Eng. Data, 2006, 10.1021/je0505366
Compound 1: aniline, C6H7N, InChI=1S/C6H7N/c7-6-4-2-1-3-5-6/h1-5H,7H2, purity 99.5%
Compound 2: water, H2O, InChI=1S/H2O/h1H2
Compound 3: toluene, C7H8, InChI=1S/C7H8/c1-7-5-3-2-4-6-7/h2-6H,1H3, purity 99.8%
Compound 4: octane, C8H18, InChI=1S/C8H18/c1-3-5-7-8-6-4-2/h3-8H2,1-2H3, purity 99.9%
Compound 5: cyclohexylamine, C6H13N, InChI=1S/C6H13N/c7-6-4-2-1-3-5-6/h6H,1-5,7H2, purity 99.9%

System: aniline; phases: Liquid
Property: Refractive index (Na D-line) (Liquid); method: Standard Abbe refractometry
Temperature, K	Pressure, kPa	Refractive index (Na D-line)	uncertainty
293.15	101.325	1.5862	0.0007

System: aniline; phases: Liquid
Property: Mass density, kg/m3 (Liquid); method: VIBTUB:UFactor:2
Temperature, K	Pressure, kPa	Mass density, kg/m3	uncertainty
293.15	101.325	1021.72	0.18

System: aniline; phases: Liquid, Gas
Property: Vapor or sublimation pressure, kPa (Liquid); method: Ebulliometric method (Recirculating still)
Temperature, K	Vapor or sublimation pressure, kPa	uncertainty
383.15	9.21	0.02

System: water; phases: Liquid
Property: Refractive index (Na D-line) (Liquid); method: Standard Abbe refractometry
Temperature, K	Pressure, kPa	Refractive index (Na D-line)	uncertainty
293.15	101.325	1.3336	0.0007

System: water; phases: Liquid
Property: Mass density, kg/m3 (Liquid); method: VIBTUB:UFactor:2
Temperature, K	Pressure, kPa	Mass density, kg/m3	uncertainty
293.15	101.325	998.16	0.11

System: toluene; phases: Liquid
Property: Refractive index (Na D-line) (Liquid); method: Standard Abbe refractometry
Temperature, K	Pressure, kPa	Refractive index (Na D-line)	uncertainty
293.15	101.325	1.496	0.0007

System: toluene; phases: Liquid
Property: Mass density, kg/m3 (Liquid); method: VIBTUB:UFactor:2
Temperature, K	Pressure, kPa	Mass density, kg/m3	uncertainty
293.15	101.325	866.78	0.23

System: octane; phases: Liquid
Property: Refractive index (Na D-line) (Liquid); method: Standard Abbe refractometry
Temperature, K	Pressure, kPa	Refractive index (Na D-line)	uncertainty
298.15	101.325	1.3946	0.0007

System: octane; phases: Liquid
Property: Mass density, kg/m3 (Liquid); method: VIBTUB:UFactor:2
Temperature, K	Pressure, kPa	Mass density, kg/m3	uncertainty
298.15	101.325	698.49	0.39

System: octane; phases: Liquid, Gas
Property: Vapor or sublimation pressure, kPa (Liquid); method: Ebulliometric method (Recirculating still)
Temperature, K	Vapor or sublimation pressure, kPa	uncertainty
383.15	64.09	0.07

System: cyclohexylamine; phases: Liquid
Property: Refractive index (Na D-line) (Liquid); method: Standard Abbe refractometry
Temperature, K	Pressure, kPa	Refractive index (Na D-line)	uncertainty
288.15	101.325	1.4624	0.0007

System: cyclohexylamine; phases: Liquid
Property: Mass density, kg/m3 (Liquid); method: VIBTUB:UFactor:2
Temperature, K	Pressure, kPa	Mass density, kg/m3	uncertainty
303.15	101.325	858.2	0.23

System: aniline + octane; phases: Liquid, Gas
Fixed: Temperature, K = 383.15
Property: Vapor or sublimation pressure, kPa (Liquid); method: Ebulliometric method (Recirculating still)
Mole fraction of octane	Vapor or sublimation pressure, kPa	uncertainty
0	9.21	0.1
0.089	42.59	0.27
0.118	47.33	0.29
0.322	55.52	0.33
0.4	56.2	0.34
0.419	56.35	0.34
0.469	57.05	0.34
0.486	57.35	0.34
0.55	57.65	0.34
0.608	58.29	0.35
0.639	58.58	0.35
0.651	58.6	0.35
0.723	59.39	0.35
0.746	59.66	0.35
0.776	60.15	0.36
0.811	61.13	0.36
0.847	61.96	0.37
0.878	62.52	0.37
0.917	63.27	0.37
0.938	63.6	0.37
1	64.09	0.38

System: aniline + octane; phases: Liquid mixture 1, Liquid mixture 2
Fixed: Pressure, kPa = 101
Property: Mole fraction of aniline (Liquid mixture 1); method: Titration method
Temperature, K	Mole fraction of aniline	uncertainty
298.15	0.086	0.002
298.15	0.955	0.001
333.15	0.275	0.006
333.15	0.865	0.003

System: aniline + cyclohexylamine + octane; phases: Liquid mixture 1, Liquid mixture 2
Fixed: Pressure, kPa = 101
Property: Mole fraction of cyclohexylamine (Liquid mixture 1); method: Titration method
Temperature, K	Mole fraction of aniline	Mole fraction of cyclohexylamine	uncertainty
298.15	0.086	0	
298.15	0.096	0.008	0.001
298.15	0.106	0.018	0.001
298.15	0.121	0.033	0.001
298.15	0.138	0.047	0.002
298.15	0.158	0.065	0.003
298.15	0.2	0.09	0.004
298.15	0.241	0.108	0.004
298.15	0.298	0.126	0.005
298.15	0.384	0.143	0.006
298.15	0.452	0.153	0.006
298.15	0.564	0.16	0.006
298.15	0.661	0.152	0.006
298.15	0.742	0.128	0.005
298.15	0.837	0.082	0.003
298.15	0.922	0.026	0.001
298.15	0.955	0	
333.15	0.275	0	
333.15	0.303	0.01	0.001
333.15	0.33	0.019	0.001
333.15	0.367	0.026	0.001
333.15	0.419	0.035	0.002
333.15	0.477	0.04	0.002
333.15	0.5	0.042	0.002
333.15	0.537	0.042	0.002
333.15	0.585	0.045	0.002
333.15	0.602	0.044	0.002
333.15	0.613	0.045	0.002
333.15	0.623	0.043	0.002
333.15	0.647	0.043	0.002
333.15	0.676	0.042	0.002
333.15	0.738	0.035	0.002
333.15	0.809	0.021	0.001
333.15	0.865	0	

System: aniline + cyclohexylamine + octane; phases: Liquid mixture 2, Liquid mixture 1
Fixed: Pressure, kPa = 101
Property: Mole fraction of cyclohexylamine (Liquid mixture 2); method: Titration method
Property: Mole fraction of cyclohexylamine (Liquid mixture 1); method: Titration method
Property: Mole fraction of aniline (Liquid mixture 1); method: Titration method
Temperature, K	Mole fraction of aniline	Mole fraction of cyclohexylamine	uncertainty	Mole fraction of cyclohexylamine	uncertainty	Mole fraction of aniline	uncertainty
298.15	0.815	0.08	0.003	0.051	0.002	0.167	
298.15	0.894	0.03	0.001	0.014	0.001	0.106	
298.15	0.661	0.152	0.006	0.088	0.004	0.229	
333.15	0.746	0.031	0.001	0.019	0.001	0.33	
333.15	0.867	0.007	0.001	0.007	0.001	0.302	

System: aniline + toluene + water; phases: Liquid mixture 1, Liquid mixture 2
Fixed: Pressure, kPa = 101
Property: Mole fraction of toluene (Liquid mixture 1); method: Titration method
Temperature, K	Mole fraction of aniline	Mole fraction of toluene	uncertainty
298.15	0	0.00012	1e-05
298.15	0.007	0	
298.15	0.433	0.52	0.019
298.15	0.539	0.392	0.016
298.15	0.6	0.314	0.013
298.15	0.637	0.259	0.01
298.15	0.661	0.223	0.009
298.15	0.68	0.191	0.008
298.15	0.698	0.163	0.007
298.15	0.711	0.141	0.006
298.15	0.723	0.12	0.005
298.15	0.732	0.103	0.004
298.15	0.737	0.095	0.004
298.15	0.775	0	
298.15	0	0.997	0.001
333.15	0	0.00016	1e-05
333.15	0.008	0	
333.15	0.457	0.46	0.018
333.15	0.49	0.412	0.016
333.15	0.524	0.364	0.015
333.15	0.555	0.319	0.013
333.15	0.576	0.294	0.012
333.15	0.61	0.243	0.01
333.15	0.693	0.064	0.003
333.15	0.715	0	
333.15	0	0.993	0.001

System: aniline + octane + water; phases: Liquid mixture 1, Liquid mixture 2
Fixed: Pressure, kPa = 101
Property: Mole fraction of octane (Liquid mixture 1); method: Titration method
Temperature, K	Mole fraction of aniline	Mole fraction of octane	uncertainty
298.15	0.007	0	
298.15	0.782	0	
298.15	0.781	0.024	0.001
298.15	0.822	0.028	0.001
298.15	0.876	0.033	0.001
298.15	0.887	0.034	0.001
298.15	0.945	0.042	0.002
298.15	0	0.999	0.001
298.15	0	0	
298.15	0.955	0.045	0.002
298.15	0.086	0.914	0.003
333.15	0.008	0	
333.15	0.275	0.725	0.011
333.15	0.735	0	
333.15	0.753	0.054	0.002
333.15	0.777	0.066	0.003
333.15	0.803	0.076	0.003
333.15	0.833	0.093	0.004
333.15	0.855	0.113	0.005
333.15	0.865	0.135	0.005
333.15	0	0.998	0.001
333.15	0	0	

System: aniline + octane + water; phases: Liquid mixture 3, Liquid mixture 2, Liquid mixture 1
Fixed: Pressure, kPa = 101
Property: Mole fraction of aniline (Liquid mixture 3); method: Chromatography
Property: Mole fraction of octane (Liquid mixture 3); method: Chromatography
Property: Mole fraction of aniline (Liquid mixture 2); method: Chromatography
Property: Mole fraction of octane (Liquid mixture 2); method: Chromatography
Property: Mole fraction of aniline (Liquid mixture 1); method: Chromatography
Property: Mole fraction of octane (Liquid mixture 1); method: Chromatography
Temperature, K	Mole fraction of aniline	uncertainty	Mole fraction of octane	uncertainty	Mole fraction of aniline	uncertainty	Mole fraction of octane	uncertainty	Mole fraction of aniline	uncertainty	Mole fraction of octane	uncertainty
298.15	0.007	0.001	0		0.77	0.002	0.023	0.001	0.073	0.001	0.925	0.001
313.15	0.007	0.001	2e-05	1e-05	0.753	0.003	0.034	0.001	0.107	0.001	0.89	0.001
323.15	0.007	0.001	1.6e-05	1e-06	0.736	0.003	0.04	0.001	0.135	0.001	0.859	0.002
333.15	0.007	0.001	0		0.73	0.003	0.039	0.001	0.167	0.002	0.824	0.002
343.15	0.016	0.001	0.00017	1e-05	0.702	0.003	0.062	0.001	0.189	0.002	0.775	0.002
353.15	0.002	0.001	0.00016	1e-05	0.675	0.003	0.072	0.001	0.244	0.003	0.711	0.003
363.15	0.002	0.001	0.00016	1e-05	0.643	0.004	0.091	0.001	0.327	0.003	0.611	0.004

System: aniline + cyclohexylamine + water; phases: Liquid mixture 1, Liquid mixture 2
Fixed: Pressure, kPa = 101
Property: Mole fraction of cyclohexylamine (Liquid mixture 1); method: Titration method
Temperature, K	Mole fraction of aniline	Mole fraction of cyclohexylamine	uncertainty
298.15	0.004	0.023	0.001
298.15	0.007	0	
298.15	0.011	0.053	0.002
298.15	0.022	0.08	0.003
298.15	0.035	0.1	0.004
298.15	0.042	0.111	0.004
298.15	0.062	0.125	0.005
298.15	0.077	0.133	0.005
298.15	0.088	0.138	0.006
298.15	0.102	0.143	0.006
298.15	0.121	0.147	0.006
298.15	0.137	0.15	0.006
298.15	0.19	0.158	0.006
298.15	0.228	0.159	0.006
298.15	0.253	0.152	0.006
298.15	0.299	0.148	0.006
298.15	0.341	0.141	0.006
298.15	0.376	0.131	0.005
298.15	0.405	0.13	0.005
298.15	0.449	0.121	0.005
298.15	0.49	0.11	0.004
298.15	0.534	0.098	0.004
298.15	0.577	0.084	0.003
298.15	0.609	0.073	0.003
298.15	0.661	0.053	0.002
298.15	0.697	0.038	0.002
298.15	0.735	0.019	0.001
298.15	0.775	0	
333.15	0.003	0.022	0.001
333.15	0.004	0.038	0.002
333.15	0.005	0.047	0.002
333.15	0.006	0.058	0.002
333.15	0.008	0.068	0.003
333.15	0.01	0.077	0.003
333.15	0.012	0.086	0.003
333.15	0.015	0.094	0.004
333.15	0.018	0.101	0.004
333.15	0.024	0.112	0.005
333.15	0.029	0.118	0.005
333.15	0.033	0.124	0.005
333.15	0.04	0.131	0.005
333.15	0.054	0.141	0.006
333.15	0.071	0.149	0.006
333.15	0.096	0.167	0.007
333.15	0.115	0.175	0.007
333.15	0.14	0.183	0.007
333.15	0.176	0.191	0.008
333.15	0.2	0.191	0.008
333.15	0.234	0.19	0.008
333.15	0.276	0.187	0.008
333.15	0.307	0.182	0.007
333.15	0.34	0.172	0.007
333.15	0.377	0.167	0.007
333.15	0.417	0.158	0.006
333.15	0.458	0.142	0.006
333.15	0.489	0.129	0.005
333.15	0.522	0.114	0.005
333.15	0.536	0.111	0.004
333.15	0.56	0.101	0.004
333.15	0.597	0.088	0.004
333.15	0.632	0.073	0.003
333.15	0.671	0.053	0.002
333.15	0.715	0	
333.15	0.003	0.029	0.001
333.15	0.008	0	

System: aniline + cyclohexylamine + water; phases: Liquid mixture 2, Liquid mixture 1
Fixed: Pressure, kPa = 101
Property: Mole fraction of cyclohexylamine (Liquid mixture 2); method: Titration method
Property: Mole fraction of cyclohexylamine (Liquid mixture 1); method: Titration method
Property: Mole fraction of aniline (Liquid mixture 1); method: Titration method
Temperature, K	Mole fraction of aniline	Mole fraction of cyclohexylamine	uncertainty	Mole fraction of cyclohexylamine	uncertainty	Mole fraction of aniline	uncertainty
298.15	0.006	0.003	0.001	0.132	0.005	0.32	
298.15	0.006	0.003	0.001	0.15	0.006	0.233	
298.15	0.006	0.006	0.001	0.149	0.006	0.122	
333.15	0	0.004	0.001	0.17	0.007	0.092	
333.15	0	0.005	0.001	0.17	0.007	0.118	
333.15	0.005	0.004	0.001	0.184	0.007	0.218	
333.15	0.003	0.005	0.001	0.193	0.008	0.165	

System: toluene + water; phases: Liquid mixture 1, Liquid mixture 2
Fixed: Pressure, kPa = 101
Property: Mole fraction of toluene (Liquid mixture 1); method: Titration method
Temperature, K	Mole fraction of toluene	uncertainty
298.15	0.00012	1e-05
298.15	0.997	0.001
333.15	0.00016	1e-05
333.15	0.993	0.001

System: aniline + water; phases: Liquid mixture 1, Liquid mixture 2
Fixed: Pressure, kPa = 101
Property: Mole fraction of aniline (Liquid mixture 1); method: Titration method
Temperature, K	Mole fraction of aniline	uncertainty
298.15	0.007	0.001
298.15	0.775	0.005
333.15	0.008	0.001
333.15	0.715	0.006
333.15	0.735	0.005
298.15	0.782	0.004

System: octane + water; phases: Liquid mixture 1, Liquid mixture 2
Fixed: Pressure, kPa = 101
Property: Mole fraction of octane (Liquid mixture 1); method: Titration method
Temperature, K	Mole fraction of octane	uncertainty
333.15	0.998	0.001
298.15	0.999	0.001
