Measured thermophysical data. Solubility, Density, and Metastable Zone Width of the (1,4-Dioxan-2-one + Ethyl Acetate) System
Source: J. Chem. Eng. Data, 2005, 10.1021/je050149w
Compound 1: 1,4-dioxan-2-one, C4H6O3, InChI=1S/C4H6O3/c5-4-3-6-1-2-7-4/h1-3H2, purity 95%
Compound 2: ethyl acetate, C4H8O2, InChI=1S/C4H8O2/c1-3-6-4(2)5/h3H2,1-2H3, purity 99.5%

System: 1,4-dioxan-2-one; phases: Crystal, Liquid, Air at 1 atmosphere
Property: Molar enthalpy of transition or fusion, kJ/mol (Crystal); method: DSC
Molar enthalpy of transition or fusion, kJ/mol	uncertainty
16.14	0.5

System: 1,4-dioxan-2-one; phases: Crystal, Liquid, Air at 1 atmosphere
Property: Normal melting temperature, K (Crystal); method: DTA
Normal melting temperature, K	uncertainty
301.7	0.5

System: ethyl acetate + 1,4-dioxan-2-one; phases: Liquid, Crystal
Fixed: Pressure, kPa = 101.3
Property: Solid-liquid equilibrium temperature, K (Liquid); method: VISOBS:UFactor:4
Mole fraction of 1,4-dioxan-2-one	Solid-liquid equilibrium temperature, K	uncertainty
0.1701	263.55	0.62
0.2049	268.25	0.62
0.2311	270.85	0.62
0.2713	273.05	0.62
0.302	276.05	0.62
0.3469	278.15	0.62
0.4471	283.45	0.62
0.509	286.05	0.62
0.5637	288.15	0.62
0.6425	290.85	0.62
0.7098	293.25	0.62
0.8127	295.95	0.62

System: ethyl acetate + 1,4-dioxan-2-one; phases: Liquid
Fixed: Pressure, kPa = 101.3
Property: Mass density, kg/m3 (Liquid); method: BUOYAN
Temperature, K	Mole fraction of 1,4-dioxan-2-one	Mass density, kg/m3	uncertainty
263.05	0.201	1003	3
268.05	0.201	998	3
268.05	0.3013	1035	3
273.05	0.201	992	3
273.05	0.3013	1029	3
278.05	0.201	986	3
278.05	0.3013	1024	3
278.05	0.4471	1090	3
283.05	0.201	981	3
283.05	0.3013	1018	3
283.05	0.4471	1083	3
283.05	0.5638	1115	3
288.05	0.201	976	3
288.05	0.3013	1012	3
288.05	0.4471	1078	3
288.05	0.5638	1110	3
288.05	0.7099	1164	4
293.05	0.201	969	3
293.05	0.3013	1007	3
293.05	0.4471	1072	3
293.05	0.5638	1104	3
293.05	0.7099	1158	4
298.05	0.201	964	3
298.05	0.3013	1001	3
298.55	0.4471	1065	3
298.55	0.5638	1098	3
298.55	0.7099	1151	4
