Measured thermophysical data. Solubility of p-Nitrobenzoic Acid in Supercritical Carbon Dioxide with and without Cosolvents
Source: J. Chem. Eng. Data, 2006, 10.1021/je050354b
Compound 1: 4-nitrobenzoic acid, C7H5NO4, InChI=1S/C7H5NO4/c9-7(10)5-1-3-6(4-2-5)8(11)12/h1-4H,(H,9,10)
Compound 2: cyclohexane, C6H12, InChI=1S/C6H12/c1-2-4-6-5-3-1/h1-6H2
Compound 3: ethanol, C2H6O, InChI=1S/C2H6O/c1-2-3/h3H,2H2,1H3
Compound 4: acetone, C3H6O, InChI=1S/C3H6O/c1-3(2)4/h1-2H3
Compound 5: carbon dioxide, CO2, InChI=1S/CO2/c2-1-3

System: 4-nitrobenzoic acid + carbon dioxide; phases: Fluid (supercritical or subcritical phases), Crystal
Property: Mole fraction of 4-nitrobenzoic acid (Fluid (supercritical or subcritical phases)); method: depressurized gas volume and solute mass
Temperature, K	Pressure, kPa	Mole fraction of 4-nitrobenzoic acid	uncertainty
308	8000	2.6e-05	5e-06
308	11000	0.000146	1.5e-05
308	13000	0.000163	1.6e-05
308	17000	0.000171	1.8e-05
308	21000	0.000175	1.9e-05
318	8000	2.1e-05	4e-06
318	11000	0.000117	1.3e-05
318	13000	0.000168	1.7e-05
318	17000	0.000232	2.4e-05
318	21000	0.000246	2.6e-05
328	8000	2e-05	3e-06
328	11000	6.7e-05	8e-06
328	13000	0.000195	2e-05
328	17000	0.000285	2.9e-05
328	21000	0.000322	3.3e-05

System: 4-nitrobenzoic acid + cyclohexane + carbon dioxide; phases: Fluid (supercritical or subcritical phases), Crystal
Fixed: Temperature, K = 308
Fixed: Solvent: Mole fraction of cyclohexane = 0.03
Property: Mole fraction of 4-nitrobenzoic acid (Fluid (supercritical or subcritical phases)); method: depressurized gas volume and solute mass
Pressure, kPa	Mole fraction of 4-nitrobenzoic acid	uncertainty
8000	6.7e-05	8e-06
11000	0.000215	2.2e-05
13000	0.000239	2.4e-05
17000	0.000248	2.5e-05
21000	0.00026	2.6e-05

System: 4-nitrobenzoic acid + ethanol + carbon dioxide; phases: Fluid (supercritical or subcritical phases), Crystal
Fixed: Temperature, K = 308
Fixed: Solvent: Mole fraction of ethanol = 0.03
Property: Mole fraction of 4-nitrobenzoic acid (Fluid (supercritical or subcritical phases)); method: depressurized gas volume and solute mass
Pressure, kPa	Mole fraction of 4-nitrobenzoic acid	uncertainty
8000	7.6e-05	9e-06
11000	0.000246	2.5e-05
13000	0.000265	2.7e-05
17000	0.000279	2.8e-05
21000	0.000287	2.9e-05

System: 4-nitrobenzoic acid + acetone + carbon dioxide; phases: Fluid (supercritical or subcritical phases), Crystal
Fixed: Temperature, K = 308
Fixed: Solvent: Mole fraction of acetone = 0.03
Property: Mole fraction of 4-nitrobenzoic acid (Fluid (supercritical or subcritical phases)); method: depressurized gas volume and solute mass
Pressure, kPa	Mole fraction of 4-nitrobenzoic acid	uncertainty
8000	0.00012	1.4e-05
11000	0.000329	3.3e-05
13000	0.000355	3.6e-05
17000	0.000363	3.6e-05
21000	0.000376	3.8e-05
