Measured thermophysical data. P-rho-T and VLE for Ethane + Hydrogen Sulfide from (254.05 to 363.21) K at Pressures up to 20 MPa
Source: J. Chem. Eng. Data, 2005, 10.1021/je050157c
Compound 1: ethane, C2H6, InChI=1S/C2H6/c1-2/h1-2H3
Compound 2: hydrogen sulfide, H2S, InChI=1S/H2S/h1H2

System: ethane + hydrogen sulfide; phases: Liquid, Gas
Property: Mass density, kg/m3 (Liquid); method: Vibrating tube method
Temperature, K	Mole fraction of hydrogen sulfide	Mass density, kg/m3	uncertainty
254.1	0.0977	462.5	0.7
263.43	0.038	430.1	0.5
268.17	0.143	443.6	0.5
273.4	0.0563	410.8	0.5
283.31	0.143	403.8	0.5
293.25	0.038	346.4	0.5
303.15	0.0977	304.4	1.8

System: ethane + hydrogen sulfide; phases: Gas, Liquid
Property: Mass density, kg/m3 (Gas); method: Vibrating tube method
Temperature, K	Mole fraction of hydrogen sulfide	Mass density, kg/m3	uncertainty
254.1	0.0977	27.3	0.7
263.43	0.038	35.3	0.4
268.17	0.143	40.9	0.6
273.4	0.0563	47.2	0.4
283.31	0.143	63.6	0.4
293.25	0.038	87.3	0.5
303.15	0.0977	131.9	1

System: ethane + hydrogen sulfide; phases: Gas
Property: Mass density, kg/m3 (Gas); method: Vibrating tube method
Mole fraction of hydrogen sulfide	Temperature, K	Pressure, kPa	Mass density, kg/m3	uncertainty
0.038	263.43	37	0.5	0.1
0.038	263.43	499	7.4	0.1
0.038	263.43	1013	16.1	0.1
0.038	263.43	1515	26.2	0.1
0.038	263.43	1873	35.1	0.1
0.038	293.24	42	0.5	0.1
0.038	293.24	505	6.6	0.1
0.038	293.24	1009	13.7	0.1
0.038	293.24	1528	21.9	0.1
0.038	293.24	2029	30.9	0.1
0.038	293.24	2507	40.9	0.1
0.038	293.24	3019	54.1	0.2
0.038	293.24	3505	71	0.2
0.038	293.24	3798	86.6	0.3
0.0563	273.41	26	0.3	0.1
0.0563	273.41	520	7.5	0.1
0.0563	273.41	1508	24.3	0.1
0.0563	273.41	2022	35.7	0.1
0.0563	273.41	2402	46.5	0.1
0.0977	254.05	16	0.3	0.1
0.0977	254.05	506	8	0.1
0.0977	254.05	1004	17	0.1
0.0977	303.14	111	1.4	0.1
0.0977	303.14	542	6.9	0.1
0.0977	303.14	1037	13.6	0.1
0.0977	303.14	1552	21.3	0.1
0.0977	303.14	2031	29.3	0.1
0.0977	303.14	2540	38.8	0.1
0.0977	303.14	3032	49.4	0.1
0.0977	303.14	3508	61.8	0.2
0.0977	303.14	4005	78.6	0.2
0.143	268.15	112	1.6	0.1
0.143	268.15	531	7.8	0.1
0.143	268.15	1029	16	0.1
0.143	268.15	1511	25.3	0.1
0.143	268.15	2007	37	0.1

System: ethane + hydrogen sulfide; phases: Liquid
Property: Mass density, kg/m3 (Liquid); method: Vibrating tube method
Mole fraction of hydrogen sulfide	Temperature, K	Pressure, kPa	Mass density, kg/m3	uncertainty
0.038	263.43	1989	430.6	0.5
0.038	263.43	2503	432.8	0.5
0.038	263.43	3007	435	0.5
0.038	263.43	3507	437	0.5
0.038	263.43	4010	439	0.5
0.038	263.43	4505	440.8	0.5
0.038	263.43	5023	442.6	0.5
0.038	263.43	5511	444.3	0.5
0.038	263.43	6016	445.9	0.5
0.038	263.43	6500	447.5	0.5
0.038	263.43	7009	449.1	0.6
0.038	263.43	7488	450.5	0.6
0.038	263.43	8012	452	0.6
0.038	263.43	8487	453.4	0.6
0.038	263.43	9000	454.8	0.6
0.038	263.43	9484	456.1	0.6
0.038	263.43	10009	457.5	0.6
0.038	263.43	10481	458.7	0.6
0.038	263.43	11024	460	0.6
0.038	263.43	11515	461.2	0.6
0.038	263.43	12032	462.5	0.6
0.038	263.43	12500	463.5	0.6
0.038	263.43	13005	464.7	0.6
0.038	263.43	13543	465.9	0.6
0.038	263.43	14011	467	0.6
0.038	263.43	14498	468	0.6
0.038	263.43	14864	468.9	0.7
0.038	293.24	4013	350.5	0.4
0.038	293.24	4507	359.1	0.6
0.038	293.24	5001	365.5	0.5
0.038	293.24	5501	371.2	0.5
0.038	293.24	6017	376.3	0.5
0.038	293.24	6516	380.7	0.5
0.038	293.24	7025	384.7	0.5
0.038	293.24	7532	388.3	0.5
0.038	293.24	8009	391.5	0.5
0.038	293.24	8535	394.7	0.5
0.038	293.24	9023	397.5	0.5
0.038	293.24	9501	400.1	0.5
0.038	293.24	10000	402.6	0.5
0.038	293.24	10528	405.2	0.5
0.038	293.24	11010	407.5	0.5
0.038	293.24	11511	409.8	0.5
0.038	293.24	12026	412	0.6
0.038	293.24	12516	414	0.6
0.038	293.24	13050	416	0.6
0.038	293.24	13529	417.9	0.6
0.038	293.24	14043	419.8	0.6
0.038	293.24	14532	421.5	0.6
0.038	293.24	15006	423.1	0.6
0.0563	273.41	2518	411.5	0.5
0.0563	273.41	3015	414.6	0.5
0.0563	273.41	3539	417.6	0.5
0.0563	273.41	4013	420.2	0.5
0.0563	273.41	4504	422.6	0.5
0.0563	273.41	5023	425.1	0.5
0.0563	273.41	5528	427.4	0.5
0.0563	273.41	6035	429.6	0.5
0.0563	273.41	6526	431.6	0.5
0.0563	273.41	7027	433.6	0.5
0.0563	273.41	7500	435.4	0.5
0.0563	273.41	8008	437.2	0.6
0.0563	273.41	8504	438.9	0.6
0.0563	273.41	9040	440.8	0.6
0.0563	273.41	9541	442.4	0.6
0.0563	273.41	10025	443.9	0.6
0.0563	273.41	10511	445.4	0.6
0.0563	273.41	11020	447	0.6
0.0563	273.41	11521	448.4	0.6
0.0563	273.41	12056	449.9	0.6
0.0563	273.41	12528	451.3	0.6
0.0563	273.41	13016	452.6	0.6
0.0563	273.41	13521	453.9	0.6
0.0563	273.41	14053	455.3	0.6
0.0563	273.41	14544	456.5	0.6
0.0977	254.05	1593	462.8	0.5
0.0977	254.05	2020	464.2	0.5
0.0977	254.05	2513	465.8	0.5
0.0977	254.05	3032	467.5	0.5
0.0977	254.05	3527	468.9	0.5
0.0977	254.05	4027	470.4	0.6
0.0977	254.05	4526	471.8	0.6
0.0977	254.05	5004	473.1	0.6
0.0977	254.05	5501	474.5	0.6
0.0977	254.05	6013	475.8	0.6
0.0977	254.05	6529	477.1	0.6
0.0977	254.05	7007	478.4	0.6
0.0977	254.05	7506	479.6	0.6
0.0977	254.05	8074	480.8	0.6
0.0977	254.05	8538	482	0.6
0.0977	254.05	9038	483.1	0.6
0.0977	254.05	9505	484.2	0.6
0.0977	254.05	10025	485.3	0.6
0.0977	254.05	10547	486.4	0.6
0.0977	254.05	11048	487.5	0.6
0.0977	254.05	11515	488.5	0.6
0.0977	254.05	12026	489.5	0.6
0.0977	254.05	12502	490.5	0.7
0.0977	254.05	13029	491.5	0.7
0.0977	254.05	13515	492.4	0.7
0.0977	254.05	14025	493.4	0.7
0.0977	254.05	14544	494.4	0.7
0.0977	254.05	15049	495.3	0.7
0.0977	254.05	15530	496.2	0.7
0.0977	254.05	16018	497	0.7
0.0977	254.05	16561	498	0.7
0.0977	254.05	17029	498.8	0.7
0.0977	254.05	17503	499.7	0.7
0.0977	254.05	18027	500.6	0.7
0.0977	254.05	18519	501.4	0.7
0.0977	254.05	19017	502.2	0.7
0.0977	254.05	19513	503	0.8
0.0977	254.05	20002	503.8	0.8
0.0977	254.05	20521	504.5	0.8
0.0977	254.05	21008	505.3	0.8
0.0977	254.05	21521	506.1	0.8
0.0977	303.14	5002	322.8	0.4
0.0977	303.14	5501	339.8	0.4
0.0977	303.14	6016	350.8	0.4
0.0977	303.14	6512	358.9	0.4
0.0977	303.14	7005	365.5	0.5
0.0977	303.14	7505	371.2	0.5
0.0977	303.14	8005	376.2	0.5
0.0977	303.14	8528	380.9	0.5
0.0977	303.14	9039	385.1	0.5
0.0977	303.14	9533	388.8	0.5
0.0977	303.14	10019	392.2	0.5
0.0977	303.14	10550	395.7	0.5
0.0977	303.14	11030	398.7	0.5
0.0977	303.14	11526	401.5	0.5
0.0977	303.14	12049	404.4	0.5
0.0977	303.14	12537	406.9	0.5
0.0977	303.14	13057	409.5	0.6
0.0977	303.14	13553	411.8	0.6
0.0977	303.14	14063	414.2	0.6
0.0977	303.14	14529	416.2	0.6
0.0977	303.14	15040	418.3	0.6
0.0977	303.14	15545	420.4	0.6
0.0977	303.14	16002	422.2	0.6
0.0977	303.14	16554	424.3	0.6
0.0977	303.14	17059	426.1	0.6
0.0977	303.14	17529	427.8	0.6
0.0977	303.14	18066	429.6	0.6
0.0977	303.14	18581	431.4	0.6
0.0977	303.14	19021	432.8	0.7
0.0977	303.14	19584	434.6	0.7
0.0977	303.14	20082	436.1	0.7
0.0977	303.14	20583	437.6	0.7
0.0977	303.14	21039	439.1	0.7
0.143	268.15	2514	445.3	0.5
0.143	268.15	3011	447.8	0.5
0.143	268.15	3510	450.1	0.5
0.143	268.15	4024	452.3	0.5
0.143	268.15	4524	454.4	0.6
0.143	268.15	5004	456.3	0.6
0.143	268.15	5503	458.2	0.6
0.143	268.15	6002	460.1	0.6
0.143	268.15	6521	461.8	0.6
0.143	268.15	7025	463.6	0.6
0.143	268.15	7512	465.2	0.6
0.143	268.15	8011	466.8	0.6
0.143	268.15	8503	468.3	0.6
0.143	268.15	9020	469.9	0.6
0.143	268.15	9528	471.4	0.6
0.143	268.15	10040	472.8	0.6
0.143	268.15	10516	474.2	0.6
0.143	268.15	11023	475.6	0.6
0.143	268.15	11531	476.9	0.6
0.143	268.15	12028	478.2	0.6
0.143	268.15	12514	479.4	0.6
0.143	268.15	13007	480.7	0.7
0.143	268.15	13514	481.9	0.7
0.143	268.15	14025	483.2	0.7
0.143	268.15	14504	484.2	0.7
0.143	268.15	15003	485.4	0.7
0.143	268.15	15538	486.6	0.7
0.143	268.15	16001	487.6	0.7
0.143	268.15	16547	488.8	0.7
0.143	268.15	17012	489.8	0.7
0.143	268.15	17551	490.9	0.7
0.143	268.15	18078	492	0.7
0.143	268.15	18516	492.9	0.7
0.143	268.15	19014	493.9	0.7
0.143	268.15	19551	494.9	0.7
0.143	268.15	20022	495.9	0.8
0.143	268.15	20523	496.8	0.8
0.143	268.15	21032	497.8	0.8
0.143	268.15	21503	498.6	0.8

System: ethane + hydrogen sulfide; phases: Fluid (supercritical or subcritical phases)
Property: Mass density, kg/m3 (Fluid (supercritical or subcritical phases)); method: Vibrating tube method
Mole fraction of hydrogen sulfide	Temperature, K	Pressure, kPa	Mass density, kg/m3	uncertainty
0.038	333.23	39	0.5	0.1
0.038	333.23	523	6	0.1
0.038	333.23	1025	11.9	0.1
0.038	333.23	1541	18.5	0.1
0.038	333.23	2023	25	0.1
0.038	333.23	2526	32.4	0.1
0.038	333.23	3001	39.8	0.1
0.038	333.23	3521	48.8	0.1
0.038	333.23	4004	57.9	0.1
0.038	333.23	4502	68.4	0.2
0.038	333.23	5002	80.5	0.2
0.038	333.23	5502	94.1	0.3
0.038	333.23	6007	110.8	0.8
0.038	333.23	6506	130.9	0.9
0.038	333.23	7009	155.6	0.9
0.038	333.23	7516	184	0.7
0.038	333.23	8006	211.3	0.6
0.038	333.23	8512	235.7	0.5
0.038	333.23	9012	255.1	0.4
0.038	333.23	9503	270.4	0.4
0.038	333.23	10032	283.7	0.4
0.038	333.23	10508	293.6	0.4
0.038	333.23	11006	302.5	0.4
0.038	333.23	11511	310.4	0.4
0.038	333.23	12065	318	0.4
0.038	333.23	12530	323.8	0.5
0.038	333.23	13022	329.3	0.5
0.038	333.23	13545	334.9	0.5
0.038	333.23	14078	339.8	0.5
0.0563	313.14	47	0.6	0.1
0.0563	313.14	511	6.2	0.1
0.0563	313.14	1538	20.2	0.1
0.0563	313.14	2016	27.4	0.1
0.0563	313.14	2502	35.7	0.1
0.0563	313.14	3024	45.6	0.1
0.0563	313.14	3511	56.2	0.1
0.0563	313.14	4004	69.1	0.2
0.0563	313.14	4505	85.7	0.2
0.0563	313.14	5001	108.6	0.3
0.0563	313.14	5502	149	0.6
0.0563	313.14	6009	244.1	0.7
0.0563	313.14	6547	287.4	0.6
0.0563	313.14	7010	305.9	0.5
0.0563	313.14	7595	321.3	0.5
0.0563	313.14	8067	330.6	0.5
0.0563	313.14	8569	338.7	0.5
0.0563	313.14	9087	345.8	0.5
0.0563	313.14	9611	352	0.5
0.0563	313.14	10001	356.1	0.5
0.0563	313.14	10527	361.2	0.5
0.0563	313.14	11077	365.9	0.5
0.0563	313.14	11554	369.7	0.5
0.0563	313.14	12109	373.8	0.5
0.0563	313.14	12503	376.6	0.5
0.0563	313.14	13060	380.4	0.5
0.0563	313.14	13548	383.3	0.5
0.0563	353.15	104	1.1	0.1
0.0563	353.15	559	6.1	0.1
0.0563	353.15	1556	17.5	0.1
0.0563	353.15	2026	23.2	0.1
0.0563	353.15	2549	29.9	0.1
0.0563	353.15	3050	36.8	0.1
0.0563	353.15	3516	43.6	0.1
0.0563	353.15	4014	51.3	0.1
0.0563	353.15	4543	60.3	0.1
0.0563	353.15	5016	68.7	0.1
0.0563	353.15	5504	77.9	0.2
0.0563	353.15	6017	88.8	0.4
0.0563	353.15	6503	100.1	0.4
0.0563	353.15	7021	113.4	0.5
0.0563	353.15	7506	126.9	0.4
0.0563	353.15	8023	142.6	0.4
0.0563	353.15	8512	158.5	0.4
0.0563	353.15	9014	175.3	0.4
0.0563	353.15	9519	192.2	0.4
0.0563	353.15	10001	207.8	0.4
0.0563	353.15	10508	223	0.4
0.0563	353.15	11024	236.8	0.4
0.0563	353.15	11504	248.6	0.4
0.0563	353.15	12040	259.9	0.4
0.0563	353.15	12516	268.8	0.4
0.0563	353.15	13052	278.6	2.4
0.0563	353.15	13588	286.4	0.4
0.0563	353.15	14050	292.6	0.4
0.0563	353.15	14564	298.9	0.4
0.0563	353.15	15065	304.9	0.4
0.0563	353.15	15533	309.9	0.5
0.0563	353.15	16020	314.8	0.5
0.0563	353.15	16557	319.9	0.5
0.0563	353.15	17112	324.8	0.5
0.0563	353.15	17529	328.2	0.5
0.0977	363.21	45	0.5	0.1
0.0977	363.21	536	5.6	0.1
0.0977	363.21	1025	10.9	0.1
0.0977	363.21	1513	16.4	0.1
0.0977	363.21	2042	22.6	0.1
0.0977	363.21	2511	28.4	0.1
0.0977	363.21	3022	35	0.1
0.0977	363.21	3522	41.9	0.1
0.0977	363.21	4030	49.2	0.1
0.0977	363.21	4526	56.8	0.1
0.0977	363.21	5036	64.8	0.1
0.0977	363.21	5513	72.9	0.1
0.0977	363.21	6000	81.9	0.2
0.0977	363.21	6503	91.8	0.2
0.0977	363.21	7010	102.5	0.2
0.0977	363.21	7504	113.7	0.4
0.0977	363.21	8019	126.2	0.3
0.0977	363.21	8520	139.1	0.3
0.0977	363.21	9002	152	0.3
0.0977	363.21	9515	166.3	0.3
0.0977	363.21	10026	180.6	0.3
0.0977	363.21	10507	193.9	0.3
0.0977	363.21	11005	207.3	0.3
0.0977	363.21	11521	220.4	0.3
0.0977	363.21	12017	232.1	0.3
0.0977	363.21	12517	243	0.4
0.0977	363.21	13011	252.9	0.4
0.0977	363.21	13528	262.4	0.4
0.0977	363.21	14033	270.9	0.4
0.0977	363.21	14520	278.3	0.4
0.0977	363.21	15007	285.3	0.4
0.0977	363.21	15520	292	0.4
0.0977	363.21	16005	297.9	0.4
0.0977	363.21	16547	304.1	0.5
0.0977	363.21	17035	309.2	0.5
0.0977	363.21	17512	313.9	0.5
0.0977	363.21	18010	318.5	0.5
0.0977	363.21	18518	322.9	0.5
0.0977	363.21	19041	327.2	0.5
0.143	283.3	25	0.3	0.1
0.143	283.3	510	7	0.1
0.143	283.3	1001	14.4	0.1
0.143	283.3	1526	23.4	0.1
0.143	283.3	2015	33	0.1
0.143	283.3	2500	44.5	0.1
0.143	283.3	3014	60.8	1.4
0.143	283.3	3511	407.8	1.5
0.143	283.3	4003	412.1	0.7
0.143	283.3	4509	415.9	0.7
0.143	283.3	5032	419.5	0.7
0.143	283.3	5512	422.6	0.6
0.143	283.3	6017	425.7	0.6
0.143	283.3	6532	428.5	0.6
0.143	283.3	7013	431.1	0.6
0.143	283.3	7509	433.6	0.6
0.143	283.3	8035	436.1	0.6
0.143	283.3	8513	438.3	0.6
0.143	283.3	9029	440.5	0.6
0.143	283.3	9513	442.5	0.6
0.143	283.3	10033	444.6	0.6
0.143	283.3	10546	446.6	0.6
0.143	283.3	11020	448.3	0.6
0.143	283.3	11539	450.2	0.6
0.143	283.3	12016	451.9	0.6
0.143	283.3	12516	453.5	0.6
0.143	283.3	13046	455.3	0.6
0.143	283.3	13521	456.8	0.6
0.143	283.3	14029	458.3	0.6
0.143	283.3	14527	459.8	0.6
0.143	283.3	15050	461.4	0.6
0.143	283.3	15502	462.7	0.7
0.143	283.3	16044	464.2	1.4
0.143	283.3	16513	465.5	1.4
0.143	283.3	17058	467	1.4
0.143	283.3	17510	468.1	1.5
0.143	283.3	18015	469.4	1.5
0.143	283.3	18542	470.8	1.5
0.143	283.3	19002	471.9	1.5
0.143	283.3	19545	473.2	1.5
0.143	283.3	20029	474.4	1.5
0.143	283.3	20565	475.6	1.5
0.143	283.3	21034	476.6	1.5
0.143	283.3	21519	477.8	1.5
0.143	322.21	66	0.8	0.1
0.143	322.21	538	6.4	0.1
0.143	322.21	1031	12.6	0.1
0.143	322.21	1549	19.5	0.1
0.143	322.21	2001	26.1	0.1
0.143	322.21	2529	34.3	0.1
0.143	322.21	3032	43.1	0.1
0.143	322.21	3522	52.5	0.5
0.143	322.21	4000	62.8	0.5
0.143	322.21	4512	75.6	0.5
0.143	322.21	5022	91.1	0.5
0.143	322.21	5501	108.7	0.4
0.143	322.21	6008	134.7	0.5
0.143	322.21	6510	173.9	0.5
0.143	322.21	7013	226	0.5
0.143	322.21	7521	267.2	0.5
0.143	322.21	8028	292.3	0.4
0.143	322.21	8532	309.1	0.4
0.143	322.21	9019	321.4	0.4
0.143	322.21	9526	331.6	0.4
0.143	322.21	10007	339.7	0.5
0.143	322.21	10531	347.3	0.5
0.143	322.21	11064	354	0.5
0.143	322.21	11514	358.8	0.5
0.143	322.21	12004	363.7	0.5
0.143	322.21	12563	368.8	0.5
0.143	322.21	13066	373	0.5
0.143	322.21	13509	376.5	0.5
0.143	322.21	14045	380.5	0.5
0.143	322.21	14514	383.7	0.5
0.143	322.21	15012	387	0.5
0.143	322.21	15525	390.2	0.6
0.143	322.21	16068	393.3	0.6
0.143	322.21	16524	395.9	0.6
0.143	322.21	17097	399	0.6
0.143	322.21	17555	401.3	0.6
0.143	322.21	18041	403.7	0.6
0.143	322.21	18541	406	0.6
0.143	322.21	19084	408.5	0.6
0.143	322.21	19607	410.8	0.6
0.143	322.21	20046	412.6	0.6
0.143	322.21	20528	414.6	0.6
