Measured thermophysical data. Vapor-Liquid Equilibria for the n-Pentane + 1-Propanol and n-Pentane + 2-Methyl-1-propanol Systems near the Critical Region
Source: J. Chem. Eng. Data, 2006, 10.1021/je050442w
Compound 1: pentane, C5H12, InChI=1S/C5H12/c1-3-5-4-2/h3-5H2,1-2H3, purity 99.5%
Compound 2: propan-1-ol, C3H8O, InChI=1S/C3H8O/c1-2-3-4/h4H,2-3H2,1H3, purity 99.5%
Compound 3: 2-methyl-1-propanol, C4H10O, InChI=1S/C4H10O/c1-4(2)3-5/h4-5H,3H2,1-2H3, purity 99.5%

System: pentane; phases: Liquid, Gas
Fixed: Temperature, K = 468.15
Property: Vapor or sublimation pressure, kPa (Liquid); method: CCELL::UFactor:6
Vapor or sublimation pressure, kPa	uncertainty
3286	61
3264	61

System: propan-1-ol; phases: Liquid, Gas
Property: Vapor or sublimation pressure, kPa (Liquid); method: CCELL::UFactor:6
Temperature, K	Vapor or sublimation pressure, kPa	uncertainty
468.15	1558	29
483.15	2081	39
498.15	2733	51
513.15	3546	66

System: 2-methyl-1-propanol; phases: Liquid, Gas
Property: Vapor or sublimation pressure, kPa (Liquid); method: CCELL:UFactor:6
Temperature, K	Vapor or sublimation pressure, kPa	uncertainty
468.15	1113	21
483.15	1506	28
498.15	1933	36
513.15	2505	47

System: propan-1-ol + pentane; phases: Liquid, Gas
Property: Critical pressure, kPa (Liquid); method: DIRECT:UFactor:4
Mole fraction of pentane	Critical pressure, kPa	uncertainty
0.245	4824	62
0.415	4445	57
0.592	4029	51

System: propan-1-ol + pentane; phases: Liquid, Gas
Property: Critical temperature, K (Liquid); method: Visual observation in a stirred cell
Mole fraction of pentane	Critical temperature, K	uncertainty
0.245	513.15	0.54
0.415	498.15	0.53
0.592	483.15	0.52

System: propan-1-ol + pentane; phases: Liquid, Gas
Property: Vapor or sublimation pressure, kPa (Liquid); method: CCELL:UFactor:6
Mole fraction of pentane	Temperature, K	Vapor or sublimation pressure, kPa	uncertainty
0	468.15	1558	29
0	483.15	2081	39
0	498.15	2733	51
0	513.15	3546	66
0.02	468.15	1679	45
0.02	498.15	2864	66
0.025	513.15	3726	81
0.026	483.15	2239	54
0.044	498.15	2999	68
0.046	483.15	2357	56
0.049	513.15	3883	82
0.05	468.15	1833	45
0.067	483.15	2477	54
0.075	498.15	3204	70
0.083	513.15	4088	86
0.091	468.15	2021	46
0.105	483.15	2664	56
0.117	513.15	4326	88
0.118	498.15	3457	72
0.134	468.15	2198	47
0.155	483.15	2880	59
0.162	513.15	4561	90
0.169	498.15	3713	73
0.2	468.15	2425	49
0.201	513.15	4729	90
0.21	483.15	3090	62
0.24	498.15	3966	77
0.245	513.15	4824	91
0.27	468.15	2631	52
0.27	483.15	3277	63
0.303	498.15	4183	80
0.341	483.15	3484	68
0.351	468.15	2824	54
0.376	498.15	4362	83
0.39	483.15	3639	69
0.404	498.15	4423	83
0.415	498.15	4445	84
0.448	468.15	3017	57
0.472	483.15	3823	73
0.514	483.15	3914	74
0.541	483.15	3964	74
0.577	468.15	3208	61
0.592	483.15	4029	76
0.65	468.15	3306	62
0.772	468.15	3408	64
0.787	468.15	3416	64
0.836	468.15	3425	64
0.868	468.15	3408	64
0.948	468.15	3352	63
1	468.15	3286	61

System: propan-1-ol + pentane; phases: Gas, Liquid
Property: Mole fraction of pentane (Gas); method: CHROM:UFactor:4
Mole fraction of pentane	Temperature, K	Mole fraction of pentane	uncertainty
0	468.15	0	0.001
0	483.15	0	0.001
0	498.15	0	0.001
0	513.15	0	0.001
0.02	468.15	0.064	0.016
0.02	498.15	0.042	0.013
0.025	513.15	0.047	0.013
0.026	483.15	0.072	0.017
0.044	498.15	0.085	0.013
0.046	483.15	0.119	0.015
0.049	513.15	0.089	0.011
0.05	468.15	0.128	0.014
0.067	483.15	0.161	0.014
0.075	498.15	0.14	0.013
0.083	513.15	0.134	0.011
0.091	468.15	0.209	0.013
0.105	483.15	0.227	0.013
0.117	513.15	0.181	0.011
0.118	498.15	0.211	0.012
0.134	468.15	0.264	0.013
0.155	483.15	0.285	0.013
0.162	513.15	0.217	0.01
0.169	498.15	0.272	0.012
0.2	468.15	0.351	0.015
0.201	513.15	0.24	0.01
0.21	483.15	0.339	0.014
0.24	498.15	0.33	0.014
0.245	513.15	0.245	0.01
0.27	468.15	0.426	0.017
0.27	483.15	0.4	0.016
0.303	498.15	0.368	0.014
0.341	483.15	0.455	0.017
0.351	468.15	0.487	0.019
0.376	498.15	0.401	0.015
0.39	483.15	0.494	0.019
0.404	498.15	0.413	0.016
0.415	498.15	0.415	0.016
0.448	468.15	0.559	0.017
0.472	483.15	0.54	0.018
0.514	483.15	0.565	0.017
0.541	483.15	0.576	0.016
0.577	468.15	0.643	0.014
0.592	483.15	0.592	0.015
0.65	468.15	0.684	0.013
0.772	468.15	0.78	0.01
0.787	468.15	0.789	0.011
0.836	468.15	0.833	0.01
0.868	468.15	0.863	0.01
0.948	468.15	0.946	0.009
1	468.15	1	0.001

System: 2-methyl-1-propanol + pentane; phases: Liquid, Gas
Property: Critical pressure, kPa (Liquid); method: Direct measurement
Mole fraction of pentane	Critical pressure, kPa	uncertainty
0.375	4155	54
0.55	3951	51
0.726	3659	48

System: 2-methyl-1-propanol + pentane; phases: Liquid, Gas
Property: Critical temperature, K (Liquid); method: Visual observation in a stirred cell
Mole fraction of pentane	Critical temperature, K	uncertainty
0.375	513.15	0.52
0.55	498.15	0.52
0.726	483.15	0.52

System: 2-methyl-1-propanol + pentane; phases: Liquid, Gas
Property: Vapor or sublimation pressure, kPa (Liquid); method: CCELL:UFactor:6
Mole fraction of pentane	Temperature, K	Vapor or sublimation pressure, kPa	uncertainty
0	468.15	1113	21
0	483.15	1506	28
0	498.15	1933	36
0	513.15	2505	47
0.037	468.15	1244	32
0.037	498.15	2157	49
0.039	513.15	2723	60
0.055	483.15	1715	40
0.074	513.15	2904	62
0.092	468.15	1443	34
0.096	483.15	1892	43
0.107	498.15	2450	52
0.119	513.15	3122	63
0.131	483.15	2003	42
0.137	468.15	1599	36
0.156	498.15	2642	57
0.165	483.15	2133	45
0.17	513.15	3309	67
0.174	468.15	1724	37
0.211	513.15	3523	71
0.213	498.15	2944	62
0.223	483.15	2338	49
0.25	468.15	1942	40
0.271	498.15	3181	63
0.277	513.15	3810	75
0.287	483.15	2553	51
0.311	468.15	2126	43
0.341	498.15	3413	67
0.343	513.15	4080	79
0.361	483.15	2751	54
0.375	513.15	4155	79
0.389	498.15	3581	70
0.39	468.15	2314	45
0.434	483.15	2942	57
0.443	498.15	3716	71
0.477	483.15	3079	59
0.506	468.15	2537	49
0.55	498.15	3951	75
0.558	483.15	3275	63
0.614	483.15	3407	65
0.621	468.15	2774	53
0.668	483.15	3515	67
0.722	468.15	2953	56
0.726	483.15	3659	70
0.827	468.15	3122	59
0.889	468.15	3188	60
0.945	468.15	3241	61
0.959	468.15	3253	61
1	468.15	3264	61

System: 2-methyl-1-propanol + pentane; phases: Gas, Liquid
Property: Mole fraction of pentane (Gas); method: CHROM:UFactor:4
Mole fraction of pentane	Temperature, K	Mole fraction of pentane	uncertainty
0	468.15	0	0.001
0	483.15	0	0.001
0	498.15	0	0.001
0	513.15	0	0.001
0.037	468.15	0.08	0.012
0.037	498.15	0.085	0.012
0.039	513.15	0.079	0.013
0.055	483.15	0.113	0.013
0.074	513.15	0.141	0.012
0.092	468.15	0.163	0.012
0.096	483.15	0.177	0.012
0.107	498.15	0.19	0.012
0.119	513.15	0.196	0.011
0.131	483.15	0.227	0.013
0.137	468.15	0.229	0.013
0.156	498.15	0.247	0.014
0.165	483.15	0.268	0.013
0.17	513.15	0.249	0.012
0.174	468.15	0.28	0.014
0.211	513.15	0.295	0.013
0.213	498.15	0.351	0.016
0.223	483.15	0.344	0.015
0.25	468.15	0.385	0.016
0.271	498.15	0.409	0.016
0.277	513.15	0.351	0.014
0.287	483.15	0.419	0.017
0.311	468.15	0.447	0.018
0.341	498.15	0.442	0.017
0.343	513.15	0.376	0.014
0.361	483.15	0.48	0.019
0.375	513.15	0.375	0.014
0.389	498.15	0.471	0.018
0.39	468.15	0.526	0.019
0.434	483.15	0.549	0.018
0.443	498.15	0.501	0.019
0.477	483.15	0.58	0.016
0.506	468.15	0.622	0.015
0.55	498.15	0.55	0.017
0.558	483.15	0.627	0.015
0.614	483.15	0.668	0.013
0.621	468.15	0.694	0.013
0.668	483.15	0.697	0.012
0.722	468.15	0.757	0.011
0.726	483.15	0.726	0.012
0.827	468.15	0.852	0.009
0.889	468.15	0.897	0.009
0.945	468.15	0.95	0.008
0.959	468.15	0.96	0.008
1	468.15	1	0.001
