Measured thermophysical data. Vapor Pressure of Palladium from 1473 K to 1973 K
Source: J. Chem. Eng. Data, 2006, 10.1021/je050464i
Compound 1: palladium, Pd, InChI=1S/Pd

System: palladium; phases: Crystal, Gas
Property: Vapor or sublimation pressure, kPa (Crystal); method: Calculated from knudsen effusion weight loss
Temperature, K	Vapor or sublimation pressure, kPa	uncertainty
1473	1e-05	2e-05
1498	2e-05	2e-05
1523	3e-05	2e-05
1548	6e-05	4e-05
1573	9e-05	3e-05
1576	9e-05	0.00016
1598	0.000141	3e-05
1600	0.00011	3e-05
1623	0.0002	0.0002
1623	0.0002	0.0004
1623	0.000193	3.6e-05
1626	0.0002	0.00014
1648	0.00028	9e-05
1650	0.00026	0.00019
1660	0.0005	0.0002
1673	0.0004	0.00019
1673	0.0004	0.0002
1673	0.0004	8e-05
1676	0.00044	0.00018
1685	0.00067	0.00019
1698	0.0005	0.0006
1698	0.00076	0.00012
1698	0.00058	5e-05
1700	0.00061	0.00014
1706	0.0009	0.0002
1723	0.0007	0.0002
1723	0.0012	0.0004
1723	0.00108	0.0002
1723	0.00083	0.00011
1726	0.00094	0.00018
1740	0.0012	0.0003
1748	0.0016	0.0005
1748	0.0016	0.0003
1748	0.0012	0.00026
1750	0.00131	0.0003
1773	0.002	0.0005
1773	0.0022	0.0005
1776	0.002	0.0003
1798	0.0024	0.0009
1798	0.0029	0.0006
1800	0.0027	0.0005
1802	0.0024	0.0009
1806	0.002	0.002
1823	0.004	0.0011
1825	0.0037	0.0009
1840	0.0047	0.0011
1840	0.0047	0.0011
1848	0.0048	0.0011
1850	0.0053	0.0011
1860	0.0061	0.0017
1873	0.008	0.008
1873	0.0076	0.0017
1883	0.0066	0.0018
1885	0.0082	0.0017
1898	0.01	0.014
1898	0.0094	0.002
1900	0.0098	0.0016
1910	0.0109	0.0023
1912	0.0111	0.002
1923	0.013	0.006
1923	0.014	0.003
1925	0.0125	0.0021
1940	0.015	0.004
1942	0.0157	0.0035
1948	0.018	0.01
1948	0.017	0.003
1948	0.021	0.005
1950	0.0174	0.0031
1950	0.0166	0.003
1954	0.021	0.005
1963	0.02	0.004
1963	0.0201	0.0034
1965	0.0203	0.0028
1965	0.0204	0.0028
1970	0.024	0.018
1972	0.022	0.005
1973	0.022	0.005
1973	0.024	0.007
1973	0.02	0.003
