Measured thermophysical data. A Vibrating Edge Supported Plate, Fabricated by the Methods of Micro Electro Mechanical System for the Simultaneous Measurement of Density and Viscosity: Results for Methylbenzene and Octane at Temperatures between (323 and 423) K and Pressures in the Range (0.1 to 68) MPa
Source: J. Chem. Eng. Data, 2006, 10.1021/je0503296
Compound 1: toluene, C7H8, InChI=1S/C7H8/c1-7-5-3-2-4-6-7/h2-6H,1H3, purity 99.8%
Compound 2: octane, C8H18, InChI=1S/C8H18/c1-3-5-7-8-6-4-2/h3-8H2,1-2H3, purity 99%

System: toluene; phases: Liquid
Property: Viscosity, Pa*s (Liquid); method: Vibrating object- edge clamped plate
Temperature, K	Pressure, kPa	Viscosity, Pa*s	uncertainty
323.151	100	0.000421	1e-05
323.151	13940	0.000482	1.2e-05
323.151	27338	0.000524	1.3e-05
323.151	41055	0.000571	1.4e-05
323.151	54593	0.000615	1.5e-05
323.151	68135	0.00066	1.6e-05
373.111	13270	0.0002924	7.1e-06
373.111	26975	0.0003398	8.8e-06
373.111	40789	0.0003691	9.2e-06
373.111	54631	0.000419	1.1e-05
373.111	68196	0.000436	1.1e-05

System: toluene; phases: Liquid
Property: Mass density, kg/m3 (Liquid); method: Vibrating object- edge clamped plate
Temperature, K	Pressure, kPa	Mass density, kg/m3	uncertainty
323.151	100	837	1.7
323.151	13940	850.7	1.7
323.151	27338	861.7	1.7
323.151	41055	871.5	1.7
323.151	54593	880.1	1.8
323.151	68135	888.1	1.8
373.111	13270	807.3	1.6
373.111	26975	822.5	1.6
373.111	40789	834.2	1.7
373.111	54631	845	1.7
373.111	68196	853.4	1.7

System: octane; phases: Liquid
Property: Viscosity, Pa*s (Liquid); method: Vibrating object- edge clamped plate
Temperature, K	Pressure, kPa	Viscosity, Pa*s	uncertainty
323.151	100	0.0003892	9.5e-06
323.151	10096	0.00044	1.1e-05
323.151	20701	0.000495	1.2e-05
323.151	30654	0.00053	1.3e-05
323.151	41050	0.000576	1.4e-05
323.151	54543	0.000633	1.6e-05
323.151	68036	0.000693	1.7e-05
348.144	100	0.0003011	8.1e-06
348.144	7551	0.0003338	8.7e-06
348.144	13680	0.0003513	8.8e-06
348.144	20500	0.000378	1e-05
348.144	27466	0.0004008	9.9e-06
348.144	27469	0.0004	1e-05
348.144	34305	0.000424	1e-05
348.144	34314	0.000424	1e-05
348.144	41226	0.000449	1.1e-05
348.144	41227	0.000449	1.1e-05
348.144	48070	0.000471	1.2e-05
348.144	55000	0.000498	1.2e-05
348.144	55004	0.000499	1.2e-05
348.144	61992	0.000522	1.5e-05
348.144	61994	0.000533	1.5e-05
373.12	6723	0.0002757	6.7e-06
373.12	6724	0.0002758	6.7e-06
373.12	20592	0.0003205	8e-06
373.12	20599	0.0003217	7.9e-06
373.12	27397	0.0003429	9e-06
373.12	27402	0.0003429	8.9e-06
373.12	34317	0.0003646	8.9e-06
373.12	34324	0.0003649	8.9e-06
373.12	41184	0.000381	1e-05
373.12	41207	0.00038	1e-05
373.12	41221	0.000384	1e-05
373.12	48024	0.000409	1e-05
373.12	48032	0.000409	1e-05
373.12	54853	0.000433	1.1e-05
373.12	54866	0.000432	1.1e-05
373.12	61686	0.000447	1.1e-05
373.12	61704	0.000449	1.1e-05
423.09	14725	0.000229	1.3e-05
423.09	27159	0.000252	1.6e-05
423.09	40831	0.000287	1.9e-05
423.09	54591	0.000344	2.1e-05
423.09	68420	0.000352	2.9e-05

System: octane; phases: Liquid
Property: Mass density, kg/m3 (Liquid); method: Vibrating object- edge clamped plate
Temperature, K	Pressure, kPa	Mass density, kg/m3	uncertainty
323.151	100	676	1.4
323.151	10096	687.7	1.4
323.151	20701	698.1	1.4
323.151	30654	706.7	1.4
323.151	41050	714.6	1.4
323.151	54543	723.9	1.4
323.151	68036	732.2	1.5
348.144	100	654.3	1.3
348.144	7551	664.7	1.3
348.144	13680	672.2	1.3
348.144	20500	679.4	1.4
348.144	27466	686.1	1.4
348.144	27469	686.1	1.4
348.144	34305	692.1	1.4
348.144	34314	690.8	1.4
348.144	41226	697.9	1.4
348.144	41227	697.8	1.4
348.144	48070	703.1	1.4
348.144	55000	708.2	1.4
348.144	55004	708.1	1.4
348.144	61992	714.2	1.4
348.144	61994	712.8	1.4
373.12	6723	644.7	1.3
373.12	6724	644.6	1.3
373.12	20592	662.9	1.3
373.12	20599	662.9	1.3
373.12	27397	670.3	1.3
373.12	27402	670.4	1.3
373.12	34317	677.1	1.4
373.12	34324	677.2	1.4
373.12	41184	683.5	1.4
373.12	41207	683.6	1.4
373.12	41221	683.6	1.4
373.12	48024	689.2	1.4
373.12	48032	689.1	1.4
373.12	54853	694.6	1.4
373.12	54866	694.6	1.4
373.12	61686	699.8	1.4
373.12	61704	699.8	1.4
423.09	14725	620.5	1.3
423.09	27159	638.8	1.3
423.09	40831	655.5	1.4
423.09	54591	668.8	1.4
423.09	68420	676.4	1.5
