Measured thermophysical data. Solubilities of CO2 in 1-Butyl-3-methylimidazolium Hexafluorophosphate and 1,1,3,3-Tetramethylguanidium Lactate at Elevated Pressures
Source: J. Chem. Eng. Data, 2005, 10.1021/je050046d
Compound 1: 1,1,3,3-tetramethylguanidinium lactate, C8H19N3O3, InChI=1S/C5H13N3.C3H6O3/c1-7(2)5(6)8(3)4;1-2(4)3(5)6/h6H,1-4H3;2,4H,1H3,(H,5,6)
Compound 2: carbon dioxide, CO2, InChI=1S/CO2/c2-1-3
Compound 3: 1-butyl-3-methylimidazolium hexafluorophosphate, C8H15F6N2P, InChI=1S/C8H15N2.F6P/c1-3-4-5-10-7-6-9(2)8-10;1-7(2,3,4,5)6/h6-8H,3-5H2,1-2H3;/q+1;-1

System: carbon dioxide + 1-butyl-3-methylimidazolium hexafluorophosphate; phases: Liquid, Gas
Property: Vapor or sublimation pressure, kPa (Liquid); method: CCELL:UFactor:24
Temperature, K	Molality, mol/kg of carbon dioxide	Vapor or sublimation pressure, kPa	uncertainty
297.56	0.536	790	60
297.56	0.758	1050	80
297.56	2.372	3220	240
297.56	2.718	3730	280
297.56	3.314	4470	330
297.56	4.022	5840	440
297.56	4.156	6040	450
304.38	0.564	860	60
304.38	0.739	1130	80
304.38	2.227	3470	260
304.38	2.57	3990	300
304.38	3.113	4800	360
304.38	3.802	6250	470
304.38	3.944	6440	480
308.6	0.56	930	70
308.6	0.723	1210	90
308.6	2.136	3700	280
308.6	2.451	4250	320
308.6	2.965	5120	380
308.6	3.644	6660	500
308.6	3.769	6870	510
314.25	0.522	1000	80
314.25	0.68	1310	100
314.25	1.97	3930	290
314.25	2.25	4520	340
314.25	2.681	5440	410
314.25	3.32	7060	530
314.25	3.406	7290	540
319.06	0.537	1070	80
319.06	0.661	1390	100
319.06	1.909	4150	310
319.06	2.203	4770	360
319.06	2.652	5730	430
319.06	3.295	7470	560
319.06	3.346	7690	570
322.52	0.479	1130	90
322.52	0.634	1450	110
322.52	1.755	4360	330
322.52	2.037	4990	370
322.52	2.398	6020	450
322.52	3.013	7850	590
322.52	3.091	8080	610

System: carbon dioxide + 1,1,3,3-tetramethylguanidinium lactate; phases: Liquid, Gas
Property: Vapor or sublimation pressure, kPa (Liquid); method: CCELL:UFactor:24
Temperature, K	Molality, mol/kg of carbon dioxide	Vapor or sublimation pressure, kPa	uncertainty
308.05	0.286	490	40
308.05	0.561	930	70
308.05	1.514	2240	170
308.05	1.829	2780	210
308.05	2.229	3330	250
308.05	3.071	5090	380
308.05	4.077	7190	540
308.05	4.218	7760	580
308.05	4.392	8330	620
319.3	0.411	730	60
319.3	0.553	1020	80
319.3	1.32	2510	190
319.3	1.635	3140	230
319.3	1.923	3730	280
319.3	2.767	5730	430
319.3	3.436	7990	600
319.3	3.659	8650	650
319.3	3.723	9250	690
327.46	0.537	1110	80
327.46	0.617	1240	90
327.46	1.141	2770	210
327.46	1.362	3550	270
327.46	1.593	4160	310
327.46	2.249	6240	470
327.46	2.913	8740	650
327.46	3.056	9570	720
327.46	3.239	10180	760
