Measured thermophysical data. Apparatus for the Determination of Water Solubility in Hydrocarbon: Toluene and Alkylcyclohexanes (C6 to C8) from 30 C to 180 C
Source: J. Chem. Eng. Data, 2006, 10.1021/je0502041
Compound 1: toluene, C7H8, InChI=1S/C7H8/c1-7-5-3-2-4-6-7/h2-6H,1H3
Compound 2: cyclohexane, C6H12, InChI=1S/C6H12/c1-2-4-6-5-3-1/h1-6H2
Compound 3: methylcyclohexane, C7H14, InChI=1S/C7H14/c1-7-5-3-2-4-6-7/h7H,2-6H2,1H3
Compound 4: ethylcyclohexane, C8H16, InChI=1S/C8H16/c1-2-8-6-4-3-5-7-8/h8H,2-7H2,1H3
Compound 5: cis-1,2-dimethylcyclohexane, C8H16, InChI=1S/C8H16/c1-7-5-3-4-6-8(7)2/h7-8H,3-6H2,1-2H3/t7-,8+
Compound 6: trans-1,2-dimethylcyclohexane, C8H16, InChI=1S/C8H16/c1-7-5-3-4-6-8(7)2/h7-8H,3-6H2,1-2H3/t7-,8-/m1/s1
Compound 7: water, H2O, InChI=1S/H2O/h1H2

System: toluene + water; phases: Liquid mixture 1, Liquid mixture 2
Fixed: Pressure, kPa = 101
Property: Mole fraction of water (Liquid mixture 1); method: Titration method
Temperature, K	Mole fraction of water	uncertainty
303.15	0.0033	8e-05
323.15	0.00675	0.00015
373.25	0.0224	0.00052
401.75	0.041	0.00101
423.45	0.073	0.00193
446.95	0.107	0.00252

System: cyclohexane + water; phases: Liquid mixture 1, Liquid mixture 2
Fixed: Pressure, kPa = 101
Property: Mole fraction of water (Liquid mixture 1); method: Titration method
Temperature, K	Mole fraction of water	uncertainty
303.25	0.00068	4e-05
323.05	0.0013	5e-05
342.95	0.00278	5e-05
373.35	0.00598	0.0001
393.85	0.0112	0.00027
423.35	0.0263	0.00044
446.15	0.0445	0.00071

System: methylcyclohexane + water; phases: Liquid mixture 1, Liquid mixture 2
Fixed: Pressure, kPa = 101
Property: Mole fraction of water (Liquid mixture 1); method: Titration method
Temperature, K	Mole fraction of water	uncertainty
303.05	0.00102	3e-05
322.95	0.00172	3e-05
343.15	0.00306	5e-05
373.45	0.00674	0.00011
393.95	0.0144	0.0003
423.95	0.0291	0.00061
424.95	0.0311	0.00063
445.95	0.0513	0.00082

System: ethylcyclohexane + water; phases: Liquid mixture 1, Liquid mixture 2
Fixed: Pressure, kPa = 101
Property: Mole fraction of water (Liquid mixture 1); method: Titration method
Temperature, K	Mole fraction of water	uncertainty
307.15	0.00154	5e-05
322.85	0.00238	4e-05
342.95	0.00372	6e-05
373.05	0.00723	0.00014
393.25	0.01543	0.00026
423.15	0.03	0.00049
445.75	0.05332	0.00085

System: cis-1,2-dimethylcyclohexane + trans-1,2-dimethylcyclohexane + water; phases: Liquid mixture 1, Liquid mixture 2
Fixed: Solvent: Mole fraction of cis-1,2-dimethylcyclohexane = 0.893
Fixed: Pressure, kPa = 101
Property: Mole fraction of water (Liquid mixture 1); method: Titration method
Temperature, K	Mole fraction of water	uncertainty
305.15	0.00162	5e-05
322.45	0.00247	9e-05
342.95	0.0039	0.00012
373.05	0.00727	0.00023
393.95	0.01523	0.00048
423.25	0.03136	0.00099
446.15	0.06098	0.00191
