Measured thermophysical data. Excess Molar Volumes and Surface Tensions of Trimethylbenzene + Ethylene Glycol Ester at 298.15 K and 313.15 K
Source: J. Chem. Eng. Data, 2006, 10.1021/je050484k
Compound 1: 2-methoxyethan-1-ol, C3H8O2, InChI=1S/C3H8O2/c1-5-3-2-4/h4H,2-3H2,1H3
Compound 2: 1,2,4-trimethylbenzene, C9H12, InChI=1S/C9H12/c1-7-4-5-8(2)9(3)6-7/h4-6H,1-3H3
Compound 3: 1,3,5-trimethylbenzene, C9H12, InChI=1S/C9H12/c1-7-4-8(2)6-9(3)5-7/h4-6H,1-3H3
Compound 4: 1,2-dimethoxyethane, C4H10O2, InChI=1S/C4H10O2/c1-5-3-4-6-2/h3-4H2,1-2H3

System: 2-methoxyethan-1-ol; phases: Liquid, Gas
Property: Surface tension liquid-gas, N/m (Liquid); method: Pendant drop shape
Temperature, K	Surface tension liquid-gas, N/m	uncertainty
298.15	0.03088	0.00032
313.15	0.02942	0.00031

System: 2-methoxyethan-1-ol; phases: Liquid
Fixed: Pressure, kPa = 101
Property: Mass density, kg/m3 (Liquid); method: VIBTUB:UFactor:4
Temperature, K	Mass density, kg/m3	uncertainty
298.15	960.02	0.25
313.15	946.17	0.26

System: 1,2,4-trimethylbenzene; phases: Liquid, Gas
Property: Surface tension liquid-gas, N/m (Liquid); method: Pendant drop shape
Temperature, K	Surface tension liquid-gas, N/m	uncertainty
298.15	0.02929	0.00033
313.15	0.02767	0.00031

System: 1,2,4-trimethylbenzene; phases: Liquid
Fixed: Pressure, kPa = 101
Property: Mass density, kg/m3 (Liquid); method: VIBTUB:UFactor:4
Temperature, K	Mass density, kg/m3	uncertainty
298.15	871.65	0.48
313.15	859.54	0.49

System: 1,3,5-trimethylbenzene; phases: Liquid, Gas
Property: Surface tension liquid-gas, N/m (Liquid); method: Pendant drop shape
Temperature, K	Surface tension liquid-gas, N/m	uncertainty
298.15	0.02809	0.00031
313.15	0.02682	0.0003

System: 1,3,5-trimethylbenzene; phases: Liquid
Fixed: Pressure, kPa = 101
Property: Mass density, kg/m3 (Liquid); method: VIBTUB:UFactor:4
Temperature, K	Mass density, kg/m3	uncertainty
298.15	861.05	0.46
313.15	848.74	0.47

System: 1,2-dimethoxyethane; phases: Liquid, Gas
Property: Surface tension liquid-gas, N/m (Liquid); method: Pendant drop shape
Temperature, K	Surface tension liquid-gas, N/m	uncertainty
298.15	0.02393	0.00026
313.15	0.02251	0.00025

System: 1,2-dimethoxyethane; phases: Liquid
Fixed: Pressure, kPa = 101
Property: Mass density, kg/m3 (Liquid); method: VIBTUB:UFactor:4
Temperature, K	Mass density, kg/m3	uncertainty
298.15	861.38	0.35
313.15	845.31	0.38
313.15	845.28	0.38

System: 1,2,4-trimethylbenzene + 2-methoxyethan-1-ol; phases: Liquid, Gas
Property: Surface tension liquid-gas, N/m (Liquid); method: Pendant drop shape
Temperature, K	Mole fraction of 2-methoxyethan-1-ol	Surface tension liquid-gas, N/m	uncertainty
298.15	0	0.02929	0.00033
298.15	0.0976	0.02936	0.00032
298.15	0.2031	0.02936	0.00032
298.15	0.3021	0.02935	0.00032
298.15	0.3999	0.02944	0.00032
298.15	0.5015	0.02957	0.00032
298.15	0.6035	0.02978	0.00032
298.15	0.7033	0.03003	0.00032
298.15	0.7974	0.03034	0.00032
298.15	0.9014	0.03061	0.00032
298.15	1	0.03088	0.00032
313.15	0	0.02767	0.00031
313.15	0.1019	0.02778	0.00031
313.15	0.2002	0.02772	0.00031
313.15	0.3004	0.02772	0.00031
313.15	0.4007	0.02779	0.0003
313.15	0.4991	0.02784	0.0003
313.15	0.6006	0.02803	0.0003
313.15	0.7002	0.02829	0.0003
313.15	0.7999	0.02859	0.0003
313.15	0.9007	0.02896	0.00031
313.15	1	0.02942	0.00031

System: 1,2,4-trimethylbenzene + 2-methoxyethan-1-ol; phases: Liquid
Fixed: Pressure, kPa = 101
Property: Mass density, kg/m3 (Liquid); method: VIBTUB:UFactor:4
Temperature, K	Mole fraction of 2-methoxyethan-1-ol	Mass density, kg/m3	uncertainty
298.15	0	871.65	0.48
298.15	0.0507	873.14	0.47
298.15	0.0976	875.08	0.46
298.15	0.154	877.75	0.45
298.15	0.2031	880.31	0.44
298.15	0.2556	883.31	0.43
298.15	0.3021	886.13	0.42
298.15	0.3482	889.1	0.41
298.15	0.3999	892.67	0.4
298.15	0.453	896.6	0.39
298.15	0.5015	900.39	0.38
298.15	0.5513	904.61	0.37
298.15	0.6035	909.35	0.35
298.15	0.6526	914.1	0.34
298.15	0.7033	919.38	0.33
298.15	0.7534	924.98	0.32
298.15	0.7974	930.26	0.31
298.15	0.8455	936.54	0.29
298.15	0.9014	944.31	0.28
298.15	0.9507	951.9	0.27
298.15	1	960.02	0.25
313.15	0	859.54	0.49
313.15	0.0494	860.68	0.48
313.15	0.1019	862.75	0.47
313.15	0.15	864.92	0.46
313.15	0.2002	867.4	0.45
313.15	0.2486	869.95	0.44
313.15	0.3004	873	0.43
313.15	0.3507	876.1	0.42
313.15	0.4007	879.45	0.41
313.15	0.4502	883.02	0.4
313.15	0.4991	886.8	0.39
313.15	0.5513	891.2	0.38
313.15	0.6006	895.56	0.37
313.15	0.653	900.55	0.36
313.15	0.7002	905.44	0.35
313.15	0.7504	910.91	0.33
313.15	0.7999	916.79	0.32
313.15	0.8496	923.25	0.31
313.15	0.9007	930.3	0.29
313.15	0.9504	937.74	0.28
313.15	1	946.17	0.26

System: 1,2,4-trimethylbenzene + 1,2-dimethoxyethane; phases: Liquid, Gas
Property: Surface tension liquid-gas, N/m (Liquid); method: Pendant drop shape
Temperature, K	Mole fraction of 1,2-dimethoxyethane	Surface tension liquid-gas, N/m	uncertainty
298.15	0	0.02929	0.00033
298.15	0.103	0.02871	0.00032
298.15	0.205	0.02811	0.00031
298.15	0.3006	0.02754	0.0003
298.15	0.398	0.02697	0.0003
298.15	0.5005	0.02643	0.00029
298.15	0.601	0.0259	0.00028
298.15	0.6979	0.02542	0.00028
298.15	0.7977	0.02492	0.00027
298.15	0.9018	0.02441	0.00027
298.15	1	0.02393	0.00026
313.15	0	0.02767	0.00031
313.15	0.1019	0.02702	0.0003
313.15	0.2002	0.02643	0.0003
313.15	0.3004	0.02585	0.00029
313.15	0.4007	0.02526	0.00028
313.15	0.4991	0.02473	0.00028
313.15	0.6006	0.02423	0.00027
313.15	0.7002	0.02377	0.00027
313.15	0.7999	0.02332	0.00026
313.15	0.9007	0.02294	0.00026
313.15	1	0.02251	0.00025

System: 1,2,4-trimethylbenzene + 1,2-dimethoxyethane; phases: Liquid
Fixed: Pressure, kPa = 101
Property: Mass density, kg/m3 (Liquid); method: VIBTUB:UFactor:4
Temperature, K	Mole fraction of 1,2-dimethoxyethane	Mass density, kg/m3	uncertainty
298.15	0	871.65	0.48
298.15	0.0488	871.13	0.47
298.15	0.103	870.57	0.46
298.15	0.1497	870.09	0.45
298.15	0.205	869.53	0.44
298.15	0.2496	869.07	0.44
298.15	0.3006	868.54	0.43
298.15	0.3515	868.02	0.42
298.15	0.398	867.54	0.41
298.15	0.4492	867.02	0.41
298.15	0.5005	866.49	0.4
298.15	0.5491	865.99	0.39
298.15	0.601	865.46	0.39
298.15	0.649	864.97	0.38
298.15	0.6979	864.48	0.38
298.15	0.7506	863.94	0.37
298.15	0.7977	863.46	0.37
298.15	0.8501	862.93	0.36
298.15	0.9018	862.41	0.36
298.15	0.9463	861.95	0.36
298.15	1	861.38	0.35
313.15	0	859.54	0.49
313.15	0.0482	858.88	0.48
313.15	0.1004	858.17	0.47
313.15	0.1494	857.51	0.46
313.15	0.1999	856.82	0.46
313.15	0.2495	856.16	0.45
313.15	0.2999	855.48	0.44
313.15	0.353	854.74	0.43
313.15	0.4015	854.06	0.43
313.15	0.4557	853.31	0.42
313.15	0.4996	852.68	0.42
313.15	0.5499	851.99	0.41
313.15	0.5989	851.29	0.41
313.15	0.6513	850.53	0.4
313.15	0.7005	849.81	0.4
313.15	0.7508	849.12	0.39
313.15	0.8	848.38	0.39
313.15	0.8503	847.65	0.38
313.15	0.9008	846.87	0.38
313.15	0.9493	846.16	0.38
313.15	1	845.31	0.38

System: 1,3,5-trimethylbenzene + 2-methoxyethan-1-ol; phases: Liquid, Gas
Property: Surface tension liquid-gas, N/m (Liquid); method: Pendant drop shape
Temperature, K	Mole fraction of 2-methoxyethan-1-ol	Surface tension liquid-gas, N/m	uncertainty
298.15	0	0.02809	0.00031
298.15	0.0993	0.02819	0.00031
298.15	0.2021	0.02823	0.00031
298.15	0.3015	0.02834	0.00031
298.15	0.4011	0.02851	0.00031
298.15	0.501	0.02873	0.00031
298.15	0.6004	0.02903	0.00031
298.15	0.7003	0.02935	0.00031
298.15	0.8008	0.02972	0.00031
298.15	0.9001	0.0302	0.00032
298.15	1	0.03088	0.00032
313.15	0	0.02682	0.0003
313.15	0.0979	0.02693	0.0003
313.15	0.198	0.02691	0.0003
313.15	0.3009	0.02697	0.0003
313.15	0.3988	0.02702	0.0003
313.15	0.5005	0.02713	0.0003
313.15	0.6003	0.02736	0.0003
313.15	0.6995	0.02767	0.0003
313.15	0.8001	0.02801	0.0003
313.15	0.9006	0.02855	0.0003
313.15	1	0.02942	0.00031

System: 1,3,5-trimethylbenzene + 2-methoxyethan-1-ol; phases: Liquid
Fixed: Pressure, kPa = 101
Property: Mass density, kg/m3 (Liquid); method: VIBTUB:UFactor:4
Temperature, K	Mole fraction of 2-methoxyethan-1-ol	Mass density, kg/m3	uncertainty
298.15	0	861.05	0.46
298.15	0.0486	862.67	0.45
298.15	0.0993	865.02	0.44
298.15	0.1546	867.91	0.43
298.15	0.2021	870.67	0.43
298.15	0.2469	873.41	0.42
298.15	0.3015	877.06	0.41
298.15	0.3469	880.3	0.4
298.15	0.4011	884.41	0.39
298.15	0.45	888.41	0.38
298.15	0.501	892.85	0.37
298.15	0.5508	897.5	0.36
298.15	0.6004	902.45	0.35
298.15	0.6509	907.91	0.34
298.15	0.7003	913.59	0.33
298.15	0.7483	919.54	0.32
298.15	0.8008	926.64	0.3
298.15	0.8501	933.84	0.29
298.15	0.9001	941.83	0.28
298.15	0.9502	950.56	0.27
298.15	1	960.02	0.25
313.15	0	848.74	0.47
313.15	0.0518	850.28	0.46
313.15	0.0979	852.21	0.46
313.15	0.1489	854.71	0.45
313.15	0.198	857.38	0.44
313.15	0.2497	860.47	0.43
313.15	0.3009	863.78	0.42
313.15	0.349	867.13	0.41
313.15	0.3988	870.82	0.41
313.15	0.4527	875.14	0.4
313.15	0.5005	879.25	0.39
313.15	0.5497	883.79	0.38
313.15	0.6003	888.79	0.37
313.15	0.6491	893.96	0.36
313.15	0.6995	899.77	0.34
313.15	0.7498	906.04	0.33
313.15	0.8001	912.79	0.32
313.15	0.8374	918.17	0.31
313.15	0.9006	928.15	0.29
313.15	0.9491	936.64	0.28
313.15	1	946.17	0.26

System: 1,3,5-trimethylbenzene + 1,2-dimethoxyethane; phases: Liquid, Gas
Property: Surface tension liquid-gas, N/m (Liquid); method: Pendant drop shape
Temperature, K	Mole fraction of 1,2-dimethoxyethane	Surface tension liquid-gas, N/m	uncertainty
298.15	0	0.02809	0.00031
298.15	0.0997	0.0276	0.0003
298.15	0.201	0.02707	0.0003
298.15	0.2978	0.02659	0.00029
298.15	0.3973	0.02614	0.00029
298.15	0.4991	0.02571	0.00028
298.15	0.5977	0.02535	0.00028
298.15	0.7011	0.025	0.00027
298.15	0.7999	0.02467	0.00027
298.15	0.9008	0.0243	0.00027
298.15	1	0.02393	0.00026
313.15	0	0.02682	0.0003
313.15	0.0988	0.0262	0.00029
313.15	0.1996	0.02569	0.00029
313.15	0.3	0.02517	0.00028
313.15	0.4	0.02469	0.00028
313.15	0.5002	0.02424	0.00027
313.15	0.5998	0.02384	0.00027
313.15	0.6989	0.02349	0.00026
313.15	0.8	0.02317	0.00026
313.15	0.8991	0.02284	0.00026
313.15	1	0.02251	0.00025

System: 1,3,5-trimethylbenzene + 1,2-dimethoxyethane; phases: Liquid
Fixed: Pressure, kPa = 101
Property: Mass density, kg/m3 (Liquid); method: VIBTUB:UFactor:4
Temperature, K	Mole fraction of 1,2-dimethoxyethane	Mass density, kg/m3	uncertainty
298.15	0	861.05	0.46
298.15	0.0487	860.76	0.45
298.15	0.0997	860.5	0.44
298.15	0.1518	860.24	0.44
298.15	0.201	860.03	0.43
298.15	0.2499	859.85	0.42
298.15	0.2978	859.68	0.42
298.15	0.3484	859.56	0.41
298.15	0.3973	859.41	0.41
298.15	0.451	859.35	0.4
298.15	0.4991	859.29	0.4
298.15	0.5498	859.31	0.39
298.15	0.5977	859.3	0.39
298.15	0.6494	859.42	0.38
298.15	0.7011	859.52	0.38
298.15	0.7499	859.69	0.37
298.15	0.7999	859.91	0.37
298.15	0.8474	860.25	0.36
298.15	0.9008	860.54	0.36
298.15	0.9484	860.95	0.36
298.15	1	861.38	0.35
313.15	0	848.74	0.47
313.15	0.0504	848.29	0.46
313.15	0.0988	847.89	0.46
313.15	0.1505	847.48	0.45
313.15	0.1996	847.11	0.45
313.15	0.2474	846.78	0.44
313.15	0.3	846.42	0.43
313.15	0.3495	846.14	0.43
313.15	0.4	845.85	0.42
313.15	0.4498	845.61	0.42
313.15	0.5002	845.34	0.41
313.15	0.5502	845.18	0.41
313.15	0.5998	845	0.41
313.15	0.6509	844.85	0.4
313.15	0.6989	844.79	0.4
313.15	0.7494	844.74	0.39
313.15	0.8	844.75	0.39
313.15	0.8505	844.8	0.39
313.15	0.8991	844.92	0.38
313.15	0.9502	845.1	0.38
313.15	1	845.28	0.38
