Measured thermophysical data. Liquid-Liquid Equilibria Measurements for Ternary System of Hexadecane + 1,3,5-Trimethylbenzene + N-Methyl-2-pyrrolidone
Source: J. Chem. Eng. Data, 2006, 10.1021/je050513r
Compound 1: hexadecane, C16H34, InChI=1S/C16H34/c1-3-5-7-9-11-13-15-16-14-12-10-8-6-4-2/h3-16H2,1-2H3, purity 99.3%
Compound 2: 1,3,5-trimethylbenzene, C9H12, InChI=1S/C9H12/c1-7-4-8(2)6-9(3)5-7/h4-6H,1-3H3, purity 99.5%
Compound 3: N-methylpyrrolidone, C5H9NO, InChI=1S/C5H9NO/c1-6-4-2-3-5(6)7/h2-4H2,1H3, purity 99.5%

System: hexadecane; phases: Liquid
Property: Refractive index (Na D-line) (Liquid); method: Standard Abbe refractometry
Temperature, K	Pressure, kPa	Refractive index (Na D-line)	uncertainty
293.1	101.325	1.4344	0.0007

System: 1,3,5-trimethylbenzene; phases: Liquid
Property: Refractive index (Na D-line) (Liquid); method: Standard Abbe refractometry
Temperature, K	Pressure, kPa	Refractive index (Na D-line)	uncertainty
293.1	101.325	1.4992	0.0007

System: N-methylpyrrolidone; phases: Liquid
Property: Refractive index (Na D-line) (Liquid); method: Standard Abbe refractometry
Temperature, K	Pressure, kPa	Refractive index (Na D-line)	uncertainty
293.1	101.325	1.4686	0.0007

System: hexadecane + N-methylpyrrolidone; phases: Liquid mixture 1, Liquid mixture 2
Fixed: Pressure, kPa = 101
Property: Mole fraction of hexadecane (Liquid mixture 1); method: Chromatography
Temperature, K	Mole fraction of hexadecane	uncertainty
293.2	0.8769	0.0101
303.2	0.787	0.0101
313.2	0.753	0.0102
323.2	0.7161	0.0102

System: hexadecane + N-methylpyrrolidone; phases: Liquid mixture 2, Liquid mixture 1
Fixed: Pressure, kPa = 101
Property: Mole fraction of hexadecane (Liquid mixture 2); method: Chromatography
Temperature, K	Mole fraction of hexadecane	uncertainty
293.2	0.008	0.008
303.2	0.0132	0.01
313.2	0.0184	0.01
323.2	0.0246	0.01

System: 1,3,5-trimethylbenzene + hexadecane + N-methylpyrrolidone; phases: Liquid mixture 1, Liquid mixture 2
Fixed: Pressure, kPa = 101
Property: Mole fraction of 1,3,5-trimethylbenzene (Liquid mixture 1); method: Chromatography
Property: Mole fraction of hexadecane (Liquid mixture 2); method: Chromatography
Property: Mole fraction of 1,3,5-trimethylbenzene (Liquid mixture 2); method: Chromatography
Temperature, K	Mole fraction of hexadecane	Mole fraction of 1,3,5-trimethylbenzene	uncertainty	Mole fraction of hexadecane	uncertainty	Mole fraction of 1,3,5-trimethylbenzene	uncertainty
293.2	0.8769	0	0.0001	0.008	0.008	0	
293.2	0.8005	0.0482	0.0116	0.0112	0.0101	0.0167	
293.2	0.6915	0.1094	0.0122	0.0137	0.01	0.0497	
293.2	0.6294	0.1697	0.0131	0.0142	0.01	0.0672	
293.2	0.5518	0.2262	0.0121	0.016	0.01	0.0925	
293.2	0.4847	0.2638	0.0118	0.0171	0.01	0.1145	
293.2	0.4557	0.2831	0.0112	0.0191	0.01	0.1281	
293.2	0.3437	0.3296	0.011	0.0203	0.0101	0.1553	
293.2	0.305	0.3401	0.0107	0.0256	0.0103	0.1801	
293.2	0.275	0.3502	0.0109	0.033	0.0103	0.2102	
303.2	0.787	0	0.0001	0.0132	0.01	0	
303.2	0.6987	0.0433	0.0116	0.0162	0.0101	0.0189	
303.2	0.5773	0.1201	0.0123	0.0204	0.0101	0.0586	
303.2	0.519	0.1507	0.0115	0.0237	0.0102	0.0762	
303.2	0.4863	0.1708	0.0107	0.0272	0.0105	0.0893	
303.2	0.4401	0.1921	0.0107	0.029	0.0104	0.1021	
303.2	0.391	0.2177	0.0109	0.0396	0.0108	0.126	
303.2	0.31	0.2446	0.0111	0.0474	0.0109	0.1492	
303.2	0.2725	0.2596	0.0124	0.0574	0.0118	0.1692	
313.2	0.753	0	0.0001	0.0184	0.01	0	
313.2	0.6723	0.0387	0.0114	0.0227	0.0101	0.0193	
313.2	0.5464	0.1106	0.0116	0.0277	0.0102	0.0583	
313.2	0.5041	0.1391	0.0116	0.0346	0.0114	0.0771	
313.2	0.4501	0.1653	0.0109	0.0506	0.0115	0.1001	
313.2	0.3921	0.1871	0.0106	0.0566	0.0116	0.116	
313.2	0.3431	0.204	0.0104	0.0676	0.013	0.133	
313.2	0.29	0.2147	0.0103	0.0996	0.0142	0.165	
323.2	0.7161	0	0.0001	0.0246	0.01	0	
323.2	0.6246	0.0429	0.0111	0.0313	0.0106	0.021	
323.2	0.555	0.0761	0.0111	0.0391	0.0106	0.0417	
323.2	0.5072	0.0987	0.0109	0.0442	0.0107	0.0572	
323.2	0.4572	0.1187	0.0107	0.0504	0.0113	0.0719	
323.2	0.3654	0.1512	0.0106	0.0658	0.0137	0.0983	
323.2	0.3083	0.1674	0.0104	0.0954	0.0181	0.1189	
323.2	0.2731	0.176	0.0104	0.1269	0.0187	0.1388	
