Measured thermophysical data. Surface Properties of Dilute Solutions of Alkanes in Benzyl Alcohol
Source: J. Chem. Eng. Data, 2006, 10.1021/je050159x
Compound 1: cyclohexane, C6H12, InChI=1S/C6H12/c1-2-4-6-5-3-1/h1-6H2
Compound 2: hexane, C6H14, InChI=1S/C6H14/c1-3-5-6-4-2/h3-6H2,1-2H3
Compound 3: heptane, C7H16, InChI=1S/C7H16/c1-3-5-7-6-4-2/h3-7H2,1-2H3
Compound 4: nonane, C9H20, InChI=1S/C9H20/c1-3-5-7-9-8-6-4-2/h3-9H2,1-2H3
Compound 5: benzenemethanol, C7H8O, InChI=1S/C7H8O/c8-6-7-4-2-1-3-5-7/h1-5,8H,6H2

System: cyclohexane; phases: Liquid, Gas
Property: Surface tension liquid-gas, N/m (Liquid); method: RINGTE::UFactor:2
Temperature, K	Surface tension liquid-gas, N/m	uncertainty
293.15	0.02506	0.00075
298.15	0.02445	0.00073
303.15	0.02387	0.00072
308.15	0.02321	0.0007
313.15	0.02271	0.00069
318.15	0.02205	0.00068
323.15	0.02145	0.00066

System: cyclohexane; phases: Liquid
Fixed: Pressure, kPa = 101.325
Property: Mass density, kg/m3 (Liquid); method: VIBTUB:UFactor:16
Temperature, K	Mass density, kg/m3	uncertainty
293.15	778.6	2.5
298.15	773.9	2.5
313.15	759.6	2.7

System: hexane; phases: Liquid, Gas
Property: Surface tension liquid-gas, N/m (Liquid); method: RINGTE::UFactor:2
Temperature, K	Surface tension liquid-gas, N/m	uncertainty
293.15	0.01856	0.00059
298.15	0.01803	0.00058
303.15	0.01744	0.00057
308.15	0.01692	0.00056
313.15	0.01638	0.00054

System: hexane; phases: Liquid
Fixed: Pressure, kPa = 101.325
Property: Mass density, kg/m3 (Liquid); method: VIBTUB:UFactor:32
Temperature, K	Mass density, kg/m3	uncertainty
293.15	660.2	6.9
298.15	655.4	7
313.15	641.4	7.2

System: heptane; phases: Liquid, Gas
Property: Surface tension liquid-gas, N/m (Liquid); method: RINGTE::UFactor:2
Temperature, K	Surface tension liquid-gas, N/m	uncertainty
293.15	0.02005	0.00063
298.15	0.01954	0.00062
303.15	0.0191	0.00061
308.15	0.01858	0.00059
313.15	0.01808	0.00058
318.15	0.0176	0.00057
323.15	0.01706	0.00056

System: heptane; phases: Liquid
Fixed: Pressure, kPa = 101.325
Property: Mass density, kg/m3 (Liquid); method: VIBTUB:UFactor:32
Temperature, K	Mass density, kg/m3	uncertainty
293.15	696	6.3
298.15	691.9	6.4
313.15	680	6.6

System: nonane; phases: Liquid, Gas
Property: Surface tension liquid-gas, N/m (Liquid); method: RINGTE:UFactor:2
Temperature, K	Surface tension liquid-gas, N/m	uncertainty
293.15	0.02304	0.0007
298.15	0.02249	0.00069
303.15	0.02204	0.00068
308.15	0.02149	0.00066
313.15	0.02094	0.00065
318.15	0.02047	0.00064
323.15	0.01998	0.00063

System: nonane; phases: Liquid
Fixed: Pressure, kPa = 101.325
Property: Mass density, kg/m3 (Liquid); method: VIBTUB:UFactor:16
Temperature, K	Mass density, kg/m3	uncertainty
293.15	717.7	3
298.15	713.9	3
313.15	694.2	3.2

System: benzenemethanol; phases: Liquid, Gas
Property: Surface tension liquid-gas, N/m (Liquid); method: RINGTE::UFactor:2
Temperature, K	Surface tension liquid-gas, N/m	uncertainty
293.15	0.03905	0.00108
298.15	0.03858	0.00107
303.15	0.03812	0.00106
308.15	0.03763	0.00105
313.15	0.03716	0.00104
318.15	0.03663	0.00102
323.15	0.03618	0.00101

System: benzenemethanol; phases: Liquid
Fixed: Pressure, kPa = 101.325
Property: Mass density, kg/m3 (Liquid); method: VIBTUB:UFactor:16
Temperature, K	Mass density, kg/m3	uncertainty
293.15	1045.2	1.1
298.15	1041.4	1.1
313.15	1029.8	1

System: benzenemethanol + hexane; phases: Liquid, Gas
Property: Surface tension liquid-gas, N/m (Liquid); method: RINGTE:UFactor:2
Temperature, K	Mole fraction of hexane	Surface tension liquid-gas, N/m	uncertainty
293.15	0	0.03905	0.00108
293.15	0.0068	0.03739	0.00104
293.15	0.0085	0.03724	0.00104
293.15	0.0198	0.03445	0.00097
293.15	0.0215	0.03373	0.00095
293.15	0.0264	0.03322	0.00094
293.15	0.0493	0.03061	0.00088
293.15	0.07	0.02746	0.00081
293.15	1	0.01856	0.00059
298.15	0	0.03858	0.00107
298.15	0.0068	0.0371	0.00103
298.15	0.0085	0.03685	0.00103
298.15	0.0198	0.03474	0.00098
298.15	0.0215	0.03404	0.00096
298.15	0.0264	0.03356	0.00095
298.15	0.0493	0.03106	0.00089
298.15	0.07	0.02796	0.00082
298.15	1	0.01803	0.00058
303.15	0	0.03812	0.00106
303.15	0.0068	0.03684	0.00103
303.15	0.0085	0.03641	0.00102
303.15	0.0198	0.03503	0.00098
303.15	0.0215	0.03438	0.00097
303.15	0.0264	0.03386	0.00096
303.15	0.0493	0.03154	0.0009
303.15	0.07	0.02872	0.00084
303.15	1	0.01744	0.00057
308.15	0	0.03763	0.00105
308.15	0.0068	0.03653	0.00102
308.15	0.0085	0.03601	0.00101
308.15	0.0198	0.03535	0.00099
308.15	0.0215	0.03469	0.00098
308.15	0.0264	0.03425	0.00097
308.15	0.0493	0.03192	0.00091
308.15	0.07	0.02929	0.00085
308.15	1	0.01692	0.00056
313.15	0	0.03716	0.00104
313.15	0.0068	0.0363	0.00102
313.15	0.0085	0.0356	0.001
313.15	0.0198	0.03563	0.001
313.15	0.0215	0.03499	0.00098
313.15	0.0264	0.03459	0.00097
313.15	0.0493	0.03235	0.00092
313.15	0.07	0.0299	0.00086
313.15	1	0.01638	0.00054

System: benzenemethanol + heptane; phases: Liquid, Gas
Property: Surface tension liquid-gas, N/m (Liquid); method: RINGTE:UFactor:2
Temperature, K	Mole fraction of heptane	Surface tension liquid-gas, N/m	uncertainty
293.15	0	0.03905	0.00108
293.15	0.0065	0.03777	0.00105
293.15	0.009	0.03707	0.00103
293.15	0.0112	0.03443	0.00097
293.15	0.0238	0.03361	0.00095
293.15	0.0306	0.03237	0.00092
293.15	0.0445	0.02884	0.00084
293.15	0.067	0.02609	0.00077
293.15	1	0.02005	0.00063
298.15	0	0.03858	0.00107
298.15	0.0065	0.03747	0.00104
298.15	0.009	0.03687	0.00103
298.15	0.0112	0.03469	0.00098
298.15	0.0238	0.03383	0.00096
298.15	0.0306	0.03258	0.00093
298.15	0.0445	0.02916	0.00085
298.15	0.067	0.02647	0.00078
298.15	1	0.01954	0.00062
303.15	0	0.03812	0.00106
303.15	0.0065	0.0371	0.00103
303.15	0.009	0.03662	0.00102
303.15	0.0112	0.03502	0.00098
303.15	0.0238	0.03405	0.00096
303.15	0.0306	0.03282	0.00093
303.15	0.0445	0.02943	0.00085
303.15	0.067	0.02689	0.00079
303.15	1	0.0191	0.00061
308.15	0	0.03763	0.00105
308.15	0.0065	0.03678	0.00103
308.15	0.009	0.03641	0.00102
308.15	0.0112	0.03528	0.00099
308.15	0.0238	0.03427	0.00097
308.15	0.0306	0.03304	0.00094
308.15	0.0445	0.02968	0.00086
308.15	0.067	0.02727	0.0008
308.15	1	0.01858	0.00059
313.15	0	0.03716	0.00104
313.15	0.0065	0.03649	0.00102
313.15	0.009	0.03616	0.00101
313.15	0.0112	0.03553	0.001
313.15	0.0238	0.03448	0.00097
313.15	0.0306	0.03324	0.00094
313.15	0.0445	0.03	0.00087
313.15	0.067	0.0277	0.00081
313.15	1	0.01808	0.00058
318.15	0	0.03663	0.00102
318.15	0.0065	0.03618	0.00101
318.15	0.009	0.03595	0.00101
318.15	0.0112	0.03583	0.001
318.15	0.0238	0.0347	0.00098
318.15	0.0306	0.03346	0.00095
318.15	0.0445	0.0303	0.00087
318.15	0.067	0.02808	0.00082
318.15	1	0.0176	0.00057
323.15	0	0.03618	0.00101
323.15	0.0065	0.03592	0.00101
323.15	0.009	0.03574	0.001
323.15	0.0112	0.03611	0.00101
323.15	0.0238	0.03495	0.00098
323.15	0.0306	0.03368	0.00095
323.15	0.0445	0.03061	0.00088
323.15	0.067	0.02846	0.00083
323.15	1	0.01706	0.00056

System: benzenemethanol + nonane; phases: Liquid, Gas
Property: Surface tension liquid-gas, N/m (Liquid); method: RINGTE:UFactor:2
Temperature, K	Mole fraction of nonane	Surface tension liquid-gas, N/m	uncertainty
293.15	0	0.03905	0.00108
293.15	0.0061	0.03683	0.00103
293.15	0.008	0.03633	0.00102
293.15	0.0116	0.03534	0.00099
293.15	0.0204	0.03252	0.00093
293.15	0.0329	0.03044	0.00088
293.15	0.0408	0.02873	0.00084
293.15	0.0668	0.02666	0.00079
293.15	1	0.02304	0.0007
298.15	0	0.03858	0.00107
298.15	0.0061	0.0364	0.00102
298.15	0.008	0.03595	0.00101
298.15	0.0116	0.03513	0.00099
298.15	0.0204	0.03231	0.00092
298.15	0.0329	0.03023	0.00087
298.15	0.0408	0.02852	0.00083
298.15	0.0668	0.02656	0.00078
298.15	1	0.02249	0.00069
303.15	0	0.03812	0.00106
303.15	0.0061	0.03585	0.001
303.15	0.008	0.03552	0.001
303.15	0.0116	0.03459	0.00097
303.15	0.0204	0.03202	0.00091
303.15	0.0329	0.03	0.00087
303.15	0.0408	0.02822	0.00082
303.15	0.0668	0.02638	0.00078
303.15	1	0.02204	0.00068
308.15	0	0.03763	0.00105
308.15	0.0061	0.03551	0.001
308.15	0.008	0.03521	0.00099
308.15	0.0116	0.03433	0.00097
308.15	0.0204	0.03183	0.00091
308.15	0.0329	0.02985	0.00086
308.15	0.0408	0.02803	0.00082
308.15	0.0668	0.02628	0.00078
308.15	1	0.02149	0.00066
313.15	0	0.03716	0.00104
313.15	0.0061	0.03503	0.00098
313.15	0.008	0.03484	0.00098
313.15	0.0116	0.03398	0.00096
313.15	0.0204	0.03161	0.0009
313.15	0.0329	0.02962	0.00086
313.15	0.0408	0.02782	0.00081
313.15	0.0668	0.02619	0.00077
313.15	1	0.02094	0.00065
318.15	0	0.03663	0.00102
318.15	0.0061	0.03461	0.00097
318.15	0.008	0.0345	0.00097
318.15	0.0116	0.03367	0.00095
318.15	0.0204	0.03141	0.0009
318.15	0.0329	0.02944	0.00085
318.15	0.0408	0.02767	0.00081
318.15	0.0668	0.02612	0.00077
318.15	1	0.02047	0.00064
323.15	0	0.03618	0.00101
323.15	0.0061	0.03425	0.00097
323.15	0.008	0.03416	0.00096
323.15	0.0116	0.03332	0.00094
323.15	0.0204	0.03122	0.00089
323.15	0.0329	0.02925	0.00085
323.15	0.0408	0.02746	0.00081
323.15	0.0668	0.02602	0.00077
323.15	1	0.01998	0.00063

System: benzenemethanol + cyclohexane; phases: Liquid, Gas
Property: Surface tension liquid-gas, N/m (Liquid); method: RINGTE:UFactor:2
Temperature, K	Mole fraction of cyclohexane	Surface tension liquid-gas, N/m	uncertainty
293.15	0	0.03905	0.00108
293.15	0.0068	0.03788	0.00105
293.15	0.0079	0.03773	0.00105
293.15	0.0107	0.03748	0.00104
293.15	0.0202	0.03707	0.00103
293.15	0.0312	0.03653	0.00102
293.15	0.0409	0.03588	0.001
293.15	0.0655	0.03414	0.00096
293.15	1	0.02506	0.00075
298.15	0	0.03858	0.00107
298.15	0.0068	0.03743	0.00104
298.15	0.0079	0.03739	0.00104
298.15	0.0107	0.03715	0.00104
298.15	0.0202	0.03668	0.00102
298.15	0.0312	0.03625	0.00101
298.15	0.0409	0.03566	0.001
298.15	0.0655	0.03404	0.00096
298.15	1	0.02445	0.00073
303.15	0	0.03812	0.00106
303.15	0.0068	0.03706	0.00103
303.15	0.0079	0.03693	0.00103
303.15	0.0107	0.03674	0.00103
303.15	0.0202	0.03632	0.00102
303.15	0.0312	0.03598	0.00101
303.15	0.0409	0.03541	0.00099
303.15	0.0655	0.03394	0.00096
303.15	1	0.02387	0.00072
308.15	0	0.03763	0.00105
308.15	0.0068	0.03666	0.00102
308.15	0.0079	0.03654	0.00102
308.15	0.0107	0.03638	0.00102
308.15	0.0202	0.03592	0.00101
308.15	0.0312	0.03573	0.001
308.15	0.0409	0.03522	0.00099
308.15	0.0655	0.03382	0.00096
308.15	1	0.02321	0.0007
313.15	0	0.03716	0.00104
313.15	0.0068	0.03629	0.00101
313.15	0.0079	0.03612	0.00101
313.15	0.0107	0.03599	0.00101
313.15	0.0202	0.03558	0.001
313.15	0.0312	0.03547	0.001
313.15	0.0409	0.03496	0.00098
313.15	0.0655	0.03372	0.00095
313.15	1	0.02271	0.00069
318.15	0	0.03663	0.00102
318.15	0.0068	0.03584	0.001
318.15	0.0079	0.03574	0.001
318.15	0.0107	0.03566	0.001
318.15	0.0202	0.03524	0.00099
318.15	0.0312	0.03522	0.00099
318.15	0.0409	0.03477	0.00098
318.15	0.0655	0.03361	0.00095
318.15	1	0.02205	0.00068
323.15	0	0.03618	0.00101
323.15	0.0068	0.0355	0.001
323.15	0.0079	0.03532	0.00099
323.15	0.0107	0.03525	0.00099
323.15	0.0202	0.03486	0.00098
323.15	0.0312	0.03496	0.00098
323.15	0.0409	0.03453	0.00097
323.15	0.0655	0.0335	0.00095
323.15	1	0.02145	0.00066
