Measured thermophysical data. Isobaric Vapor-Liquid Equilibria for the Binary Mixtures of Styrene with Ethylbenzene, o-Xylene, m-Xylene, and p-Xylene
Source: J. Chem. Eng. Data, 2006, 10.1021/je050523s
Compound 1: 1,4-dimethylbenzene, C8H10, InChI=1S/C8H10/c1-7-3-5-8(2)6-4-7/h3-6H,1-2H3, purity 99%
Compound 2: styrene, C8H8, InChI=1S/C8H8/c1-2-8-6-4-3-5-7-8/h2-7H,1H2, purity 99.5%
Compound 3: ethylbenzene, C8H10, InChI=1S/C8H10/c1-2-8-6-4-3-5-7-8/h3-7H,2H2,1H3, purity 99%
Compound 4: 1,2-dimethylbenzene, C8H10, InChI=1S/C8H10/c1-7-5-3-4-6-8(7)2/h3-6H,1-2H3, purity 99%
Compound 5: 1,3-dimethylbenzene, C8H10, InChI=1S/C8H10/c1-7-4-3-5-8(2)6-7/h3-6H,1-2H3, purity 99%

System: 1,4-dimethylbenzene; phases: Liquid
Property: Refractive index (Na D-line) (Liquid); method: ABBE:monoch
Temperature, K	Pressure, kPa	Refractive index (Na D-line)	uncertainty
298.15	101.325	1.493	0.0004

System: 1,4-dimethylbenzene; phases: Liquid
Property: Mass density, kg/m3 (Liquid); method: VIBTUB:UFactor:4
Temperature, K	Pressure, kPa	Mass density, kg/m3	uncertainty
298.15	101.325	856.55	0.56

System: 1,4-dimethylbenzene; phases: Liquid, Gas
Property: Vapor or sublimation pressure, kPa (Liquid); method: EBULLIO:UFactor:16
Temperature, K	Vapor or sublimation pressure, kPa	uncertainty
306.95	2	0.1
320.77	4	0.1
329.64	6	0.1
336.26	8	0.1
341.6	10	0.1
346.1	12	0.2
350.02	14	0.2
353.51	16	0.2
356.65	18	0.2
359.49	20	0.2
362.14	22	0.2
364.55	24	0.2
366.83	26	0.2
368.96	28	0.2
371	30	0.2

System: styrene; phases: Liquid
Property: Refractive index (Na D-line) (Liquid); method: ABBE:monoch
Temperature, K	Pressure, kPa	Refractive index (Na D-line)	uncertainty
298.15	101.325	1.5438	0.0003

System: styrene; phases: Liquid
Property: Mass density, kg/m3 (Liquid); method: VIBTUB:UFactor:2
Temperature, K	Pressure, kPa	Mass density, kg/m3	uncertainty
298.15	101.325	902.3	0.27

System: styrene; phases: Liquid, Gas
Property: Vapor or sublimation pressure, kPa (Liquid); method: EBULLIO:UFactor:16
Temperature, K	Vapor or sublimation pressure, kPa	uncertainty
313.06	2	0.1
327.14	4	0.1
336.09	6	0.1
342.72	8	0.1
348.1	10	0.1
352.62	12	0.1
356.55	14	0.2
360.07	16	0.2
363.22	18	0.2
366.06	20	0.2
368.71	22	0.2
371.17	24	0.2
373.43	26	0.2

System: ethylbenzene; phases: Liquid
Property: Refractive index (Na D-line) (Liquid); method: ABBE:monoch
Temperature, K	Pressure, kPa	Refractive index (Na D-line)	uncertainty
298.15	101.325	1.4932	0.0004

System: ethylbenzene; phases: Liquid
Property: Mass density, kg/m3 (Liquid); method: VIBTUB:UFactor:4
Temperature, K	Pressure, kPa	Mass density, kg/m3	uncertainty
298.15	101.325	862.74	0.55

System: ethylbenzene; phases: Liquid, Gas
Property: Vapor or sublimation pressure, kPa (Liquid); method: EBULLIO:UFactor:16
Temperature, K	Vapor or sublimation pressure, kPa	uncertainty
305.49	2	0.1
319.24	4	0.1
328.05	6	0.1
334.62	8	0.1
339.9	10	0.1
344.38	12	0.2
348.27	14	0.2
351.73	16	0.2
354.86	18	0.2
357.68	20	0.2
360.28	22	0.2
362.7	24	0.2
364.94	26	0.2
367.06	28	0.2
369.04	30	0.2

System: 1,2-dimethylbenzene; phases: Liquid
Property: Refractive index (Na D-line) (Liquid); method: ABBE:monoch
Temperature, K	Pressure, kPa	Refractive index (Na D-line)	uncertainty
298.15	101.325	1.502	0.0004

System: 1,2-dimethylbenzene; phases: Liquid
Property: Mass density, kg/m3 (Liquid); method: VIBTUB:UFactor:4
Temperature, K	Pressure, kPa	Mass density, kg/m3	uncertainty
298.15	101.325	875.99	0.55

System: 1,2-dimethylbenzene; phases: Liquid, Gas
Property: Vapor or sublimation pressure, kPa (Liquid); method: EBULLIO:UFactor:16
Temperature, K	Vapor or sublimation pressure, kPa	uncertainty
316.01	2.5	0.1
330.78	5	0.1
340.03	7.5	0.1
346.93	10	0.1
352.52	12.5	0.2
357.26	15	0.2
361.36	17.5	0.2
365.02	20	0.2
368.29	22.5	0.2
371.27	25	0.2
374.04	27.5	0.2
376.58	30	0.2

System: 1,3-dimethylbenzene; phases: Liquid
Property: Refractive index (Na D-line) (Liquid); method: ABBE:monoch
Temperature, K	Pressure, kPa	Refractive index (Na D-line)	uncertainty
298.15	101.325	1.4944	0.0004

System: 1,3-dimethylbenzene; phases: Liquid
Property: Mass density, kg/m3 (Liquid); method: VIBTUB:UFactor:4
Temperature, K	Pressure, kPa	Mass density, kg/m3	uncertainty
298.15	101.325	859.8	0.56

System: 1,3-dimethylbenzene; phases: Liquid, Gas
Property: Vapor or sublimation pressure, kPa (Liquid); method: EBULLIO:UFactor:16
Temperature, K	Vapor or sublimation pressure, kPa	uncertainty
307.84	2	0.1
321.77	4	0.1
330.64	6	0.1
337.24	8	0.1
342.57	10	0.1
347.07	12	0.2
350.98	14	0.2
354.46	16	0.2
357.59	18	0.2
360.42	20	0.2
363.04	22	0.2
365.44	24	0.2
367.74	26	0.2
369.85	28	0.2
371.87	30	0.2

System: ethylbenzene + styrene; phases: Liquid, Gas
Property: Boiling temperature at pressure P, K (Liquid); method: Ebulliometric method (Recirculating still)
Mole fraction of ethylbenzene	Pressure, kPa	Boiling temperature at pressure P, K	uncertainty
0.039	15	357.84	0.29
0.078	5	330.93	0.27
0.081	15	357.5	0.29
0.121	15	357.12	0.29
0.139	5	330.5	0.27
0.171	15	356.67	0.29
0.192	5	329.85	0.27
0.211	15	356.3	0.29
0.229	5	329.5	0.27
0.244	5	329.27	0.27
0.256	15	355.79	0.29
0.29	5	328.9	0.27
0.312	15	355.29	0.29
0.351	5	328.49	0.27
0.368	15	354.75	0.29
0.412	5	328.07	0.27
0.412	15	354.46	0.29
0.46	15	354.02	0.29
0.471	5	327.5	0.27
0.513	15	353.6	0.29
0.534	5	326.89	0.27
0.573	15	353.09	0.29
0.594	5	326.42	0.27
0.623	15	352.62	0.29
0.655	5	326.04	0.27
0.679	15	352.19	0.29
0.713	5	325.61	0.27
0.755	15	351.67	0.29
0.773	5	325.18	0.27
0.841	15	351.21	0.29
0.886	15	350.9	0.29
0.891	5	324.55	0.27
0.938	15	350.48	0.29
0.939	5	324.38	0.27
0.978	15	350.21	0.29

System: ethylbenzene + styrene; phases: Gas, Liquid
Property: Mole fraction of ethylbenzene (Gas); method: CHROM:UFactor:2
Mole fraction of ethylbenzene	Pressure, kPa	Mole fraction of ethylbenzene	uncertainty
0.039	15	0.055	0.002
0.078	5	0.113	0.003
0.081	15	0.113	0.003
0.121	15	0.165	0.003
0.139	5	0.202	0.004
0.171	15	0.224	0.004
0.192	5	0.264	0.005
0.211	15	0.278	0.005
0.229	5	0.306	0.006
0.244	5	0.325	0.006
0.256	15	0.329	0.006
0.29	5	0.377	0.007
0.312	15	0.392	0.008
0.351	5	0.443	0.009
0.368	15	0.454	0.009
0.412	5	0.508	0.01
0.412	15	0.499	0.01
0.46	15	0.544	0.009
0.471	5	0.568	0.009
0.513	15	0.59	0.008
0.534	5	0.627	0.008
0.573	15	0.646	0.007
0.594	5	0.683	0.007
0.623	15	0.692	0.006
0.655	5	0.732	0.006
0.679	15	0.741	0.006
0.713	5	0.784	0.005
0.755	15	0.807	0.004
0.773	5	0.832	0.004
0.841	15	0.877	0.003
0.886	15	0.915	0.002
0.891	5	0.92	0.002
0.938	15	0.952	0.002
0.939	5	0.957	0.002
0.978	15	0.984	0.001

System: 1,2-dimethylbenzene + styrene; phases: Liquid, Gas
Property: Boiling temperature at pressure P, K (Liquid); method: Ebulliometric method (Recirculating still)
Mole fraction of 1,2-dimethylbenzene	Pressure, kPa	Boiling temperature at pressure P, K	uncertainty
0.047	5	331.85	0.27
0.048	15	358.31	0.29
0.091	5	331.8	0.27
0.092	15	358.27	0.29
0.138	15	358.23	0.29
0.141	5	331.73	0.27
0.186	15	358.18	0.29
0.192	5	331.66	0.27
0.23	15	358.14	0.29
0.246	5	331.6	0.27
0.275	15	358.09	0.29
0.307	5	331.52	0.27
0.321	15	358.04	0.29
0.364	5	331.45	0.27
0.371	15	357.99	0.29
0.412	5	331.38	0.27
0.431	15	357.93	0.29
0.473	15	357.88	0.29
0.478	5	331.31	0.27
0.502	5	331.26	0.27
0.532	15	357.82	0.29
0.552	5	331.2	0.27
0.582	15	357.75	0.29
0.598	5	331.15	0.27
0.635	15	357.69	0.29
0.649	5	331.1	0.27
0.688	15	357.62	0.29
0.697	5	331.05	0.27
0.742	5	330.98	0.27
0.744	15	357.56	0.3
0.789	5	330.94	0.27
0.803	15	357.48	0.3
0.838	5	330.9	0.27
0.864	15	357.4	0.3
0.901	5	330.83	0.27
0.926	15	357.31	0.3
0.948	5	330.79	0.27
0.97	15	357.25	0.3

System: 1,2-dimethylbenzene + styrene; phases: Gas, Liquid
Property: Mole fraction of 1,2-dimethylbenzene (Gas); method: CHROM:UFactor:2
Mole fraction of 1,2-dimethylbenzene	Pressure, kPa	Mole fraction of 1,2-dimethylbenzene	uncertainty
0.047	5	0.05	0.002
0.048	15	0.051	0.002
0.091	5	0.097	0.002
0.092	15	0.095	0.002
0.138	15	0.141	0.003
0.141	5	0.149	0.003
0.186	15	0.191	0.004
0.192	5	0.203	0.004
0.23	15	0.238	0.005
0.246	5	0.259	0.005
0.275	15	0.285	0.005
0.307	5	0.322	0.006
0.321	15	0.332	0.006
0.364	5	0.378	0.007
0.371	15	0.38	0.007
0.412	5	0.427	0.008
0.431	15	0.44	0.009
0.473	15	0.491	0.01
0.478	5	0.495	0.01
0.502	5	0.517	0.01
0.532	15	0.537	0.009
0.552	5	0.566	0.009
0.582	15	0.59	0.008
0.598	5	0.614	0.008
0.635	15	0.64	0.007
0.649	5	0.662	0.007
0.688	15	0.696	0.006
0.697	5	0.71	0.006
0.742	5	0.753	0.005
0.744	15	0.75	0.005
0.789	5	0.798	0.005
0.803	15	0.812	0.004
0.838	5	0.846	0.004
0.864	15	0.869	0.003
0.901	5	0.905	0.002
0.926	15	0.929	0.002
0.948	5	0.95	0.002
0.97	15	0.971	0.002

System: styrene + 1,3-dimethylbenzene; phases: Liquid, Gas
Property: Boiling temperature at pressure P, K (Liquid); method: Ebulliometric method (Recirculating still)
Mole fraction of 1,3-dimethylbenzene	Pressure, kPa	Boiling temperature at pressure P, K	uncertainty
0.015	5	331.87	0.27
0.042	5	331.68	0.27
0.086	15	357.74	0.29
0.089	5	331.43	0.27
0.114	15	357.65	0.29
0.138	5	331.09	0.27
0.156	15	357.39	0.29
0.19	5	330.77	0.27
0.2	15	357.11	0.29
0.238	15	356.88	0.29
0.243	5	330.48	0.27
0.285	15	356.59	0.29
0.295	5	330.2	0.27
0.331	15	356.32	0.29
0.348	5	329.9	0.27
0.381	15	356.02	0.29
0.392	5	329.62	0.27
0.42	5	329.46	0.27
0.428	15	355.76	0.29
0.461	5	329.25	0.27
0.477	15	355.51	0.29
0.511	5	328.98	0.27
0.527	15	355.21	0.29
0.567	5	328.71	0.27
0.575	15	354.92	0.29
0.61	5	328.49	0.27
0.623	15	354.65	0.29
0.669	5	328.16	0.27
0.678	15	354.39	0.29
0.724	5	327.88	0.27
0.725	15	354.12	0.29
0.775	15	353.83	0.29
0.779	5	327.63	0.27
0.808	15	353.7	0.29
0.843	5	327.31	0.27
0.879	15	353.34	0.29
0.896	5	327.09	0.27
0.933	15	353.06	0.29
0.957	5	326.79	0.27
0.968	15	352.85	0.29
0.978	5	326.69	0.27

System: styrene + 1,3-dimethylbenzene; phases: Gas, Liquid
Property: Mole fraction of 1,3-dimethylbenzene (Gas); method: CHROM:UFactor:4
Mole fraction of 1,3-dimethylbenzene	Pressure, kPa	Mole fraction of 1,3-dimethylbenzene	uncertainty
0.015	5	0.019	0.002
0.042	5	0.055	0.003
0.086	15	0.106	0.004
0.089	5	0.115	0.004
0.114	15	0.135	0.005
0.138	5	0.174	0.007
0.156	15	0.189	0.007
0.19	5	0.234	0.009
0.2	15	0.232	0.009
0.238	15	0.272	0.01
0.243	5	0.298	0.011
0.285	15	0.334	0.013
0.295	5	0.354	0.013
0.331	15	0.385	0.014
0.348	5	0.413	0.016
0.381	15	0.435	0.016
0.392	5	0.46	0.017
0.42	5	0.487	0.018
0.428	15	0.486	0.018
0.461	5	0.529	0.018
0.477	15	0.534	0.018
0.511	5	0.576	0.016
0.527	15	0.578	0.016
0.567	5	0.629	0.014
0.575	15	0.63	0.014
0.61	5	0.671	0.013
0.623	15	0.674	0.012
0.669	5	0.722	0.011
0.678	15	0.718	0.011
0.724	5	0.772	0.009
0.725	15	0.765	0.009
0.775	15	0.812	0.007
0.779	5	0.82	0.007
0.808	15	0.836	0.006
0.843	5	0.874	0.005
0.879	15	0.895	0.004
0.896	5	0.917	0.003
0.933	15	0.945	0.002
0.957	5	0.966	0.002
0.968	15	0.974	0.002
0.978	5	0.983	0.002

System: styrene + 1,4-dimethylbenzene; phases: Liquid, Gas
Property: Boiling temperature at pressure P, K (Liquid); method: Ebulliometric method (Recirculating still)
Mole fraction of 1,4-dimethylbenzene	Pressure, kPa	Boiling temperature at pressure P, K	uncertainty
0.017	5	331.96	0.27
0.045	5	331.68	0.27
0.047	15	357.88	0.29
0.088	5	331.37	0.27
0.103	15	357.5	0.29
0.13	5	331.13	0.27
0.147	15	357.21	0.29
0.177	5	330.87	0.27
0.211	15	356.74	0.29
0.22	5	330.58	0.27
0.261	5	330.26	0.27
0.268	15	356.33	0.29
0.307	5	329.88	0.27
0.318	15	356	0.29
0.355	5	329.54	0.27
0.37	15	355.66	0.29
0.406	5	329.21	0.27
0.419	15	355.38	0.29
0.447	15	355.15	0.29
0.451	5	328.88	0.27
0.51	15	354.78	0.29
0.511	5	328.55	0.27
0.556	15	354.45	0.29
0.569	5	328.13	0.27
0.611	15	354.05	0.29
0.621	5	327.89	0.27
0.655	15	353.79	0.29
0.674	5	327.44	0.27
0.713	15	353.43	0.29
0.725	5	327.1	0.27
0.765	15	353.12	0.29
0.78	5	326.8	0.27
0.828	5	326.59	0.27
0.829	15	352.7	0.29
0.886	5	326.25	0.27
0.894	15	352.39	0.29
0.942	5	325.95	0.27
0.949	15	352.04	0.29
0.977	5	325.8	0.27

System: styrene + 1,4-dimethylbenzene; phases: Gas, Liquid
Property: Mole fraction of 1,4-dimethylbenzene (Gas); method: CHROM:UFactor:2
Mole fraction of 1,4-dimethylbenzene	Pressure, kPa	Mole fraction of 1,4-dimethylbenzene	uncertainty
0.017	5	0.024	0.002
0.045	5	0.063	0.002
0.047	15	0.063	0.002
0.088	5	0.119	0.003
0.103	15	0.134	0.003
0.13	5	0.171	0.003
0.147	15	0.188	0.004
0.177	5	0.231	0.005
0.211	15	0.26	0.005
0.22	5	0.282	0.005
0.261	5	0.328	0.006
0.268	15	0.326	0.006
0.307	5	0.382	0.007
0.318	15	0.378	0.007
0.355	5	0.431	0.008
0.37	15	0.433	0.008
0.406	5	0.484	0.009
0.419	15	0.478	0.009
0.447	15	0.513	0.01
0.451	5	0.532	0.009
0.51	15	0.575	0.009
0.511	5	0.588	0.008
0.556	15	0.621	0.008
0.569	5	0.643	0.007
0.611	15	0.672	0.007
0.621	5	0.69	0.006
0.655	15	0.712	0.006
0.674	5	0.736	0.006
0.713	15	0.763	0.005
0.725	5	0.781	0.005
0.765	15	0.808	0.004
0.78	5	0.826	0.004
0.828	5	0.866	0.003
0.829	15	0.862	0.003
0.886	5	0.913	0.002
0.894	15	0.915	0.002
0.942	5	0.957	0.002
0.949	15	0.96	0.002
0.977	5	0.983	0.001
