Measured thermophysical data. Excess Molar Volumes and Viscosities of Binary Mixtures of p-Cresol with Ethylene Glycol and Methanol at Different Temperature and Atmospheric Pressure
Source: J. Chem. Eng. Data, 2006, 10.1021/je050376y
Compound 1: 4-methylphenol, C7H8O, InChI=1S/C7H8O/c1-6-2-4-7(8)5-3-6/h2-5,8H,1H3, purity 99.2%
Compound 2: 1,2-ethanediol, C2H6O2, InChI=1S/C2H6O2/c3-1-2-4/h3-4H,1-2H2, purity 99.4%
Compound 3: methanol, CH4O, InChI=1S/CH4O/c1-2/h2H,1H3, purity 99.5%

System: 4-methylphenol; phases: Liquid
Fixed: Pressure, kPa = 101
Property: Viscosity, Pa*s (Liquid); method: CAPTUB:UFactor:4
Temperature, K	Viscosity, Pa*s	uncertainty
308.15	0.008444	0.000165
313.15	0.006745	0.000138
318.15	0.005471	0.000118
323.15	0.004532	0.000101
328.15	0.003888	8.7e-05
333.15	0.003245	7.3e-05
343.15	0.002431	5.6e-05
353.15	0.001891	4.4e-05

System: 4-methylphenol; phases: Liquid
Fixed: Pressure, kPa = 101
Property: Mass density, kg/m3 (Liquid); method: VIBTUB:UFactor:4
Temperature, K	Mass density, kg/m3	uncertainty
308.15	1021.98	0.45
313.15	1018.05	0.45
318.15	1014.09	0.44
323.15	1010.12	0.44
328.15	1006.57	0.44
333.15	1002.09	0.43
343.15	992.07	5
353.15	986.24	0.43

System: 1,2-ethanediol; phases: Liquid
Fixed: Pressure, kPa = 101
Property: Viscosity, Pa*s (Liquid); method: CAPTUB:UFactor:4
Temperature, K	Viscosity, Pa*s	uncertainty
308.15	0.011193	0.000207
313.15	0.009444	0.00018
318.15	0.007972	0.000156
323.15	0.006794	0.000138
333.15	0.005065	0.000111
343.15	0.003879	8.6e-05
353.15	0.003058	6.9e-05

System: 1,2-ethanediol; phases: Liquid
Fixed: Pressure, kPa = 101
Property: Mass density, kg/m3 (Liquid); method: VIBTUB:UFactor:4
Temperature, K	Mass density, kg/m3	uncertainty
308.15	1101.88	0.44
313.15	1098.33	0.43
318.15	1094.75	0.43
323.15	1091.16	0.42
333.15	1083.94	0.42
343.15	1074.53	5
353.15	1069.72	0.4

System: methanol; phases: Liquid
Fixed: Pressure, kPa = 101
Property: Viscosity, Pa*s (Liquid); method: CAPTUB:UFactor:4
Temperature, K	Viscosity, Pa*s	uncertainty
308.15	0.000476	1.4e-05
313.15	0.000445	1.3e-05
318.15	0.000421	1.3e-05
323.15	0.000395	1.2e-05
328.15	0.000372	1.2e-05

System: methanol; phases: Liquid
Fixed: Pressure, kPa = 101
Property: Mass density, kg/m3 (Liquid); method: VIBTUB:UFactor:4
Temperature, K	Mass density, kg/m3	uncertainty
308.15	776.92	0.51
313.15	772.13	0.52
318.15	767.31	0.53
323.15	762.46	0.53
328.15	757.85	0.54

System: 4-methylphenol + 1,2-ethanediol; phases: Liquid
Fixed: Pressure, kPa = 101
Property: Viscosity, Pa*s (Liquid); method: CAPTUB:UFactor:4
Temperature, K	Mole fraction of 4-methylphenol	Viscosity, Pa*s	uncertainty
308.15	0	0.011193	0.000207
308.15	0.1001	0.012152	0.000223
308.15	0.1999	0.012427	0.000227
308.15	0.2997	0.012434	0.000228
308.15	0.4001	0.012092	0.000222
308.15	0.4998	0.01154	0.000214
308.15	0.6002	0.010827	0.000203
308.15	0.7	0.010015	0.00019
308.15	0.8	0.00931	0.000179
308.15	0.8994	0.008726	0.00017
308.15	1	0.008444	0.000165
313.15	0	0.009444	0.00018
313.15	0.1001	0.009956	0.000188
313.15	0.1999	0.010185	0.000192
313.15	0.2997	0.010134	0.000191
313.15	0.4001	0.009821	0.000186
313.15	0.4998	0.009353	0.000179
313.15	0.6002	0.008735	0.000169
313.15	0.7	0.008103	0.00016
313.15	0.8	0.007526	0.00015
313.15	0.8994	0.007022	0.000143
313.15	1	0.006745	0.000138
318.15	0	0.007972	0.000156
318.15	0.1001	0.008319	0.000162
318.15	0.1999	0.008436	0.000164
318.15	0.2997	0.008358	0.000163
318.15	0.4001	0.008059	0.000158
318.15	0.4998	0.007662	0.000152
318.15	0.6002	0.007175	0.000145
318.15	0.7	0.006646	0.000136
318.15	0.8	0.006177	0.000129
318.15	0.8994	0.005739	0.000122
318.15	1	0.005471	0.000118
323.15	0	0.006794	0.000138
323.15	0.1001	0.007031	0.000142
323.15	0.1999	0.007069	0.000142
323.15	0.2997	0.006976	0.000141
323.15	0.4001	0.006721	0.000137
323.15	0.4998	0.006378	0.000132
323.15	0.6002	0.005971	0.000125
323.15	0.7	0.005523	0.000118
323.15	0.8	0.005136	0.000112
323.15	0.8994	0.004788	0.000106
323.15	1	0.004532	0.000101
333.15	0	0.005065	0.000111
333.15	0.1001	0.005121	0.000112
333.15	0.1999	0.005137	0.000112
333.15	0.2997	0.005029	0.00011
333.15	0.4001	0.004824	0.000106
333.15	0.4998	0.004607	0.000102
333.15	0.6002	0.004298	9.5e-05
333.15	0.7	0.003988	8.9e-05
333.15	0.8	0.003711	8.3e-05
333.15	0.8994	0.003461	7.8e-05
333.15	1	0.003245	7.3e-05
343.15	0	0.003879	8.6e-05
343.15	0.1001	0.003886	8.6e-05
343.15	0.1999	0.003849	8.6e-05
343.15	0.2997	0.003752	8.4e-05
343.15	0.4001	0.003602	8.1e-05
343.15	0.4998	0.003424	7.7e-05
343.15	0.6002	0.003201	7.2e-05
343.15	0.7	0.002995	6.8e-05
343.15	0.8	0.002786	6.3e-05
343.15	0.8994	0.002588	5.9e-05
343.15	1	0.002431	5.6e-05
353.15	0	0.003058	6.9e-05
353.15	0.1001	0.002934	6.6e-05
353.15	0.1999	0.00299	6.8e-05
353.15	0.2997	0.002915	6.6e-05
353.15	0.4001	0.002776	6.3e-05
353.15	0.4998	0.002648	6e-05
353.15	0.6002	0.002488	5.7e-05
353.15	0.7	0.002326	5.4e-05
353.15	0.8	0.002173	5e-05
353.15	0.8994	0.002022	4.7e-05
353.15	1	0.001891	4.4e-05

System: 4-methylphenol + 1,2-ethanediol; phases: Liquid
Fixed: Pressure, kPa = 101
Property: Mass density, kg/m3 (Liquid); method: VIBTUB:UFactor:4
Temperature, K	Mole fraction of 4-methylphenol	Mass density, kg/m3	uncertainty
308.15	0	1101.88	0.44
308.15	0.1001	1088.89	0.43
308.15	0.1999	1077.45	0.43
308.15	0.2997	1067.32	0.42
308.15	0.4001	1058.44	0.42
308.15	0.4998	1050.66	0.43
308.15	0.6002	1043.69	0.43
308.15	0.7	1037.34	0.43
308.15	0.8	1031.62	0.44
308.15	0.8994	1026.55	0.44
308.15	1	1021.98	0.45
313.15	0	1098.33	0.43
313.15	0.1001	1085.2	0.43
313.15	0.1999	1073.68	0.42
313.15	0.2997	1063.52	0.42
313.15	0.4001	1054.58	0.42
313.15	0.4998	1046.78	0.42
313.15	0.6002	1039.82	0.43
313.15	0.7	1033.45	0.43
313.15	0.8	1027.72	0.43
313.15	0.8994	1022.63	0.44
313.15	1	1018.05	0.45
318.15	0	1094.75	0.43
318.15	0.1001	1081.49	0.42
318.15	0.1999	1069.89	0.42
318.15	0.2997	1059.67	0.42
318.15	0.4001	1050.7	0.42
318.15	0.4998	1042.88	0.42
318.15	0.6002	1035.9	0.42
318.15	0.7	1029.55	0.43
318.15	0.8	1023.79	0.43
318.15	0.8994	1018.7	0.44
318.15	1	1014.09	0.44
323.15	0	1091.16	0.42
323.15	0.1001	1077.77	0.42
323.15	0.1999	1066.09	0.41
323.15	0.2997	1055.81	0.41
323.15	0.4001	1046.81	0.41
323.15	0.4998	1038.98	0.42
323.15	0.6002	1031.99	0.42
323.15	0.7	1025.61	0.42
323.15	0.8	1019.85	0.43
323.15	0.8994	1014.75	0.43
323.15	1	1010.12	0.44
333.15	0	1083.94	0.42
333.15	0.1001	1070.28	0.41
333.15	0.1999	1058.44	0.41
333.15	0.2997	1048.06	0.41
333.15	0.4001	1038.98	0.41
333.15	0.4998	1031.11	0.41
333.15	0.6002	1024.09	0.41
333.15	0.7	1017.71	0.42
333.15	0.8	1011.92	0.42
333.15	0.8994	1006.8	0.43
333.15	1	1002.09	0.43
343.15	0	1074.53	5
343.15	0.1001	1060.64	5
343.15	0.1999	1048.68	5
343.15	0.2997	1038.24	5
343.15	0.4001	1029.09	5
343.15	0.4998	1021.2	5
343.15	0.6002	1014.17	5
343.15	0.7	1007.79	5
343.15	0.8	1001.99	5
343.15	0.8994	996.84	5
343.15	1	992.07	5
353.15	0	1069.72	0.4
353.15	0.1001	1055.58	0.4
353.15	0.1999	1043.36	0.39
353.15	0.2997	1032.81	0.39
353.15	0.4001	1023.59	0.39
353.15	0.4998	1015.62	0.4
353.15	0.6002	1008.55	0.4
353.15	0.7	1002.15	0.4
353.15	0.8	996.33	0.41
353.15	0.8994	991.1	0.42
353.15	1	986.24	0.43

System: methanol + 4-methylphenol; phases: Liquid
Fixed: Pressure, kPa = 101
Property: Viscosity, Pa*s (Liquid); method: CAPTUB:UFactor:4
Temperature, K	Mole fraction of 4-methylphenol	Viscosity, Pa*s	uncertainty
308.15	0	0.000476	1.4e-05
308.15	0.1	0.000701	1.8e-05
308.15	0.1999	0.000977	2.4e-05
308.15	0.2998	0.001333	3.2e-05
308.15	0.4	0.001762	4.1e-05
308.15	0.4999	0.002316	5.3e-05
308.15	0.5999	0.003021	6.8e-05
308.15	0.6999	0.003928	8.8e-05
308.15	0.8	0.005072	0.000111
308.15	0.8999	0.006535	0.000135
308.15	1	0.008444	0.000165
313.15	0	0.000445	1.3e-05
313.15	0.1	0.000652	1.7e-05
313.15	0.1999	0.000901	2.3e-05
313.15	0.2998	0.001218	3e-05
313.15	0.4	0.001588	3.8e-05
313.15	0.4999	0.002044	4.7e-05
313.15	0.5999	0.002631	6e-05
313.15	0.6999	0.00336	7.6e-05
313.15	0.8	0.004251	9.4e-05
313.15	0.8999	0.005364	0.000116
313.15	1	0.006745	0.000138
318.15	0	0.000421	1.3e-05
318.15	0.1	0.000608	1.6e-05
318.15	0.1999	0.000834	2.1e-05
318.15	0.2998	0.001112	2.7e-05
318.15	0.4	0.001435	3.4e-05
318.15	0.4999	0.001817	4.3e-05
318.15	0.5999	0.00231	5.3e-05
318.15	0.6999	0.002894	6.6e-05
318.15	0.8	0.003603	8.1e-05
318.15	0.8999	0.00444	9.9e-05
318.15	1	0.005471	0.000118
323.15	0	0.000395	1.2e-05
323.15	0.1	0.000568	1.5e-05
323.15	0.1999	0.000772	2e-05
323.15	0.2998	0.000998	2.5e-05
323.15	0.4	0.001305	3.1e-05
323.15	0.4999	0.001633	3.9e-05
323.15	0.5999	0.002043	4.7e-05
323.15	0.6999	0.002527	5.8e-05
323.15	0.8	0.003092	7e-05
323.15	0.8999	0.003754	8.4e-05
323.15	1	0.004532	0.000101
328.15	0	0.000372	1.2e-05
328.15	0.1	0.000533	1.5e-05
328.15	0.1999	0.000719	1.9e-05
328.15	0.2998	0.000942	2.4e-05
328.15	0.4	0.001192	2.9e-05
328.15	0.4999	0.001477	3.5e-05
328.15	0.5999	0.001821	4.3e-05
328.15	0.6999	0.002229	5.1e-05
328.15	0.8	0.002688	6.1e-05
328.15	0.8999	0.003212	7.3e-05
328.15	1	0.003888	8.7e-05

System: methanol + 4-methylphenol; phases: Liquid
Fixed: Pressure, kPa = 101
Property: Mass density, kg/m3 (Liquid); method: VIBTUB:UFactor:4
Temperature, K	Mole fraction of 4-methylphenol	Mass density, kg/m3	uncertainty
308.15	0	776.92	0.51
308.15	0.1	837.27	0.45
308.15	0.1999	881.21	0.4
308.15	0.2998	914.53	0.38
308.15	0.4	940.54	0.37
308.15	0.4999	961.59	0.37
308.15	0.5999	977.95	0.38
308.15	0.6999	992.04	0.39
308.15	0.8	1003.53	0.41
308.15	0.8999	1013.73	0.43
308.15	1	1021.98	0.45
313.15	0	772.13	0.52
313.15	0.1	832.69	0.46
313.15	0.1999	876.78	0.41
313.15	0.2998	910.25	0.38
313.15	0.4	936.35	0.37
313.15	0.4999	957.48	0.37
313.15	0.5999	973.9	0.38
313.15	0.6999	988.04	0.39
313.15	0.8	999.57	0.4
313.15	0.8999	1009.79	0.42
313.15	1	1018.05	0.45
318.15	0	767.31	0.53
318.15	0.1	828.09	0.46
318.15	0.1999	872.35	0.41
318.15	0.2998	905.93	0.39
318.15	0.4	932.16	0.38
318.15	0.4999	953.35	0.38
318.15	0.5999	969.84	0.38
318.15	0.6999	984.03	0.39
318.15	0.8	995.58	0.4
318.15	0.8999	1005.83	0.42
318.15	1	1014.09	0.44
323.15	0	762.46	0.53
323.15	0.1	823.45	0.47
323.15	0.1999	867.89	0.42
323.15	0.2998	901.61	0.39
323.15	0.4	927.93	0.38
323.15	0.4999	949.21	0.38
323.15	0.5999	965.76	0.38
323.15	0.6999	980	0.39
323.15	0.8	991.58	0.4
323.15	0.8999	1001.84	0.42
323.15	1	1010.12	0.44
328.15	0	757.85	0.54
328.15	0.1	819.09	0.48
328.15	0.1999	863.71	0.42
328.15	0.2998	897.58	0.4
328.15	0.4	924.03	0.38
328.15	0.4999	945.39	0.38
328.15	0.5999	962.01	0.38
328.15	0.6999	976.3	0.39
328.15	0.8	987.91	0.4
328.15	0.8999	998.2	0.42
328.15	1	1006.57	0.44
