Measured thermophysical data. Density and Viscosity for a Binary Mixture of cis-3-Hexenyl Formate, Butyl Acetate, trans-2-Hexenyl Acetate, and cis-3-Hexenyl Acetate with Ethanol at Several Temperatures
Source: J. Chem. Eng. Data, 2005, 10.1021/je0500025
Compound 1: ethanol, C2H6O, InChI=1S/C2H6O/c1-2-3/h3H,2H2,1H3, purity 99%
Compound 2: (Z)-3-hexenyl formate, C7H12O2, InChI=1S/C7H12O2/c1-2-3-4-5-6-9-7-8/h3-4,7H,2,5-6H2,1H3/b4-3-, purity 97.4%
Compound 3: butyl ethanoate, C6H12O2, InChI=1S/C6H12O2/c1-3-4-5-8-6(2)7/h3-5H2,1-2H3, purity 99.7%
Compound 4: (E)-2-hexenyl acetate, C8H14O2, InChI=1S/C8H14O2/c1-3-4-5-6-7-10-8(2)9/h5-6H,3-4,7H2,1-2H3/b6-5+, purity 98.9%
Compound 5: (Z)-3-hexenyl acetate, C8H14O2, InChI=1S/C8H14O2/c1-3-4-5-6-7-10-8(2)9/h4-5H,3,6-7H2,1-2H3/b5-4-, purity 98.9%

System: ethanol; phases: Liquid
Fixed: Pressure, kPa = 101
Property: Viscosity, Pa*s (Liquid); method: SPHERE::UFactor:4
Temperature, K	Viscosity, Pa*s	uncertainty
293.15	0.00116	3.7e-05
303.15	0.000968	3.1e-05
313.15	0.00081	2.6e-05

System: ethanol; phases: Liquid
Fixed: Pressure, kPa = 101
Property: Mass density, kg/m3 (Liquid); method: VIBTUB:UFactor:32
Temperature, K	Mass density, kg/m3	uncertainty
293.15	788.24	4.72
303.15	780.73	4.84
313.15	771.98	4.98

System: (Z)-3-hexenyl formate; phases: Liquid
Fixed: Pressure, kPa = 101
Property: Viscosity, Pa*s (Liquid); method: SPHERE::UFactor:4
Temperature, K	Viscosity, Pa*s	uncertainty
293.15	0.000599	2.1e-05
303.15	0.000527	1.9e-05
313.15	0.000469	1.7e-05

System: (Z)-3-hexenyl formate; phases: Liquid
Fixed: Pressure, kPa = 101
Property: Mass density, kg/m3 (Liquid); method: VIBTUB::UFactor:32
Temperature, K	Mass density, kg/m3	uncertainty
293.15	909.15	3
303.15	906.6	3.04
313.15	903.17	3.09

System: butyl ethanoate; phases: Liquid
Fixed: Pressure, kPa = 101
Property: Viscosity, Pa*s (Liquid); method: SPHERE::UFactor:4
Temperature, K	Viscosity, Pa*s	uncertainty
293.15	0.000732	2.3e-05
303.15	0.000628	2e-05
313.15	0.000546	1.8e-05

System: butyl ethanoate; phases: Liquid
Fixed: Pressure, kPa = 101
Property: Mass density, kg/m3 (Liquid); method: VIBTUB::UFactor:32
Temperature, K	Mass density, kg/m3	uncertainty
293.15	881.04	3.21
303.15	871.3	3.36
313.15	861.84	3.52

System: (E)-2-hexenyl acetate; phases: Liquid
Fixed: Pressure, kPa = 101
Property: Viscosity, Pa*s (Liquid); method: SPHERE::UFactor:4
Temperature, K	Viscosity, Pa*s	uncertainty
293.15	0.000901	2.9e-05
303.15	0.00077	2.5e-05
313.15	0.000666	2.1e-05

System: (E)-2-hexenyl acetate; phases: Liquid
Fixed: Pressure, kPa = 101
Property: Mass density, kg/m3 (Liquid); method: VIBTUB::UFactor:32
Temperature, K	Mass density, kg/m3	uncertainty
293.15	897.84	2.97
303.15	891.78	3.07
313.15	884.35	3.19

System: (Z)-3-hexenyl acetate; phases: Liquid
Fixed: Pressure, kPa = 101
Property: Viscosity, Pa*s (Liquid); method: SPHERE::UFactor:4
Temperature, K	Viscosity, Pa*s	uncertainty
293.15	0.000893	2.8e-05
303.15	0.000763	2.4e-05
313.15	0.00066	2.1e-05

System: (Z)-3-hexenyl acetate; phases: Liquid
Fixed: Pressure, kPa = 101
Property: Mass density, kg/m3 (Liquid); method: VIBTUB::UFactor:32
Temperature, K	Mass density, kg/m3	uncertainty
293.15	900.82	2.93
303.15	893.14	3.05
313.15	886.19	3.16

System: ethanol + (Z)-3-hexenyl formate; phases: Liquid
Fixed: Pressure, kPa = 101
Property: Viscosity, Pa*s (Liquid); method: SPHERE:UFactor:4
Temperature, K	Mole fraction of (Z)-3-hexenyl formate	Viscosity, Pa*s	uncertainty
293.15	0	0.00116	3.7e-05
293.15	0.1054	0.001082	3.4e-05
293.15	0.2078	0.001011	3.2e-05
293.15	0.2987	0.000952	3.1e-05
293.15	0.4015	0.000889	2.9e-05
293.15	0.5143	0.000825	2.7e-05
293.15	0.6058	0.000777	2.6e-05
293.15	0.7254	0.000718	2.4e-05
293.15	0.8007	0.000683	2.3e-05
293.15	0.9154	0.000633	2.1e-05
293.15	1	0.000599	2.1e-05
303.15	0	0.000968	3.1e-05
303.15	0.1036	0.000908	2.9e-05
303.15	0.2154	0.000849	2.7e-05
303.15	0.3087	0.000802	2.6e-05
303.15	0.4221	0.000748	2.4e-05
303.15	0.5231	0.000704	2.3e-05
303.15	0.598	0.000672	2.2e-05
303.15	0.7058	0.00063	2.1e-05
303.15	0.8205	0.000587	2e-05
303.15	0.9014	0.000559	1.9e-05
303.15	1	0.000527	1.9e-05
313.15	0	0.00081	2.6e-05
313.15	0.0984	0.000767	2.5e-05
313.15	0.1895	0.00073	2.3e-05
313.15	0.3122	0.000682	2.2e-05
313.15	0.4087	0.000647	2.1e-05
313.15	0.5041	0.000614	2e-05
313.15	0.6078	0.000581	1.9e-05
313.15	0.7145	0.000548	1.9e-05
313.15	0.8154	0.000518	1.8e-05
313.15	0.9089	0.000492	1.7e-05
313.15	1	0.000469	1.7e-05

System: ethanol + (Z)-3-hexenyl formate; phases: Liquid
Fixed: Pressure, kPa = 101
Property: Mass density, kg/m3 (Liquid); method: VIBTUB:UFactor:32
Temperature, K	Mole fraction of (Z)-3-hexenyl formate	Mass density, kg/m3	uncertainty
293.15	0	788.24	4.72
293.15	0.1054	801.53	4.51
293.15	0.2078	812.41	4.35
293.15	0.2987	824.36	4.16
293.15	0.4015	832.45	4.05
293.15	0.5143	849.25	3.8
293.15	0.6058	861	3.63
293.15	0.7254	875.36	3.43
293.15	0.8007	881.2	3.36
293.15	0.9154	896.12	3.17
293.15	1	909.15	3
303.15	0	780.73	4.84
303.15	0.1036	791.24	4.68
303.15	0.2154	802.53	4.51
303.15	0.3087	820.54	4.23
303.15	0.4221	833.45	4.03
303.15	0.5231	846.14	3.85
303.15	0.598	856	3.71
303.15	0.7058	870.19	3.51
303.15	0.8205	884.01	3.32
303.15	0.9014	896.28	3.16
303.15	1	906.6	3.04
313.15	0	771.98	4.98
313.15	0.0984	780.51	4.85
313.15	0.1895	800.42	4.54
313.15	0.3122	812.94	4.35
313.15	0.4087	825.43	4.16
313.15	0.5041	839.22	3.96
313.15	0.6078	850.09	3.8
313.15	0.7145	865.72	3.58
313.15	0.8154	878.04	3.41
313.15	0.9089	891.22	3.24
313.15	1	903.17	3.09

System: ethanol + butyl ethanoate; phases: Liquid
Fixed: Pressure, kPa = 101
Property: Viscosity, Pa*s (Liquid); method: SPHERE:UFactor:4
Temperature, K	Mole fraction of butyl ethanoate	Viscosity, Pa*s	uncertainty
293.15	0	0.00116	3.7e-05
293.15	0.1135	0.0011	3.5e-05
293.15	0.2054	0.001055	3.3e-05
293.15	0.3078	0.001006	3.2e-05
293.15	0.4122	0.000959	3e-05
293.15	0.5191	0.000913	2.9e-05
293.15	0.6123	0.000875	2.8e-05
293.15	0.7008	0.00084	2.6e-05
293.15	0.8054	0.0008	2.5e-05
293.15	0.9127	0.000762	2.4e-05
293.15	1	0.000732	2.3e-05
303.15	0	0.000968	3.1e-05
303.15	0.1082	0.000923	2.9e-05
303.15	0.2006	0.000887	2.8e-05
303.15	0.3121	0.000845	2.7e-05
303.15	0.4018	0.000806	2.5e-05
303.15	0.5213	0.000779	2.5e-05
303.15	0.6015	0.000746	2.4e-05
303.15	0.7028	0.000714	2.3e-05
303.15	0.8043	0.000683	2.2e-05
303.15	0.9074	0.000653	2.1e-05
303.15	1	0.000628	2e-05
313.15	0	0.00081	2.6e-05
313.15	0.1051	0.000777	2.5e-05
313.15	0.1988	0.000748	2.4e-05
313.15	0.3047	0.000718	2.3e-05
313.15	0.4038	0.00069	2.2e-05
313.15	0.5088	0.000662	2.1e-05
313.15	0.6091	0.000637	2e-05
313.15	0.7053	0.000613	1.9e-05
313.15	0.8144	0.000587	1.9e-05
313.15	0.9058	0.000566	1.8e-05
313.15	1	0.000546	1.8e-05

System: ethanol + butyl ethanoate; phases: Liquid
Fixed: Pressure, kPa = 101
Property: Mass density, kg/m3 (Liquid); method: VIBTUB:UFactor:32
Temperature, K	Mole fraction of butyl ethanoate	Mass density, kg/m3	uncertainty
293.15	0	788.24	4.72
293.15	0.1135	799.54	4.54
293.15	0.2054	805.63	4.44
293.15	0.3078	815.47	4.28
293.15	0.4122	829.14	4.05
293.15	0.5191	836.41	3.93
293.15	0.6123	846.01	3.78
293.15	0.7008	852.17	3.68
293.15	0.8054	863.04	3.5
293.15	0.9127	872.94	3.34
293.15	1	881.04	3.21
303.15	0	780.73	4.84
303.15	0.1082	791.5	4.67
303.15	0.2006	799.54	4.53
303.15	0.3121	807.54	4.4
303.15	0.4018	817.14	4.25
303.15	0.5213	827.93	4.07
303.15	0.6015	834.68	3.96
303.15	0.7028	844.62	3.8
303.15	0.8043	853.58	3.65
303.15	0.9074	862.91	3.5
303.15	1	871.3	3.36
313.15	0	771.98	4.98
313.15	0.1051	780.51	4.84
313.15	0.1988	787.51	4.73
313.15	0.3047	799.06	4.54
313.15	0.4038	808.27	4.39
313.15	0.5088	817.7	4.24
313.15	0.6091	829.34	4.05
313.15	0.7053	835.36	3.95
313.15	0.8144	845.16	3.79
313.15	0.9058	857.73	3.58
313.15	1	861.84	3.52

System: ethanol + (E)-2-hexenyl acetate; phases: Liquid
Fixed: Pressure, kPa = 101
Property: Viscosity, Pa*s (Liquid); method: SPHERE:UFactor:4
Temperature, K	Mole fraction of (E)-2-hexenyl acetate	Viscosity, Pa*s	uncertainty
293.15	0	0.00116	3.7e-05
293.15	0.1022	0.00113	3.6e-05
293.15	0.2074	0.0011	3.5e-05
293.15	0.3158	0.001071	3.4e-05
293.15	0.4125	0.001045	3.3e-05
293.15	0.4987	0.001022	3.2e-05
293.15	0.5906	0.000999	3.2e-05
293.15	0.7123	0.000968	3.1e-05
293.15	0.8146	0.000944	3e-05
293.15	0.9057	0.000922	2.9e-05
293.15	1	0.000901	2.9e-05
303.15	0	0.000968	3.1e-05
303.15	0.1046	0.000945	3e-05
303.15	0.2158	0.000921	2.9e-05
303.15	0.3047	0.000902	2.9e-05
303.15	0.4061	0.000882	2.8e-05
303.15	0.5087	0.000861	2.7e-05
303.15	0.6006	0.000843	2.7e-05
303.15	0.7028	0.000824	2.6e-05
303.15	0.8069	0.000804	2.6e-05
303.15	0.9123	0.000785	2.5e-05
303.15	1	0.00077	2.5e-05
313.15	0	0.00081	2.6e-05
313.15	0.1014	0.000794	2.5e-05
313.15	0.2083	0.000777	2.5e-05
313.15	0.3056	0.000762	2.4e-05
313.15	0.4009	0.000748	2.4e-05
313.15	0.5017	0.000734	2.3e-05
313.15	0.6052	0.000719	2.3e-05
313.15	0.7142	0.000704	2.2e-05
313.15	0.8059	0.000691	2.2e-05
313.15	0.9041	0.000678	2.2e-05
313.15	1	0.000666	2.1e-05

System: ethanol + (E)-2-hexenyl acetate; phases: Liquid
Fixed: Pressure, kPa = 101
Property: Mass density, kg/m3 (Liquid); method: VIBTUB:UFactor:32
Temperature, K	Mole fraction of (E)-2-hexenyl acetate	Mass density, kg/m3	uncertainty
293.15	0	788.24	4.72
293.15	0.1022	797.52	4.57
293.15	0.2074	810.97	4.36
293.15	0.3158	824.3	4.14
293.15	0.4125	833.45	4
293.15	0.4987	842.9	3.85
293.15	0.5906	852.97	3.69
293.15	0.7123	867.91	3.45
293.15	0.8146	877.52	3.3
293.15	0.9057	885.16	3.17
293.15	1	897.84	2.97
303.15	0	780.73	4.84
303.15	0.1046	792.35	4.65
303.15	0.2158	804.69	4.46
303.15	0.3047	814.57	4.3
303.15	0.4061	825.83	4.12
303.15	0.5087	837.22	3.94
303.15	0.6006	847.43	3.77
303.15	0.7028	858.78	3.59
303.15	0.8069	870.34	3.41
303.15	0.9123	882.04	3.22
303.15	1	891.78	3.07
313.15	0	771.98	4.98
313.15	0.1014	780.25	4.85
313.15	0.2083	796.14	4.59
313.15	0.3056	806.32	4.43
313.15	0.4009	814.93	4.29
313.15	0.5017	829.36	4.06
313.15	0.6052	839.99	3.89
313.15	0.7142	852.23	3.7
313.15	0.8059	860.49	3.57
313.15	0.9041	872.59	3.37
313.15	1	884.35	3.19

System: ethanol + (Z)-3-hexenyl acetate; phases: Liquid
Fixed: Pressure, kPa = 101
Property: Viscosity, Pa*s (Liquid); method: SPHERE:UFactor:4
Temperature, K	Mole fraction of (Z)-3-hexenyl acetate	Viscosity, Pa*s	uncertainty
293.15	0	0.00116	3.7e-05
293.15	0.0987	0.00113	3.6e-05
293.15	0.1788	0.001106	3.5e-05
293.15	0.3041	0.001071	3.4e-05
293.15	0.4058	0.001043	3.3e-05
293.15	0.5071	0.001015	3.2e-05
293.15	0.6047	0.00099	3.1e-05
293.15	0.7063	0.000964	3.1e-05
293.15	0.8159	0.000937	3e-05
293.15	0.9178	0.000912	2.9e-05
293.15	1	0.000893	2.8e-05
303.15	0	0.000968	3.1e-05
303.15	0.1043	0.000944	3e-05
303.15	0.2381	0.000914	2.9e-05
303.15	0.3048	0.0009	2.9e-05
303.15	0.3981	0.00088	2.8e-05
303.15	0.4995	0.000859	2.7e-05
303.15	0.6074	0.000837	2.7e-05
303.15	0.7159	0.000816	2.6e-05
303.15	0.8064	0.000798	2.5e-05
303.15	0.9088	0.000779	2.5e-05
303.15	1	0.000763	2.4e-05
313.15	0	0.00081	2.6e-05
313.15	0.0988	0.000793	2.5e-05
313.15	0.2047	0.000776	2.5e-05
313.15	0.3058	0.00076	2.4e-05
313.15	0.4085	0.000745	2.4e-05
313.15	0.5096	0.000729	2.3e-05
313.15	0.6188	0.000713	2.3e-05
313.15	0.7059	0.0007	2.2e-05
313.15	0.8064	0.000686	2.2e-05
313.15	0.9056	0.000672	2.1e-05
313.15	1	0.00066	2.1e-05

System: ethanol + (Z)-3-hexenyl acetate; phases: Liquid
Fixed: Pressure, kPa = 101
Property: Mass density, kg/m3 (Liquid); method: VIBTUB:UFactor:32
Temperature, K	Mole fraction of (Z)-3-hexenyl acetate	Mass density, kg/m3	uncertainty
293.15	0	788.24	4.72
293.15	0.0987	797.26	4.58
293.15	0.1788	809.34	4.38
293.15	0.3041	824.51	4.14
293.15	0.4058	831.59	4.03
293.15	0.5071	847.52	3.77
293.15	0.6047	851.4	3.71
293.15	0.7063	867.76	3.45
293.15	0.8159	882.93	3.21
293.15	0.9178	890.45	3.09
293.15	1	900.82	2.93
303.15	0	780.73	4.84
303.15	0.1043	792.45	4.65
303.15	0.2381	807.49	4.41
303.15	0.3048	814.99	4.29
303.15	0.3981	825.48	4.12
303.15	0.4995	836.88	3.94
303.15	0.6074	849.01	3.75
303.15	0.7159	861.2	3.55
303.15	0.8064	871.38	3.39
303.15	0.9088	882.89	3.21
303.15	1	893.14	3.05
313.15	0	771.98	4.98
313.15	0.0988	780.56	4.84
313.15	0.2047	798.51	4.56
313.15	0.3058	807.2	4.42
313.15	0.4085	819.36	4.22
313.15	0.5096	832.56	4.01
313.15	0.6188	840.59	3.88
313.15	0.7059	854.39	3.66
313.15	0.8064	861.4	3.55
313.15	0.9056	875.41	3.33
313.15	1	886.19	3.16
