Measured thermophysical data. Vapor-Liquid Equilibrium of Binary and Ternary Mixtures Containing Isopropyl Ether, 2-Butanol, and Benzene at T ) 313.15 K
Source: J. Chem. Eng. Data, 2006, 10.1021/je0502896
Compound 1: diisopropyl ether, C6H14O, InChI=1S/C6H14O/c1-5(2)7-6(3)4/h5-6H,1-4H3, purity 99%
Compound 2: butan-2-ol, C4H10O, InChI=1S/C4H10O/c1-3-4(2)5/h4-5H,3H2,1-2H3, purity 99.9%
Compound 3: benzene, C6H6, InChI=1S/C6H6/c1-2-4-6-5-3-1/h1-6H, purity 99.5%

System: diisopropyl ether; phases: Liquid, Gas
Fixed: Temperature, K = 313.15
Property: Vapor or sublimation pressure, kPa (Liquid); method: CCELL:UFactor:2
Vapor or sublimation pressure, kPa	uncertainty
37.103	0.266
37.141	0.266
37.12	0.266

System: butan-2-ol; phases: Liquid, Gas
Fixed: Temperature, K = 313.15
Property: Vapor or sublimation pressure, kPa (Liquid); method: CCELL:UFactor:2
Vapor or sublimation pressure, kPa	uncertainty
6.05	0.069
6.062	0.069
6.063	0.069
6.057	0.069

System: benzene; phases: Liquid, Gas
Fixed: Temperature, K = 313.15
Property: Vapor or sublimation pressure, kPa (Liquid); method: CCELL:UFactor:2
Vapor or sublimation pressure, kPa	uncertainty
24.392	0.185
24.379	0.185
24.398	0.185

System: butan-2-ol + diisopropyl ether; phases: Liquid, Gas
Fixed: Temperature, K = 313.15
Property: Vapor or sublimation pressure, kPa (Liquid); method: CCELL:UFactor:2
Mole fraction of diisopropyl ether	Vapor or sublimation pressure, kPa	uncertainty
0	6.05	0.069
0.0558	10.314	0.12
0.0999	13.253	0.129
0.1537	16.337	0.144
0.2025	18.746	0.155
0.2508	20.807	0.166
0.3007	22.675	0.176
0.3025	22.728	0.176
0.3516	24.342	0.186
0.4	25.734	0.195
0.401	25.774	0.195
0.4504	27.052	0.203
0.4507	27.055	0.203
0.4998	28.212	0.209
0.5009	28.235	0.21
0.5495	29.27	0.216
0.5529	29.345	0.217
0.5925	30.128	0.222
0.603	30.316	0.223
0.6515	31.199	0.228
0.7006	32.045	0.242
0.7018	32.125	0.243
0.7506	32.885	0.239
0.8005	33.702	0.244
0.8519	34.547	0.25
0.9003	35.356	0.255
0.9531	36.275	0.261
1	37.103	0.266

System: benzene + butan-2-ol; phases: Liquid, Gas
Fixed: Temperature, K = 313.15
Property: Vapor or sublimation pressure, kPa (Liquid); method: CCELL:UFactor:2
Mole fraction of benzene	Vapor or sublimation pressure, kPa	uncertainty
0	6.057	0.069
0.0594	10.024	0.111
0.1087	12.574	0.12
0.1457	14.184	0.126
0.1958	16.027	0.135
0.2552	17.787	0.145
0.2978	18.826	0.151
0.3486	19.861	0.157
0.4006	20.768	0.162
0.4022	20.782	0.162
0.4476	21.446	0.166
0.4507	21.492	0.167
0.4997	22.101	0.17
0.5011	22.119	0.171
0.5486	22.63	0.174
0.5507	22.655	0.174
0.5989	23.111	0.177
0.6015	23.134	0.177
0.6513	23.545	0.179
0.7028	23.919	0.182
0.7554	24.258	0.184
0.802	24.507	0.186
0.8522	24.707	0.187
0.8994	24.855	0.188
0.9521	24.837	0.188
1	24.398	0.185

System: benzene + butan-2-ol; phases: Liquid, Gas
Fixed: Temperature, K = 313.15
Property: Vapor or sublimation pressure, kPa (Liquid); method: CCELL:UFactor:2
Mole fraction of butan-2-ol	Vapor or sublimation pressure, kPa	uncertainty
0.2991	23.894	0.182
0.6966	18.951	0.152

System: benzene + diisopropyl ether; phases: Liquid, Gas
Fixed: Temperature, K = 313.15
Property: Vapor or sublimation pressure, kPa (Liquid); method: CCELL:UFactor:2
Mole fraction of diisopropyl ether	Vapor or sublimation pressure, kPa	uncertainty
0.3005	29.503	0.218
0.702	34.207	0.248

System: benzene + butan-2-ol + diisopropyl ether; phases: Liquid, Gas
Fixed: Temperature, K = 313.15
Property: Vapor or sublimation pressure, kPa (Liquid); method: CCELL:UFactor:2
Mole fraction of diisopropyl ether	Mole fraction of butan-2-ol	Vapor or sublimation pressure, kPa	uncertainty
0	0	24.392	0.185
0	0.2991	23.894	0.182
0	0.6966	18.951	0.152
0	1	6.062	0.069
0.0001	0	24.379	0.185
0.0001	1	6.063	0.069
0.0322	0.6742	19.821	0.189
0.0348	0.2887	24.489	0.202
0.0515	0.2837	24.771	0.188
0.0595	0.6551	20.528	0.161
0.1003	0.2691	25.573	0.193
0.1024	0.6252	21.62	0.168
0.1513	0.4965	24.193	0.184
0.1517	0.2537	26.376	0.198
0.1527	0.3516	25.657	0.193
0.1566	0.5875	22.964	0.176
0.1652	0.4502	24.898	0.189
0.1667	0.3837	25.556	0.192
0.1805	0.3995	25.603	0.193
0.1815	0.418	25.427	0.192
0.1954	0.35	26.228	0.197
0.1969	0.4534	25.253	0.19
0.1994	0.2394	27.091	0.202
0.2005	0.5568	23.993	0.183
0.2103	0.3004	26.81	0.2
0.2118	0.4879	25.043	0.189
0.2254	0.2501	27.357	0.204
0.2271	0.5231	24.788	0.188
0.2407	0.1992	27.873	0.207
0.2424	0.5585	24.487	0.186
0.2499	0.2243	27.821	0.207
0.2506	0.5219	25.093	0.19
0.2556	0.1495	28.342	0.21
0.2574	0.5931	24.14	0.184
0.2703	0.6231	23.791	0.182
0.2705	0.0998	28.792	0.213
0.2857	0.0491	29.219	0.218
0.2871	0.662	23.276	0.179
0.2921	0.6734	23.107	0.178
0.2931	0.0247	29.396	0.219
0.2996	0.2094	28.517	0.211
0.3005	0	29.503	0.218
0.3025	0.6975	22.728	0.175
0.3035	0.485	26.185	0.196
0.3495	0.1945	29.189	0.216
0.3499	0.4527	27.086	0.202
0.3509	0.1489	29.48	0.218
0.3512	0.4997	26.55	0.199
0.3861	0.45	27.507	0.205
0.3862	0.164	29.791	0.22
0.3993	0.1796	29.841	0.22
0.4	0.4177	28.018	0.208
0.4209	0.1787	30.087	0.221
0.4213	0.3999	28.393	0.21
0.4498	0.1645	30.493	0.224
0.4498	0.3831	28.873	0.213
0.4554	0.3513	29.196	0.215
0.4562	0.1937	30.375	0.223
0.4915	0.2999	29.984	0.22
0.4922	0.209	30.657	0.225
0.4999	0.1495	31.123	0.228
0.5001	0.3481	29.71	0.219
0.5272	0.2489	30.73	0.225
0.5273	0.2239	30.917	0.227
0.5623	0.2388	31.176	0.228
0.568	0.1909	31.547	0.231
0.5969	0.2536	31.422	0.23
0.5972	0.1492	32.12	0.234
0.6315	0.1005	32.795	0.239
0.6317	0.2684	31.665	0.231
0.6662	0.2831	31.892	0.232
0.6673	0.0494	33.51	0.243
0.6843	0.0252	33.856	0.246
0.6853	0.2912	32.015	0.233
0.7018	0.2982	32.125	0.234
0.702	0	34.207	0.248
1	0	37.141	0.266
1	0	37.12	0.266
