Measured thermophysical data. Osmotic and Activity Coefficients of Short-Chain Alkyl Benzene Sulfonates by Vapor Pressure Osmometry
Source: J. Chem. Eng. Data, 2006, 10.1021/je050348f
Compound 1: sodium p-toluenesulfonate, C7H7NaO3S, InChI=1S/C7H8O3S.Na/c1-6-2-4-7(5-3-6)11(8,9)10;/h2-5H,1H3,(H,8,9,10);/q;+1/p-1
Compound 2: water, H2O, InChI=1S/H2O/h1H2

System: sodium p-toluenesulfonate + water; phases: Liquid
Fixed: Pressure, kPa = 101
Property: Osmotic coefficient (Liquid); method: Knauer vapor pressure osmometer
Temperature, K	Molality, mol/kg of sodium p-toluenesulfonate	Osmotic coefficient	uncertainty
313.15	0.02	0.985	0.078
313.15	0.04	0.964	0.029
313.15	0.06	0.944	0.028
313.15	0.08	0.933	0.028
313.15	0.1	0.921	0.028
313.15	0.12	0.911	0.028
313.15	0.14	0.902	0.027
313.15	0.15	0.897	0.027
313.15	0.16	0.891	0.027
313.15	0.17	0.888	0.027
313.15	0.2	0.867	0.026
313.15	0.22	0.876	0.027
313.15	0.3	0.839	0.026
313.15	0.35	0.806	0.025
313.15	0.4	0.771	0.025
313.15	0.45	0.76	0.024
313.15	0.5	0.75	0.024
313.15	0.6	0.72	0.024
313.15	0.7	0.71	0.024
313.15	0.8	0.701	0.024
318.15	0.02	0.98	0.074
318.15	0.04	0.96	0.036
318.15	0.06	0.941	0.028
318.15	0.08	0.931	0.028
318.15	0.1	0.92	0.028
318.15	0.12	0.908	0.027
318.15	0.14	0.898	0.027
318.15	0.15	0.895	0.027
318.15	0.16	0.888	0.027
318.15	0.17	0.887	0.027
318.15	0.2	0.864	0.026
318.15	0.22	0.873	0.027
318.15	0.3	0.836	0.026
318.15	0.35	0.803	0.025
318.15	0.4	0.76	0.024
318.15	0.45	0.756	0.024
318.15	0.5	0.743	0.024
318.15	0.6	0.711	0.024
318.15	0.7	0.685	0.023
318.15	0.8	0.683	0.023
323.15	0.02	0.968	0.07
323.15	0.04	0.956	0.029
323.15	0.06	0.939	0.028
323.15	0.08	0.928	0.028
323.15	0.1	0.916	0.028
323.15	0.12	0.904	0.027
323.15	0.14	0.894	0.027
323.15	0.15	0.892	0.027
323.15	0.16	0.885	0.027
323.15	0.17	0.882	0.027
323.15	0.2	0.86	0.026
323.15	0.22	0.869	0.026
323.15	0.3	0.831	0.026
323.15	0.35	0.8	0.025
323.15	0.4	0.755	0.024
323.15	0.45	0.75	0.024
323.15	0.5	0.739	0.024
323.15	0.6	0.696	0.023
323.15	0.7	0.676	0.023
323.15	0.8	0.674	0.023
