Measured thermophysical data. Density and Viscosity for Ethyl 3-Ethoxypropionate + Methacrylic Acid, + Benzyl Methacrylate, and + 2-Hydroxyethyl Methacrylate
Source: J. Chem. Eng. Data, 2005, 10.1021/je050223a
Compound 1: butan-1-ol, C4H10O, InChI=1S/C4H10O/c1-2-3-4-5/h5H,2-4H2,1H3
Compound 2: 2-methyl-2-propenoic acid, C4H6O2, InChI=1S/C4H6O2/c1-3(2)4(5)6/h1H2,2H3,(H,5,6), purity 99.5%
Compound 3: 2-hydroxyethyl 2-methyl-2-propenoate, C6H10O3, InChI=1S/C6H10O3/c1-5(2)6(8)9-4-3-7/h7H,1,3-4H2,2H3, purity 98%
Compound 4: ethyl .beta.-ethoxypropionate, C7H14O3, InChI=1S/C7H14O3/c1-3-9-6-5-7(8)10-4-2/h3-6H2,1-2H3, purity 99%
Compound 5: benzyl methacrylate, C11H12O2, InChI=1S/C11H12O2/c1-9(2)11(12)13-8-10-6-4-3-5-7-10/h3-7H,1,8H2,2H3, purity 98%

System: butan-1-ol; phases: Liquid
Fixed: Pressure, kPa = 101.325
Property: Viscosity, Pa*s (Liquid); method: Capillary tube (Ostwald; Ubbelohde) method
Temperature, K	Viscosity, Pa*s	uncertainty
298.15	0.002566	8.3e-05
303.15	0.002265	7.3e-05
308.15	0.001998	6.5e-05
313.15	0.001778	5.8e-05

System: butan-1-ol; phases: Liquid
Fixed: Pressure, kPa = 101.325
Property: Mass density, kg/m3 (Liquid); method: Pycnometric method
Temperature, K	Mass density, kg/m3	uncertainty
298.15	805.6	2.7
303.15	802.1	2.7
308.15	798	2.6
313.15	794.5	2.6

System: 2-methyl-2-propenoic acid; phases: Liquid
Fixed: Pressure, kPa = 101.325
Property: Viscosity, Pa*s (Liquid); method: CAPTUB::UFactor:2
Temperature, K	Viscosity, Pa*s	uncertainty
298.15	0.001267	2.9e-05
308.15	0.001078	2.5e-05
318.15	0.000945	2.2e-05

System: 2-methyl-2-propenoic acid; phases: Liquid
Fixed: Pressure, kPa = 101.325
Property: Mass density, kg/m3 (Liquid); method: PYCNOM::UFactor:2
Temperature, K	Mass density, kg/m3	uncertainty
298.15	1009.5	2.1
308.15	999.4	2.1
318.15	989.2	2.1

System: 2-hydroxyethyl 2-methyl-2-propenoate; phases: Liquid
Fixed: Pressure, kPa = 101.325
Property: Viscosity, Pa*s (Liquid); method: CAPTUB::UFactor:2
Temperature, K	Viscosity, Pa*s	uncertainty
298.15	0.005784	0.000141
308.15	0.004194	0.000103
318.15	0.003181	7.8e-05

System: 2-hydroxyethyl 2-methyl-2-propenoate; phases: Liquid
Fixed: Pressure, kPa = 101.325
Property: Mass density, kg/m3 (Liquid); method: PYCNOM::UFactor:2
Temperature, K	Mass density, kg/m3	uncertainty
298.15	1067.1	2.4
308.15	1057.7	2.4
318.15	1048.6	2.4

System: ethyl .beta.-ethoxypropionate; phases: Liquid
Fixed: Pressure, kPa = 101.325
Property: Viscosity, Pa*s (Liquid); method: CAPTUB:UFactor:2
Temperature, K	Viscosity, Pa*s	uncertainty
298.15	0.001176	2.8e-05
308.15	0.000996	2.3e-05
318.15	0.000859	2e-05

System: ethyl .beta.-ethoxypropionate; phases: Liquid
Fixed: Pressure, kPa = 101.325
Property: Mass density, kg/m3 (Liquid); method: PYCNOM:UFactor:2
Temperature, K	Mass density, kg/m3	uncertainty
298.15	943.2	2
308.15	933.4	2
318.15	923.3	2

System: benzyl methacrylate; phases: Liquid
Fixed: Pressure, kPa = 101.325
Property: Viscosity, Pa*s (Liquid); method: CAPTUB::UFactor:2
Temperature, K	Viscosity, Pa*s	uncertainty
298.15	0.002302	5.7e-05
308.15	0.001885	4.7e-05
318.15	0.00158	3.9e-05

System: benzyl methacrylate; phases: Liquid
Fixed: Pressure, kPa = 101.325
Property: Mass density, kg/m3 (Liquid); method: PYCNOM::UFactor:2
Temperature, K	Mass density, kg/m3	uncertainty
298.15	1034.7	2.4
308.15	1025.8	2.4
318.15	1017	2.3

System: 2-methyl-2-propenoic acid + ethyl .beta.-ethoxypropionate; phases: Liquid
Fixed: Pressure, kPa = 101.325
Property: Viscosity, Pa*s (Liquid); method: CAPTUB:UFactor:2
Temperature, K	Mole fraction of ethyl .beta.-ethoxypropionate	Viscosity, Pa*s	uncertainty
298.15	0	0.001267	2.9e-05
298.15	0.1	0.001349	3.1e-05
298.15	0.1999	0.001425	3.3e-05
298.15	0.3	0.001504	3.5e-05
298.15	0.4	0.001551	3.6e-05
298.15	0.5	0.001516	3.5e-05
298.15	0.6	0.001439	3.3e-05
298.15	0.7	0.001369	3.2e-05
298.15	0.8	0.001313	3e-05
298.15	0.8999	0.001243	2.9e-05
298.15	1	0.001176	2.8e-05
308.15	0	0.001078	2.5e-05
308.15	0.1	0.001139	2.6e-05
308.15	0.1999	0.001198	2.8e-05
308.15	0.3	0.001257	2.9e-05
308.15	0.4	0.001293	3e-05
308.15	0.5	0.001262	2.9e-05
308.15	0.6	0.001211	2.8e-05
308.15	0.7	0.001156	2.7e-05
308.15	0.8	0.001108	2.6e-05
308.15	0.8999	0.001049	2.5e-05
308.15	1	0.000996	2.3e-05
318.15	0	0.000945	2.2e-05
318.15	0.1	0.000986	2.3e-05
318.15	0.1999	0.001028	2.4e-05
318.15	0.3	0.001075	2.5e-05
318.15	0.4	0.001103	2.6e-05
318.15	0.5	0.00108	2.5e-05
318.15	0.6	0.001029	2.4e-05
318.15	0.7	0.000982	2.3e-05
318.15	0.8	0.000944	2.2e-05
318.15	0.8999	0.000899	2.1e-05
318.15	1	0.000859	2e-05

System: 2-methyl-2-propenoic acid + ethyl .beta.-ethoxypropionate; phases: Liquid
Fixed: Pressure, kPa = 101.325
Property: Mass density, kg/m3 (Liquid); method: PYCNOM:UFactor:2
Temperature, K	Mole fraction of ethyl .beta.-ethoxypropionate	Mass density, kg/m3	uncertainty
298.15	0	1009.5	2.1
298.15	0.1	1000.5	2.1
298.15	0.1999	992.4	2.1
298.15	0.3	984.9	2
298.15	0.4	978.1	2
298.15	0.5	971.5	2
298.15	0.6	965.3	2
298.15	0.7	959.5	2
298.15	0.8	954.1	2
298.15	0.8999	948.5	2
298.15	1	943.2	2
308.15	0	999.4	2.1
308.15	0.1	990.7	2.1
308.15	0.1999	982.7	2
308.15	0.3	975.1	2
308.15	0.4	968.3	2
308.15	0.5	961.7	2
308.15	0.6	955.6	2
308.15	0.7	949.8	2
308.15	0.8	944.4	2
308.15	0.8999	938.9	2
308.15	1	933.4	2
318.15	0	989.2	2.1
318.15	0.1	980.6	2
318.15	0.1999	972.8	2
318.15	0.3	965.2	2
318.15	0.4	958.4	2
318.15	0.5	951.9	2
318.15	0.6	945.7	2
318.15	0.7	939.8	2
318.15	0.8	934.4	2
318.15	0.8999	929.1	2
318.15	1	923.3	2

System: ethyl .beta.-ethoxypropionate + benzyl methacrylate; phases: Liquid
Fixed: Pressure, kPa = 101.325
Property: Viscosity, Pa*s (Liquid); method: CAPTUB:UFactor:2
Temperature, K	Mole fraction of ethyl .beta.-ethoxypropionate	Viscosity, Pa*s	uncertainty
298.15	0	0.002302	5.7e-05
298.15	0.1	0.00216	5.3e-05
298.15	0.2	0.002027	4.9e-05
298.15	0.3	0.00191	4.6e-05
298.15	0.4	0.001795	4.3e-05
298.15	0.4999	0.001681	4e-05
298.15	0.6	0.001569	3.7e-05
298.15	0.7	0.001457	3.4e-05
298.15	0.8	0.001347	3.2e-05
298.15	0.9	0.001242	2.9e-05
298.15	1	0.001176	2.8e-05
308.15	0	0.001885	4.7e-05
308.15	0.1	0.001767	4.3e-05
308.15	0.2	0.001664	4.1e-05
308.15	0.3	0.001571	3.8e-05
308.15	0.4	0.00148	3.6e-05
308.15	0.4999	0.001391	3.3e-05
308.15	0.6	0.001303	3.1e-05
308.15	0.7	0.001215	2.9e-05
308.15	0.8	0.001129	2.7e-05
308.15	0.9	0.001047	2.5e-05
308.15	1	0.000996	2.3e-05
318.15	0	0.00158	3.9e-05
318.15	0.1	0.001479	3.6e-05
318.15	0.2	0.001398	3.4e-05
318.15	0.3	0.001323	3.2e-05
318.15	0.4	0.001247	3e-05
318.15	0.4999	0.001173	2.8e-05
318.15	0.6	0.001101	2.6e-05
318.15	0.7	0.001029	2.5e-05
318.15	0.8	0.000961	2.3e-05
318.15	0.9	0.000899	2.1e-05
318.15	1	0.000859	2e-05

System: ethyl .beta.-ethoxypropionate + benzyl methacrylate; phases: Liquid
Fixed: Pressure, kPa = 101.325
Property: Mass density, kg/m3 (Liquid); method: PYCNOM:UFactor:2
Temperature, K	Mole fraction of ethyl .beta.-ethoxypropionate	Mass density, kg/m3	uncertainty
298.15	0	1034.7	2.4
298.15	0.1	1027	2.3
298.15	0.2	1019.1	2.3
298.15	0.3	1010.9	2.3
298.15	0.4	1002.3	2.2
298.15	0.4999	993.4	2.2
298.15	0.6	984.2	2.1
298.15	0.7	974.7	2.1
298.15	0.8	964.9	2.1
298.15	0.9	954.3	2
298.15	1	943.2	2
308.15	0	1025.8	2.4
308.15	0.1	1017.9	2.3
308.15	0.2	1009.9	2.3
308.15	0.3	1001.5	2.2
308.15	0.4	992.7	2.2
308.15	0.4999	983.7	2.2
308.15	0.6	974.4	2.1
308.15	0.7	964.8	2.1
308.15	0.8	954.9	2.1
308.15	0.9	944.3	2
308.15	1	933.4	2
318.15	0	1017	2.3
318.15	0.1	1008.9	2.3
318.15	0.2	1000.7	2.3
318.15	0.3	992.1	2.2
318.15	0.4	983.2	2.2
318.15	0.4999	974	2.1
318.15	0.6	964.5	2.1
318.15	0.7	954.7	2.1
318.15	0.8	944.6	2
318.15	0.9	934.1	2
318.15	1	923.3	2

System: ethyl .beta.-ethoxypropionate + 2-hydroxyethyl 2-methyl-2-propenoate; phases: Liquid
Fixed: Pressure, kPa = 101.325
Property: Viscosity, Pa*s (Liquid); method: CAPTUB:UFactor:2
Temperature, K	Mole fraction of ethyl .beta.-ethoxypropionate	Viscosity, Pa*s	uncertainty
298.15	0	0.005784	0.000141
298.15	0.1	0.004507	0.000109
298.15	0.2	0.003696	8.9e-05
298.15	0.3	0.003072	7.4e-05
298.15	0.4	0.002503	6e-05
298.15	0.5	0.002156	5.1e-05
298.15	0.6	0.001833	4.3e-05
298.15	0.6999	0.001627	3.8e-05
298.15	0.8	0.001417	3.3e-05
298.15	0.9	0.001269	3e-05
298.15	1	0.001176	2.8e-05
308.15	0	0.004194	0.000103
308.15	0.1	0.003352	8.2e-05
308.15	0.2	0.002821	6.8e-05
308.15	0.3	0.002379	5.7e-05
308.15	0.4	0.00198	4.7e-05
308.15	0.5	0.001731	4.1e-05
308.15	0.6	0.001495	3.6e-05
308.15	0.6999	0.00134	3.2e-05
308.15	0.8	0.001181	2.8e-05
308.15	0.9	0.001065	2.5e-05
308.15	1	0.000996	2.3e-05
318.15	0	0.003181	7.8e-05
318.15	0.1	0.002598	6.3e-05
318.15	0.2	0.002239	5.4e-05
318.15	0.3	0.001918	4.6e-05
318.15	0.4	0.001611	3.9e-05
318.15	0.5	0.001425	3.4e-05
318.15	0.6	0.001243	3e-05
318.15	0.6999	0.001127	2.7e-05
318.15	0.8	0.001007	2.4e-05
318.15	0.9	0.000911	2.2e-05
318.15	1	0.000859	2e-05

System: ethyl .beta.-ethoxypropionate + 2-hydroxyethyl 2-methyl-2-propenoate; phases: Liquid
Fixed: Pressure, kPa = 101.325
Property: Mass density, kg/m3 (Liquid); method: PYCNOM:UFactor:2
Temperature, K	Mole fraction of ethyl .beta.-ethoxypropionate	Mass density, kg/m3	uncertainty
298.15	0	1067.1	2.4
298.15	0.1	1053	2.4
298.15	0.2	1039.1	2.3
298.15	0.3	1025.6	2.3
298.15	0.4	1012.7	2.2
298.15	0.5	1000.2	2.2
298.15	0.6	988.1	2.1
298.15	0.6999	976.5	2.1
298.15	0.8	965.2	2.1
298.15	0.9	954.3	2
298.15	1	943.2	2
308.15	0	1057.7	2.4
308.15	0.1	1043.6	2.4
308.15	0.2	1029.6	2.3
308.15	0.3	1016.1	2.3
308.15	0.4	1003.1	2.2
308.15	0.5	990.5	2.2
308.15	0.6	978.4	2.1
308.15	0.6999	966.8	2.1
308.15	0.8	955.5	2.1
308.15	0.9	944.6	2
308.15	1	933.4	2
318.15	0	1048.6	2.4
318.15	0.1	1034.4	2.4
318.15	0.2	1020.3	2.3
318.15	0.3	1006.6	2.3
318.15	0.4	993.5	2.2
318.15	0.5	980.8	2.2
318.15	0.6	968.6	2.1
318.15	0.6999	956.9	2.1
318.15	0.8	945.6	2
318.15	0.9	934.6	2
318.15	1	923.3	2
