Measured thermophysical data. Equilibrium Phase Behavior of Water + Propan-1-ol or Propan-2-ol + Cesium Chloride at (298.15, 308.15, and 318.15) K
Source: J. Chem. Eng. Data, 2005, 10.1021/je050265z
Compound 1: propan-1-ol, C3H8O, InChI=1S/C3H8O/c1-2-3-4/h4H,2-3H2,1H3, purity 99.5%
Compound 2: propan-2-ol, C3H8O, InChI=1S/C3H8O/c1-3(2)4/h3-4H,1-2H3, purity 99.5%
Compound 3: cesium chloride, ClCs, InChI=1S/ClH.Cs/h1H;/q;+1/p-1, purity 99.5%
Compound 4: water, H2O, InChI=1S/H2O/h1H2

System: propan-1-ol + cesium chloride + water; phases: Liquid mixture 1, Crystal, Liquid mixture 2
Fixed: Pressure, kPa = 101
Property: Refractive index (Na D-line) (Liquid mixture 1); method: ABBE:UFactor:8
Temperature, K	Refractive index (Na D-line)	uncertainty
298.15	1.3827	0.0032
308.15	1.379	0.0032
318.15	1.377	0.0032

System: propan-1-ol + cesium chloride + water; phases: Liquid mixture 2, Crystal, Liquid mixture 1
Fixed: Pressure, kPa = 0.1
Property: Refractive index (Na D-line) (Liquid mixture 2); method: ABBE:UFactor:8
Temperature, K	Refractive index (Na D-line)	uncertainty
298.15	1.417	0.0032
308.15	1.4194	0.0032
318.15	1.4195	0.0032

System: propan-1-ol + cesium chloride + water; phases: Liquid mixture 2, Crystal, Liquid mixture 1
Fixed: Pressure, kPa = 101
Property: Mole fraction of propan-1-ol (Liquid mixture 2); method: K2Cr2O7 oxidation
Temperature, K	Mole fraction of propan-1-ol	uncertainty
298.15	0.0167	0.01
308.15	0.0144	0.01
318.15	0.0104	0.01

System: propan-1-ol + cesium chloride + water; phases: Liquid mixture 1, Crystal, Liquid mixture 2
Fixed: Pressure, kPa = 101
Property: Mole fraction of propan-1-ol (Liquid mixture 1); method: K2Cr2O7 oxidation
Temperature, K	Mole fraction of propan-1-ol	uncertainty
298.15	0.8679	0.0131
308.15	0.9047	0.0157
318.15	0.8981	0.015

System: propan-1-ol + cesium chloride + water; phases: Liquid mixture 1, Crystal, Liquid mixture 2
Fixed: Pressure, kPa = 101
Property: Mole fraction of cesium chloride (Liquid mixture 1); method: gravimetric
Temperature, K	Mole fraction of cesium chloride	uncertainty
298.15	0.0185	0.01
308.15	0.0184	0.01
318.15	0.0216	0.01

System: propan-1-ol + cesium chloride + water; phases: Liquid mixture 2, Crystal, Liquid mixture 1
Fixed: Pressure, kPa = 101
Property: Mole fraction of cesium chloride (Liquid mixture 2); method: gravimetric
Temperature, K	Mole fraction of cesium chloride	uncertainty
298.15	0.6409	0.0079
308.15	0.6547	0.0076
318.15	0.658	0.0075

System: propan-1-ol + cesium chloride + water; phases: Liquid mixture 1, Liquid mixture 2
Fixed: Pressure, kPa = 101.325
Property: Refractive index (Na D-line) (Liquid mixture 1); method: ABBE:UFactor:8
Temperature, K	Mole fraction of cesium chloride	Refractive index (Na D-line)	uncertainty
298.15	0.4085	1.3783	0.0035
298.15	0.4536	1.3821	0.0035
298.15	0.597	1.382	0.0033
298.15	0.6381	1.3827	0.0033
308.15	0.4339	1.366	0.0036
308.15	0.4849	1.3675	0.0033
308.15	0.5	1.3682	0.0033
308.15	0.5249	1.3756	0.0032
318.15	0.3837	1.3749	0.0034
318.15	0.4788	1.3759	0.0033
318.15	0.5025	1.3765	0.0033
318.15	0.5296	1.377	0.0032

System: propan-1-ol + cesium chloride + water; phases: Liquid mixture 2, Liquid mixture 1
Fixed: Pressure, kPa = 101
Property: Refractive index (Na D-line) (Liquid mixture 2); method: ABBE:UFactor:8
Temperature, K	Mole fraction of cesium chloride	Refractive index (Na D-line)	uncertainty
298.15	0.4085	1.3855	0.0036
298.15	0.4536	1.3865	0.0036
298.15	0.597	1.3879	0.0033
298.15	0.6381	1.417	0.0058
308.15	0.4339	1.3705	0.0035
308.15	0.4849	1.3755	0.0034
308.15	0.5	1.3812	0.0034
308.15	0.5249	1.3855	0.0033
318.15	0.3837	1.3751	0.0034
318.15	0.4788	1.3867	0.0035
318.15	0.5025	1.3921	0.0034
318.15	0.5296	1.394	0.0033

System: propan-1-ol + cesium chloride + water; phases: Liquid mixture 1, Liquid mixture 2
Fixed: Pressure, kPa = 101
Property: Mass fraction of cesium chloride (Liquid mixture 1); method: TITR:UFactor:2
Temperature, K	Mass fraction of propan-1-ol	Mass fraction of cesium chloride	uncertainty
298.15	0.0275	0.4967	0.0397
298.15	0.0606	0.3941	0.0315
298.15	0.0766	0.3482	0.0279
298.15	0.0978	0.2834	0.0227
298.15	0.1508	0.2412	0.0193
298.15	0.1691	0.2246	0.018
298.15	0.2123	0.2038	0.0163
298.15	0.237	0.1908	0.0153
298.15	0.2528	0.182	0.0146
298.15	0.2708	0.1735	0.0139
298.15	0.2948	0.1677	0.0134
298.15	0.3275	0.1559	0.0125
298.15	0.3435	0.144	0.0115
298.15	0.3823	0.1312	0.0105
298.15	0.444	0.1102	0.0088
298.15	0.5683	0.0742	0.0059
298.15	0.6324	0.0589	0.0047
298.15	0.7842	0.0328	0.0026
308.15	0.0767	0.3515	0.0281
308.15	0.142	0.261	0.0209
308.15	0.1702	0.2267	0.0181
308.15	0.1767	0.2179	0.0174
308.15	0.1917	0.2123	0.017
308.15	0.2342	0.1928	0.0154
308.15	0.3203	0.1585	0.0127
308.15	0.3317	0.1484	0.0119
308.15	0.363	0.1526	0.0122
308.15	0.398	0.1302	0.0104
308.15	0.4091	0.1341	0.0107
308.15	0.4523	0.1103	0.0088
308.15	0.5806	0.0807	0.0065
308.15	0.6535	0.0555	0.0044
318.15	0.0643	0.3496	0.028
318.15	0.0943	0.3007	0.0241
318.15	0.1531	0.2333	0.0187
318.15	0.193	0.209	0.0167
318.15	0.2381	0.1877	0.015
318.15	0.2385	0.1867	0.0149
318.15	0.2635	0.1717	0.0137
318.15	0.2808	0.1686	0.0135
318.15	0.298	0.1648	0.0132
318.15	0.3934	0.1274	0.0102
318.15	0.4611	0.1024	0.0082
318.15	0.4836	0.0954	0.0076
318.15	0.6097	0.0669	0.0054

System: propan-1-ol + cesium chloride + water; phases: Liquid mixture 2, Liquid mixture 1
Fixed: Pressure, kPa = 101
Property: Mole fraction of propan-1-ol (Liquid mixture 2); method: K2Cr2O7 oxidation
Property: Mole fraction of cesium chloride (Liquid mixture 1); method: K2Cr2O7 oxidation
Property: Mole fraction of propan-1-ol (Liquid mixture 1); method: K2Cr2O7 oxidation
Temperature, K	Mole fraction of cesium chloride	Mole fraction of propan-1-ol	uncertainty	Mole fraction of cesium chloride	uncertainty	Mole fraction of propan-1-ol	uncertainty
298.15	0.6381	0.0188	0.01	0.0189	0.0102	0.865	
298.15	0.597	0.0203	0.01	0.0215	0.0104	0.8504	
298.15	0.4536	0.0461	0.0101	0.031	0.0103	0.8202	
298.15	0.4085	0.0592	0.0101	0.0341	0.0101	0.8008	
308.15	0.5249	0.0495	0.0103	0.026	0.01	0.8406	
308.15	0.5	0.0637	0.0104	0.0275	0.01	0.8042	
308.15	0.4849	0.0753	0.0101	0.0279	0.01	0.8046	
308.15	0.4339	0.0878	0.0101	0.0305	0.01	0.7506	
318.15	0.5296	0.0278	0.01	0.0268	0.0106	0.8231	
318.15	0.5025	0.029	0.01	0.0275	0.0104	0.824	
318.15	0.4788	0.03	0.01	0.0334	0.0106	0.8042	
318.15	0.3837	0.053	0.0101	0.0363	0.01	0.7248	

System: propan-2-ol + cesium chloride + water; phases: Liquid mixture 2, Crystal, Liquid mixture 1
Fixed: Pressure, kPa = 101
Property: Refractive index (Na D-line) (Liquid mixture 2); method: ABBE:UFactor:8
Temperature, K	Refractive index (Na D-line)	uncertainty
298.15	1.4163	0.0032
308.15	1.4182	0.0032
318.15	1.419	0.0032

System: propan-2-ol + cesium chloride + water; phases: Liquid mixture 1, Crystal, Liquid mixture 2
Fixed: Pressure, kPa = 101
Property: Refractive index (Na D-line) (Liquid mixture 1); method: ABBE:UFactor:8
Temperature, K	Refractive index (Na D-line)	uncertainty
298.15	1.3766	0.0032
308.15	1.373	0.0032
318.15	1.369	0.0033

System: propan-2-ol + cesium chloride + water; phases: Liquid mixture 1, Crystal, Liquid mixture 2
Fixed: Pressure, kPa = 101
Property: Mole fraction of propan-2-ol (Liquid mixture 1); method: K2Cr2O7 oxidation
Temperature, K	Mole fraction of propan-2-ol	uncertainty
298.15	0.9009	0.0153
308.15	0.9161	0.0171
318.15	0.9128	0.0167

System: propan-2-ol + cesium chloride + water; phases: Liquid mixture 2, Crystal, Liquid mixture 1
Fixed: Pressure, kPa = 101
Property: Mole fraction of propan-2-ol (Liquid mixture 2); method: K2Cr2O7 oxidation
Temperature, K	Mole fraction of propan-2-ol	uncertainty
298.15	0.0102	0.01
308.15	0.0122	0.01
318.15	0.0111	0.01

System: propan-2-ol + cesium chloride + water; phases: Liquid mixture 2, Crystal, Liquid mixture 1
Fixed: Pressure, kPa = 101
Property: Mole fraction of cesium chloride (Liquid mixture 2); method: gravimetric
Temperature, K	Mole fraction of cesium chloride	uncertainty
298.15	0.6321	0.0082
308.15	0.6452	0.0078
318.15	0.6641	0.0074

System: propan-2-ol + cesium chloride + water; phases: Liquid mixture 1, Crystal, Liquid mixture 2
Fixed: Pressure, kPa = 101
Property: Mole fraction of cesium chloride (Liquid mixture 1); method: gravimetric
Temperature, K	Mole fraction of cesium chloride	uncertainty
298.15	0.0196	0.01
308.15	0.017	0.01
318.15	0.0176	0.01

System: propan-2-ol + cesium chloride + water; phases: Liquid mixture 2, Liquid mixture 1
Fixed: Pressure, kPa = 101
Property: Refractive index (Na D-line) (Liquid mixture 2); method: ABBE:UFactor:8
Temperature, K	Mole fraction of cesium chloride	Refractive index (Na D-line)	uncertainty
298.15	0.3932	1.3841	0.0032
298.15	0.4339	1.3869	0.0032
298.15	0.58	1.4066	0.0032
298.15	0.6307	1.4166	0.0032
308.15	0.3943	1.3815	0.0032
308.15	0.4431	1.386	0.0032
308.15	0.5054	1.3945	0.0032
308.15	0.5671	1.4028	0.0032
318.15	0.444	1.3845	0.0032
318.15	0.5044	1.395	0.0032
318.15	0.5446	1.4015	0.0032
318.15	0.6347	1.414	0.0032

System: propan-2-ol + cesium chloride + water; phases: Liquid mixture 1, Liquid mixture 2
Fixed: Pressure, kPa = 101
Property: Refractive index (Na D-line) (Liquid mixture 1); method: ABBE:UFactor:8
Temperature, K	Mole fraction of cesium chloride	Refractive index (Na D-line)	uncertainty
298.15	0.3932	1.3766	0.0032
298.15	0.4339	1.3766	0.0032
298.15	0.58	1.3764	0.0032
298.15	0.6307	1.3764	0.0032
308.15	0.3943	1.3735	0.0032
308.15	0.4431	1.373	0.0032
308.15	0.5054	1.3733	0.0033
308.15	0.5671	1.3739	0.0032
318.15	0.444	1.3697	0.0032
318.15	0.5044	1.3694	0.0033
318.15	0.5446	1.3685	0.0033
318.15	0.6347	1.369	0.0033

System: propan-2-ol + cesium chloride + water; phases: Liquid mixture 1, Liquid mixture 2
Fixed: Pressure, kPa = 101
Property: Mass fraction of cesium chloride (Liquid mixture 1); method: TITR:UFactor:2
Temperature, K	Mass fraction of propan-2-ol	Mass fraction of cesium chloride	uncertainty
298.15	0.041	0.492	0.0394
298.15	0.0898	0.3736	0.0299
298.15	0.1145	0.3501	0.028
298.15	0.1419	0.3241	0.0259
298.15	0.1804	0.2934	0.0235
298.15	0.2215	0.2705	0.0216
298.15	0.2998	0.2276	0.0182
298.15	0.3641	0.1921	0.0154
298.15	0.4403	0.161	0.0129
298.15	0.4739	0.1438	0.0115
298.15	0.5496	0.1089	0.0087
298.15	0.6355	0.0872	0.007
298.15	0.7183	0.0641	0.0051
308.15	0.0891	0.4384	0.0351
308.15	0.1364	0.3844	0.0308
308.15	0.1577	0.3419	0.0274
308.15	0.1955	0.3082	0.0247
308.15	0.242	0.2634	0.0211
308.15	0.2872	0.2334	0.0187
308.15	0.3235	0.2054	0.0164
308.15	0.3747	0.1818	0.0145
308.15	0.4379	0.1536	0.0123
308.15	0.4774	0.1345	0.0108
308.15	0.5688	0.0948	0.0076
308.15	0.6251	0.0761	0.0061
308.15	0.7081	0.0593	0.0047
318.15	0.0653	0.4754	0.038
318.15	0.07	0.431	0.0345
318.15	0.0901	0.3953	0.0316
318.15	0.1185	0.3428	0.0274
318.15	0.1727	0.3309	0.0265
318.15	0.1848	0.2933	0.0235
318.15	0.218	0.2682	0.0215
318.15	0.2812	0.2289	0.0183
318.15	0.3295	0.2022	0.0162
318.15	0.4047	0.1585	0.0127
318.15	0.465	0.13	0.0104
318.15	0.5094	0.1143	0.0091
318.15	0.5614	0.0804	0.0064
318.15	0.6227	0.0725	0.0058
318.15	0.7152	0.045	0.0036
318.15	0.7374	0.039	0.0031
318.15	0.8071	0.0223	0.0018
318.15	0.8309	0.0167	0.0013

System: propan-2-ol + cesium chloride + water; phases: Liquid mixture 2, Liquid mixture 1
Fixed: Pressure, kPa = 101.325
Property: Mole fraction of propan-2-ol (Liquid mixture 2); method: K2Cr2O7 oxidation
Property: Mole fraction of cesium chloride (Liquid mixture 1); method: K2Cr2O7 oxidation
Property: Mole fraction of propan-2-ol (Liquid mixture 1); method: K2Cr2O7 oxidation
Temperature, K	Mole fraction of cesium chloride	Mole fraction of propan-2-ol	uncertainty	Mole fraction of cesium chloride	uncertainty	Mole fraction of propan-2-ol	uncertainty
298.15	0.6307	0.0168	0.0101	0.0197	0.0102	0.898	
298.15	0.58	0.0351	0.0101	0.0251	0.0107	0.8694	
298.15	0.4339	0.0733	0.0101	0.0598	0.0107	0.7899	
298.15	0.3932	0.1004	0.0104	0.071	0.0104	0.7488	
308.15	0.5671	0.0452	0.01	0.0259	0.0105	0.8486	
308.15	0.5054	0.0592	0.0101	0.0359	0.0104	0.8168	
308.15	0.4431	0.0783	0.0102	0.0513	0.0105	0.757	
308.15	0.3943	0.1142	0.0104	0.0701	0.0107	0.7062	
318.15	0.6347	0.025	0.01	0.0292	0.01	0.8981	
318.15	0.5446	0.0429	0.01	0.0335	0.01	0.801	
318.15	0.5044	0.0506	0.0102	0.0388	0.0103	0.76	
318.15	0.444	0.0964	0.0105	0.0508	0.0108	0.7306	
