Measured thermophysical data. Effect of NaBr, KCl, KBr, and MgCl2 on Viscosities of Aqueous Glycine and L-Alanine Solutions at 298.15 K
Source: J. Chem. Eng. Data, 2005, 10.1021/je050048y
Compound 1: 2-aminoacetic acid, C2H5NO2, InChI=1S/C2H5NO2/c3-1-2(4)5/h1,3H2,(H,4,5)
Compound 2: (S)-2-aminopropanoic acid, C3H7NO2, InChI=1S/C3H7NO2/c1-2(4)3(5)6/h2H,4H2,1H3,(H,5,6)/t2-/m0/s1, purity 99.7%
Compound 3: sodium bromide, BrNa, InChI=1S/BrH.Na/h1H;/q;+1/p-1, purity 99%
Compound 4: potassium chloride, ClK, InChI=1S/ClH.K/h1H;/q;+1/p-1, purity 99.5%
Compound 5: magnesium chloride, Cl2Mg, InChI=1S/2ClH.Mg/h2*1H;/q;;+2/p-2, purity 99.5%
Compound 6: water, H2O, InChI=1S/H2O/h1H2
Compound 7: potassium bromide, BrK, InChI=1S/BrH.K/h1H;/q;+1/p-1, purity 99.5%

System: 2-aminoacetic acid + water; phases: Liquid
Fixed: Temperature, K = 298.15
Fixed: Pressure, kPa = 101
Property: Viscosity, Pa*s (Liquid); method: CAPTUB:UFactor:6
Molality, mol/kg of 2-aminoacetic acid	Viscosity, Pa*s	uncertainty
0.4991	0.000956	3.6e-05
1.9993	0.001189	4.3e-05
2.9999	0.001374	4.9e-05

System: (S)-2-aminopropanoic acid + water; phases: Liquid
Fixed: Temperature, K = 298.15
Fixed: Pressure, kPa = 101
Property: Viscosity, Pa*s (Liquid); method: CAPTUB:UFactor:6
Molality, mol/kg of (S)-2-aminopropanoic acid	Viscosity, Pa*s	uncertainty
0.1003	0.000918	3.4e-05
0.4995	0.001017	3.8e-05
0.7497	0.001079	4e-05
1.0002	0.001152	4.2e-05

System: 2-aminoacetic acid + sodium bromide + water; phases: Liquid
Fixed: Temperature, K = 298.15
Fixed: Pressure, kPa = 101
Property: Viscosity, Pa*s (Liquid); method: CAPTUB:UFactor:6
Molality, mol/kg of 2-aminoacetic acid	Molality, mol/kg of sodium bromide	Viscosity, Pa*s	uncertainty
0.4994	0.4994	0.000999	3.7e-05
0.4994	0.9988	0.001032	3.8e-05
0.4994	2.0007	0.001114	4.1e-05
0.4994	2.9997	0.001238	4.5e-05
0.4994	3.9972	0.001365	4.9e-05
0.9999	0.4974	0.001074	3.9e-05
0.9999	0.9999	0.001115	4.1e-05
0.9999	2.0009	0.001222	4.4e-05
0.9999	2.9987	0.001328	4.8e-05
0.9999	3.9984	0.001481	5.2e-05
1.9989	0.4994	0.001232	4.4e-05
1.9989	0.9999	0.001285	4.6e-05
1.9989	1.9998	0.001427	5.1e-05
1.9989	3.0001	0.001565	5.5e-05
1.9989	4.0001	0.001743	6.1e-05
2.9998	0.5003	0.001445	5.1e-05
2.9998	0.9979	0.001503	5.3e-05
2.9998	2.0001	0.00167	5.9e-05
2.9998	3.0016	0.001847	6.4e-05
2.9998	3.9992	0.002038	7e-05

System: 2-aminoacetic acid + potassium chloride + water; phases: Liquid
Fixed: Temperature, K = 298.15
Fixed: Pressure, kPa = 101
Property: Viscosity, Pa*s (Liquid); method: CAPTUB:UFactor:6
Molality, mol/kg of 2-aminoacetic acid	Molality, mol/kg of potassium chloride	Viscosity, Pa*s	uncertainty
0.4991	0	0.000956	3.6e-05
0.4991	0.5003	0.000967	3.6e-05
0.4991	1.0006	0.000972	3.6e-05
0.4991	1.9999	0.000979	3.6e-05
0.4991	3.0006	0.000997	3.7e-05
0.4991	3.9981	0.001023	3.8e-05
1.0004	0.5002	0.00104	3.8e-05
1.0004	0.9994	0.001041	3.8e-05
1.0004	1.9999	0.001055	3.9e-05
1.0004	3.0006	0.001083	4e-05
1.0004	3.9985	0.001099	4e-05
1.9993	0	0.001189	4.3e-05
1.9993	0.5002	0.001201	4.3e-05
1.9993	0.9979	0.001211	4.4e-05
1.9993	1.9993	0.00122	4.4e-05
1.9993	3.0009	0.001252	4.5e-05
1.9993	3.9995	0.00129	4.6e-05
2.9999	0	0.001374	4.9e-05
2.9999	0.1001	0.001375	4.9e-05
2.9999	0.4999	0.001396	5e-05
2.9999	1.0002	0.00139	5e-05
2.9999	2.0004	0.001415	5e-05
2.9999	3.0001	0.001467	5.2e-05

System: 2-aminoacetic acid + water + potassium bromide; phases: Liquid
Fixed: Temperature, K = 298.15
Fixed: Pressure, kPa = 101
Property: Viscosity, Pa*s (Liquid); method: CAPTUB:UFactor:6
Molality, mol/kg of 2-aminoacetic acid	Molality, mol/kg of potassium bromide	Viscosity, Pa*s	uncertainty
0.4995	0.4999	0.000952	3.5e-05
0.4995	1.0001	0.000962	3.6e-05
0.4995	1.9992	0.000947	3.5e-05
0.4995	2.9988	0.00097	3.6e-05
0.4995	4.0005	0.000976	3.6e-05
0.999	0.4999	0.001017	3.8e-05
0.999	0.9998	0.001013	3.7e-05
0.999	2.0001	0.001012	3.7e-05
0.999	2.9992	0.001023	3.8e-05
0.999	3.9993	0.001044	3.8e-05
1.9996	0.5001	0.00119	4.3e-05
1.9996	0.9996	0.001203	4.4e-05
1.9996	1.9998	0.001178	4.3e-05
1.9996	2.9997	0.001189	4.3e-05
1.9996	4.0001	0.001225	4.4e-05
2.9998	0.4995	0.001372	4.9e-05
2.9998	1.0001	0.001365	4.9e-05
2.9998	2.0001	0.001386	4.9e-05
2.9998	3.0002	0.001391	5e-05
2.9998	3.9997	0.00142	5.1e-05

System: 2-aminoacetic acid + water + magnesium chloride; phases: Liquid
Fixed: Temperature, K = 298.15
Fixed: Pressure, kPa = 101
Property: Viscosity, Pa*s (Liquid); method: CAPTUB:UFactor:6
Molality, mol/kg of 2-aminoacetic acid	Molality, mol/kg of magnesium chloride	Viscosity, Pa*s	uncertainty
0.4999	0.0987	0.000991	3.7e-05
0.4999	0.501	0.001086	4e-05
0.4999	1.0001	0.001196	4.3e-05
0.4999	1.5001	0.001333	4.8e-05
0.9998	0.0998	0.00106	3.9e-05
0.9998	0.5001	0.00118	4.3e-05
0.9998	0.9988	0.001292	4.6e-05
0.9998	1.5007	0.001418	5e-05
1.999	0.0998	0.00123	4.4e-05
1.999	0.4999	0.001334	4.8e-05
1.999	0.9987	0.001466	5.2e-05
1.999	1.4976	0.001621	5.7e-05
3.0002	0.0998	0.001424	5.1e-05
3.0002	0.4989	0.001539	5.4e-05
3.0002	0.9999	0.001696	5.9e-05
3.0002	1.4989	0.001881	6.5e-05

System: (S)-2-aminopropanoic acid + potassium chloride + water; phases: Liquid
Fixed: Temperature, K = 298.15
Fixed: Pressure, kPa = 101
Property: Viscosity, Pa*s (Liquid); method: CAPTUB:UFactor:6
Molality, mol/kg of (S)-2-aminopropanoic acid	Molality, mol/kg of potassium chloride	Viscosity, Pa*s	uncertainty
0.1003	0	0.000918	3.4e-05
0.1003	0.5003	0.000924	3.5e-05
0.1003	0.9992	0.000916	3.4e-05
0.1003	1.9984	0.000933	3.5e-05
0.1003	2.9999	0.000947	3.5e-05
0.1003	3.9999	0.000943	3.5e-05
0.4995	0	0.001017	3.8e-05
0.4995	0.5003	0.001016	3.8e-05
0.4995	0.9992	0.001012	3.7e-05
0.4995	1.9995	0.001025	3.8e-05
0.4995	2.9989	0.001044	3.8e-05
0.4995	4.0016	0.001077	3.9e-05
0.7497	0	0.001079	4e-05
0.7497	0.5002	0.001091	4e-05
0.7497	1.0005	0.001082	4e-05
0.7497	1.9995	0.001108	4e-05
0.7497	2.9995	0.001118	4.1e-05
0.7497	3.9999	0.001149	4.2e-05
1.0002	0	0.001152	4.2e-05
1.0002	0.5003	0.001154	4.2e-05
1.0002	1.0006	0.001155	4.2e-05
1.0002	2.0001	0.001164	4.2e-05
1.0002	3.0002	0.001188	4.3e-05
1.0002	3.9999	0.001217	4.4e-05

System: (S)-2-aminopropanoic acid + water + magnesium chloride; phases: Liquid
Fixed: Temperature, K = 298.15
Fixed: Pressure, kPa = 101
Property: Viscosity, Pa*s (Liquid); method: CAPTUB:UFactor:6
Molality, mol/kg of (S)-2-aminopropanoic acid	Molality, mol/kg of magnesium chloride	Viscosity, Pa*s	uncertainty
0.1003	0.0494	0.000942	3.5e-05
0.1003	0.501	0.001043	3.8e-05
0.1003	0.9999	0.001161	4.2e-05
0.1003	1.499	0.00129	4.6e-05
0.4995	0.0504	0.001035	3.8e-05
0.4995	0.4999	0.001154	4.2e-05
0.4995	1.0009	0.001287	4.6e-05
0.4995	1.4999	0.001419	5e-05
0.7498	0.0515	0.001104	4e-05
0.7498	0.4999	0.001224	4.4e-05
0.7498	0.9999	0.001361	4.9e-05
0.7498	1.5001	0.001512	5.3e-05
1.0002	0.0504	0.001171	4.2e-05
1.0002	0.5001	0.0013	4.7e-05
1.0002	0.9989	0.001453	5.2e-05
1.0002	1.4998	0.001626	5.7e-05
