Measured thermophysical data. Effect of Temperature on the Surface Tension of Soluble and Insoluble Surfactants of Hydrodynamical Importance
Source: J. Chem. Eng. Data, 2005, 10.1021/je050074w
Compound 1: sodium dodecyl sulfate, C12H25NaO4S, InChI=1S/C12H26O4S.Na/c1-2-3-4-5-6-7-8-9-10-11-12-16-17(13,14)15;/h2-12H2,1H3,(H,13,14,15);/q;+1/p-1
Compound 2: water, H2O, InChI=1S/H2O/h1H2

System: sodium dodecyl sulfate + water; phases: Liquid, Air at 1 atmosphere
Property: Surface tension liquid-gas, N/m (Liquid); method: Wilhelmy plate method
Temperature, K	Ratio of mass of solute to volume of solution, kg/m3 of sodium dodecyl sulfate	Surface tension liquid-gas, N/m	uncertainty
288.15	0.00627	0.07199	0.0018
288.15	0.0157	0.06528	0.00163
288.15	0.0273	0.06413	0.0016
288.15	0.0338	0.06924	0.00173
289.15	0.00627	0.07191	0.0018
289.15	0.0157	0.06517	0.00163
289.15	0.0273	0.06405	0.0016
289.15	0.0338	0.0691	0.00173
290.15	0.00627	0.07174	0.00179
290.15	0.0157	0.065	0.00163
290.15	0.0273	0.06388	0.0016
290.15	0.0338	0.06889	0.00172
291.15	0.00627	0.07158	0.00179
291.15	0.0157	0.06483	0.00162
291.15	0.0273	0.06372	0.00159
291.15	0.0338	0.06876	0.00172
292.15	0.00627	0.07141	0.00179
292.15	0.0157	0.06467	0.00162
292.15	0.0273	0.06356	0.00159
292.15	0.0338	0.06859	0.00172
293.15	0.00627	0.07124	0.00178
293.15	0.0157	0.06448	0.00161
293.15	0.0273	0.06337	0.00159
293.15	0.0338	0.06845	0.00171
294.15	0.00627	0.07107	0.00178
294.15	0.0157	0.06432	0.00161
294.15	0.0273	0.06319	0.00158
294.15	0.0338	0.06828	0.00171
295.15	0.00627	0.07089	0.00177
295.15	0.0157	0.06417	0.00161
295.15	0.0273	0.06302	0.00158
295.15	0.0338	0.06811	0.0017
296.15	0.00627	0.07076	0.00177
296.15	0.0157	0.06403	0.0016
296.15	0.0273	0.06288	0.00157
296.15	0.0338	0.06797	0.0017
297.15	0.00627	0.07059	0.00177
297.15	0.0157	0.06386	0.0016
297.15	0.0273	0.06274	0.00157
297.15	0.0338	0.06778	0.0017
298.15	0.00627	0.07043	0.00176
298.15	0.0157	0.06371	0.00159
298.15	0.0273	0.0626	0.00157
298.15	0.0338	0.06763	0.00169
299.15	0.00627	0.07029	0.00176
299.15	0.0157	0.06357	0.00159
299.15	0.0273	0.06249	0.00156
299.15	0.0338	0.06744	0.00169
300.15	0.00627	0.07016	0.00176
300.15	0.0157	0.06341	0.00159
300.15	0.0273	0.06236	0.00156
300.15	0.0338	0.06729	0.00168
301.15	0.00627	0.07001	0.00175
301.15	0.0157	0.06326	0.00158
301.15	0.0273	0.06225	0.00156
301.15	0.0338	0.06711	0.00168
302.15	0.00627	0.06984	0.00175
302.15	0.0157	0.06308	0.00158
302.15	0.0273	0.06211	0.00155
302.15	0.0338	0.06695	0.00167
303.15	0.00627	0.06968	0.00174
303.15	0.0157	0.06294	0.00157
303.15	0.0273	0.06201	0.00155
303.15	0.0338	0.06677	0.00167
304.15	0.00627	0.06953	0.00174
304.15	0.0157	0.06276	0.00157
304.15	0.0273	0.0619	0.00155
304.15	0.0338	0.06661	0.00167
305.15	0.00627	0.06939	0.00174
305.15	0.0157	0.06266	0.00157
305.15	0.0273	0.06183	0.00155
305.15	0.0338	0.06642	0.00166
306.15	0.00627	0.06923	0.00173
306.15	0.0157	0.06252	0.00156
306.15	0.0273	0.06172	0.00154
306.15	0.0338	0.06625	0.00166
307.15	0.00627	0.06908	0.00173
307.15	0.0157	0.06232	0.00156
307.15	0.0273	0.06162	0.00154
307.15	0.0338	0.06604	0.00165
308.15	0.00627	0.06894	0.00172
308.15	0.0157	0.06216	0.00156
308.15	0.0273	0.06154	0.00154
