Measured thermophysical data. Liquid-Liquid Equilibria for Water + Benzonitrile + Ethyl Acetate or + Butyl Acetate
Source: J. Chem. Eng. Data, 2005, 10.1021/je050051h
Compound 1: ethyl acetate, C4H8O2, InChI=1S/C4H8O2/c1-3-6-4(2)5/h3H2,1-2H3, purity 99.8%
Compound 2: water, H2O, InChI=1S/H2O/h1H2, purity 99.99%
Compound 3: butyl ethanoate, C6H12O2, InChI=1S/C6H12O2/c1-3-4-5-8-6(2)7/h3-5H2,1-2H3, purity 99.5%
Compound 4: benzonitrile, C7H5N, InChI=1S/C7H5N/c8-6-7-4-2-1-3-5-7/h1-5H, purity 99%

System: ethyl acetate + water; phases: Liquid mixture 1, Liquid mixture 2
Fixed: Pressure, kPa = 101.3
Property: Mole fraction of water (Liquid mixture 1); method: CHROM:UFactor:4
Temperature, K	Mole fraction of water	uncertainty
298.15	0.9837	0.001
303.15	0.9845	0.001
308.15	0.9851	0.001
313.15	0.9856	0.001
318.15	0.986	0.001
323.15	0.9863	0.001
328.15	0.9866	0.001
333.15	0.9867	0.001

System: ethyl acetate + water; phases: Liquid mixture 2, Liquid mixture 1
Fixed: Pressure, kPa = 101.3
Property: Mole fraction of water (Liquid mixture 2); method: CHROM:UFactor:4
Temperature, K	Mole fraction of water	uncertainty
298.15	0.1733	0.04
303.15	0.1885	0.04
308.15	0.1997	0.04
313.15	0.2111	0.04
318.15	0.2179	0.04
323.15	0.2259	0.04
328.15	0.2333	0.04
333.15	0.2414	0.04

System: butyl ethanoate + water; phases: Liquid mixture 1, Liquid mixture 2
Fixed: Pressure, kPa = 101.3
Property: Mole fraction of water (Liquid mixture 1); method: CHROM:UFactor:4
Temperature, K	Mole fraction of water	uncertainty
298.15	0.999	0.0001
303.15	0.999	0.0001
308.15	0.999	0.0001
313.15	0.9991	0.0001
318.15	0.9991	0.0001
323.15	0.9991	0.0001
328.15	0.9991	0.0001
333.15	0.9991	0.0001

System: butyl ethanoate + water; phases: Liquid mixture 2, Liquid mixture 1
Fixed: Pressure, kPa = 101.3
Property: Mole fraction of water (Liquid mixture 2); method: CHROM:UFactor:4
Temperature, K	Mole fraction of water	uncertainty
298.15	0.0644	0.002
303.15	0.068	0.0021
308.15	0.0729	0.0023
313.15	0.0784	0.0024
318.15	0.0848	0.0026
323.15	0.0927	0.0029
328.15	0.1004	0.0031
333.15	0.1073	0.0033

System: benzonitrile + ethyl acetate + water; phases: Liquid mixture 1, Liquid mixture 2
Fixed: Pressure, kPa = 101.3
Property: Mole fraction of benzonitrile (Liquid mixture 1); method: CHROM:UFactor:4
Property: Mole fraction of benzonitrile (Liquid mixture 2); method: CHROM:UFactor:4
Property: Mole fraction of ethyl acetate (Liquid mixture 2); method: CHROM:UFactor:4
Temperature, K	Mole fraction of ethyl acetate	Mole fraction of benzonitrile	uncertainty	Mole fraction of benzonitrile	uncertainty	Mole fraction of ethyl acetate	uncertainty
298.15	0.0015	0.001	0.0001	0.8738	0.0039	0.0814	
298.15	0.0028	0.0009	0.0001	0.7862	0.0066	0.1626	
298.15	0.0043	0.0008	0.0001	0.6903	0.0096	0.2492	
298.15	0.0058	0.0007	0.0001	0.6111	0.0121	0.3214	
298.15	0.0072	0.0006	0.0001	0.5414	0.0142	0.3835	
298.15	0.0085	0.0005	0.0001	0.4654	0.0144	0.4523	
298.15	0.0101	0.0004	0.0001	0.3891	0.0121	0.5228	
298.15	0.0113	0.0004	0.0001	0.3182	0.0099	0.5833	
298.15	0.0128	0.0003	0.0001	0.2345	0.0073	0.653	
298.15	0.0141	0.0002	0.0001	0.1497	0.0047	0.7151	
303.15	0.0014	0.0013	0.0001	0.8382	0.005	0.0949	
303.15	0.0028	0.0012	0.0001	0.7434	0.008	0.1808	
303.15	0.0041	0.001	0.0001	0.6575	0.0106	0.2622	
303.15	0.0055	0.0009	0.0001	0.5844	0.0129	0.3319	
303.15	0.0067	0.0007	0.0001	0.518	0.0149	0.388	
303.15	0.0081	0.0006	0.0001	0.4429	0.0137	0.4567	
303.15	0.0095	0.0005	0.0001	0.3649	0.0113	0.5243	
303.15	0.0109	0.0004	0.0001	0.2876	0.0089	0.5877	
303.15	0.0124	0.0003	0.0001	0.2112	0.0066	0.655	
303.15	0.0136	0.0002	0.0001	0.1305	0.0041	0.7169	
308.15	0.0014	0.0016	0.0001	0.8143	0.0058	0.1083	
308.15	0.0027	0.0014	0.0001	0.7218	0.0086	0.1921	
308.15	0.0037	0.0013	0.0001	0.6373	0.0112	0.2676	
308.15	0.005	0.0011	0.0001	0.5672	0.0134	0.3325	
308.15	0.0062	0.0009	0.0001	0.4927	0.0153	0.3961	
308.15	0.0075	0.0008	0.0001	0.4219	0.0131	0.4602	
308.15	0.0089	0.0006	0.0001	0.3471	0.0108	0.526	
308.15	0.0102	0.0005	0.0001	0.2696	0.0084	0.5886	
308.15	0.0118	0.0004	0.0001	0.1903	0.0059	0.6571	
308.15	0.0132	0.0002	0.0001	0.1148	0.0036	0.7207	
313.15	0.0013	0.002	0.0001	0.781	0.0068	0.1226	
313.15	0.0025	0.0018	0.0001	0.6992	0.0093	0.2005	
313.15	0.0037	0.0016	0.0001	0.6078	0.0122	0.2781	
313.15	0.0048	0.0013	0.0001	0.5399	0.0143	0.342	
313.15	0.0059	0.0012	0.0001	0.4748	0.0147	0.4002	
313.15	0.0071	0.001	0.0001	0.3982	0.0123	0.4699	
313.15	0.0085	0.0008	0.0001	0.3224	0.01	0.5314	
313.15	0.01	0.0006	0.0001	0.248	0.0077	0.6002	
313.15	0.0115	0.0004	0.0001	0.169	0.0052	0.6658	
313.15	0.0129	0.0002	0.0001	0.0921	0.0029	0.7258	
318.15	0.0012	0.0024	0.0001	0.7515	0.0077	0.1305	
318.15	0.0025	0.0022	0.0001	0.6622	0.0105	0.2124	
318.15	0.0034	0.0019	0.0001	0.583	0.0129	0.2859	
318.15	0.0046	0.0017	0.0001	0.5101	0.0152	0.3567	
318.15	0.0058	0.0014	0.0001	0.4334	0.0134	0.4244	
318.15	0.007	0.0012	0.0001	0.3646	0.0113	0.4835	
318.15	0.0084	0.0009	0.0001	0.291	0.009	0.55	
318.15	0.0097	0.0007	0.0001	0.2163	0.0067	0.6122	
318.15	0.0112	0.0005	0.0001	0.1441	0.0045	0.6698	
318.15	0.0127	0.0002	0.0001	0.069	0.0022	0.7305	

System: benzonitrile + butyl ethanoate + water; phases: Liquid mixture 1, Liquid mixture 2
Fixed: Pressure, kPa = 101
Property: Mole fraction of butyl ethanoate (Liquid mixture 1); method: CHROM:UFactor:4
Temperature, K	Mole fraction of benzonitrile	Mole fraction of butyl ethanoate	uncertainty
298.15	0.144	0.7959	0.0063
298.15	0.2413	0.7008	0.0093
298.15	0.3172	0.6261	0.0116
298.15	0.3954	0.5491	0.014
298.15	0.4742	0.4724	0.0146
298.15	0.5503	0.3986	0.0124
298.15	0.6299	0.3213	0.01
298.15	0.7012	0.2522	0.0078
298.15	0.789	0.1666	0.0052
298.15	0.8795	0.0782	0.0024
303.15	0.1222	0.811	0.0059
303.15	0.2112	0.7231	0.0086
303.15	0.2932	0.6421	0.0111
303.15	0.3721	0.5643	0.0135
303.15	0.4558	0.4817	0.0149
303.15	0.5378	0.4008	0.0124
303.15	0.6121	0.3275	0.0101
303.15	0.6839	0.2568	0.008
303.15	0.7707	0.1711	0.0053
303.15	0.8616	0.0813	0.0025
308.15	0.0984	0.8294	0.0053
308.15	0.188	0.7403	0.008
308.15	0.2774	0.6514	0.0108
308.15	0.3568	0.5725	0.0132
308.15	0.4348	0.4951	0.0153
308.15	0.5145	0.4159	0.0129
308.15	0.5919	0.3391	0.0105
308.15	0.6682	0.2633	0.0082
308.15	0.7491	0.1829	0.0057
308.15	0.8344	0.0981	0.0031
313.15	0.0882	0.8325	0.0052
313.15	0.1717	0.7479	0.0078
313.15	0.2533	0.6655	0.0104
313.15	0.3321	0.5857	0.0128
313.15	0.4159	0.5008	0.0155
313.15	0.4877	0.4282	0.0133
313.15	0.5647	0.3503	0.0109
313.15	0.6446	0.2693	0.0084
313.15	0.7215	0.1917	0.006
313.15	0.8092	0.1033	0.0032
318.15	0.0693	0.843	0.0049
318.15	0.1591	0.7502	0.0077
318.15	0.2347	0.6717	0.0102
318.15	0.3174	0.5861	0.0128
318.15	0.3882	0.5123	0.0151
318.15	0.4673	0.4303	0.0133
318.15	0.5478	0.3469	0.0108
318.15	0.618	0.2738	0.0085
318.15	0.6965	0.1925	0.006
318.15	0.7697	0.1162	0.0036

System: benzonitrile + butyl ethanoate + water; phases: Liquid mixture 2, Liquid mixture 1
Fixed: Pressure, kPa = 101
Property: Mole fraction of butyl ethanoate (Liquid mixture 2); method: CHROM:UFactor:4
Temperature, K	Mole fraction of benzonitrile	Mole fraction of butyl ethanoate	uncertainty
298.15	0.0001	0.0009	0.0002
298.15	0.0002	0.0008	0.0002
298.15	0.0003	0.0007	0.0002
298.15	0.0004	0.0006	0.0002
298.15	0.0005	0.0005	0.0001
298.15	0.0006	0.0004	0.0001
298.15	0.0007	0.0004	0.0001
298.15	0.0008	0.0003	0.0001
298.15	0.0009	0.0002	0.0002
298.15	0.001	0.0001	0.0001
303.15	0.0002	0.0009	0.0001
303.15	0.0003	0.0008	0.0001
303.15	0.0004	0.0007	0.0001
303.15	0.0005	0.0006	0.0001
303.15	0.0007	0.0005	0.0001
303.15	0.0008	0.0004	0.0001
303.15	0.0009	0.0003	0.0001
303.15	0.001	0.0003	0.0001
303.15	0.0012	0.0002	0.0001
303.15	0.0013	0.0001	0.0001
308.15	0.0002	0.0009	0.0002
308.15	0.0004	0.0007	0.0001
308.15	0.0005	0.0006	0.0001
308.15	0.0007	0.0006	0.0001
308.15	0.0008	0.0005	0.0001
308.15	0.001	0.0004	0.0001
308.15	0.0011	0.0003	0.0001
308.15	0.0013	0.0002	0.0001
308.15	0.0015	0.0002	0.0001
308.15	0.0017	0.0001	0.0001
313.15	0.0003	0.0008	0.0001
313.15	0.0005	0.0007	0.0001
313.15	0.0007	0.0006	0.0001
313.15	0.0009	0.0005	0.0001
313.15	0.001	0.0005	0.0001
313.15	0.0012	0.0004	0.0001
313.15	0.0014	0.0003	0.0001
313.15	0.0017	0.0002	0.0001
313.15	0.0019	0.0002	0.0001
313.15	0.0021	0.0001	0.0001
318.15	0.0004	0.0008	0.0001
318.15	0.0006	0.0007	0.0001
318.15	0.0008	0.0006	0.0001
318.15	0.001	0.0005	0.0001
318.15	0.0012	0.0004	0.0001
318.15	0.0015	0.0004	0.0001
318.15	0.0017	0.0003	0.0001
318.15	0.002	0.0002	0.0001
318.15	0.0023	0.0001	0.0001
318.15	0.0025	0.0001	0.0001
