Measured thermophysical data. Liquid-Liquid Equilibria of the System 1-(2-Hydroxyethyl)-3-methylimidozolium Tetrafluoroborate or 1-(2-Hydroxyethyl)-2,3-dimethylimidozolium Tetrafluoroborate + Water + 1-Butanol at 293.15 K
Source: J. Chem. Eng. Data, 2006, 10.1021/je050455+
Compound 1: butan-1-ol, C4H10O, InChI=1S/C4H10O/c1-2-3-4-5/h5H,2-4H2,1H3
Compound 2: water, H2O, InChI=1S/H2O/h1H2, purity 99%
Compound 3: 1-(2-hydroxyethyl)-3-methylimidazolium tetrafluoroborate, C6H11BF4N2O, InChI=1S/C6H11N2O.BF4/c1-7-2-3-8(6-7)4-5-9;2-1(3,4)5/h2-3,6,9H,4-5H2,1H3;/q+1;-1
Compound 4: 1-(2-hydroxyethyl)-2,3-dimethylimidazolium tetrafluoroborate, C7H13BF4N2O, InChI=1S/C7H13N2O.BF4/c1-7-8(2)3-4-9(7)5-6-10;2-1(3,4)5/h3-4,10H,5-6H2,1-2H3;/q+1;-1

System: 1-(2-hydroxyethyl)-3-methylimidazolium tetrafluoroborate; phases: Liquid
Property: Mass density, kg/m3 (Liquid); method: Vibrating tube method
Temperature, K	Pressure, kPa	Mass density, kg/m3	uncertainty
293.15	101.325	1330	20

System: 1-(2-hydroxyethyl)-2,3-dimethylimidazolium tetrafluoroborate; phases: Liquid
Property: Mass density, kg/m3 (Liquid); method: Vibrating tube method
Temperature, K	Pressure, kPa	Mass density, kg/m3	uncertainty
293.15	101.325	1360	20

System: butan-1-ol + water + 1-(2-hydroxyethyl)-2,3-dimethylimidazolium tetrafluoroborate; phases: Liquid mixture 2, Liquid mixture 1
Fixed: Temperature, K = 293.15
Fixed: Pressure, kPa = 101
Property: Mole fraction of 1-(2-hydroxyethyl)-2,3-dimethylimidazolium tetrafluoroborate (Liquid mixture 2); method: OTHER
Property: Mole fraction of 1-(2-hydroxyethyl)-2,3-dimethylimidazolium tetrafluoroborate (Liquid mixture 1); method: OTHER
Property: Mole fraction of water (Liquid mixture 1); method: OTHER
Mole fraction of water	Mole fraction of 1-(2-hydroxyethyl)-2,3-dimethylimidazolium tetrafluoroborate	uncertainty	Mole fraction of 1-(2-hydroxyethyl)-2,3-dimethylimidazolium tetrafluoroborate	uncertainty	Mole fraction of water	uncertainty
0.0744	0.8251	0.02	0.0123	0.0016	0.0195	
0.8313	0.0744	0.02	0.0056	0.0016	0.1894	
0.1778	0.6505	0.0348	0.0145	0.0016	0.0508	
0.2522	0.5755	0.0262	0.0153	0.0016	0.0622	
0.3534	0.5008	0.0254	0.0171	0.0016	0.0883	
0.4791	0.399	0.026	0.0183	0.0016	0.1212	
0.5492	0.3379	0.0264	0.0184	0.0016	0.1423	
0.5957	0.2985	0.0279	0.0159	0.0017	0.1519	
0.6946	0.1982	0.0283	0.0132	0.0016	0.1684	
0.7651	0.1285	0.027	0.0106	0.0016	0.1714	

System: butan-1-ol + water + 1-(2-hydroxyethyl)-3-methylimidazolium tetrafluoroborate; phases: Liquid mixture 2, Liquid mixture 1
Fixed: Temperature, K = 293.15
Fixed: Pressure, kPa = 101
Property: Mole fraction of 1-(2-hydroxyethyl)-3-methylimidazolium tetrafluoroborate (Liquid mixture 2); method: UV Spectra
Property: Mole fraction of 1-(2-hydroxyethyl)-3-methylimidazolium tetrafluoroborate (Liquid mixture 1); method: UV Spectra
Property: Mole fraction of water (Liquid mixture 1); method: UV Spectra
Mole fraction of water	Mole fraction of 1-(2-hydroxyethyl)-3-methylimidazolium tetrafluoroborate	uncertainty	Mole fraction of 1-(2-hydroxyethyl)-3-methylimidazolium tetrafluoroborate	uncertainty	Mole fraction of water	uncertainty
0.0835	0.8921	0.02	0.0183	0.0016	0.0141	
0.183	0.7489	0.0318	0.0621	0.0028	0.0623	
0.2785	0.6517	0.0286	0.0607	0.0025	0.0949	
0.3577	0.57	0.0282	0.0552	0.0023	0.1043	
0.444	0.4874	0.027	0.0534	0.0024	0.1318	
0.5433	0.4015	0.0271	0.0466	0.0052	0.1406	
0.6537	0.2957	0.0279	0.0348	0.0052	0.1535	
0.7689	0.1818	0.0275	0.0272	0.0061	0.1646	
0.8589	0.1027	0.02	0.0121	0.0016	0.1791	
