Measured thermophysical data. Static Relative Permittivities of Water + Propane-1,2-diol and Water + Propane-1,3-diol under Pressures up to 300 MPa at 298.15 K
Source: J. Chem. Eng. Data, 2005, 10.1021/je050237g
Compound 1: 1,2-propanediol, C3H8O2, InChI=1S/C3H8O2/c1-3(5)2-4/h3-5H,2H2,1H3
Compound 2: propan-1,3-diol, C3H8O2, InChI=1S/C3H8O2/c4-2-1-3-5/h4-5H,1-3H2
Compound 3: water, H2O, InChI=1S/H2O/h1H2

System: 1,2-propanediol + water; phases: Liquid
Fixed: Temperature, K = 298.15
Property: Relative permittivity at zero frequency (Liquid); method: transformer ratio-arm bridge with a 3-terminal dielectric cell
Pressure, kPa	Mole fraction of 1,2-propanediol	Relative permittivity at zero frequency	uncertainty
100	0.2	56.45	0.11
100	0.4	44.23	0.09
100	0.6	37.09	0.07
100	0.8	32.25	0.06
50000	0.2	57.87	0.12
50000	0.4	45.53	0.09
50000	0.6	38.28	0.08
50000	0.8	33.34	0.07
100000	0.2	59.19	0.12
100000	0.4	46.73	0.09
100000	0.6	39.34	0.08
100000	0.8	34.3	0.07
150000	0.2	60.41	0.12
150000	0.4	47.8	0.1
150000	0.6	40.29	0.08
150000	0.8	35.15	0.07
200000	0.2	61.53	0.12
200000	0.4	48.8	0.1
200000	0.6	41.19	0.08
200000	0.8	35.95	0.07
250000	0.2	62.6	0.13
250000	0.4	49.75	0.1
250000	0.6	42.02	0.08
250000	0.8	36.71	0.07
300000	0.2	63.61	0.13
300000	0.4	50.64	0.1
300000	0.6	42.81	0.09
300000	0.8	37.42	0.08

System: propan-1,3-diol + water; phases: Liquid
Fixed: Temperature, K = 298.15
Property: Relative permittivity at zero frequency (Liquid); method: transformer ratio-arm bridge with a 3-terminal dielectric cell
Pressure, kPa	Mole fraction of propan-1,3-diol	Relative permittivity at zero frequency	uncertainty
100	0.2	59.05	0.12
100	0.4	49.1	0.1
100	0.6	42.85	0.09
100	0.8	38.54	0.08
50000	0.2	60.3	0.12
50000	0.4	50.18	0.1
50000	0.6	43.8	0.09
50000	0.8	39.39	0.08
100000	0.2	61.43	0.12
100000	0.4	51.17	0.1
100000	0.6	44.67	0.09
100000	0.8	40.15	0.08
150000	0.2	62.49	0.13
150000	0.4	52.07	0.1
150000	0.6	45.45	0.09
150000	0.8	40.83	0.08
200000	0.2	63.47	0.13
200000	0.4	52.89	0.11
200000	0.6	46.19	0.09
200000	0.8	41.47	0.08
250000	0.2	64.4	0.13
250000	0.4	53.68	0.11
250000	0.6	46.88	0.09
250000	0.8	42.06	0.08
300000	0.2	65.3	0.13
300000	0.4	54.42	0.11
300000	0.6	47.53	0.1
300000	0.8	42.63	0.09
