Measured thermophysical data. Excess Molar Enthalpies, Molar Heat Capacities, Densities, Viscosities, and Refractive Indices of Dimethyl Sulfoxide + Esters of Carbonic Acid at 308.15 K and Atmospheric Pressure
Source: J. Chem. Eng. Data, 2006, 10.1021/je050444g
Compound 1: dimethyl carbonate, C3H6O3, InChI=1S/C3H6O3/c1-5-3(4)6-2/h1-2H3, purity 99%
Compound 2: diethyl carbonate, C5H10O3, InChI=1S/C5H10O3/c1-3-7-5(6)8-4-2/h3-4H2,1-2H3, purity 99.6%
Compound 3: 4-methyl-1,3-dioxolan-2-one, C4H6O3, InChI=1S/C4H6O3/c1-3-2-6-4(5)7-3/h3H,2H2,1H3, purity 99.7%
Compound 4: dimethyl sulfoxide, C2H6OS, InChI=1S/C2H6OS/c1-4(2)3/h1-2H3, purity 99.5%

System: dimethyl carbonate; phases: Liquid
Fixed: Pressure, kPa = 101.325
Property: Molar heat capacity at constant pressure, J/K/mol (Liquid); method: LDSC:UFactor:2
Temperature, K	Molar heat capacity at constant pressure, J/K/mol	uncertainty
288.15	153.2	4.7
293.15	156.1	4.8
298.15	157.9	4.9
303.15	159.8	5
308.15	161.7	5
313.15	162.9	5
318.15	163	5.1
323.15	163.6	5.1
328.15	163.8	5.1
333.15	164.8	5.1

System: dimethyl carbonate; phases: Liquid
Property: Viscosity, Pa*s (Liquid); method: Capillary tube (Ostwald; Ubbelohde) method
Temperature, K	Pressure, kPa	Viscosity, Pa*s	uncertainty
308.15	101.325	0.000521	7e-06

System: dimethyl carbonate; phases: Liquid
Fixed: Pressure, kPa = 101.325
Property: Refractive index (Na D-line) (Liquid); method: Standard Abbe refractometry
Temperature, K	Refractive index (Na D-line)	uncertainty
298.15	1.3666	0.0004
308.15	1.3623	0.0004

System: dimethyl carbonate; phases: Liquid
Fixed: Pressure, kPa = 101.325
Property: Mass density, kg/m3 (Liquid); method: VIBTUB:UFactor:4
Temperature, K	Mass density, kg/m3	uncertainty
298.15	1063.31	0.58
308.15	1050.04	0.57

System: diethyl carbonate; phases: Liquid
Fixed: Pressure, kPa = 101.325
Property: Molar heat capacity at constant pressure, J/K/mol (Liquid); method: LDSC:UFactor:2
Temperature, K	Molar heat capacity at constant pressure, J/K/mol	uncertainty
293.15	219.9	6.8
298.15	221.2	6.9
303.15	222.3	6.9
308.15	223.4	6.9
313.15	225.3	7
318.15	226.6	7
323.15	228.4	7.1
328.15	230.8	7.2
333.15	232	7.2
338.15	234.6	7.3
343.15	237.6	7.4
348.15	240.3	7.4
353.15	242.5	7.5
358.15	245.5	7.6
363.15	248.9	7.7
368.15	251.3	7.8
373.15	254.4	7.9

System: diethyl carbonate; phases: Liquid
Fixed: Pressure, kPa = 101.325
Property: Viscosity, Pa*s (Liquid); method: Capillary tube (Ostwald; Ubbelohde) method
Temperature, K	Viscosity, Pa*s	uncertainty
298.15	0.000747	8.8e-06
308.15	0.000661	7.8e-06

System: diethyl carbonate; phases: Liquid
Fixed: Pressure, kPa = 101.325
Property: Refractive index (Na D-line) (Liquid); method: Standard Abbe refractometry
Temperature, K	Refractive index (Na D-line)	uncertainty
298.15	1.3829	0.0004
308.15	1.378	0.0004

System: diethyl carbonate; phases: Liquid
Fixed: Pressure, kPa = 101.325
Property: Mass density, kg/m3 (Liquid); method: VIBTUB:UFactor:2
Temperature, K	Mass density, kg/m3	uncertainty
298.15	969	0.21
308.15	957.76	0.22

System: 4-methyl-1,3-dioxolan-2-one; phases: Liquid
Fixed: Pressure, kPa = 101.325
Property: Molar heat capacity at constant pressure, J/K/mol (Liquid); method: LDSC:UFactor:2
Temperature, K	Molar heat capacity at constant pressure, J/K/mol	uncertainty
293.15	174.1	5.4
298.15	174.9	5.4
303.15	175.7	5.4
308.15	176.7	5.5
313.15	177.8	5.5
318.15	179	5.5
323.15	180	5.6
328.15	181.6	5.6
333.15	182.3	5.6
338.15	183.3	5.7
343.15	184.5	5.7
348.15	185.1	5.7
353.15	186.2	5.8
358.15	187.4	5.8
363.15	189.5	5.9
368.15	190.8	5.9
373.15	192.7	6
378.15	193	6
383.15	194.3	6
388.15	195.6	6.1
393.15	197.3	6.1
398.15	198.2	6.1
403.15	199.9	6.2
408.15	201	6.2
413.15	202.3	6.3
418.15	203.6	6.3
423.15	205.1	6.4

System: 4-methyl-1,3-dioxolan-2-one; phases: Liquid
Fixed: Pressure, kPa = 101.325
Property: Viscosity, Pa*s (Liquid); method: Capillary tube (Ostwald; Ubbelohde) method
Temperature, K	Viscosity, Pa*s	uncertainty
298.15	0.002529	2.87e-05
308.15	0.002073	2.36e-05

System: 4-methyl-1,3-dioxolan-2-one; phases: Liquid
Fixed: Pressure, kPa = 101.325
Property: Refractive index (Na D-line) (Liquid); method: Standard Abbe refractometry
Temperature, K	Refractive index (Na D-line)	uncertainty
298.15	1.4199	0.0004
308.15	1.4166	0.0004

System: 4-methyl-1,3-dioxolan-2-one; phases: Liquid
Fixed: Pressure, kPa = 101.325
Property: Mass density, kg/m3 (Liquid); method: VIBTUB:UFactor:2
Temperature, K	Mass density, kg/m3	uncertainty
298.15	1199.56	0.29
308.15	1188.95	0.28

System: dimethyl sulfoxide; phases: Liquid
Fixed: Pressure, kPa = 101.325
Property: Molar heat capacity at constant pressure, J/K/mol (Liquid); method: LDSC:UFactor:2
Temperature, K	Molar heat capacity at constant pressure, J/K/mol	uncertainty
293.15	145	4.5
298.15	145.4	4.5
303.15	146.7	4.5
308.15	148.5	4.6
313.15	149.4	4.6
318.15	150.3	4.7
323.15	151.5	4.7
328.15	152.6	4.7
333.15	154.1	4.8
338.15	155.3	4.8
343.15	156.8	4.9
348.15	158.2	4.9
353.15	159.6	4.9
358.15	160.6	5
363.15	160.9	5
368.15	161.3	5
373.15	161.7	5
378.15	161.8	5
383.15	162.7	5
388.15	163.8	5.1
393.15	164.2	5.1
398.15	165.3	5.1
403.15	166.6	5.2
408.15	167.4	5.2
413.15	168.1	5.2
418.15	169	5.2
423.15	172.2	5.3

System: dimethyl sulfoxide; phases: Liquid
Fixed: Pressure, kPa = 101.325
Property: Viscosity, Pa*s (Liquid); method: Capillary tube (Ostwald; Ubbelohde) method
Temperature, K	Viscosity, Pa*s	uncertainty
298.15	0.001989	2.3e-05
308.15	0.0016457	1.91e-05

System: dimethyl sulfoxide; phases: Liquid
Fixed: Pressure, kPa = 101.325
Property: Refractive index (Na D-line) (Liquid); method: Standard Abbe refractometry
Temperature, K	Refractive index (Na D-line)	uncertainty
298.15	1.4775	0.0004
308.15	1.4729	0.0004

System: dimethyl sulfoxide; phases: Liquid
Fixed: Pressure, kPa = 101.325
Property: Mass density, kg/m3 (Liquid); method: VIBTUB:UFactor:2
Temperature, K	Mass density, kg/m3	uncertainty
298.15	1095.32	0.31
308.15	1085.33	0.3

System: dimethyl sulfoxide + dimethyl carbonate; phases: Liquid
Fixed: Pressure, kPa = 101
Fixed: Temperature, K = 308.15
Property: Molar heat capacity at constant pressure, J/K/mol (Liquid); method: Large sample (1 g) DSC
Mole fraction of dimethyl sulfoxide	Molar heat capacity at constant pressure, J/K/mol	uncertainty
0.0596	160.1	2.5
0.1027	158.7	2.5
0.1913	156.3	2.4
0.2791	153.8	2.4
0.371	151	2.3
0.4598	148.4	2.3
0.5007	147.3	2.3
0.5479	146.1	2.3
0.626	144.3	2.2
0.7427	143	2.2
0.8572	143.2	2.2
0.9283	145.7	2.3

System: dimethyl sulfoxide + dimethyl carbonate; phases: Liquid
Fixed: Temperature, K = 308.15
Fixed: Pressure, kPa = 101
Property: Excess molar enthalpy (molar enthalpy of mixing), kJ/mol (Liquid); method: Flow calorimetry
Mole fraction of dimethyl sulfoxide	Excess molar enthalpy (molar enthalpy of mixing), kJ/mol	uncertainty
0.0473	0.187	0.004
0.0904	0.316	0.007
0.1297	0.414	0.009
0.1657	0.465	0.01
0.2296	0.54	0.012
0.2844	0.568	0.012
0.3735	0.617	0.013
0.4427	0.613	0.013
0.5438	0.605	0.013
0.6414	0.576	0.012
0.7045	0.532	0.012
0.7815	0.467	0.01
0.8267	0.406	0.009
0.8774	0.322	0.007
0.9051	0.264	0.006
0.9347	0.19	0.004
0.9662	0.103	0.003

System: dimethyl sulfoxide + dimethyl carbonate; phases: Liquid
Fixed: Temperature, K = 308.15
Fixed: Pressure, kPa = 101
Property: Viscosity, Pa*s (Liquid); method: Capillary tube (Ostwald; Ubbelohde) method
Mole fraction of dimethyl sulfoxide	Viscosity, Pa*s	uncertainty
0.0596	0.000547	7e-06
0.1027	0.00057	7e-06
0.1913	0.000621	8e-06
0.2791	0.000677	8e-06
0.371	0.000743	9e-06
0.4598	0.000814	1e-05
0.5007	0.000853	1e-05
0.5479	0.000897	1.1e-05
0.626	0.000983	1.2e-05
0.7427	0.001137	1.4e-05
0.8572	0.001327	1.6e-05
0.9283	0.00147	1.7e-05

System: dimethyl sulfoxide + dimethyl carbonate; phases: Liquid
Fixed: Pressure, kPa = 101
Fixed: Temperature, K = 308.15
Property: Refractive index (Na D-line) (Liquid); method: Standard Abbe refractometry
Mole fraction of dimethyl sulfoxide	Refractive index (Na D-line)	uncertainty
0.0596	1.3682	0.0004
0.1027	1.3725	0.0004
0.1913	1.3814	0.0004
0.2791	1.3903	0.0004
0.371	1.4	0.0004
0.4598	1.4092	0.0004
0.5007	1.4136	0.0004
0.5479	1.4188	0.0004
0.626	1.4276	0.0004
0.7427	1.4411	0.0004
0.8572	1.455	0.0004
0.9283	1.4638	0.0004

System: dimethyl sulfoxide + dimethyl carbonate; phases: Liquid
Fixed: Pressure, kPa = 101
Fixed: Temperature, K = 308.15
Property: Mass density, kg/m3 (Liquid); method: Vibrating tube method
Mole fraction of dimethyl sulfoxide	Mass density, kg/m3	uncertainty
0.0596	1052.49	0.52
0.1027	1054.22	0.51
0.1913	1057.63	0.49
0.2791	1060.79	0.46
0.371	1063.97	0.44
0.4598	1066.91	0.42
0.5007	1068.24	0.41
0.5479	1069.77	0.4
0.626	1072.32	0.38
0.7427	1076.12	0.35
0.8572	1080.04	0.32
0.9283	1082.59	0.3

System: dimethyl sulfoxide + diethyl carbonate; phases: Liquid
Fixed: Pressure, kPa = 101
Fixed: Temperature, K = 308.15
Property: Molar heat capacity at constant pressure, J/K/mol (Liquid); method: Large sample (1 g) DSC
Mole fraction of dimethyl sulfoxide	Molar heat capacity at constant pressure, J/K/mol	uncertainty
0.0902	216.4	3.4
0.1358	213.1	3.3
0.2655	203.6	3.2
0.3678	196.6	3
0.468	189.9	2.9
0.5579	183.8	2.8
0.6013	180.8	2.8
0.6456	177.6	2.8
0.7167	172.2	2.7
0.7783	167.2	2.6
0.8439	161.6	2.5
0.9239	154.7	2.4

System: dimethyl sulfoxide + diethyl carbonate; phases: Liquid
Fixed: Temperature, K = 308.15
Fixed: Pressure, kPa = 101
Property: Excess molar enthalpy (molar enthalpy of mixing), kJ/mol (Liquid); method: Flow calorimetry
Mole fraction of dimethyl sulfoxide	Excess molar enthalpy (molar enthalpy of mixing), kJ/mol	uncertainty
0.0666	0.377	0.008
0.1249	0.612	0.013
0.1764	0.767	0.017
0.2221	0.871	0.019
0.2999	0.982	0.021
0.3635	1.033	0.022
0.4614	1.056	0.023
0.533	1.042	0.022
0.6315	0.969	0.021
0.7199	0.86	0.018
0.7741	0.748	0.016
0.8371	0.622	0.013
0.8727	0.523	0.011
0.9115	0.393	0.009
0.932	0.316	0.007
0.9536	0.229	0.005
0.9763	0.121	0.003

System: dimethyl sulfoxide + diethyl carbonate; phases: Liquid
Fixed: Temperature, K = 308.15
Fixed: Pressure, kPa = 101
Property: Viscosity, Pa*s (Liquid); method: Capillary tube (Ostwald; Ubbelohde) method
Mole fraction of dimethyl sulfoxide	Viscosity, Pa*s	uncertainty
0.0902	0.0007	8e-06
0.1358	0.000719	9e-06
0.2655	0.000789	9e-06
0.3678	0.000836	1e-05
0.468	0.000928	1.1e-05
0.5579	0.001006	1.2e-05
0.6013	0.001047	1.2e-05
0.6456	0.001093	1.3e-05
0.7167	0.001172	1.4e-05
0.7783	0.001249	1.5e-05
0.8439	0.001344	1.6e-05
0.9239	0.001487	1.7e-05

System: dimethyl sulfoxide + diethyl carbonate; phases: Liquid
Fixed: Pressure, kPa = 101
Fixed: Temperature, K = 308.15
Property: Refractive index (Na D-line) (Liquid); method: Standard Abbe refractometry
Mole fraction of dimethyl sulfoxide	Refractive index (Na D-line)	uncertainty
0.0902	1.3836	0.0004
0.1358	1.3861	0.0004
0.2655	1.3947	0.0004
0.3678	1.4021	0.0004
0.468	1.4101	0.0004
0.5579	1.4183	0.0004
0.6013	1.4224	0.0004
0.6456	1.4265	0.0004
0.7167	1.4345	0.0004
0.7783	1.4417	0.0004
0.8439	1.4501	0.0004
0.9239	1.4612	0.0004

System: dimethyl sulfoxide + diethyl carbonate; phases: Liquid
Fixed: Pressure, kPa = 101
Fixed: Temperature, K = 308.15
Property: Mass density, kg/m3 (Liquid); method: Vibrating tube method
Mole fraction of dimethyl sulfoxide	Mass density, kg/m3	uncertainty
0.0902	965.09	0.21
0.1358	968.96	0.21
0.2655	980.76	0.22
0.3678	990.98	0.23
0.468	1001.94	0.24
0.5579	1012.71	0.24
0.6013	1018.26	0.25
0.6456	1024.23	0.25
0.7167	1034.42	0.26
0.7783	1043.98	0.26
0.8439	1054.94	0.27
0.9239	1069.69	0.27

System: dimethyl sulfoxide + 4-methyl-1,3-dioxolan-2-one; phases: Liquid
Fixed: Pressure, kPa = 101
Fixed: Temperature, K = 308.15
Property: Molar heat capacity at constant pressure, J/K/mol (Liquid); method: Large sample (1 g) DSC
Mole fraction of dimethyl sulfoxide	Molar heat capacity at constant pressure, J/K/mol	uncertainty
0.0506	174.2	2.7
0.1139	171.8	2.7
0.2014	169	2.6
0.2976	166	2.6
0.382	163.3	2.5
0.4759	160.7	2.5
0.5376	159.4	2.5
0.6343	158.3	2.5
0.7176	158.1	2.4
0.7898	158	2.4
0.8643	157.1	2.4
0.9376	154.2	2.4

System: dimethyl sulfoxide + 4-methyl-1,3-dioxolan-2-one; phases: Liquid
Fixed: Temperature, K = 308.15
Fixed: Pressure, kPa = 101
Property: Excess molar enthalpy (molar enthalpy of mixing), kJ/mol (Liquid); method: Flow calorimetry
Mole fraction of dimethyl sulfoxide	Excess molar enthalpy (molar enthalpy of mixing), kJ/mol	uncertainty
0.0571	0.078	0.002
0.108	0.139	0.003
0.1538	0.191	0.004
0.195	0.228	0.005
0.2666	0.294	0.007
0.3264	0.336	0.007
0.4209	0.383	0.008
0.492	0.414	0.009
0.5924	0.42	0.009
0.6857	0.397	0.009
0.7441	0.358	0.008
0.8135	0.298	0.007
0.8532	0.253	0.006
0.8971	0.197	0.004
0.9208	0.158	0.004
0.9458	0.11	0.003
0.9721	0.058	0.002

System: dimethyl sulfoxide + 4-methyl-1,3-dioxolan-2-one; phases: Liquid
Fixed: Temperature, K = 308.15
Fixed: Pressure, kPa = 101
Property: Viscosity, Pa*s (Liquid); method: Capillary tube (Ostwald; Ubbelohde) method
Mole fraction of dimethyl sulfoxide	Viscosity, Pa*s	uncertainty
0.0506	0.002025	2.3e-05
0.1139	0.001973	2.3e-05
0.2014	0.001907	2.2e-05
0.2976	0.001842	2.1e-05
0.382	0.001794	2.1e-05
0.4759	0.001746	2e-05
0.5376	0.001719	2e-05
0.6343	0.001684	1.9e-05
0.7176	0.001659	1.9e-05
0.7898	0.001645	1.9e-05
0.8643	0.00164	1.9e-05
0.9376	0.001639	1.9e-05

System: dimethyl sulfoxide + 4-methyl-1,3-dioxolan-2-one; phases: Liquid
Fixed: Pressure, kPa = 101
Fixed: Temperature, K = 308.15
Property: Refractive index (Na D-line) (Liquid); method: Standard Abbe refractometry
Mole fraction of dimethyl sulfoxide	Refractive index (Na D-line)	uncertainty
0.0506	1.4184	0.0004
0.1139	1.4208	0.0004
0.2014	1.4245	0.0004
0.2976	1.4287	0.0004
0.382	1.4328	0.0004
0.4759	1.4376	0.0004
0.5376	1.4409	0.0004
0.6343	1.4465	0.0004
0.7176	1.4517	0.0004
0.7898	1.4566	0.0004
0.8643	1.462	0.0004
0.9376	1.4677	0.0004

System: dimethyl sulfoxide + 4-methyl-1,3-dioxolan-2-one; phases: Liquid
Fixed: Pressure, kPa = 101
Fixed: Temperature, K = 308.15
Property: Mass density, kg/m3 (Liquid); method: Vibrating tube method
Mole fraction of dimethyl sulfoxide	Mass density, kg/m3	uncertainty
0.0506	1183.96	0.21
0.1139	1177.77	0.22
0.2014	1168.86	0.22
0.2976	1159.06	0.23
0.382	1150.36	0.24
0.4759	1140.59	0.25
0.5376	1134.1	0.25
0.6343	1123.92	0.26
0.7176	1115.11	0.26
0.7898	1107.46	0.27
0.8643	1099.57	0.27
0.9376	1091.85	0.28
