Measured thermophysical data. Temperature Dependence of Physical Properties of Ionic Liquid 1,3-Dimethylimidazolium Methyl Sulfate
Source: J. Chem. Eng. Data, 2006, 10.1021/je050434f
Compound 1: 1,3-dimethylimidazolium methylsulfate, C6H12N2O4S, InChI=1S/C5H9N2.CH4O4S/c1-6-3-4-7(2)5-6;1-5-6(2,3)4/h3-5H,1-2H3;1H3,(H,2,3,4)/q+1;/p-1

System: 1,3-dimethylimidazolium methylsulfate; phases: Liquid, Air at 1 atmosphere
Property: Surface tension liquid-gas, N/m (Liquid); method: Pendant drop shape
Temperature, K	Surface tension liquid-gas, N/m	uncertainty
288.15	0.0609	0.0016
293.15	0.0603	0.0016
298.15	0.0598	0.0016
303.15	0.0595	0.0016
308.15	0.0591	0.0016
313.15	0.0589	0.0016

System: 1,3-dimethylimidazolium methylsulfate; phases: Liquid
Fixed: Pressure, kPa = 101.325
Property: Viscosity, Pa*s (Liquid); method: Capillary tube (Ostwald; Ubbelohde) method
Temperature, K	Viscosity, Pa*s	uncertainty
293.15	0.09276	0.00252
298.15	0.07291	0.00188
303.15	0.05835	0.00147
313.15	0.03921	0.00099
323.15	0.02778	0.0007
333.15	0.02101	0.00053
343.15	0.01601	0.00041

System: 1,3-dimethylimidazolium methylsulfate; phases: Liquid
Fixed: Pressure, kPa = 101.325
Property: Refractive index (Na D-line) (Liquid); method: ABBE:monoch
Temperature, K	Refractive index (Na D-line)	uncertainty
283.15	1.48659	0.00103
288.15	1.48525	0.00103
293.15	1.48392	0.00103
298.15	1.4827	0.00103
303.15	1.48129	0.00103
308.15	1.47999	0.00103
313.15	1.47867	0.00103
318.15	1.47726	0.00103
323.15	1.47593	0.00103
328.15	1.47421	0.00103
333.15	1.47294	0.00103
338.15	1.47154	0.00103
343.15	1.47027	0.00103

System: 1,3-dimethylimidazolium methylsulfate; phases: Liquid
Fixed: Pressure, kPa = 101.325
Property: Speed of sound, m/s (Liquid); method: Sing-around technique in a fixed-path interferometer
Temperature, K	Speed of sound, m/s	uncertainty
283.15	1851	5
288.15	1838	5
293.15	1826	5
298.15	1813	5
303.15	1801	5
308.15	1789	5
313.15	1777	5
318.15	1765	5
323.15	1753	5
328.15	1742	5
333.15	1730	5
338.15	1719	5
343.15	1708	5

System: 1,3-dimethylimidazolium methylsulfate; phases: Liquid
Fixed: Pressure, kPa = 101.325
Property: Mass density, kg/m3 (Liquid); method: Vibrating tube method
Temperature, K	Mass density, kg/m3	uncertainty
283.15	1338.24	3.53
288.15	1334.54	3.52
293.15	1330.88	3.51
298.15	1327.25	3.5
303.15	1323.65	3.49
308.15	1320.09	3.48
313.15	1316.57	3.47
318.15	1313.05	3.46
323.15	1309.55	3.45
328.15	1306.06	3.44
333.15	1302.59	3.43
338.15	1299.14	3.42
343.15	1295.7	3.41
