Measured thermophysical data. Speed of sound and isentropic compressibility of aqueous solutions of pyrrolidine and piperidine
Source: J. Chem. Eng. Data, 2006, 10.1021/je050483s
Compound 1: pyrrolidine, C4H9N, InChI=1S/C4H9N/c1-2-4-5-3-1/h5H,1-4H2, purity 99%
Compound 2: piperidine, C5H11N, InChI=1S/C5H11N/c1-2-4-6-5-3-1/h6H,1-5H2, purity 99.5%
Compound 3: water, H2O, InChI=1S/H2O/h1H2

System: pyrrolidine; phases: Liquid
Fixed: Pressure, kPa = 101
Property: Speed of sound, m/s (Liquid); method: FPINT:UFactor:2
Temperature, K	Speed of sound, m/s	uncertainty
293	1389.4	1.8
303	1348	1.8
313	1305.8	1.7
323	1263	1.7

System: piperidine; phases: Liquid
Fixed: Pressure, kPa = 101
Property: Speed of sound, m/s (Liquid); method: FPINT:UFactor:2
Temperature, K	Speed of sound, m/s	uncertainty
293	1384.4	1.9
303	1342.3	1.8
313	1299.9	1.8
323	1257.4	1.8

System: piperidine + water; phases: Liquid
Fixed: Pressure, kPa = 101
Property: Speed of sound, m/s (Liquid); method: FPINT:UFactor:2
Temperature, K	Mole fraction of piperidine	Speed of sound, m/s	uncertainty
293	0	1482.5	1.8
293	0.006	1506.5	1.8
293	0.011	1531.1	1.8
293	0.028	1590.1	1.9
293	0.057	1596.3	1.9
293	0.099	1593.6	1.9
293	0.18	1575.4	1.9
293	0.267	1550.2	1.9
293	0.354	1525.1	1.9
293	0.439	1499.8	1.9
293	0.523	1477	1.9
293	0.646	1445.3	1.9
293	0.846	1406.2	1.9
293	1	1384.4	1.9
303	0	1509.2	1.8
303	0.006	1528.7	1.8
303	0.011	1548.7	1.8
303	0.028	1588.3	1.9
303	0.057	1587.1	1.9
303	0.099	1576.5	1.9
303	0.18	1547.9	1.9
303	0.267	1517.2	1.9
303	0.354	1489.1	1.9
303	0.439	1461.1	1.8
303	0.523	1438	1.8
303	0.646	1405.2	1.8
303	0.846	1365.1	1.8
303	1	1342.3	1.8
313	0	1529	1.8
313	0.006	1544.8	1.8
313	0.011	1560.4	1.8
313	0.028	1584.5	1.9
313	0.057	1576	1.9
313	0.099	1557.5	1.8
313	0.18	1519.2	1.8
313	0.267	1483.5	1.8
313	0.354	1452.5	1.8
313	0.439	1424	1.8
313	0.523	1398.6	1.8
313	0.646	1364.8	1.8
313	0.846	1323.6	1.8
313	1	1299.9	1.8
323	0	1542.6	1.8
323	0.006	1555.1	1.8
323	0.011	1566.8	1.8
323	0.028	1578.3	1.9
323	0.057	1562.7	1.8
323	0.099	1536.6	1.8
323	0.18	1489.3	1.8
323	0.267	1449	1.8
323	0.354	1415.4	1.8
323	0.439	1384.9	1.8
323	0.523	1358.9	1.8
323	0.646	1324.2	1.8
323	0.846	1282	1.8
323	1	1257.4	1.8

System: pyrrolidine + water; phases: Liquid
Fixed: Pressure, kPa = 101
Property: Speed of sound, m/s (Liquid); method: FPINT:UFactor:2
Temperature, K	Mole fraction of pyrrolidine	Speed of sound, m/s	uncertainty
293	0	1482.6	1.5
293	0.006	1501.6	1.5
293	0.01	1517.1	1.5
293	0.022	1557.9	1.5
293	0.068	1650.5	1.6
293	0.116	1654.8	1.6
293	0.208	1626.3	1.6
293	0.304	1589.8	1.6
293	0.396	1556.7	1.6
293	0.483	1528.8	1.6
293	0.567	1500.3	1.7
293	0.686	1467.5	1.7
293	0.868	1416.6	1.7
293	1	1389.4	1.8
303	0	1509.2	1.5
303	0.006	1525.2	1.5
303	0.01	1537.1	1.5
303	0.022	1569.8	1.5
303	0.068	1635.1	1.6
303	0.116	1631.8	1.6
303	0.208	1596.4	1.6
303	0.304	1555.3	1.6
303	0.396	1519.5	1.6
303	0.483	1489.9	1.6
303	0.567	1458.9	1.6
303	0.686	1426.8	1.6
303	0.868	1375.5	1.7
303	1	1348	1.8
313	0	1529	1.5
313	0.006	1541.5	1.5
313	0.01	1551.1	1.5
313	0.022	1576.6	1.5
313	0.068	1619.3	1.6
313	0.116	1608	1.6
313	0.208	1565.5	1.6
313	0.304	1520	1.6
313	0.396	1481.6	1.6
313	0.483	1450.5	1.6
313	0.567	1422.2	1.6
313	0.686	1385.6	1.6
313	0.868	1333.8	1.7
313	1	1305.8	1.7
323	0	1542.6	1.5
323	0.006	1552.2	1.5
323	0.01	1559.7	1.5
323	0.022	1578.7	1.5
323	0.068	1602.3	1.6
323	0.116	1583.2	1.6
323	0.208	1533.5	1.6
323	0.304	1483.9	1.6
323	0.396	1443	1.6
323	0.483	1410.5	1.6
323	0.567	1377.7	1.6
323	0.686	1344	1.6
323	0.868	1291.7	1.6
323	1	1263	1.7
