Measured thermophysical data. Liquid-Liquid Equilibrium for the Water + Acetonitrile + Limonene System at different temperatures
Source: J. Chem. Eng. Data, 2005, 10.1021/je050066f
Compound 1: (R)-1-methyl-4-(1-methylethenyl)cyclohexene, C10H16, InChI=1S/C10H16/c1-8(2)10-6-4-9(3)5-7-10/h4,10H,1,5-7H2,2-3H3/t10-/m0/s1, purity 97%
Compound 2: acetonitrile, C2H3N, InChI=1S/C2H3N/c1-2-3/h1H3, purity 99.5%
Compound 3: water, H2O, InChI=1S/H2O/h1H2

System: (R)-1-methyl-4-(1-methylethenyl)cyclohexene + water; phases: Liquid mixture 1, Liquid mixture 2
Fixed: Pressure, kPa = 83.79
Property: Mass fraction of (R)-1-methyl-4-(1-methylethenyl)cyclohexene (Liquid mixture 1); method: Titration method
Temperature, K	Mass fraction of (R)-1-methyl-4-(1-methylethenyl)cyclohexene	uncertainty
296.15	1.3e-05	3e-06
306.15	1.3e-05	3e-06
316.15	1.3e-05	3e-06
323.15	1.7e-05	3e-06

System: acetonitrile + (R)-1-methyl-4-(1-methylethenyl)cyclohexene + water; phases: Liquid mixture 2, Liquid mixture 1
Fixed: Pressure, kPa = 83.79
Property: Mass fraction of (R)-1-methyl-4-(1-methylethenyl)cyclohexene (Liquid mixture 2); method: CHROM:UFactor:32
Property: Mass fraction of water (Liquid mixture 1); method: CHROM:UFactor:32
Property: Mass fraction of (R)-1-methyl-4-(1-methylethenyl)cyclohexene (Liquid mixture 1); method: CHROM:UFactor:32
Temperature, K	Mass fraction of water	Mass fraction of (R)-1-methyl-4-(1-methylethenyl)cyclohexene	uncertainty	Mass fraction of water	uncertainty	Mass fraction of (R)-1-methyl-4-(1-methylethenyl)cyclohexene	uncertainty
296.15	0.5346	0.0068	0.0022	0.0011	0.0011	0.997	
296.15	0.3876	0.0045	0.0018	0.001	0.001	0.9968	
296.15	0.3417	0.0159	0.004	0.001	0.001	0.9964	
296.15	0.3123	0.0223	0.0056	0.0009	0.0009	0.9961	
296.15	0.2362	0.0294	0.0073	0.0008	0.0008	0.9959	
296.15	0.2205	0.0329	0.0082	0.0007	0.0007	0.9956	
296.15	0.1902	0.0417	0.0104	0.0006	0.0006	0.9954	
306.15	0.5403	0.0001	0.0001	0.0141	0.0041	0.9847	
306.15	0.388	0.0052	0.0019	0.0138	0.004	0.9848	
306.15	0.339	0.0118	0.0031	0.0132	0.0039	0.9852	
306.15	0.295	0.015	0.0037	0.0126	0.0038	0.9856	
306.15	0.2424	0.0195	0.0049	0.012	0.0037	0.986	
306.15	0.2191	0.0315	0.0078	0.0116	0.0035	0.9859	
306.15	0.1969	0.0319	0.0079	0.0111	0.0034	0.9862	
316.15	0.5435	0.0005	0.0005	0.0059	0.0022	0.9875	
316.15	0.3983	0.0045	0.0018	0.0058	0.0021	0.9879	
316.15	0.357	0.006	0.002	0.0057	0.0021	0.9883	
316.15	0.3	0.021	0.0052	0.0057	0.0021	0.9886	
316.15	0.24	0.0355	0.0088	0.0056	0.0021	0.989	
316.15	0.22	0.0346	0.0086	0.0056	0.0021	0.9893	
316.15	0.185	0.0496	0.0124	0.0055	0.0021	0.9897	
323.15	0.5381	0.0002	0.0002	0.0121	0.0031	0.9699	
323.15	0.4019	0.005	0.0018	0.0121	0.0031	0.9709	
323.15	0.3583	0.007	0.0022	0.0121	0.0031	0.9716	
323.15	0.3143	0.011	0.003	0.0121	0.0031	0.9729	
323.15	0.2576	0.026	0.0065	0.0121	0.0031	0.974	
323.15	0.221	0.044	0.011	0.012	0.0031	0.975	
323.15	0.19	0.0525	0.013	0.012	0.0031	0.976	

System: acetonitrile + (R)-1-methyl-4-(1-methylethenyl)cyclohexene + water; phases: Liquid mixture 1, Liquid mixture 2
Fixed: Pressure, kPa = 83.79
Property: Mass fraction of water (Liquid mixture 1); method: TITR:UFactor:4
Temperature, K	Mass fraction of (R)-1-methyl-4-(1-methylethenyl)cyclohexene	Mass fraction of water	uncertainty
296.15	0.003	0.418	0.053
296.15	0.008	0.374	0.047
296.15	0.014	0.355	0.045
296.15	0.02	0.311	0.04
296.15	0.032	0.241	0.031
296.15	0.053	0.159	0.02
296.15	0.069	0.114	0.014
296.15	0.082	0.105	0.013
296.15	0.101	0.07	0.009
296.15	0.122	0.06	0.008
296.15	0.142	0.044	0.006
296.15	0.177	0.025	0.003
296.15	0.178	0.024	0.003
296.15	0.225	0.01	0.002
296.15	0.262	0	0.001
296.15	0.989	0	0.001
306.15	0.005	0.439	0.061
306.15	0.008	0.386	0.049
306.15	0.011	0.327	0.042
306.15	0.029	0.221	0.028
306.15	0.045	0.162	0.02
306.15	0.063	0.13	0.016
306.15	0.072	0.12	0.015
306.15	0.086	0.101	0.013
306.15	0.133	0.066	0.008
306.15	0.164	0.048	0.006
306.15	0.193	0.033	0.004
306.15	0.207	0.028	0.004
306.15	0.235	0.018	0.003
306.15	0.324	0	0.001
306.15	0.33	0.001	0.001
306.15	0.005	0.47	0.064
316.15	0.004	0.51	0.069
316.15	0.005	0.489	0.07
316.15	0.006	0.461	0.067
316.15	0.013	0.33	0.045
316.15	0.019	0.293	0.037
316.15	0.032	0.246	0.031
316.15	0.033	0.244	0.031
316.15	0.047	0.202	0.026
316.15	0.057	0.173	0.022
316.15	0.074	0.148	0.019
316.15	0.082	0.135	0.017
316.15	0.111	0.098	0.012
316.15	0.143	0.072	0.009
316.15	0.175	0.05	0.006
316.15	0.268	0.015	0.002
316.15	0.463	0	0.001
323.15	0.005	0.597	0.083
323.15	0.009	0.416	0.069
323.15	0.013	0.347	0.046
323.15	0.019	0.298	0.037
323.15	0.035	0.259	0.032
323.15	0.057	0.199	0.025
323.15	0.062	0.188	0.024
323.15	0.098	0.126	0.016
323.15	0.155	0.078	0.01
323.15	0.187	0.061	0.008
323.15	0.197	0.055	0.007
323.15	0.21	0.048	0.006
323.15	0.257	0.033	0.004
323.15	0.288	0.028	0.004
323.15	0.548	0	0.001
323.15	0.005	0.509	0.069
