Measured thermophysical data. D-Pinitol Solubility in Supercritical CO2: Experimental Data and Correlation
Source: J. Chem. Eng. Data, 2006, 10.1021/je0504257
Compound 1: D-pinitol, C7H14O6, InChI=1S/C7H14O6/c1-13-7-5(11)3(9)2(8)4(10)6(7)12/h2-12H,1H3/t2-,3-,4-,5-,6+,7-/m0/s1, purity 99%
Compound 2: carbon dioxide, CO2, InChI=1S/CO2/c2-1-3

System: carbon dioxide + D-pinitol; phases: Fluid (supercritical or subcritical phases), Crystal
Property: Mole fraction of D-pinitol (Fluid (supercritical or subcritical phases)); method: UV-Spectroscopy
Temperature, K	Pressure, kPa	Mole fraction of D-pinitol	uncertainty
313.15	10000	1.19e-05	1.4e-07
313.15	20000	0.000152	3.77e-06
313.15	30000	0.000444	9.15e-06
313.15	40000	0.000832	1.537e-05
323.15	10000	8.35e-06	1.1e-07
323.15	20000	3.08e-05	1.45e-06
323.15	30000	7.91e-05	4.07e-06
323.15	40000	0.000193	7.64e-06
333.15	10000	5.65e-06	8e-08
333.15	20000	1.08e-05	2.3e-07
333.15	30000	4.56e-05	7.5e-07
333.15	40000	9.39e-05	2.2e-06
