Measured thermophysical data. Shear Viscosities of Methycyclohexane, Perfluoromethylcyclohexane, and Their Mixtures in the Vicinity of the Upper Critical Mixing Temperature. 1. Critical Isopleth and Coexistence Curve
Source: J. Chem. Eng. Data, 2006, 10.1021/je0502593
Compound 1: methylcyclohexane, C7H14, InChI=1S/C7H14/c1-7-5-3-2-4-6-7/h7H,2-6H2,1H3
Compound 2: perfluoro(methylcyclohexane), C7F14, InChI=1S/C7F14/c8-1(7(19,20)21)2(9,10)4(13,14)6(17,18)5(15,16)3(1,11)12, purity 97%

System: methylcyclohexane; phases: Liquid
Fixed: Pressure, kPa = 101.325
Property: Viscosity, Pa*s (Liquid); method: Capillary tube (Ostwald; Ubbelohde) method
Temperature, K	Viscosity, Pa*s	uncertainty
298.61	0.0007341	6.1e-06
303.632	0.0006844	5.8e-06
308.955	0.000636	5.4e-06
317.714	0.0005669	5e-06
323.657	0.0005268	4.7e-06
328.768	0.0004964	4.5e-06
333.694	0.000469	4.3e-06

System: perfluoro(methylcyclohexane); phases: Liquid
Fixed: Pressure, kPa = 101.325
Property: Viscosity, Pa*s (Liquid); method: Capillary tube (Ostwald; Ubbelohde) method
Temperature, K	Viscosity, Pa*s	uncertainty
319.196	0.0010313	9.7e-06
320.161	0.0010114	9.5e-06
323.176	0.0009582	9.1e-06
328.128	0.0008787	8.4e-06
333.114	0.0008074	7.8e-06

System: methylcyclohexane + perfluoro(methylcyclohexane); phases: Liquid
Fixed: Pressure, kPa = 101
Fixed: Mole fraction of perfluoro(methylcyclohexane) = 0.364
Property: Viscosity, Pa*s (Liquid); method: Capillary tube (Ostwald; Ubbelohde) method
Temperature, K	Viscosity, Pa*s	uncertainty
320.16	0.0007472	1.43e-05
320.19	0.000728	1.42e-05
320.34	0.000689	6.9e-06
320.5	0.0006723	6.1e-06
320.74	0.0006544	5.8e-06
321	0.0006428	5.7e-06
321.39	0.0006292	5.5e-06
321.96	0.0006151	5.4e-06
322.62	0.0006018	5.3e-06
324.05	0.0005798	5.2e-06
325.5	0.0005617	5e-06
326.98	0.0005452	4.9e-06
328.41	0.0005313	4.8e-06
330.08	0.000517	4.7e-06
331.6	0.0005034	4.6e-06
333.21	0.0004923	4.5e-06
334.85	0.0004806	4.4e-06
336.69	0.0004679	4.4e-06
338.48	0.0004558	4.3e-06
340.38	0.0004438	4.2e-06

System: methylcyclohexane + perfluoro(methylcyclohexane); phases: Liquid mixture 1, Liquid mixture 2
Fixed: Pressure, kPa = 101
Property: Viscosity, Pa*s (Liquid mixture 1); method: Capillary tube (Ostwald; Ubbelohde) method
Temperature, K	Viscosity, Pa*s	uncertainty
313.5	0.0005402	5e-06
315.17	0.0005477	5e-06
316.53	0.0005516	5e-06
318.48	0.0005724	5.2e-06
319.16	0.0005795	5.3e-06
319.62	0.0005973	5.5e-06
319.85	0.0006255	6.1e-06
320.03	0.0006477	6.3e-06

System: methylcyclohexane + perfluoro(methylcyclohexane); phases: Liquid mixture 2, Liquid mixture 1
Fixed: Pressure, kPa = 101
Property: Viscosity, Pa*s (Liquid mixture 2); method: Capillary tube (Ostwald; Ubbelohde) method
Temperature, K	Viscosity, Pa*s	uncertainty
313.5	0.000752	6.5e-06
315.17	0.0007216	6.3e-06
316.53	0.0007032	6.2e-06
318.48	0.000678	6e-06
319.16	0.0006696	5.9e-06
319.62	0.0006711	5.9e-06
319.85	0.0006805	6.1e-06
320.03	0.0006903	6.5e-06
320.11	0.0007159	9e-06
