Measured thermophysical data. Critical Properties of the Reacting Mixture in the Selective Oxidation of Cyclohexane by Oxygen in the Presence of Carbon Dioxide
Source: J. Chem. Eng. Data, 2005, 10.1021/je0500882
Compound 1: cyclohexane, C6H12, InChI=1S/C6H12/c1-2-4-6-5-3-1/h1-6H2
Compound 2: carbon dioxide, CO2, InChI=1S/CO2/c2-1-3

System: cyclohexane; phases: Liquid, Gas
Property: Critical pressure, kPa (Liquid); method: Direct measurement
Critical pressure, kPa	uncertainty
4200	120

System: cyclohexane; phases: Liquid, Gas
Property: Critical temperature, K (Liquid); method: Visual observation in an unstirred cell
Critical temperature, K	uncertainty
556.35	0.6

System: cyclohexane; phases: Liquid, Gas
Property: Critical density, kg/m3 (Liquid); method: miniscus level in closed cell
Critical density, kg/m3	uncertainty
280	6

System: carbon dioxide; phases: Liquid, Gas
Property: Critical pressure, kPa (Liquid); method: Direct measurement
Critical pressure, kPa	uncertainty
7380	120

System: carbon dioxide; phases: Liquid, Gas
Property: Critical temperature, K (Liquid); method: Visual observation in an unstirred cell
Critical temperature, K	uncertainty
304.95	0.6

System: carbon dioxide; phases: Liquid, Gas
Property: Critical density, kg/m3 (Liquid); method: miniscus level in closed cell
Critical density, kg/m3	uncertainty
473	9

System: cyclohexane + carbon dioxide; phases: Liquid, Gas
Property: Critical pressure, kPa (Liquid); method: Direct measurement
Mole fraction of carbon dioxide	Critical pressure, kPa	uncertainty
0	4200	120
0.177	6020	140
0.311	7730	140
0.402	8860	150
0.558	11500	150
0.704	13640	140
0.792	14170	120
0.899	12770	230
1	7380	120

System: cyclohexane + carbon dioxide; phases: Liquid, Gas
Property: Critical temperature, K (Liquid); method: Visual observation in an unstirred cell
Mole fraction of carbon dioxide	Critical temperature, K	uncertainty
0	556.35	0.6
0.177	542.95	0.8
0.311	529.35	0.9
0.402	518.75	1.1
0.558	492.65	1.3
0.704	461.75	1.6
0.792	434.45	2.7
0.899	376.45	3.8
1	304.95	0.6
