Measured thermophysical data. Solid-Liquid Equilibria of the trans-1,2-Cyclohexanediol + Ethyl Acetate + Water Ternary System
Source: J. Chem. Eng. Data, 2006, 10.1021/je050338e
Compound 1: trans-1,2-cyclohexanediol, C6H12O2, InChI=1S/C6H12O2/c7-5-3-1-2-4-6(5)8/h5-8H,1-4H2/t5-,6-/m1/s1
Compound 2: ethyl acetate, C4H8O2, InChI=1S/C4H8O2/c1-3-6-4(2)5/h3H2,1-2H3
Compound 3: water, H2O, InChI=1S/H2O/h1H2

System: trans-1,2-cyclohexanediol; phases: Crystal, Liquid, Air at 1 atmosphere
Property: Normal melting temperature, K (Crystal); method: VISOBS
Normal melting temperature, K	uncertainty
376.4	1.16

System: trans-1,2-cyclohexanediol + water; phases: Liquid, Crystal
Fixed: Pressure, kPa = 101.3
Property: Mole fraction of trans-1,2-cyclohexanediol (Liquid); method: TITR:UFactor:4
Temperature, K	Mole fraction of trans-1,2-cyclohexanediol	uncertainty
300.15	0.07974	0.00532
305.15	0.1082	0.0074
313.15	0.1821	0.0135
323.15	0.278	0.0232

System: ethyl acetate + trans-1,2-cyclohexanediol; phases: Liquid, Crystal
Property: Mole fraction of trans-1,2-cyclohexanediol (Liquid); method: TITR:UFactor:4
Temperature, K	Pressure, kPa	Mole fraction of trans-1,2-cyclohexanediol	uncertainty
305.15	101.3	0.0406	0.00217

System: ethyl acetate + trans-1,2-cyclohexanediol + water; phases: Liquid, Crystal
Fixed: Pressure, kPa = 101
Property: Mole fraction of trans-1,2-cyclohexanediol (Liquid); method: TITR:UFactor:4
Temperature, K	Mole fraction of ethyl acetate	Mole fraction of trans-1,2-cyclohexanediol	uncertainty
300.15	0	0.07974	0.00532
300.15	0.01452	0.1064	0.0076
300.15	0.02516	0.1216	0.0083
300.15	0.02771	0.126	0.0085
300.15	0.04629	0.1514	0.0091
300.15	0.06896	0.1648	0.0091
300.15	0.07542	0.1643	0.0089
300.15	0.09923	0.1816	0.0092
300.15	0.1103	0.1813	0.0088
300.15	0.1131	0.1818	0.0088
300.15	0.1348	0.1894	0.0086
300.15	0.1889	0.2011	0.0079
300.15	0.1967	0.2008	0.0077
300.15	0.2622	0.2035	0.0067
300.15	0.3038	0.1932	0.0059
300.15	0.3347	0.1935	0.0056
300.15	0.3412	0.1906	0.0054
300.15	0.3996	0.1747	0.0046
300.15	0.4339	0.1677	0.0043
300.15	0.4773	0.1653	0.0041
300.15	0.5665	0.1348	0.0033
300.15	0.6738	0.1108	0.0028
300.15	0.7824	0.07954	0.00251
300.15	0.8656	0.05427	0.00227
300.15	0.8708	0.05433	0.00227
300.15	0.9699	0.03012	0.00211
305.15	0	0.1082	0.0074
305.15	0.007478	0.1266	0.0092
305.15	0.02577	0.1543	0.0103
305.15	0.04158	0.1739	0.0108
305.15	0.06306	0.1908	0.011
305.15	0.1102	0.2129	0.0106
305.15	0.1223	0.2184	0.0105
305.15	0.1515	0.2247	0.01
305.15	0.1784	0.2278	0.0094
305.15	0.1992	0.2201	0.0086
305.15	0.1997	0.2279	0.0089
305.15	0.2488	0.2254	0.0078
305.15	0.2491	0.2148	0.0074
305.15	0.2863	0.2198	0.0071
305.15	0.4	0.2021	0.0053
305.15	0.5146	0.178	0.0041
305.15	0.559	0.1587	0.0037
305.15	0.567	0.1592	0.0036
305.15	0.6195	0.1481	0.0033
305.15	0.718	0.1198	0.0029
305.15	0.8509	0.07464	0.00236
305.15	0.9594	0.0406	0.00217
313.15	0	0.1821	0.0135
313.15	0.01549	0.2066	0.0148
313.15	0.03424	0.2231	0.0149
313.15	0.04608	0.2365	0.0151
313.15	0.07627	0.246	0.0141
313.15	0.09057	0.2612	0.0146
313.15	0.1698	0.2793	0.0122
313.15	0.2312	0.2807	0.0105
313.15	0.3004	0.2707	0.0086
313.15	0.3617	0.2549	0.0072
313.15	0.4509	0.2347	0.0057
313.15	0.5244	0.2118	0.0047
313.15	0.5571	0.2015	0.0044
313.15	0.5751	0.199	0.0043
313.15	0.5878	0.1883	0.004
313.15	0.6327	0.1757	0.0037
313.15	0.6795	0.1577	0.0034
313.15	0.8068	0.1079	0.0027
313.15	0.8349	0.09599	0.00254
313.15	0.9396	0.060396	0.00226
323.15	0	0.278	0.0232
323.15	0.009484	0.2911	0.0235
323.15	0.04447	0.3199	0.0226
323.15	0.07117	0.3261	0.0206
323.15	0.08648	0.3361	0.0202
323.15	0.1884	0.344	0.0149
323.15	0.308	0.3276	0.0106
323.15	0.3911	0.3103	0.0085
323.15	0.4887	0.2747	0.0064
323.15	0.5099	0.2655	0.006
323.15	0.6023	0.2299	0.0047
323.15	0.6293	0.2177	0.0043
323.15	0.6427	0.2151	0.0042
323.15	0.787	0.1476	0.0031
323.15	0.9035	0.09646	0.00252
