Measured thermophysical data. Compressed Liquid Densities and Saturated Liquid Densities of Dimethyl Ether (RE170)
Source: J. Chem. Eng. Data, 2005, 10.1021/je050135q
Compound 1: dimethyl ether, C2H6O, InChI=1S/C2H6O/c1-3-2/h1-2H3

System: dimethyl ether; phases: Liquid
Property: Mass density, kg/m3 (Liquid); method: Vibrating tube method
Temperature, K	Pressure, kPa	Mass density, kg/m3	uncertainty
283.14	2513	688.1	0.8
283.14	5003	692	0.8
283.14	9016	698	0.8
283.14	11009	700.8	0.8
283.14	18086	710.2	0.8
283.14	21845	714.6	0.8
283.14	32151	726.1	0.9
283.15	550	684.8	0.7
283.15	14790	705.9	0.8
283.15	25006	718.2	0.8
283.15	29056	722.8	0.8
283.16	35521	729.5	0.9
293.15	602	669.3	0.7
293.15	2506	672.9	0.7
293.15	5017	677.4	0.8
293.15	9039	684.2	0.8
293.15	11056	687.3	0.8
293.15	15028	693.2	0.8
293.15	18059	697.4	0.8
293.15	21007	701.4	0.8
293.15	25071	706.5	0.8
293.15	29096	711.3	0.9
293.15	32201	714.8	0.9
293.16	34680	717.5	0.9
303.15	804	653.8	0.7
303.15	9000	670.1	0.8
303.15	15007	680.1	0.8
303.15	19009	686.3	0.8
303.15	32101	703.7	0.9
303.16	2502	657.3	0.7
303.16	5002	662.5	0.8
303.16	11000	673.6	0.8
303.16	21216	689.5	0.8
303.16	25625	695.5	0.8
303.16	29118	700	0.9
303.16	35012	707.1	0.9
313.14	2207	639.8	0.7
313.14	29291	688.3	0.9
313.15	1003	636.8	0.7
313.15	5011	646.6	0.8
313.15	9070	655.3	0.8
313.15	11057	659.2	0.8
313.15	15041	666.5	0.8
313.15	19082	673.3	0.8
313.15	21159	676.6	0.8
313.15	25629	683.2	0.8
313.15	32000	692	0.9
313.15	35404	696.2	0.9
323.14	1750	620.4	0.7
323.14	4998	629.7	0.8
323.14	7033	634.9	0.8
323.14	10877	643.9	0.8
323.14	17659	657.5	0.8
323.14	23929	667.9	0.8
323.14	26052	671.4	0.9
323.14	32540	680.9	0.9
323.15	15253	652.9	0.8
323.15	20934	663.1	0.8
323.15	29643	676.8	0.9
323.15	35338	684.8	0.9
333.15	1545	600.4	0.7
333.15	3523	606.9	0.7
333.15	6504	616.3	0.8
333.15	9001	623.3	0.8
333.15	11059	628.5	0.8
333.15	14097	635.6	0.8
333.15	16998	642	0.8
333.15	20991	649.8	0.8
333.15	25004	657.1	0.9
333.15	29204	663.9	0.9
333.15	31963	668.2	0.9
333.15	35361	673.2	0.9
343.14	29042	651.5	0.9
343.15	3041	585.3	0.7
343.15	5002	593.1	0.8
343.15	8077	603.7	0.8
343.15	11043	612.6	0.8
343.15	12026	615.4	0.8
343.15	15026	623.1	0.8
343.15	18017	630	0.8
343.15	21209	636.9	0.8
343.15	25025	644.3	0.9
343.15	32018	656.5	0.9
343.16	35240	661.7	0.9
353.14	18102	615.2	0.8
353.14	22764	625.8	0.9
353.14	25005	630.8	0.9
353.15	7284	581.4	0.8
353.15	8162	584.8	0.8
353.15	9548	589.9	0.8
353.15	11065	594.9	0.8
353.15	15245	607.6	0.8
353.15	21002	622.2	0.8
353.15	29020	638.6	0.9
353.15	32599	645.3	0.9
353.15	35513	650.1	0.9
