Measured thermophysical data. Diffusion Coefficients of Copper Chloride in Aqueous Solutions at 298.15 K and 310.15 K
Source: J. Chem. Eng. Data, 2005, 10.1021/je050220y
Compound 1: copper chloride, Cl2Cu, InChI=1S/2ClH.Cu/h2*1H;/q;;+2/p-2, purity 99%
Compound 2: water, H2O, InChI=1S/H2O/h1H2

System: copper chloride + water; phases: Liquid
Fixed: Pressure, kPa = 101.325
Property: Binary diffusion coefficient, m2/s (Liquid); method: Open capillary
Temperature, K	Amount concentration (molarity), mol/dm3 of copper chloride	Binary diffusion coefficient, m2/s	uncertainty
298.15	0.005	1.235e-09	0.054
298.15	0.008	1.208e-09	0.053
298.15	0.01	1.199e-09	0.053
298.15	0.02	1.128e-09	0.052
298.15	0.03	1.121e-09	0.051
298.15	0.05	1.12e-09	0.049
310.15	0.005	1.66e-09	0.064
310.15	0.008	1.64e-09	0.064
310.15	0.01	1.63e-09	0.063
310.15	0.02	1.58e-09	0.063
310.15	0.03	1.544e-09	0.061
310.15	0.05	1.5e-09	0.058
