Measured thermophysical data. Vapor-Liquid Equilibrium Data for the Ethylene + Hexane System
Source: J. Chem. Eng. Data, 2005, 10.1021/je050120s
Compound 1: ethene, C2H4, InChI=1S/C2H4/c1-2/h1-2H2, purity 99.95%
Compound 2: hexane, C6H14, InChI=1S/C6H14/c1-3-5-6-4-2/h3-6H2,1-2H3, purity 99.5%

System: ethene + hexane; phases: Liquid, Gas
Property: Critical pressure, kPa (Liquid); method: Direct measurement
Mole fraction of ethene	Critical pressure, kPa	uncertainty
0.2002	4519	31
0.3006	5437	31
0.4002	6336	31
0.4998	7346	31
0.6006	8321	31
0.7007	9021	31

System: ethene + hexane; phases: Liquid, Gas
Property: Critical temperature, K (Liquid); method: Visual observation in a stirred cell
Mole fraction of ethene	Critical temperature, K	uncertainty
0.2002	491.28	0.13
0.3006	479.65	0.13
0.4002	467.21	0.13
0.4998	449.9	0.14
0.6006	428.18	0.14
0.7007	402.32	0.15

System: ethene + hexane; phases: Gas, Liquid
Property: Vapor or sublimation pressure, kPa (Gas); method: Closed cell (Static) method
Mole fraction of ethene	Temperature, K	Vapor or sublimation pressure, kPa	uncertainty
0.2002	491.31	4516	15
0.3006	479.99	5417	28
0.3006	484.83	4887	19
0.4002	470.26	6139	33
0.4002	475.06	5629	28
0.4998	450.76	7319	32
0.4998	455.65	6989	32
0.4998	460.56	6564	30
0.6006	430.71	8229	34
0.6006	435.58	7994	34
0.6006	440.56	7699	32
0.6006	445.51	7264	33
0.7007	405.74	8950	36
0.7007	410.67	8840	32
0.7007	415.61	8670	33
0.7007	420.61	8420	35
0.7007	425.46	8050	35

System: ethene + hexane; phases: Liquid, Gas
Property: Vapor or sublimation pressure, kPa (Liquid); method: Closed cell (Static) method
Mole fraction of ethene	Temperature, K	Vapor or sublimation pressure, kPa	uncertainty
0.0994	391.36	1509	37
0.0994	396.27	1584	38
0.0994	401.05	1659	39
0.0994	406.13	1744	40
0.0994	411.04	1824	41
0.0994	415.98	1919	42
0.0994	420.89	2009	42
0.0994	425.84	2104	43
0.0994	430.77	2209	44
0.0994	435.67	2309	44
0.0994	440.65	2414	45
0.0994	445.66	2529	45
0.0994	450.62	2649	45
0.0994	455.59	2769	45
0.0994	460.48	2894	45
0.0994	465.43	3024	45
0.0994	470.48	3159	44
0.0994	475.48	3289	43
0.0994	480.36	3429	41
0.0994	485.34	3564	38
0.0994	490.29	3694	38
0.0994	495.25	3804	38
0.2002	390.99	2746	40
0.2002	396.08	2856	41
0.2002	401.12	2961	42
0.2002	405.95	3076	43
0.2002	410.91	3201	44
0.2002	415.83	3306	44
0.2002	420.74	3416	45
0.2002	425.7	3536	46
0.2002	430.74	3656	46
0.2002	435.69	3781	47
0.2002	440.72	3901	47
0.2002	445.91	4031	47
0.2002	450.74	4151	47
0.2002	455.69	4271	46
0.2002	460.59	4386	46
0.2002	465.62	4501	45
0.2002	470.54	4611	43
0.2002	475.41	4701	39
0.2002	480.37	4766	42
0.2002	485.33	4781	39
0.3006	390.75	4092	42
0.3006	395.93	4237	43
0.3006	400.6	4372	44
0.3006	405.66	4517	45
0.3006	410.61	4652	45
0.3006	415.58	4787	46
0.3006	420.36	4927	47
0.3006	425.44	5057	51
0.3006	430.39	5192	51
0.3006	435.36	5312	51
0.3006	440.49	5437	50
0.3006	445.31	5542	49
0.3006	450.28	5652	48
0.3006	455.26	5737	46
0.3006	460.28	5807	43
0.3006	465.16	5847	39
0.3006	470.12	5827	44
0.3006	474.98	5707	40
0.4002	391.04	5434	49
0.4002	396.08	5589	49
0.4002	401	5754	50
0.4002	405.85	5914	50
0.4002	410.85	6064	50
0.4002	415.84	6214	50
0.4002	420.76	6349	50
0.4002	425.73	6479	49
0.4002	430.62	6594	48
0.4002	435.6	6699	47
0.4002	440.59	6784	44
0.4002	445.54	6829	41
0.4002	450.41	6849	45
0.4002	455.35	6809	42
0.4002	460.24	6694	38
0.4002	465.22	6454	33
0.4998	391.18	6854	51
0.4998	396.13	7039	51
0.4998	401.1	7204	51
0.4998	405.95	7359	50
0.4998	411.05	7504	49
0.4998	415.98	7629	47
0.4998	420.83	7724	45
0.4998	425.97	7794	43
0.4998	431.01	7829	47
0.4998	435.78	7791	44
0.4998	440.78	7714	40
0.4998	446	7534	37
0.6006	391.03	8299	46
0.6006	395.96	8449	44
0.6006	400.85	8559	42
0.6006	405.88	8644	49
0.6006	410.95	8674	47
0.6006	415.81	8649	44
0.6006	420.68	8564	40
0.6006	425.31	8484	37
0.7007	390.9	9090	40
0.7007	395.79	9080	38
0.7007	400.68	9050	36
