Measured thermophysical data. Study of the Surface Tension of Chlorocyclohexane or Bromocyclohexane with Some Cyclic Ethers
Source: J. Chem. Eng. Data, 2005, 10.1021/je0500577
Compound 1: chlorocyclohexane, C6H11Cl, InChI=1S/C6H11Cl/c7-6-4-2-1-3-5-6/h6H,1-5H2, purity 99%
Compound 2: bromocyclohexane, C6H11Br, InChI=1S/C6H11Br/c7-6-4-2-1-3-5-6/h6H,1-5H2, purity 99%
Compound 3: tetrahydropyran, C5H10O, InChI=1S/C5H10O/c1-2-4-6-5-3-1/h1-5H2, purity 99%
Compound 4: tetrahydrofuran, C4H8O, InChI=1S/C4H8O/c1-2-4-5-3-1/h1-4H2, purity 99.5%
Compound 5: 2-methyltetrahydrofuran, C5H10O, InChI=1S/C5H10O/c1-5-3-2-4-6-5/h5H,2-4H2,1H3, purity 99%
Compound 6: 2,5-dimethyltetrahydrofuran, C6H12O, InChI=1S/C6H12O/c1-5-3-4-6(2)7-5/h5-6H,3-4H2,1-2H3, purity 99%

System: chlorocyclohexane; phases: Liquid
Property: Mass density, kg/m3 (Liquid); method: VIBTUB:UFactor:4
Temperature, K	Pressure, kPa	Mass density, kg/m3	uncertainty
298.15	101.325	993.17	0.53

System: chlorocyclohexane; phases: Liquid, Gas
Property: Surface tension liquid-gas, N/m (Liquid); method: Drop volume
Temperature, K	Surface tension liquid-gas, N/m	uncertainty
298.15	0.03105	0.00026
313.15	0.02944	0.00025

System: bromocyclohexane; phases: Liquid
Property: Mass density, kg/m3 (Liquid); method: VIBTUB:UFactor:4
Temperature, K	Pressure, kPa	Mass density, kg/m3	uncertainty
298.15	101.325	1328.41	1.07

System: bromocyclohexane; phases: Liquid, Gas
Property: Surface tension liquid-gas, N/m (Liquid); method: Drop volume
Temperature, K	Surface tension liquid-gas, N/m	uncertainty
298.15	0.03363	0.00028
313.15	0.03298	0.00027

System: tetrahydropyran; phases: Liquid
Property: Mass density, kg/m3 (Liquid); method: VIBTUB:UFactor:4
Temperature, K	Pressure, kPa	Mass density, kg/m3	uncertainty
298.15	101.325	878.82	0.61

System: tetrahydropyran; phases: Liquid, Gas
Property: Surface tension liquid-gas, N/m (Liquid); method: Drop volume
Temperature, K	Surface tension liquid-gas, N/m	uncertainty
298.15	0.02729	0.00024
313.15	0.02546	0.00023

System: tetrahydrofuran; phases: Liquid
Property: Mass density, kg/m3 (Liquid); method: VIBTUB:UFactor:4
Temperature, K	Pressure, kPa	Mass density, kg/m3	uncertainty
298.15	101.325	882.1	0.45

System: tetrahydrofuran; phases: Liquid, Gas
Property: Surface tension liquid-gas, N/m (Liquid); method: Drop volume
Temperature, K	Surface tension liquid-gas, N/m	uncertainty
298.15	0.02712	0.00021
313.15	0.02524	0.0002

System: 2-methyltetrahydrofuran; phases: Liquid
Property: Mass density, kg/m3 (Liquid); method: VIBTUB:UFactor:4
Temperature, K	Pressure, kPa	Mass density, kg/m3	uncertainty
298.15	101.325	849.4	0.64

System: 2-methyltetrahydrofuran; phases: Liquid, Gas
Property: Surface tension liquid-gas, N/m (Liquid); method: Drop volume
Temperature, K	Surface tension liquid-gas, N/m	uncertainty
298.15	0.02456	0.00022
313.15	0.02302	0.00021

System: 2,5-dimethyltetrahydrofuran; phases: Liquid
Property: Mass density, kg/m3 (Liquid); method: VIBTUB:UFactor:4
Temperature, K	Pressure, kPa	Mass density, kg/m3	uncertainty
298.15	101.325	825.25	0.67

System: 2,5-dimethyltetrahydrofuran; phases: Liquid, Gas
Property: Surface tension liquid-gas, N/m (Liquid); method: Drop volume
Temperature, K	Surface tension liquid-gas, N/m	uncertainty
298.15	0.02293	0.00021
313.15	0.0215	0.00021

System: tetrahydropyran + chlorocyclohexane; phases: Liquid, Gas
Property: Surface tension liquid-gas, N/m (Liquid); method: Drop volume
Temperature, K	Mole fraction of chlorocyclohexane	Surface tension liquid-gas, N/m	uncertainty
298.15	0	0.02729	0.00024
298.15	0.0446	0.02744	0.00024
298.15	0.085	0.02758	0.00024
298.15	0.1673	0.02788	0.00024
298.15	0.2584	0.02823	0.00024
298.15	0.3519	0.02862	0.00025
298.15	0.4501	0.02901	0.00025
298.15	0.5511	0.02941	0.00025
298.15	0.658	0.02982	0.00025
298.15	0.7676	0.03024	0.00026
298.15	0.8744	0.03062	0.00026
298.15	0.9393	0.03084	0.00026
298.15	1	0.03105	0.00026
313.15	0	0.02546	0.00023
313.15	0.044	0.02564	0.00023
313.15	0.0854	0.02582	0.00023
313.15	0.1668	0.02617	0.00023
313.15	0.259	0.02655	0.00023
313.15	0.3527	0.02694	0.00024
313.15	0.4499	0.02733	0.00024
313.15	0.5923	0.02791	0.00024
313.15	0.6578	0.02817	0.00024
313.15	0.7693	0.0286	0.00025
313.15	0.8809	0.02902	0.00025
313.15	0.9385	0.02922	0.00025
313.15	1	0.02944	0.00025

System: tetrahydrofuran + chlorocyclohexane; phases: Liquid, Gas
Property: Surface tension liquid-gas, N/m (Liquid); method: Drop volume
Temperature, K	Mole fraction of chlorocyclohexane	Surface tension liquid-gas, N/m	uncertainty
298.15	0	0.02712	0.00021
298.15	0.0362	0.02727	0.00021
298.15	0.0728	0.02743	0.00021
298.15	0.1442	0.02773	0.00021
298.15	0.2258	0.02807	0.00022
298.15	0.3114	0.02843	0.00022
298.15	0.4061	0.02882	0.00023
298.15	0.5093	0.02925	0.00023
298.15	0.6163	0.02968	0.00024
298.15	0.7359	0.03011	0.00024
298.15	0.8602	0.03054	0.00025
298.15	0.9267	0.03077	0.00026
298.15	1	0.03105	0.00026
313.15	0	0.02524	0.0002
313.15	0.0361	0.02539	0.0002
313.15	0.0727	0.02556	0.0002
313.15	0.1434	0.02588	0.0002
313.15	0.2257	0.02625	0.00021
313.15	0.3114	0.02666	0.00021
313.15	0.4061	0.02709	0.00022
313.15	0.5071	0.02752	0.00022
313.15	0.6173	0.02796	0.00023
313.15	0.7351	0.02842	0.00023
313.15	0.8582	0.02889	0.00024
313.15	0.9291	0.02916	0.00025
313.15	1	0.02944	0.00025

System: 2-methyltetrahydrofuran + chlorocyclohexane; phases: Liquid, Gas
Property: Surface tension liquid-gas, N/m (Liquid); method: Drop volume
Temperature, K	Mole fraction of chlorocyclohexane	Surface tension liquid-gas, N/m	uncertainty
298.15	0	0.02456	0.00022
298.15	0.0471	0.02485	0.00022
298.15	0.0884	0.02511	0.00023
298.15	0.1722	0.02563	0.00023
298.15	0.2652	0.0262	0.00023
298.15	0.3605	0.02681	0.00024
298.15	0.4587	0.02744	0.00024
298.15	0.5615	0.02815	0.00024
298.15	0.6654	0.02886	0.00025
298.15	0.7761	0.02962	0.00025
298.15	0.8856	0.03034	0.00026
298.15	0.9418	0.0307	0.00026
298.15	1	0.03105	0.00026
313.15	0	0.02302	0.00021
313.15	0.0434	0.02323	0.00022
313.15	0.0868	0.02344	0.00022
313.15	0.1719	0.02393	0.00022
313.15	0.2653	0.02447	0.00022
313.15	0.3536	0.025	0.00023
313.15	0.4591	0.02565	0.00023
313.15	0.5618	0.02631	0.00023
313.15	0.6677	0.02703	0.00024
313.15	0.7734	0.02778	0.00024
313.15	0.8805	0.02858	0.00025
313.15	0.9404	0.029	0.00025
313.15	1	0.02944	0.00025

System: chlorocyclohexane + 2,5-dimethyltetrahydrofuran; phases: Liquid, Gas
Property: Surface tension liquid-gas, N/m (Liquid); method: Drop volume
Temperature, K	Mole fraction of chlorocyclohexane	Surface tension liquid-gas, N/m	uncertainty
298.15	0	0.02293	0.00021
298.15	0.0582	0.02329	0.00022
298.15	0.1048	0.02351	0.00022
298.15	0.1988	0.024	0.00022
298.15	0.3031	0.02446	0.00022
298.15	0.4025	0.02496	0.00023
298.15	0.5047	0.02545	0.00023
298.15	0.6071	0.02599	0.00023
298.15	0.7088	0.02675	0.00024
298.15	0.8097	0.02783	0.00024
298.15	0.9009	0.0291	0.00025
298.15	0.9482	0.02998	0.00025
298.15	1	0.03105	0.00026
313.15	0	0.0215	0.00021
313.15	0.054	0.02187	0.00021
313.15	0.0998	0.02215	0.00021
313.15	0.202	0.02276	0.00021
313.15	0.3037	0.0233	0.00022
313.15	0.4049	0.02378	0.00022
313.15	0.509	0.02429	0.00022
313.15	0.6055	0.02487	0.00022
313.15	0.7039	0.02558	0.00023
313.15	0.8075	0.02661	0.00023
313.15	0.9065	0.02794	0.00024
313.15	0.9479	0.02854	0.00025
313.15	1	0.02944	0.00025

System: bromocyclohexane + tetrahydropyran; phases: Liquid, Gas
Property: Surface tension liquid-gas, N/m (Liquid); method: Drop volume
Temperature, K	Mole fraction of bromocyclohexane	Surface tension liquid-gas, N/m	uncertainty
298.15	0	0.02729	0.00024
298.15	0.0539	0.02762	0.00024
298.15	0.098	0.02789	0.00024
298.15	0.1908	0.02845	0.00025
298.15	0.296	0.02911	0.00025
298.15	0.3969	0.02975	0.00025
298.15	0.4993	0.03043	0.00026
298.15	0.6178	0.03123	0.00026
298.15	0.712	0.03186	0.00026
298.15	0.8067	0.03249	0.00027
298.15	0.8816	0.03295	0.00027
298.15	0.9568	0.03339	0.00027
298.15	1	0.03363	0.00028
313.15	0	0.02546	0.00023
313.15	0.0539	0.02595	0.00023
313.15	0.098	0.02632	0.00023
313.15	0.1908	0.02701	0.00024
313.15	0.296	0.0277	0.00024
313.15	0.3969	0.02835	0.00024
313.15	0.4993	0.02898	0.00025
313.15	0.6178	0.02974	0.00025
313.15	0.712	0.03043	0.00026
313.15	0.8067	0.03123	0.00026
313.15	0.8816	0.03188	0.00026
313.15	0.9568	0.03257	0.00027
313.15	1	0.03298	0.00027

System: bromocyclohexane + tetrahydrofuran; phases: Liquid, Gas
Property: Surface tension liquid-gas, N/m (Liquid); method: Drop volume
Temperature, K	Mole fraction of bromocyclohexane	Surface tension liquid-gas, N/m	uncertainty
298.15	0	0.02712	0.00021
298.15	0.0528	0.02739	0.00021
298.15	0.0909	0.02762	0.00021
298.15	0.1919	0.02831	0.00022
298.15	0.2954	0.02906	0.00022
298.15	0.3997	0.02982	0.00023
298.15	0.5057	0.03056	0.00024
298.15	0.611	0.03124	0.00024
298.15	0.7127	0.03189	0.00025
298.15	0.8232	0.03256	0.00026
298.15	0.8937	0.03298	0.00027
298.15	0.9467	0.03331	0.00027
298.15	1	0.03363	0.00028
313.15	0	0.02524	0.0002
313.15	0.0528	0.02566	0.0002
313.15	0.0909	0.02594	0.0002
313.15	0.1919	0.02667	0.00021
313.15	0.2954	0.02739	0.00022
313.15	0.3997	0.02812	0.00022
313.15	0.5057	0.02888	0.00023
313.15	0.611	0.02965	0.00024
313.15	0.7127	0.03042	0.00024
313.15	0.8064	0.03118	0.00025
313.15	0.8994	0.032	0.00026
313.15	0.9467	0.03244	0.00027
313.15	1	0.03298	0.00027

System: 2-methyltetrahydrofuran + bromocyclohexane; phases: Liquid, Gas
Property: Surface tension liquid-gas, N/m (Liquid); method: Drop volume
Temperature, K	Mole fraction of bromocyclohexane	Surface tension liquid-gas, N/m	uncertainty
298.15	0	0.02456	0.00022
298.15	0.042	0.02487	0.00022
298.15	0.0933	0.02528	0.00023
298.15	0.1942	0.02613	0.00023
298.15	0.2908	0.02695	0.00024
298.15	0.3921	0.02782	0.00024
298.15	0.5072	0.02882	0.00025
298.15	0.5896	0.02955	0.00025
298.15	0.6994	0.03058	0.00026
298.15	0.8173	0.03175	0.00026
298.15	0.9043	0.03265	0.00027
298.15	0.9247	0.03286	0.00027
298.15	1	0.03363	0.00028
313.15	0	0.02302	0.00021
313.15	0.042	0.02336	0.00022
313.15	0.0933	0.02378	0.00022
313.15	0.1942	0.02463	0.00022
313.15	0.2908	0.02548	0.00023
313.15	0.3921	0.02638	0.00023
313.15	0.5072	0.02743	0.00024
313.15	0.5896	0.02819	0.00024
313.15	0.6994	0.02924	0.00025
313.15	0.8173	0.03049	0.00026
313.15	0.9043	0.03155	0.00026
313.15	0.9247	0.03185	0.00026
313.15	1	0.03298	0.00027

System: bromocyclohexane + 2,5-dimethyltetrahydrofuran; phases: Liquid, Gas
Property: Surface tension liquid-gas, N/m (Liquid); method: DROPV:UFactor:2
Temperature, K	Mole fraction of bromocyclohexane	Surface tension liquid-gas, N/m	uncertainty
298.15	0	0.02293	0.00038
298.15	0.0692	0.0233	0.00038
298.15	0.0908	0.02342	0.00038
298.15	0.1916	0.02403	0.00039
298.15	0.2942	0.02454	0.00039
298.15	0.3981	0.0249	0.00039
298.15	0.4712	0.02517	0.0004
298.15	0.5994	0.02596	0.0004
298.15	0.6382	0.02639	0.00041
298.15	0.8032	0.02916	0.00043
298.15	0.8552	0.03035	0.00044
298.15	0.8996	0.03147	0.00045
298.15	0.9378	0.03234	0.00046
298.15	1	0.03363	0.00047
313.15	0	0.0215	0.00037
313.15	0.0692	0.02171	0.00037
313.15	0.0908	0.02183	0.00037
313.15	0.1916	0.02252	0.00037
313.15	0.2942	0.02316	0.00038
313.15	0.3981	0.02373	0.00038
313.15	0.4712	0.02406	0.00039
313.15	0.5994	0.02484	0.00039
313.15	0.6382	0.02515	0.0004
313.15	0.701	0.02574	0.0004
313.15	0.8035	0.02731	0.00041
313.15	0.8558	0.0284	0.00042
313.15	0.9378	0.03081	0.00044
313.15	1	0.03298	0.00046
