Measured thermophysical data. Measurement of Density and Viscosity of Binary 1-Alkanol Systems (C8-C11) at 101 kPa and Temperatures from (283.15 to 313.15) K
Source: J. Chem. Eng. Data, 2005, 10.1021/je050200w
Compound 1: octan-1-ol, C8H18O, InChI=1S/C8H18O/c1-2-3-4-5-6-7-8-9/h9H,2-8H2,1H3, purity 99%
Compound 2: nonan-1-ol, C9H20O, InChI=1S/C9H20O/c1-2-3-4-5-6-7-8-9-10/h10H,2-9H2,1H3, purity 98%
Compound 3: decan-1-ol, C10H22O, InChI=1S/C10H22O/c1-2-3-4-5-6-7-8-9-10-11/h11H,2-10H2,1H3, purity 99%
Compound 4: 1-undecanol, C11H24O, InChI=1S/C11H24O/c1-2-3-4-5-6-7-8-9-10-11-12/h12H,2-11H2,1H3, purity 98%

System: octan-1-ol; phases: Liquid
Fixed: Pressure, kPa = 101
Property: Viscosity, Pa*s (Liquid); method: CAPTUB:UFactor:6
Temperature, K	Viscosity, Pa*s	uncertainty
283.15	0.013493	0.000366
288.15	0.010872	0.000304
293.15	0.008944	0.000258
298.15	0.007498	0.000224
303.15	0.006273	0.000195
308.15	0.005342	0.000173
313.15	0.00454	0.00015

System: octan-1-ol; phases: Liquid
Fixed: Pressure, kPa = 101
Property: Mass density, kg/m3 (Liquid); method: VIBTUB:UFactor:4
Temperature, K	Mass density, kg/m3	uncertainty
283.15	832.1	0.6
288.15	828.6	0.6
293.15	825.2	0.6
298.15	821.9	0.6
303.15	818.4	0.6
308.15	815	0.6
313.15	811.4	0.6

System: nonan-1-ol; phases: Liquid
Fixed: Pressure, kPa = 101
Property: Viscosity, Pa*s (Liquid); method: CAPTUB:UFactor:6
Temperature, K	Viscosity, Pa*s	uncertainty
283.15	0.017439	0.000484
288.15	0.014272	0.000404
293.15	0.011635	0.000338
298.15	0.009519	0.000284
303.15	0.007806	0.000241
308.15	0.006604	0.000211
313.15	0.005668	0.000187

System: nonan-1-ol; phases: Liquid
Fixed: Pressure, kPa = 101
Property: Mass density, kg/m3 (Liquid); method: VIBTUB:UFactor:4
Temperature, K	Mass density, kg/m3	uncertainty
283.15	835	0.9
288.15	831.5	0.9
293.15	828.1	0.9
298.15	824.7	0.9
303.15	821.3	0.9
308.15	817.8	0.9
313.15	814.3	0.9

System: decan-1-ol; phases: Liquid
Fixed: Pressure, kPa = 101
Property: Viscosity, Pa*s (Liquid); method: CAPTUB:UFactor:6
Temperature, K	Viscosity, Pa*s	uncertainty
283.15	0.022064	0.00057
288.15	0.017988	0.000473
293.15	0.014387	0.000388
298.15	0.011735	0.000325
303.15	0.009561	0.000273
308.15	0.008	0.000236
313.15	0.006831	0.000208

System: decan-1-ol; phases: Liquid
Fixed: Pressure, kPa = 101
Property: Mass density, kg/m3 (Liquid); method: VIBTUB:UFactor:4
Temperature, K	Mass density, kg/m3	uncertainty
283.15	836.6	0.6
288.15	833.3	0.6
293.15	829.9	0.6
298.15	826.5	0.6
303.15	823	0.6
308.15	819.6	0.6
313.15	816.3	0.6

System: 1-undecanol; phases: Liquid
Fixed: Pressure, kPa = 101
Property: Viscosity, Pa*s (Liquid); method: CAPTUB:UFactor:6
Temperature, K	Viscosity, Pa*s	uncertainty
293.15	0.017284	0.000481
298.15	0.013721	0.00039
303.15	0.011524	0.000335
308.15	0.00935	0.00028
313.15	0.007841	0.000242

System: 1-undecanol; phases: Liquid
Fixed: Pressure, kPa = 101
Property: Mass density, kg/m3 (Liquid); method: VIBTUB:UFactor:4
Temperature, K	Mass density, kg/m3	uncertainty
293.15	832.2	0.9
298.15	828.8	0.9
303.15	825.4	0.9
308.15	821.7	0.9
313.15	818.6	0.9

System: octan-1-ol + nonan-1-ol; phases: Liquid
Fixed: Pressure, kPa = 101
Property: Viscosity, Pa*s (Liquid); method: CAPTUB:UFactor:6
Temperature, K	Mole fraction of octan-1-ol	Viscosity, Pa*s	uncertainty
283.15	0	0.017439	0.000484
283.15	0.1001	0.016986	0.00047
283.15	0.1998	0.016566	0.000457
283.15	0.2999	0.016206	0.000445
283.15	0.4003	0.015788	0.000432
283.15	0.5001	0.01541	0.000421
283.15	0.6001	0.01501	0.000409
283.15	0.7	0.01455	0.000396
283.15	0.8001	0.014211	0.000386
283.15	0.9001	0.013898	0.000377
283.15	1	0.013493	0.000366
288.15	0	0.014272	0.000404
288.15	0.1001	0.013921	0.000393
288.15	0.1998	0.013607	0.000383
288.15	0.2999	0.013204	0.000371
288.15	0.4003	0.012829	0.00036
288.15	0.5001	0.012497	0.00035
288.15	0.6001	0.012261	0.000342
288.15	0.7	0.011973	0.000334
288.15	0.8001	0.011592	0.000324
288.15	0.9001	0.011332	0.000316
288.15	1	0.010872	0.000304
293.15	0	0.011635	0.000338
293.15	0.1001	0.011377	0.000329
293.15	0.1998	0.011125	0.000321
293.15	0.2999	0.010792	0.000311
293.15	0.4003	0.010555	0.000304
293.15	0.5001	0.010261	0.000295
293.15	0.6001	0.010043	0.000289
293.15	0.7	0.009838	0.000283
293.15	0.8001	0.009525	0.000274
293.15	0.9001	0.009303	0.000268
293.15	1	0.008944	0.000258
298.15	0	0.009519	0.000284
298.15	0.1001	0.009353	0.000278
298.15	0.1998	0.009135	0.000272
298.15	0.2997	0.008957	0.000266
298.15	0.4003	0.008749	0.000259
298.15	0.4996	0.008582	0.000254
298.15	0.6001	0.00843	0.00025
298.15	0.7	0.008238	0.000244
298.15	0.8001	0.007976	0.000237
298.15	0.9001	0.007786	0.000231
298.15	1	0.007498	0.000224
303.15	0	0.007806	0.000241
303.15	0.1001	0.007679	0.000237
303.15	0.1998	0.007537	0.000232
303.15	0.2997	0.00735	0.000226
303.15	0.4003	0.007171	0.000221
303.15	0.5001	0.007057	0.000217
303.15	0.6001	0.006936	0.000213
303.15	0.7	0.006779	0.000209
303.15	0.8001	0.006634	0.000205
303.15	0.9001	0.006494	0.000201
303.15	1	0.006273	0.000195
308.15	0	0.006604	0.000211
308.15	0.1001	0.006479	0.000206
308.15	0.1998	0.006356	0.000202
308.15	0.2999	0.006212	0.000198
308.15	0.4003	0.006055	0.000193
308.15	0.5001	0.005963	0.00019
308.15	0.6001	0.005862	0.000187
308.15	0.7	0.005743	0.000184
308.15	0.8001	0.005625	0.00018
308.15	0.9001	0.00551	0.000177
308.15	1	0.005342	0.000173
313.15	0	0.005668	0.000187
313.15	0.1001	0.005579	0.000184
313.15	0.1998	0.005458	0.00018
313.15	0.2999	0.005377	0.000177
313.15	0.4003	0.005258	0.000174
313.15	0.5001	0.005181	0.000171
313.15	0.6001	0.005068	0.000168
313.15	0.7	0.004957	0.000165
313.15	0.8001	0.004872	0.000161
313.15	0.9001	0.004773	0.000158
313.15	1	0.00454	0.00015

System: octan-1-ol + nonan-1-ol; phases: Liquid
Fixed: Pressure, kPa = 101
Property: Mass density, kg/m3 (Liquid); method: VIBTUB:UFactor:4
Temperature, K	Mole fraction of octan-1-ol	Mass density, kg/m3	uncertainty
283.15	0	835	0.9
283.15	0.1001	834.6	0.9
283.15	0.1998	834.4	0.9
283.15	0.2999	834.1	0.8
283.15	0.4003	833.8	0.8
283.15	0.5001	833.5	0.7
283.15	0.6001	833.2	0.7
283.15	0.7	832.9	0.7
283.15	0.8001	832.7	0.6
283.15	0.9001	832.3	0.6
283.15	1	832.1	0.6
288.15	0	831.5	0.9
288.15	0.1001	831.3	0.9
288.15	0.1998	831	0.9
288.15	0.2999	830.7	0.8
288.15	0.4003	830.4	0.8
288.15	0.5001	830.1	0.7
288.15	0.6001	829.8	0.7
288.15	0.7	829.5	0.7
288.15	0.8001	829.3	0.6
288.15	0.9001	828.9	0.6
288.15	1	828.6	0.6
293.15	0	828.1	0.9
293.15	0.1001	827.8	0.9
293.15	0.1998	827.6	0.9
293.15	0.2999	827.3	0.8
293.15	0.4003	827	0.8
293.15	0.5001	826.7	0.7
293.15	0.6001	826.4	0.7
293.15	0.7	826.1	0.7
293.15	0.8001	825.8	0.6
293.15	0.9001	825.5	0.6
293.15	1	825.2	0.6
298.15	0	824.7	0.9
298.15	0.1001	824.4	0.9
298.15	0.1998	824.1	0.9
298.15	0.2997	823.8	0.8
298.15	0.4003	823.5	0.8
298.15	0.4996	823.2	0.7
298.15	0.6001	822.9	0.7
298.15	0.7	822.6	0.7
298.15	0.8001	822.4	0.6
298.15	0.9001	822	0.6
298.15	1	821.9	0.6
303.15	0	821.3	0.9
303.15	0.1001	821	0.9
303.15	0.1998	820.7	0.9
303.15	0.2997	820.4	0.8
303.15	0.4003	820.1	0.8
303.15	0.5001	819.8	0.7
303.15	0.6001	819.5	0.7
303.15	0.7	819.2	0.7
303.15	0.8001	818.9	0.6
303.15	0.9001	818.6	0.6
303.15	1	818.4	0.6
308.15	0	817.8	0.9
308.15	0.1001	817.5	0.9
308.15	0.1998	817.2	0.9
308.15	0.2999	816.9	0.8
308.15	0.4003	816.6	0.8
308.15	0.5001	816.3	0.7
308.15	0.6001	816	0.7
308.15	0.7	815.7	0.7
308.15	0.8001	815.4	0.6
308.15	0.9001	815	0.6
308.15	1	815	0.6
313.15	0	814.3	0.9
313.15	0.1001	814	0.9
313.15	0.1998	813.7	0.9
313.15	0.2999	813.4	0.8
313.15	0.4003	813.1	0.8
313.15	0.5001	812.8	0.7
313.15	0.6001	812.5	0.7
313.15	0.7	812.2	0.7
313.15	0.8001	812	0.6
313.15	0.9001	811.6	0.6
313.15	1	811.4	0.6

System: octan-1-ol + decan-1-ol; phases: Liquid
Fixed: Pressure, kPa = 101
Property: Viscosity, Pa*s (Liquid); method: CAPTUB:UFactor:6
Temperature, K	Mole fraction of octan-1-ol	Viscosity, Pa*s	uncertainty
283.15	0	0.022064	0.00057
283.15	0.0995	0.02114	0.000548
283.15	0.1998	0.020234	0.000527
283.15	0.3007	0.019392	0.000507
283.15	0.4001	0.018458	0.000484
283.15	0.4996	0.017592	0.000464
283.15	0.5988	0.01669	0.000442
283.15	0.6998	0.01582	0.000422
283.15	0.8001	0.015106	0.000405
283.15	0.9	0.014204	0.000383
283.15	1	0.013493	0.000366
288.15	0	0.017988	0.000473
288.15	0.0995	0.017182	0.000454
288.15	0.1998	0.01653	0.000439
288.15	0.3007	0.015639	0.000418
288.15	0.4001	0.015111	0.000405
288.15	0.4996	0.014233	0.000384
288.15	0.5988	0.013712	0.000372
288.15	0.6998	0.013018	0.000355
288.15	0.8001	0.012247	0.000337
288.15	0.9	0.011754	0.000325
288.15	1	0.010872	0.000304
293.15	0	0.014387	0.000388
293.15	0.0995	0.013843	0.000375
293.15	0.1998	0.013305	0.000362
293.15	0.3007	0.012672	0.000347
293.15	0.4001	0.012263	0.000337
293.15	0.4996	0.011593	0.000321
293.15	0.5988	0.011054	0.000308
293.15	0.6998	0.010321	0.000291
293.15	0.8001	0.00975	0.000277
293.15	0.9	0.009008	0.00026
293.15	1	0.008944	0.000258
298.15	0	0.011735	0.000325
298.15	0.0995	0.011311	0.000315
298.15	0.1998	0.010938	0.000306
298.15	0.3007	0.010526	0.000296
298.15	0.4001	0.010074	0.000285
298.15	0.4996	0.009596	0.000274
298.15	0.5988	0.009244	0.000265
298.15	0.6998	0.008756	0.000254
298.15	0.8001	0.008308	0.000243
298.15	0.9	0.007812	0.000231
298.15	1	0.007498	0.000224
303.15	0	0.009561	0.000273
303.15	0.0995	0.009231	0.000265
303.15	0.1998	0.008924	0.000258
303.15	0.3007	0.008589	0.00025
303.15	0.4001	0.008213	0.000241
303.15	0.4996	0.007898	0.000233
303.15	0.5988	0.00757	0.000226
303.15	0.6998	0.007259	0.000218
303.15	0.8001	0.006992	0.000212
303.15	0.9	0.006655	0.000204
303.15	1	0.006273	0.000195
308.15	0	0.008	0.000236
308.15	0.0995	0.007768	0.00023
308.15	0.1998	0.007492	0.000224
308.15	0.3007	0.007211	0.000217
308.15	0.4001	0.006961	0.000211
308.15	0.4996	0.006672	0.000204
308.15	0.5988	0.006389	0.000198
308.15	0.6998	0.006143	0.000192
308.15	0.8001	0.005851	0.000185
308.15	0.9	0.005653	0.00018
308.15	1	0.005342	0.000173
313.15	0	0.006831	0.000208
313.15	0.0995	0.006649	0.000204
313.15	0.1998	0.006408	0.000198
313.15	0.3007	0.006189	0.000193
313.15	0.4001	0.005979	0.000188
313.15	0.4996	0.005711	0.000181
313.15	0.5988	0.005513	0.000177
313.15	0.6998	0.005287	0.000171
313.15	0.8001	0.005057	0.000166
313.15	0.9	0.004784	0.000158
313.15	1	0.00454	0.00015

System: octan-1-ol + decan-1-ol; phases: Liquid
Fixed: Pressure, kPa = 101
Property: Mass density, kg/m3 (Liquid); method: VIBTUB:UFactor:4
Temperature, K	Mole fraction of octan-1-ol	Mass density, kg/m3	uncertainty
283.15	0	836.6	0.6
283.15	0.0995	836.1	0.6
283.15	0.1998	835.7	0.6
283.15	0.3007	835.3	0.6
283.15	0.4001	834.9	0.6
283.15	0.4996	834.5	0.6
283.15	0.5988	834	0.6
283.15	0.6998	833.6	0.6
283.15	0.8001	833.1	0.6
283.15	0.9	832.8	0.6
283.15	1	832.1	0.6
288.15	0	833.3	0.6
288.15	0.0995	832.7	0.6
288.15	0.1998	832.3	0.6
288.15	0.3007	831.9	0.6
288.15	0.4001	831.5	0.6
288.15	0.4996	831.1	0.6
288.15	0.5988	830.6	0.6
288.15	0.6998	830.2	0.6
288.15	0.8001	829.7	0.6
288.15	0.9	829.4	0.6
288.15	1	828.6	0.6
293.15	0	829.9	0.6
293.15	0.0995	829.3	0.6
293.15	0.1998	828.9	0.6
293.15	0.3007	828.5	0.6
293.15	0.4001	828.1	0.6
293.15	0.4996	827.7	0.6
293.15	0.5988	827.2	0.6
293.15	0.6998	826.9	0.6
293.15	0.8001	826.3	0.6
293.15	0.9	825.9	0.6
293.15	1	825.2	0.6
298.15	0	826.5	0.6
298.15	0.0995	825.9	0.6
298.15	0.1998	825.5	0.6
298.15	0.3007	825.1	0.6
298.15	0.4001	824.7	0.6
298.15	0.4996	824.3	0.6
298.15	0.5988	823.8	0.6
298.15	0.6998	823.4	0.6
298.15	0.8001	822.8	0.6
298.15	0.9	822.3	0.6
298.15	1	821.9	0.6
303.15	0	823	0.6
303.15	0.0995	822.5	0.6
303.15	0.1998	822.1	0.6
303.15	0.3007	821.7	0.6
303.15	0.4001	821.3	0.6
303.15	0.4996	820.8	0.6
303.15	0.5988	820.4	0.6
303.15	0.6998	820	0.6
303.15	0.8001	819.4	0.6
303.15	0.9	818.9	0.6
303.15	1	818.4	0.6
308.15	0	819.6	0.6
308.15	0.0995	819.1	0.6
308.15	0.1998	818.7	0.6
308.15	0.3007	818.3	0.6
308.15	0.4001	817.8	0.6
308.15	0.4996	817.4	0.6
308.15	0.5988	816.9	0.6
308.15	0.6998	816.5	0.6
308.15	0.8001	815.9	0.6
308.15	0.9	815.5	0.6
308.15	1	815	0.6
313.15	0	816.3	0.6
313.15	0.0995	815.6	0.6
313.15	0.1998	815.2	0.6
313.15	0.3007	814.8	0.6
313.15	0.4001	814.4	0.6
313.15	0.4996	813.9	0.6
313.15	0.5988	813.5	0.6
313.15	0.6998	813	0.6
313.15	0.8001	812.4	0.6
313.15	0.9	812	0.6
313.15	1	811.4	0.6

System: octan-1-ol + 1-undecanol; phases: Liquid
Fixed: Pressure, kPa = 101
Property: Viscosity, Pa*s (Liquid); method: CAPTUB:UFactor:6
Temperature, K	Mole fraction of octan-1-ol	Viscosity, Pa*s	uncertainty
293.15	0	0.017284	0.000481
293.15	0.1003	0.016401	0.000455
293.15	0.2001	0.015207	0.000423
293.15	0.2998	0.0144	0.0004
293.15	0.4002	0.013803	0.000384
293.15	0.4999	0.01278	0.000357
293.15	0.5998	0.012191	0.000341
293.15	0.6998	0.010954	0.000309
293.15	0.8	0.010237	0.000291
293.15	0.8999	0.009416	0.00027
293.15	1	0.008944	0.000258
298.15	0	0.013721	0.00039
298.15	0.1003	0.013348	0.000379
298.15	0.2001	0.012542	0.000356
298.15	0.2998	0.011972	0.00034
298.15	0.4002	0.011227	0.00032
298.15	0.4999	0.010643	0.000305
298.15	0.5998	0.009948	0.000286
298.15	0.6998	0.009276	0.000269
298.15	0.8	0.008693	0.000254
298.15	0.8999	0.008002	0.000237
298.15	1	0.007498	0.000224
303.15	0	0.011524	0.000335
303.15	0.1003	0.010947	0.000318
303.15	0.2001	0.010355	0.000302
303.15	0.2998	0.009808	0.000287
303.15	0.4001	0.009281	0.000273
303.15	0.4999	0.008745	0.000258
303.15	0.5998	0.008252	0.000245
303.15	0.6998	0.007691	0.000231
303.15	0.8	0.007271	0.00022
303.15	0.8999	0.006723	0.000206
303.15	1	0.006273	0.000195
308.15	0	0.00935	0.00028
308.15	0.1003	0.009118	0.000273
308.15	0.2001	0.008645	0.000259
308.15	0.2998	0.008207	0.000247
308.15	0.4002	0.007773	0.000236
308.15	0.4999	0.007392	0.000225
308.15	0.5998	0.006989	0.000215
308.15	0.6998	0.00649	0.000202
308.15	0.8	0.006137	0.000193
308.15	0.8999	0.005728	0.000182
308.15	1	0.005342	0.000173
313.15	0	0.007841	0.000242
313.15	0.1003	0.007665	0.000236
313.15	0.2001	0.00735	0.000227
313.15	0.2998	0.006995	0.000217
313.15	0.4002	0.006652	0.000208
313.15	0.4999	0.006336	0.0002
313.15	0.5998	0.005991	0.00019
313.15	0.6998	0.005615	0.000181
313.15	0.8	0.005295	0.000173
313.15	0.8999	0.004957	0.000164
313.15	1	0.00454	0.00015

System: octan-1-ol + 1-undecanol; phases: Liquid
Fixed: Pressure, kPa = 101
Property: Mass density, kg/m3 (Liquid); method: VIBTUB:UFactor:4
Temperature, K	Mole fraction of octan-1-ol	Mass density, kg/m3	uncertainty
293.15	0	832.2	0.9
293.15	0.1003	831.5	0.9
293.15	0.2001	831	0.9
293.15	0.2998	830.5	0.8
293.15	0.4002	829.7	0.8
293.15	0.4999	829	0.7
293.15	0.5998	828.3	0.7
293.15	0.6998	827.7	0.7
293.15	0.8	826.9	0.6
293.15	0.8999	826.2	0.6
293.15	1	825.2	0.6
298.15	0	828.8	0.9
298.15	0.1003	828.1	0.9
298.15	0.2001	827.6	0.9
298.15	0.2998	827	0.8
298.15	0.4002	826.3	0.8
298.15	0.4999	825.6	0.7
298.15	0.5998	824.9	0.7
298.15	0.6998	824.3	0.7
298.15	0.8	823.5	0.6
298.15	0.8999	822.8	0.6
298.15	1	821.9	0.6
303.15	0	825.4	0.9
303.15	0.1003	824.8	0.9
303.15	0.2001	824.2	0.9
303.15	0.2998	823.6	0.8
303.15	0.4001	822.9	0.8
303.15	0.4999	822.2	0.7
303.15	0.5998	821.5	0.7
303.15	0.6998	820.8	0.7
303.15	0.8	820.1	0.6
303.15	0.8999	819.3	0.6
303.15	1	818.4	0.6
308.15	0	821.7	0.9
308.15	0.1003	821.3	0.9
308.15	0.2001	820.7	0.9
308.15	0.2998	820.2	0.8
308.15	0.4002	819.5	0.8
308.15	0.4999	818.8	0.7
308.15	0.5998	818.1	0.7
308.15	0.6998	817.4	0.7
308.15	0.8	816.6	0.6
308.15	0.8999	815.8	0.6
308.15	1	815	0.6
313.15	0	818.6	0.9
313.15	0.1003	817.8	0.9
313.15	0.2001	817.3	0.9
313.15	0.2998	816.8	0.8
313.15	0.4002	816	0.8
313.15	0.4999	815.3	0.7
313.15	0.5998	814.6	0.7
313.15	0.6998	813.9	0.7
313.15	0.8	813.1	0.6
313.15	0.8999	812.3	0.6
313.15	1	811.4	0.6

System: decan-1-ol + nonan-1-ol; phases: Liquid
Fixed: Pressure, kPa = 101
Property: Viscosity, Pa*s (Liquid); method: CAPTUB:UFactor:6
Temperature, K	Mole fraction of nonan-1-ol	Viscosity, Pa*s	uncertainty
283.15	0	0.022064	0.00057
283.15	0.1009	0.021495	0.000559
283.15	0.2	0.021125	0.000552
283.15	0.3	0.020651	0.000543
283.15	0.4002	0.020154	0.000534
283.15	0.5001	0.019708	0.000526
283.15	0.6003	0.019169	0.000516
283.15	0.6996	0.018591	0.000504
283.15	0.7999	0.01814	0.000496
283.15	0.9047	0.017776	0.00049
283.15	1	0.017439	0.000484
288.15	0	0.017988	0.000473
288.15	0.1009	0.017444	0.000462
288.15	0.2	0.01706	0.000455
288.15	0.3	0.016694	0.000448
288.15	0.3999	0.016196	0.000438
288.15	0.5001	0.015818	0.000431
288.15	0.6003	0.015439	0.000424
288.15	0.6996	0.015201	0.00042
288.15	0.7999	0.014851	0.000414
288.15	0.9047	0.014478	0.000407
288.15	1	0.014272	0.000404
293.15	0	0.014387	0.000388
293.15	0.1009	0.014099	0.000382
293.15	0.2	0.013729	0.000375
293.15	0.3	0.013498	0.000371
293.15	0.3999	0.013224	0.000366
293.15	0.5	0.012998	0.000362
293.15	0.6003	0.012478	0.000351
293.15	0.6996	0.012365	0.00035
293.15	0.7999	0.012092	0.000345
293.15	0.9047	0.011829	0.000341
293.15	1	0.011635	0.000338
298.15	0	0.011735	0.000325
298.15	0.1009	0.011524	0.000321
298.15	0.2	0.011357	0.000318
298.15	0.3	0.011127	0.000314
298.15	0.4002	0.010873	0.000309
298.15	0.5	0.010621	0.000304
298.15	0.6003	0.010385	0.0003
298.15	0.6996	0.010171	0.000296
298.15	0.7999	0.009933	0.000291
298.15	0.9047	0.009725	0.000288
298.15	1	0.009519	0.000284
303.15	0	0.009561	0.000273
303.15	0.1009	0.009398	0.00027
303.15	0.2	0.009242	0.000267
303.15	0.3	0.009083	0.000264
303.15	0.4002	0.008886	0.000261
303.15	0.5001	0.008703	0.000257
303.15	0.6003	0.008504	0.000253
303.15	0.6996	0.008332	0.00025
303.15	0.7999	0.00816	0.000247
303.15	0.9047	0.007929	0.000243
303.15	1	0.007806	0.000241
308.15	0	0.008	0.000236
308.15	0.1009	0.007867	0.000233
308.15	0.2	0.007739	0.000231
308.15	0.3	0.007613	0.000229
308.15	0.4002	0.007453	0.000226
308.15	0.5	0.007307	0.000223
308.15	0.6003	0.007151	0.00022
308.15	0.6996	0.007014	0.000218
308.15	0.7999	0.006857	0.000215
308.15	0.9047	0.006693	0.000212
308.15	1	0.006604	0.000211
313.15	0	0.006831	0.000208
313.15	0.1009	0.006704	0.000206
313.15	0.2	0.006629	0.000204
313.15	0.3	0.006517	0.000202
313.15	0.4002	0.0064	0.0002
313.15	0.5001	0.006234	0.000197
313.15	0.6003	0.00615	0.000196
313.15	0.6996	0.006026	0.000193
313.15	0.7999	0.00587	0.00019
313.15	0.9047	0.005779	0.000189
313.15	1	0.005668	0.000187

System: decan-1-ol + nonan-1-ol; phases: Liquid
Fixed: Pressure, kPa = 101
Property: Mass density, kg/m3 (Liquid); method: VIBTUB:UFactor:4
Temperature, K	Mole fraction of nonan-1-ol	Mass density, kg/m3	uncertainty
283.15	0	836.6	0.6
283.15	0.1009	836.5	0.6
283.15	0.2	836.4	0.6
283.15	0.3	836.2	0.7
283.15	0.4002	836	0.7
283.15	0.5001	835.9	0.7
283.15	0.6003	835.7	0.8
283.15	0.6996	835.6	0.8
283.15	0.7999	835.4	0.9
283.15	0.9047	835.2	0.9
283.15	1	835	0.9
288.15	0	833.3	0.6
288.15	0.1009	833.2	0.6
288.15	0.2	833	0.6
288.15	0.3	832.8	0.7
288.15	0.3999	832.7	0.7
288.15	0.5001	832.5	0.7
288.15	0.6003	832.3	0.8
288.15	0.6996	832.2	0.8
288.15	0.7999	832	0.9
288.15	0.9047	831.8	0.9
288.15	1	831.5	0.9
293.15	0	829.9	0.6
293.15	0.1009	829.8	0.6
293.15	0.2	829.6	0.6
293.15	0.3	829.5	0.7
293.15	0.3999	829.3	0.7
293.15	0.5	829.1	0.7
293.15	0.6003	829	0.8
293.15	0.6996	828.8	0.8
293.15	0.7999	828.6	0.9
293.15	0.9047	828.4	0.9
293.15	1	828.1	0.9
298.15	0	826.5	0.6
298.15	0.1009	826.4	0.6
298.15	0.2	826.2	0.6
298.15	0.3	826.1	0.7
298.15	0.4002	825.9	0.7
298.15	0.5	825.7	0.7
298.15	0.6003	825.5	0.8
298.15	0.6996	825.4	0.8
298.15	0.7999	825.1	0.9
298.15	0.9047	824.9	0.9
298.15	1	824.7	0.9
303.15	0	823	0.6
303.15	0.1009	822.9	0.6
303.15	0.2	822.8	0.6
303.15	0.3	822.6	0.7
303.15	0.4002	822.4	0.7
303.15	0.5001	822.2	0.7
303.15	0.6003	822	0.8
303.15	0.6996	821.9	0.8
303.15	0.7999	821.7	0.9
303.15	0.9047	821.5	0.9
303.15	1	821.3	0.9
308.15	0	819.6	0.6
308.15	0.1009	819.5	0.6
308.15	0.2	819.4	0.6
308.15	0.3	819.1	0.7
308.15	0.4002	819	0.7
308.15	0.5	818.8	0.7
308.15	0.6003	818.6	0.8
308.15	0.6996	818.5	0.8
308.15	0.7999	818.3	0.9
308.15	0.9047	818	0.9
308.15	1	817.8	0.9
313.15	0	816.3	0.6
313.15	0.1009	816.1	0.6
313.15	0.2	815.9	0.6
313.15	0.3	815.7	0.7
313.15	0.4002	815.6	0.7
313.15	0.5001	815.3	0.7
313.15	0.6003	815.2	0.8
313.15	0.6996	815	0.8
313.15	0.7999	814.8	0.9
313.15	0.9047	814.5	0.9
313.15	1	814.3	0.9

System: 1-undecanol + nonan-1-ol; phases: Liquid
Fixed: Pressure, kPa = 101
Property: Viscosity, Pa*s (Liquid); method: CAPTUB:UFactor:6
Temperature, K	Mole fraction of nonan-1-ol	Viscosity, Pa*s	uncertainty
293.15	0	0.017284	0.000481
293.15	0.1002	0.016579	0.000463
293.15	0.1996	0.016078	0.00045
293.15	0.3004	0.015375	0.000432
293.15	0.4001	0.014912	0.000421
293.15	0.5	0.014288	0.000405
293.15	0.6002	0.013613	0.000388
293.15	0.6994	0.012843	0.000368
293.15	0.7995	0.012683	0.000364
293.15	0.8997	0.012132	0.00035
293.15	1	0.011635	0.000338
298.15	0	0.013721	0.00039
298.15	0.1002	0.013428	0.000383
298.15	0.1996	0.012834	0.000368
298.15	0.3004	0.012555	0.000361
298.15	0.4001	0.011977	0.000346
298.15	0.5	0.011524	0.000335
298.15	0.6002	0.01132	0.00033
298.15	0.6994	0.010549	0.00031
298.15	0.7995	0.010354	0.000305
298.15	0.8997	0.009929	0.000295
298.15	1	0.009519	0.000284
303.15	0	0.011524	0.000335
303.15	0.1002	0.011155	0.000326
303.15	0.1996	0.010732	0.000315
303.15	0.3004	0.010366	0.000306
303.15	0.4001	0.009973	0.000296
303.15	0.5	0.009577	0.000286
303.15	0.6002	0.0092	0.000276
303.15	0.6994	0.008746	0.000265
303.15	0.7995	0.008272	0.000253
303.15	0.8997	0.008195	0.000251
303.15	1	0.007806	0.000241
308.15	0	0.00935	0.00028
308.15	0.1002	0.009247	0.000277
308.15	0.1996	0.008926	0.000269
308.15	0.3004	0.008681	0.000263
308.15	0.4001	0.008333	0.000254
308.15	0.5	0.008014	0.000246
308.15	0.6002	0.00771	0.000239
308.15	0.6994	0.007333	0.000229
308.15	0.7995	0.007133	0.000224
308.15	0.8988	0.006897	0.000218
308.15	1	0.006604	0.000211
313.15	0	0.007841	0.000242
313.15	0.1002	0.007609	0.000236
313.15	0.1996	0.007373	0.00023
313.15	0.3004	0.007298	0.000228
313.15	0.4001	0.00704	0.000222
313.15	0.5	0.006872	0.000217
313.15	0.6002	0.006627	0.000211
313.15	0.6994	0.006267	0.000202
313.15	0.7995	0.006138	0.000199
313.15	0.8997	0.00593	0.000194
313.15	1	0.005668	0.000187

System: 1-undecanol + nonan-1-ol; phases: Liquid
Fixed: Pressure, kPa = 101
Property: Mass density, kg/m3 (Liquid); method: VIBTUB:UFactor:4
Temperature, K	Mole fraction of nonan-1-ol	Mass density, kg/m3	uncertainty
293.15	0	832.2	0.9
293.15	0.1002	831.7	0.9
293.15	0.1996	831.3	0.9
293.15	0.3004	830.9	0.9
293.15	0.4001	830.6	0.9
293.15	0.5	830.2	0.9
293.15	0.6002	829.8	0.9
293.15	0.6994	830.1	0.9
293.15	0.7995	829.1	0.9
293.15	0.8997	828.4	0.9
293.15	1	828.1	0.9
298.15	0	828.8	0.9
298.15	0.1002	828.3	0.9
298.15	0.1996	827.9	0.9
298.15	0.3004	827.5	0.9
298.15	0.4001	827.2	0.9
298.15	0.5	826.8	0.9
298.15	0.6002	826.4	0.9
298.15	0.6994	826.6	0.9
298.15	0.7995	825.6	0.9
298.15	0.8997	825	0.9
298.15	1	824.7	0.9
303.15	0	825.4	0.9
303.15	0.1002	824.9	0.9
303.15	0.1996	824.5	0.9
303.15	0.3004	824.1	0.9
303.15	0.4001	823.8	0.9
303.15	0.5	823.4	0.9
303.15	0.6002	823	0.9
303.15	0.6994	823.2	0.9
303.15	0.7995	822.2	0.9
303.15	0.8997	821.5	0.9
303.15	1	821.3	0.9
308.15	0	821.7	0.9
308.15	0.1002	821.5	0.9
308.15	0.1996	821.1	0.9
308.15	0.3004	820.7	0.9
308.15	0.4001	820.3	0.9
308.15	0.5	819.9	0.9
308.15	0.6002	819.5	0.9
308.15	0.6994	819.7	0.9
308.15	0.7995	818.8	0.9
308.15	0.8988	818.1	0.9
308.15	1	817.8	0.9
313.15	0	818.6	0.9
313.15	0.1002	818.1	0.9
313.15	0.1996	817.7	0.9
313.15	0.3004	817.3	0.9
313.15	0.4001	816.9	0.9
313.15	0.5	816.5	0.9
313.15	0.6002	816.1	0.9
313.15	0.6994	816.3	0.9
313.15	0.7995	815.3	0.9
313.15	0.8997	814.6	0.9
313.15	1	814.3	0.9

System: decan-1-ol + 1-undecanol; phases: Liquid
Fixed: Pressure, kPa = 101
Property: Viscosity, Pa*s (Liquid); method: CAPTUB:UFactor:6
Temperature, K	Mole fraction of decan-1-ol	Viscosity, Pa*s	uncertainty
293.15	0	0.017284	0.000481
293.15	0.1007	0.016877	0.000467
293.15	0.1997	0.016681	0.00046
293.15	0.2999	0.016141	0.000443
293.15	0.3998	0.016077	0.000439
293.15	0.4997	0.015594	0.000425
293.15	0.5978	0.015593	0.000423
293.15	0.6999	0.015281	0.000414
293.15	0.7989	0.014498	0.000393
293.15	0.8995	0.014757	0.000398
293.15	1	0.014387	0.000388
298.15	0	0.013721	0.00039
298.15	0.1007	0.01352	0.000383
298.15	0.1997	0.013306	0.000375
298.15	0.2999	0.013227	0.000371
298.15	0.3998	0.01288	0.000361
298.15	0.4997	0.012791	0.000357
298.15	0.5978	0.012576	0.00035
298.15	0.6999	0.012352	0.000343
298.15	0.7989	0.012116	0.000336
298.15	0.8995	0.011977	0.000332
298.15	1	0.011735	0.000325
303.15	0	0.011524	0.000335
303.15	0.1007	0.011268	0.000326
303.15	0.1997	0.011084	0.00032
303.15	0.2999	0.010893	0.000314
303.15	0.3998	0.010695	0.000307
303.15	0.4997	0.010513	0.000301
303.15	0.5978	0.010337	0.000296
303.15	0.6999	0.01014	0.00029
303.15	0.7989	0.009958	0.000284
303.15	0.8995	0.009777	0.000279
303.15	1	0.009561	0.000273
308.15	0	0.00935	0.00028
308.15	0.1007	0.009368	0.000279
308.15	0.1997	0.009233	0.000274
308.15	0.2999	0.009057	0.000268
308.15	0.3998	0.008909	0.000263
308.15	0.4997	0.00876	0.000259
308.15	0.5978	0.008652	0.000255
308.15	0.6999	0.008504	0.00025
308.15	0.7989	0.008357	0.000246
308.15	0.8995	0.008185	0.000241
308.15	1	0.008	0.000236
313.15	0	0.007841	0.000242
313.15	0.1007	0.007805	0.00024
313.15	0.1997	0.007778	0.000238
313.15	0.2999	0.007655	0.000234
313.15	0.3998	0.007579	0.000231
313.15	0.4997	0.007452	0.000227
313.15	0.5978	0.007323	0.000223
313.15	0.6999	0.007249	0.00022
313.15	0.7989	0.007068	0.000215
313.15	0.8995	0.00694	0.000211
313.15	1	0.006831	0.000208

System: decan-1-ol + 1-undecanol; phases: Liquid
Fixed: Pressure, kPa = 101
Property: Mass density, kg/m3 (Liquid); method: VIBTUB:UFactor:4
Temperature, K	Mole fraction of decan-1-ol	Mass density, kg/m3	uncertainty
293.15	0	832.2	0.9
293.15	0.1007	832	0.9
293.15	0.1997	831.5	0.9
293.15	0.2999	831.4	0.8
293.15	0.3998	831.2	0.8
293.15	0.4997	831	0.7
293.15	0.5978	830.8	0.7
293.15	0.6999	830.5	0.7
293.15	0.7989	830.4	0.6
293.15	0.8995	830.1	0.6
293.15	1	829.9	0.6
298.15	0	828.8	0.9
298.15	0.1007	828.7	0.9
298.15	0.1997	828.1	0.9
298.15	0.2999	828	0.8
298.15	0.3998	827.8	0.8
298.15	0.4997	827.6	0.7
298.15	0.5978	827.4	0.7
298.15	0.6999	827.1	0.7
298.15	0.7989	827	0.6
298.15	0.8995	826.8	0.6
298.15	1	826.5	0.6
303.15	0	825.4	0.9
303.15	0.1007	825.2	0.9
303.15	0.1997	824.8	0.9
303.15	0.2999	824.6	0.8
303.15	0.3998	824.4	0.8
303.15	0.4997	824.2	0.7
303.15	0.5978	824	0.7
303.15	0.6999	823.7	0.7
303.15	0.7989	823.5	0.6
303.15	0.8995	823.3	0.6
303.15	1	823	0.6
308.15	0	821.7	0.9
308.15	0.1007	821.6	0.9
308.15	0.1997	821.4	0.9
308.15	0.2999	821.2	0.8
308.15	0.3998	821	0.8
308.15	0.4997	820.8	0.7
308.15	0.5978	820.6	0.7
308.15	0.6999	820.3	0.7
308.15	0.7989	820.2	0.6
308.15	0.8995	819.9	0.6
308.15	1	819.6	0.6
313.15	0	818.6	0.9
313.15	0.1007	818.2	0.9
313.15	0.1997	818	0.9
313.15	0.2999	817.8	0.8
313.15	0.3998	817.5	0.8
313.15	0.4997	817.3	0.7
313.15	0.5978	817.1	0.7
313.15	0.6999	816.9	0.7
313.15	0.7989	816.7	0.6
313.15	0.8995	816.5	0.6
313.15	1	816.3	0.6
