Measured thermophysical data. Excess Molar Volumes and Viscosities for Binary Mixtures of Cyclohexanone with Methacrylic Acid, Benzyl Methacrylate, and 2-Hydroxyethyl Methacrylate at (298.15, 308.15, and 318.15) K
Source: J. Chem. Eng. Data, 2006, 10.1021/je0502389
Compound 1: cyclohexanone, C6H10O, InChI=1S/C6H10O/c7-6-4-2-1-3-5-6/h1-5H2, purity 99.5%
Compound 2: 2-methyl-2-propenoic acid, C4H6O2, InChI=1S/C4H6O2/c1-3(2)4(5)6/h1H2,2H3,(H,5,6), purity 99.5%
Compound 3: benzyl methacrylate, C11H12O2, InChI=1S/C11H12O2/c1-9(2)11(12)13-8-10-6-4-3-5-7-10/h3-7H,1,8H2,2H3, purity 98%
Compound 4: 2-hydroxyethyl 2-methyl-2-propenoate, C6H10O3, InChI=1S/C6H10O3/c1-5(2)6(8)9-4-3-7/h7H,1,3-4H2,2H3, purity 98%

System: cyclohexanone; phases: Liquid
Fixed: Pressure, kPa = 101
Property: Viscosity, Pa*s (Liquid); method: CAPTUB:UFactor:2
Temperature, K	Viscosity, Pa*s	uncertainty
298.15	0.001974	4.5e-05
308.15	0.001632	3.8e-05
318.15	0.001373	3.2e-05

System: cyclohexanone; phases: Liquid
Fixed: Pressure, kPa = 101
Property: Mass density, kg/m3 (Liquid); method: Pycnometric method
Temperature, K	Mass density, kg/m3	uncertainty
298.15	942	2
308.15	933.4	2
318.15	924.2	2

System: 2-methyl-2-propenoic acid; phases: Liquid
Fixed: Pressure, kPa = 101
Property: Viscosity, Pa*s (Liquid); method: CAPTUB:UFactor:2
Temperature, K	Viscosity, Pa*s	uncertainty
298.15	0.001267	2.9e-05
308.15	0.001078	2.5e-05
318.15	0.000945	2.2e-05

System: 2-methyl-2-propenoic acid; phases: Liquid
Fixed: Pressure, kPa = 101
Property: Mass density, kg/m3 (Liquid); method: Pycnometric method
Temperature, K	Mass density, kg/m3	uncertainty
298.15	1009.5	1.3
308.15	999.4	1.3
318.15	989.2	1.3

System: benzyl methacrylate; phases: Liquid
Fixed: Pressure, kPa = 101
Property: Viscosity, Pa*s (Liquid); method: CAPTUB:UFactor:2
Temperature, K	Viscosity, Pa*s	uncertainty
298.15	0.002302	5.7e-05
308.15	0.001885	4.7e-05
318.15	0.00158	4e-05

System: benzyl methacrylate; phases: Liquid
Fixed: Pressure, kPa = 101
Property: Mass density, kg/m3 (Liquid); method: Pycnometric method
Temperature, K	Mass density, kg/m3	uncertainty
298.15	1034.7	2.4
308.15	1025.8	2.4
318.15	1017	2.4

System: 2-hydroxyethyl 2-methyl-2-propenoate; phases: Liquid
Fixed: Pressure, kPa = 101
Property: Viscosity, Pa*s (Liquid); method: CAPTUB:UFactor:8
Temperature, K	Viscosity, Pa*s	uncertainty
298.15	0.005784	0.000257
308.15	0.004194	0.000194
318.15	0.003181	0.000149

System: 2-hydroxyethyl 2-methyl-2-propenoate; phases: Liquid
Fixed: Pressure, kPa = 101
Property: Mass density, kg/m3 (Liquid); method: Pycnometric method
Temperature, K	Mass density, kg/m3	uncertainty
298.15	1067.1	2.5
308.15	1057.7	2.5
318.15	1048.6	2.5

System: cyclohexanone + benzyl methacrylate; phases: Liquid
Fixed: Pressure, kPa = 101
Property: Viscosity, Pa*s (Liquid); method: CAPTUB:UFactor:2
Temperature, K	Mole fraction of cyclohexanone	Viscosity, Pa*s	uncertainty
298.15	0	0.002302	5.7e-05
298.15	0.1	0.002208	5.4e-05
298.15	0.1999	0.002141	5.2e-05
298.15	0.3	0.002079	5e-05
298.15	0.3999	0.002038	4.9e-05
298.15	0.5	0.002002	4.7e-05
298.15	0.6	0.001972	4.6e-05
298.15	0.7	0.00195	4.6e-05
298.15	0.8	0.001943	4.5e-05
298.15	0.9	0.001934	4.5e-05
298.15	1	0.001974	4.5e-05
308.15	0	0.001885	4.7e-05
308.15	0.1	0.001816	4.5e-05
308.15	0.1999	0.001765	4.3e-05
308.15	0.3	0.001718	4.2e-05
308.15	0.3999	0.001687	4e-05
308.15	0.5	0.001656	3.9e-05
308.15	0.6	0.001632	3.9e-05
308.15	0.7	0.001617	3.8e-05
308.15	0.8	0.001602	3.7e-05
308.15	0.9	0.001589	3.7e-05
308.15	1	0.001632	3.8e-05
318.15	0	0.00158	4e-05
318.15	0.1	0.001519	3.8e-05
318.15	0.1999	0.001484	3.6e-05
318.15	0.3	0.001447	3.5e-05
318.15	0.3999	0.001422	3.4e-05
318.15	0.5	0.001398	3.3e-05
318.15	0.6	0.001383	3.3e-05
318.15	0.7	0.001369	3.2e-05
318.15	0.8	0.001356	3.2e-05
318.15	0.9	0.001348	3.1e-05
318.15	1	0.001373	3.2e-05

System: cyclohexanone + benzyl methacrylate; phases: Liquid
Fixed: Pressure, kPa = 101
Property: Mass density, kg/m3 (Liquid); method: Pycnometric method
Temperature, K	Mole fraction of cyclohexanone	Mass density, kg/m3	uncertainty
298.15	0	1034.7	2.4
298.15	0.1	1031.8	2.4
298.15	0.1999	1026.2	2.3
298.15	0.3	1018.2	2.3
298.15	0.3999	1010	2.2
298.15	0.5	1000.9	2.2
298.15	0.6	990.9	2.2
298.15	0.7	980.8	2.1
298.15	0.8	969.5	2.1
298.15	0.9	957	2
298.15	1	942	2
308.15	0	1025.8	2.4
308.15	0.1	1022.7	2.4
308.15	0.1999	1017	2.3
308.15	0.3	1008.9	2.3
308.15	0.3999	1001.1	2.2
308.15	0.5	991.9	2.2
308.15	0.6	982.2	2.2
308.15	0.7	971.9	2.1
308.15	0.8	960.6	2.1
308.15	0.9	947.9	2
308.15	1	933.4	2
318.15	0	1017	2.4
318.15	0.1	1013.7	2.4
318.15	0.1999	1007.9	2.3
318.15	0.3	999.8	2.3
318.15	0.3999	992	2.2
318.15	0.5	982.8	2.2
318.15	0.6	972.8	2.1
318.15	0.7	962.8	2.1
318.15	0.8	951.5	2.1
318.15	0.9	939	2
318.15	1	924.2	2

System: cyclohexanone + 2-hydroxyethyl 2-methyl-2-propenoate; phases: Liquid
Fixed: Pressure, kPa = 101
Property: Viscosity, Pa*s (Liquid); method: CAPTUB:UFactor:8
Temperature, K	Mole fraction of cyclohexanone	Viscosity, Pa*s	uncertainty
298.15	0	0.005784	0.000257
298.15	0.1	0.005035	0.000229
298.15	0.2	0.00422	0.000193
298.15	0.3	0.003579	0.000165
298.15	0.4	0.003213	0.000148
298.15	0.5	0.002928	0.000135
298.15	0.6	0.002661	0.000123
298.15	0.6999	0.002319	0.000108
298.15	0.8	0.002089	9.8e-05
298.15	0.9	0.00206	9.6e-05
298.15	1	0.001974	9.2e-05
308.15	0	0.004194	0.000194
308.15	0.1	0.003747	0.000173
308.15	0.2	0.003184	0.000148
308.15	0.3	0.002768	0.000129
308.15	0.4	0.002512	0.000117
308.15	0.5	0.002282	0.000107
308.15	0.6	0.002045	9.6e-05
308.15	0.6999	0.001856	8.8e-05
308.15	0.8	0.001707	8.1e-05
308.15	0.9	0.001695	8e-05
308.15	1	0.001632	7.7e-05
318.15	0	0.003181	0.000149
318.15	0.1	0.002881	0.000135
318.15	0.2	0.002474	0.000116
318.15	0.3	0.0022	0.000104
318.15	0.4	0.002012	9.5e-05
318.15	0.5	0.001853	8.8e-05
318.15	0.6	0.001678	8e-05
318.15	0.6999	0.00154	7.4e-05
318.15	0.8	0.001439	6.9e-05
318.15	0.9	0.001421	6.8e-05
318.15	1	0.001373	6.6e-05

System: cyclohexanone + 2-hydroxyethyl 2-methyl-2-propenoate; phases: Liquid
Fixed: Pressure, kPa = 101
Property: Mass density, kg/m3 (Liquid); method: Pycnometric method
Temperature, K	Mole fraction of cyclohexanone	Mass density, kg/m3	uncertainty
298.15	0	1067.1	2.5
298.15	0.1	1058	2.4
298.15	0.2	1047.8	2.4
298.15	0.3	1036.4	2.3
298.15	0.4	1024.6	2.3
298.15	0.5	1012.4	2.2
298.15	0.6	999.5	2.2
298.15	0.6999	986.1	2.1
298.15	0.8	972.3	2.1
298.15	0.9	958.1	2
298.15	1	942	2
308.15	0	1057.7	2.5
308.15	0.1	1049.1	2.4
308.15	0.2	1039	2.4
308.15	0.3	1027.7	2.3
308.15	0.4	1015.9	2.3
308.15	0.5	1003.9	2.2
308.15	0.6	991.1	2.2
308.15	0.6999	977.8	2.1
308.15	0.8	963.8	2.1
308.15	0.9	949.5	2
308.15	1	933.4	2
318.15	0	1048.6	2.5
318.15	0.1	1040.5	2.4
318.15	0.2	1030.1	2.4
318.15	0.3	1018.8	2.3
318.15	0.4	1007.1	2.2
318.15	0.5	995	2.2
318.15	0.6	982.3	2.2
318.15	0.6999	969.1	2.1
318.15	0.8	955.1	2.1
318.15	0.9	940.5	2
318.15	1	924.2	2

System: 2-methyl-2-propenoic acid + cyclohexanone; phases: Liquid
Fixed: Pressure, kPa = 101
Property: Viscosity, Pa*s (Liquid); method: CAPTUB:UFactor:2
Temperature, K	Mole fraction of cyclohexanone	Viscosity, Pa*s	uncertainty
298.15	0	0.001267	2.9e-05
298.15	0.1	0.001369	3.2e-05
298.15	0.2	0.001528	3.5e-05
298.15	0.3	0.001659	3.8e-05
298.15	0.4	0.001809	4.2e-05
298.15	0.5	0.001901	4.4e-05
298.15	0.5999	0.001949	4.5e-05
298.15	0.7	0.001999	4.6e-05
298.15	0.8	0.002045	4.7e-05
298.15	0.9	0.002037	4.7e-05
298.15	1	0.001974	4.5e-05
308.15	0	0.001078	2.5e-05
308.15	0.1	0.001159	2.7e-05
308.15	0.2	0.001281	3e-05
308.15	0.3	0.001389	3.2e-05
308.15	0.4	0.001508	3.5e-05
308.15	0.5	0.001583	3.7e-05
308.15	0.5999	0.001616	3.7e-05
308.15	0.7	0.001651	3.8e-05
308.15	0.8	0.001683	3.9e-05
308.15	0.9	0.001684	3.9e-05
308.15	1	0.001632	3.8e-05
318.15	0	0.000945	2.2e-05
318.15	0.1	0.000999	2.3e-05
318.15	0.2	0.001101	2.6e-05
318.15	0.3	0.001183	2.7e-05
318.15	0.4	0.001275	3e-05
318.15	0.5	0.00133	3.1e-05
318.15	0.5999	0.001359	3.2e-05
318.15	0.7	0.001395	3.2e-05
318.15	0.8	0.001424	3.3e-05
318.15	0.9	0.001422	3.3e-05
318.15	1	0.001373	3.2e-05

System: 2-methyl-2-propenoic acid + cyclohexanone; phases: Liquid
Fixed: Pressure, kPa = 101
Property: Mass density, kg/m3 (Liquid); method: Pycnometric method
Temperature, K	Mole fraction of cyclohexanone	Mass density, kg/m3	uncertainty
298.15	0	1009.5	1.3
298.15	0.1	1002	1.3
298.15	0.2	994.9	1.3
298.15	0.3	988	1.2
298.15	0.4	981.5	1.2
298.15	0.5	975	1.2
298.15	0.5999	968.5	1.2
298.15	0.7	962	1.2
298.15	0.8	955.4	1.2
298.15	0.9	949.1	1.2
298.15	1	942	1.2
308.15	0	999.4	1.3
308.15	0.1	992.2	1.3
308.15	0.2	985.3	1.2
308.15	0.3	978.7	1.2
308.15	0.4	972.3	1.2
308.15	0.5	965.9	1.2
308.15	0.5999	959.5	1.2
308.15	0.7	953.2	1.2
308.15	0.8	946.8	1.2
308.15	0.9	940.5	1.2
308.15	1	933.4	1.2
318.15	0	989.2	1.3
318.15	0.1	982.3	1.3
318.15	0.2	975.6	1.2
318.15	0.3	969.3	1.2
318.15	0.4	963.1	1.2
318.15	0.5	956.7	1.2
318.15	0.5999	950.4	1.2
318.15	0.7	944.2	1.2
318.15	0.8	937.7	1.2
318.15	0.9	931.3	1.2
318.15	1	924.2	1.2
