Measured thermophysical data. Density and Viscosity of Aqueous Blends of Three Alkanolamines: N-Methyldiethanolamine, Diethanolamine, and 2-Amino-2-methyl-1-propanol in the Range of (303 to 343) K
Source: J. Chem. Eng. Data, 2006, 10.1021/je050462y
Compound 1: N-methyldiethanolamine, C5H13NO2, InChI=1S/C5H13NO2/c1-6(2-4-7)3-5-8/h7-8H,2-5H2,1H3, purity 99%
Compound 2: diethanolamine, C4H11NO2, InChI=1S/C4H11NO2/c6-3-1-5-2-4-7/h5-7H,1-4H2, purity 99.9%
Compound 3: 2-amino-2-methylpropan-1-ol, C4H11NO, InChI=1S/C4H11NO/c1-4(2,5)3-6/h6H,3,5H2,1-2H3, purity 95%
Compound 4: water, H2O, InChI=1S/H2O/h1H2

System: N-methyldiethanolamine; phases: Liquid
Fixed: Pressure, kPa = 101.325
Property: Mass density, kg/m3 (Liquid); method: VIBTUB:UFactor:4
Temperature, K	Mass density, kg/m3	uncertainty
313.15	1025	0.6
323.15	1017.4	0.6
333.15	1009.6	0.6

System: diethanolamine; phases: Liquid
Fixed: Pressure, kPa = 101.325
Property: Mass density, kg/m3 (Liquid); method: VIBTUB:UFactor:4
Temperature, K	Mass density, kg/m3	uncertainty
313.15	1084.7	0.3
323.15	1077.4	0.3
333.15	1070.3	0.3

System: 2-amino-2-methylpropan-1-ol; phases: Liquid
Fixed: Pressure, kPa = 101.325
Property: Mass density, kg/m3 (Liquid); method: VIBTUB:UFactor:4
Temperature, K	Mass density, kg/m3	uncertainty
313.15	917.2	0.6
323.15	909.2	0.6
333.15	900.7	0.6

System: N-methyldiethanolamine + water; phases: Liquid
Fixed: Pressure, kPa = 101
Fixed: Mass fraction of N-methyldiethanolamine = 0.5
Property: Viscosity, Pa*s (Liquid); method: Capillary tube (Ostwald; Ubbelohde) method
Temperature, K	Viscosity, Pa*s	uncertainty
303.15	0.00739	7e-05
313.15	0.00508	5e-05
323.15	0.00362	3e-05
333.15	0.00272	3e-05

System: N-methyldiethanolamine + water; phases: Liquid
Fixed: Pressure, kPa = 101
Fixed: Mass fraction of N-methyldiethanolamine = 0.3
Property: Mass density, kg/m3 (Liquid); method: VIBTUB:UFactor:4
Temperature, K	Mass density, kg/m3	uncertainty
313.15	1017.1	0.6
323.15	1011.5	0.6
333.15	1004.1	0.6

System: diethanolamine + water; phases: Liquid
Fixed: Pressure, kPa = 101
Fixed: Mass fraction of diethanolamine = 0.3
Property: Mass density, kg/m3 (Liquid); method: VIBTUB:UFactor:4
Temperature, K	Mass density, kg/m3	uncertainty
313.15	1026	0.5
323.15	1021.3	0.5
333.15	1014.4	0.4

System: N-methyldiethanolamine + diethanolamine + water; phases: Liquid
Fixed: Pressure, kPa = 101
Fixed: Mass fraction of N-methyldiethanolamine = 0.325
Fixed: Mass fraction of diethanolamine = 0.125
Property: Viscosity, Pa*s (Liquid); method: Capillary tube (Ostwald; Ubbelohde) method
Temperature, K	Viscosity, Pa*s	uncertainty
303.15	0.00578	6e-05
313.15	0.00402	5e-05
323.15	0.00295	3e-05
333.15	0.00224	3e-05

System: N-methyldiethanolamine + diethanolamine + water; phases: Liquid
Fixed: Pressure, kPa = 101
Fixed: Mass fraction of N-methyldiethanolamine = 0.325
Fixed: Mass fraction of diethanolamine = 0.125
Property: Mass density, kg/m3 (Liquid); method: VIBTUB:UFactor:4
Temperature, K	Mass density, kg/m3	uncertainty
303.15	1040.6	0.5
308.15	1037.7	0.5
313.15	1034.1	0.5
323.15	1027.6	0.5
333.15	1021.1	0.5
343.15	1014.5	0.5
