Measured thermophysical data. Solubility of Erythritol in Different Solvents
Source: J. Chem. Eng. Data, 2005, 10.1021/je0501033
Compound 1: meso-1,2,3,4-butanetetrol, C4H10O4, InChI=1S/C4H10O4/c5-1-3(7)4(8)2-6/h3-8H,1-2H2/t3-,4+
Compound 2: water, H2O, InChI=1S/H2O/h1H2
Compound 3: methanol, CH4O, InChI=1S/CH4O/c1-2/h2H,1H3
Compound 4: ethanol, C2H6O, InChI=1S/C2H6O/c1-2-3/h3H,2H2,1H3
Compound 5: acetone, C3H6O, InChI=1S/C3H6O/c1-3(2)4/h1-2H3

System: meso-1,2,3,4-butanetetrol + water; phases: Liquid, Crystal
Fixed: Pressure, kPa = 101.3
Property: Mass fraction of meso-1,2,3,4-butanetetrol (Liquid); method: gravimetrically
Temperature, K	Mass fraction of meso-1,2,3,4-butanetetrol	uncertainty
288.85	0.2987	0.0239
298.85	0.3579	0.0287
303.35	0.3966	0.0318
308.05	0.4319	0.0346
312.15	0.4646	0.0372
316.65	0.5073	0.0406
323.35	0.5587	0.0448
328.35	0.596	0.0478
332.85	0.6281	0.0504
338.15	0.6649	0.0534
346.2	0.723	0.0581
350.55	0.752	0.0605
354.25	0.7769	0.0626

System: methanol + meso-1,2,3,4-butanetetrol; phases: Liquid, Crystal
Fixed: Pressure, kPa = 101.3
Property: Mass fraction of meso-1,2,3,4-butanetetrol (Liquid); method: gravimetrically
Temperature, K	Mass fraction of meso-1,2,3,4-butanetetrol	uncertainty
287.35	0.01639	0.00131
291.15	0.01687	0.00135
294.65	0.01825	0.00146
297.95	0.02218	0.00178
302.25	0.02806	0.00225
307.65	0.03594	0.00288
310.25	0.03876	0.0031
313.5	0.04615	0.00369
318	0.0576	0.00461
320	0.06254	0.00501
322.75	0.07231	0.00579
327.35	0.08621	0.0069

System: ethanol + meso-1,2,3,4-butanetetrol; phases: Liquid, Crystal
Fixed: Pressure, kPa = 101.3
Property: Mass fraction of meso-1,2,3,4-butanetetrol (Liquid); method: gravimetrically
Temperature, K	Mass fraction of meso-1,2,3,4-butanetetrol	uncertainty
287.55	0.003464	0.000277
289.75	0.003719	0.000298
293.75	0.004213	0.000337
299.45	0.005547	0.000444
303.45	0.00832	0.000666
307.15	0.009519	0.000762
312.65	0.013456	0.001077
317.95	0.018095	0.001448
322.75	0.023567	0.001886
325.35	0.025738	0.00206
335.95	0.041785	0.003344
339.15	0.048504	0.003882

System: acetone + meso-1,2,3,4-butanetetrol; phases: Liquid, Crystal
Fixed: Pressure, kPa = 101.3
Property: Mass fraction of meso-1,2,3,4-butanetetrol (Liquid); method: gravimetrically
Temperature, K	Mass fraction of meso-1,2,3,4-butanetetrol	uncertainty
286.35	0.0003098	2.48e-05
292.05	0.000389	3.11e-05
296.55	0.0005487	4.39e-05
301.45	0.0008385	6.71e-05
305.05	0.0009286	7.43e-05
310.75	0.001301	0.0001041
314.75	0.0015262	0.0001221
318.15	0.0016889	0.0001352
321.45	0.0020689	0.0001656
324.45	0.0023393	0.0001872
328.35	0.0027474	0.0002199

System: ethanol + meso-1,2,3,4-butanetetrol + water; phases: Liquid, Crystal
Fixed: Pressure, kPa = 101.3
Property: Mass fraction of meso-1,2,3,4-butanetetrol (Liquid); method: gravimetrically
Solvent: Mass fraction of ethanol	Temperature, K	Mass fraction of meso-1,2,3,4-butanetetrol	uncertainty
0.2462	288.35	0.1856	0.0149
0.2462	293.95	0.2379	0.019
0.2462	297.65	0.2679	0.0214
0.2462	303.45	0.3168	0.0254
0.2462	309.75	0.3705	0.0297
0.2462	317.05	0.4351	0.0348
0.2462	321.25	0.4675	0.0374
0.2462	325.15	0.5016	0.0402
0.2462	332.95	0.5659	0.0454
0.4976	287.35	0.101	0.0081
0.4976	290.25	0.1216	0.0097
0.4976	293.55	0.136	0.0109
0.4976	297.85	0.1654	0.0132
0.4976	303.95	0.2083	0.0167
0.4976	310.35	0.2562	0.0205
0.4976	317.55	0.3205	0.0257
0.4976	326.35	0.3969	0.0318
0.4976	333.15	0.4592	0.0368
0.7491	286.15	0.03667	0.00293
0.7491	291.05	0.04659	0.00373
0.7491	294.95	0.05481	0.00439
0.7491	299.25	0.06819	0.00546
0.7491	305.85	0.09194	0.00736
0.7491	312.75	0.12358	0.00989
0.7491	319.95	0.16493	0.0132
0.7491	324.35	0.19516	0.01562
0.7491	329.15	0.23092	0.01848

System: methanol + meso-1,2,3,4-butanetetrol + water; phases: Liquid, Crystal
Fixed: Pressure, kPa = 101.3
Property: Mass fraction of meso-1,2,3,4-butanetetrol (Liquid); method: gravimetrically
Solvent: Mass fraction of methanol	Temperature, K	Mass fraction of meso-1,2,3,4-butanetetrol	uncertainty
0.2511	287.55	0.1852	0.0148
0.2511	293.05	0.2335	0.0187
0.2511	296.29	0.2562	0.0205
0.2511	299.15	0.2803	0.0224
0.2511	304.85	0.3279	0.0263
0.2511	309.95	0.372	0.0298
0.2511	315.25	0.4184	0.0335
0.2511	319.95	0.4622	0.037
0.2511	325.95	0.5136	0.0411
0.2511	329.55	0.5466	0.0438
0.4976	308.57	0.1156	0.0093
0.4976	314.45	0.1549	0.0124
0.4976	318.85	0.1825	0.0146
0.4976	322.35	0.2083	0.0167
0.4976	327.15	0.2461	0.0197
0.4976	332	0.2883	0.0231
0.4976	334.95	0.3147	0.0252
0.4976	337.15	0.337	0.027
0.4976	342.15	0.3841	0.0308
0.4976	347.15	0.4352	0.0349
0.7554	288.75	0.04874	0.0039
0.7554	294.75	0.0657	0.00526
0.7554	297.65	0.07691	0.00616
0.7554	301.4	0.08312	0.00665
0.7554	304.25	0.10327	0.00827
0.7554	308.95	0.12829	0.01027
0.7554	311.25	0.13478	0.01079
0.7554	314.45	0.1596	0.01277
0.7554	318.35	0.18973	0.01519
0.7554	322.15	0.22185	0.01776
0.7554	328.05	0.26586	0.02128
