Measured thermophysical data. Solubility Study of Methane and Ethane In Promising Physical Solvents for Natural Gas Sweetening Operations
Source: J. Chem. Eng. Data, 2006, 10.1021/je050172h
Compound 1: 2,5,8-trioxanonane, C6H14O3, InChI=1S/C6H14O3/c1-7-3-5-9-6-4-8-2/h3-6H2,1-2H3, purity 99%
Compound 2: 2,5,8,11-tetraoxadodecane, C8H18O4, InChI=1S/C8H18O4/c1-9-3-5-11-7-8-12-6-4-10-2/h3-8H2,1-2H3, purity 98%
Compound 3: 2,5,8,11,14-pentaoxapentadecane, C10H22O5, InChI=1S/C10H22O5/c1-11-3-5-13-7-9-15-10-8-14-6-4-12-2/h3-10H2,1-2H3, purity 99%
Compound 4: triethylene glycol monobutyl ether, C10H22O4, InChI=1S/C10H22O4/c1-2-3-5-12-7-9-14-10-8-13-6-4-11/h11H,2-10H2,1H3, purity 70%
Compound 5: N-formylmorpholine, C5H9NO2, InChI=1S/C5H9NO2/c7-5-6-1-3-8-4-2-6/h5H,1-4H2, purity 98%
Compound 6: methane, CH4, InChI=1S/CH4/h1H4, purity 99.999%
Compound 7: ethane, C2H6, InChI=1S/C2H6/c1-2/h1-2H3, purity 99.999%

System: methane + 2,5,8-trioxanonane; phases: Liquid, Gas
Fixed: Mole fraction of methane = 0
Property: Henry's Law constant (mole fraction scale), kPa of methane (Liquid); method: Chromatography
Temperature, K	Henry's Law constant (mole fraction scale), kPa of methane	uncertainty
298.15	40500	2000
313.15	41400	2100
333.15	43100	2200

System: methane + 2,5,8,11-tetraoxadodecane; phases: Liquid, Gas
Fixed: Mole fraction of methane = 0
Property: Henry's Law constant (mole fraction scale), kPa of methane (Liquid); method: Chromatography
Temperature, K	Henry's Law constant (mole fraction scale), kPa of methane	uncertainty
298.15	37300	1900
313.15	38200	1900
333.15	39400	2000

System: methane + 2,5,8,11,14-pentaoxapentadecane; phases: Liquid, Gas
Fixed: Mole fraction of methane = 0
Property: Henry's Law constant (mole fraction scale), kPa of methane (Liquid); method: Chromatography
Temperature, K	Henry's Law constant (mole fraction scale), kPa of methane	uncertainty
298.15	38100	1900
313.15	39700	2000
333.15	41200	2100

System: methane + triethylene glycol monobutyl ether; phases: Liquid, Gas
Fixed: Mole fraction of methane = 0
Property: Henry's Law constant (mole fraction scale), kPa of methane (Liquid); method: Chromatography
Temperature, K	Henry's Law constant (mole fraction scale), kPa of methane	uncertainty
298.15	38700	1900
313.15	41300	2100
333.15	45100	2300

System: methane + N-formylmorpholine; phases: Liquid, Gas
Fixed: Mole fraction of methane = 0
Property: Henry's Law constant (mole fraction scale), kPa of methane (Liquid); method: Chromatography
Temperature, K	Henry's Law constant (mole fraction scale), kPa of methane	uncertainty
298.15	164500	8200
313.15	162200	8100
333.15	161700	8100

System: ethane + 2,5,8-trioxanonane; phases: Liquid, Gas
Fixed: Mole fraction of ethane = 0
Property: Henry's Law constant (mole fraction scale), kPa of ethane (Liquid); method: Chromatography
Temperature, K	Henry's Law constant (mole fraction scale), kPa of ethane	uncertainty
298.15	8200	800
313.15	8500	900
333.15	9900	1000

System: ethane + 2,5,8,11-tetraoxadodecane; phases: Liquid, Gas
Fixed: Mole fraction of 2,5,8,11-tetraoxadodecane = 0
Property: Henry's Law constant (mole fraction scale), kPa of 2,5,8,11-tetraoxadodecane (Liquid); method: Chromatography
Temperature, K	Henry's Law constant (mole fraction scale), kPa of 2,5,8,11-tetraoxadodecane	uncertainty
298.15	4400	400
313.15	5100	500
333.15	6600	700

System: ethane + 2,5,8,11,14-pentaoxapentadecane; phases: Liquid, Gas
Fixed: Mole fraction of ethane = 0
Property: Henry's Law constant (mole fraction scale), kPa of ethane (Liquid); method: Chromatography
Temperature, K	Henry's Law constant (mole fraction scale), kPa of ethane	uncertainty
298.15	5900	600
313.15	7100	700
333.15	8400	800

System: ethane + triethylene glycol monobutyl ether; phases: Liquid, Gas
Fixed: Mole fraction of ethane = 0
Property: Henry's Law constant (mole fraction scale), kPa of ethane (Liquid); method: Chromatography
Temperature, K	Henry's Law constant (mole fraction scale), kPa of ethane	uncertainty
298.15	8000	800
313.15	8400	800
333.15	10000	1000

System: ethane + N-formylmorpholine; phases: Liquid, Gas
Fixed: Mole fraction of ethane = 0
Property: Henry's Law constant (mole fraction scale), kPa of ethane (Liquid); method: Chromatography
Temperature, K	Henry's Law constant (mole fraction scale), kPa of ethane	uncertainty
298.15	30300	3000
313.15	31900	3200
333.15	36200	3600
