Measured thermophysical data. Solubility of Rofecoxib in the Presence of Aqueous Solutions of Glycerol, Propylene Glycol, Ethanol, Span 20, Tween 80, and Sodium Lauryl Sulfate at (298.15, 303.15, and 308.15) K
Source: J. Chem. Eng. Data, 2005, 10.1021/je050276s
Compound 1: rofecoxib, C17H14O4S, InChI=1S/C17H14O4S/c1-22(19,20)14-9-7-12(8-10-14)15-11-21-17(18)16(15)13-5-3-2-4-6-13/h2-10H,11H2,1H3
Compound 2: glycerol, C3H8O3, InChI=1S/C3H8O3/c4-1-3(6)2-5/h3-6H,1-2H2
Compound 3: 1,2-propanediol, C3H8O2, InChI=1S/C3H8O2/c1-3(5)2-4/h3-5H,2H2,1H3
Compound 4: ethanol, C2H6O, InChI=1S/C2H6O/c1-2-3/h3H,2H2,1H3
Compound 5: sorbitan laurate, C18H34O6, InChI=1S/C18H34O6/c1-2-3-4-5-6-7-8-9-10-11-16(21)23-13-15(20)18-17(22)14(19)12-24-18/h14-15,17-20,22H,2-13H2,1H3/t14-,15+,17+,18+/m0/s1
Compound 6: sorbitan monooleate, C24H44O6, InChI=1S/C24H44O6/c1-2-3-4-5-6-7-8-9-10-11-12-13-14-15-16-17-22(27)29-19-21(26)24-23(28)20(25)18-30-24/h9-10,20-21,23-26,28H,2-8,11-19H2,1H3/b10-9-/t20-,21+,23+,24+/m0/s1
Compound 7: sodium dodecyl sulfate, C12H25NaO4S, InChI=1S/C12H26O4S.Na/c1-2-3-4-5-6-7-8-9-10-11-12-16-17(13,14)15;/h2-12H2,1H3,(H,13,14,15);/q;+1/p-1
Compound 8: water, H2O, InChI=1S/H2O/h1H2

System: glycerol + water + rofecoxib; phases: Liquid, Crystal
Fixed: Pressure, kPa = 101.325
Property: Mass concentration, kg/m3 of rofecoxib (Liquid); method: Chromatography
Temperature, K	Solvent: Mass fraction of glycerol	Mass concentration, kg/m3 of rofecoxib	uncertainty
298.15	0	0.0082	0.003
298.15	0.1	0.0121	0.003
298.15	0.2	0.0138	0.003
298.15	0.3	0.0158	0.003
298.15	0.4	0.0184	0.003
298.15	1	0.0706	0.0032
303.15	0	0.0094	0.003
303.15	0.1	0.0133	0.003
303.15	0.2	0.0152	0.003
303.15	0.3	0.0181	0.003
303.15	0.4	0.0221	0.003
303.15	1	0.0953	0.0031
308.15	0	0.0112	0.003
308.15	0.1	0.015	0.003
308.15	0.2	0.0174	0.003
308.15	0.3	0.0214	0.003
308.15	0.4	0.0255	0.003
308.15	1	0.1181	0.0037

System: 1,2-propanediol + water + rofecoxib; phases: Liquid, Crystal
Fixed: Pressure, kPa = 101.325
Property: Mass concentration, kg/m3 of rofecoxib (Liquid); method: Chromatography
Temperature, K	Solvent: Mass fraction of 1,2-propanediol	Mass concentration, kg/m3 of rofecoxib	uncertainty
298.15	0	0.0082	0.01
298.15	0.1	0.0203	0.01
298.15	0.2	0.0308	0.01
298.15	0.3	0.0486	0.01
298.15	0.4	0.0701	0.01
298.15	1	0.1708	0.01
303.15	0	0.0094	0.01
303.15	0.1	0.0251	0.01
303.15	0.2	0.036	0.01
303.15	0.3	0.06	0.01
303.15	0.4	0.0852	0.01
303.15	1	0.1906	0.0101
308.15	0	0.0112	0.01
308.15	0.1	0.0288	0.01
308.15	0.2	0.0421	0.01
308.15	0.3	0.0663	0.01
308.15	0.4	0.0975	0.01
308.15	1	0.2265	0.0101

System: ethanol + water + rofecoxib; phases: Liquid, Crystal
Fixed: Pressure, kPa = 101.325
Property: Mass concentration, kg/m3 of rofecoxib (Liquid); method: Chromatography
Temperature, K	Solvent: Mass fraction of ethanol	Mass concentration, kg/m3 of rofecoxib	uncertainty
298.15	0	0.0082	0.01
298.15	0.1	0.0234	0.01
298.15	0.2	0.0333	0.01
298.15	0.3	0.0821	0.01
298.15	0.4	0.2287	0.0105
298.15	1	0.3955	0.0127
303.15	0	0.0094	0.01
303.15	0.1	0.0353	0.01
303.15	0.2	0.054	0.01
303.15	0.3	0.1214	0.0103
303.15	0.4	0.3066	0.0107
303.15	1	0.5104	0.016
308.15	0	0.0112	0.01
308.15	0.1	0.0442	0.01
308.15	0.2	0.082	0.0102
308.15	0.3	0.1973	0.011
308.15	0.4	0.4187	0.0133
308.15	1	0.6243	0.0193

System: sorbitan laurate + water + rofecoxib; phases: Liquid, Crystal
Fixed: Pressure, kPa = 101.325
Property: Mass concentration, kg/m3 of rofecoxib (Liquid); method: Chromatography
Temperature, K	Solvent: Mass fraction of sorbitan laurate	Mass concentration, kg/m3 of rofecoxib	uncertainty
298.15	0	0.0082	0.003
298.15	0.01	0.0132	0.003
298.15	0.02	0.0148	0.003
298.15	0.05	0.0203	0.003
298.15	0.1	0.0442	0.003
303.15	0	0.0094	0.003
303.15	0.01	0.0147	0.003
303.15	0.02	0.0175	0.003
303.15	0.05	0.0252	0.003
303.15	0.1	0.0512	0.003
308.15	0	0.0112	0.003
308.15	0.01	0.0172	0.003
308.15	0.02	0.02	0.003
308.15	0.05	0.0304	0.003
308.15	0.1	0.0599	0.003

System: sorbitan monooleate + water + rofecoxib; phases: Liquid, Crystal
Fixed: Pressure, kPa = 101.325
Property: Mass concentration, kg/m3 of rofecoxib (Liquid); method: Chromatography
Temperature, K	Solvent: Mass fraction of sorbitan monooleate	Mass concentration, kg/m3 of rofecoxib	uncertainty
298.15	0	0.0082	0.004
298.15	0.01	0.0252	0.004
298.15	0.02	0.0312	0.004
298.15	0.05	0.0642	0.004
298.15	0.1	0.1464	0.0044
303.15	0	0.0094	0.004
303.15	0.01	0.0303	0.004
303.15	0.02	0.0384	0.004
303.15	0.05	0.0723	0.004
303.15	0.1	0.1583	0.0048
308.15	0	0.0112	0.004
308.15	0.01	0.0371	0.004
308.15	0.02	0.0486	0.004
308.15	0.05	0.0845	0.0041
308.15	0.1	0.1856	0.0057

System: sodium dodecyl sulfate + water + rofecoxib; phases: Liquid, Crystal
Fixed: Pressure, kPa = 101.325
Property: Mass concentration, kg/m3 of rofecoxib (Liquid); method: Chromatography
Temperature, K	Solvent: Mass fraction of sodium dodecyl sulfate	Mass concentration, kg/m3 of rofecoxib	uncertainty
298.15	0	0.0082	0.01
298.15	0.01	0.1252	0.0103
298.15	0.02	0.1833	0.0102
298.15	0.05	0.4564	0.014
298.15	0.1	0.9374	0.0283
303.15	0	0.0094	0.01
303.15	0.01	0.1513	0.0103
303.15	0.02	0.2178	0.0105
303.15	0.05	0.5232	0.0164
303.15	0.1	1.0104	0.0307
308.15	0	0.0112	0.01
308.15	0.01	0.1905	0.0105
308.15	0.02	0.3136	0.011
308.15	0.05	0.6802	0.0211
308.15	0.1	1.1601	0.0354
