Measured thermophysical data. Activity Coefficients at Infinite Dilution of Cylcohexylamine + Octane, Toluene, Ethylbenzene, or Aniline and Excess Molar Volumes in Binary Mixtures of Cyclohexylamine + Heptane, Octane, Nonane, Decane, Undecane, Aniline, or Water
Source: J. Chem. Eng. Data, 2006, 10.1021/je050316s
Compound 1: cyclohexylamine, C6H13N, InChI=1S/C6H13N/c7-6-4-2-1-3-5-6/h6H,1-5,7H2
Compound 2: aniline, C6H7N, InChI=1S/C6H7N/c7-6-4-2-1-3-5-6/h1-5H,7H2
Compound 3: toluene, C7H8, InChI=1S/C7H8/c1-7-5-3-2-4-6-7/h2-6H,1H3
Compound 4: ethylbenzene, C8H10, InChI=1S/C8H10/c1-2-8-6-4-3-5-7-8/h3-7H,2H2,1H3
Compound 5: heptane, C7H16, InChI=1S/C7H16/c1-3-5-7-6-4-2/h3-7H2,1-2H3
Compound 6: octane, C8H18, InChI=1S/C8H18/c1-3-5-7-8-6-4-2/h3-8H2,1-2H3
Compound 7: nonane, C9H20, InChI=1S/C9H20/c1-3-5-7-9-8-6-4-2/h3-9H2,1-2H3
Compound 8: decane, C10H22, InChI=1S/C10H22/c1-3-5-7-9-10-8-6-4-2/h3-10H2,1-2H3
Compound 9: undecane, C11H24, InChI=1S/C11H24/c1-3-5-7-9-11-10-8-6-4-2/h3-11H2,1-2H3
Compound 10: water, H2O, InChI=1S/H2O/h1H2

System: cyclohexylamine; phases: Liquid, Gas
Property: Vapor or sublimation pressure, kPa (Liquid); method: EBULLIO::UFactor:6
Temperature, K	Vapor or sublimation pressure, kPa	uncertainty
333.15	7.51	0.5
363.15	25.59	0.58

System: cyclohexylamine; phases: Liquid
Property: Refractive index (Na D-line) (Liquid); method: Standard Abbe refractometry
Temperature, K	Pressure, kPa	Refractive index (Na D-line)	uncertainty
288.15	101.325	1.4624	0.0005

System: cyclohexylamine; phases: Liquid
Property: Mass density, kg/m3 (Liquid); method: VIBTUB:UFactor:2
Temperature, K	Pressure, kPa	Mass density, kg/m3	uncertainty
303.15	101.325	858.2	0.18

System: aniline; phases: Liquid
Property: Refractive index (Na D-line) (Liquid); method: Standard Abbe refractometry
Temperature, K	Pressure, kPa	Refractive index (Na D-line)	uncertainty
293.15	101.325	1.5862	0.0004

System: aniline; phases: Liquid
Fixed: Pressure, kPa = 101.325
Property: Mass density, kg/m3 (Liquid); method: VIBTUB:UFactor:2
Temperature, K	Mass density, kg/m3	uncertainty
293.15	1021.72	0.27
303.15	1012.94	0.27

System: toluene; phases: Liquid, Gas
Property: Vapor or sublimation pressure, kPa (Liquid); method: EBULLIO::UFactor:6
Temperature, K	Vapor or sublimation pressure, kPa	uncertainty
333.15	18.56	0.56
363.15	54.49	0.72

System: toluene; phases: Liquid
Property: Refractive index (Na D-line) (Liquid); method: Standard Abbe refractometry
Temperature, K	Pressure, kPa	Refractive index (Na D-line)	uncertainty
293.15	101.325	1.496	0.0004

System: toluene; phases: Liquid
Property: Mass density, kg/m3 (Liquid); method: VIBTUB:UFactor:2
Temperature, K	Pressure, kPa	Mass density, kg/m3	uncertainty
293.15	101.325	866.78	0.19

System: ethylbenzene; phases: Liquid
Property: Refractive index (Na D-line) (Liquid); method: Standard Abbe refractometry
Temperature, K	Pressure, kPa	Refractive index (Na D-line)	uncertainty
293.15	101.325	1.496	0.0004

System: ethylbenzene; phases: Liquid
Property: Mass density, kg/m3 (Liquid); method: VIBTUB:UFactor:2
Temperature, K	Pressure, kPa	Mass density, kg/m3	uncertainty
298.15	101.325	862.59	0.19

System: heptane; phases: Liquid
Property: Refractive index (Na D-line) (Liquid); method: Standard Abbe refractometry
Temperature, K	Pressure, kPa	Refractive index (Na D-line)	uncertainty
298.15	101.325	1.3853	0.0004

System: heptane; phases: Liquid
Fixed: Pressure, kPa = 101.325
Property: Mass density, kg/m3 (Liquid); method: VIBTUB:UFactor:2
Temperature, K	Mass density, kg/m3	uncertainty
298.15	679.43	0.44
303.15	675.32	0.44

System: octane; phases: Liquid
Property: Refractive index (Na D-line) (Liquid); method: Standard Abbe refractometry
Temperature, K	Pressure, kPa	Refractive index (Na D-line)	uncertainty
298.15	101.325	1.3946	0.0004

System: octane; phases: Liquid
Fixed: Pressure, kPa = 101.325
Property: Mass density, kg/m3 (Liquid); method: VIBTUB:UFactor:2
Temperature, K	Mass density, kg/m3	uncertainty
298.15	698.49	0.39
303.15	694.67	0.39

System: nonane; phases: Liquid
Property: Refractive index (Na D-line) (Liquid); method: Standard Abbe refractometry
Temperature, K	Pressure, kPa	Refractive index (Na D-line)	uncertainty
293.15	101.325	1.4055	0.0004

System: nonane; phases: Liquid
Fixed: Pressure, kPa = 101.325
Property: Mass density, kg/m3 (Liquid); method: VIBTUB:UFactor:2
Temperature, K	Mass density, kg/m3	uncertainty
293.15	719.13	0.38
303.15	710.05	0.38

System: decane; phases: Liquid
Property: Refractive index (Na D-line) (Liquid); method: Standard Abbe refractometry
Temperature, K	Pressure, kPa	Refractive index (Na D-line)	uncertainty
298.15	101.325	1.4092	0.0004

System: decane; phases: Liquid
Fixed: Pressure, kPa = 101.325
Property: Mass density, kg/m3 (Liquid); method: VIBTUB:UFactor:2
Temperature, K	Mass density, kg/m3	uncertainty
298.15	726.55	0.38
303.15	722.54	0.38

System: undecane; phases: Liquid
Property: Mass density, kg/m3 (Liquid); method: VIBTUB:UFactor:2
Temperature, K	Pressure, kPa	Mass density, kg/m3	uncertainty
293.15	101.325	740.11	0.28

System: undecane; phases: Liquid
Property: Refractive index (Na D-line) (Liquid); method: Standard Abbe refractometry
Temperature, K	Pressure, kPa	Refractive index (Na D-line)	uncertainty
293.15	101.325	1.4162	0.0004

System: undecane; phases: Liquid
Fixed: Pressure, kPa = 101.325
Property: Mass density, kg/m3 (Liquid); method: VIBTUB:UFactor:2
Temperature, K	Mass density, kg/m3	uncertainty
293.15	740.11	0.36
303.15	732.93	0.36

System: water; phases: Liquid
Property: Refractive index (Na D-line) (Liquid); method: Standard Abbe refractometry
Temperature, K	Pressure, kPa	Refractive index (Na D-line)	uncertainty
293.15	101.325	1.3336	0.0004

System: cyclohexylamine + water; phases: Liquid
Fixed: Temperature, K = 303.15
Fixed: Pressure, kPa = 101.325
Property: Mass density, kg/m3 (Liquid); method: VIBTUB:UFactor:2
Mole fraction of cyclohexylamine	Mass density, kg/m3	uncertainty
0	995.65	0.1
0.1002	956.7	0.15
0.197	935.34	0.16
0.2237	930.93	0.16
0.3021	919.43	0.17
0.397	908.71	0.18
0.5016	897.85	0.19
0.6037	888.39	0.2
0.6931	880.7	0.21
0.7801	873.76	0.21
0.9004	864.97	0.22
1	858.2	0.23

System: cyclohexylamine + heptane; phases: Liquid
Fixed: Temperature, K = 303.15
Fixed: Pressure, kPa = 101.325
Property: Mass density, kg/m3 (Liquid); method: VIBTUB:UFactor:2
Mole fraction of cyclohexylamine	Mass density, kg/m3	uncertainty
0	675.32	0.44
0.1009	689.34	0.43
0.1999	703.99	0.41
0.3006	719.71	0.39
0.3983	735.92	0.37
0.5	753.83	0.35
0.5999	772.37	0.33
0.6989	791.79	0.31
0.7996	812.68	0.28
0.8993	834.6	0.26
1	858.2	0.23

System: cyclohexylamine + octane; phases: Liquid, Gas
Fixed: Mole fraction of cyclohexylamine = 0
Property: Activity coefficient of cyclohexylamine (Liquid); method: Differential ebulliometry
Temperature, K	Activity coefficient of cyclohexylamine	uncertainty
353.15	1.61	0.1
373.15	1.5	0.09
393.15	1.42	0.09

System: cyclohexylamine + octane; phases: Liquid, Gas
Fixed: Mole fraction of octane = 0
Property: Activity coefficient of octane (Liquid); method: Differential ebulliometry
Temperature, K	Activity coefficient of octane	uncertainty
353.15	1.36	0.08
373.15	1.29	0.08
393.15	1.2	0.07

System: cyclohexylamine + octane; phases: Liquid
Fixed: Temperature, K = 303.15
Fixed: Pressure, kPa = 101.325
Property: Mass density, kg/m3 (Liquid); method: VIBTUB:UFactor:2
Mole fraction of cyclohexylamine	Mass density, kg/m3	uncertainty
0	694.67	0.39
0.1036	705.94	0.38
0.2003	717.44	0.37
0.3006	730.4	0.36
0.4085	745.58	0.34
0.5001	759.5	0.33
0.5991	775.85	0.31
0.6998	793.85	0.29
0.7503	803.55	0.28
0.8018	813.83	0.27
0.8502	823.95	0.27
1	858.2	0.23

System: cyclohexylamine + nonane; phases: Liquid
Fixed: Temperature, K = 303.15
Fixed: Pressure, kPa = 101.325
Property: Mass density, kg/m3 (Liquid); method: VIBTUB:UFactor:2
Mole fraction of cyclohexylamine	Mass density, kg/m3	uncertainty
0	710.05	0.38
0.0998	718.79	0.37
0.1994	728.47	0.36
0.301	739.41	0.35
0.401	751.43	0.34
0.4998	764.51	0.32
0.6006	779.38	0.31
0.7	795.69	0.29
0.7955	813.15	0.28
0.8999	834.62	0.26
1	858.2	0.23

System: cyclohexylamine + decane; phases: Liquid
Fixed: Temperature, K = 303.15
Fixed: Pressure, kPa = 101.325
Property: Mass density, kg/m3 (Liquid); method: VIBTUB:UFactor:2
Mole fraction of cyclohexylamine	Mass density, kg/m3	uncertainty
0	722.54	0.38
0.1004	729.74	0.37
0.2003	737.86	0.36
0.3002	746.97	0.35
0.3994	757.29	0.34
0.4998	768.9	0.32
0.5996	782.09	0.31
0.6996	797.14	0.29
0.8002	814.52	0.28
0.9006	834.67	0.26
1	858.2	0.23

System: cyclohexylamine + undecane; phases: Liquid
Fixed: Temperature, K = 303.15
Fixed: Pressure, kPa = 101.325
Property: Mass density, kg/m3 (Liquid); method: VIBTUB:UFactor:2
Mole fraction of cyclohexylamine	Mass density, kg/m3	uncertainty
0	732.93	0.36
0.1	738.82	0.35
0.2172	747	0.34
0.3066	754.16	0.34
0.4011	762.69	0.33
0.5005	772.99	0.32
0.5997	784.83	0.3
0.7005	798.79	0.29
0.7998	814.98	0.27
0.8998	834.57	0.26
1	858.2	0.23

System: aniline + cyclohexylamine; phases: Liquid, Gas
Fixed: Mole fraction of cyclohexylamine = 0
Property: Activity coefficient of cyclohexylamine (Liquid); method: Differential ebulliometry
Temperature, K	Activity coefficient of cyclohexylamine	uncertainty
383.15	0.84	0.05
393.15	0.94	0.06
403.15	1.03	0.06

System: aniline + cyclohexylamine; phases: Liquid
Fixed: Temperature, K = 303.15
Fixed: Pressure, kPa = 101.325
Property: Mass density, kg/m3 (Liquid); method: VIBTUB:UFactor:2
Mole fraction of cyclohexylamine	Mass density, kg/m3	uncertainty
0	1012.94	0.27
0.1161	992.51	0.25
0.1936	979.58	0.23
0.281	965.35	0.22
0.3837	949.2	0.21
0.4907	932.82	0.21
0.5932	917.38	0.21
0.7087	900.24	0.21
0.7738	890.69	0.21
0.8759	875.75	0.22
1	858.2	0.23

System: toluene + cyclohexylamine; phases: Liquid, Gas
Fixed: Mole fraction of toluene = 0
Property: Activity coefficient of toluene (Liquid); method: Differential ebulliometry
Temperature, K	Activity coefficient of toluene	uncertainty
353.15	1.14	0.07
373.15	1.13	0.07
393.15	1.06	0.06

System: toluene + cyclohexylamine; phases: Liquid, Gas
Fixed: Mole fraction of cyclohexylamine = 0
Property: Activity coefficient of cyclohexylamine (Liquid); method: Differential ebulliometry
Temperature, K	Activity coefficient of cyclohexylamine	uncertainty
353.15	1.19	0.07
373.15	1.12	0.07

System: toluene + cyclohexylamine; phases: Liquid, Gas
Property: Vapor or sublimation pressure, kPa (Liquid); method: EBULLIO:UFactor:6
Mole fraction of toluene	Temperature, K	Vapor or sublimation pressure, kPa	uncertainty
0	333.15	7.51	0.5
0	363.15	25.59	0.58
0.081	363.15	28.53	0.6
0.095	333.15	8.78	0.51
0.185	363.15	31.66	0.62
0.242	363.15	33.58	0.63
0.251	333.15	10.71	0.52
0.301	363.15	35.48	0.64
0.305	333.15	11.43	0.52
0.37	363.15	37.47	0.65
0.374	333.15	12.27	0.53
0.449	363.15	39.89	0.66
0.457	333.15	13.16	0.53
0.522	363.15	41.97	0.67
0.535	333.15	13.99	0.53
0.603	363.15	44.29	0.69
0.623	333.15	14.94	0.54
0.718	363.15	47.42	0.72
0.798	363.15	49.63	0.72
0.799	333.15	16.76	0.55
0.903	363.15	52.41	0.76
1	333.15	18.56	0.56
1	363.15	54.49	0.72

System: toluene + cyclohexylamine; phases: Gas, Liquid
Property: Mole fraction of toluene (Gas); method: Titration method
Mole fraction of toluene	Temperature, K	Mole fraction of toluene	uncertainty
0	333.15	0	0.001
0	363.15	0	0.001
0.081	363.15	0.154	0.02
0.095	333.15	0.243	0.02
0.185	363.15	0.362	0.02
0.242	363.15	0.437	0.02
0.251	333.15	0.486	0.02
0.301	363.15	0.507	0.02
0.305	333.15	0.567	0.02
0.37	363.15	0.582	0.02
0.374	333.15	0.639	0.02
0.449	363.15	0.645	0.02
0.457	333.15	0.708	0.02
0.522	363.15	0.703	0.02
0.535	333.15	0.739	0.02
0.603	363.15	0.766	0.02
0.623	333.15	0.815	0.02
0.718	363.15	0.833	0.021
0.798	363.15	0.885	0.02
0.799	333.15	0.895	0.02
0.903	363.15	0.943	0.021
1	333.15	1	0.001
1	363.15	1	0.001

System: ethylbenzene + cyclohexylamine; phases: Liquid, Gas
Fixed: Mole fraction of ethylbenzene = 0
Property: Activity coefficient of ethylbenzene (Liquid); method: Differential ebulliometry
Temperature, K	Activity coefficient of ethylbenzene	uncertainty
353.15	1.18	0.07
373.15	1.16	0.07
393.15	1.13	0.07

System: ethylbenzene + cyclohexylamine; phases: Liquid, Gas
Fixed: Mole fraction of cyclohexylamine = 0
Property: Activity coefficient of cyclohexylamine (Liquid); method: Differential ebulliometry
Temperature, K	Activity coefficient of cyclohexylamine	uncertainty
353.15	1.13	0.07
373.15	1.09	0.07
393.15	1.06	0.06
