Measured thermophysical data. Compressed Liquid Densities and Excess Volumes for the Binary System CO2 + N,N-Dimethylformamide (DMF) from (313 to 363) K and Pressures up to 25 MPa
Source: J. Chem. Eng. Data, 2005, 10.1021/je050050p
Compound 1: carbon dioxide, CO2, InChI=1S/CO2/c2-1-3, purity 99.995%
Compound 2: dimethylformamide, C3H7NO, InChI=1S/C3H7NO/c1-4(2)3-5/h3H,1-2H3, purity 99.9%

System: dimethylformamide; phases: Liquid
Property: Mass density, kg/m3 (Liquid); method: Vibrating tube method
Temperature, K	Pressure, kPa	Mass density, kg/m3	uncertainty
313.12	1008	930.41	0.41
313.12	2010	931.09	0.41
313.12	3012	931.73	0.41
313.12	4008	932.38	0.41
313.12	5004	933.04	0.41
313.12	6002	933.68	0.41
313.12	7002	934.32	0.41
313.12	8004	934.97	0.41
313.12	9000	935.62	0.41
313.12	10004	936.27	0.41
313.12	11004	936.89	0.41
313.12	12004	937.51	0.41
313.12	13005	938.14	0.41
313.12	14007	938.78	0.41
313.12	15002	939.37	0.41
313.12	16012	940	0.41
313.12	17009	940.59	0.41
313.12	18015	941.19	0.41
313.12	19010	941.79	0.41
313.12	20013	942.42	0.41
313.12	21009	942.99	0.41
313.12	22011	943.58	0.41
313.12	23019	944.17	0.41
313.12	24013	944.75	0.41
313.12	25011	945.35	0.41
323.06	1014	920.89	0.41
323.06	2007	921.59	0.41
323.06	3026	922.27	0.41
323.06	4006	922.95	0.41
323.06	5016	923.62	0.41
323.06	6010	924.3	0.41
323.06	7006	924.99	0.41
323.06	8010	925.64	0.41
323.06	9012	926.32	0.41
323.06	10014	926.99	0.41
323.06	11011	927.65	0.41
323.06	12013	928.31	0.41
323.06	13007	928.97	0.41
323.06	14011	929.62	0.41
323.06	15008	930.29	0.41
323.06	16014	930.92	0.41
323.06	17004	931.54	0.41
323.06	18006	932.19	0.41
323.06	19006	932.82	0.41
323.06	20005	933.44	0.41
323.06	21002	934.07	0.42
323.06	22013	934.7	0.42
323.06	23015	935.31	0.42
323.06	24008	935.92	0.42
323.06	25012	936.53	0.42
333	1008	911.34	0.41
333	2018	912.08	0.41
333	3006	912.78	0.41
333	4005	913.51	0.41
333	5005	914.23	0.41
333	6008	914.97	0.41
333	7003	915.68	0.41
333	8009	916.39	0.41
333	9010	917.11	0.41
333	10008	917.81	0.41
333	11008	918.51	0.41
333	12008	919.2	0.41
333	13013	919.9	0.41
333	14006	920.57	0.41
333	15007	921.24	0.41
333	16011	921.92	0.42
333	17019	922.59	0.42
333	18010	923.27	0.42
333	19004	923.91	0.42
333	20012	924.58	0.42
333	21005	925.24	0.42
333	22005	925.88	0.42
333	23014	926.52	0.42
333	24009	927.19	0.42
333	25009	927.83	0.42
342.86	1028	901.52	0.41
342.86	2020	902.3	0.41
342.86	3015	903.09	0.41
342.86	4002	903.84	0.41
342.86	5035	904.63	0.41
342.86	6026	905.39	0.41
342.86	7013	906.13	0.41
342.86	8017	906.89	0.41
342.86	9024	907.66	0.41
342.86	10012	908.38	0.41
342.86	11048	909.14	0.41
342.86	11999	909.83	0.41
342.86	13018	910.6	0.42
342.86	14029	911.32	0.42
342.86	15007	912.03	0.42
342.86	15994	912.71	0.42
342.86	17041	913.47	0.42
342.86	18012	914.16	0.42
342.86	19006	914.85	0.42
342.86	20042	915.55	0.42
342.86	21025	916.22	0.42
342.86	22008	916.9	0.42
342.86	23079	917.63	0.42
342.86	24008	918.25	0.42
342.86	25017	918.93	0.42
352.8	1040	891.76	0.41
352.8	2009	892.57	0.41
352.8	3011	893.41	0.41
352.8	4020	894.22	0.41
352.8	5050	895.06	0.41
352.8	6060	895.78	0.41
352.8	6996	896.53	0.41
352.8	8008	897.34	0.41
352.8	9034	898.16	0.41
352.8	10019	898.93	0.42
352.8	11043	899.73	0.42
352.8	11998	900.45	0.42
352.8	13028	901.24	0.42
352.8	14015	901.99	0.42
352.8	15028	902.74	0.42
352.8	16000	903.48	0.42
352.8	17011	904.23	0.42
352.8	17999	904.96	0.42
352.8	19044	905.73	0.42
352.8	20050	906.43	0.42
352.8	21038	907.16	0.42
352.8	21955	907.8	0.42
352.8	23009	908.57	0.42
352.8	23996	909.27	0.43
352.8	25056	910.04	0.43
362.67	1058	882.04	0.41
362.67	2038	882.89	0.41
362.67	3044	883.77	0.41
362.67	4027	884.62	0.41
362.67	5068	885.54	0.41
362.67	6036	886.37	0.41
362.67	7025	887.22	0.41
362.67	8027	888.03	0.42
362.67	9045	888.9	0.42
362.67	10021	889.71	0.42
362.67	11024	890.55	0.42
362.67	11996	891.3	0.42
362.67	13061	892.19	0.42
362.67	14027	892.95	0.42
362.67	15025	893.73	0.42
362.67	15987	894.49	0.42
362.67	17050	895.32	0.42
362.67	18009	896.08	0.42
362.67	19041	896.85	0.42
362.67	20032	897.62	0.43
362.67	21035	898.36	0.43
362.67	22014	899.1	0.43
362.67	23018	899.87	0.43
362.67	24007	900.58	0.43
362.67	25016	901.35	0.43

System: dimethylformamide + carbon dioxide; phases: Liquid
Property: Mass density, kg/m3 (Liquid); method: Vibrating tube method
Mole fraction of carbon dioxide	Temperature, K	Pressure, kPa	Mass density, kg/m3	uncertainty
0.2876	313.15	4032	948.43	0.41
0.2876	313.15	5041	949.39	0.41
0.2876	313.15	6004	950.24	0.41
0.2876	313.15	6967	951.12	0.41
0.2876	313.15	8002	952.05	0.41
0.2876	313.15	9005	952.94	0.41
0.2876	313.15	10000	953.81	0.41
0.2876	313.15	11017	954.68	0.41
0.2876	313.15	12024	955.56	0.41
0.2876	313.15	13007	956.41	0.41
0.2876	313.15	14004	957.26	0.41
0.2876	313.15	15006	958.1	0.41
0.2876	313.15	15999	958.91	0.41
0.2876	313.15	17005	959.75	0.41
0.2876	313.15	18009	960.57	0.41
0.2876	313.15	19021	961.39	0.41
0.2876	313.15	20001	962.21	0.41
0.2876	313.15	21004	963	0.41
0.2876	313.15	22022	963.82	0.41
0.2876	313.15	23016	964.58	0.41
0.2876	313.15	23989	965.35	0.41
0.2876	313.15	25004	966.15	0.41
0.2876	323.15	5022	937.32	0.41
0.2876	323.15	6019	938.29	0.41
0.2876	323.15	7007	939.23	0.41
0.2876	323.15	8008	940.16	0.41
0.2876	323.15	9023	941.14	0.41
0.2876	323.15	10001	942.04	0.41
0.2876	323.15	11006	942.98	0.41
0.2876	323.15	12003	943.9	0.41
0.2876	323.15	13004	944.81	0.41
0.2876	323.15	14005	945.73	0.41
0.2876	323.15	14999	946.61	0.41
0.2876	323.15	15994	947.48	0.41
0.2876	323.15	17022	948.41	0.41
0.2876	323.15	17996	949.25	0.41
0.2876	323.15	19004	950.13	0.41
0.2876	323.15	20021	950.99	0.41
0.2876	323.15	21018	951.84	0.41
0.2876	323.15	22030	952.68	0.41
0.2876	323.15	23007	953.51	0.41
0.2876	323.15	24019	954.35	0.41
0.2876	323.15	25012	955.16	0.41
0.2876	332.99	6007	926.13	0.41
0.2876	332.99	6998	927.15	0.41
0.2876	332.99	7991	928.18	0.41
0.2876	332.99	9021	929.22	0.41
0.2876	332.99	10024	930.23	0.41
0.2876	332.99	11006	931.19	0.41
0.2876	332.99	12020	932.19	0.41
0.2876	332.99	13024	933.16	0.41
0.2876	332.99	14028	934.12	0.41
0.2876	332.99	15010	935.07	0.41
0.2876	332.99	16010	936.01	0.41
0.2876	332.99	17003	936.96	0.41
0.2876	332.99	18005	937.87	0.41
0.2876	332.99	19008	938.78	0.41
0.2876	332.99	20007	939.69	0.41
0.2876	332.99	21004	940.6	0.41
0.2876	332.99	21990	941.48	0.41
0.2876	332.99	23037	942.42	0.41
0.2876	332.99	24000	943.28	0.41
0.2876	332.99	24996	944.13	0.41
0.2876	342.93	7012	914.85	0.41
0.2876	342.93	7999	915.95	0.41
0.2876	342.93	9007	917.04	0.41
0.2876	342.93	10005	918.13	0.41
0.2876	342.93	11003	919.16	0.41
0.2876	342.93	12011	920.23	0.41
0.2876	342.93	13016	921.27	0.41
0.2876	342.93	14012	922.31	0.41
0.2876	342.93	15013	923.35	0.41
0.2876	342.93	16000	924.33	0.41
0.2876	342.93	17024	925.34	0.41
0.2876	342.93	18001	926.31	0.41
0.2876	342.93	19036	927.32	0.42
0.2876	342.93	20015	928.27	0.42
0.2876	342.93	21009	929.23	0.42
0.2876	342.93	22027	930.22	0.42
0.2876	342.93	23002	931.1	0.42
0.2876	342.93	24027	932.06	0.42
0.2876	342.93	25009	932.97	0.42
0.2876	352.87	7031	902.49	0.41
0.2876	352.87	8016	903.63	0.41
0.2876	352.87	9024	904.79	0.41
0.2876	352.87	10027	905.96	0.41
0.2876	352.87	11011	907.05	0.41
0.2876	352.87	12022	908.2	0.41
0.2876	352.87	13022	909.31	0.42
0.2876	352.87	14004	910.39	0.42
0.2876	352.87	15013	911.48	0.42
0.2876	352.87	16013	912.56	0.42
0.2876	352.87	17044	913.64	0.42
0.2876	352.87	18012	914.66	0.42
0.2876	352.87	19015	915.7	0.42
0.2876	352.87	20024	916.74	0.42
0.2876	352.87	21004	917.74	0.42
0.2876	352.87	22030	918.79	0.42
0.2876	352.87	23027	919.77	0.42
0.2876	352.87	24021	920.77	0.42
0.2876	352.87	25022	921.74	0.42
0.2876	362.75	8032	891.2	0.41
0.2876	362.75	9018	892.47	0.41
0.2876	362.75	9986	893.65	0.42
0.2876	362.75	10994	894.89	0.42
0.2876	362.75	12000	896.09	0.42
0.2876	362.75	13037	897.35	0.42
0.2876	362.75	14023	898.48	0.42
0.2876	362.75	15039	899.66	0.42
0.2876	362.75	16011	900.77	0.42
0.2876	362.75	17019	901.92	0.42
0.2876	362.75	18012	903.04	0.42
0.2876	362.75	19006	904.14	0.42
0.2876	362.75	20035	905.27	0.42
0.2876	362.75	20994	906.3	0.42
0.2876	362.75	22029	907.43	0.42
0.2876	362.75	23004	908.45	0.42
0.2876	362.75	24034	909.57	0.42
0.2876	362.75	25002	910.55	0.43
0.4068	313.16	6028	955.07	0.41
0.4068	313.16	7010	956.12	0.41
0.4068	313.16	8028	957.19	0.41
0.4068	313.16	9005	958.24	0.41
0.4068	313.16	10041	959.33	0.41
0.4068	313.16	10994	960.3	0.41
0.4068	313.16	11990	961.32	0.41
0.4068	313.16	12989	962.33	0.41
0.4068	313.16	14027	963.34	0.41
0.4068	313.16	14992	964.31	0.41
0.4068	313.16	15994	965.3	0.41
0.4068	313.16	16994	966.27	0.41
0.4068	313.16	18006	967.25	0.41
0.4068	313.16	18978	968.19	0.41
0.4068	313.16	20043	969.19	0.41
0.4068	313.16	21020	970.1	0.41
0.4068	313.16	22002	970.98	0.41
0.4068	313.16	23059	971.98	0.41
0.4068	313.16	24032	972.87	0.41
0.4068	313.16	25024	973.76	0.41
0.4068	323.1	7058	942.59	0.41
0.4068	323.1	8007	943.65	0.41
0.4068	323.1	9034	944.82	0.41
0.4068	323.1	10001	945.91	0.41
0.4068	323.1	11013	947.04	0.41
0.4068	323.1	12000	948.11	0.41
0.4068	323.1	12998	949.23	0.41
0.4068	323.1	13979	950.27	0.41
0.4068	323.1	15004	951.37	0.41
0.4068	323.1	16001	952.41	0.41
0.4068	323.1	16989	953.45	0.41
0.4068	323.1	18017	954.51	0.41
0.4068	323.1	18998	955.51	0.41
0.4068	323.1	20005	956.52	0.41
0.4068	323.1	20986	957.5	0.41
0.4068	323.1	22021	958.56	0.41
0.4068	323.1	22998	959.49	0.41
0.4068	323.1	23987	960.47	0.41
0.4068	323.1	25057	961.5	0.41
0.4068	333	8029	930.01	0.41
0.4068	333	9016	931.23	0.41
0.4068	333	10008	932.42	0.41
0.4068	333	11025	933.65	0.41
0.4068	333	12006	934.81	0.41
0.4068	333	13019	936.04	0.41
0.4068	333	14010	937.15	0.41
0.4068	333	15002	938.28	0.41
0.4068	333	16010	939.41	0.41
0.4068	333	16998	940.54	0.41
0.4068	333	18013	941.67	0.41
0.4068	333	19008	942.75	0.41
0.4068	333	20008	943.81	0.41
0.4068	333	20981	944.88	0.41
0.4068	333	22001	945.96	0.41
0.4068	333	22996	947.02	0.41
0.4068	333	24013	948.07	0.41
0.4068	333	25001	949.09	0.41
0.4068	342.94	9055	917.41	0.41
0.4068	342.94	9984	918.63	0.41
0.4068	342.94	11061	920.01	0.41
0.4068	342.94	11996	921.23	0.41
0.4068	342.94	13050	922.57	0.41
0.4068	342.94	14076	923.82	0.41
0.4068	342.94	15011	925	0.41
0.4068	342.94	16021	926.2	0.41
0.4068	342.94	17029	927.42	0.41
0.4068	342.94	18001	928.58	0.41
0.4068	342.94	19026	929.79	0.41
0.4068	342.94	20073	931.01	0.41
0.4068	342.94	21008	932.09	0.41
0.4068	342.94	22005	933.21	0.42
0.4068	342.94	22992	934.31	0.42
0.4068	342.94	24049	935.49	0.42
0.4068	342.94	25062	936.61	0.42
0.4268	313.15	6005	955.61	0.41
0.4268	313.15	7013	956.75	0.41
0.4268	313.15	8008	957.9	0.41
0.4268	313.15	9014	958.99	0.41
0.4268	313.15	10006	960.05	0.41
0.4268	313.15	11017	961.14	0.41
0.4268	313.15	12006	962.22	0.41
0.4268	313.15	13004	963.25	0.41
0.4268	313.15	13997	964.28	0.41
0.4268	313.15	15003	965.36	0.41
0.4268	313.15	16007	966.35	0.41
0.4268	313.15	17000	967.35	0.41
0.4268	313.15	17994	968.36	0.41
0.4268	313.15	19017	969.38	0.41
0.4268	313.15	19994	970.35	0.41
0.4268	313.15	20983	971.33	0.41
0.4268	313.15	22024	972.32	0.41
0.4268	313.15	23020	973.26	0.41
0.4268	313.15	24016	974.2	0.41
0.4268	313.15	24996	975.14	0.41
0.4268	323.09	7005	942.62	0.41
0.4268	323.09	8007	943.86	0.41
0.4268	323.09	9005	944.97	0.41
0.4268	323.09	9996	946.2	0.41
0.4268	323.09	11020	947.43	0.41
0.4268	323.09	12000	948.52	0.41
0.4268	323.09	13035	949.74	0.41
0.4268	323.09	14007	950.83	0.41
0.4268	323.09	15007	951.95	0.41
0.4268	323.09	15987	952.99	0.41
0.4268	323.09	16984	954.11	0.41
0.4268	323.09	17998	955.17	0.41
0.4268	323.09	19040	956.31	0.41
0.4268	323.09	20050	957.38	0.41
0.4268	323.09	21048	958.44	0.41
0.4268	323.09	22041	959.46	0.41
0.4268	323.09	23037	960.49	0.41
0.4268	323.09	24061	961.52	0.41
0.4268	323.09	25036	962.52	0.41
0.4268	332.98	8015	929.54	0.41
0.4268	332.98	9023	930.86	0.41
0.4268	332.98	9996	932.09	0.41
0.4268	332.98	11004	933.37	0.41
0.4268	332.98	12004	934.65	0.41
0.4268	332.98	13005	935.88	0.41
0.4268	332.98	14003	937.07	0.41
0.4268	332.98	15006	938.28	0.41
0.4268	332.98	16024	939.46	0.41
0.4268	332.98	17036	940.67	0.41
0.4268	332.98	18017	941.85	0.41
0.4268	332.98	19025	943	0.41
0.4268	332.98	20004	944.1	0.41
0.4268	332.98	21001	945.19	0.41
0.4268	332.98	21993	946.33	0.41
0.4268	332.98	23015	947.45	0.41
0.4268	332.98	24114	948.62	0.41
0.4268	332.98	25061	949.68	0.41
0.4268	342.92	9047	916.56	0.41
0.4268	342.92	10045	917.97	0.41
0.4268	342.92	11042	919.28	0.41
0.4268	342.92	12037	920.66	0.41
0.4268	342.92	13020	921.93	0.41
0.4268	342.92	13997	923.27	0.41
0.4268	342.92	14981	924.53	0.41
0.4268	342.92	15991	925.79	0.41
0.4268	342.92	17002	927.11	0.41
0.4268	342.92	18025	928.36	0.41
0.4268	342.92	19044	929.6	0.41
0.4268	342.92	19999	930.83	0.41
0.4268	342.92	20984	931.96	0.41
0.4268	342.92	22002	933.2	0.42
0.4268	342.92	23042	934.44	0.42
0.4268	342.92	23981	935.53	0.42
0.4268	342.92	25047	936.75	0.42
0.4268	352.87	10008	903.63	0.41
0.4268	352.87	11005	905.13	0.42
0.4268	352.87	12055	906.66	0.42
0.4268	352.87	13027	908.06	0.42
0.4268	352.87	13995	909.43	0.42
0.4268	352.87	15002	910.84	0.42
0.4268	352.87	16029	912.27	0.42
0.4268	352.87	17030	913.63	0.42
0.4268	352.87	18010	914.96	0.42
0.4268	352.87	19003	916.29	0.42
0.4268	352.87	20032	917.62	0.42
0.4268	352.87	21047	918.93	0.42
0.4268	352.87	22005	920.15	0.42
0.4268	352.87	23001	921.41	0.42
0.4268	352.87	24014	922.68	0.42
0.4268	352.87	25024	923.93	0.43
0.4268	362.75	11002	890.57	0.42
0.4268	362.75	12008	892.17	0.42
0.4268	362.75	13010	893.74	0.43
0.4268	362.75	14000	895.32	0.43
0.4268	362.75	15027	896.84	0.43
0.4268	362.75	16015	898.33	0.43
0.4268	362.75	17017	899.81	0.43
0.4268	362.75	18013	901.24	0.43
0.4268	362.75	19024	902.72	0.43
0.4268	362.75	20028	904.14	0.43
0.4268	362.75	21039	905.51	0.43
0.4268	362.75	22014	906.89	0.43
0.4268	362.75	23027	908.24	0.44
0.4461	313.15	6022	956.18	0.41
0.4461	313.15	6991	957.31	0.41
0.4461	313.15	8024	958.53	0.41
0.4461	313.15	9006	959.66	0.41
0.4461	313.15	9998	960.8	0.41
0.4461	313.15	10989	961.9	0.41
0.4461	313.15	12025	963.02	0.41
0.4461	313.15	13003	964.12	0.41
0.4461	313.15	13999	965.2	0.41
0.4461	313.15	14993	966.26	0.41
0.4461	313.15	16006	967.34	0.41
0.4461	313.15	17007	968.38	0.41
0.4461	313.15	17985	969.42	0.41
0.4461	313.15	19015	970.46	0.41
0.4461	313.15	20007	971.48	0.41
0.4461	313.15	20996	972.47	0.41
0.4461	313.15	22022	973.5	0.41
0.4461	313.15	22993	974.47	0.41
0.4461	313.15	23996	975.45	0.41
0.4461	313.15	24992	976.41	0.41
0.4461	323.09	7062	942.94	0.41
0.4461	323.09	7958	944.11	0.41
0.4461	323.09	9022	945.39	0.41
0.4461	323.09	9998	946.6	0.41
0.4461	323.09	11005	947.83	0.41
0.4461	323.09	12039	949.09	0.41
0.4461	323.09	13002	950.23	0.41
0.4461	323.09	14007	951.42	0.41
0.4461	323.09	14996	952.54	0.41
0.4461	323.09	16001	953.67	0.41
0.4461	323.09	17004	954.83	0.41
0.4461	323.09	18000	955.98	0.41
0.4461	323.09	18994	957.05	0.41
0.4461	323.09	20031	958.19	0.41
0.4461	323.09	21020	959.24	0.41
0.4461	323.09	22029	960.34	0.41
0.4461	323.09	23008	961.38	0.41
0.4461	323.09	24019	962.44	0.41
0.4461	323.09	25007	963.48	0.41
0.4461	332.99	9011	930.78	0.41
0.4461	332.99	9993	931.95	0.41
0.4461	332.99	11013	933.65	0.41
0.4461	332.99	12003	934.9	0.41
0.4461	332.99	13012	936.18	0.41
0.4461	332.99	13991	937.43	0.41
0.4461	332.99	15009	938.71	0.41
0.4461	332.99	16010	939.93	0.41
0.4461	332.99	17001	941.16	0.41
0.4461	332.99	17994	942.35	0.41
0.4461	332.99	18988	943.52	0.41
0.4461	332.99	20001	944.69	0.41
0.4461	332.99	20995	945.88	0.41
0.4461	332.99	21998	947.03	0.41
0.4461	332.99	23023	948.19	0.41
0.4461	332.99	23982	949.27	0.41
0.4461	332.99	25021	950.44	0.41
0.4502	313.16	5026	955.28	0.41
0.4502	313.16	5988	956.32	0.41
0.4502	313.16	7004	957.42	0.41
0.4502	313.16	7999	958.57	0.41
0.4502	313.16	9031	959.69	0.41
0.4502	313.16	10012	960.79	0.41
0.4502	313.16	11036	961.92	0.41
0.4502	313.16	12022	963.01	0.41
0.4502	313.16	13014	964.13	0.41
0.4502	313.16	14015	965.19	0.41
0.4502	313.16	15005	966.24	0.41
0.4502	313.16	16019	967.32	0.41
0.4502	313.16	17003	968.34	0.41
0.4502	313.16	17999	969.4	0.41
0.4502	313.16	19033	970.43	0.41
0.4502	313.16	19978	971.41	0.41
0.4502	313.16	21007	972.47	0.41
0.4502	313.16	22023	973.48	0.41
0.4502	313.16	23040	974.49	0.41
0.4502	313.16	24007	975.45	0.41
0.4502	313.16	24995	976.42	0.41
0.4502	323.1	7005	942.87	0.41
0.4502	323.1	8009	944.1	0.41
0.4502	323.1	9003	945.32	0.41
0.4502	323.1	10005	946.57	0.41
0.4502	323.1	11002	947.78	0.41
0.4502	323.1	12012	948.99	0.41
0.4502	323.1	13022	950.22	0.41
0.4502	323.1	14010	951.35	0.41
0.4502	323.1	15007	952.52	0.41
0.4502	323.1	16010	953.67	0.41
0.4502	323.1	17008	954.76	0.41
0.4502	323.1	18013	955.9	0.41
0.4502	323.1	19001	956.99	0.41
0.4502	323.1	19996	958.07	0.41
0.4502	323.1	21010	959.2	0.41
0.4502	323.1	22004	960.27	0.41
0.4502	323.1	22997	961.32	0.41
0.4502	323.1	23995	962.39	0.41
0.4502	323.1	25019	963.43	0.41
0.4502	333	7019	928.11	0.41
0.4502	333	8001	929.45	0.41
0.4502	333	9015	930.81	0.41
0.4502	333	10013	932.14	0.41
0.4502	333	11006	933.42	0.41
0.4502	333	12004	934.74	0.41
0.4502	333	13021	936.04	0.41
0.4502	333	14019	937.31	0.41
0.4502	333	15001	938.54	0.41
0.4502	333	16014	939.78	0.41
0.4502	333	17013	941.01	0.41
0.4502	333	18021	942.21	0.41
0.4502	333	19006	943.4	0.41
0.4502	333	20021	944.58	0.41
0.4502	333	21001	945.74	0.41
0.4502	333	22027	946.9	0.41
0.4502	333	23019	948.04	0.41
0.4502	333	24013	949.18	0.41
0.4502	333	25015	950.28	0.41
0.4502	342.94	7029	913.19	0.41
0.4502	342.94	8013	914.64	0.41
0.4502	342.94	9011	916.09	0.41
0.4502	342.94	9999	917.51	0.41
0.4502	342.94	11025	918.98	0.41
0.4502	342.94	12004	920.36	0.41
0.4502	342.94	13007	921.76	0.41
0.4502	342.94	13993	923.08	0.41
0.4502	342.94	15025	924.49	0.41
0.4502	342.94	16028	925.84	0.41
0.4502	342.94	17002	927.13	0.41
0.4502	342.94	18035	928.51	0.41
0.4502	342.94	19023	929.75	0.41
0.4502	342.94	20023	931	0.41
0.4502	342.94	21013	932.27	0.41
0.4502	342.94	22036	933.51	0.42
0.4502	342.94	23032	934.76	0.42
0.4502	342.94	24003	935.89	0.42
0.4502	342.94	25041	937.14	0.42
0.6235	313.13	8014	949.79	0.41
0.6235	313.13	9041	952.04	0.41
0.6235	313.13	10057	954.25	0.41
0.6235	313.13	10998	956.28	0.41
0.6235	313.13	11991	958.34	0.41
0.6235	313.13	12985	960.34	0.41
0.6235	313.13	14000	962.36	0.41
0.6235	313.13	14996	964.28	0.41
0.6235	313.13	16016	966.23	0.41
0.6235	313.13	16993	968.02	0.41
0.6235	313.13	18006	969.86	0.41
0.6235	313.13	18988	971.7	0.41
0.6235	313.13	20033	973.47	0.41
0.6235	313.13	21061	975.25	0.41
0.6235	313.13	22021	976.88	0.41
0.6235	313.13	22996	978.52	0.41
0.6235	313.13	24001	980.14	0.41
0.6235	313.13	25034	981.79	0.41
0.6235	323.07	9001	928.72	0.41
0.6235	323.07	10031	931.44	0.41
0.6235	323.07	11013	933.93	0.42
0.6235	323.07	12042	936.47	0.42
0.6235	323.07	13033	938.86	0.41
0.6235	323.07	13992	941.1	0.41
0.6235	323.07	14972	943.31	0.41
0.6235	323.07	15993	945.57	0.41
0.6235	323.07	16998	947.71	0.41
0.6235	323.07	18015	949.84	0.41
0.6235	323.07	18988	951.84	0.41
0.6235	323.07	20012	953.89	0.41
0.6235	323.07	21005	955.83	0.41
0.6235	323.07	22029	957.78	0.41
0.6235	323.07	23012	959.63	0.41
0.6235	323.07	24020	961.47	0.41
0.6235	323.07	24979	963.24	0.41
0.6235	332.96	10005	907.82	0.42
0.6235	332.96	10991	910.93	0.42
0.6235	332.96	12056	913.98	0.42
0.6235	332.96	13000	916.59	0.42
0.6235	332.96	14042	919.37	0.42
0.6235	332.96	15010	921.91	0.42
0.6235	332.96	15997	924.4	0.42
0.6235	332.96	17030	926.91	0.42
0.6235	332.96	18038	929.31	0.42
0.6235	332.96	19028	931.63	0.42
0.6235	332.96	20027	933.85	0.42
0.6235	332.96	21009	936.05	0.42
0.6235	332.96	22009	938.17	0.42
0.6235	332.96	23042	940.35	0.42
0.6235	332.96	24041	942.44	0.42
0.6235	332.96	25008	944.38	0.42
0.6235	342.89	10992	886.15	0.43
0.6235	342.89	12012	889.74	0.43
0.6235	342.89	13020	893.05	0.43
0.6235	342.89	14010	896.16	0.47
0.6235	342.89	15018	899.25	0.43
0.6235	342.89	16005	902.14	0.43
0.6235	342.89	17023	905.02	0.43
0.6235	342.89	18015	907.74	0.43
0.6235	342.89	19032	910.42	0.43
0.6235	342.89	20044	913.05	0.43
0.6235	342.89	21008	915.46	0.43
0.6235	342.89	21997	917.87	0.43
0.6235	342.89	23022	920.31	0.43
0.6235	342.89	24005	922.57	0.43
0.6235	342.89	25050	924.92	0.43
0.6235	352.81	11994	863.79	0.44
0.6235	352.81	13017	868.11	0.44
0.6235	352.81	14003	871.85	0.44
0.6235	352.81	15051	875.54	0.44
0.6235	352.81	16021	878.85	0.44
0.6235	352.81	17011	882.12	0.44
0.6235	352.81	18025	885.31	0.44
0.6235	352.81	19034	888.42	0.44
0.6235	352.81	20027	891.37	0.44
0.6235	352.81	20969	894.02	0.44
0.6235	352.81	22044	897.02	0.44
0.6235	352.81	22987	899.54	0.44
0.6235	352.81	24010	902.21	0.44
0.6235	352.81	25062	904.9	0.44
0.6235	362.68	13997	842.98	0.45
0.6235	362.68	15019	847.62	0.45
0.6235	362.68	16021	851.83	0.45
0.6235	362.68	16992	855.82	0.5
0.6235	362.68	18022	859.78	0.46
0.6235	362.68	19000	863.4	0.46
0.6235	362.68	20047	867.1	0.46
0.6235	362.68	21057	870.49	0.45
0.6235	362.68	22005	873.58	0.45
0.6235	362.68	22981	876.69	0.45
0.6235	362.68	24005	879.78	0.46
0.6235	362.68	24998	882.71	0.46
0.8091	313.14	9015	920.03	0.42
0.8091	313.14	9992	923.92	0.42
0.8091	313.14	11003	927.79	0.42
0.8091	313.14	12022	931.54	0.42
0.8091	313.14	13011	934.99	0.42
0.8091	313.14	14003	938.37	0.42
0.8091	313.14	15006	941.63	0.42
0.8091	313.14	16000	944.75	0.41
0.8091	313.14	16988	947.8	0.41
0.8091	313.14	18019	950.82	0.41
0.8091	313.14	18996	953.63	0.41
0.8091	313.14	20032	956.51	0.41
0.8091	313.14	21035	959.25	0.41
0.8091	313.14	21995	961.81	0.41
0.8091	313.14	23033	964.52	0.41
0.8091	313.14	24015	966.98	0.41
0.8091	313.14	25006	969.42	0.44
0.8091	323.08	11047	888.99	0.43
0.8091	323.08	12004	893.47	0.44
0.8091	323.08	13042	898.2	0.43
0.8091	323.08	14006	902.33	0.43
0.8091	323.08	15005	906.31	0.43
0.8091	323.08	16016	910.13	0.43
0.8091	323.08	16989	913.66	0.43
0.8091	323.08	18023	917.28	0.43
0.8091	323.08	18997	920.57	0.42
0.8091	323.08	20018	923.89	0.42
0.8091	323.08	21002	927.01	0.42
0.8091	323.08	22041	930.23	0.42
0.8091	323.08	22980	933.13	0.42
0.8091	323.08	23989	936	0.42
0.8091	323.08	25049	939.12	0.42
0.8091	332.97	13046	858.28	0.75
0.8091	332.97	14016	863.75	0.45
0.8091	332.97	15002	869.06	0.45
0.8091	332.97	16027	874.28	0.44
0.8091	332.97	17017	879.06	0.44
0.8091	332.97	18042	883.74	0.44
0.8091	332.97	19003	887.97	0.44
0.8091	332.97	20021	892.23	0.44
0.8091	332.97	21029	896.31	0.44
0.8091	332.97	22019	900.16	0.44
0.8091	332.97	23004	903.83	0.43
0.8091	332.97	24041	907.6	0.43
0.8091	332.97	24998	910.97	0.43
0.8091	342.92	15061	832.64	0.8
0.8091	342.92	15988	839.54	0.47
0.8091	342.92	17027	845.55	0.46
0.8091	342.92	18016	851.1	0.46
0.8091	342.92	19028	856.53	0.46
0.8091	342.92	20057	861.77	0.45
0.8091	342.92	21012	866.52	0.45
0.8091	342.92	21992	871.08	0.45
0.8091	342.92	22999	875.54	0.45
0.8091	342.92	24029	879.9	0.45
0.8091	342.92	25020	883.99	0.45
0.8091	352.86	16031	799.4	0.48
0.8091	352.86	17002	806.61	0.49
0.8091	352.86	18047	814.2	0.48
0.8091	352.86	19050	820.88	0.48
0.8091	352.86	20005	827.13	0.48
0.8091	352.86	21045	833.27	0.48
0.8091	352.86	22052	839.08	0.47
0.8091	352.86	23029	844.25	0.47
0.8091	352.86	24015	849.31	0.47
0.8091	352.86	25051	854.32	0.46
0.8091	362.79	18033	777.33	0.83
0.8091	362.79	19005	784.9	0.51
0.8091	362.79	20003	792.49	0.5
0.8091	362.79	21014	799.75	0.5
0.8091	362.79	22017	806.5	0.5
0.8091	362.79	23043	813.1	0.5
0.8091	362.79	24052	819.28	0.49
0.8091	362.79	25083	825.05	0.51
0.9311	313.14	10006	835.47	0.47
0.9311	313.14	11013	846.13	0.47
0.9311	313.14	12041	855.75	0.46
0.9311	313.14	13017	864.01	0.45
0.9311	313.14	14036	871.87	0.45
0.9311	313.14	15031	878.95	0.44
0.9311	313.14	16006	885.43	0.44
0.9311	313.14	17030	891.82	0.44
0.9311	313.14	17988	897.48	0.44
0.9311	313.14	19037	903.28	0.43
0.9311	313.14	20022	908.47	0.43
0.9311	313.14	21000	913.41	0.43
0.9311	313.14	22002	918.23	0.43
0.9311	313.14	23016	922.92	0.43
0.9311	313.14	24006	927.35	0.43
0.9311	313.14	25020	931.7	0.43
0.9311	323.09	12017	797.65	0.5
0.9311	323.09	13010	810.33	0.49
0.9311	323.09	14016	821.48	0.48
0.9311	323.09	15005	831.25	0.47
0.9311	323.09	16036	840.41	0.47
0.9311	323.09	17025	848.46	0.46
0.9311	323.09	18021	855.96	0.46
0.9311	323.09	19034	863.06	0.45
0.9311	323.09	20010	869.5	0.45
0.9311	323.09	21029	875.82	0.45
0.9311	323.09	22009	881.6	0.45
0.9311	323.09	23050	887.36	0.44
0.9311	323.09	23995	892.39	0.44
0.9311	323.09	25056	897.78	0.44
0.9311	332.98	13019	744.38	0.56
0.9311	332.98	14011	761.83	0.54
0.9311	332.98	15009	776.41	0.52
0.9311	332.98	16030	789.22	0.51
0.9311	332.98	17017	800.11	0.5
0.9311	332.98	18002	809.93	0.49
0.9311	332.98	19031	819.29	0.48
0.9311	332.98	20025	827.57	0.48
0.9311	332.98	21030	835.37	0.47
0.9311	332.98	21994	842.35	0.47
0.9311	332.98	22998	849.15	0.47
0.9311	332.98	24024	855.75	0.46
0.9311	332.98	25011	861.78	0.46
0.9311	342.92	15034	711.76	0.59
0.9311	342.92	16002	729.81	0.57
0.9311	342.92	17015	745.62	0.55
0.9311	342.92	18024	759.3	0.53
0.9311	342.92	19002	770.95	0.52
0.9311	342.92	20000	781.74	0.51
0.9311	342.92	21034	791.87	0.51
0.9311	342.92	22002	800.53	0.5
0.9311	342.92	23014	809.02	0.5
0.9311	342.92	24017	816.82	0.49
0.9311	342.92	25008	824.06	0.49
0.9311	352.86	17024	684.5	0.61
0.9311	352.86	18005	702.67	0.59
0.9311	352.86	19028	718.94	0.57
0.9311	352.86	20001	732.41	0.56
0.9311	352.86	21006	744.94	0.55
0.9311	352.86	22024	756.39	0.54
0.9311	352.86	23012	766.47	0.53
0.9311	352.86	23999	775.83	0.53
0.9311	352.86	25019	784.81	0.52
0.9311	362.73	18005	641.86	0.66
0.9311	362.73	19024	662.81	0.64
0.9311	362.73	20021	680.44	0.61
0.9311	362.73	21028	696.02	0.6
0.9311	362.73	22008	709.54	0.58
0.9311	362.73	23017	722.12	0.57
0.9311	362.73	24029	733.65	0.57
0.9311	362.73	25019	744.01	0.56
