Measured thermophysical data. Densities and Viscosities of Diethyl Carbonate + Toluene, + Methanol, and + 2-Propanol from (293.15 to 363.15) K
Source: J. Chem. Eng. Data, 2006, 10.1021/je050414d
Compound 1: diethyl carbonate, C5H10O3, InChI=1S/C5H10O3/c1-3-7-5(6)8-4-2/h3-4H2,1-2H3
Compound 2: toluene, C7H8, InChI=1S/C7H8/c1-7-5-3-2-4-6-7/h2-6H,1H3
Compound 3: methanol, CH4O, InChI=1S/CH4O/c1-2/h2H,1H3
Compound 4: propan-2-ol, C3H8O, InChI=1S/C3H8O/c1-3(2)4/h3-4H,1-2H3

System: diethyl carbonate; phases: Liquid
Fixed: Pressure, kPa = 101
Property: Viscosity, Pa*s (Liquid); method: Capillary tube (Ostwald; Ubbelohde) method
Temperature, K	Viscosity, Pa*s	uncertainty
293.15	0.000801	8e-06
293.15	0.0008	8e-06
298.15	0.000746	8e-06
303.15	0.000695	8e-06
313.15	0.00061	7e-06
323.15	0.000541	7e-06
333.15	0.000483	7e-06
343.15	0.000435	7e-06
353.15	0.000393	7e-06
363.15	0.000358	7e-06

System: diethyl carbonate; phases: Liquid
Fixed: Pressure, kPa = 101
Property: Mass density, kg/m3 (Liquid); method: VIBTUB:UFactor:24
Temperature, K	Mass density, kg/m3	uncertainty
293.15	975	1.01
298.15	968.97	1.06
303.15	962.39	1.12
313.15	952.32	1.22
323.15	939.78	1.33
333.15	928.69	1.43
343.15	916.33	1.55
353.15	905.02	1.66
363.15	893.71	1.76

System: toluene; phases: Liquid
Fixed: Pressure, kPa = 101
Property: Viscosity, Pa*s (Liquid); method: Capillary tube (Ostwald; Ubbelohde) method
Temperature, K	Viscosity, Pa*s	uncertainty
298.15	0.000554	7e-06
303.15	0.000525	7e-06
313.15	0.00047	7e-06
323.15	0.000423	7e-06
333.15	0.000385	7e-06
343.15	0.00035	7e-06
353.15	0.00031	6e-06
363.15	0.000286	6e-06

System: toluene; phases: Liquid
Fixed: Pressure, kPa = 101
Property: Mass density, kg/m3 (Liquid); method: VIBTUB:UFactor:24
Temperature, K	Mass density, kg/m3	uncertainty
298.15	862.01	2.04
303.15	858.32	2.08
313.15	848.92	2.16
323.15	838.75	2.26
333.15	829.93	2.34
343.15	820.3	2.43
353.15	810.54	2.53
363.15	797.68	2.65

System: methanol; phases: Liquid
Fixed: Pressure, kPa = 101
Property: Viscosity, Pa*s (Liquid); method: Capillary tube (Ostwald; Ubbelohde) method
Temperature, K	Viscosity, Pa*s	uncertainty
293.15	0.000582	7e-06
298.15	0.00055	7e-06
303.15	0.000512	7e-06
313.15	0.000448	7e-06
323.15	0.000395	7e-06
333.15	0.000351	7e-06

System: methanol; phases: Liquid
Fixed: Pressure, kPa = 101
Property: Mass density, kg/m3 (Liquid); method: VIBTUB:UFactor:24
Temperature, K	Mass density, kg/m3	uncertainty
293.15	791.54	2.7
298.15	786.83	2.75
303.15	782.12	2.79
313.15	772.6	2.88
323.15	762.97	2.97
333.15	749.69	3.1

System: propan-2-ol; phases: Liquid
Fixed: Pressure, kPa = 101
Property: Viscosity, Pa*s (Liquid); method: Capillary tube (Ostwald; Ubbelohde) method
Temperature, K	Viscosity, Pa*s	uncertainty
293.15	0.002382	1.6e-05
298.15	0.002069	1.4e-05
303.15	0.001743	1.3e-05
313.15	0.001288	1e-05
323.15	0.001002	9e-06
333.15	0.000789	8e-06
343.15	0.000626	7e-06

System: propan-2-ol; phases: Liquid
Fixed: Pressure, kPa = 101
Property: Mass density, kg/m3 (Liquid); method: VIBTUB:UFactor:24
Temperature, K	Mass density, kg/m3	uncertainty
293.15	785.28	2.77
298.15	780.69	2.82
303.15	776.15	2.86
313.15	766.34	2.95
323.15	755.66	3.05
333.15	745.51	3.14
343.15	735.02	3.24

System: diethyl carbonate + toluene; phases: Liquid
Fixed: Pressure, kPa = 101
Property: Viscosity, Pa*s (Liquid); method: Capillary tube (Ostwald; Ubbelohde) method
Temperature, K	Mole fraction of diethyl carbonate	Viscosity, Pa*s	uncertainty
298.15	0	0.000554	7e-06
298.15	0.1014	0.000573	7e-06
298.15	0.1984	0.00059	7e-06
298.15	0.3006	0.000608	7e-06
298.15	0.4024	0.000627	7e-06
298.15	0.5212	0.000649	7e-06
298.15	0.6022	0.000664	7e-06
298.15	0.7016	0.000684	7e-06
298.15	0.7995	0.000702	7e-06
298.15	0.8975	0.000722	8e-06
298.15	1	0.000746	8e-06
303.15	0	0.000525	7e-06
303.15	0.1014	0.000542	7e-06
303.15	0.1984	0.000557	7e-06
303.15	0.3006	0.000573	7e-06
303.15	0.4024	0.00059	7e-06
303.15	0.5212	0.000609	7e-06
303.15	0.6022	0.000622	7e-06
303.15	0.7016	0.000639	7e-06
303.15	0.7995	0.000657	7e-06
303.15	0.8975	0.000674	7e-06
303.15	1	0.000695	8e-06
313.15	0	0.00047	7e-06
313.15	0.1014	0.000484	7e-06
313.15	0.1984	0.000497	7e-06
313.15	0.3006	0.00051	7e-06
313.15	0.4024	0.000523	7e-06
313.15	0.5212	0.000539	7e-06
313.15	0.6022	0.00055	7e-06
313.15	0.7016	0.000564	7e-06
313.15	0.7995	0.000579	7e-06
313.15	0.8975	0.000593	7e-06
313.15	1	0.00061	7e-06
323.15	0	0.000423	7e-06
323.15	0.1014	0.000434	7e-06
323.15	0.1984	0.000445	7e-06
323.15	0.3006	0.000457	7e-06
323.15	0.4024	0.000468	7e-06
323.15	0.5212	0.000481	7e-06
323.15	0.6022	0.000491	7e-06
323.15	0.7016	0.000503	7e-06
323.15	0.7995	0.000515	7e-06
323.15	0.8975	0.000527	7e-06
323.15	1	0.000541	7e-06
333.15	0	0.000385	7e-06
333.15	0.1014	0.000394	7e-06
333.15	0.1984	0.000403	7e-06
333.15	0.3006	0.000413	7e-06
333.15	0.4024	0.000422	7e-06
333.15	0.5212	0.000434	7e-06
333.15	0.6022	0.000442	7e-06
333.15	0.7016	0.000452	7e-06
333.15	0.7995	0.000461	7e-06
333.15	0.8975	0.000471	7e-06
333.15	1	0.000483	7e-06
343.15	0	0.00035	7e-06
343.15	0.1014	0.000358	7e-06
343.15	0.1984	0.000365	7e-06
343.15	0.3006	0.000373	7e-06
343.15	0.4024	0.000382	7e-06
343.15	0.5212	0.000391	7e-06
343.15	0.6022	0.000398	7e-06
343.15	0.7016	0.000407	7e-06
343.15	0.7995	0.000415	7e-06
343.15	0.8975	0.000425	7e-06
343.15	1	0.000435	7e-06
353.15	0	0.00031	6e-06
353.15	0.1014	0.000318	6e-06
353.15	0.1984	0.000326	6e-06
353.15	0.3006	0.000334	6e-06
353.15	0.4024	0.000342	7e-06
353.15	0.5212	0.000352	7e-06
353.15	0.6022	0.000358	7e-06
353.15	0.7016	0.000367	7e-06
353.15	0.7995	0.000375	7e-06
353.15	0.8975	0.000384	7e-06
353.15	1	0.000393	7e-06
363.15	0	0.000286	6e-06
363.15	0.1014	0.000293	6e-06
363.15	0.1984	0.0003	6e-06
363.15	0.3006	0.000306	6e-06
363.15	0.4024	0.000313	6e-06
363.15	0.5212	0.000322	6e-06
363.15	0.6022	0.000328	6e-06
363.15	0.7016	0.000336	7e-06
363.15	0.7995	0.000343	7e-06
363.15	0.8975	0.000351	7e-06
363.15	1	0.000358	7e-06

System: diethyl carbonate + toluene; phases: Liquid
Fixed: Pressure, kPa = 101
Property: Mass density, kg/m3 (Liquid); method: VIBTUB:UFactor:24
Temperature, K	Mole fraction of diethyl carbonate	Mass density, kg/m3	uncertainty
298.15	0	862.01	2.04
298.15	0.1014	874.5	1.92
298.15	0.1984	885.94	1.82
298.15	0.3006	897.67	1.71
298.15	0.4024	908.97	1.61
298.15	0.5212	921.72	1.49
298.15	0.6022	930.18	1.41
298.15	0.7016	940.28	1.32
298.15	0.7995	949.95	1.23
298.15	0.8975	959.36	1.15
298.15	1	968.97	1.06
303.15	0	858.32	2.08
303.15	0.1014	870.46	1.96
303.15	0.1984	881.62	1.86
303.15	0.3006	893.06	1.75
303.15	0.4024	904.06	1.65
303.15	0.5212	916.47	1.54
303.15	0.6022	924.71	1.46
303.15	0.7016	934.52	1.37
303.15	0.7995	943.93	1.29
303.15	0.8975	953.08	1.21
303.15	1	962.39	1.12
313.15	0	848.92	2.16
313.15	0.1014	860.95	2.05
313.15	0.1984	872.04	1.95
313.15	0.3006	883.39	1.84
313.15	0.4024	894.33	1.74
313.15	0.5212	906.66	1.63
313.15	0.6022	914.85	1.55
313.15	0.7016	924.6	1.46
313.15	0.7995	933.95	1.38
313.15	0.8975	943.04	1.3
313.15	1	952.32	1.22
323.15	0	838.75	2.26
323.15	0.1014	850.49	2.15
323.15	0.1984	861.33	2.05
323.15	0.3006	872.43	1.95
323.15	0.4024	883.11	1.85
323.15	0.5212	895.17	1.74
323.15	0.6022	903.16	1.66
323.15	0.7016	912.68	1.58
323.15	0.7995	921.81	1.49
323.15	0.8975	930.72	1.41
323.15	1	939.78	1.33
333.15	0	829.93	2.34
333.15	0.1014	841.39	2.24
333.15	0.1984	852.01	2.14
333.15	0.3006	862.85	2.04
333.15	0.4024	873.3	1.94
333.15	0.5212	885.09	1.83
333.15	0.6022	892.88	1.76
333.15	0.7016	902.2	1.67
333.15	0.7995	911.11	1.59
333.15	0.8975	919.81	1.51
333.15	1	928.69	1.43
343.15	0	820.3	2.43
343.15	0.1014	831.46	2.33
343.15	0.1984	841.79	2.23
343.15	0.3006	852.32	2.14
343.15	0.4024	862.48	2.04
343.15	0.5212	873.94	1.94
343.15	0.6022	881.51	1.87
343.15	0.7016	890.57	1.78
343.15	0.7995	899.24	1.7
343.15	0.8975	907.69	1.63
343.15	1	916.33	1.55
353.15	0	810.54	2.53
353.15	0.1014	821.53	2.43
353.15	0.1984	831.67	2.33
353.15	0.3006	842.02	2.23
353.15	0.4024	852.02	2.14
353.15	0.5212	863.29	2.04
353.15	0.6022	870.74	1.97
353.15	0.7016	879.66	1.89
353.15	0.7995	888.2	1.81
353.15	0.8975	896.52	1.73
353.15	1	905.02	1.66
363.15	0	797.68	2.65
363.15	0.1014	808.79	2.55
363.15	0.1984	819.07	2.45
363.15	0.3006	829.57	2.36
363.15	0.4024	839.71	2.26
363.15	0.5212	851.16	2.15
363.15	0.6022	858.77	2.08
363.15	0.7016	867.85	2
363.15	0.7995	876.55	1.92
363.15	0.8975	885.04	1.84
363.15	1	893.71	1.76

System: methanol + diethyl carbonate; phases: Liquid
Fixed: Pressure, kPa = 101
Property: Viscosity, Pa*s (Liquid); method: Capillary tube (Ostwald; Ubbelohde) method
Temperature, K	Mole fraction of diethyl carbonate	Viscosity, Pa*s	uncertainty
293.15	0	0.000582	7e-06
293.15	0.1045	0.000599	7e-06
293.15	0.2128	0.000622	7e-06
293.15	0.2835	0.000634	7e-06
293.15	0.4025	0.000655	7e-06
293.15	0.5161	0.000679	7e-06
293.15	0.6057	0.0007	7e-06
293.15	0.7015	0.000723	8e-06
293.15	0.8	0.000747	8e-06
293.15	0.8845	0.000772	8e-06
293.15	1	0.000801	8e-06
298.15	0	0.00055	7e-06
298.15	0.1045	0.000567	7e-06
298.15	0.2128	0.000588	7e-06
298.15	0.2835	0.000598	7e-06
298.15	0.4025	0.000616	7e-06
298.15	0.5161	0.000637	7e-06
298.15	0.6057	0.000656	7e-06
298.15	0.7015	0.000677	7e-06
298.15	0.8	0.000696	7e-06
298.15	0.8845	0.000715	8e-06
298.15	1	0.000746	8e-06
303.15	0	0.000512	7e-06
303.15	0.1045	0.000527	7e-06
303.15	0.2128	0.000546	7e-06
303.15	0.2835	0.000556	7e-06
303.15	0.4025	0.000573	7e-06
303.15	0.5161	0.000593	7e-06
303.15	0.6057	0.000611	7e-06
303.15	0.7015	0.00063	7e-06
303.15	0.8	0.000651	7e-06
303.15	0.8845	0.000671	7e-06
303.15	1	0.000695	8e-06
313.15	0	0.000448	7e-06
313.15	0.1045	0.000462	7e-06
313.15	0.2128	0.00048	7e-06
313.15	0.2835	0.00049	7e-06
313.15	0.4025	0.000503	7e-06
313.15	0.5161	0.000521	7e-06
313.15	0.6057	0.000537	7e-06
313.15	0.7015	0.000556	7e-06
313.15	0.8	0.000572	7e-06
313.15	0.8845	0.000587	7e-06
313.15	1	0.00061	7e-06
323.15	0	0.000395	7e-06
323.15	0.1045	0.000408	7e-06
323.15	0.2128	0.000424	7e-06
323.15	0.2835	0.000432	7e-06
323.15	0.4025	0.000444	7e-06
323.15	0.5161	0.000461	7e-06
323.15	0.6057	0.000477	7e-06
323.15	0.7015	0.000493	7e-06
323.15	0.8	0.000507	7e-06
323.15	0.8845	0.000523	7e-06
323.15	1	0.000541	7e-06
333.15	0	0.000351	7e-06
333.15	0.1045	0.000363	7e-06
333.15	0.2128	0.000376	7e-06
333.15	0.2835	0.000384	7e-06
333.15	0.4025	0.000397	7e-06
333.15	0.5161	0.00041	7e-06
333.15	0.6057	0.000426	7e-06
333.15	0.7015	0.000441	7e-06
333.15	0.8	0.000454	7e-06
333.15	0.8845	0.000466	7e-06
333.15	1	0.000483	7e-06

System: methanol + diethyl carbonate; phases: Liquid
Fixed: Pressure, kPa = 101
Property: Mass density, kg/m3 (Liquid); method: VIBTUB:UFactor:24
Temperature, K	Mole fraction of diethyl carbonate	Mass density, kg/m3	uncertainty
293.15	0	791.54	2.7
293.15	0.1045	839.93	2.25
293.15	0.2128	874.69	1.92
293.15	0.2835	892.08	1.76
293.15	0.4025	915.12	1.55
293.15	0.5161	932.04	1.39
293.15	0.6057	942.83	1.29
293.15	0.7015	952.67	1.2
293.15	0.8	961.18	1.13
293.15	0.8845	967.44	1.07
293.15	1	975	1.01
298.15	0	786.83	2.75
298.15	0.1045	834.64	2.3
298.15	0.2128	869.33	1.97
298.15	0.2835	886.65	1.81
298.15	0.4025	909.56	1.6
298.15	0.5161	926.35	1.44
298.15	0.6057	937.11	1.35
298.15	0.7015	946.89	1.26
298.15	0.8	955.37	1.18
298.15	0.8845	961.65	1.13
298.15	1	968.97	1.06
303.15	0	782.12	2.79
303.15	0.1045	829.8	2.34
303.15	0.2128	864.12	2.02
303.15	0.2835	881.42	1.86
303.15	0.4025	904.25	1.65
303.15	0.5161	921	1.49
303.15	0.6057	931.74	1.4
303.15	0.7015	941.49	1.31
303.15	0.8	949.97	1.23
303.15	0.8845	956.23	1.18
303.15	1	962.39	1.12
313.15	0	772.6	2.88
313.15	0.1045	819.68	2.44
313.15	0.2128	853.64	2.12
313.15	0.2835	870.71	1.96
313.15	0.4025	893.3	1.75
313.15	0.5161	909.94	1.6
313.15	0.6057	920.59	1.5
313.15	0.7015	930.26	1.41
313.15	0.8	938.67	1.34
313.15	0.8845	944.93	1.28
313.15	1	952.32	1.22
323.15	0	762.97	2.97
323.15	0.1045	809.45	2.54
323.15	0.2128	843	2.22
323.15	0.2835	859.86	2.06
323.15	0.4025	882.25	1.86
323.15	0.5161	898.72	1.7
323.15	0.6057	909.28	1.61
323.15	0.7015	918.88	1.52
323.15	0.8	927.24	1.44
323.15	0.8845	933.43	1.39
323.15	1	939.78	1.33
333.15	0	749.69	3.1
333.15	0.1045	796.31	2.66
333.15	0.2128	830.09	2.34
333.15	0.2835	847.11	2.18
333.15	0.4025	869.76	1.97
333.15	0.5161	886.44	1.82
333.15	0.6057	897.15	1.72
333.15	0.7015	906.9	1.63
333.15	0.8	915.39	1.55
333.15	0.8845	921.71	1.5
333.15	1	928.69	1.43

System: propan-2-ol + diethyl carbonate; phases: Liquid
Fixed: Pressure, kPa = 101
Property: Viscosity, Pa*s (Liquid); method: Capillary tube (Ostwald; Ubbelohde) method
Temperature, K	Mole fraction of diethyl carbonate	Viscosity, Pa*s	uncertainty
293.15	0	0.002382	1.6e-05
293.15	0.1015	0.001586	1.2e-05
293.15	0.1993	0.001252	1e-05
293.15	0.3027	0.001073	9e-06
293.15	0.4029	0.000946	9e-06
293.15	0.5018	0.000865	8e-06
293.15	0.5905	0.000827	8e-06
293.15	0.7267	0.000791	8e-06
293.15	0.8053	0.000781	8e-06
293.15	0.8494	0.000782	8e-06
293.15	1	0.0008	8e-06
298.15	0	0.002069	1.4e-05
298.15	0.1015	0.001393	1.1e-05
298.15	0.1993	0.001119	9e-06
298.15	0.3027	0.000964	9e-06
298.15	0.4029	0.00086	8e-06
298.15	0.5018	0.000791	8e-06
298.15	0.5905	0.00076	8e-06
298.15	0.7267	0.000731	8e-06
298.15	0.8053	0.000726	8e-06
298.15	0.8494	0.000726	8e-06
298.15	1	0.000746	8e-06
303.15	0	0.001743	1.3e-05
303.15	0.1015	0.001223	1e-05
303.15	0.1993	0.000996	9e-06
303.15	0.3027	0.000867	8e-06
303.15	0.4029	0.000782	8e-06
303.15	0.5018	0.000726	8e-06
303.15	0.5905	0.0007	8e-06
303.15	0.7267	0.000677	7e-06
303.15	0.8053	0.000674	7e-06
303.15	0.8494	0.000676	7e-06
303.15	1	0.000695	8e-06
313.15	0	0.001288	1e-05
313.15	0.1015	0.000964	9e-06
313.15	0.1993	0.000806	8e-06
313.15	0.3027	0.000716	8e-06
313.15	0.4029	0.000657	7e-06
313.15	0.5018	0.000618	7e-06
313.15	0.5905	0.000601	7e-06
313.15	0.7267	0.000588	7e-06
313.15	0.8053	0.000588	7e-06
313.15	0.8494	0.00059	7e-06
313.15	1	0.00061	7e-06
323.15	0	0.001002	9e-06
323.15	0.1015	0.00078	8e-06
323.15	0.1993	0.000668	8e-06
323.15	0.3027	0.000604	7e-06
323.15	0.4029	0.000562	7e-06
323.15	0.5018	0.000535	7e-06
323.15	0.5905	0.000524	7e-06
323.15	0.7267	0.000517	7e-06
323.15	0.8053	0.000519	7e-06
323.15	0.8494	0.000521	7e-06
323.15	1	0.000541	7e-06
333.15	0	0.000789	8e-06
333.15	0.1015	0.000637	7e-06
333.15	0.1993	0.000559	7e-06
333.15	0.3027	0.000515	7e-06
333.15	0.4029	0.000485	7e-06
333.15	0.5018	0.000467	7e-06
333.15	0.5905	0.00046	7e-06
333.15	0.7267	0.000458	7e-06
333.15	0.8053	0.000461	7e-06
333.15	0.8494	0.000464	7e-06
333.15	1	0.000483	7e-06
343.15	0	0.000626	7e-06
343.15	0.1015	0.000523	7e-06
343.15	0.1993	0.00047	7e-06
343.15	0.3027	0.00044	7e-06
343.15	0.4029	0.000421	7e-06
343.15	0.5018	0.00041	7e-06
343.15	0.5905	0.000407	7e-06
343.15	0.7267	0.000409	7e-06
343.15	0.8053	0.000413	7e-06
343.15	0.8494	0.000417	7e-06
343.15	1	0.000435	7e-06

System: propan-2-ol + diethyl carbonate; phases: Liquid
Fixed: Pressure, kPa = 101
Property: Mass density, kg/m3 (Liquid); method: VIBTUB:UFactor:24
Temperature, K	Mole fraction of diethyl carbonate	Mass density, kg/m3	uncertainty
293.15	0	785.28	2.77
293.15	0.1015	812.95	2.52
293.15	0.1993	837.12	2.29
293.15	0.3027	861.52	2.06
293.15	0.4029	880.88	1.88
293.15	0.5018	901.57	1.69
293.15	0.5905	914.48	1.57
293.15	0.7267	936.22	1.37
293.15	0.8053	947.93	1.26
293.15	0.8494	954.32	1.2
293.15	1	975	1.01
298.15	0	780.69	2.82
298.15	0.1015	808.12	2.56
298.15	0.1993	831.98	2.34
298.15	0.3027	855.03	2.12
298.15	0.4029	875.34	1.93
298.15	0.5018	893.55	1.76
298.15	0.5905	908.68	1.62
298.15	0.7267	930.3	1.42
298.15	0.8053	941.94	1.31
298.15	0.8494	948.31	1.26
298.15	1	968.97	1.06
303.15	0	776.15	2.86
303.15	0.1015	803.27	2.61
303.15	0.1993	826.84	2.39
303.15	0.3027	849.57	2.17
303.15	0.4029	869.48	1.99
303.15	0.5018	887.62	1.82
303.15	0.5905	902.71	1.68
303.15	0.7267	924.09	1.48
303.15	0.8053	935.6	1.37
303.15	0.8494	941.89	1.31
303.15	1	962.39	1.12
313.15	0	766.34	2.95
313.15	0.1015	793.12	2.7
313.15	0.1993	816.46	2.48
313.15	0.3027	839.13	2.27
313.15	0.4029	859.2	2.08
313.15	0.5018	877.18	1.92
313.15	0.5905	892.18	1.78
313.15	0.7267	913.63	1.58
313.15	0.8053	925.25	1.47
313.15	0.8494	931.59	1.41
313.15	1	952.32	1.22
323.15	0	755.66	3.05
323.15	0.1015	781.71	2.81
323.15	0.1993	804.58	2.59
323.15	0.3027	826.95	2.38
323.15	0.4029	846.73	2.2
323.15	0.5018	864.62	2.03
323.15	0.5905	879.49	1.89
323.15	0.7267	900.94	1.69
323.15	0.8053	912.58	1.58
323.15	0.8494	918.93	1.53
323.15	1	939.78	1.33
333.15	0	745.51	3.14
333.15	0.1015	771.12	2.91
333.15	0.1993	793.64	2.7
333.15	0.3027	815.77	2.49
333.15	0.4029	835.41	2.3
333.15	0.5018	853.29	2.14
333.15	0.5905	868.1	2
333.15	0.7267	889.56	1.8
333.15	0.8053	901.29	1.69
333.15	0.8494	907.67	1.63
333.15	1	928.69	1.43
343.15	0	735.02	3.24
343.15	0.1015	760.13	3.01
343.15	0.1993	782.3	2.8
343.15	0.3027	804.17	2.6
343.15	0.4029	823.53	2.42
343.15	0.5018	841.14	2.25
343.15	0.5905	855.92	2.11
343.15	0.7267	877.3	1.91
343.15	0.8053	888.96	1.8
343.15	0.8494	895.36	1.74
343.15	1	916.33	1.55
