Measured thermophysical data. Densities, Viscosities, Refractive Indices, and Surface Tensions for 12 Flavor Esters from T ) 288.15 K to T ) 358.15 K
Source: J. Chem. Eng. Data, 2005, 10.1021/je050170x
Compound 1: ethyl 3-oxobutanoate, C6H10O3, InChI=1S/C6H10O3/c1-3-9-6(8)4-5(2)7/h3-4H2,1-2H3, purity 99.2%
Compound 2: 3-methylbutyl ethanoate, C7H14O2, InChI=1S/C7H14O2/c1-6(2)4-5-9-7(3)8/h6H,4-5H2,1-3H3, purity 99.3%
Compound 3: ethyl 3-methylbutanoate, C7H14O2, InChI=1S/C7H14O2/c1-4-9-7(8)5-6(2)3/h6H,4-5H2,1-3H3, purity 99%
Compound 4: methyl benzoate, C8H8O2, InChI=1S/C8H8O2/c1-10-8(9)7-5-3-2-4-6-7/h2-6H,1H3, purity 99.2%
Compound 5: ethyl hexanoate, C8H16O2, InChI=1S/C8H16O2/c1-3-5-6-7-8(9)10-4-2/h3-7H2,1-2H3, purity 99.7%
Compound 6: ethyl benzoate, C9H10O2, InChI=1S/C9H10O2/c1-2-11-9(10)8-6-4-3-5-7-8/h3-7H,2H2,1H3, purity 99.8%
Compound 7: benzyl ethanoate, C9H10O2, InChI=1S/C9H10O2/c1-8(10)11-7-9-5-3-2-4-6-9/h2-6H,7H2,1H3, purity 99.6%
Compound 8: 3-methylbutyl butanoate, C9H18O2, InChI=1S/C9H18O2/c1-4-5-9(10)11-7-6-8(2)3/h8H,4-7H2,1-3H3, purity 99.4%
Compound 9: ethyl 2-hydroxybenzoate, C9H10O3, InChI=1S/C9H10O3/c1-2-12-9(11)7-5-3-4-6-8(7)10/h3-6,10H,2H2,1H3, purity 99.6%
Compound 10: benzyl propanoate, C10H12O2, InChI=1S/C10H12O2/c1-2-10(11)12-8-9-6-4-3-5-7-9/h3-7H,2,8H2,1H3, purity 99.4%
Compound 11: ethyl phenylacetate, C10H12O2, InChI=1S/C10H12O2/c1-2-12-10(11)8-9-6-4-3-5-7-9/h3-7H,2,8H2,1H3, purity 99.4%
Compound 12: ethyl octanoate, C10H20O2, InChI=1S/C10H20O2/c1-3-5-6-7-8-9-10(11)12-4-2/h3-9H2,1-2H3, purity 99.5%

System: ethyl 3-oxobutanoate; phases: Liquid, Gas
Property: Surface tension liquid-gas, N/m (Liquid); method: Wilhelmy-plate method
Temperature, K	Surface tension liquid-gas, N/m	uncertainty
288.15	0.0333	0.0004
298.15	0.0323	0.0004
308.15	0.0311	0.0004
318.15	0.03	0.0004
328.15	0.0291	0.0004
338.15	0.0282	0.0004
348.15	0.027	0.0004
358.15	0.0261	0.0004

System: ethyl 3-oxobutanoate; phases: Liquid
Fixed: Pressure, kPa = 101.325
Property: Viscosity, Pa*s (Liquid); method: Capillary tube (Ostwald; Ubbelohde) method
Temperature, K	Viscosity, Pa*s	uncertainty
288.15	0.001902	2.6e-05
298.15	0.001581	2.2e-05
308.15	0.001344	1.9e-05
318.15	0.001144	1.6e-05
328.15	0.000981	1.4e-05
338.15	0.000847	1.2e-05
348.15	0.000736	1e-05
358.15	0.000644	9e-06

System: ethyl 3-oxobutanoate; phases: Liquid
Fixed: Pressure, kPa = 101.325
Property: Refractive index (Na D-line) (Liquid); method: Standard Abbe refractometry
Temperature, K	Refractive index (Na D-line)	uncertainty
288.15	1.42091	0.00035
298.15	1.41658	0.00035
308.15	1.41246	0.00035
318.15	1.40803	0.00035
328.15	1.40386	0.00035
338.15	1.39949	0.00035
348.15	1.3951	0.00035
358.15	1.39061	0.00035

System: ethyl 3-oxobutanoate; phases: Liquid
Fixed: Pressure, kPa = 101.325
Property: Mass density, kg/m3 (Liquid); method: VIBTUB:UFactor:4
Temperature, K	Mass density, kg/m3	uncertainty
288.15	1033.92	0.48
298.15	1023.45	0.46
328.15	992.26	0.44
338.15	981.58	0.45
348.15	971.05	0.45
358.15	960.46	0.46

System: 3-methylbutyl ethanoate; phases: Liquid, Gas
Property: Surface tension liquid-gas, N/m (Liquid); method: Wilhelmy-plate method
Temperature, K	Surface tension liquid-gas, N/m	uncertainty
288.15	0.0254	0.0004
298.15	0.0243	0.0004
308.15	0.0234	0.0004
318.15	0.0224	0.0004
328.15	0.0216	0.0004
338.15	0.0206	0.0004
348.15	0.0196	0.0004
358.15	0.0187	0.0004

System: 3-methylbutyl ethanoate; phases: Liquid
Fixed: Pressure, kPa = 101.325
Property: Viscosity, Pa*s (Liquid); method: Capillary tube (Ostwald; Ubbelohde) method
Temperature, K	Viscosity, Pa*s	uncertainty
288.15	0.00094	1.3e-05
298.15	0.000804	1.1e-05
308.15	0.000704	1e-05
318.15	0.000627	9e-06
328.15	0.000559	8e-06
338.15	0.000484	7e-06
348.15	0.000434	6e-06
358.15	0.00039	6e-06

System: 3-methylbutyl ethanoate; phases: Liquid
Fixed: Pressure, kPa = 101.325
Property: Refractive index (Na D-line) (Liquid); method: Standard Abbe refractometry
Temperature, K	Refractive index (Na D-line)	uncertainty
288.15	1.40288	0.00034
298.15	1.39836	0.00034
308.15	1.39365	0.00034
318.15	1.38895	0.00034
328.15	1.38447	0.00034
338.15	1.37971	0.00034
348.15	1.37487	0.00034
358.15	1.36995	0.00034

System: 3-methylbutyl ethanoate; phases: Liquid
Fixed: Pressure, kPa = 101.325
Property: Mass density, kg/m3 (Liquid); method: VIBTUB:UFactor:4
Temperature, K	Mass density, kg/m3	uncertainty
288.15	877.72	0.52
298.15	867.91	0.53
308.15	858.07	0.55
318.15	848.17	0.56
328.15	838.22	0.58
338.15	828.19	0.59
348.15	818.07	0.61
358.15	807.85	0.63

System: ethyl 3-methylbutanoate; phases: Liquid, Gas
Property: Surface tension liquid-gas, N/m (Liquid); method: Wilhelmy-plate method
Temperature, K	Surface tension liquid-gas, N/m	uncertainty
288.15	0.0244	0.0004
298.15	0.0235	0.0004
308.15	0.0225	0.0004
318.15	0.0216	0.0004
328.15	0.0207	0.0004
338.15	0.0196	0.0004
348.15	0.0187	0.0004
358.15	0.0176	0.0004

System: ethyl 3-methylbutanoate; phases: Liquid
Fixed: Pressure, kPa = 101.325
Property: Viscosity, Pa*s (Liquid); method: Capillary tube (Ostwald; Ubbelohde) method
Temperature, K	Viscosity, Pa*s	uncertainty
288.15	0.000853	1.2e-05
298.15	0.000739	1.1e-05
308.15	0.000642	9e-06
318.15	0.000566	8e-06
328.15	0.000504	7e-06
338.15	0.000452	7e-06
348.15	0.000408	6e-06
358.15	0.000367	5e-06

System: ethyl 3-methylbutanoate; phases: Liquid
Fixed: Pressure, kPa = 101.325
Property: Refractive index (Na D-line) (Liquid); method: Standard Abbe refractometry
Temperature, K	Refractive index (Na D-line)	uncertainty
288.15	1.3988	0.00037
298.15	1.39401	0.00037
308.15	1.38931	0.00037
318.15	1.38458	0.00037
328.15	1.37978	0.00037
338.15	1.37492	0.00037
348.15	1.37002	0.00037
358.15	1.36524	0.00037

System: ethyl 3-methylbutanoate; phases: Liquid
Fixed: Pressure, kPa = 101.325
Property: Mass density, kg/m3 (Liquid); method: VIBTUB:UFactor:4
Temperature, K	Mass density, kg/m3	uncertainty
288.15	869.66	0.61
298.15	859.78	0.63
308.15	849.83	0.64
318.15	839.81	0.65
328.15	829.71	0.66
338.15	819.52	0.68
348.15	809.2	0.69
358.15	798.73	0.71

System: methyl benzoate; phases: Liquid, Gas
Property: Surface tension liquid-gas, N/m (Liquid); method: Wilhelmy-plate method
Temperature, K	Surface tension liquid-gas, N/m	uncertainty
288.15	0.0386	0.0004
298.15	0.0372	0.0004
308.15	0.0358	0.0004
318.15	0.0348	0.0004
328.15	0.0337	0.0004
338.15	0.0325	0.0004
348.15	0.0313	0.0004
358.15	0.0304	0.0004

System: methyl benzoate; phases: Liquid
Fixed: Pressure, kPa = 101.325
Property: Viscosity, Pa*s (Liquid); method: Capillary tube (Ostwald; Ubbelohde) method
Temperature, K	Viscosity, Pa*s	uncertainty
288.15	0.002297	3.1e-05
298.15	0.001851	2.5e-05
308.15	0.001531	2.1e-05
318.15	0.001297	1.8e-05
328.15	0.001108	1.5e-05
338.15	0.00097	1.3e-05
348.15	0.000852	1.2e-05
358.15	0.00075	1e-05

System: methyl benzoate; phases: Liquid
Fixed: Pressure, kPa = 101.325
Property: Refractive index (Na D-line) (Liquid); method: Standard Abbe refractometry
Temperature, K	Refractive index (Na D-line)	uncertainty
288.15	1.51915	0.00035
298.15	1.51467	0.00035
308.15	1.50993	0.00035
318.15	1.50514	0.00035
328.15	1.50058	0.00035
338.15	1.49584	0.00035
348.15	1.49107	0.00035
358.15	1.48624	0.00035

System: methyl benzoate; phases: Liquid
Fixed: Pressure, kPa = 101.325
Property: Mass density, kg/m3 (Liquid); method: VIBTUB:UFactor:4
Temperature, K	Mass density, kg/m3	uncertainty
288.15	1093.23	0.57
298.15	1083.92	0.55
308.15	1074.34	0.54
318.15	1064.62	0.52
328.15	1054.82	0.51
338.15	1044.99	0.49
348.15	1035.23	0.48
358.15	1025.6	0.47

System: ethyl hexanoate; phases: Liquid, Gas
Property: Surface tension liquid-gas, N/m (Liquid); method: Wilhelmy-plate method
Temperature, K	Surface tension liquid-gas, N/m	uncertainty
288.15	0.0264	0.0004
298.15	0.0254	0.0004
308.15	0.0245	0.0004
318.15	0.0236	0.0004
328.15	0.0227	0.0004
338.15	0.0218	0.0004
348.15	0.021	0.0004
358.15	0.02	0.0004

System: ethyl hexanoate; phases: Liquid
Fixed: Pressure, kPa = 101.325
Property: Viscosity, Pa*s (Liquid); method: Capillary tube (Ostwald; Ubbelohde) method
Temperature, K	Viscosity, Pa*s	uncertainty
288.15	0.001102	1.5e-05
298.15	0.00094	1.3e-05
308.15	0.000814	1.1e-05
318.15	0.000711	1e-05
328.15	0.00063	9e-06
338.15	0.000562	8e-06
348.15	0.000504	7e-06
358.15	0.000452	6e-06

System: ethyl hexanoate; phases: Liquid
Fixed: Pressure, kPa = 101.325
Property: Refractive index (Na D-line) (Liquid); method: Standard Abbe refractometry
Temperature, K	Refractive index (Na D-line)	uncertainty
288.15	1.4095	0.00032
298.15	1.40504	0.00032
308.15	1.40055	0.00032
318.15	1.39597	0.00032
328.15	1.39164	0.00032
338.15	1.38705	0.00032
348.15	1.38239	0.00032
358.15	1.37768	0.00032

System: ethyl hexanoate; phases: Liquid
Fixed: Pressure, kPa = 101.325
Property: Mass density, kg/m3 (Liquid); method: VIBTUB:UFactor:4
Temperature, K	Mass density, kg/m3	uncertainty
288.15	875.64	0.44
298.15	866.29	0.46
308.15	856.91	0.47
318.15	847.5	0.49
328.15	838.05	0.51
338.15	828.55	0.53
348.15	818.99	0.55
358.15	809.34	0.57

System: ethyl benzoate; phases: Liquid, Gas
Property: Surface tension liquid-gas, N/m (Liquid); method: Wilhelmy-plate method
Temperature, K	Surface tension liquid-gas, N/m	uncertainty
288.15	0.0357	0.0004
298.15	0.0346	0.0004
308.15	0.0333	0.0004
318.15	0.0325	0.0004
328.15	0.0315	0.0004
338.15	0.0302	0.0004
348.15	0.0293	0.0004
358.15	0.0284	0.0004

System: ethyl benzoate; phases: Liquid
Fixed: Pressure, kPa = 101.325
Property: Viscosity, Pa*s (Liquid); method: Capillary tube (Ostwald; Ubbelohde) method
Temperature, K	Viscosity, Pa*s	uncertainty
288.15	0.002444	3.2e-05
298.15	0.001971	2.6e-05
308.15	0.001623	2.1e-05
318.15	0.001368	1.8e-05
328.15	0.001169	1.5e-05
338.15	0.001016	1.4e-05
348.15	0.00089	1.2e-05
358.15	0.000784	1.1e-05

System: ethyl benzoate; phases: Liquid
Fixed: Pressure, kPa = 101.325
Property: Refractive index (Na D-line) (Liquid); method: Standard Abbe refractometry
Temperature, K	Refractive index (Na D-line)	uncertainty
288.15	1.5076	0.00032
298.15	1.50328	0.00032
308.15	1.49863	0.00032
318.15	1.49391	0.00032
328.15	1.48946	0.00032
338.15	1.4847	0.00032
348.15	1.48004	0.00032
358.15	1.47526	0.00032

System: ethyl benzoate; phases: Liquid
Fixed: Pressure, kPa = 101.325
Property: Mass density, kg/m3 (Liquid); method: VIBTUB:UFactor:4
Temperature, K	Mass density, kg/m3	uncertainty
288.15	1050.78	0.29
298.15	1041.42	0.27
308.15	1032.07	0.25
318.15	1022.73	0.24
328.15	1013.4	0.22
338.15	1004.06	0.2
348.15	994.7	0.2
358.15	985.31	0.22

System: benzyl ethanoate; phases: Liquid, Gas
Property: Surface tension liquid-gas, N/m (Liquid); method: Wilhelmy-plate method
Temperature, K	Surface tension liquid-gas, N/m	uncertainty
288.15	0.0377	0.0004
298.15	0.0364	0.0004
308.15	0.0353	0.0004
318.15	0.0341	0.0004
328.15	0.0332	0.0004
338.15	0.0322	0.0004
348.15	0.0311	0.0004
358.15	0.0301	0.0004

System: benzyl ethanoate; phases: Liquid
Fixed: Pressure, kPa = 101.325
Property: Viscosity, Pa*s (Liquid); method: Capillary tube (Ostwald; Ubbelohde) method
Temperature, K	Viscosity, Pa*s	uncertainty
288.15	0.00253	3.3e-05
298.15	0.002056	2.7e-05
308.15	0.001703	2.3e-05
318.15	0.001432	1.9e-05
328.15	0.001229	1.6e-05
338.15	0.001059	1.4e-05
348.15	0.000941	1.3e-05
358.15	0.000826	1.1e-05

System: benzyl ethanoate; phases: Liquid
Fixed: Pressure, kPa = 101.325
Property: Refractive index (Na D-line) (Liquid); method: Standard Abbe refractometry
Temperature, K	Refractive index (Na D-line)	uncertainty
288.15	1.50439	0.00032
298.15	1.49982	0.00032
308.15	1.49539	0.00032
318.15	1.49064	0.00032
328.15	1.48623	0.00032
338.15	1.48157	0.00032
348.15	1.47701	0.00032
358.15	1.47233	0.00032

System: benzyl ethanoate; phases: Liquid
Fixed: Pressure, kPa = 101.325
Property: Mass density, kg/m3 (Liquid); method: VIBTUB:UFactor:4
Temperature, K	Mass density, kg/m3	uncertainty
288.15	1060.11	0.36
298.15	1050.75	0.34
308.15	1041.39	0.33
318.15	1032.03	0.31
328.15	1022.67	0.3
338.15	1013.29	0.28
348.15	1003.89	0.27
358.15	994.45	0.27

System: 3-methylbutyl butanoate; phases: Liquid, Gas
Property: Surface tension liquid-gas, N/m (Liquid); method: Wilhelmy-plate method
Temperature, K	Surface tension liquid-gas, N/m	uncertainty
288.15	0.0257	0.0004
298.15	0.0247	0.0004
308.15	0.024	0.0004
318.15	0.0231	0.0004
328.15	0.0224	0.0004
338.15	0.0216	0.0004
348.15	0.0205	0.0004
358.15	0.0197	0.0004

System: 3-methylbutyl butanoate; phases: Liquid
Fixed: Pressure, kPa = 101.325
Property: Viscosity, Pa*s (Liquid); method: Capillary tube (Ostwald; Ubbelohde) method
Temperature, K	Viscosity, Pa*s	uncertainty
288.15	0.001317	1.8e-05
298.15	0.001111	1.5e-05
308.15	0.000952	1.3e-05
318.15	0.000827	1.1e-05
328.15	0.000724	1e-05
338.15	0.000641	9e-06
348.15	0.000573	8e-06
358.15	0.000511	7e-06

System: 3-methylbutyl butanoate; phases: Liquid
Fixed: Pressure, kPa = 101.325
Property: Refractive index (Na D-line) (Liquid); method: Standard Abbe refractometry
Temperature, K	Refractive index (Na D-line)	uncertainty
288.15	1.41259	0.00034
298.15	1.40815	0.00034
308.15	1.40374	0.00034
318.15	1.39927	0.00034
328.15	1.39506	0.00034
338.15	1.39055	0.00034
348.15	1.386	0.00034
358.15	1.38139	0.00034

System: 3-methylbutyl butanoate; phases: Liquid
Fixed: Pressure, kPa = 101.325
Property: Mass density, kg/m3 (Liquid); method: VIBTUB:UFactor:4
Temperature, K	Mass density, kg/m3	uncertainty
288.15	867.72	0.51
298.15	858.69	0.52
308.15	849.62	0.54
318.15	840.55	0.55
328.15	831.47	0.57
338.15	822.35	0.58
348.15	813.19	0.6
358.15	803.96	0.62

System: ethyl 2-hydroxybenzoate; phases: Liquid, Gas
Property: Surface tension liquid-gas, N/m (Liquid); method: Wilhelmy-plate method
Temperature, K	Surface tension liquid-gas, N/m	uncertainty
288.15	0.0375	0.0004
298.15	0.0363	0.0004
308.15	0.0352	0.0004
318.15	0.0344	0.0004
328.15	0.0334	0.0004
338.15	0.032	0.0004
348.15	0.031	0.0004
358.15	0.0302	0.0004

System: ethyl 2-hydroxybenzoate; phases: Liquid
Fixed: Pressure, kPa = 101.325
Property: Viscosity, Pa*s (Liquid); method: Capillary tube (Ostwald; Ubbelohde) method
Temperature, K	Viscosity, Pa*s	uncertainty
288.15	0.003694	4.9e-05
298.15	0.002831	3.7e-05
308.15	0.002253	3e-05
318.15	0.001842	2.4e-05
328.15	0.00153	2e-05
338.15	0.001305	1.7e-05
348.15	0.001126	1.5e-05
358.15	0.000984	1.3e-05

System: ethyl 2-hydroxybenzoate; phases: Liquid
Fixed: Pressure, kPa = 101.325
Property: Refractive index (Na D-line) (Liquid); method: Standard Abbe refractometry
Temperature, K	Refractive index (Na D-line)	uncertainty
288.15	1.52481	0.00032
298.15	1.52022	0.00032
308.15	1.51573	0.00032
318.15	1.51116	0.00032
328.15	1.50646	0.00032
338.15	1.50191	0.00032
348.15	1.49744	0.00032
358.15	1.49296	0.00032

System: ethyl 2-hydroxybenzoate; phases: Liquid
Fixed: Pressure, kPa = 101.325
Property: Mass density, kg/m3 (Liquid); method: VIBTUB:UFactor:4
Temperature, K	Mass density, kg/m3	uncertainty
288.15	1134.72	0.49
298.15	1125	0.48
308.15	1115.29	0.46
318.15	1105.6	0.44
328.15	1095.94	0.42
338.15	1086.24	0.41
348.15	1076.6	0.39
358.15	1066.83	0.37

System: benzyl propanoate; phases: Liquid, Gas
Property: Surface tension liquid-gas, N/m (Liquid); method: Wilhelmy-plate method
Temperature, K	Surface tension liquid-gas, N/m	uncertainty
288.15	0.036	0.0004
298.15	0.0348	0.0004
308.15	0.0336	0.0004
318.15	0.0324	0.0004
328.15	0.0316	0.0004
338.15	0.0305	0.0004
348.15	0.0295	0.0004
358.15	0.0285	0.0004

System: benzyl propanoate; phases: Liquid
Fixed: Pressure, kPa = 101.325
Property: Viscosity, Pa*s (Liquid); method: Capillary tube (Ostwald; Ubbelohde) method
Temperature, K	Viscosity, Pa*s	uncertainty
288.15	0.00255	3.4e-05
298.15	0.002123	2.9e-05
308.15	0.001787	2.4e-05
318.15	0.001515	2e-05
328.15	0.001294	1.8e-05
338.15	0.001114	1.5e-05
348.15	0.000964	1.3e-05
358.15	0.00084	1.1e-05

System: benzyl propanoate; phases: Liquid
Fixed: Pressure, kPa = 101.325
Property: Refractive index (Na D-line) (Liquid); method: Standard Abbe refractometry
Temperature, K	Refractive index (Na D-line)	uncertainty
288.15	1.4995	0.00034
298.15	1.49498	0.00034
308.15	1.49074	0.00034
318.15	1.48611	0.00034
328.15	1.48171	0.00034
338.15	1.47711	0.00034
348.15	1.47252	0.00034
358.15	1.46768	0.00034

System: benzyl propanoate; phases: Liquid
Fixed: Pressure, kPa = 101.325
Property: Mass density, kg/m3 (Liquid); method: VIBTUB:UFactor:4
Temperature, K	Mass density, kg/m3	uncertainty
288.15	1036.86	0.39
298.15	1027.6	0.38
308.15	1018.38	0.37
318.15	1009.15	0.36
328.15	999.93	0.34
338.15	990.72	0.35
348.15	981.49	0.36
358.15	972.25	0.37

System: ethyl phenylacetate; phases: Liquid, Gas
Property: Surface tension liquid-gas, N/m (Liquid); method: Wilhelmy-plate method
Temperature, K	Surface tension liquid-gas, N/m	uncertainty
288.15	0.0359	0.0004
298.15	0.0346	0.0004
308.15	0.0335	0.0004
318.15	0.0328	0.0004
328.15	0.0316	0.0004
338.15	0.0306	0.0004
348.15	0.0294	0.0004
358.15	0.0286	0.0004

System: ethyl phenylacetate; phases: Liquid
Fixed: Pressure, kPa = 101.325
Property: Viscosity, Pa*s (Liquid); method: Capillary tube (Ostwald; Ubbelohde) method
Temperature, K	Viscosity, Pa*s	uncertainty
288.15	0.003002	4e-05
298.15	0.002384	3.2e-05
308.15	0.001948	2.6e-05
318.15	0.001624	2.2e-05
328.15	0.001383	1.9e-05
338.15	0.001191	1.6e-05
348.15	0.001037	1.4e-05
358.15	0.000908	1.2e-05

System: ethyl phenylacetate; phases: Liquid
Fixed: Pressure, kPa = 101.325
Property: Refractive index (Na D-line) (Liquid); method: Standard Abbe refractometry
Temperature, K	Refractive index (Na D-line)	uncertainty
288.15	1.49971	0.00034
298.15	1.49513	0.00034
308.15	1.49063	0.00034
318.15	1.48583	0.00034
328.15	1.48149	0.00034
338.15	1.47688	0.00034
348.15	1.47224	0.00034
358.15	1.46747	0.00034

System: ethyl phenylacetate; phases: Liquid
Fixed: Pressure, kPa = 101.325
Property: Mass density, kg/m3 (Liquid); method: VIBTUB:UFactor:4
Temperature, K	Mass density, kg/m3	uncertainty
288.15	1036.35	0.39
298.15	1026.96	0.38
308.15	1017.6	0.37
318.15	1008.26	0.35
328.15	998.93	0.35
338.15	989.61	0.35
348.15	980.28	0.36
358.15	970.95	0.37

System: ethyl octanoate; phases: Liquid, Gas
Property: Surface tension liquid-gas, N/m (Liquid); method: Wilhelmy-plate method
Temperature, K	Surface tension liquid-gas, N/m	uncertainty
288.15	0.0272	0.0004
298.15	0.0264	0.0004
308.15	0.0255	0.0004
318.15	0.0247	0.0004
328.15	0.0238	0.0004
338.15	0.0228	0.0004
348.15	0.022	0.0004
358.15	0.0214	0.0004

System: ethyl octanoate; phases: Liquid
Fixed: Pressure, kPa = 101.325
Property: Viscosity, Pa*s (Liquid); method: Capillary tube (Ostwald; Ubbelohde) method
Temperature, K	Viscosity, Pa*s	uncertainty
288.15	0.001697	2.3e-05
298.15	0.001411	1.9e-05
308.15	0.001193	1.6e-05
318.15	0.001027	1.4e-05
328.15	0.000892	1.2e-05
338.15	0.000784	1.1e-05
348.15	0.000694	9e-06
358.15	0.000617	8e-06

System: ethyl octanoate; phases: Liquid
Fixed: Pressure, kPa = 101.325
Property: Refractive index (Na D-line) (Liquid); method: Standard Abbe refractometry
Temperature, K	Refractive index (Na D-line)	uncertainty
288.15	1.41991	0.00033
298.15	1.4156	0.00033
308.15	1.41137	0.00033
318.15	1.40702	0.00033
328.15	1.40294	0.00033
338.15	1.39857	0.00033
348.15	1.39418	0.00033
358.15	1.38974	0.00033

System: ethyl octanoate; phases: Liquid
Fixed: Pressure, kPa = 101.325
Property: Mass density, kg/m3 (Liquid); method: VIBTUB:UFactor:4
Temperature, K	Mass density, kg/m3	uncertainty
288.15	870.79	0.48
298.15	862.15	0.5
308.15	853.52	0.51
318.15	844.87	0.53
328.15	836.21	0.54
338.15	827.53	0.56
348.15	818.58	0.58
358.15	810.05	0.59
