Measured thermophysical data. New Measurements of the Viscosity of Diisodecyl Phthalate Using a Vibrating Wire Technique
Source: J. Chem. Eng. Data, 2005, 10.1021/je050151n
Compound 1: 3-methylnonyl 1,2-benzenedioate, C28H46O4, InChI=1S/C28H46O4/c1-23(2)17-11-7-5-9-15-21-31-27(29)25-19-13-14-20-26(25)28(30)32-22-16-10-6-8-12-18-24(3)4/h13-14,19-20,23-24H,5-12,15-18,21-22H2,1-4H3

System: 3-methylnonyl 1,2-benzenedioate; phases: Liquid
Property: Refractive index (Na D-line) (Liquid); method: Standard Abbe refractometry
Temperature, K	Pressure, kPa	Refractive index (Na D-line)	uncertainty
293.15	101.325	1.4845	0.0007

System: 3-methylnonyl 1,2-benzenedioate; phases: Liquid
Fixed: Pressure, kPa = 101.325
Property: Viscosity, Pa*s (Liquid); method: Vibrating wire viscometry
Temperature, K	Viscosity, Pa*s	uncertainty
283.16	0.26736	0.0084
288.26	0.17604	0.00474
293.21	0.12307	0.00267
293.21	0.12275	0.00266
298.24	0.087797	0.001577
303.21	0.064838	0.00099
308.2	0.048728	0.000704
313.21	0.037571	0.000562

System: 3-methylnonyl 1,2-benzenedioate; phases: Liquid
Fixed: Pressure, kPa = 101.325
Property: Mass density, kg/m3 (Liquid); method: Vibrating tube method
Temperature, K	Mass density, kg/m3	uncertainty
283.16	973.52	1
288.26	969.85	1
293.21	966.38	1
293.21	966.38	1
298.24	962.82	0.99
303.21	959.3	0.99
308.2	955.78	0.99
313.21	952.22	0.98
