Measured thermophysical data. Solubility of Solid Polycyclic Aromatic Hydrocarbons in Pressurized Hot Water at Temperatures from 313 K to the Melting Point
Source: J. Chem. Eng. Data, 2006, 10.1021/je050427r
Compound 1: naphthalene, C10H8, InChI=1S/C10H8/c1-2-6-10-8-4-3-7-9(10)5-1/h1-8H, purity 99%
Compound 2: anthracene, C14H10, InChI=1S/C14H10/c1-2-6-12-10-14-8-4-3-7-13(14)9-11(12)5-1/h1-10H, purity 99%
Compound 3: benz[a]anthracene, C18H12, InChI=1S/C18H12/c1-2-7-15-12-18-16(11-14(15)6-1)10-9-13-5-3-4-8-17(13)18/h1-12H, purity 99%
Compound 4: triphenylene, C18H12, InChI=1S/C18H12/c1-2-8-14-13(7-1)15-9-3-4-11-17(15)18-12-6-5-10-16(14)18/h1-12H, purity 98%
Compound 5: p-terphenyl, C18H14, InChI=1S/C18H14/c1-3-7-15(8-4-1)17-11-13-18(14-12-17)16-9-5-2-6-10-16/h1-14H, purity 99%
Compound 6: water, H2O, InChI=1S/H2O/h1H2, purity 99.99%

System: naphthalene + water; phases: Liquid, Crystal
Property: Mole fraction of naphthalene (Liquid); method: Chromatography
Temperature, K	Pressure, kPa	Mole fraction of naphthalene	uncertainty
313.2	5000	6.92e-06	7e-07
318.2	5000	8.6e-06	8.7e-07
323.2	5000	1.14e-05	1.153e-06
328.2	5000	1.55e-05	1.568e-06
333.2	5100	2.07e-05	2.093e-06
338.2	5100	2.64e-05	2.67e-06
343.2	5000	3.48e-05	3.519e-06
348.2	5000	4.35e-05	4.399e-06

System: anthracene + water; phases: Liquid, Crystal
Property: Mole fraction of anthracene (Liquid); method: Chromatography
Temperature, K	Pressure, kPa	Mole fraction of anthracene	uncertainty
313.2	5000	1.19e-08	1.2e-09
333.2	5100	4.22e-08	4.3e-09
353.2	5000	1.37e-07	1.4e-08
373.2	3900	4.57e-07	4.7e-08
393.2	5200	1.54e-06	1.57e-07
413.2	4700	5.37e-06	5.49e-07
433.2	5400	1.59e-05	1.625e-06
453.2	6300	4.84e-05	4.945e-06
473.2	7700	0.00013	1.3283e-05
483.2	5500	0.00022	2.2479e-05

System: benz[a]anthracene + water; phases: Liquid, Crystal
Property: Mole fraction of benz[a]anthracene (Liquid); method: Chromatography
Temperature, K	Pressure, kPa	Mole fraction of benz[a]anthracene	uncertainty
313.2	5100	3.37e-09	3.5e-10
333.2	5000	8.46e-09	8.8e-10
353.2	5000	2.95e-08	3.1e-09
373.2	5000	1.13e-07	1.2e-08
393.2	5200	4.18e-07	4.3e-08
413.2	4900	1.6e-06	1.66e-07
423.2	4900	2.96e-06	3.07e-07

System: triphenylene + water; phases: Liquid, Crystal
Property: Mole fraction of triphenylene (Liquid); method: Chromatography
Temperature, K	Pressure, kPa	Mole fraction of triphenylene	uncertainty
313.2	5500	1.82e-09	1.9e-10
333.2	5100	6.07e-09	6.3e-10
353.2	5100	2.3e-08	2.4e-09
373.2	5100	8.99e-08	9.3e-09
393.2	5200	3.53e-07	3.7e-08
413.2	5000	1.26e-06	1.3e-07
433.2	5500	3.77e-06	3.9e-07
453.2	6400	1.23e-05	1.274e-06
463.2	6400	2.3e-05	2.382e-06
468.2	6000	2.83e-05	2.93e-06

System: p-terphenyl + water; phases: Liquid, Crystal
Property: Mole fraction of p-terphenyl (Liquid); method: Chromatography
Temperature, K	Pressure, kPa	Mole fraction of p-terphenyl	uncertainty
333.2	5000	8.49e-10	8.8e-11
353.2	4900	3.85e-09	4e-10
373.2	4900	2.19e-08	2.3e-09
393.2	4900	9e-08	9.3e-09
413.2	5100	3.72e-07	3.9e-08
433.2	6700	1.54e-06	1.6e-07
453.2	5500	6.26e-06	6.49e-07
473.2	5300	2.41e-05	2.497e-06
483.2	5400	3.93e-05	4.072e-06
