Measured thermophysical data. A Comprehensive Model of Synthetic Bayer Liquors. Part 2. Densities of Alkaline Aluminate Solutions to 90 deg C
Source: J. Chem. Eng. Data, 2005, 10.1021/je0500126
Compound 1: sodium hydroxide, HNaO, InChI=1S/Na.H2O/h;1H2/q+1;/p-1, purity 99%
Compound 2: aluminum sodium hydroxide, AlH4NaO4, InChI=1S/Al.Na.4H2O/h;;4*1H2/q+3;+1;;;;/p-4
Compound 3: water, H2O, InChI=1S/H2O/h1H2

System: sodium hydroxide + water + aluminum sodium hydroxide; phases: Liquid
Fixed: Pressure, kPa = 100
Property: Mass density, kg/m3 (Liquid); method: Vibrating tube method
Temperature, K	Molality, mol/kg of sodium hydroxide	Molality, mol/kg of aluminum sodium hydroxide	Mass density, kg/m3	uncertainty
323.15	0.399	0.5999	1046.21	0.215
323.15	0.5003	0.5001	1043.441	0.214
323.15	0.598	0.3998	1040.49	0.213
323.15	0.6	0.3995	1040.541	0.213
323.15	0.6989	0.3	1037.691	0.212
323.15	0.7998	1.1996	1097.816	0.228
323.15	0.8022	0.2	1034.846	0.212
323.15	0.8974	0.1008	1031.956	0.211
323.15	0.998	0.9998	1093.111	0.224
323.15	1.0004	0	1029.846	0.219
323.15	1.1978	0.7998	1088.034	0.222
323.15	1.1991	0.8	1088.341	0.222
323.15	1.2003	1.7994	1145.194	0.247
323.15	1.4006	0.5999	1082.9	0.219
323.15	1.4999	1.4996	1138.297	0.236
323.15	1.6009	0.4002	1077.628	0.218
323.15	1.6028	2.3991	1187.697	0.262
323.15	1.7991	0.2002	1072.281	0.217
323.15	1.8008	1.1992	1131.544	0.233
323.15	1.9973	2.9997	1227.117	0.277
323.15	1.9976	2.9995	1226.927	0.277
323.15	2	1.9996	1179.612	0.25
323.15	2.0057	0	1068.184	0.226
323.15	2.1011	0.8998	1124.133	0.228
323.15	2.3986	1.5991	1171.34	0.243
323.15	2.3986	3.5997	1262.522	0.356
323.15	2.399	0.5998	1117.747	0.225
323.15	2.403	0.5996	1117.325	0.225
323.15	2.5	2.4994	1217.925	0.262
323.15	2.7042	0.3002	1110.027	0.223
323.15	2.8007	1.1997	1163.126	0.238
323.15	2.9986	2.9995	1252.753	0.278
323.15	3.0002	1.9996	1208.336	0.254
323.15	3.0037	0	1103.607	0.23
323.15	3.2038	0.7998	1154.237	0.233
323.15	3.501	1.4995	1198.693	0.246
323.15	3.5972	0.3997	1144.985	0.227
323.15	3.6012	2.3994	1242.349	0.267
323.15	3.6041	0.4	1145.15	0.227
323.15	4.0019	0.9994	1188.508	0.241
323.15	4.004	0	1136.818	0.236
323.15	4.1999	1.7997	1231.666	0.258
323.15	4.4999	0.4995	1179	0.24
323.15	4.8019	1.1998	1220.398	0.25
323.15	5.0064	0	1167.97	0.243
323.15	5.3998	0.5996	1208.556	0.245
323.15	6.0076	0	1197.102	0.251
343.15	0.3985	0.5999	1035.271	0.214
343.15	0.5005	0.4995	1032.45	0.213
343.15	0.6002	0.3998	1029.755	0.212
343.15	0.6989	0.2998	1026.676	0.212
343.15	0.7976	0.2	1023.8	0.211
343.15	0.7993	1.1996	1087.021	0.224
343.15	0.9	0.0999	1020.889	0.211
343.15	0.999	0	1017.893	0.222
343.15	0.9993	1	1081.992	0.224
343.15	1.1992	1.7993	1133.358	0.245
343.15	1.1993	0.7985	1076.684	0.223
343.15	1.1993	1.7994	1133.682	0.245
343.15	1.398	0.5997	1071.55	0.219
343.15	1.4991	1.4994	1127.027	0.235
343.15	1.5002	1.4995	1126.937	0.235
343.15	1.5985	0.4001	1066.388	0.217
343.15	1.5989	2.3993	1176.927	0.26
343.15	1.5994	0.4001	1066.218	0.217
343.15	1.7985	0.2002	1060.78	0.216
343.15	1.8003	1.1996	1119.94	0.232
343.15	1.9993	1.9995	1167.949	0.249
343.15	2.0005	2.9996	1214.594	0.272
343.15	2.0007	0	1055.415	0.226
343.15	2.1004	0.8996	1112.689	0.227
343.15	2.3978	3.5996	1249.753	0.358
343.15	2.3991	1.5998	1159.418	0.241
343.15	2.3993	0.5995	1105.551	0.224
343.15	2.5003	2.4996	1205.295	0.261
343.15	2.7008	0.3	1098.188	0.222
343.15	2.7998	1.1996	1150.68	0.236
343.15	2.9991	1.9995	1196.054	0.252
343.15	3.0015	2.9988	1239.94	0.275
343.15	3.0017	0	1091.106	0.229
343.15	3.2009	0.7999	1141.83	0.231
343.15	3.4984	1.4999	1186.138	0.245
343.15	3.499	1.4995	1185.76	0.244
343.15	3.5993	2.3995	1229.641	0.265
343.15	3.5997	0.3999	1132.893	0.229
343.15	3.9984	0	1123.631	0.235
343.15	4.0009	0.9996	1176.029	0.24
343.15	4.2025	1.7993	1219.183	0.256
343.15	4.4978	0.4999	1165.286	0.237
343.15	4.7968	1.2	1207.362	0.248
343.15	4.9973	0	1154.537	0.241
343.15	5.397	0.5999	1195.322	0.244
343.15	6.0039	0	1184.029	0.249
363.15	0.4007	0.5997	1022.77	0.21
363.15	0.4995	0.4997	1019.93	0.21
363.15	0.6008	0.3999	1017.1	0.21
363.15	0.6995	0.2999	1014.39	0.21
363.15	0.7996	1.1996	1067.76	2
363.15	0.8	0.2	1011.48	0.21
363.15	0.9	0.1	1008.47	0.21
363.15	1.0024	0	1005.62	0.22
363.15	1.1997	0.8003	1064.06	2
363.15	1.2008	0.7996	1059.23	2
363.15	1.6001	2.3994	1161.86	2.01
363.15	1.6002	0.4004	1053.66	2
363.15	1.8003	1.1997	1101.25	2
363.15	2.0002	2.9993	1197.46	2.01
363.15	2.0006	1.9994	1154.25	2.01
363.15	2.0008	0	1042.8	0.22
363.15	2.3991	1.5996	1146.38	2
363.15	2.3994	0.5998	1093.15	2
363.15	2.5013	2.4992	1187.43	2.01
363.15	2.7996	1.1997	1136.89	2
363.15	2.9988	1.9996	1182.58	2.01
363.15	2.9995	1.9994	1182.5	2.01
363.15	3.0065	0	1078.24	0.23
363.15	3.1991	0.7998	1126.95	2
363.15	3.5014	1.4996	1169.47	2
363.15	3.5993	0.3998	1117.74	2
363.15	3.998	0.9997	1162.24	2
363.15	4.0015	0	1110.95	0.23
363.15	4.4993	0.4999	1149.6	2
363.15	4.998	0	1141.49	0.24
363.15	5.9996	0	1170.5	0.25
