Measured thermophysical data. High-Pressure Density Measurements for the Binary System Ethanol + Heptane
Source: J. Chem. Eng. Data, 2006, 10.1021/je050261u
Compound 1: ethanol, C2H6O, InChI=1S/C2H6O/c1-2-3/h3H,2H2,1H3
Compound 2: heptane, C7H16, InChI=1S/C7H16/c1-3-5-7-6-4-2/h3-7H2,1-2H3, purity 99.5%

System: ethanol + heptane; phases: Liquid
Property: Mass density, kg/m3 (Liquid); method: Vibrating tube method
Mole fraction of ethanol	Pressure, kPa	Temperature, K	Mass density, kg/m3	uncertainty
0	100	293.15	683.9	1
0	100	303.15	675.1	1
0	100	313.15	666.4	1
0	100	323.15	657.7	1
0	100	333.15	649.1	1
0	5000	293.15	688.2	1
0	5000	303.15	680	1
0	5000	313.15	671.6	1
0	5000	323.15	663.4	1
0	5000	333.15	655.2	1
0	10000	293.15	692.5	1.1
0	10000	303.15	684.4	1.1
0	10000	313.15	676.5	1.1
0	10000	323.15	668.7	1.1
0	10000	333.15	661	1.1
0	15000	293.15	696.5	1.1
0	15000	303.15	688.9	1.1
0	15000	313.15	681	1.1
0	15000	323.15	673.4	1.1
0	15000	333.15	666.3	1.1
0	20000	293.15	700.5	1.1
0	20000	303.15	692.8	1.1
0	20000	313.15	685.3	1.1
0	20000	323.15	678	1.1
0	20000	333.15	670.9	1.1
0	25000	293.15	704.1	1.1
0	25000	303.15	696.8	1.1
0	25000	313.15	689.4	1.1
0	25000	323.15	682.5	1.1
0	25000	333.15	675.4	1.1
0	30000	293.15	707.5	1.1
0	30000	303.15	700.3	1.1
0	30000	313.15	693.3	1.1
0	30000	323.15	686.5	1.1
0	30000	333.15	679.7	1.1
0	35000	293.15	710.8	1.1
0	35000	303.15	703.7	1.1
0	35000	313.15	696.9	1.1
0	35000	323.15	690.4	1.1
0	35000	333.15	683.8	1.2
0	40000	293.15	714	1.2
0	40000	303.15	707.1	1.2
0	40000	313.15	700.4	1.2
0	40000	323.15	694.1	1.2
0	40000	333.15	687.6	1.2
0	45000	293.15	716.9	1.2
0	45000	303.15	710.2	1.2
0	45000	313.15	703.9	1.2
0	45000	323.15	697.7	1.2
0	45000	333.15	691.3	1.2
0	50000	293.15	719.8	1.2
0	50000	303.15	713.4	1.2
0	50000	313.15	707.1	1.2
0	50000	323.15	701.1	1.2
0	50000	333.15	694.8	1.2
0	55000	293.15	722.7	1.2
0	55000	303.15	716.4	1.2
0	55000	313.15	710.1	1.2
0	55000	323.15	704.3	1.2
0	55000	333.15	698.4	1.2
0	60000	293.15	725.4	1.2
0	60000	303.15	719.2	1.3
0	60000	313.15	713.1	1.3
0	60000	323.15	707.4	1.3
0	60000	333.15	701.5	1.3
0	65000	293.15	728	1.3
0	65000	303.15	722	1.3
0	65000	313.15	716	1.3
0	65000	323.15	710.3	1.3
0	65000	333.15	704.7	1.3
0.125	100	293.15	688.1	1
0.125	100	303.15	679.8	1
0.125	100	313.15	670.7	1
0.125	100	323.15	661.8	1
0.125	100	333.15	652.3	1
0.125	5000	293.15	692.5	1
0.125	5000	303.15	684.8	1
0.125	5000	313.15	676.1	1
0.125	5000	323.15	667.4	1
0.125	5000	333.15	658.4	1
0.125	10000	293.15	696.8	1
0.125	10000	303.15	689.3	1.1
0.125	10000	313.15	681.1	1.1
0.125	10000	323.15	672.7	1.1
0.125	10000	333.15	664.2	1.1
0.125	15000	293.15	701	1.1
0.125	15000	303.15	693.8	1.1
0.125	15000	313.15	685.6	1.1
0.125	15000	323.15	677.6	1.1
0.125	15000	333.15	669.6	1.1
0.125	20000	293.15	704.9	1.1
0.125	20000	303.15	697.8	1.1
0.125	20000	313.15	689.9	1.1
0.125	20000	323.15	682.2	1.1
0.125	20000	333.15	674.4	1.1
0.125	25000	293.15	708.5	1.1
0.125	25000	303.15	701.7	1.1
0.125	25000	313.15	694	1.1
0.125	25000	323.15	686.8	1.1
0.125	25000	333.15	678.8	1.1
0.125	30000	293.15	712	1.1
0.125	30000	303.15	705.3	1.1
0.125	30000	313.15	697.9	1.1
0.125	30000	323.15	690.9	1.1
0.125	30000	333.15	683.1	1.1
0.125	35000	293.15	715.4	1.1
0.125	35000	303.15	708.9	1.1
0.125	35000	313.15	701.6	1.1
0.125	35000	323.15	694.7	1.1
0.125	35000	333.15	687.1	1.1
0.125	40000	293.15	718.4	1.1
0.125	40000	303.15	712.3	1.2
0.125	40000	313.15	705.2	1.2
0.125	40000	323.15	698.5	1.2
0.125	40000	333.15	690.9	1.2
0.125	45000	293.15	721.5	1.2
0.125	45000	303.15	715.4	1.2
0.125	45000	313.15	708.6	1.2
0.125	45000	323.15	702	1.2
0.125	45000	333.15	694.6	1.2
0.125	50000	293.15	724.5	1.2
0.125	50000	303.15	718.5	1.2
0.125	50000	313.15	711.9	1.2
0.125	50000	323.15	705.4	1.2
0.125	50000	333.15	698.2	1.2
0.125	55000	293.15	727.4	1.2
0.125	55000	303.15	721.4	1.2
0.125	55000	313.15	715.1	1.2
0.125	55000	323.15	708.6	1.2
0.125	55000	333.15	701.7	1.2
0.125	60000	293.15	730.2	1.2
0.125	60000	303.15	724.4	1.2
0.125	60000	313.15	718.1	1.3
0.125	60000	323.15	711.8	1.3
0.125	60000	333.15	705	1.3
0.125	65000	293.15	732.9	1.3
0.125	65000	303.15	727.2	1.3
0.125	65000	313.15	721	1.3
0.125	65000	323.15	714.7	1.3
0.125	65000	333.15	708.1	1.3
0.25	100	293.15	694.5	1
0.25	100	303.15	685.3	1
0.25	100	313.15	676	1
0.25	100	323.15	666.9	1
0.25	100	333.15	657.3	1
0.25	5000	293.15	699	1
0.25	5000	303.15	690.2	1
0.25	5000	313.15	681.4	1
0.25	5000	323.15	672.6	1
0.25	5000	333.15	663.4	1
0.25	10000	293.15	703.3	1
0.25	10000	303.15	694.8	1
0.25	10000	313.15	686.4	1.1
0.25	10000	323.15	678	1.1
0.25	10000	333.15	669.4	1.1
0.25	15000	293.15	707.3	1.1
0.25	15000	303.15	699.3	1.1
0.25	15000	313.15	690.9	1.1
0.25	15000	323.15	682.9	1.1
0.25	15000	333.15	674.7	1.1
0.25	20000	293.15	711.3	1.1
0.25	20000	303.15	703.4	1.1
0.25	20000	313.15	695.3	1.1
0.25	20000	323.15	687.6	1.1
0.25	20000	333.15	679.6	1.1
0.25	25000	293.15	714.9	1.1
0.25	25000	303.15	707.3	1.1
0.25	25000	313.15	699.4	1.1
0.25	25000	323.15	692.1	1.1
0.25	25000	333.15	684.3	1.1
0.25	30000	293.15	718.4	1.1
0.25	30000	303.15	710.9	1.1
0.25	30000	313.15	703.4	1.1
0.25	30000	323.15	696.2	1.1
0.25	30000	333.15	688.7	1.1
0.25	35000	293.15	721.7	1.1
0.25	35000	303.15	714.4	1.1
0.25	35000	313.15	707	1.1
0.25	35000	323.15	700	1.1
0.25	35000	333.15	692.8	1.1
0.25	40000	293.15	725	1.1
0.25	40000	303.15	717.9	1.1
0.25	40000	313.15	710.6	1.2
0.25	40000	323.15	703.7	1.2
0.25	40000	333.15	696.6	1.2
0.25	45000	293.15	728	1.2
0.25	45000	303.15	721.1	1.2
0.25	45000	313.15	714.1	1.2
0.25	45000	323.15	707.4	1.2
0.25	45000	333.15	700.4	1.2
0.25	50000	293.15	731.1	1.2
0.25	50000	303.15	724.2	1.2
0.25	50000	313.15	717.4	1.2
0.25	50000	323.15	710.8	1.2
0.25	50000	333.15	704	1.2
0.25	55000	293.15	733.9	1.2
0.25	55000	303.15	727.3	1.2
0.25	55000	313.15	720.6	1.2
0.25	55000	323.15	714	1.2
0.25	55000	333.15	707.6	1.2
0.25	60000	293.15	736.7	1.2
0.25	60000	303.15	730.2	1.2
0.25	60000	313.15	723.6	1.2
0.25	60000	323.15	717.2	1.3
0.25	60000	333.15	710.8	1.3
0.25	65000	293.15	739.4	1.2
0.25	65000	303.15	733	1.3
0.25	65000	313.15	726.6	1.3
0.25	65000	323.15	720.2	1.3
0.25	65000	333.15	714	1.3
0.375	100	293.15	701.9	1
0.375	100	303.15	692.7	1
0.375	100	313.15	683.3	1
0.375	100	323.15	674.1	1
0.375	100	333.15	664.5	1
0.375	5000	293.15	706.4	1
0.375	5000	303.15	697.6	1
0.375	5000	313.15	688.7	1
0.375	5000	323.15	679.7	1
0.375	5000	333.15	670.7	1
0.375	10000	293.15	710.9	1
0.375	10000	303.15	702.1	1
0.375	10000	313.15	693.6	1
0.375	10000	323.15	685.2	1
0.375	10000	333.15	676.6	1.1
0.375	15000	293.15	714.9	1.1
0.375	15000	303.15	706.8	1.1
0.375	15000	313.15	698.2	1.1
0.375	15000	323.15	690	1.1
0.375	15000	333.15	681.9	1.1
0.375	20000	293.15	718.9	1.1
0.375	20000	303.15	710.7	1.1
0.375	20000	313.15	702.6	1.1
0.375	20000	323.15	694.7	1.1
0.375	20000	333.15	686.7	1.1
0.375	25000	293.15	722.4	1.1
0.375	25000	303.15	714.7	1.1
0.375	25000	313.15	706.7	1.1
0.375	25000	323.15	699.2	1.1
0.375	25000	333.15	691.4	1.1
0.375	30000	293.15	725.9	1.1
0.375	30000	303.15	718.3	1.1
0.375	30000	313.15	710.5	1.1
0.375	30000	323.15	703.4	1.1
0.375	30000	333.15	695.7	1.1
0.375	35000	293.15	729.3	1.1
0.375	35000	303.15	721.8	1.1
0.375	35000	313.15	714.3	1.1
0.375	35000	323.15	707.3	1.1
0.375	35000	333.15	699.9	1.1
0.375	40000	293.15	732.5	1.1
0.375	40000	303.15	725.3	1.1
0.375	40000	313.15	717.9	1.1
0.375	40000	323.15	711	1.2
0.375	40000	333.15	703.8	1.2
0.375	45000	293.15	735.5	1.2
0.375	45000	303.15	728.5	1.2
0.375	45000	313.15	721.3	1.2
0.375	45000	323.15	714.6	1.2
0.375	45000	333.15	707.5	1.2
0.375	50000	293.15	738.5	1.2
0.375	50000	303.15	731.6	1.2
0.375	50000	313.15	724.7	1.2
0.375	50000	323.15	718	1.2
0.375	50000	333.15	711.2	1.2
0.375	55000	293.15	741.4	1.2
0.375	55000	303.15	734.7	1.2
0.375	55000	313.15	727.9	1.2
0.375	55000	323.15	721.3	1.2
0.375	55000	333.15	714.7	1.2
0.375	60000	293.15	744.2	1.2
0.375	60000	303.15	737.5	1.2
0.375	60000	313.15	730.9	1.2
0.375	60000	323.15	724.5	1.2
0.375	60000	333.15	718	1.2
0.375	65000	293.15	746.9	1.2
0.375	65000	303.15	740.4	1.2
0.375	65000	313.15	733.9	1.3
0.375	65000	323.15	727.5	1.3
0.375	65000	333.15	721.3	1.3
0.5	100	293.15	711.2	1
0.5	100	303.15	701.9	1
0.5	100	313.15	692.6	1
0.5	100	323.15	683.5	1
0.5	100	333.15	673.7	1
0.5	5000	293.15	715.7	1
0.5	5000	303.15	706.9	1
0.5	5000	313.15	697.9	1
0.5	5000	323.15	689.2	1
0.5	5000	333.15	679.9	1
0.5	10000	293.15	719.9	1
0.5	10000	303.15	711.4	1
0.5	10000	313.15	702.9	1
0.5	10000	323.15	694.6	1
0.5	10000	333.15	685.7	1
0.5	15000	293.15	724	1.1
0.5	15000	303.15	715.9	1.1
0.5	15000	313.15	707.5	1.1
0.5	15000	323.15	699.4	1.1
0.5	15000	333.15	691.1	1.1
0.5	20000	293.15	728	1.1
0.5	20000	303.15	720	1.1
0.5	20000	313.15	711.9	1.1
0.5	20000	323.15	704	1.1
0.5	20000	333.15	696	1.1
0.5	25000	293.15	731.6	1.1
0.5	25000	303.15	723.9	1.1
0.5	25000	313.15	716	1.1
0.5	25000	323.15	708.5	1.1
0.5	25000	333.15	700.6	1.1
0.5	30000	293.15	735.1	1.1
0.5	30000	303.15	727.5	1.1
0.5	30000	313.15	719.9	1.1
0.5	30000	323.15	712.7	1.1
0.5	30000	333.15	704.9	1.1
0.5	35000	293.15	738.5	1.1
0.5	35000	303.15	731.1	1.1
0.5	35000	313.15	723.6	1.1
0.5	35000	323.15	716.6	1.1
0.5	35000	333.15	709.1	1.1
0.5	40000	293.15	741.7	1.1
0.5	40000	303.15	734.5	1.1
0.5	40000	313.15	727.2	1.1
0.5	40000	323.15	720.4	1.1
0.5	40000	333.15	713	1.1
0.5	45000	293.15	744.9	1.1
0.5	45000	303.15	737.7	1.1
0.5	45000	313.15	730.8	1.2
0.5	45000	323.15	724	1.2
0.5	45000	333.15	716.7	1.2
0.5	50000	293.15	747.9	1.2
0.5	50000	303.15	740.8	1.2
0.5	50000	313.15	734.1	1.2
0.5	50000	323.15	727.4	1.2
0.5	50000	333.15	720.3	1.2
0.5	55000	293.15	750.8	1.2
0.5	55000	303.15	743.9	1.2
0.5	55000	313.15	737.3	1.2
0.5	55000	323.15	730.6	1.2
0.5	55000	333.15	723.9	1.2
0.5	60000	293.15	753.6	1.2
0.5	60000	303.15	746.9	1.2
0.5	60000	313.15	740.2	1.2
0.5	60000	323.15	733.8	1.2
0.5	60000	333.15	727.2	1.2
0.5	65000	293.15	756.3	1.2
0.5	65000	303.15	749.7	1.2
0.5	65000	313.15	743.2	1.2
0.5	65000	323.15	736.8	1.2
0.5	65000	333.15	730.4	1.3
0.625	100	293.15	722.6	1
0.625	100	303.15	713.4	1
0.625	100	313.15	704.2	1
0.625	100	323.15	695	1
0.625	100	333.15	685.1	1
0.625	5000	293.15	727.1	1
0.625	5000	303.15	718.3	1
0.625	5000	313.15	709.5	1
0.625	5000	323.15	700.5	1
0.625	5000	333.15	691.2	1
0.625	10000	293.15	731.4	1
0.625	10000	303.15	722.8	1
0.625	10000	313.15	714.3	1
0.625	10000	323.15	705.8	1
0.625	10000	333.15	697	1
0.625	15000	293.15	735.4	1
0.625	15000	303.15	727.4	1.1
0.625	15000	313.15	718.9	1.1
0.625	15000	323.15	710.7	1.1
0.625	15000	333.15	702.3	1.1
0.625	20000	293.15	739.4	1.1
0.625	20000	303.15	731.4	1.1
0.625	20000	313.15	723.3	1.1
0.625	20000	323.15	715.3	1.1
0.625	20000	333.15	707.1	1.1
0.625	25000	293.15	743	1.1
0.625	25000	303.15	735.4	1.1
0.625	25000	313.15	727.4	1.1
0.625	25000	323.15	719.8	1.1
0.625	25000	333.15	711.8	1.1
0.625	30000	293.15	746.5	1.1
0.625	30000	303.15	739	1.1
0.625	30000	313.15	731.3	1.1
0.625	30000	323.15	723.9	1.1
0.625	30000	333.15	716	1.1
0.625	35000	293.15	749.9	1.1
0.625	35000	303.15	742.6	1.1
0.625	35000	313.15	735	1.1
0.625	35000	323.15	727.8	1.1
0.625	35000	333.15	720.1	1.1
0.625	40000	293.15	753.1	1.1
0.625	40000	303.15	746	1.1
0.625	40000	313.15	738.6	1.1
0.625	40000	323.15	731.6	1.1
0.625	40000	333.15	724	1.1
0.625	45000	293.15	756.2	1.1
0.625	45000	303.15	749.2	1.1
0.625	45000	313.15	742.1	1.1
0.625	45000	323.15	735.2	1.1
0.625	45000	333.15	727.7	1.2
0.625	50000	293.15	759.3	1.1
0.625	50000	303.15	752.2	1.2
0.625	50000	313.15	745.4	1.2
0.625	50000	323.15	738.6	1.2
0.625	50000	333.15	731.4	1.2
0.625	55000	293.15	762.2	1.2
0.625	55000	303.15	755.3	1.2
0.625	55000	313.15	748.6	1.2
0.625	55000	323.15	741.9	1.2
0.625	55000	333.15	735	1.2
0.625	60000	293.15	765	1.2
0.625	60000	303.15	758.3	1.2
0.625	60000	313.15	751.6	1.2
0.625	60000	323.15	745.1	1.2
0.625	60000	333.15	738.2	1.2
0.625	65000	293.15	767.8	1.2
0.625	65000	303.15	761.1	1.2
0.625	65000	313.15	754.7	1.2
0.625	65000	323.15	748.1	1.2
0.625	65000	333.15	741.4	1.2
0.75	100	293.15	737.9	1
0.75	100	303.15	728.9	1
0.75	100	313.15	719.8	1
0.75	100	323.15	710.6	1
0.75	100	333.15	700.9	1
0.75	5000	293.15	742.3	1
0.75	5000	303.15	733.7	1
0.75	5000	313.15	724.9	1
0.75	5000	323.15	716.1	1
0.75	5000	333.15	706.8	1
0.75	10000	293.15	746.6	1
0.75	10000	303.15	738.2	1
0.75	10000	313.15	729.8	1
0.75	10000	323.15	721.3	1
0.75	10000	333.15	712.4	1
0.75	15000	293.15	750.7	1
0.75	15000	303.15	742.7	1
0.75	15000	313.15	734.3	1
0.75	15000	323.15	726.1	1
0.75	15000	333.15	717.7	1.1
0.75	20000	293.15	754.6	1.1
0.75	20000	303.15	746.7	1.1
0.75	20000	313.15	738.5	1.1
0.75	20000	323.15	730.6	1.1
0.75	20000	333.15	722.5	1.1
0.75	25000	293.15	758.3	1.1
0.75	25000	303.15	750.6	1.1
0.75	25000	313.15	742.6	1.1
0.75	25000	323.15	735.1	1.1
0.75	25000	333.15	727	1.1
0.75	30000	293.15	761.7	1.1
0.75	30000	303.15	754.2	1.1
0.75	30000	313.15	746.5	1.1
0.75	30000	323.15	739.1	1.1
0.75	30000	333.15	731.3	1.1
0.75	35000	293.15	765.1	1.1
0.75	35000	303.15	757.7	1.1
0.75	35000	313.15	750.3	1.1
0.75	35000	323.15	743	1.1
0.75	35000	333.15	735.4	1.1
0.75	40000	293.15	768.4	1.1
0.75	40000	303.15	761.2	1.1
0.75	40000	313.15	753.8	1.1
0.75	40000	323.15	746.8	1.1
0.75	40000	333.15	739.2	1.1
0.75	45000	293.15	771.4	1.1
0.75	45000	303.15	764.4	1.1
0.75	45000	313.15	757.3	1.1
0.75	45000	323.15	750.3	1.1
0.75	45000	333.15	743	1.1
0.75	50000	293.15	774.5	1.1
0.75	50000	303.15	767.5	1.1
0.75	50000	313.15	760.6	1.1
0.75	50000	323.15	753.8	1.2
0.75	50000	333.15	746.6	1.2
0.75	55000	293.15	777.4	1.1
0.75	55000	303.15	770.6	1.2
0.75	55000	313.15	763.8	1.2
0.75	55000	323.15	757	1.2
0.75	55000	333.15	750.2	1.2
0.75	60000	293.15	780.2	1.2
0.75	60000	303.15	773.5	1.2
0.75	60000	313.15	766.9	1.2
0.75	60000	323.15	760.2	1.2
0.75	60000	333.15	753.4	1.2
0.75	65000	293.15	782.9	1.2
0.75	65000	303.15	776.4	1.2
0.75	65000	313.15	769.9	1.2
0.75	65000	323.15	763.2	1.2
0.75	65000	333.15	756.7	1.2
0.875	100	293.15	758.9	1
0.875	100	303.15	749.9	1
0.875	100	313.15	740.8	1
0.875	100	323.15	731.7	1
0.875	100	333.15	722.2	1
0.875	5000	293.15	763.2	1
0.875	5000	303.15	754.6	1
0.875	5000	313.15	745.8	1
0.875	5000	323.15	737	1
0.875	5000	333.15	727.9	1
0.875	10000	293.15	767.4	1
0.875	10000	303.15	759	1
0.875	10000	313.15	750.5	1
0.875	10000	323.15	742.1	1
0.875	10000	333.15	733.4	1
0.875	15000	293.15	771.4	1
0.875	15000	303.15	763.3	1
0.875	15000	313.15	755	1
0.875	15000	323.15	746.7	1
0.875	15000	333.15	738.5	1
0.875	20000	293.15	775.3	1
0.875	20000	303.15	767.3	1
0.875	20000	313.15	759.1	1.1
0.875	20000	323.15	751.1	1.1
0.875	20000	333.15	743.2	1.1
0.875	25000	293.15	778.9	1.1
0.875	25000	303.15	771.1	1.1
0.875	25000	313.15	763.1	1.1
0.875	25000	323.15	755.5	1.1
0.875	25000	333.15	747.5	1.1
0.875	30000	293.15	782.3	1.1
0.875	30000	303.15	774.7	1.1
0.875	30000	313.15	766.9	1.1
0.875	30000	323.15	759.5	1.1
0.875	30000	333.15	751.7	1.1
0.875	35000	293.15	785.6	1.1
0.875	35000	303.15	778.2	1.1
0.875	35000	313.15	770.6	1.1
0.875	35000	323.15	763.4	1.1
0.875	35000	333.15	755.8	1.1
0.875	40000	293.15	788.9	1.1
0.875	40000	303.15	781.5	1.1
0.875	40000	313.15	774.1	1.1
0.875	40000	323.15	767	1.1
0.875	40000	333.15	759.6	1.1
0.875	45000	293.15	791.9	1.1
0.875	45000	303.15	784.8	1.1
0.875	45000	313.15	777.6	1.1
0.875	45000	323.15	770.6	1.1
0.875	45000	333.15	763.3	1.1
0.875	50000	293.15	794.9	1.1
0.875	50000	303.15	787.9	1.1
0.875	50000	313.15	780.9	1.1
0.875	50000	323.15	774	1.1
0.875	50000	333.15	766.8	1.1
0.875	55000	293.15	797.8	1.1
0.875	55000	303.15	791	1.1
0.875	55000	313.15	784.1	1.1
0.875	55000	323.15	777.2	1.1
0.875	55000	333.15	770.4	1.2
0.875	60000	293.15	800.6	1.1
0.875	60000	303.15	793.9	1.1
0.875	60000	313.15	787.1	1.2
0.875	60000	323.15	780.3	1.2
0.875	60000	333.15	773.6	1.2
0.875	65000	293.15	803.4	1.2
0.875	65000	303.15	796.7	1.2
0.875	65000	313.15	790.1	1.2
0.875	65000	323.15	783.4	1.2
0.875	65000	333.15	776.8	1.2
1	100	293.15	789.4	1
1	100	303.15	781.1	1
1	100	313.15	772.3	1
1	100	323.15	763.1	1
1	100	333.15	754.2	1
1	5000	293.15	793.5	1
1	5000	303.15	785.7	1
1	5000	313.15	776.9	1
1	5000	323.15	768	1
1	5000	333.15	759.4	1
1	10000	293.15	797.5	1
1	10000	303.15	789.8	1
1	10000	313.15	781.5	1
1	10000	323.15	772.9	1
1	10000	333.15	764.6	1
1	15000	293.15	801.4	1
1	15000	303.15	794	1
1	15000	313.15	785.8	1
1	15000	323.15	777.3	1
1	15000	333.15	769.4	1
1	20000	293.15	805.2	1
1	20000	303.15	797.8	1
1	20000	313.15	789.8	1
1	20000	323.15	781.4	1
1	20000	333.15	773.8	1
1	25000	293.15	808.7	1
1	25000	303.15	801.6	1
1	25000	313.15	793.7	1
1	25000	323.15	785.7	1.1
1	25000	333.15	777.8	1.1
1	30000	293.15	812.1	1.1
1	30000	303.15	805	1.1
1	30000	313.15	797.4	1.1
1	30000	323.15	789.4	1.1
1	30000	333.15	781.7	1.1
1	35000	293.15	815.3	1.1
1	35000	303.15	808.5	1.1
1	35000	313.15	801	1.1
1	35000	323.15	793.1	1.1
1	35000	333.15	785.6	1.1
1	40000	293.15	818.6	1.1
1	40000	303.15	811.8	1.1
1	40000	313.15	804.4	1.1
1	40000	323.15	796.7	1.1
1	40000	333.15	789.3	1.1
1	45000	293.15	821.6	1.1
1	45000	303.15	814.9	1.1
1	45000	313.15	807.8	1.1
1	45000	323.15	800.1	1.1
1	45000	333.15	792.8	1.1
1	50000	293.15	824.6	1.1
1	50000	303.15	817.9	1.1
1	50000	313.15	810.8	1.1
1	50000	323.15	803.5	1.1
1	50000	333.15	796.3	1.1
1	55000	293.15	827.5	1.1
1	55000	303.15	821.1	1.1
1	55000	313.15	813.7	1.1
1	55000	323.15	806.6	1.1
1	55000	333.15	799.7	1.1
1	60000	293.15	830.2	1.1
1	60000	303.15	824	1.1
1	60000	313.15	816.6	1.1
1	60000	323.15	809.7	1.1
1	60000	333.15	802.9	1.1
1	65000	293.15	832.9	1.1
1	65000	303.15	826.7	1.1
1	65000	313.15	819.5	1.1
1	65000	323.15	812.6	1.1
1	65000	333.15	806	1.1
