Measured thermophysical data. Viscosity Measurements on Nitrogen
Source: J. Chem. Eng. Data, 2006, 10.1021/je050399c
Compound 1: nitrogen, N2, InChI=1S/N2/c1-2

System: nitrogen; phases: Fluid (supercritical or subcritical phases)
Property: Viscosity, Pa*s (Fluid (supercritical or subcritical phases)); method: Vibrating wire viscometry
Temperature, K	Pressure, kPa	Viscosity, Pa*s	uncertainty
298.15	100	1.7778e-05	8.5e-08
298.15	150	1.7794e-05	8.3e-08
298.15	200	1.7806e-05	7.8e-08
298.15	250	1.7815e-05	7.7e-08
298.15	300.1	1.7824e-05	7.8e-08
298.15	350.1	1.7836e-05	7.7e-08
298.15	400	1.7839e-05	7.7e-08
298.15	450.1	1.7843e-05	7.6e-08
298.15	500.1	1.7849e-05	7.6e-08
298.15	600.1	1.7857e-05	7.6e-08
298.15	700.1	1.7871e-05	7.7e-08
298.15	800.1	1.7886e-05	7.7e-08
298.15	900.1	1.7897e-05	7.8e-08
298.15	1000.2	1.7916e-05	7.8e-08
298.15	1100.2	1.7935e-05	7.8e-08
298.15	1200.1	1.7947e-05	1.51e-07
298.15	1300.1	1.7957e-05	7.8e-08
298.15	1400.1	1.7969e-05	1.37e-07
298.15	1500.1	1.7978e-05	7.8e-08
298.15	1599.9	1.8002e-05	7.9e-08
298.15	1700	1.8015e-05	7.9e-08
298.15	1800.1	1.8032e-05	7.8e-08
298.15	1899.9	1.8045e-05	7.8e-08
298.15	2000.4	1.806e-05	7.8e-08
298.15	2250	1.8098e-05	8.1e-08
298.15	2500.3	1.8146e-05	8.1e-08
298.15	2750.4	1.8184e-05	7.9e-08
298.15	3000.9	1.8217e-05	7.9e-08
298.15	3250.3	1.8254e-05	8.3e-08
298.15	3500.7	1.8314e-05	8.4e-08
298.15	3750.7	1.8355e-05	8.3e-08
298.15	4001	1.8409e-05	8.5e-08
298.15	4250.5	1.8459e-05	8.5e-08
298.15	4499.8	1.8513e-05	8.8e-08
298.15	4749.9	1.8578e-05	8.4e-08
298.15	5000.5	1.8608e-05	8.4e-08
298.15	5500.9	1.8719e-05	8.9e-08
298.15	6005.4	1.8844e-05	9.1e-08
298.15	6500.4	1.8968e-05	9.1e-08
298.15	7002.5	1.9087e-05	9.1e-08
298.15	7501.6	1.9212e-05	9.2e-08
298.15	8000.9	1.9341e-05	9.3e-08
298.15	8500.9	1.9471e-05	9.5e-08
298.15	8999.3	1.9611e-05	9.5e-08
298.15	9499.4	1.9735e-05	9.6e-08
298.15	10001	1.9882e-05	9.9e-08
298.15	11005	2.0179e-05	1e-07
298.15	12002	2.0465e-05	1.02e-07
298.15	13004	2.079e-05	1.05e-07
298.15	14004	2.1097e-05	1.06e-07
298.15	15006	2.1424e-05	1.08e-07
298.15	16001	2.1756e-05	1.11e-07
298.15	17010	2.2114e-05	1.13e-07
298.15	18008	2.2468e-05	1.15e-07
298.15	19006	2.2837e-05	1.16e-07
298.15	20005	2.3184e-05	1.16e-07
298.15	21000	2.3535e-05	1.19e-07
298.15	22001	2.3913e-05	1.22e-07
298.15	23008	2.4293e-05	1.22e-07
298.15	24003	2.4658e-05	1.23e-07
298.15	25014	2.503e-05	1.25e-07
298.15	26005	2.5411e-05	1.28e-07
298.15	27010	2.5805e-05	1.3e-07
298.15	28009	2.6199e-05	1.3e-07
298.15	29013	2.6573e-05	1.3e-07
298.15	30010	2.6946e-05	1.33e-07
298.15	31009	2.7346e-05	1.36e-07
298.15	31995	2.7743e-05	1.37e-07
298.15	33004	2.8143e-05	1.38e-07
298.15	33949	2.8515e-05	1.38e-07
298.15	35027	2.8931e-05	1.39e-07
323.15	100	1.8904e-05	8.9e-08
323.15	200.1	1.8934e-05	8.4e-08
323.15	300.1	1.8946e-05	8.2e-08
323.15	400.1	1.8961e-05	8e-08
323.15	600.1	1.8983e-05	7.9e-08
323.15	800.3	1.9004e-05	7.9e-08
323.15	1000.6	1.9031e-05	8.1e-08
323.15	1500.7	1.9097e-05	8.1e-08
323.15	2000.7	1.9168e-05	8.2e-08
323.15	2500.9	1.9235e-05	8.3e-08
323.15	3000.8	1.9321e-05	8.4e-08
323.15	3502.6	1.94e-05	8.4e-08
323.15	4001.8	1.9477e-05	8.5e-08
323.15	4500.4	1.957e-05	8.6e-08
323.15	5002.2	1.9648e-05	8.7e-08
323.15	5503.9	1.9756e-05	8.7e-08
323.15	6003.6	1.9826e-05	8.7e-08
323.15	6503.6	1.9935e-05	9.2e-08
323.15	7009.3	2.0052e-05	9.2e-08
323.15	7502.7	2.0153e-05	9.2e-08
323.15	8003.1	2.0272e-05	9.3e-08
323.15	8504.2	2.038e-05	9.4e-08
323.15	9006.1	2.05e-05	9.5e-08
323.15	9500.4	2.062e-05	9.5e-08
323.15	10007	2.073e-05	9.6e-08
323.15	11007	2.0977e-05	9.9e-08
323.15	12006	2.1243e-05	1.01e-07
323.15	13005	2.151e-05	1.01e-07
323.15	14005	2.1763e-05	1.03e-07
323.15	15005	2.205e-05	1.05e-07
323.15	16009	2.2334e-05	1.06e-07
323.15	17007	2.2616e-05	1.08e-07
323.15	18000	2.2918e-05	1.1e-07
323.15	19007	2.3229e-05	1.12e-07
323.15	19999	2.3538e-05	1.12e-07
323.15	21010	2.3832e-05	1.14e-07
323.15	22011	2.4172e-05	1.18e-07
323.15	23013	2.451e-05	1.17e-07
323.15	24004	2.4806e-05	1.16e-07
323.15	25005	2.5113e-05	1.2e-07
323.15	26011	2.5472e-05	1.22e-07
323.15	27000	2.5785e-05	1.22e-07
323.15	28012	2.6128e-05	1.24e-07
323.15	29014	2.6464e-05	1.24e-07
323.15	30014	2.6774e-05	1.27e-07
323.15	31013	2.7143e-05	1.29e-07
323.15	31997	2.7464e-05	1.29e-07
323.15	33007	2.7813e-05	1.3e-07
323.15	34009	2.8135e-05	1.32e-07
323.15	35066	2.8525e-05	1.45e-07
348.15	100.1	2.0005e-05	8.8e-08
348.15	200.1	2.0029e-05	9.1e-08
348.15	300.1	2.0041e-05	8.5e-08
348.15	400.2	2.0051e-05	8.4e-08
348.15	600.5	2.0073e-05	8.3e-08
348.15	800.6	2.0087e-05	8.3e-08
348.15	1000.9	2.0111e-05	8.5e-08
348.15	1501.9	2.0167e-05	8.4e-08
348.15	2001.6	2.0228e-05	8.5e-08
348.15	2502	2.0298e-05	8.6e-08
348.15	3002.6	2.0367e-05	8.7e-08
348.15	3504.2	2.0439e-05	8.7e-08
348.15	3999.6	2.0509e-05	8.7e-08
348.15	4508.2	2.0583e-05	8.8e-08
348.15	5002.2	2.0659e-05	8.9e-08
348.15	5502.8	2.0742e-05	9.1e-08
348.15	6003.4	2.0836e-05	9.1e-08
348.15	6501.3	2.0918e-05	9.1e-08
348.15	7002.3	2.1008e-05	9.2e-08
348.15	7502.5	2.1099e-05	9.3e-08
348.15	8002.1	2.1196e-05	9.3e-08
348.15	8501.8	2.1292e-05	9.4e-08
348.15	9004	2.1392e-05	9.6e-08
348.15	9498.9	2.1503e-05	9.7e-08
348.15	10001	2.1608e-05	9.6e-08
348.15	11007	2.1817e-05	9.7e-08
348.15	12007	2.2034e-05	9.9e-08
348.15	13006	2.2267e-05	1.01e-07
348.15	14001	2.2498e-05	1.02e-07
348.15	15011	2.2742e-05	1.04e-07
348.15	16001	2.2993e-05	1.06e-07
348.15	17002	2.3255e-05	1.06e-07
348.15	18004	2.3508e-05	1.08e-07
348.15	19008	2.3781e-05	1.09e-07
348.15	20006	2.4037e-05	1.1e-07
348.15	21004	2.4308e-05	1.11e-07
348.15	22011	2.4577e-05	1.13e-07
348.15	23006	2.4864e-05	1.15e-07
348.15	24004	2.5145e-05	1.15e-07
348.15	25007	2.5431e-05	1.16e-07
348.15	26007	2.5709e-05	1.17e-07
348.15	27005	2.5983e-05	1.19e-07
348.15	27995	2.6283e-05	1.19e-07
348.15	29000	2.6546e-05	1.21e-07
348.15	30021	2.6872e-05	1.24e-07
348.15	31015	2.717e-05	1.24e-07
348.15	32013	2.7466e-05	1.25e-07
348.15	33000	2.7762e-05	1.27e-07
348.15	34013	2.8075e-05	1.27e-07
348.15	34919	2.8332e-05	1.38e-07
373.15	100.3	2.1025e-05	1.03e-07
373.15	200.1	2.1061e-05	9.1e-08
373.15	301	2.108e-05	9e-08
373.15	400.2	2.1087e-05	8.7e-08
373.15	600.7	2.1104e-05	8.7e-08
373.15	800.6	2.112e-05	8.8e-08
373.15	1000.5	2.1138e-05	8.8e-08
373.15	1501.2	2.1203e-05	8.8e-08
373.15	2002.1	2.1253e-05	8.8e-08
373.15	2501.4	2.131e-05	8.9e-08
373.15	3003.5	2.1372e-05	8.9e-08
373.15	3503.3	2.1436e-05	9e-08
373.15	4010	2.1503e-05	9e-08
373.15	4501.6	2.157e-05	9.1e-08
373.15	5007.4	2.1636e-05	9.2e-08
373.15	5504.7	2.1718e-05	9.3e-08
373.15	6000.6	2.1797e-05	9.3e-08
373.15	6507.4	2.1877e-05	9.3e-08
373.15	7006.9	2.1944e-05	9.3e-08
373.15	7500.7	2.2026e-05	9.5e-08
373.15	8002.7	2.2112e-05	9.5e-08
373.15	8504.3	2.2199e-05	9.5e-08
373.15	9002.1	2.2279e-05	9.7e-08
373.15	9499.1	2.2383e-05	9.7e-08
373.15	10010	2.2468e-05	9.8e-08
373.15	11006	2.267e-05	9.9e-08
373.15	12000	2.2845e-05	1e-07
373.15	13002	2.3068e-05	1.02e-07
373.15	14010	2.327e-05	1.02e-07
373.15	15013	2.348e-05	1.03e-07
373.15	16013	2.3701e-05	1.05e-07
373.15	17018	2.392e-05	1.06e-07
373.15	18001	2.4142e-05	1.08e-07
373.15	19005	2.44e-05	1.09e-07
373.15	19977	2.4617e-05	1.09e-07
373.15	21015	2.4868e-05	1.1e-07
373.15	22011	2.5098e-05	1.12e-07
373.15	23004	2.5364e-05	1.13e-07
373.15	24005	2.5586e-05	1.13e-07
373.15	25012	2.5838e-05	1.15e-07
373.15	26006	2.6099e-05	1.16e-07
373.15	27007	2.6345e-05	1.17e-07
373.15	28017	2.6616e-05	1.19e-07
373.15	29005	2.6884e-05	1.2e-07
373.15	30003	2.7138e-05	1.21e-07
373.15	31001	2.7411e-05	1.21e-07
373.15	32010	2.7653e-05	1.22e-07
373.15	33011	2.792e-05	1.25e-07
373.15	34006	2.8207e-05	1.27e-07
373.15	34834	2.8444e-05	1.31e-07
398.15	100.1	2.2033e-05	1.04e-07
398.15	200.9	2.2072e-05	9.4e-08
398.15	300.8	2.2087e-05	9.5e-08
398.15	400.5	2.2102e-05	9.3e-08
398.15	600.3	2.2124e-05	9.1e-08
398.15	800.5	2.2131e-05	9e-08
398.15	1001	2.2153e-05	9.2e-08
398.15	1501.8	2.2204e-05	9.1e-08
398.15	2001.3	2.2252e-05	9.2e-08
398.15	2495.8	2.2305e-05	9.2e-08
398.15	3000.7	2.2359e-05	9.3e-08
398.15	3501.8	2.2418e-05	9.3e-08
398.15	4002.8	2.2474e-05	9.3e-08
398.15	4503.1	2.2537e-05	9.4e-08
398.15	5003.7	2.2601e-05	9.4e-08
398.15	5502.6	2.2661e-05	9.5e-08
398.15	6004.9	2.2734e-05	9.5e-08
398.15	6501.8	2.2796e-05	9.5e-08
398.15	7005.3	2.2871e-05	9.6e-08
398.15	7507.1	2.2944e-05	9.7e-08
398.15	8007.6	2.302e-05	9.8e-08
398.15	8501	2.3106e-05	9.8e-08
398.15	9010.3	2.3173e-05	9.7e-08
398.15	9506.9	2.3244e-05	9.9e-08
398.15	10005	2.3337e-05	1e-07
398.15	11003	2.3502e-05	1.01e-07
398.15	11989	2.3685e-05	1.02e-07
398.15	13002	2.3864e-05	1.02e-07
398.15	13997	2.4047e-05	1.03e-07
398.15	15013	2.4225e-05	1.04e-07
398.15	16005	2.4434e-05	1.06e-07
398.15	17010	2.4631e-05	1.06e-07
398.15	18010	2.4822e-05	1.07e-07
398.15	19003	2.5033e-05	1.09e-07
398.15	20019	2.5246e-05	1.1e-07
398.15	21009	2.5461e-05	1.11e-07
398.15	22011	2.5676e-05	1.11e-07
398.15	23034	2.5896e-05	1.12e-07
398.15	23993	2.6102e-05	1.14e-07
398.15	25001	2.6336e-05	1.15e-07
398.15	25977	2.6566e-05	1.15e-07
398.15	27031	2.6793e-05	1.16e-07
398.15	28028	2.7028e-05	1.19e-07
398.15	29028	2.7279e-05	1.19e-07
398.15	29911	2.7472e-05	1.19e-07
398.15	31023	2.7729e-05	1.2e-07
398.15	32013	2.7956e-05	1.22e-07
398.15	33034	2.8221e-05	1.23e-07
398.15	34043	2.8452e-05	1.24e-07
398.15	35040	2.8724e-05	1.29e-07
423.15	100.1	2.3018e-05	1.06e-07
423.15	200.1	2.3054e-05	9.9e-08
423.15	300.4	2.3069e-05	9.8e-08
423.15	400.1	2.3089e-05	9.6e-08
423.15	600.2	2.3104e-05	9.4e-08
423.15	800.3	2.3117e-05	9.4e-08
423.15	1001.1	2.3132e-05	9.4e-08
423.15	1502.5	2.3177e-05	9.5e-08
423.15	1997.8	2.3223e-05	9.5e-08
423.15	2498	2.3271e-05	9.5e-08
423.15	3002.3	2.3322e-05	9.6e-08
423.15	3505.8	2.3367e-05	9.6e-08
423.15	4004	2.3417e-05	9.7e-08
423.15	4501.2	2.3477e-05	9.7e-08
423.15	5002.7	2.3532e-05	9.7e-08
423.15	5502.8	2.3583e-05	9.8e-08
423.15	6002.2	2.3651e-05	9.9e-08
423.15	6502.3	2.372e-05	9.8e-08
423.15	7003	2.3775e-05	9.8e-08
423.15	7497.9	2.3842e-05	1e-07
423.15	8004.2	2.3914e-05	1e-07
423.15	8503	2.3978e-05	1e-07
423.15	9004.2	2.4052e-05	1.01e-07
423.15	9504.3	2.4122e-05	1e-07
423.15	10006	2.4185e-05	1.01e-07
423.15	11004	2.4344e-05	1.03e-07
423.15	11994	2.4506e-05	1.03e-07
423.15	13002	2.4665e-05	1.04e-07
423.15	14011	2.4832e-05	1.05e-07
423.15	15002	2.5005e-05	1.06e-07
423.15	16009	2.5174e-05	1.07e-07
423.15	17009	2.5354e-05	1.08e-07
423.15	17999	2.5539e-05	1.09e-07
423.15	19008	2.5726e-05	1.1e-07
423.15	20008	2.5913e-05	1.1e-07
423.15	20987	2.6092e-05	1.12e-07
423.15	22009	2.6302e-05	1.13e-07
423.15	23014	2.6505e-05	1.13e-07
423.15	24019	2.6691e-05	1.15e-07
423.15	25024	2.6911e-05	1.16e-07
423.15	26017	2.7107e-05	1.16e-07
423.15	27035	2.7323e-05	1.17e-07
423.15	28010	2.7529e-05	1.18e-07
423.15	29015	2.7736e-05	1.18e-07
423.15	30011	2.7942e-05	1.2e-07
423.15	31001	2.8155e-05	1.21e-07
423.15	31988	2.8366e-05	1.21e-07
423.15	32989	2.8585e-05	1.23e-07
423.15	34020	2.8815e-05	1.23e-07
423.15	35050	2.9033e-05	1.24e-07
