Measured thermophysical data. Studies of Viscosities and Excess Molar Volumes of the Binary Mixtures of 1-Heptanol + 1,2-Dichloroethane, + 1,1,1-Trichloroethane, + 1,1,2,2-Tetrachloroethane, + Trichloroethylene and Tetrachloroethylene at (293.15, 298.15, and 303.15) K for the Liquid Region and at Ambient Pressure
Source: J. Chem. Eng. Data, 2005, 10.1021/je0501890
Compound 1: heptan-1-ol, C7H16O, InChI=1S/C7H16O/c1-2-3-4-5-6-7-8/h8H,2-7H2,1H3, purity 99%
Compound 2: 1,2-dichloroethane, C2H4Cl2, InChI=1S/C2H4Cl2/c3-1-2-4/h1-2H2, purity 99%
Compound 3: 1,1,1-trichloroethane, C2H3Cl3, InChI=1S/C2H3Cl3/c1-2(3,4)5/h1H3, purity 99%
Compound 4: 1,1,2,2-tetrachloroethane, C2H2Cl4, InChI=1S/C2H2Cl4/c3-1(4)2(5)6/h1-2H, purity 99%
Compound 5: trichloroethene, C2HCl3, InChI=1S/C2HCl3/c3-1-2(4)5/h1H, purity 99%
Compound 6: tetrachloroethene, C2Cl4, InChI=1S/C2Cl4/c3-1(4)2(5)6, purity 99%

System: heptan-1-ol; phases: Liquid
Property: Mass density, kg/m3 (Liquid); method: VIBTUB:UFactor:4
Temperature, K	Pressure, kPa	Mass density, kg/m3	uncertainty
298.15	101.325	818.48	0.68

System: heptan-1-ol; phases: Liquid
Property: Isobaric coefficient of expansion, 1/K (Liquid); method: calculated from measured densities
Temperature, K	Pressure, kPa	Isobaric coefficient of expansion, 1/K	uncertainty
298.15	101.325	0.000856	1.7e-05

System: heptan-1-ol; phases: Liquid
Property: Viscosity, Pa*s (Liquid); method: CAPTUB:UFactor:2
Temperature, K	Pressure, kPa	Viscosity, Pa*s	uncertainty
298.15	101.325	0.005818	7.9e-05

System: 1,2-dichloroethane; phases: Liquid
Property: Mass density, kg/m3 (Liquid); method: VIBTUB:UFactor:4
Temperature, K	Pressure, kPa	Mass density, kg/m3	uncertainty
298.15	101.325	1245.64	0.92

System: 1,2-dichloroethane; phases: Liquid
Property: Isobaric coefficient of expansion, 1/K (Liquid); method: calculated from measured densities
Temperature, K	Pressure, kPa	Isobaric coefficient of expansion, 1/K	uncertainty
298.15	101.325	0.001169	2.3e-05

System: 1,2-dichloroethane; phases: Liquid
Property: Viscosity, Pa*s (Liquid); method: CAPTUB:UFactor:2
Temperature, K	Pressure, kPa	Viscosity, Pa*s	uncertainty
298.15	101.325	0.000776	1.1e-05

System: 1,1,1-trichloroethane; phases: Liquid
Property: Mass density, kg/m3 (Liquid); method: VIBTUB:UFactor:4
Temperature, K	Pressure, kPa	Mass density, kg/m3	uncertainty
298.15	101.325	1329.55	1.08

System: 1,1,1-trichloroethane; phases: Liquid
Property: Isobaric coefficient of expansion, 1/K (Liquid); method: calculated from measured densities
Temperature, K	Pressure, kPa	Isobaric coefficient of expansion, 1/K	uncertainty
298.15	101.325	0.00125	2.5e-05

System: 1,1,1-trichloroethane; phases: Liquid
Property: Viscosity, Pa*s (Liquid); method: CAPTUB:UFactor:2
Temperature, K	Pressure, kPa	Viscosity, Pa*s	uncertainty
298.15	101.325	0.000789	1.1e-05

System: 1,1,2,2-tetrachloroethane; phases: Liquid
Property: Mass density, kg/m3 (Liquid); method: VIBTUB:UFactor:4
Temperature, K	Pressure, kPa	Mass density, kg/m3	uncertainty
298.15	101.325	1586.65	1.59

System: 1,1,2,2-tetrachloroethane; phases: Liquid
Property: Isobaric coefficient of expansion, 1/K (Liquid); method: calculated from measured densities
Temperature, K	Pressure, kPa	Isobaric coefficient of expansion, 1/K	uncertainty
298.15	101.325	0.000979	2.3e-05

System: 1,1,2,2-tetrachloroethane; phases: Liquid
Property: Viscosity, Pa*s (Liquid); method: CAPTUB:UFactor:2
Temperature, K	Pressure, kPa	Viscosity, Pa*s	uncertainty
298.15	101.325	0.001431	1.9e-05

System: trichloroethene; phases: Liquid
Property: Mass density, kg/m3 (Liquid); method: VIBTUB:UFactor:4
Temperature, K	Pressure, kPa	Mass density, kg/m3	uncertainty
298.15	101.325	1455.65	1.32

System: trichloroethene; phases: Liquid
Property: Isobaric coefficient of expansion, 1/K (Liquid); method: calculated from measured densities
Temperature, K	Pressure, kPa	Isobaric coefficient of expansion, 1/K	uncertainty
298.15	101.325	0.001153	2.3e-05

System: trichloroethene; phases: Liquid
Property: Viscosity, Pa*s (Liquid); method: CAPTUB:UFactor:2
Temperature, K	Pressure, kPa	Viscosity, Pa*s	uncertainty
298.15	101.325	0.000536	8e-06

System: tetrachloroethene; phases: Liquid
Property: Mass density, kg/m3 (Liquid); method: VIBTUB:UFactor:4
Temperature, K	Pressure, kPa	Mass density, kg/m3	uncertainty
298.15	101.325	1613.2	1.64

System: tetrachloroethene; phases: Liquid
Property: Isobaric coefficient of expansion, 1/K (Liquid); method: calculated from measured densities
Temperature, K	Pressure, kPa	Isobaric coefficient of expansion, 1/K	uncertainty
298.15	101.325	0.00103	2.1e-05

System: tetrachloroethene; phases: Liquid
Property: Viscosity, Pa*s (Liquid); method: CAPTUB:UFactor:2
Temperature, K	Pressure, kPa	Viscosity, Pa*s	uncertainty
298.15	101.325	0.000839	1.2e-05

System: 1,2-dichloroethane + heptan-1-ol; phases: Liquid
Fixed: Pressure, kPa = 101.325
Property: Viscosity, Pa*s (Liquid); method: CAPTUB:UFactor:2
Temperature, K	Mole fraction of heptan-1-ol	Viscosity, Pa*s	uncertainty
293.15	0.1023	0.000922	1.3e-05
293.15	0.2009	0.001104	1.5e-05
293.15	0.2957	0.001342	1.8e-05
293.15	0.3465	0.001501	2e-05
293.15	0.4616	0.001939	2.6e-05
293.15	0.5035	0.002139	2.9e-05
293.15	0.5437	0.002355	3.2e-05
293.15	0.5998	0.002703	3.6e-05
293.15	0.6972	0.003412	4.6e-05
293.15	0.7475	0.003887	5.2e-05
293.15	0.7978	0.004397	5.9e-05
293.15	0.8862	0.005474	7.2e-05
298.15	0.1023	0.000851	1.2e-05
298.15	0.2009	0.001006	1.4e-05
298.15	0.2957	0.001215	1.7e-05
298.15	0.3465	0.001353	1.8e-05
298.15	0.4616	0.001732	2.3e-05
298.15	0.5035	0.001901	2.6e-05
298.15	0.5437	0.002079	2.8e-05
298.15	0.5998	0.002367	3.2e-05
298.15	0.6972	0.002955	4e-05
298.15	0.7475	0.003354	4.5e-05
298.15	0.7978	0.003773	5.1e-05
298.15	0.8862	0.00465	6.3e-05
303.15	0.1023	0.000796	1.1e-05
303.15	0.2009	0.000928	1.3e-05
303.15	0.2957	0.001105	1.5e-05
303.15	0.3465	0.001227	1.7e-05
303.15	0.4616	0.001546	2.1e-05
303.15	0.5035	0.001699	2.3e-05
303.15	0.5437	0.001844	2.5e-05
303.15	0.5998	0.002089	2.8e-05
303.15	0.6972	0.002583	3.5e-05
303.15	0.7475	0.002905	4e-05
303.15	0.7978	0.003253	4.4e-05
303.15	0.8862	0.003979	5.5e-05

System: 1,2-dichloroethane + heptan-1-ol; phases: Liquid
Fixed: Pressure, kPa = 101.325
Property: Mass density, kg/m3 (Liquid); method: VIBTUB:UFactor:4
Temperature, K	Mole fraction of heptan-1-ol	Mass density, kg/m3	uncertainty
293.15	0.0502	1213.23	0.85
293.15	0.1024	1175.9	0.79
293.15	0.1493	1145.01	0.74
293.15	0.2511	1085.65	0.66
293.15	0.3445	1038.38	0.6
293.15	0.3896	1017.38	0.58
293.15	0.4198	1004.18	0.57
293.15	0.455	989.42	0.56
293.15	0.5017	970.85	0.57
293.15	0.551	952.41	0.57
293.15	0.6036	933.66	0.57
293.15	0.6481	918.87	0.58
293.15	0.6602	914.96	0.58
293.15	0.6956	903.77	0.59
293.15	0.748	887.98	0.6
293.15	0.7974	873.84	0.61
293.15	0.8548	858.28	0.62
293.15	0.8898	849.21	0.63
293.15	0.9489	834.67	0.65
298.15	0.0502	1206.24	0.84
298.15	0.1024	1169.21	0.78
298.15	0.1493	1138.62	0.73
298.15	0.2511	1079.74	0.65
298.15	0.3445	1032.88	0.6
298.15	0.3896	1012.13	0.57
298.15	0.4198	999.04	0.56
298.15	0.455	984.4	0.57
298.15	0.5017	966	0.57
298.15	0.551	947.76	0.57
298.15	0.6036	929.17	0.58
298.15	0.6481	914.5	0.58
298.15	0.6602	910.61	0.58
298.15	0.6956	899.55	0.59
298.15	0.748	883.88	0.6
298.15	0.7974	869.91	0.61
298.15	0.8548	854.47	0.63
298.15	0.8898	845.44	0.64
298.15	0.9489	831.05	0.65
303.15	0.0502	1199.3	0.83
303.15	0.1024	1162.55	0.77
303.15	0.1493	1132.15	0.72
303.15	0.2511	1073.87	0.64
303.15	0.3445	1027.38	0.59
303.15	0.3896	1006.83	0.57
303.15	0.4198	993.91	0.56
303.15	0.455	979.35	0.57
303.15	0.5017	961.14	0.57
303.15	0.551	943.04	0.57
303.15	0.6036	924.63	0.58
303.15	0.6481	910.13	0.59
303.15	0.6602	906.29	0.59
303.15	0.6956	895.28	0.59
303.15	0.748	879.79	0.61
303.15	0.7974	865.91	0.62
303.15	0.8548	850.61	0.63
303.15	0.8898	841.7	0.64
303.15	0.9489	827.43	0.66

System: 1,1,1-trichloroethane + heptan-1-ol; phases: Liquid
Fixed: Pressure, kPa = 101.325
Property: Viscosity, Pa*s (Liquid); method: CAPTUB:UFactor:2
Temperature, K	Mole fraction of heptan-1-ol	Viscosity, Pa*s	uncertainty
293.15	0.1048	0.000996	1.4e-05
293.15	0.2027	0.001224	1.7e-05
293.15	0.3034	0.001529	2.1e-05
293.15	0.3542	0.001714	2.3e-05
293.15	0.398	0.001895	2.5e-05
293.15	0.503	0.002426	3.3e-05
293.15	0.5533	0.002729	3.6e-05
293.15	0.5993	0.003043	4.1e-05
293.15	0.6811	0.00369	4.9e-05
293.15	0.7416	0.004217	5.7e-05
293.15	0.7956	0.004783	6.4e-05
293.15	0.9003	0.005912	7.7e-05
298.15	0.1048	0.000914	1.3e-05
298.15	0.2027	0.00111	1.5e-05
298.15	0.3034	0.001379	1.9e-05
298.15	0.3542	0.001539	2.1e-05
298.15	0.398	0.001699	2.3e-05
298.15	0.503	0.00214	2.9e-05
298.15	0.5533	0.002393	3.2e-05
298.15	0.5993	0.002664	3.6e-05
298.15	0.6811	0.003196	4.3e-05
298.15	0.7416	0.003629	4.9e-05
298.15	0.7956	0.00409	5.6e-05
298.15	0.9003	0.005018	6.8e-05
303.15	0.1048	0.000858	1.2e-05
303.15	0.2027	0.001014	1.4e-05
303.15	0.3034	0.001245	1.7e-05
303.15	0.3542	0.001388	1.9e-05
303.15	0.398	0.001526	2.1e-05
303.15	0.503	0.001907	2.6e-05
303.15	0.5533	0.002127	2.9e-05
303.15	0.5993	0.002353	3.2e-05
303.15	0.6811	0.002791	3.8e-05
303.15	0.7416	0.003141	4.3e-05
303.15	0.7956	0.003495	4.8e-05
303.15	0.9003	0.004297	5.9e-05

System: 1,1,1-trichloroethane + heptan-1-ol; phases: Liquid
Fixed: Pressure, kPa = 101.325
Property: Mass density, kg/m3 (Liquid); method: VIBTUB:UFactor:4
Temperature, K	Mole fraction of heptan-1-ol	Mass density, kg/m3	uncertainty
293.15	0.103	1252.2	0.93
293.15	0.1615	1214.95	0.86
293.15	0.2047	1188.54	0.82
293.15	0.2545	1159.2	0.77
293.15	0.309	1128.37	0.73
293.15	0.3514	1105.21	0.7
293.15	0.4022	1078.45	0.67
293.15	0.5016	1028.73	0.62
293.15	0.5509	1005.32	0.58
293.15	0.58	991.84	0.57
293.15	0.6573	957.28	0.56
293.15	0.6724	950.85	0.56
293.15	0.7421	921.42	0.58
293.15	0.7937	900.46	0.59
293.15	0.8459	879.86	0.6
293.15	0.9027	858.15	0.62
298.15	0.103	1244.75	0.91
298.15	0.1615	1207.9	0.85
298.15	0.2047	1181.77	0.81
298.15	0.2545	1152.74	0.76
298.15	0.309	1122.23	0.72
298.15	0.3514	1099.32	0.69
298.15	0.4022	1072.77	0.66
298.15	0.5016	1023.53	0.61
298.15	0.5509	1000.35	0.57
298.15	0.58	986.98	0.57
298.15	0.6573	952.71	0.57
298.15	0.6724	946.34	0.57
298.15	0.7421	917.17	0.58
298.15	0.7937	896.37	0.59
298.15	0.8459	875.95	0.61
298.15	0.9027	854.41	0.63
303.15	0.103	1237.24	0.9
303.15	0.1615	1200.8	0.84
303.15	0.2047	1174.93	0.8
303.15	0.2545	1146.2	0.75
303.15	0.309	1116.01	0.71
303.15	0.3514	1093.32	0.68
303.15	0.4022	1067.06	0.65
303.15	0.5016	1018.27	0.6
303.15	0.5509	995.29	0.57
303.15	0.58	982.04	0.57
303.15	0.6573	948.09	0.57
303.15	0.6724	941.77	0.57
303.15	0.7421	912.86	0.58
303.15	0.7937	892.23	0.59
303.15	0.8459	871.97	0.61
303.15	0.9027	850.61	0.63

System: 1,1,2,2-tetrachloroethane + heptan-1-ol; phases: Liquid
Fixed: Pressure, kPa = 101.325
Property: Viscosity, Pa*s (Liquid); method: CAPTUB:UFactor:2
Temperature, K	Mole fraction of heptan-1-ol	Viscosity, Pa*s	uncertainty
293.15	0.0997	0.001852	2.4e-05
293.15	0.2073	0.002091	2.8e-05
293.15	0.3054	0.002417	3.1e-05
293.15	0.3445	0.002558	3.4e-05
293.15	0.4085	0.002833	3.8e-05
293.15	0.5042	0.003341	4.4e-05
293.15	0.5438	0.003564	4.7e-05
293.15	0.5988	0.003924	5.2e-05
293.15	0.6937	0.004654	6.2e-05
293.15	0.753	0.005166	6.9e-05
293.15	0.8007	0.005595	7.4e-05
293.15	0.8971	0.006506	8.7e-05
298.15	0.0997	0.00169	2.2e-05
298.15	0.2073	0.001907	2.5e-05
298.15	0.3054	0.002187	2.9e-05
298.15	0.3445	0.002272	3e-05
298.15	0.4085	0.002506	3.3e-05
298.15	0.5042	0.002908	3.9e-05
298.15	0.5438	0.003101	4.2e-05
298.15	0.5988	0.003392	4.6e-05
298.15	0.6937	0.003992	5.4e-05
298.15	0.753	0.004389	6e-05
298.15	0.8007	0.004737	6.5e-05
298.15	0.8971	0.005365	7.3e-05
303.15	0.0997	0.001547	2.1e-05
303.15	0.2073	0.00171	2.3e-05
303.15	0.3054	0.001927	2.6e-05
303.15	0.3445	0.002027	2.7e-05
303.15	0.4085	0.002225	3e-05
303.15	0.5042	0.002555	3.4e-05
303.15	0.5438	0.002715	3.7e-05
303.15	0.5988	0.002962	4e-05
303.15	0.6937	0.003429	4.7e-05
303.15	0.753	0.003763	5.2e-05
303.15	0.8007	0.004035	5.6e-05
303.15	0.8971	0.004627	6.3e-05

System: 1,1,2,2-tetrachloroethane + heptan-1-ol; phases: Liquid
Fixed: Pressure, kPa = 101.325
Property: Mass density, kg/m3 (Liquid); method: VIBTUB:UFactor:4
Temperature, K	Mole fraction of heptan-1-ol	Mass density, kg/m3	uncertainty
293.15	0.0506	1541.06	1.48
293.15	0.1031	1488.84	1.38
293.15	0.1519	1442.21	1.29
293.15	0.2003	1397.58	1.21
293.15	0.2515	1351.89	1.13
293.15	0.2998	1310.19	1.06
293.15	0.3499	1268.42	0.99
293.15	0.4109	1219.27	0.92
293.15	0.4464	1191.47	0.88
293.15	0.5113	1142.28	0.82
293.15	0.5524	1112.04	0.76
293.15	0.6013	1077.03	0.69
293.15	0.6506	1042.68	0.63
293.15	0.6959	1011.91	0.58
293.15	0.7507	975.7	0.56
293.15	0.8001	943.88	0.57
293.15	0.8505	912.27	0.58
293.15	0.8979	883.17	0.6
293.15	0.9513	851.1	0.63
298.15	0.0506	1533.58	1.46
298.15	0.1031	1481.6	1.36
298.15	0.1519	1435.22	1.28
298.15	0.2003	1390.83	1.2
298.15	0.2515	1345.42	1.12
298.15	0.2998	1303.92	1.05
298.15	0.3499	1262.39	0.98
298.15	0.4109	1213.55	0.91
298.15	0.4464	1185.87	0.87
298.15	0.5113	1136.96	0.81
298.15	0.5524	1106.9	0.75
298.15	0.6013	1072.05	0.68
298.15	0.6506	1037.91	0.62
298.15	0.6959	1007.34	0.58
298.15	0.7507	971.35	0.56
298.15	0.8001	939.68	0.57
298.15	0.8505	908.25	0.58
298.15	0.8979	879.34	0.6
298.15	0.9513	847.45	0.64
303.15	0.0506	1526.03	1.45
303.15	0.1031	1474.35	1.35
303.15	0.1519	1428.22	1.26
303.15	0.2003	1384.07	1.18
303.15	0.2515	1338.9	1.11
303.15	0.2998	1297.68	1.04
303.15	0.3499	1256.35	0.97
303.15	0.4109	1207.77	0.9
303.15	0.4464	1180.31	0.86
303.15	0.5113	1131.65	0.8
303.15	0.5524	1101.73	0.74
303.15	0.6013	1067.13	0.68
303.15	0.6506	1033.17	0.62
303.15	0.6959	1002.73	0.57
303.15	0.7507	966.91	0.56
303.15	0.8001	935.48	0.57
303.15	0.8505	904.23	0.59
303.15	0.8979	875.45	0.61
303.15	0.9513	843.75	0.64

System: trichloroethene + heptan-1-ol; phases: Liquid
Fixed: Pressure, kPa = 101.325
Property: Viscosity, Pa*s (Liquid); method: CAPTUB:UFactor:2
Temperature, K	Mole fraction of heptan-1-ol	Viscosity, Pa*s	uncertainty
293.15	0.0927	0.000671	1e-05
293.15	0.201	0.000883	1.2e-05
293.15	0.256	0.001017	1.4e-05
293.15	0.304	0.001158	1.6e-05
293.15	0.4057	0.001535	2.1e-05
293.15	0.5098	0.00205	2.7e-05
293.15	0.5508	0.002307	3.1e-05
293.15	0.6022	0.002648	3.6e-05
293.15	0.7077	0.00352	4.8e-05
293.15	0.802	0.00451	6.1e-05
293.15	0.8699	0.005313	7e-05
293.15	0.893	0.005624	7.3e-05
298.15	0.0927	0.000635	9e-06
298.15	0.201	0.000826	1.2e-05
298.15	0.256	0.000949	1.3e-05
298.15	0.304	0.001073	1.5e-05
298.15	0.4057	0.001397	1.9e-05
298.15	0.5098	0.001838	2.5e-05
298.15	0.5508	0.002046	2.7e-05
298.15	0.6022	0.002342	3.1e-05
298.15	0.7077	0.003065	4.1e-05
298.15	0.802	0.003865	5.2e-05
298.15	0.8699	0.004537	6.1e-05
298.15	0.893	0.004804	6.5e-05
303.15	0.0927	0.0006	9e-06
303.15	0.201	0.000763	1.1e-05
303.15	0.256	0.000875	1.2e-05
303.15	0.304	0.000989	1.4e-05
303.15	0.4057	0.00128	1.7e-05
303.15	0.5098	0.001662	2.2e-05
303.15	0.5508	0.001839	2.5e-05
303.15	0.6022	0.002082	2.8e-05
303.15	0.7077	0.002672	3.6e-05
303.15	0.802	0.003333	4.5e-05
303.15	0.8699	0.00389	5.3e-05
303.15	0.893	0.004112	5.7e-05

System: trichloroethene + heptan-1-ol; phases: Liquid
Fixed: Pressure, kPa = 101.325
Property: Mass density, kg/m3 (Liquid); method: VIBTUB:UFactor:4
Temperature, K	Mole fraction of heptan-1-ol	Mass density, kg/m3	uncertainty
293.15	0.0507	1412.78	1.23
293.15	0.0992	1367.53	1.14
293.15	0.1569	1317.05	1.05
293.15	0.2026	1279.18	0.99
293.15	0.2558	1237.46	0.92
293.15	0.3109	1196.47	0.85
293.15	0.3618	1160.63	0.8
293.15	0.3997	1134.97	0.77
293.15	0.43	1115.18	0.74
293.15	0.51	1065.33	0.68
293.15	0.5514	1040.91	0.64
293.15	0.6149	1005.06	0.58
293.15	0.6574	982.15	0.56
293.15	0.7071	956.39	0.56
293.15	0.7571	931.38	0.57
293.15	0.8016	909.97	0.58
293.15	0.8728	877.14	0.61
293.15	0.9405	847.47	0.64
298.15	0.0507	1404.82	1.21
298.15	0.0992	1359.9	1.13
298.15	0.1569	1309.82	1.04
298.15	0.2026	1272.23	0.97
298.15	0.2558	1230.87	0.91
298.15	0.3109	1190.18	0.84
298.15	0.3618	1154.67	0.79
298.15	0.3997	1129.21	0.76
298.15	0.43	1109.55	0.73
298.15	0.51	1060.09	0.68
298.15	0.5514	1035.82	0.63
298.15	0.6149	1000.28	0.57
298.15	0.6574	977.54	0.57
298.15	0.7071	951.95	0.57
298.15	0.7571	927.1	0.57
298.15	0.8016	905.84	0.58
298.15	0.8728	873.27	0.61
298.15	0.9405	843.79	0.64
303.15	0.0507	1396.73	1.2
303.15	0.0992	1352.18	1.11
303.15	0.1569	1302.52	1.02
303.15	0.2026	1265.25	0.96
303.15	0.2558	1224.15	0.89
303.15	0.3109	1183.85	0.83
303.15	0.3618	1148.63	0.78
303.15	0.3997	1123.37	0.75
303.15	0.43	1103.85	0.72
303.15	0.51	1054.79	0.67
303.15	0.5514	1030.7	0.62
303.15	0.6149	995.43	0.57
303.15	0.6574	972.87	0.57
303.15	0.7071	947.47	0.57
303.15	0.7571	922.8	0.58
303.15	0.8016	901.69	0.59
303.15	0.8728	869.35	0.61
303.15	0.9405	840.09	0.64

System: heptan-1-ol + tetrachloroethene; phases: Liquid
Fixed: Pressure, kPa = 101.325
Property: Viscosity, Pa*s (Liquid); method: CAPTUB:UFactor:2
Temperature, K	Mole fraction of heptan-1-ol	Viscosity, Pa*s	uncertainty
293.15	0.1052	0.001064	1.4e-05
293.15	0.2	0.001285	1.7e-05
293.15	0.2939	0.001569	2.1e-05
293.15	0.4073	0.002024	2.7e-05
293.15	0.4612	0.002292	3e-05
293.15	0.4982	0.002509	3.3e-05
293.15	0.55	0.002827	3.7e-05
293.15	0.5992	0.003169	4.2e-05
293.15	0.6926	0.003922	5.3e-05
293.15	0.8034	0.004966	6.6e-05
293.15	0.8578	0.00552	7.2e-05
293.15	0.8961	0.005942	7.7e-05
298.15	0.1052	0.000993	1.3e-05
298.15	0.2	0.001186	1.6e-05
298.15	0.2939	0.001441	1.9e-05
298.15	0.4073	0.00183	2.4e-05
298.15	0.4612	0.00205	2.7e-05
298.15	0.4982	0.002231	3e-05
298.15	0.55	0.002501	3.3e-05
298.15	0.5992	0.002798	3.7e-05
298.15	0.6926	0.003397	4.6e-05
298.15	0.8034	0.004249	5.8e-05
298.15	0.8578	0.004704	6.4e-05
298.15	0.8961	0.005052	6.8e-05
303.15	0.1052	0.000961	1.3e-05
303.15	0.2	0.001116	1.5e-05
303.15	0.2939	0.001321	1.8e-05
303.15	0.4073	0.001661	2.2e-05
303.15	0.4612	0.001851	2.5e-05
303.15	0.4982	0.002002	2.7e-05
303.15	0.55	0.002222	3e-05
303.15	0.5992	0.002462	3.3e-05
303.15	0.6926	0.002958	4e-05
303.15	0.8034	0.003631	5e-05
303.15	0.8578	0.00403	5.6e-05
303.15	0.8961	0.004324	6e-05

System: heptan-1-ol + tetrachloroethene; phases: Liquid
Fixed: Pressure, kPa = 101.325
Property: Mass density, kg/m3 (Liquid); method: VIBTUB:UFactor:4
Temperature, K	Mole fraction of heptan-1-ol	Mass density, kg/m3	uncertainty
293.15	0.0564	1560.55	1.52
293.15	0.098	1516.9	1.43
293.15	0.152	1462.26	1.33
293.15	0.2001	1415.53	1.25
293.15	0.248	1370.53	1.17
293.15	0.2944	1328.47	1.1
293.15	0.3527	1277.56	1.02
293.15	0.3983	1239.09	0.96
293.15	0.4484	1198.21	0.9
293.15	0.5051	1153.53	0.84
293.15	0.5477	1121.03	0.78
293.15	0.6002	1082.09	0.7
293.15	0.6503	1046.14	0.64
293.15	0.7419	983.09	0.56
293.15	0.8016	943.84	0.57
293.15	0.8533	910.96	0.58
293.15	0.8963	884.26	0.6
293.15	0.9453	854.68	0.63
298.15	0.0564	1552.56	1.5
298.15	0.098	1509.2	1.42
298.15	0.152	1454.91	1.32
298.15	0.2001	1408.42	1.23
298.15	0.248	1363.81	1.15
298.15	0.2944	1321.91	1.08
298.15	0.3527	1271.32	1
298.15	0.3983	1233.07	0.95
298.15	0.4484	1192.43	0.89
298.15	0.5051	1148.07	0.83
298.15	0.5477	1115.76	0.77
298.15	0.6002	1077.06	0.69
298.15	0.6503	1041.3	0.63
298.15	0.7419	978.66	0.56
298.15	0.8016	939.63	0.57
298.15	0.8533	906.93	0.58
298.15	0.8963	880.43	0.6
298.15	0.9453	851.01	0.63
303.15	0.0564	1544.51	1.48
303.15	0.098	1501.4	1.4
303.15	0.152	1447.45	1.3
303.15	0.2001	1401.24	1.22
303.15	0.248	1356.93	1.14
303.15	0.2944	1315.32	1.07
303.15	0.3527	1265.06	0.99
303.15	0.3983	1227.04	0.94
303.15	0.4484	1186.64	0.88
303.15	0.5051	1142.54	0.82
303.15	0.5477	1110.45	0.76
303.15	0.6002	1071.96	0.69
303.15	0.6503	1036.45	0.62
303.15	0.7419	974.19	0.56
303.15	0.8016	935.38	0.57
303.15	0.8533	902.87	0.59
303.15	0.8963	876.54	0.61
303.15	0.9453	847.3	0.64
