Measured thermophysical data. Thermodynamics of Mixtures Containing a Strongly Polar Compound. 8. Liquid-Liquid Equilibria for N,N-Dialkylamide + Selected N-Alkanes
Source: J. Chem. Eng. Data, 2006, 10.1021/je050428j
Compound 1: dimethylformamide, C3H7NO, InChI=1S/C3H7NO/c1-4(2)3-5/h3H,1-2H3, purity 99.5%
Compound 2: N,N-dimethylethanamide, C4H9NO, InChI=1S/C4H9NO/c1-4(6)5(2)3/h1-3H3, purity 99%
Compound 3: hexane, C6H14, InChI=1S/C6H14/c1-3-5-6-4-2/h3-6H2,1-2H3, purity 99.5%
Compound 4: heptane, C7H16, InChI=1S/C7H16/c1-3-5-7-6-4-2/h3-7H2,1-2H3, purity 99.5%
Compound 5: octane, C8H18, InChI=1S/C8H18/c1-3-5-7-8-6-4-2/h3-8H2,1-2H3, purity 99%
Compound 6: nonane, C9H20, InChI=1S/C9H20/c1-3-5-7-9-8-6-4-2/h3-9H2,1-2H3, purity 99%

System: dimethylformamide; phases: Liquid
Property: Mass density, kg/m3 (Liquid); method: Vibrating tube method
Temperature, K	Pressure, kPa	Mass density, kg/m3	uncertainty
298.15	101.325	943.875	0.252

System: N,N-dimethylethanamide; phases: Liquid
Property: Mass density, kg/m3 (Liquid); method: Vibrating tube method
Temperature, K	Pressure, kPa	Mass density, kg/m3	uncertainty
298.15	101.325	936.214	0.481

System: hexane; phases: Liquid
Property: Mass density, kg/m3 (Liquid); method: Vibrating tube method
Temperature, K	Pressure, kPa	Mass density, kg/m3	uncertainty
298.15	101.325	655.248	0.275

System: heptane; phases: Liquid
Property: Mass density, kg/m3 (Liquid); method: Vibrating tube method
Temperature, K	Pressure, kPa	Mass density, kg/m3	uncertainty
298.15	101.325	679.627	0.269

System: octane; phases: Liquid
Property: Mass density, kg/m3 (Liquid); method: Vibrating tube method
Temperature, K	Pressure, kPa	Mass density, kg/m3	uncertainty
298.15	101.325	698.636	0.405

System: nonane; phases: Liquid
Property: Mass density, kg/m3 (Liquid); method: Vibrating tube method
Temperature, K	Pressure, kPa	Mass density, kg/m3	uncertainty
298.15	101.325	714.064	0.408

System: dimethylformamide + hexane; phases: Liquid mixture 1, Liquid mixture 2
Fixed: Pressure, kPa = 101.3
Property: Liquid-liquid equilibrium temperature, K (Liquid mixture 1); method: VISOBS
Mole fraction of dimethylformamide	Liquid-liquid equilibrium temperature, K	uncertainty
0.2958	335.24	0.25
0.3607	336.91	0.25
0.3818	337.24	0.25
0.4106	337.53	0.25
0.4503	337.73	0.25
0.4626	337.76	0.25
0.4745	337.58	0.25
0.4827	337.78	0.25
0.4852	337.6	0.26
0.5038	337.59	0.25
0.5268	337.83	0.28
0.5285	337.59	0.25
0.5342	337.78	0.25
0.543	337.61	0.25
0.5754	337.52	0.25
0.5843	337.21	0.25
0.6173	336.71	0.25
0.6336	336.43	0.25
0.6547	335.64	0.25
0.6999	333.32	0.25

System: dimethylformamide + heptane; phases: Liquid mixture 1, Liquid mixture 2
Fixed: Pressure, kPa = 101.3
Property: Liquid-liquid equilibrium temperature, K (Liquid mixture 1); method: VISOBS
Mole fraction of dimethylformamide	Liquid-liquid equilibrium temperature, K	uncertainty
0.2648	336.67	0.25
0.3056	338.74	0.25
0.3529	340.56	0.25
0.3693	341.15	0.25
0.4034	341.76	0.25
0.4243	342.08	0.25
0.4472	342.33	0.25
0.488	342.48	0.25
0.5092	342.63	0.25
0.5446	342.56	0.25
0.5775	342.37	0.25
0.5984	342.3	0.25
0.6181	342.22	0.25
0.6457	341.55	0.25
0.6915	340.28	0.25
0.6916	340.42	0.25
0.7489	337.31	0.25

System: dimethylformamide + octane; phases: Liquid mixture 1, Liquid mixture 2
Fixed: Pressure, kPa = 101.3
Property: Liquid-liquid equilibrium temperature, K (Liquid mixture 1); method: VISOBS
Mole fraction of dimethylformamide	Liquid-liquid equilibrium temperature, K	uncertainty
0.3619	344.71	0.25
0.384	345.68	0.25
0.4016	346.12	0.25
0.4394	346.92	0.25
0.4581	346.91	0.25
0.4618	347.01	0.25
0.4803	347.11	0.27
0.4822	347.31	0.27
0.5062	347.18	0.25
0.5188	347.35	0.25
0.5502	347.26	0.25
0.5839	347.31	0.25
0.6012	347.35	0.25
0.6019	347.34	0.25
0.6045	347.34	0.25
0.6244	347.18	0.25
0.6748	346.78	0.25
0.7099	345.93	0.25
0.7132	345.99	0.25
0.7425	344.66	0.25

System: dimethylformamide + nonane; phases: Liquid mixture 1, Liquid mixture 2
Fixed: Pressure, kPa = 101.3
Property: Liquid-liquid equilibrium temperature, K (Liquid mixture 1); method: VISOBS
Mole fraction of dimethylformamide	Liquid-liquid equilibrium temperature, K	uncertainty
0.4144	350.31	0.25
0.4235	350.58	0.25
0.4555	351.44	0.25
0.4961	352.2	0.25
0.5138	352.39	0.25
0.5239	352.54	0.25
0.5516	352.66	0.25
0.555	352.77	0.25
0.5702	352.71	0.25
0.572	352.66	0.25
0.5829	352.63	0.25
0.5974	352.71	0.25
0.5979	352.61	0.25
0.6276	352.58	0.25
0.6559	352.56	0.25
0.6687	352.55	0.25
0.6788	352.41	0.25
0.6952	352.22	0.25
0.7081	351.98	0.25
0.7417	351.31	0.25
0.7471	351.12	0.25
0.7731	350.06	0.25
0.7967	348.67	0.25

System: N,N-dimethylethanamide + heptane; phases: Liquid mixture 1, Liquid mixture 2
Fixed: Pressure, kPa = 101.3
Property: Liquid-liquid equilibrium temperature, K (Liquid mixture 1); method: VISOBS
Mole fraction of N,N-dimethylethanamide	Liquid-liquid equilibrium temperature, K	uncertainty
0.2235	305.2	0.25
0.2804	307.77	0.25
0.297	308.07	0.25
0.3304	309.12	0.25
0.3578	309.4	0.25
0.3633	309.33	0.25
0.3974	309.46	0.25
0.4505	309.58	0.25
0.4988	309.69	0.25
0.5	309.75	0.25
0.5327	309.48	0.25
0.561	309.59	0.25
0.5741	309.43	0.25
0.5786	309.47	0.25
0.5949	309.08	0.25
0.621	308.89	0.25
0.6517	308.17	0.25
0.6769	307.2	0.25
0.6913	306.52	0.25
0.7547	301.82	0.26
