Measured thermophysical data. Solubility of 16.alpha.,17.alpha.-Epoxyprogesterone in Six Different Solvents
Source: J. Chem. Eng. Data, 2005, 10.1021/je050195w
Compound 1: 16.alpha.,17-epoxypregn-4-ene-3,20-dione, C21H28O3, InChI=1S/C21H28O3/c1-12(22)21-18(24-21)11-17-15-5-4-13-10-14(23)6-8-19(13,2)16(15)7-9-20(17,21)3/h10,15-18H,4-9,11H2,1-3H3/t15-,16+,17+,18-,19+,20+,21-/m1/s1
Compound 2: methanol, CH4O, InChI=1S/CH4O/c1-2/h2H,1H3
Compound 3: ethanol, C2H6O, InChI=1S/C2H6O/c1-2-3/h3H,2H2,1H3
Compound 4: acetone, C3H6O, InChI=1S/C3H6O/c1-3(2)4/h1-2H3
Compound 5: ethyl acetate, C4H8O2, InChI=1S/C4H8O2/c1-3-6-4(2)5/h3H2,1-2H3
Compound 6: acetic acid, C2H4O2, InChI=1S/C2H4O2/c1-2(3)4/h1H3,(H,3,4)

System: 16.alpha.,17-epoxypregn-4-ene-3,20-dione; phases: Crystal, Liquid, Air at 1 atmosphere
Property: Normal melting temperature, K (Crystal); method: DTA:corrimp:FP
Normal melting temperature, K	uncertainty
478.65	1.12

System: methanol + 16.alpha.,17-epoxypregn-4-ene-3,20-dione; phases: Liquid, Crystal
Fixed: Pressure, kPa = 101.325
Property: Mole fraction of 16.alpha.,17-epoxypregn-4-ene-3,20-dione (Liquid); method: isothermal/laser method
Temperature, K	Mole fraction of 16.alpha.,17-epoxypregn-4-ene-3,20-dione	uncertainty
282.5	0.001	5e-05
288.7	0.00133	6e-05
293.1	0.00159	7e-05
297.9	0.00192	9e-05
302.95	0.0024	0.00011
307.75	0.0029	0.00013
312.8	0.00349	0.00016
317.65	0.00424	0.00019
322.45	0.00516	0.00024
327.6	0.00627	0.00029

System: ethanol + 16.alpha.,17-epoxypregn-4-ene-3,20-dione; phases: Liquid, Crystal
Fixed: Pressure, kPa = 101.325
Property: Mole fraction of 16.alpha.,17-epoxypregn-4-ene-3,20-dione (Liquid); method: isothermal/laser method
Temperature, K	Mole fraction of 16.alpha.,17-epoxypregn-4-ene-3,20-dione	uncertainty
286.1	0.00134	6e-05
288.15	0.00145	6e-05
293.35	0.00171	7e-05
297.7	0.00211	9e-05
303.05	0.00258	0.00011
308.85	0.0034	0.00015
312.65	0.004	0.00017
317.55	0.00487	0.00021
322.7	0.00596	0.00026
328.45	0.00729	0.00031

System: acetone + 16.alpha.,17-epoxypregn-4-ene-3,20-dione; phases: Liquid, Crystal
Fixed: Pressure, kPa = 101.325
Property: Mole fraction of 16.alpha.,17-epoxypregn-4-ene-3,20-dione (Liquid); method: isothermal/laser method
Temperature, K	Mole fraction of 16.alpha.,17-epoxypregn-4-ene-3,20-dione	uncertainty
285.35	0.00895	0.00038
288.5	0.00985	0.00041
293.35	0.0115	0.00048
298.95	0.01372	0.00058
304.85	0.01624	0.00068
310.05	0.01838	0.00077
314.15	0.02035	0.00085
317.6	0.02225	0.00093
322.35	0.02507	0.00105
327.45	0.02853	0.0012

System: ethyl acetate + 16.alpha.,17-epoxypregn-4-ene-3,20-dione; phases: Liquid, Crystal
Fixed: Pressure, kPa = 101.325
Property: Mole fraction of 16.alpha.,17-epoxypregn-4-ene-3,20-dione (Liquid); method: isothermal/laser method
Temperature, K	Mole fraction of 16.alpha.,17-epoxypregn-4-ene-3,20-dione	uncertainty
285.45	0.00752	0.00031
288.7	0.00819	0.00034
293.85	0.00968	0.0004
297.95	0.01102	0.00045
302.75	0.01257	0.00051
308.15	0.01422	0.00058
312.75	0.0158	0.00065
317.85	0.01765	0.00072
322.8	0.01985	0.00081
328.45	0.0223	0.00091

System: acetic acid + 16.alpha.,17-epoxypregn-4-ene-3,20-dione; phases: Liquid, Crystal
Fixed: Pressure, kPa = 101.325
Property: Mole fraction of 16.alpha.,17-epoxypregn-4-ene-3,20-dione (Liquid); method: isothermal/laser method
Temperature, K	Mole fraction of 16.alpha.,17-epoxypregn-4-ene-3,20-dione	uncertainty
293.6	0.01235	0.00052
295.75	0.01357	0.00057
298.25	0.01479	0.00062
301.3	0.01646	0.00069
303.95	0.01817	0.00076
306.85	0.02121	0.00089
310.75	0.02426	0.00102
313.55	0.02708	0.00113
316.65	0.03022	0.00127
319.25	0.03333	0.0014
322.15	0.03759	0.00158
326.05	0.04245	0.00178
