Measured thermophysical data. Solid-Liquid Equilibria of Naphthalene + Alkanediamine Mixtures
Source: J. Chem. Eng. Data, 2006, 10.1021/je0502851
Compound 1: 1,6-hexanediamine, C6H16N2, InChI=1S/C6H16N2/c7-5-3-1-2-4-6-8/h1-8H2, purity 99%
Compound 2: 1,8-diaminooctane, C8H20N2, InChI=1S/C8H20N2/c9-7-5-3-1-2-4-6-8-10/h1-10H2, purity 99%
Compound 3: 1,12-dodecanediamine, C12H28N2, InChI=1S/C12H28N2/c13-11-9-7-5-3-1-2-4-6-8-10-12-14/h1-14H2, purity 98%
Compound 4: naphthalene, C10H8, InChI=1S/C10H8/c1-2-6-10-8-4-3-7-9(10)5-1/h1-8H, purity 99%

System: 1,6-hexanediamine; phases: Crystal, Liquid, Air at 1 atmosphere
Property: Molar enthalpy of transition or fusion, kJ/mol (Crystal); method: DSC
Molar enthalpy of transition or fusion, kJ/mol	uncertainty
39.38	1.11

System: 1,6-hexanediamine; phases: Crystal, Liquid, Air at 1 atmosphere
Property: Normal melting temperature, K (Crystal); method: DTA
Normal melting temperature, K	uncertainty
311.6	0.53

System: 1,8-diaminooctane; phases: Crystal, Liquid, Air at 1 atmosphere
Property: Molar enthalpy of transition or fusion, kJ/mol (Crystal); method: DSC
Molar enthalpy of transition or fusion, kJ/mol	uncertainty
50.51	1.49

System: 1,8-diaminooctane; phases: Crystal, Liquid, Air at 1 atmosphere
Property: Normal melting temperature, K (Crystal); method: DTA
Normal melting temperature, K	uncertainty
324.88	0.53

System: 1,12-dodecanediamine; phases: Crystal, Liquid, Air at 1 atmosphere
Property: Molar enthalpy of transition or fusion, kJ/mol (Crystal); method: DSC
Molar enthalpy of transition or fusion, kJ/mol	uncertainty
67.05	1.49

System: 1,12-dodecanediamine; phases: Crystal, Liquid, Air at 1 atmosphere
Property: Normal melting temperature, K (Crystal); method: DTA
Normal melting temperature, K	uncertainty
341.84	0.53

System: naphthalene; phases: Crystal, Liquid, Air at 1 atmosphere
Property: Molar enthalpy of transition or fusion, kJ/mol (Crystal); method: DSC
Molar enthalpy of transition or fusion, kJ/mol	uncertainty
19.55	0.9

System: naphthalene; phases: Crystal, Liquid, Air at 1 atmosphere
Property: Normal melting temperature, K (Crystal); method: DTA
Normal melting temperature, K	uncertainty
354.69	0.53

System: naphthalene + 1,6-hexanediamine; phases: Liquid, Crystal
Fixed: Pressure, kPa = 101.3
Property: Solid-liquid equilibrium temperature, K (Liquid); method: DTA:UFactor:4
Mole fraction of 1,6-hexanediamine	Solid-liquid equilibrium temperature, K	uncertainty
0	354.69	1.55
0.0439	350.61	1.55
0.1035	345.64	1.55
0.2001	338.08	1.55
0.3042	329.13	1.55
0.3989	322.95	1.55
0.4273	320.65	1.55
0.4955	316.39	1.55
0.5792	312.06	1.55
0.6511	307.58	1.55
0.6896	305.73	1.55
0.7912	301.85	1.55
0.8342	300.15	1.55

System: naphthalene + 1,6-hexanediamine; phases: Liquid, Crystal
Fixed: Pressure, kPa = 101.3
Property: Solid-liquid equilibrium temperature, K (Liquid); method: DTA:UFactor:4
Mole fraction of 1,6-hexanediamine	Solid-liquid equilibrium temperature, K	uncertainty
0.8741	299.02	1.55
0.8982	300.94	1.55
0.9345	305.6	1.55
0.9755	309.58	1.55
1	311.6	1.55

System: naphthalene + 1,8-diaminooctane; phases: Liquid, Crystal
Fixed: Pressure, kPa = 101.3
Property: Solid-liquid equilibrium temperature, K (Liquid); method: DTA:UFactor:4
Mole fraction of 1,8-diaminooctane	Solid-liquid equilibrium temperature, K	uncertainty
0	354.69	1.55
0.0261	351.05	1.55
0.052	348.21	1.55
0.0805	345	1.55
0.1063	345.05	1.55
0.115	341.07	1.62
0.176	336.57	1.55
0.2001	333.21	1.55
0.2437	328.92	1.55
0.2998	325.25	1.55
0.3294	322.92	1.55
0.4121	319.1	1.55
0.4553	317.65	1.55
0.4823	316.92	1.55
0.5151	316.12	1.55

System: naphthalene + 1,8-diaminooctane; phases: Liquid, Crystal
Fixed: Pressure, kPa = 101.3
Property: Solid-liquid equilibrium temperature, K (Liquid); method: DTA:UFactor:4
Mole fraction of 1,8-diaminooctane	Solid-liquid equilibrium temperature, K	uncertainty
0.5434	316.76	1.55
0.584	317.6	1.55
0.6355	318.42	1.55
0.6982	320.18	1.55
0.7492	319.92	1.55
0.8013	321.58	1.55
0.9002	323.78	1.55
0.9533	324.12	1.55
1	324.88	1.55

System: naphthalene + 1,12-dodecanediamine; phases: Liquid, Crystal
Fixed: Pressure, kPa = 101.3
Property: Solid-liquid equilibrium temperature, K (Liquid); method: DTA:UFactor:4
Mole fraction of 1,12-dodecanediamine	Solid-liquid equilibrium temperature, K	uncertainty
0	354.69	1.55
0.0192	352.68	1.56
0.0435	348.8	1.56
0.0609	346.28	1.55
0.084	345.23	1.55
0.1007	342.25	1.56
0.1193	340.06	1.55
0.1495	337.72	1.55
0.2021	335.36	1.55
0.2261	333.75	1.55
0.2722	331.77	1.55
0.3012	331.49	1.55
0.3503	328.99	1.55
0.3956	328.43	1.55

System: naphthalene + 1,12-dodecanediamine; phases: Liquid, Crystal
Fixed: Pressure, kPa = 101.3
Property: Solid-liquid equilibrium temperature, K (Liquid); method: DTA:UFactor:4
Mole fraction of 1,12-dodecanediamine	Solid-liquid equilibrium temperature, K	uncertainty
0.4502	329.13	1.55
0.5012	330.05	1.55
0.5863	331.49	1.55
0.6305	332.12	1.55
0.6675	332.69	1.55
0.7222	333.83	1.55
0.7882	334.83	1.55
0.8311	336.63	1.55
0.8884	338.48	1.55
1	341.84	1.55
