Measured thermophysical data. Solubility of Hydroquinone in Different Solvents from 276.65 K to 345.10 K
Source: J. Chem. Eng. Data, 2006, 10.1021/je0502748
Compound 1: 1,4-benzenediol, C6H6O2, InChI=1S/C6H6O2/c7-5-1-2-6(8)4-3-5/h1-4,7-8H, purity 99.5%
Compound 2: water, H2O, InChI=1S/H2O/h1H2
Compound 3: methanol, CH4O, InChI=1S/CH4O/c1-2/h2H,1H3, purity 99.5%
Compound 4: ethanol, C2H6O, InChI=1S/C2H6O/c1-2-3/h3H,2H2,1H3, purity 99.5%
Compound 5: propan-2-ol, C3H8O, InChI=1S/C3H8O/c1-3(2)4/h3-4H,1-2H3, purity 99.5%
Compound 6: ethyl acetate, C4H8O2, InChI=1S/C4H8O2/c1-3-6-4(2)5/h3H2,1-2H3, purity 99.5%
Compound 7: butyl ethanoate, C6H12O2, InChI=1S/C6H12O2/c1-3-4-5-8-6(2)7/h3-5H2,1-2H3, purity 99.5%
Compound 8: acetic acid, C2H4O2, InChI=1S/C2H4O2/c1-2(3)4/h1H3,(H,3,4), purity 99.5%

System: 1,4-benzenediol + ethyl acetate; phases: Liquid, Crystal
Fixed: Pressure, kPa = 101
Property: Solid-liquid equilibrium temperature, K (Liquid); method: Variation in Laser intensity
Mole fraction of 1,4-benzenediol	Solid-liquid equilibrium temperature, K	uncertainty
0.07333	278.7	1
0.088	290.15	1
0.1017	298.8	1
0.1103	304.6	1
0.1205	310.8	1
0.1312	316.7	1
0.1444	323.25	1
0.1595	330.6	1
0.177	338.35	1
0.1921	345.1	1

System: 1,4-benzenediol + butyl ethanoate; phases: Liquid, Crystal
Fixed: Pressure, kPa = 101
Property: Solid-liquid equilibrium temperature, K (Liquid); method: Variation in Laser intensity
Mole fraction of 1,4-benzenediol	Solid-liquid equilibrium temperature, K	uncertainty
0.09877	279.55	1
0.1019	283.95	1
0.11	290.85	1
0.1173	297.2	1
0.1247	302.85	1
0.1352	311	1
0.145	316.95	1
0.1555	323.05	1
0.1677	329.95	1
0.1803	336.1	1
0.2049	344.7	1

System: acetic acid + 1,4-benzenediol; phases: Liquid, Crystal
Fixed: Pressure, kPa = 101
Property: Solid-liquid equilibrium temperature, K (Liquid); method: Variation in Laser intensity
Mole fraction of 1,4-benzenediol	Solid-liquid equilibrium temperature, K	uncertainty
0.0321	289.45	1
0.03645	294.65	1
0.04193	300.15	1
0.04887	306.35	1
0.05791	313.3	1
0.06591	318.15	1
0.07522	323.75	1
0.08663	329.65	1
0.09831	334.7	1
0.1152	341.25	1

System: 1,4-benzenediol + water; phases: Liquid, Crystal
Fixed: Pressure, kPa = 101
Property: Solid-liquid equilibrium temperature, K (Liquid); method: Variation in Laser intensity
Mole fraction of 1,4-benzenediol	Solid-liquid equilibrium temperature, K	uncertainty
0.00663	280.5	1
0.00795	286	1
0.00965	291.05	1
0.01163	296.95	1
0.01515	303.45	1
0.02	310.85	1
0.02516	316.85	1
0.03465	323.5	1
0.04981	332	1
0.06649	337.7	1
0.0831	342.1	1

System: methanol + 1,4-benzenediol; phases: Liquid, Crystal
Fixed: Pressure, kPa = 101
Property: Solid-liquid equilibrium temperature, K (Liquid); method: Variation in Laser intensity
Mole fraction of 1,4-benzenediol	Solid-liquid equilibrium temperature, K	uncertainty
0.1047	281.65	1
0.1121	288.7	1
0.1177	293.8	1
0.127	301.15	1
0.1335	306.85	1
0.1437	314.6	1
0.1521	319.85	1
0.1608	326.65	1
0.1766	335.2	1
0.1949	343.4	1

System: ethanol + 1,4-benzenediol; phases: Liquid, Crystal
Fixed: Pressure, kPa = 101
Property: Solid-liquid equilibrium temperature, K (Liquid); method: Variation in Laser intensity
Mole fraction of 1,4-benzenediol	Solid-liquid equilibrium temperature, K	uncertainty
0.163	276.65	1
0.1685	280.85	1
0.1748	285.3	1
0.1828	291.4	1
0.1914	297.65	1
0.2012	304.55	1
0.2123	311.5	1
0.2261	319.55	1
0.2392	326.95	1
0.2468	332	1
0.261	336.75	1
0.28	342.15	1

System: propan-2-ol + 1,4-benzenediol; phases: Liquid, Crystal
Fixed: Pressure, kPa = 101
Property: Solid-liquid equilibrium temperature, K (Liquid); method: Variation in Laser intensity
Mole fraction of 1,4-benzenediol	Solid-liquid equilibrium temperature, K	uncertainty
0.1064	279.45	1
0.1294	288.3	1
0.1469	294.35	1
0.1712	301.75	1
0.1998	309.1	1
0.2169	314.15	1
0.2325	318.75	1
0.2473	327.6	1
0.2623	334.7	1
0.2803	342.55	1
