Measured thermophysical data. Solubility of Berberine Chloride in Various Solvents
Source: J. Chem. Eng. Data, 2006, 10.1021/je0504360
Compound 1: ethanol, C2H6O, InChI=1S/C2H6O/c1-2-3/h3H,2H2,1H3
Compound 2: propan-2-ol, C3H8O, InChI=1S/C3H8O/c1-3(2)4/h3-4H,1-2H3
Compound 3: butan-1-ol, C4H10O, InChI=1S/C4H10O/c1-2-3-4-5/h5H,2-4H2,1H3
Compound 4: octan-1-ol, C8H18O, InChI=1S/C8H18O/c1-2-3-4-5-6-7-8-9/h9H,2-8H2,1H3
Compound 5: 9,10-dimethoxy-5,6-dihydro[1,3]dioxolo[4,5-g]isoquino[3,2-a]isoquinolinium chloride, C20H18ClNO4, InChI=1S/C20H18NO4.ClH/c1-22-17-4-3-12-7-16-14-9-19-18(24-11-25-19)8-13(14)5-6-21(16)10-15(12)20(17)23-2;/h3-4,7-10H,5-6,11H2,1-2H3;1H/q+1;/p-1

System: 9,10-dimethoxy-5,6-dihydro[1,3]dioxolo[4,5-g]isoquino[3,2-a]isoquinolinium chloride; phases: Crystal, Liquid, Air at 1 atmosphere
Property: Molar enthalpy of transition or fusion, kJ/mol (Crystal); method: DSC
Molar enthalpy of transition or fusion, kJ/mol	uncertainty
39.89	0.89

System: 9,10-dimethoxy-5,6-dihydro[1,3]dioxolo[4,5-g]isoquino[3,2-a]isoquinolinium chloride; phases: Crystal, Liquid, Air at 1 atmosphere
Property: Normal melting temperature, K (Crystal); method: DTA:FP
Normal melting temperature, K	uncertainty
473.2	1.1

System: ethanol + 9,10-dimethoxy-5,6-dihydro[1,3]dioxolo[4,5-g]isoquino[3,2-a]isoquinolinium chloride; phases: Liquid, Crystal
Fixed: Pressure, kPa = 101
Property: Mole fraction of 9,10-dimethoxy-5,6-dihydro[1,3]dioxolo[4,5-g]isoquino[3,2-a]isoquinolinium chloride (Liquid); method: Chromatography
Temperature, K	Mole fraction of 9,10-dimethoxy-5,6-dihydro[1,3]dioxolo[4,5-g]isoquino[3,2-a]isoquinolinium chloride	uncertainty
298	0.000444	1.9e-05
303	0.000528	2.3e-05
308	0.000637	2.8e-05
313	0.000778	3.4e-05

System: propan-2-ol + 9,10-dimethoxy-5,6-dihydro[1,3]dioxolo[4,5-g]isoquino[3,2-a]isoquinolinium chloride; phases: Liquid, Crystal
Fixed: Pressure, kPa = 101
Property: Mole fraction of 9,10-dimethoxy-5,6-dihydro[1,3]dioxolo[4,5-g]isoquino[3,2-a]isoquinolinium chloride (Liquid); method: Chromatography
Temperature, K	Mole fraction of 9,10-dimethoxy-5,6-dihydro[1,3]dioxolo[4,5-g]isoquino[3,2-a]isoquinolinium chloride	uncertainty
298	0.000171	7e-06
303	0.000211	9e-06
308	0.000252	1.1e-05
313	0.000333	1.4e-05

System: butan-1-ol + 9,10-dimethoxy-5,6-dihydro[1,3]dioxolo[4,5-g]isoquino[3,2-a]isoquinolinium chloride; phases: Liquid, Crystal
Fixed: Pressure, kPa = 101
Property: Mole fraction of 9,10-dimethoxy-5,6-dihydro[1,3]dioxolo[4,5-g]isoquino[3,2-a]isoquinolinium chloride (Liquid); method: Chromatography
Temperature, K	Mole fraction of 9,10-dimethoxy-5,6-dihydro[1,3]dioxolo[4,5-g]isoquino[3,2-a]isoquinolinium chloride	uncertainty
298	5.4e-05	2.2e-06
303	0.000145	6e-06
308	0.000179	7e-06
313	0.00023	1e-05

System: octan-1-ol + 9,10-dimethoxy-5,6-dihydro[1,3]dioxolo[4,5-g]isoquino[3,2-a]isoquinolinium chloride; phases: Liquid, Crystal
Fixed: Pressure, kPa = 101
Property: Mole fraction of 9,10-dimethoxy-5,6-dihydro[1,3]dioxolo[4,5-g]isoquino[3,2-a]isoquinolinium chloride (Liquid); method: Chromatography
Temperature, K	Mole fraction of 9,10-dimethoxy-5,6-dihydro[1,3]dioxolo[4,5-g]isoquino[3,2-a]isoquinolinium chloride	uncertainty
298	0.000297	1.2e-05
303	0.000313	1.3e-05
308	0.000357	1.4e-05
313	0.000435	1.8e-05

System: ethanol + propan-2-ol + 9,10-dimethoxy-5,6-dihydro[1,3]dioxolo[4,5-g]isoquino[3,2-a]isoquinolinium chloride; phases: Liquid, Crystal
Fixed: Pressure, kPa = 101
Property: Mole fraction of 9,10-dimethoxy-5,6-dihydro[1,3]dioxolo[4,5-g]isoquino[3,2-a]isoquinolinium chloride (Liquid); method: Chromatography
Solvent: Mole fraction of ethanol	Temperature, K	Mole fraction of 9,10-dimethoxy-5,6-dihydro[1,3]dioxolo[4,5-g]isoquino[3,2-a]isoquinolinium chloride	uncertainty
0.3463	298	0.000206	8e-06
0.3463	303	0.000257	1e-05
0.3463	308	0.000331	1.4e-05
0.3463	313	0.000387	1.6e-05
0.5171	298	0.000313	1.3e-05
0.5171	303	0.000384	1.6e-05
0.5171	308	0.000465	1.9e-05
0.5171	313	0.000567	2.3e-05
0.6939	298	0.000369	1.5e-05
0.6939	303	0.00044	1.8e-05
0.6939	308	0.00052	2.1e-05
0.6939	313	0.000671	2.7e-05
0.807	298	0.000413	1.7e-05
0.807	303	0.000479	2e-05
0.807	308	0.00057	2.3e-05
0.807	313	0.00074	3e-05

System: ethanol + butan-1-ol + 9,10-dimethoxy-5,6-dihydro[1,3]dioxolo[4,5-g]isoquino[3,2-a]isoquinolinium chloride; phases: Liquid, Crystal
Fixed: Pressure, kPa = 101
Property: Mole fraction of 9,10-dimethoxy-5,6-dihydro[1,3]dioxolo[4,5-g]isoquino[3,2-a]isoquinolinium chloride (Liquid); method: Chromatography
Solvent: Mole fraction of ethanol	Temperature, K	Mole fraction of 9,10-dimethoxy-5,6-dihydro[1,3]dioxolo[4,5-g]isoquino[3,2-a]isoquinolinium chloride	uncertainty
0.4822	298	0.000317	1.3e-05
0.4822	303	0.00038	1.6e-05
0.4822	308	0.00045	1.8e-05
0.4822	313	0.000567	2.3e-05
0.6886	298	0.00034	1.4e-05
0.6886	303	0.000459	1.9e-05
0.6886	308	0.000569	2.3e-05
0.6886	313	0.000648	2.6e-05
0.8576	298	0.000352	1.4e-05
0.8576	303	0.000551	2.2e-05
0.8576	308	0.000653	2.7e-05
0.8576	313	0.000742	3e-05

System: ethanol + octan-1-ol + 9,10-dimethoxy-5,6-dihydro[1,3]dioxolo[4,5-g]isoquino[3,2-a]isoquinolinium chloride; phases: Liquid, Crystal
Fixed: Pressure, kPa = 101
Property: Mole fraction of 9,10-dimethoxy-5,6-dihydro[1,3]dioxolo[4,5-g]isoquino[3,2-a]isoquinolinium chloride (Liquid); method: Chromatography
Solvent: Mole fraction of ethanol	Temperature, K	Mole fraction of 9,10-dimethoxy-5,6-dihydro[1,3]dioxolo[4,5-g]isoquino[3,2-a]isoquinolinium chloride	uncertainty
0.6125	298	0.000254	1e-05
0.6125	303	0.000272	1.1e-05
0.6125	308	0.000289	1.2e-05
0.6125	313	0.000323	1.3e-05
0.8548	298	0.000287	1.2e-05
0.8548	303	0.000316	1.3e-05
0.8548	308	0.000355	1.4e-05
0.8548	313	0.000432	1.8e-05
0.924	298	0.000326	1.3e-05
0.924	303	0.000367	1.5e-05
0.924	308	0.000418	1.7e-05
0.924	313	0.000586	2.4e-05
