Measured thermophysical data. Experimental and Predicted Results of Anomeric Equilibrium of Glucose in Alcohols
Source: J. Chem. Eng. Data, 2005, 10.1021/je050193b
Compound 1: .alpha.-D-glucose, C6H12O6, InChI=1S/C6H12O6/c7-1-2-3(8)4(9)5(10)6(11)12-2/h2-11H,1H2/t2-,3-,4+,5-,6+/m1/s1
Compound 2: .beta.-D-glucose, C6H12O6, InChI=1S/C6H12O6/c7-1-2-3(8)4(9)5(10)6(11)12-2/h2-11H,1H2/t2-,3-,4+,5-,6-/m1/s1
Compound 3: 2-methylbutan-2-ol, C5H12O, InChI=1S/C5H12O/c1-4-5(2,3)6/h6H,4H2,1-3H3
Compound 4: 2-methylpropan-2-ol, C4H10O, InChI=1S/C4H10O/c1-4(2,3)5/h5H,1-3H3
Compound 5: butan-1-ol, C4H10O, InChI=1S/C4H10O/c1-2-3-4-5/h5H,2-4H2,1H3
Compound 6: ethanol, C2H6O, InChI=1S/C2H6O/c1-2-3/h3H,2H2,1H3
Compound 7: methanol, CH4O, InChI=1S/CH4O/c1-2/h2H,1H3
Compound 8: propan-2-ol, C3H8O, InChI=1S/C3H8O/c1-3(2)4/h3-4H,1-2H3
Compound 9: propan-1-ol, C3H8O, InChI=1S/C3H8O/c1-2-3-4/h4H,2-3H2,1H3

System: methanol + .beta.-D-glucose + .alpha.-D-glucose; phases: Liquid, Crystal
Property: Mass concentration, kg/m3 of .beta.-D-glucose (Liquid); method: Chromatography
Temperature, K	Solvent: Ratio of component mass to volume of solvent, kg/m3 of .alpha.-D-glucose	Pressure, kPa	Mass concentration, kg/m3 of .beta.-D-glucose	uncertainty
313.15	14.52	101.3	14.24	0.68

System: propan-2-ol + .beta.-D-glucose + .alpha.-D-glucose; phases: Liquid, Crystal
Property: Mass concentration, kg/m3 of .beta.-D-glucose (Liquid); method: Chromatography
Temperature, K	Solvent: Ratio of component mass to volume of solvent, kg/m3 of .alpha.-D-glucose	Pressure, kPa	Mass concentration, kg/m3 of .beta.-D-glucose	uncertainty
333.15	1.82	101.3	1.96	0.18

System: propan-1-ol + .beta.-D-glucose + .alpha.-D-glucose; phases: Liquid, Crystal
Property: Mass concentration, kg/m3 of .beta.-D-glucose (Liquid); method: Chromatography
Temperature, K	Solvent: Ratio of component mass to volume of solvent, kg/m3 of .alpha.-D-glucose	Pressure, kPa	Mass concentration, kg/m3 of .beta.-D-glucose	uncertainty
333.15	1.77	101.3	1.95	0.18

System: 2-methylbutan-2-ol + .beta.-D-glucose + .alpha.-D-glucose; phases: Liquid, Crystal
Fixed: Pressure, kPa = 101.3
Property: Mass concentration, kg/m3 of .beta.-D-glucose (Liquid); method: Chromatography
Temperature, K	Solvent: Ratio of component mass to volume of solvent, kg/m3 of .alpha.-D-glucose	Mass concentration, kg/m3 of .beta.-D-glucose	uncertainty
313.15	0.5	0.58	0.02
333.15	1.11	1.29	0.06

System: 2-methylpropan-2-ol + .beta.-D-glucose + .alpha.-D-glucose; phases: Liquid, Crystal
Fixed: Pressure, kPa = 101.3
Property: Mass concentration, kg/m3 of .beta.-D-glucose (Liquid); method: Chromatography
Temperature, K	Solvent: Ratio of component mass to volume of solvent, kg/m3 of .alpha.-D-glucose	Mass concentration, kg/m3 of .beta.-D-glucose	uncertainty
313.15	0.58	0.66	0.06
333.15	1.65	1.86	0.16

System: butan-1-ol + .beta.-D-glucose + .alpha.-D-glucose; phases: Liquid, Crystal
Fixed: Pressure, kPa = 101.3
Property: Mass concentration, kg/m3 of .beta.-D-glucose (Liquid); method: Chromatography
Temperature, K	Solvent: Ratio of component mass to volume of solvent, kg/m3 of .alpha.-D-glucose	Mass concentration, kg/m3 of .beta.-D-glucose	uncertainty
313.15	0.27	0.32	0.02
333.15	0.69	0.78	0.08

System: ethanol + .beta.-D-glucose + .alpha.-D-glucose; phases: Liquid, Crystal
Fixed: Pressure, kPa = 101.3
Property: Mass concentration, kg/m3 of .beta.-D-glucose (Liquid); method: Chromatography
Temperature, K	Solvent: Ratio of component mass to volume of solvent, kg/m3 of .alpha.-D-glucose	Mass concentration, kg/m3 of .beta.-D-glucose	uncertainty
313.15	1.82	1.99	0.22
333.15	4.51	4.51	0.12
