Measured thermophysical data. Activity Coefficients and Volumetric Properties for the NaBr + Maltose + Water System at 298.15 K
Source: J. Chem. Eng. Data, 2005, 10.1021/je050064v
Compound 1: D-maltose, C12H22O11, InChI=1S/C12H22O11/c13-1-3-5(15)6(16)9(19)12(22-3)23-10-4(2-14)21-11(20)8(18)7(10)17/h3-20H,1-2H2/t3-,4-,5-,6+,7-,8-,9-,10-,11?,12-/m1/s1
Compound 2: water, H2O, InChI=1S/H2O/h1H2
Compound 3: sodium bromide, BrNa, InChI=1S/BrH.Na/h1H;/q;+1/p-1

System: D-maltose + water; phases: Liquid
Fixed: Temperature, K = 298.15
Fixed: Pressure, kPa = 101.3
Property: Mass density, kg/m3 (Liquid); method: Vibrating tube method
Mass fraction of D-maltose	Mass density, kg/m3	uncertainty
0.05	1016.777	1.938
0.1	1037.258	1.977
0.15	1058.434	2.017
0.2	1080.438	2.06
0.25	1103.065	2.103
0.3	1126.587	2.148

System: D-maltose + sodium bromide + water; phases: Liquid
Fixed: Temperature, K = 298.15
Fixed: Pressure, kPa = 101.3
Property: Mass density, kg/m3 (Liquid); method: Vibrating tube method
Solvent: Mass fraction of D-maltose	Molality, mol/kg of sodium bromide	Mass density, kg/m3	uncertainty
0.05	0	1016.777	1.938
0.05	0.15	1028.017	1.959
0.05	0.3	1039.071	1.98
0.05	0.5	1053.636	2.008
0.05	0.75	1071.562	2.043
0.05	1	1089.133	2.076
0.1	0	1037.258	1.977
0.1	0.15	1048.02	1.998
0.1	0.3	1058.636	2.018
0.1	0.5	1072.59	2.045
0.1	0.75	1089.712	2.078
0.1	1	1106.594	2.11
0.15	0	1058.434	2.017
0.15	0.15	1068.682	2.037
0.15	0.3	1078.771	2.056
0.15	0.5	1092.043	2.082
0.15	0.75	1108.457	2.113
0.15	1	1124.555	2.144
0.2	0	1080.438	2.06
0.2	0.15	1090.193	2.078
0.2	0.3	1099.795	2.097
0.2	0.5	1112.402	2.121
0.2	0.75	1127.962	2.151
0.2	1	1143.206	2.18
0.25	0	1103.065	2.103
0.25	0.15	1112.279	2.121
0.25	0.3	1121.381	2.138
0.25	0.5	1133.332	2.161
0.25	0.75	1147.991	2.189
0.25	1	1162.431	2.217
0.3	0	1126.587	2.148
0.3	0.15	1135.245	2.165
0.3	0.3	1143.777	2.181
0.3	0.5	1154.975	2.203
0.3	0.75	1168.783	2.229
0.3	1	1182.39	2.256
