Measured thermophysical data. Densities and Viscosities of Binary Mixtures of m-Cresol with Ethylene Glycol or Methanol over Several Temperatures
Source: J. Chem. Eng. Data, 2006, 10.1021/je0504156
Compound 1: 3-methylphenol, C7H8O, InChI=1S/C7H8O/c1-6-3-2-4-7(8)5-6/h2-5,8H,1H3
Compound 2: 1,2-ethanediol, C2H6O2, InChI=1S/C2H6O2/c3-1-2-4/h3-4H,1-2H2
Compound 3: methanol, CH4O, InChI=1S/CH4O/c1-2/h2H,1H3

System: 3-methylphenol; phases: Liquid
Fixed: Pressure, kPa = 101
Property: Viscosity, Pa*s (Liquid); method: CAPTUB:UFactor:4
Temperature, K	Viscosity, Pa*s	uncertainty
308.15	0.007701	0.000155
313.15	0.00612	0.00013
318.15	0.005022	0.000112
323.15	0.004158	9.4e-05
328.15	0.003518	8e-05
333.15	0.00298	6.8e-05
343.15	0.002231	5.2e-05
353.15	0.001759	4.2e-05

System: 3-methylphenol; phases: Liquid
Fixed: Pressure, kPa = 101
Property: Mass density, kg/m3 (Liquid); method: VIBTUB:UFactor:8
Temperature, K	Mass density, kg/m3	uncertainty
308.15	1021.64	0.61
313.15	1017.63	0.6
318.15	1013.6	0.59
323.15	1009.56	0.58
328.15	1005.93	0.57
333.15	1001.44	0.57
343.15	991.33	4
353.15	985.42	0.58

System: 1,2-ethanediol; phases: Liquid
Fixed: Pressure, kPa = 101
Property: Viscosity, Pa*s (Liquid); method: CAPTUB:UFactor:4
Temperature, K	Viscosity, Pa*s	uncertainty
308.15	0.011193	0.000207
313.15	0.009444	0.00018
318.15	0.007972	0.000156
323.15	0.006794	0.000138
333.15	0.005065	0.000111
343.15	0.003879	8.6e-05
353.15	0.003058	6.9e-05

System: 1,2-ethanediol; phases: Liquid
Fixed: Pressure, kPa = 101
Property: Mass density, kg/m3 (Liquid); method: VIBTUB:UFactor:8
Temperature, K	Mass density, kg/m3	uncertainty
308.15	1101.88	0.66
313.15	1098.33	0.65
318.15	1094.75	0.64
323.15	1091.16	0.63
333.15	1083.94	0.61
343.15	1074.53	4
353.15	1069.72	0.57

System: methanol; phases: Liquid
Fixed: Pressure, kPa = 101
Property: Viscosity, Pa*s (Liquid); method: CAPTUB:UFactor:4
Temperature, K	Viscosity, Pa*s	uncertainty
308.15	0.000476	1.4e-05
313.15	0.000445	1.3e-05
318.15	0.000421	1.3e-05
323.15	0.000395	1.2e-05
328.15	0.000372	1.2e-05

System: methanol; phases: Liquid
Fixed: Pressure, kPa = 101
Property: Mass density, kg/m3 (Liquid); method: VIBTUB:UFactor:8
Temperature, K	Mass density, kg/m3	uncertainty
308.15	776.92	0.97
313.15	772.13	0.98
318.15	767.31	1
323.15	762.46	1.01
328.15	757.85	1.02

System: 1,2-ethanediol + 3-methylphenol; phases: Liquid
Fixed: Pressure, kPa = 101
Property: Viscosity, Pa*s (Liquid); method: CAPTUB:UFactor:4
Mole fraction of 3-methylphenol	Temperature, K	Viscosity, Pa*s	uncertainty
0	308.15	0.011193	0.000207
0	313.15	0.009444	0.00018
0	318.15	0.007972	0.000156
0	323.15	0.006794	0.000138
0	333.15	0.005065	0.000111
0	343.15	0.003879	8.6e-05
0	353.15	0.003058	6.9e-05
0.0998	308.15	0.011725	0.000216
0.0998	313.15	0.009704	0.000184
0.0998	318.15	0.008113	0.000159
0.0998	323.15	0.006869	0.000139
0.0998	333.15	0.005133	0.000112
0.0998	343.15	0.00381	8.5e-05
0.0998	353.15	0.002995	6.8e-05
0.1999	308.15	0.012317	0.000226
0.1999	313.15	0.010135	0.000191
0.1999	318.15	0.008371	0.000163
0.1999	323.15	0.007015	0.000142
0.1999	333.15	0.005087	0.000111
0.1999	343.15	0.00382	8.5e-05
0.1999	353.15	0.002967	6.7e-05
0.3	308.15	0.012328	0.000227
0.3	313.15	0.01002	0.00019
0.3	318.15	0.008275	0.000162
0.3	323.15	0.006894	0.00014
0.3	333.15	0.004972	0.000109
0.3	343.15	0.00372	8.3e-05
0.3	353.15	0.002882	6.5e-05
0.3996	308.15	0.011881	0.00022
0.3996	313.15	0.009673	0.000185
0.3996	318.15	0.007906	0.000157
0.3996	323.15	0.006572	0.000135
0.3996	333.15	0.004817	0.000106
0.3996	343.15	0.003554	8e-05
0.3996	353.15	0.002734	6.2e-05
0.5	308.15	0.011198	0.000209
0.5	313.15	0.009067	0.000175
0.5	318.15	0.007441	0.000149
0.5	323.15	0.006182	0.000129
0.5	333.15	0.00445	9.9e-05
0.5	343.15	0.003332	7.5e-05
0.5	353.15	0.002566	5.9e-05
0.5967	308.15	0.010373	0.000197
0.5967	313.15	0.008417	0.000165
0.5967	318.15	0.006893	0.000141
0.5967	323.15	0.005763	0.000123
0.5967	333.15	0.004145	9.3e-05
0.5967	343.15	0.003096	7e-05
0.5967	353.15	0.002401	5.5e-05
0.7002	308.15	0.009452	0.000182
0.7002	313.15	0.00767	0.000154
0.7002	318.15	0.006322	0.000132
0.7002	323.15	0.00527	0.000115
0.7002	333.15	0.003794	8.5e-05
0.7002	343.15	0.002858	6.5e-05
0.7002	353.15	0.002237	5.2e-05
0.8	308.15	0.008695	0.000171
0.8	313.15	0.00703	0.000144
0.8	318.15	0.005853	0.000125
0.8	323.15	0.004811	0.000107
0.8	333.15	0.003488	7.9e-05
0.8	343.15	0.002635	6.1e-05
0.8	353.15	0.002048	4.8e-05
0.8989	308.15	0.00803	0.00016
0.8989	313.15	0.006496	0.000135
0.8989	318.15	0.005346	0.000117
0.8989	323.15	0.004433	9.9e-05
0.8989	333.15	0.003219	7.3e-05
0.8989	343.15	0.002426	5.6e-05
0.8989	353.15	0.001901	4.5e-05
1	308.15	0.007701	0.000155
1	313.15	0.00612	0.00013
1	318.15	0.005022	0.000112
1	323.15	0.004158	9.4e-05
1	333.15	0.00298	6.8e-05
1	343.15	0.002231	5.2e-05
1	353.15	0.001759	4.2e-05

System: 1,2-ethanediol + 3-methylphenol; phases: Liquid
Fixed: Pressure, kPa = 101
Property: Mass density, kg/m3 (Liquid); method: VIBTUB:UFactor:8
Mole fraction of 3-methylphenol	Temperature, K	Mass density, kg/m3	uncertainty
0	308.15	1101.88	0.66
0	313.15	1098.33	0.65
0	318.15	1094.75	0.64
0	323.15	1091.16	0.63
0	333.15	1083.94	0.61
0	343.15	1074.53	4
0	353.15	1069.72	0.57
0.0998	308.15	1088.36	0.63
0.0998	313.15	1084.66	0.62
0.0998	318.15	1080.98	0.61
0.0998	323.15	1077.28	0.6
0.0998	333.15	1069.86	0.58
0.0998	343.15	1060.26	4
0.0998	353.15	1055.21	0.54
0.1999	308.15	1077.36	0.61
0.1999	313.15	1073.58	0.6
0.1999	318.15	1069.79	0.59
0.1999	323.15	1065.98	0.58
0.1999	333.15	1058.35	0.56
0.1999	343.15	1048.59	4
0.1999	353.15	1043.24	0.53
0.3	308.15	1067.31	0.6
0.3	313.15	1063.47	0.59
0.3	318.15	1059.61	0.58
0.3	323.15	1055.75	0.57
0.3	333.15	1047.97	0.55
0.3	343.15	1038.14	4
0.3	353.15	1032.71	0.51
0.3996	308.15	1058.33	0.59
0.3996	313.15	1054.44	0.58
0.3996	318.15	1050.55	0.57
0.3996	323.15	1046.64	0.56
0.3996	333.15	1038.8	0.54
0.3996	343.15	1028.9	4
0.3996	353.15	1023.39	0.51
0.5	308.15	1050.38	0.59
0.5	313.15	1046.47	0.58
0.5	318.15	1042.56	0.57
0.5	323.15	1038.63	0.56
0.5	333.15	1030.72	0.54
0.5	343.15	1020.81	4
0.5	353.15	1015.21	0.51
0.5967	308.15	1043.44	0.59
0.5967	313.15	1039.51	0.58
0.5967	318.15	1035.59	0.57
0.5967	323.15	1031.63	0.56
0.5967	333.15	1023.71	0.54
0.5967	343.15	1013.76	4
0.5967	353.15	1008.1	0.51
0.7002	308.15	1036.6	0.59
0.7002	313.15	1032.66	0.58
0.7002	318.15	1028.7	0.57
0.7002	323.15	1024.74	0.56
0.7002	333.15	1016.76	0.54
0.7002	343.15	1006.79	4
0.7002	353.15	1001.08	0.51
0.8	308.15	1031.15	0.59
0.8	313.15	1027.19	0.58
0.8	318.15	1023.23	0.57
0.8	323.15	1019.25	0.57
0.8	333.15	1011.25	0.55
0.8	343.15	1001.25	4
0.8	353.15	995.5	0.53
0.8989	308.15	1026.2	0.6
0.8989	313.15	1022.22	0.59
0.8989	318.15	1018.22	0.58
0.8989	323.15	1014.22	0.57
0.8989	333.15	1006.16	0.56
0.8989	343.15	996.13	4
0.8989	353.15	990.32	0.56
1	308.15	1021.64	0.61
1	313.15	1017.63	0.6
1	318.15	1013.6	0.59
1	323.15	1009.56	0.58
1	333.15	1001.44	0.57
1	343.15	991.33	4
1	353.15	985.42	0.58

System: methanol + 3-methylphenol; phases: Liquid
Fixed: Pressure, kPa = 101
Property: Viscosity, Pa*s (Liquid); method: CAPTUB:UFactor:4
Mole fraction of 3-methylphenol	Temperature, K	Viscosity, Pa*s	uncertainty
0	308.15	0.000476	1.4e-05
0	313.15	0.000445	1.3e-05
0	318.15	0.000421	1.3e-05
0	323.15	0.000395	1.2e-05
0	328.15	0.000372	1.2e-05
0.0999	308.15	0.000725	1.9e-05
0.0999	313.15	0.000676	1.8e-05
0.0999	318.15	0.000621	1.7e-05
0.0999	323.15	0.000588	1.6e-05
0.0999	328.15	0.000533	1.5e-05
0.1999	308.15	0.000976	2.4e-05
0.1999	313.15	0.000906	2.3e-05
0.1999	318.15	0.000835	2.1e-05
0.1999	323.15	0.000783	2e-05
0.1999	328.15	0.00072	1.9e-05
0.2998	308.15	0.001319	3.2e-05
0.2998	313.15	0.001205	2.9e-05
0.2998	318.15	0.0011	2.7e-05
0.2998	323.15	0.001011	2.5e-05
0.2998	328.15	0.000933	2.3e-05
0.3999	308.15	0.001778	4.2e-05
0.3999	313.15	0.001577	3.7e-05
0.3999	318.15	0.001419	3.4e-05
0.3999	323.15	0.00129	3.1e-05
0.3999	328.15	0.00118	2.9e-05
0.4998	308.15	0.002367	5.4e-05
0.4998	313.15	0.002079	4.8e-05
0.4998	318.15	0.001835	4.3e-05
0.4998	323.15	0.001646	3.9e-05
0.4998	328.15	0.001459	3.5e-05
0.6001	308.15	0.002958	6.7e-05
0.6001	313.15	0.002556	5.9e-05
0.6001	318.15	0.002243	5.2e-05
0.6001	323.15	0.00199	4.6e-05
0.6001	328.15	0.001788	4.2e-05
0.6998	308.15	0.003767	8.5e-05
0.6998	313.15	0.003228	7.3e-05
0.6998	318.15	0.002789	6.4e-05
0.6998	323.15	0.002437	5.6e-05
0.6998	328.15	0.002144	5e-05
0.7999	308.15	0.004783	0.000106
0.7999	313.15	0.004007	9e-05
0.7999	318.15	0.003418	7.7e-05
0.7999	323.15	0.002936	6.7e-05
0.7999	328.15	0.002551	5.9e-05
0.8999	308.15	0.00606	0.000128
0.8999	313.15	0.004978	0.000111
0.8999	318.15	0.004153	9.3e-05
0.8999	323.15	0.003507	7.9e-05
0.8999	328.15	0.002995	6.8e-05
1	308.15	0.007701	0.000155
1	313.15	0.00612	0.00013
1	318.15	0.005022	0.000112
1	323.15	0.004158	9.4e-05
1	328.15	0.003518	8e-05

System: methanol + 3-methylphenol; phases: Liquid
Fixed: Pressure, kPa = 101
Property: Mass density, kg/m3 (Liquid); method: VIBTUB:UFactor:8
Mole fraction of 3-methylphenol	Temperature, K	Mass density, kg/m3	uncertainty
0	308.15	776.92	0.97
0	313.15	772.13	0.98
0	318.15	767.31	1
0	323.15	762.46	1.01
0	328.15	757.85	1.02
0.0999	308.15	838.66	0.79
0.0999	313.15	834.09	0.81
0.0999	318.15	829.48	0.82
0.0999	323.15	824.84	0.83
0.0999	328.15	820.44	0.85
0.1999	308.15	880.62	0.68
0.1999	313.15	876.22	0.69
0.1999	318.15	871.78	0.7
0.1999	323.15	867.32	0.72
0.1999	328.15	863.14	0.73
0.2998	308.15	914.11	0.6
0.2998	313.15	909.92	0.61
0.2998	318.15	905.55	0.62
0.2998	323.15	901.14	0.63
0.2998	328.15	897.17	0.64
0.3999	308.15	939.8	0.55
0.3999	313.15	935.58	0.56
0.3999	318.15	931.38	0.57
0.3999	323.15	927.14	0.58
0.3999	328.15	923.28	0.59
0.4998	308.15	960.97	0.52
0.4998	313.15	956.82	0.53
0.4998	318.15	952.74	0.54
0.4998	323.15	948.57	0.55
0.4998	328.15	944.75	0.55
0.6001	308.15	977.35	0.51
0.6001	313.15	973.31	0.51
0.6001	318.15	969.31	0.52
0.6001	323.15	965.28	0.53
0.6001	328.15	961.59	0.54
0.6998	308.15	991.84	0.51
0.6998	313.15	987.87	0.51
0.6998	318.15	983.92	0.52
0.6998	323.15	979.59	0.52
0.6998	328.15	976.07	0.53
0.7999	308.15	1002.99	0.52
0.7999	313.15	998.97	0.52
0.7999	318.15	994.93	0.52
0.7999	323.15	990.88	0.53
0.7999	328.15	987.18	0.53
0.8999	308.15	1013.19	0.57
0.8999	313.15	1009.18	0.56
0.8999	318.15	1005.13	0.55
0.8999	323.15	1001.1	0.54
0.8999	328.15	997.41	0.54
1	308.15	1021.64	0.61
1	313.15	1017.63	0.6
1	318.15	1013.6	0.59
1	323.15	1009.56	0.58
1	328.15	1005.93	0.57
