Measured thermophysical data. Determination of Viscosity, Ionic Conductivity, and Diffusion Coefficients in Some Binary Systems: Ionic Liquids + Molecular Solvents
Source: J. Chem. Eng. Data, 2006, 10.1021/je0504515
Compound 1: 1-butyl-3-methylimidazolium tetrafluoroborate, C8H15BF4N2, InChI=1S/C8H15N2.BF4/c1-3-4-5-10-7-6-9(2)8-10;2-1(3,4)5/h6-8H,3-5H2,1-2H3;/q+1;-1
Compound 2: 1-butyl-1-methylpyrrolidinium bis[(trifluoromethyl)sulfonyl]imide, C11H20F6N2O4S2, InChI=1S/C9H20N.C2F6NO4S2/c1-3-4-7-10(2)8-5-6-9-10;3-1(4,5)14(10,11)9-15(12,13)2(6,7)8/h3-9H2,1-2H3;/q+1;-1
Compound 3: dimethylformamide, C3H7NO, InChI=1S/C3H7NO/c1-4(2)3-5/h3H,1-2H3, purity 99.9%
Compound 4: 3-methylpyridine, C6H7N, InChI=1S/C6H7N/c1-6-3-2-4-7-5-6/h2-5H,1H3, purity 99%
Compound 5: ferrocene, C10H10Fe, InChI=1S/2C5H5.Fe/c2*1-2-4-5-3-1;/h2*1-5H;
Compound 6: 1-hexyl-1-methylpyrrolidinium bis(trifluoromethanesulfonyl)imide, C13H24F6N2O4S2, InChI=1S/C11H24N.C2F6NO4S2/c1-3-4-5-6-9-12(2)10-7-8-11-12;3-1(4,5)14(10,11)9-15(12,13)2(6,7)8/h3-11H2,1-2H3;/q+1;-1

System: dimethylformamide + 1-butyl-3-methylimidazolium tetrafluoroborate; phases: Liquid
Fixed: Temperature, K = 295.2
Fixed: Pressure, kPa = 101
Property: Electrical conductivity, S/m (Liquid); method: Radiometer CDM 210 Meterlab conductimeter with a CDC 745-9 cell
Mole fraction of dimethylformamide	Electrical conductivity, S/m	uncertainty
0	0.375	0.015
0.088	0.464	0.019
0.161	0.551	0.022
0.224	0.629	0.025
0.324	0.79	0.032
0.366	0.871	0.035
0.434	1.033	0.041
0.49	1.169	0.047
0.535	1.296	0.052
0.606	1.549	0.062
0.658	1.724	0.069
0.728	2.011	0.08
0.793	2.315	0.093
0.828	2.403	0.096
0.852	2.437	0.097
0.906	2.436	0.097
0.957	1.827	0.073
0.973	1.392	0.056
0.981	1.128	0.045

System: dimethylformamide + 1-butyl-3-methylimidazolium tetrafluoroborate; phases: Liquid
Fixed: Temperature, K = 295.2
Fixed: Pressure, kPa = 101
Property: Viscosity, Pa*s (Liquid); method: CONPLT:UFactor:8
Mole fraction of dimethylformamide	Viscosity, Pa*s	uncertainty
0	0.1229	0.0187
0.14	0.0656	0.0142
0.23	0.0454	0.0086
0.33	0.0263	0.0057
0.44	0.0161	0.0031
0.53	0.0112	0.0016
0.61	0.0098	0.0014
0.73	0.0047	0.0017

System: dimethylformamide + 1-butyl-1-methylpyrrolidinium bis[(trifluoromethyl)sulfonyl]imide; phases: Liquid
Fixed: Temperature, K = 295.2
Fixed: Pressure, kPa = 101
Property: Electrical conductivity, S/m (Liquid); method: Radiometer CDM 210 Meterlab conductimeter with a CDC 745-9 cell
Mole fraction of dimethylformamide	Electrical conductivity, S/m	uncertainty
0	0.28	0.017
0.144	0.387	0.023
0.252	0.495	0.03
0.336	0.612	0.037
0.403	0.74	0.044
0.457	0.78	0.047
0.519	0.981	0.059
0.574	1.105	0.066
0.637	1.317	0.079
0.716	1.601	0.096
0.773	1.849	0.111
0.835	2.095	0.126
0.871	2.165	0.13
0.894	2.17	0.13
0.91	2.12	0.127
0.931	1.983	0.119
0.953	1.704	0.102
0.971	1.312	0.079
0.981	1.01	0.061

System: dimethylformamide + 1-butyl-1-methylpyrrolidinium bis[(trifluoromethyl)sulfonyl]imide; phases: Liquid
Fixed: Temperature, K = 295.2
Fixed: Pressure, kPa = 101.3
Property: Viscosity, Pa*s (Liquid); method: CONPLT:UFactor:8
Mole fraction of dimethylformamide	Viscosity, Pa*s	uncertainty
0	0.08	0.0068
0.13	0.0403	0.0087
0.24	0.0296	0.004
0.33	0.0217	0.003
0.45	0.0144	0.0023
0.54	0.0099	0.0017
0.64	0.0066	0.0013
0.74	0.0037	0.0012

System: dimethylformamide + 1-hexyl-1-methylpyrrolidinium bis(trifluoromethanesulfonyl)imide; phases: Liquid
Fixed: Pressure, kPa = 101
Property: Electrical conductivity, S/m (Liquid); method: Radiometer CDM 210 Meterlab conductimeter with a CDC 745-9 cell
Temperature, K	Mole fraction of dimethylformamide	Electrical conductivity, S/m	uncertainty
293.2	0.1	0.155	0.006
293.2	0.5	0.382	0.036
293.2	0.9	1.682	0.068
295.2	0.1	0.17	0.007
295.2	0.5	0.418	0.017
295.2	0.9	1.74	0.07
298.2	0.1	0.191	0.008
298.2	0.5	0.47	0.019
298.2	0.9	1.823	0.073
301.2	0.1	0.211	0.009
301.2	0.5	0.522	0.022
301.2	0.9	1.904	0.076
303.2	0.1	0.224	0.009
303.2	0.5	0.557	0.023
303.2	0.9	1.958	0.079
305.2	0.1	0.239	0.01
305.2	0.5	0.592	0.024
305.2	0.9	2.015	0.081
308.2	0.1	0.26	0.011
308.2	0.5	0.645	0.026
308.2	0.9	2.101	0.084
311.2	0.1	0.28	0.011
311.2	0.5	0.697	0.029
311.2	0.9	2.187	0.088
313.2	0.1	0.295	0.012
313.2	0.5	0.732	0.029
313.2	0.9	2.243	0.09
315.2	0.1	0.31	0.012
315.2	0.5	0.767	0.031
315.2	0.9	2.305	0.092
318.2	0.1	0.33	0.013
318.2	0.5	0.819	0.033
318.2	0.9	2.393	0.096
321.2	0.1	0.351	0.014
321.2	0.5	0.871	0.036
321.2	0.9	2.48	0.099
323.2	0.1	0.365	0.015
323.2	0.5	0.91	0.054
323.2	0.9	2.544	0.102

System: dimethylformamide + 1-hexyl-1-methylpyrrolidinium bis(trifluoromethanesulfonyl)imide; phases: Liquid
Fixed: Pressure, kPa = 101.3
Property: Viscosity, Pa*s (Liquid); method: CONPLT:UFactor:8
Temperature, K	Mole fraction of dimethylformamide	Viscosity, Pa*s	uncertainty
295.2	0	0.1198	0.0173
295.2	0.104	0.083	0.0072
295.2	0.205	0.0567	0.002
295.2	0.301	0.0429	0.0019
295.2	0.402	0.0281	0.0013
295.2	0.5	0.0196	0.0009
295.2	0.599	0.012	0.0005
295.2	0.7	0.0055	0.0003
300.2	0	0.0968	0.0107
300.2	0.104	0.0675	0.0037
300.2	0.205	0.0472	0.0022
300.2	0.301	0.0364	0.0016
300.2	0.402	0.024	0.0011
300.2	0.5	0.017	0.0007
300.2	0.599	0.0105	0.0005
300.2	0.7	0.0051	0.0003
305.2	0	0.0796	0.0064
305.2	0.104	0.0558	0.002
305.2	0.205	0.0398	0.0018
305.2	0.301	0.0308	0.0014
305.2	0.402	0.0209	0.0009
305.2	0.5	0.0147	0.0007
305.2	0.599	0.0093	0.0004
305.2	0.7	0.0047	0.0002
310.2	0	0.0648	0.0033
310.2	0.104	0.0459	0.0022
310.2	0.205	0.0336	0.0015
310.2	0.301	0.0263	0.0012
310.2	0.402	0.0179	0.0008
310.2	0.5	0.013	0.0006
310.2	0.599	0.0084	0.0004
310.2	0.7	0.0043	0.0002
315.2	0	0.0542	0.0019
315.2	0.104	0.038	0.0018
315.2	0.205	0.0288	0.0013
315.2	0.301	0.0226	0.001
315.2	0.402	0.0157	0.0007
315.2	0.5	0.0114	0.0005
315.2	0.599	0.0075	0.0003
315.2	0.7	0.0039	0.0002
320.2	0	0.0459	0.0022
320.2	0.104	0.0324	0.0015
320.2	0.205	0.0248	0.0011
320.2	0.301	0.0195	0.0009
320.2	0.402	0.0139	0.0006
320.2	0.5	0.01	0.0004
320.2	0.599	0.0068	0.0003
320.2	0.7	0.0036	0.0002
325.2	0	0.0389	0.0019
325.2	0.104	0.0276	0.0013
325.2	0.205	0.0218	0.001
325.2	0.301	0.0169	0.0008
325.2	0.402	0.012	0.0005
325.2	0.5	0.0091	0.0004
325.2	0.599	0.0062	0.0003
325.2	0.7	0.0034	0.0002

System: 3-methylpyridine + 1-butyl-3-methylimidazolium tetrafluoroborate; phases: Liquid
Fixed: Temperature, K = 295.2
Fixed: Pressure, kPa = 101
Property: Electrical conductivity, S/m (Liquid); method: Radiometer CDM 210 Meterlab conductimeter with a CDC 745-9 cell
Mole fraction of 3-methylpyridine	Electrical conductivity, S/m	uncertainty
0	0.378	0.015
0.061	0.44	0.018
0.114	0.476	0.019
0.162	0.52	0.021
0.205	0.555	0.022
0.244	0.588	0.024
0.279	0.616	0.025
0.34	0.674	0.027
0.392	0.72	0.029
0.474	0.802	0.032
0.568	0.845	0.034
0.659	0.915	0.037
0.721	0.928	0.037
0.763	0.936	0.037
0.798	0.94	0.038
0.838	0.838	0.034
0.866	0.747	0.03
0.906	0.59	0.024
0.928	0.474	0.019

System: 3-methylpyridine + 1-butyl-1-methylpyrrolidinium bis[(trifluoromethyl)sulfonyl]imide; phases: Liquid
Fixed: Temperature, K = 295.2
Fixed: Pressure, kPa = 101
Property: Electrical conductivity, S/m (Liquid); method: Radiometer CDM 210 Meterlab conductimeter with a CDC 745-9 cell
Mole fraction of 3-methylpyridine	Electrical conductivity, S/m	uncertainty
0	0.28	0.011
0.029	0.353	0.06
0.057	0.335	0.013
0.095	0.367	0.015
0.153	0.416	0.017
0.194	0.445	0.018
0.249	0.467	0.019
0.338	0.522	0.021
0.387	0.578	0.023
0.439	0.606	0.024
0.49	0.635	0.025
0.54	0.686	0.027
0.591	0.726	0.029
0.64	0.761	0.03
0.691	0.793	0.032
0.743	0.814	0.033
0.794	0.808	0.032
0.845	0.771	0.031
0.896	0.665	0.027

System: dimethylformamide + ferrocene + 1-butyl-3-methylimidazolium tetrafluoroborate; phases: Liquid
Fixed: Temperature, K = 295.2
Fixed: Pressure, kPa = 101.3
Fixed: Amount concentration (molarity), mol/dm3 of ferrocene = 0.03
Property: Tracer diffusion coefficient, m2/s of ferrocene (Liquid); method: Electrochemistry (cyclic voltametry)
Mole fraction of dimethylformamide	Tracer diffusion coefficient, m2/s of ferrocene	uncertainty
0	0.004	0.001
0.1	0.005	0.001
0.2	0.008	0.001
0.3	0.014	0.001
0.4	0.022	0.002
0.5	0.034	0.002
0.6	0.056	0.004
0.7	0.088	0.006
0.8	0.14	0.01
0.9	0.24	0.017
0.95	0.32	0.022
0.97	0.34	0.02

System: dimethylformamide + ferrocene + 1-butyl-1-methylpyrrolidinium bis[(trifluoromethyl)sulfonyl]imide; phases: Liquid
Fixed: Temperature, K = 295.2
Fixed: Pressure, kPa = 101.3
Fixed: Amount concentration (molarity), mol/dm3 of ferrocene = 0.03
Property: Tracer diffusion coefficient, m2/s of ferrocene (Liquid); method: Electrochemistry (cyclic voltametry)
Mole fraction of dimethylformamide	Tracer diffusion coefficient, m2/s of ferrocene	uncertainty
0	0.008	0.001
0.1	0.012	0.001
0.2	0.018	0.001
0.3	0.027	0.002
0.4	0.04	0.003
0.5	0.059	0.004
0.6	0.081	0.005
0.7	0.12	0.008
0.8	0.18	0.011
0.9	0.26	0.016
0.94	0.3	0.017
0.97	0.31	0.016

System: dimethylformamide + ferrocene + 1-hexyl-1-methylpyrrolidinium bis(trifluoromethanesulfonyl)imide; phases: Liquid
Fixed: Pressure, kPa = 101.3
Fixed: Mole fraction of dimethylformamide = 0.1
Fixed: Amount concentration (molarity), mol/dm3 of ferrocene = 0.03
Property: Tracer diffusion coefficient, m2/s of ferrocene (Liquid); method: Electrochemistry (cyclic voltametry)
Temperature, K	Tracer diffusion coefficient, m2/s of ferrocene	uncertainty
295.15	7.3e-06	4e-07
300.15	9.8e-06	5e-07
304.15	1.2e-05	1e-06
309.15	1.3e-05	1e-06
316.15	1.8e-05	1e-06
321.15	2e-05	1e-06
326.15	2.4e-05	1e-06
