Measured thermophysical data. Solubilities for Six Ternary Systems: NaCl + NH4Cl + H2O, KCl + NH4Cl + H2O, NaCl + LiCl + H2O, KCl + LiCl + H2O, NaCl + AlCl3 + H2O, and KCl + AlCl3 + H2O at T = (298 to 333) K
Source: J. Chem. Eng. Data, 2005, 10.1021/je050111j
Compound 1: water, H2O, InChI=1S/H2O/h1H2
Compound 2: sodium chloride, ClNa, InChI=1S/ClH.Na/h1H;/q;+1/p-1
Compound 3: potassium chloride, ClK, InChI=1S/ClH.K/h1H;/q;+1/p-1
Compound 4: ammonium chloride (NH4Cl), ClH4N, InChI=1S/ClH.H3N/h1H;1H3
Compound 5: lithium chloride, ClLi, InChI=1S/ClH.Li/h1H;/q;+1/p-1
Compound 6: aluminum chloride, AlCl3, InChI=1S/Al.3ClH/h;3*1H/q+3;;;/p-3

System: lithium chloride + water; phases: Liquid, Crystal of intercomponent compound 1
Fixed: Pressure, kPa = 101
Property: Molality, mol/kg (Liquid); method: visual polythermal method
Temperature, K	Molality, mol/kg	uncertainty
296.7	19.7	0.6
298.4	19.9	0.6
303.1	20	0.6
308	20.7	0.6
313.3	21.1	0.6
318	21.4	0.6
323.2	22.1	0.6
328.2	22.5	0.6
330.6	23.1	0.6
334.5	23.5	0.6

System: aluminum chloride + water; phases: Liquid, Crystal of intercomponent compound 1
Fixed: Pressure, kPa = 101
Property: Molality, mol/kg (Liquid); method: visual polythermal method
Temperature, K	Molality, mol/kg	uncertainty
298.3	3.395	0.06
303.2	3.4	0.06
308.1	3.406	0.06
313.1	3.415	0.06
317	3.417	0.06
318.4	3.425	0.06
323.2	3.427	0.06
325.7	3.431	0.06
333.2	3.44	0.06
338.1	3.45	0.06

System: aluminum chloride + sodium chloride + water; phases: Liquid, Crystal of intercomponent compound 1, Crystal
Fixed: Pressure, kPa = 101
Property: Molality, mol/kg of aluminum chloride (Liquid); method: visual polythermal method
Temperature, K	Molality, mol/kg of aluminum chloride	uncertainty
298.1	3.24	0.05
303.4	3.28	0.05
313.2	3.33	0.05
323.1	3.3	0.05
333.9	3.4	0.06

System: aluminum chloride + sodium chloride + water; phases: Liquid, Crystal of intercomponent compound 1, Crystal
Fixed: Pressure, kPa = 101
Property: Molality, mol/kg of sodium chloride (Liquid); method: visual polythermal method
Temperature, K	Molality, mol/kg of sodium chloride	uncertainty
298.1	0.17	0.01
303.4	0.19	0.01
313.2	0.21	0.01
323.1	0.23	0.01
333.9	0.29	0.01

System: aluminum chloride + sodium chloride + water; phases: Liquid, Crystal
Fixed: Pressure, kPa = 101.3
Property: Solid-liquid equilibrium temperature, K (Liquid); method: VISOBS:UFactor:16
Molality, mol/kg of aluminum chloride	Molality, mol/kg of sodium chloride	Solid-liquid equilibrium temperature, K	uncertainty
0.373	5.027	299.2	2.5
0.373	5.045	301.3	2.5
0.373	5.084	306.7	2.5
0.373	5.12	312.5	2.5
0.373	5.252	330.4	2.5
0.555	4.474	298	2.5
0.555	4.53	305.6	2.5
0.555	4.597	311.6	2.5
0.555	4.602	314.8	2.5
0.555	4.68	323.2	2.5
0.555	4.733	330.8	2.5
0.555	4.754	332.6	2.5
0.75	3.912	299	2.5
0.75	3.984	306.5	2.5
0.75	4.016	311.3	2.5
0.75	4.063	316.7	2.5
0.75	4.104	320.2	2.5
0.75	4.151	326	2.5
0.75	4.192	330.4	2.5
0.984	3.292	299	2.5
0.984	3.329	303.7	2.5
0.984	3.389	310.7	2.5
0.984	3.434	316.7	2.5
0.984	3.488	321.8	2.5
0.984	3.528	326	2.5
1.13	2.885	298.7	2.5
1.13	2.923	300.7	2.5
1.13	2.938	304.6	2.5
1.13	3.114	322.3	2.5
1.13	3.163	326.5	2.5
1.13	3.168	329.5	2.5
1.13	3.249	335	2.5
1.14	2.903	302	2.5
1.14	2.946	307.5	2.5
1.14	3.018	314.6	2.5
1.51	1.959	296.9	2.5
1.51	2.054	307.9	2.5
1.51	2.117	313.3	2.5
1.51	2.179	319.1	2.5
1.51	2.245	323.2	2.5
1.51	2.297	328.9	2.5
1.51	2.355	336.1	2.5
1.88	1.135	295.1	2.5
1.88	1.158	297.8	2.5
1.88	1.284	307.9	2.5
1.88	1.369	316.4	2.5
1.88	1.457	325.6	2.5
1.88	1.544	332.8	2.5
1.89	1.163	300.1	2.5
1.89	1.285	310.3	2.5
1.89	1.332	317.2	2.5
1.89	1.366	319.2	2.5
1.89	1.43	326.3	2.5
2.25	0.733	296.2	2.5
2.25	0.803	301.5	2.5
2.25	0.866	309.8	2.5
2.25	0.922	316.4	2.5
2.25	0.996	325.8	2.5
2.79	0.306	300.8	2.5
2.79	0.343	304.8	2.5
2.79	0.372	310.1	2.5
2.79	0.451	321.5	2.5
2.79	0.493	327.9	2.5
2.79	0.51	333.9	2.5
2.97	0.212	299.5	2.5
2.97	0.282	306.7	2.5
2.97	0.312	313.9	2.5
2.97	0.342	320	2.5
2.97	0.37	325.1	2.5
2.97	0.408	332.5	2.5
3.28	0.24	319.5	2.5
3.28	0.297	333.5	2.5

System: aluminum chloride + sodium chloride + water; phases: Liquid, Crystal of intercomponent compound 1
Fixed: Pressure, kPa = 101
Property: Solid-liquid equilibrium temperature, K (Liquid); method: VISOBS:UFactor:32
Molality, mol/kg of sodium chloride	Molality, mol/kg of aluminum chloride	Solid-liquid equilibrium temperature, K	uncertainty
0.084	3.39	323.2	5
0.084	3.43	333.4	5
0.085	3.36	313.2	5
0.086	3.28	298.1	5
0.091	3.36	313.3	5
0.092	3.3	298.1	5
0.092	3.31	303.2	5
0.134	3.44	333.1	5
0.136	3.33	313.1	5
0.137	3.29	303.5	5
0.138	3.26	298.2	5
0.169	3.31	310.9	5
0.19	3.3	311.3	5
0.19	3.34	323.2	5
0.21	3.31	322.9	5
0.23	3.41	333.2	5

System: aluminum chloride + potassium chloride + water; phases: Liquid, Crystal, Crystal
Fixed: Pressure, kPa = 101
Property: Molality, mol/kg of aluminum chloride (Liquid); method: titration
Temperature, K	Molality, mol/kg of aluminum chloride	uncertainty
298.1	3.12	0.05
303.4	3.12	0.05
313.2	3.13	0.05
323.1	3.14	0.05
333.3	3.17	0.05

System: aluminum chloride + potassium chloride + water; phases: Liquid, Crystal, Crystal
Fixed: Pressure, kPa = 101
Property: Molality, mol/kg of potassium chloride (Liquid); method: visual polythermal method
Temperature, K	Molality, mol/kg of potassium chloride	uncertainty
298.1	0.566	0.005
303.4	0.563	0.005
313.2	0.592	0.005
323.1	0.751	0.007
333.3	0.96	0.009

System: aluminum chloride + potassium chloride + water; phases: Liquid, Crystal
Fixed: Pressure, kPa = 101
Property: Solid-liquid equilibrium temperature, K (Liquid); method: VISOBS:UFactor:16
Molality, mol/kg of aluminum chloride	Molality, mol/kg of potassium chloride	Solid-liquid equilibrium temperature, K	uncertainty
0.375	3.93	298.5	2.5
0.375	4.057	304.9	2.5
0.375	4.284	311.1	2.5
0.375	4.642	320.3	2.5
0.375	4.784	324.8	2.5
0.375	5.093	335.2	2.5
0.375	5.227	338.3	2.5
0.749	3.032	298.9	2.5
0.749	3.208	306.6	2.5
0.749	3.629	319	2.5
0.749	3.897	326.7	2.5
0.749	4.18	334.6	2.5
0.749	4.416	341.1	2.5
1.13	2.116	297.5	2.5
1.13	2.305	305	2.5
1.13	2.586	312.4	2.5
1.13	2.736	316.8	2.5
1.13	2.94	323.5	2.5
1.13	3.246	331.7	2.5
1.39	1.502	296.2	2.5
1.39	1.561	299	2.5
1.39	1.745	306.2	2.5
1.39	2.123	316.3	2.5
1.39	2.254	320.8	2.5
1.39	2.555	329.6	2.5
1.49	1.541	303.2	2.5
1.49	1.809	312.5	2.5
1.88	0.704	297.6	2.5
1.88	0.797	299.6	2.5
1.88	0.919	304.2	2.5
1.88	0.934	305.1	2.5
1.88	1.131	311	2.5
1.88	1.163	312.9	2.5
1.88	1.468	322	2.5
1.88	1.615	325.3	2.5
1.88	1.721	330.8	2.5
1.88	1.866	334.7	2.5
1.88	1.978	337.8	2.5
2.14	0.819	303.9	2.5
2.14	1.16	320.4	2.5
2.14	1.254	325.2	2.5
2.14	1.36	329	2.5
2.24	0.671	298.1	2.5
2.24	0.737	301	2.5
2.24	0.872	308.4	2.5
2.24	1.008	315.4	2.5
2.24	1.22	326.4	2.5
2.53	0.712	303.1	2.5
2.53	0.859	312.7	2.5
2.53	0.958	318.2	2.5
2.53	1.157	327.6	2.5
2.7	0.709	308.6	2.5
2.7	0.864	317.7	2.5
2.7	1.072	329.5	2.5
2.71	0.564	297.3	2.5
2.71	0.693	306.7	2.5
2.71	0.911	320.3	2.5
2.71	1.003	325.8	2.5
2.71	1.183	335	2.5
2.96	0.564	302.1	2.5
2.96	0.808	322.8	2.5
2.96	0.999	335.2	2.5
2.99	0.553	301.3	2.5
2.99	0.612	306.8	2.5
2.99	0.68	311	2.5
2.99	0.759	317.8	2.5
2.99	0.947	330.9	2.5
2.99	1.034	336	2.5
3.13	0.567	309.7	2.5
3.13	0.571	311.8	2.5
3.13	0.638	316.8	2.5
3.13	0.705	319.8	2.5
3.13	0.805	327.4	2.5
3.13	1.011	336.5	2.5

System: aluminum chloride + potassium chloride + water; phases: Liquid, Crystal of intercomponent compound 1
Fixed: Pressure, kPa = 101
Property: Solid-liquid equilibrium temperature, K (Liquid); method: VISOBS:UFactor:32
Molality, mol/kg of potassium chloride	Molality, mol/kg of aluminum chloride	Solid-liquid equilibrium temperature, K	uncertainty
0.189	3.43	333.1	5
0.19	3.38	303.2	5
0.19	3.4	323.2	5
0.191	3.33	298.2	5
0.253	3.39	323.2	5
0.255	3.36	303.3	5
0.256	3.25	298.1	5
0.384	3.4	333.4	5
0.393	3.23	297.8	5
0.461	3.38	333.3	5
0.466	3.31	323.3	5
0.472	3.29	304.8	5
0.475	3.2	298	5
0.653	3.21	323.1	5
0.797	3.28	332.8	5
0.914	3.23	336.5	5

System: potassium chloride + lithium chloride + water; phases: Liquid, Crystal of intercomponent compound 1, Crystal
Fixed: Pressure, kPa = 101
Property: Molality, mol/kg of potassium chloride (Liquid); method: visual polythermal method
Temperature, K	Molality, mol/kg of potassium chloride	uncertainty
298.2	0.87	0.04
303.2	0.98	0.04
313.1	1.22	0.04
323.1	1.42	0.04
333	1.72	0.04

System: potassium chloride + lithium chloride + water; phases: Liquid, Crystal of intercomponent compound 1, Crystal
Fixed: Pressure, kPa = 101
Property: Molality, mol/kg of lithium chloride (Liquid); method: visual polythermal method
Temperature, K	Molality, mol/kg of lithium chloride	uncertainty
298.2	19.7	0.6
303.2	20.7	0.6
313.1	21	0.6
323.1	21.9	0.6
333	23.2	0.6

System: potassium chloride + lithium chloride + water; phases: Liquid, Crystal
Fixed: Pressure, kPa = 101
Property: Solid-liquid equilibrium temperature, K (Liquid); method: VISOBS:UFactor:16
Molality, mol/kg of lithium chloride	Molality, mol/kg of potassium chloride	Solid-liquid equilibrium temperature, K	uncertainty
1	3.982	298.3	2.5
1	4.158	302.6	2.5
1	4.367	308.2	2.5
1	4.538	312.3	2.5
1	4.712	316.8	2.5
1	4.874	322.2	2.5
1.97	3.122	293	2.5
1.97	3.346	298.4	2.5
1.97	3.528	303.7	2.5
1.97	3.682	308.6	2.5
1.97	3.886	313.7	2.5
1.97	4.018	318.3	2.5
1.97	4.211	323.5	2.5
1.97	4.583	332.9	2.5
3.93	2.089	297.2	2.5
3.93	2.206	301.4	2.5
3.93	2.417	308.2	2.5
3.93	2.601	313.5	2.5
3.93	2.748	318	2.5
3.93	2.94	324.1	2.5
5.94	1.286	296.4	2.5
5.94	1.448	304.5	2.5
5.94	1.522	308.6	2.5
5.94	1.66	313.7	2.5
5.94	1.788	318.6	2.5
5.94	1.881	323.1	2.5
5.94	2.029	329.1	2.5
5.94	2.163	333.9	2.5
7.05	0.994	297.6	2.5
7.05	1.11	303.3	2.5
7.05	1.19	308.2	2.5
7.05	1.312	312.7	2.5
7.05	1.575	324.1	2.5
7.05	1.745	332.8	2.5
9.32	0.65	296.9	2.5
9.32	0.718	301.4	2.5
9.32	0.823	310.1	2.5
9.32	0.931	315.1	2.5
9.32	1.063	322.4	2.5
9.32	1.168	327	2.5
9.32	1.368	335.5	2.5
10.61	0.555	298.8	2.5
10.61	0.62	303.5	2.5
10.61	0.736	308.5	2.5
10.61	0.77	312.5	2.5
10.61	0.917	318.7	2.5
10.61	0.954	323.5	2.5
10.61	1.08	328.6	2.5
12.7	0.477	295	2.5
12.7	0.489	298.5	2.5
12.7	0.534	300	2.5
12.7	0.589	303.2	2.5
12.7	0.786	318	2.5
12.7	0.93	324	2.5
12.7	0.946	327.2	2.5
12.7	1.074	332.1	2.5
13.1	0.475	294.7	2.5
13.1	0.564	302.5	2.5
13.1	0.67	312.3	2.5
13.1	0.781	319.5	2.5
13.1	0.874	324.5	2.5
13.1	1.019	331.9	2.5
14.1	0.516	300	2.5
14.1	0.855	323.3	2.5
14.1	0.907	325.9	2.5
14.1	0.961	329.4	2.5
15.5	0.555	301.2	2.5
15.5	0.698	308.4	2.5
15.5	0.862	317.4	2.5
15.5	0.955	324.7	2.5
15.5	1.021	326.9	2.5
15.5	1.047	329.8	2.5
16.8	0.539	294	2.5
16.8	0.681	305	2.5
16.8	0.735	308.9	2.5
16.8	0.83	314.1	2.5
16.8	0.952	323.7	2.5
16.8	1.132	332.8	2.5
17.5	0.56	293.5	2.5
17.5	0.606	297	2.5
17.5	0.672	299.8	2.5
17.5	0.676	301.3	2.5
17.5	0.694	302.5	2.5
17.5	0.805	307.8	2.5
17.5	0.872	313.5	2.5
17.5	0.914	316	2.5
17.5	0.939	317.4	2.5
17.5	1.041	323.7	2.5
17.5	1.089	326.7	2.5
17.5	1.144	330.1	2.5
17.5	1.209	332.8	2.5
18.8	0.672	298.5	2.5
18.8	0.739	302.1	2.5
18.8	0.874	309.3	2.5
18.8	1.006	316.4	2.5
18.8	1.153	324	2.5
18.8	1.275	332.2	2.5

System: lithium chloride + sodium chloride + water; phases: Liquid, Crystal, Crystal of intercomponent compound 1
Fixed: Pressure, kPa = 101
Property: Molality, mol/kg of lithium chloride (Liquid); method: visual polythermal method
Temperature, K	Molality, mol/kg of lithium chloride	uncertainty
298.2	19.8	0.6
303.9	20.5	0.6
313.1	21.1	0.6
323.1	22	0.6
333	23.7	0.6

System: lithium chloride + sodium chloride + water; phases: Liquid, Crystal, Crystal of intercomponent compound 1
Fixed: Pressure, kPa = 101
Property: Molality, mol/kg of sodium chloride (Liquid); method: visual polythermal method
Temperature, K	Molality, mol/kg of sodium chloride	uncertainty
298.2	0.034	0.012
303.9	0.043	0.012
313.1	0.058	0.012
323.1	0.081	0.012
333	0.11	0.012

System: lithium chloride + sodium chloride + water; phases: Liquid, Crystal
Fixed: Pressure, kPa = 101
Property: Solid-liquid equilibrium temperature, K (Liquid); method: VISOBS:UFactor:16
Molality, mol/kg of lithium chloride	Molality, mol/kg of sodium chloride	Solid-liquid equilibrium temperature, K	uncertainty
1.09	5.151	293.1	2.5
1.09	5.182	300.6	2.5
1.09	5.262	308	2.5
1.09	5.324	318.7	2.5
1.09	5.354	323.6	2.5
1.09	5.416	332.4	2.5
1.97	4.239	293.8	2.5
1.97	4.286	297.8	2.5
1.97	4.329	303.4	2.5
1.97	4.375	309.4	2.5
1.97	4.43	314.6	2.5
1.97	4.447	317.1	2.5
1.97	4.452	318	2.5
1.97	4.492	327.2	2.5
1.97	4.501	322.7	2.5
1.97	4.546	328.8	2.5
1.97	4.596	333.3	2.5
3.91	2.546	294.8	2.5
3.91	2.623	300	2.5
3.91	2.694	308.3	2.5
3.91	2.807	319.7	2.5
3.91	2.862	326.1	2.5
3.91	2.952	334.4	2.5
3.91	3.04	341	2.5
5.8	1.372	293.8	2.5
5.8	1.398	298	2.5
5.8	1.448	303.1	2.5
5.8	1.515	308	2.5
5.8	1.599	318.7	2.5
5.8	1.65	323.6	2.5
5.8	1.694	328	2.5
5.8	1.746	332.6	2.5
9.67	0.342	297.6	2.5
9.67	0.386	306.3	2.5
9.67	0.428	315.8	2.5
9.67	0.501	323.6	2.5
9.67	0.532	332.8	2.5
10.61	0.239	298.5	2.5
10.61	0.25	306	2.5
10.61	0.298	314.5	2.5
10.61	0.319	323.4	2.5
10.61	0.328	319.2	2.5
10.61	0.335	327.9	2.5
10.61	0.386	333.2	2.5
11.75	0.152	298.8	2.5
11.75	0.18	306.4	2.5
11.75	0.207	314.2	2.5
11.75	0.231	320.5	2.5
11.75	0.256	327.6	2.5
11.75	0.283	332.8	2.5
12.7	0.086	295.7	2.5
12.7	0.109	303.7	2.5
12.7	0.154	319.6	2.5
14.2	0.059	299.1	2.5
14.2	0.086	304.7	2.5
14.2	0.097	314.3	2.5
14.2	0.112	322.3	2.5
14.2	0.145	331.2	2.5
14.2	0.168	337.1	2.5
16.6	0.047	305.5	2.5
16.6	0.052	312.1	2.5
16.6	0.071	316.4	2.5
17.5	0.043	299.8	2.5
17.5	0.052	312	2.5
17.5	0.086	320.7	2.5
17.5	0.11	326.9	2.5
17.5	0.135	333.6	2.5
19.1	0.033	297.8	2.5
19.1	0.045	304.1	2.5
19.1	0.057	311.8	2.5
19.1	0.068	317.3	2.5
19.1	0.116	332.5	2.5

System: potassium chloride + water + ammonium chloride (NH4Cl); phases: Liquid, Crystal, Crystal
Fixed: Pressure, kPa = 101
Property: Molality, mol/kg of potassium chloride (Liquid); method: visual polythermal method
Temperature, K	Molality, mol/kg of potassium chloride	uncertainty
298.2	2.23	0.05
303.2	2.25	0.05
313.1	2.32	0.05
323	2.4	0.05
332.9	2.43	0.05

System: potassium chloride + water + ammonium chloride (NH4Cl); phases: Liquid, Crystal, Crystal
Fixed: Pressure, kPa = 101
Property: Molality, mol/kg of ammonium chloride (NH4Cl) (Liquid); method: visual polythermal method
Temperature, K	Molality, mol/kg of ammonium chloride (NH4Cl)	uncertainty
298.2	5.75	0.3
303.2	6.29	0.3
313.1	6.82	0.3
323	7.81	0.3
332.9	8.82	0.3

System: potassium chloride + water + ammonium chloride (NH4Cl); phases: Liquid, Crystal
Fixed: Pressure, kPa = 101
Property: Solid-liquid equilibrium temperature, K (Liquid); method: VISOBS:UFactor:16
Molality, mol/kg of potassium chloride	Molality, mol/kg of ammonium chloride (NH4Cl)	Solid-liquid equilibrium temperature, K	uncertainty
0	6.9892	293.4	2.5
0	7.3294	297.8	2.5
0	7.7347	303.2	2.5
0	8.0965	307.6	2.5
0	8.5132	313.3	2.5
0	8.972	318.8	2.5
0	9.4391	323.7	2.5
0	9.8405	329.1	2.5
0	10.2266	333.4	2.5
0	10.771	340.2	2.5
0.5365	6.8582	296.5	2.5
0.5365	7.284	301.9	2.5
0.5365	7.6556	307	2.5
0.5365	8.539	317.8	2.5
0.5365	8.9346	322.6	2.5
0.5365	9.0537	323.9	2.5
0.5365	9.737	331.9	2.5
1.0075	6.5678	297.7	2.5
1.0075	7.0475	302.5	2.5
1.0075	7.6012	309.8	2.5
1.0075	8.4156	320	2.5
1.0075	8.8645	325	2.5
1.0075	9.4698	332.2	2.5
1.3427	6.5895	298.8	2.5
1.3427	6.9349	303.4	2.5
1.3427	7.4937	310.9	2.5
1.3427	7.7777	315.4	2.5
1.3427	8.2842	320.7	2.5
1.3427	8.9215	328.4	2.5
1.3427	9.2733	332.3	2.5
2.144	6.1913	301.7	2.5
2.144	6.5592	306.6	2.5
2.144	7.2697	314.9	2.5
2.144	7.4995	318	2.5
2.144	8.0202	324.2	2.5
2.144	8.758	331.5	2.5

System: potassium chloride + water + ammonium chloride (NH4Cl); phases: Liquid, Crystal
Fixed: Pressure, kPa = 101
Property: Solid-liquid equilibrium temperature, K (Liquid); method: VISOBS:UFactor:16
Molality, mol/kg of ammonium chloride (NH4Cl)	Molality, mol/kg of potassium chloride	Solid-liquid equilibrium temperature, K	uncertainty
0.9348	4.319	296.8	2.5
0.9348	4.3804	300.6	2.5
0.9348	4.5432	304.7	2.5
0.9348	4.7676	310.4	2.5
0.9348	5.0708	318.2	2.5
0.9348	5.3188	324.5	2.5
0.9348	5.3763	326	2.5
0.9348	5.4689	328.6	2.5
1.8704	3.8419	298.5	2.5
1.8704	4.0586	304.4	2.5
1.8704	4.5711	317.3	2.5
1.8704	4.9869	328.2	2.5
1.8704	5.2466	335.1	2.5
2.8058	3.4264	297.4	2.5
2.8058	3.5405	300.6	2.5
2.8058	3.6975	305.7	2.5
2.8058	3.901	311.4	2.5
2.8058	4.1483	317.8	2.5
2.8058	4.4936	326.6	2.5
2.8058	4.7589	333.5	2.5
4.6749	2.6741	298.4	2.5
4.6749	2.8415	303.4	2.5
4.6749	3.0975	311.1	2.5
4.6749	3.229	313.6	2.5
4.6749	3.6304	325.4	2.5
4.6749	3.9291	334	2.5
6.0744	2.3228	304.6	2.5
6.0744	2.5174	310.2	2.5
6.0744	2.6793	314.1	2.5
6.0744	2.8573	320	2.5
6.0744	3.0849	324.5	2.5
6.0744	3.1766	328.2	2.5
6.0744	3.4402	334.9	2.5

System: sodium chloride + water + ammonium chloride (NH4Cl); phases: Liquid, Crystal, Crystal
Fixed: Pressure, kPa = 101
Property: Molality, mol/kg of sodium chloride (Liquid); method: visual polythermal method
Temperature, K	Molality, mol/kg of sodium chloride	uncertainty
298.2	4.3	0.1
313.1	4.1	0.1
332.9	3.9	0.1

System: sodium chloride + water + ammonium chloride (NH4Cl); phases: Liquid, Crystal, Crystal
Fixed: Pressure, kPa = 101
Property: Molality, mol/kg of ammonium chloride (NH4Cl) (Liquid); method: visual polythermal method
Temperature, K	Molality, mol/kg of ammonium chloride (NH4Cl)	uncertainty
298.2	4.35	0.08
313.1	5.41	0.08
332.9	7.09	0.08

System: sodium chloride + water + ammonium chloride (NH4Cl); phases: Liquid, Crystal
Fixed: Pressure, kPa = 101
Property: Solid-liquid equilibrium temperature, K (Liquid); method: VISOBS:UFactor:16
Molality, mol/kg of sodium chloride	Molality, mol/kg of ammonium chloride (NH4Cl)	Solid-liquid equilibrium temperature, K	uncertainty
0.4277	6.8847	296.9	2.5
0.4277	7.3404	302.4	2.5
0.4277	7.7469	308.3	2.5
0.4277	8.1279	312.9	2.5
0.4277	8.5773	318.1	2.5
0.4277	9.0787	324.3	2.5
0.4277	9.7972	332.4	2.5
0.8556	6.3285	293.2	2.5
0.8556	6.6476	297.6	2.5
0.8556	7.1458	304.2	2.5
0.8556	7.5412	309	2.5
0.8556	8.1292	316.4	2.5
0.8556	8.6814	323.1	2.5
0.8556	9.1823	329.6	2.5
0.8556	9.4567	332.7	2.5
1.7109	6.0686	297.5	2.5
1.7109	6.4279	302.6	2.5
1.7109	6.7955	307.3	2.5
1.7109	7.1862	312.6	2.5
1.7109	8.0166	322.8	2.5
1.7109	8.3862	327.8	2.5
1.7109	8.7414	331.7	2.5
2.566	5.5967	299.4	2.5
2.566	5.8736	302.9	2.5
2.566	6.2632	308.7	2.5
2.566	6.6076	313	2.5
2.566	6.8809	316.4	2.5
2.566	7.4113	323.3	2.5
2.566	7.8215	328.7	2.5
2.566	8.1333	332.4	2.5
3.4224	5.0694	299.6	2.5
3.4224	5.5586	306.9	2.5
3.4224	6.1071	314.4	2.5
3.4224	7.0671	327	2.5
3.4224	7.6268	334.3	2.5
3.8154	4.7001	297.6	2.5
3.8154	5.1011	303.9	2.5
3.8154	5.6177	311.3	2.5
3.8154	6.1004	317.8	2.5
3.8154	7.1196	331.5	2.5

System: sodium chloride + water + ammonium chloride (NH4Cl); phases: Liquid, Crystal
Fixed: Pressure, kPa = 101
Property: Solid-liquid equilibrium temperature, K (Liquid); method: VISOBS:UFactor:16
Molality, mol/kg of ammonium chloride (NH4Cl)	Molality, mol/kg of sodium chloride	Solid-liquid equilibrium temperature, K	uncertainty
0.9346	5.7499	297.5	2.5
0.9346	5.7766	302	2.5
0.9346	5.8248	309.1	2.5
0.9346	5.8505	315	2.5
0.9346	5.9642	322.9	2.5
0.9346	6.0024	329.3	2.5
0.9346	6.0243	332.3	2.5
1.8697	5.349	295.5	2.5
1.8697	5.3728	300.2	2.5
1.8697	5.4015	304.7	2.5
1.8697	5.4306	311.7	2.5
1.8697	5.5124	314.4	2.5
1.8697	5.5507	321.7	2.5
1.8697	5.5831	326.8	2.5
1.8697	5.6322	333.1	2.5
2.8038	4.9531	291.5	2.5
2.8038	4.9825	298.7	2.5
2.8038	5.0238	305.6	2.5
2.8038	5.0684	312.2	2.5
2.8038	5.169	317.9	2.5
2.8038	5.2103	322.2	2.5
2.8038	5.257	328.1	2.5
2.8038	5.3073	332.3	2.5
3.739	4.6257	297.4	2.5
3.739	4.6669	304.3	2.5
3.739	4.7092	310.8	2.5
3.739	4.766	317.2	2.5
3.739	4.8825	325.3	2.5
3.739	4.9805	333.6	2.5
4.6749	4.3868	310.4	2.5
4.6749	4.4265	315.6	2.5
4.6749	4.5487	324	2.5
4.6749	4.6323	334.1	2.5
5.6068	4.1521	315.8	2.5
5.6068	4.2051	321.4	2.5
5.6068	4.3085	327.1	2.5
5.6068	4.3254	332.7	2.5
6.5423	3.9579	326.2	2.5
6.5423	4.0275	331.4	2.5
6.5423	4.0678	335.6	2.5
