Measured thermophysical data. Thermodynamic Properties of Mixtures Containing Ionic Liquids. 9. Activity Coefficients at Infinite Dilution of Hydrocarbons, Alcohols, Esters, and Aldehydes in Trimethyl-butylammonium Bis(trifluoromethylsulfonyl) Imide Using Gas-Liquid Chromatography and Static Method
Source: J. Chem. Eng. Data, 2006, 10.1021/je050440b
Compound 1: butanal, C4H8O, InChI=1S/C4H8O/c1-2-3-4-5/h4H,2-3H2,1H3, purity 99.9%
Compound 2: pentanal, C5H10O, InChI=1S/C5H10O/c1-2-3-4-5-6/h5H,2-4H2,1H3, purity 99.9%
Compound 3: hexanal, C6H12O, InChI=1S/C6H12O/c1-2-3-4-5-6-7/h6H,2-5H2,1H3, purity 99.9%
Compound 4: heptanal, C7H14O, InChI=1S/C7H14O/c1-2-3-4-5-6-7-8/h7H,2-6H2,1H3, purity 99.9%
Compound 5: octanal, C8H16O, InChI=1S/C8H16O/c1-2-3-4-5-6-7-8-9/h8H,2-7H2,1H3, purity 99.9%
Compound 6: methyl propanoate, C4H8O2, InChI=1S/C4H8O2/c1-3-4(5)6-2/h3H2,1-2H3, purity 99.9%
Compound 7: methyl butanoate, C5H10O2, InChI=1S/C5H10O2/c1-3-4-5(6)7-2/h3-4H2,1-2H3, purity 99.9%
Compound 8: methyl pentanoate, C6H12O2, InChI=1S/C6H12O2/c1-3-4-5-6(7)8-2/h3-5H2,1-2H3, purity 99.9%
Compound 9: methyl hexanoate, C7H14O2, InChI=1S/C7H14O2/c1-3-4-5-6-7(8)9-2/h3-6H2,1-2H3, purity 99.9%
Compound 10: methyl heptanoate, C8H16O2, InChI=1S/C8H16O2/c1-3-4-5-6-7-8(9)10-2/h3-7H2,1-2H3, purity 99.9%
Compound 11: acetone, C3H6O, InChI=1S/C3H6O/c1-3(2)4/h1-2H3, purity 99.9%
Compound 12: acetonitrile, C2H3N, InChI=1S/C2H3N/c1-2-3/h1H3, purity 99.9%
Compound 13: 1,4-dioxane, C4H8O2, InChI=1S/C4H8O2/c1-2-6-4-3-5-1/h1-4H2, purity 99.9%
Compound 14: trichloromethane, CHCl3, InChI=1S/CHCl3/c2-1(3)4/h1H, purity 99.9%
Compound 15: N-methylpyrrolidone, C5H9NO, InChI=1S/C5H9NO/c1-6-4-2-3-5(6)7/h2-4H2,1H3, purity 99.9%
Compound 16: butyltrimethylammonium bis(trifluoromethylsulfonyl)imide, C9H18F6N2O4S2, InChI=1S/C7H18N.C2F6NO4S2/c1-5-6-7-8(2,3)4;3-1(4,5)14(10,11)9-15(12,13)2(6,7)8/h5-7H2,1-4H3;/q+1;-1
Compound 17: pentane, C5H12, InChI=1S/C5H12/c1-3-5-4-2/h3-5H2,1-2H3, purity 99.9%
Compound 18: hexane, C6H14, InChI=1S/C6H14/c1-3-5-6-4-2/h3-6H2,1-2H3, purity 99.9%
Compound 19: heptane, C7H16, InChI=1S/C7H16/c1-3-5-7-6-4-2/h3-7H2,1-2H3, purity 99.9%
Compound 20: octane, C8H18, InChI=1S/C8H18/c1-3-5-7-8-6-4-2/h3-8H2,1-2H3, purity 99.9%
Compound 21: nonane, C9H20, InChI=1S/C9H20/c1-3-5-7-9-8-6-4-2/h3-9H2,1-2H3, purity 99.9%
Compound 22: decane, C10H22, InChI=1S/C10H22/c1-3-5-7-9-10-8-6-4-2/h3-10H2,1-2H3, purity 99.9%
Compound 23: undecane, C11H24, InChI=1S/C11H24/c1-3-5-7-9-11-10-8-6-4-2/h3-11H2,1-2H3, purity 99.9%
Compound 24: dodecane, C12H26, InChI=1S/C12H26/c1-3-5-7-9-11-12-10-8-6-4-2/h3-12H2,1-2H3, purity 99.9%
Compound 25: 1-pentene, C5H10, InChI=1S/C5H10/c1-3-5-4-2/h3H,1,4-5H2,2H3, purity 99.9%
Compound 26: hex-1-ene, C6H12, InChI=1S/C6H12/c1-3-5-6-4-2/h3H,1,4-6H2,2H3, purity 99.9%
Compound 27: hexan-1-ol, C6H14O, InChI=1S/C6H14O/c1-2-3-4-5-6-7/h7H,2-6H2,1H3, purity 99.9%
Compound 28: 1-heptene, C7H14, InChI=1S/C7H14/c1-3-5-7-6-4-2/h3H,1,4-7H2,2H3, purity 99.9%
Compound 29: oct-1-ene, C8H16, InChI=1S/C8H16/c1-3-5-7-8-6-4-2/h3H,1,4-8H2,2H3, purity 99.9%
Compound 30: 1-nonene, C9H18, InChI=1S/C9H18/c1-3-5-7-9-8-6-4-2/h3H,1,4-9H2,2H3, purity 99.9%
Compound 31: 1-decene, C10H20, InChI=1S/C10H20/c1-3-5-7-9-10-8-6-4-2/h3H,1,4-10H2,2H3, purity 99.9%
Compound 32: heptan-1-ol, C7H16O, InChI=1S/C7H16O/c1-2-3-4-5-6-7-8/h8H,2-7H2,1H3, purity 99.9%
Compound 33: 1-undecene, C11H22, InChI=1S/C11H22/c1-3-5-7-9-11-10-8-6-4-2/h3H,1,4-11H2,2H3, purity 99.9%
Compound 34: 1-dodecene, C12H24, InChI=1S/C12H24/c1-3-5-7-9-11-12-10-8-6-4-2/h3H,1,4-12H2,2H3, purity 99.9%
Compound 35: cyclohexane, C6H12, InChI=1S/C6H12/c1-2-4-6-5-3-1/h1-6H2, purity 99.9%
Compound 36: propan-2-ol, C3H8O, InChI=1S/C3H8O/c1-3(2)4/h3-4H,1-2H3, purity 99.9%
Compound 37: 2-methyl-1-propanol, C4H10O, InChI=1S/C4H10O/c1-4(2)3-5/h4-5H,3H2,1-2H3, purity 99.9%
Compound 38: cyclohexene, C6H10, InChI=1S/C6H10/c1-2-4-6-5-3-1/h1-2H,3-6H2, purity 99.9%
Compound 39: butan-2-ol, C4H10O, InChI=1S/C4H10O/c1-3-4(2)5/h4-5H,3H2,1-2H3, purity 99.9%
Compound 40: 1,3-cyclohexadiene, C6H8, InChI=1S/C6H8/c1-2-4-6-5-3-1/h1-4H,5-6H2, purity 99.9%
Compound 41: methanol, CH4O, InChI=1S/CH4O/c1-2/h2H,1H3, purity 99.9%
Compound 42: 2-methylpropan-2-ol, C4H10O, InChI=1S/C4H10O/c1-4(2,3)5/h5H,1-3H3, purity 99.9%
Compound 43: cyclohexanol, C6H12O, InChI=1S/C6H12O/c7-6-4-2-1-3-5-6/h6-7H,1-5H2, purity 99.9%
Compound 44: ethanol, C2H6O, InChI=1S/C2H6O/c1-2-3/h3H,2H2,1H3, purity 99.9%
Compound 45: benzene, C6H6, InChI=1S/C6H6/c1-2-4-6-5-3-1/h1-6H, purity 99.9%
Compound 46: toluene, C7H8, InChI=1S/C7H8/c1-7-5-3-2-4-6-7/h2-6H,1H3, purity 99.9%
Compound 47: propan-1-ol, C3H8O, InChI=1S/C3H8O/c1-2-3-4/h4H,2-3H2,1H3, purity 99.9%
Compound 48: butan-1-ol, C4H10O, InChI=1S/C4H10O/c1-2-3-4-5/h5H,2-4H2,1H3, purity 99.9%
Compound 49: ethylbenzene, C8H10, InChI=1S/C8H10/c1-2-8-6-4-3-5-7-8/h3-7H,2H2,1H3, purity 99.9%
Compound 50: propylbenzene, C9H12, InChI=1S/C9H12/c1-2-6-9-7-4-3-5-8-9/h3-5,7-8H,2,6H2,1H3, purity 99.9%
Compound 51: butylbenzene, C10H14, InChI=1S/C10H14/c1-2-3-7-10-8-5-4-6-9-10/h4-6,8-9H,2-3,7H2,1H3, purity 99.9%
Compound 52: pentylbenzene, C11H16, InChI=1S/C11H16/c1-2-3-5-8-11-9-6-4-7-10-11/h4,6-7,9-10H,2-3,5,8H2,1H3, purity 99.9%
Compound 53: propanal, C3H6O, InChI=1S/C3H6O/c1-2-3-4/h3H,2H2,1H3, purity 99.9%
Compound 54: pentan-1-ol, C5H12O, InChI=1S/C5H12O/c1-2-3-4-5-6/h6H,2-5H2,1H3, purity 99.9%
Compound 55: dimethylformamide, C3H7NO, InChI=1S/C3H7NO/c1-4(2)3-5/h3H,1-2H3, purity 99.9%
Compound 56: 2-methylbutan-2-ol, C5H12O, InChI=1S/C5H12O/c1-4-5(2,3)6/h6H,4H2,1-3H3, purity 99.9%

System: methyl butanoate + butyltrimethylammonium bis(trifluoromethylsulfonyl)imide; phases: Liquid, Gas
Fixed: Mole fraction of methyl butanoate = 0
Property: Activity coefficient of methyl butanoate (Liquid); method: Chromatography
Temperature, K	Activity coefficient of methyl butanoate	uncertainty
311.65	1.31	0.09
333.15	1.26	0.08
364.45	1.2	0.08

System: methyl hexanoate + butyltrimethylammonium bis(trifluoromethylsulfonyl)imide; phases: Liquid, Gas
Fixed: Mole fraction of methyl hexanoate = 0
Property: Activity coefficient of methyl hexanoate (Liquid); method: Chromatography
Temperature, K	Activity coefficient of methyl hexanoate	uncertainty
343.65	2.43	0.17
354.05	2.33	0.16
364.55	2.19	0.15
374.95	2.08	0.14

System: methyl heptanoate + butyltrimethylammonium bis(trifluoromethylsulfonyl)imide; phases: Liquid, Gas
Fixed: Mole fraction of methyl heptanoate = 0
Property: Activity coefficient of methyl heptanoate (Liquid); method: Chromatography
Temperature, K	Activity coefficient of methyl heptanoate	uncertainty
343.55	3.18	0.22
354.05	3.01	0.2
364.55	2.81	0.19
374.95	2.64	0.18
385.45	2.43	0.17

System: acetone + butyltrimethylammonium bis(trifluoromethylsulfonyl)imide; phases: Liquid, Gas
Fixed: Mole fraction of acetone = 0
Property: Activity coefficient of acetone (Liquid); method: Chromatography
Temperature, K	Activity coefficient of acetone	uncertainty
301.85	0.42	0.04
312.45	0.42	0.04
343.75	0.4	0.03

System: acetonitrile + butyltrimethylammonium bis(trifluoromethylsulfonyl)imide; phases: Liquid, Gas
Fixed: Mole fraction of acetonitrile = 0
Property: Activity coefficient of acetonitrile (Liquid); method: Chromatography
Temperature, K	Activity coefficient of acetonitrile	uncertainty
301.75	0.52	0.04
312.45	0.5	0.04
322.95	0.49	0.04
333.35	0.47	0.04
343.75	0.46	0.04

System: trichloromethane + butyltrimethylammonium bis(trifluoromethylsulfonyl)imide; phases: Liquid, Gas
Fixed: Mole fraction of trichloromethane = 0
Property: Activity coefficient of trichloromethane (Liquid); method: Chromatography
Temperature, K	Activity coefficient of trichloromethane	uncertainty
301.75	1.03	0.06
312.15	1.04	0.07
333.25	1.04	0.07

System: N-methylpyrrolidone + butyltrimethylammonium bis(trifluoromethylsulfonyl)imide; phases: Liquid, Gas
Fixed: Mole fraction of N-methylpyrrolidone = 0
Property: Activity coefficient of N-methylpyrrolidone (Liquid); method: Chromatography
Temperature, K	Activity coefficient of N-methylpyrrolidone	uncertainty
312.35	112.01	7.68
322.75	81.33	5.57
333.35	60.4	4.14
343.75	46.09	3.15
354.15	36.49	2.5
364.75	28	1.91
375.15	22.39	1.53

System: dimethylformamide + butyltrimethylammonium bis(trifluoromethylsulfonyl)imide; phases: Liquid, Gas
Fixed: Mole fraction of dimethylformamide = 0
Property: Activity coefficient of dimethylformamide (Liquid); method: Chromatography
Temperature, K	Activity coefficient of dimethylformamide	uncertainty
364.55	0.29	0.03
375.15	0.29	0.03
385.55	0.3	0.03
396.15	0.3	0.03

System: 2-methylbutan-2-ol + butyltrimethylammonium bis(trifluoromethylsulfonyl)imide; phases: Liquid, Gas
Fixed: Mole fraction of 2-methylbutan-2-ol = 0
Property: Activity coefficient of 2-methylbutan-2-ol (Liquid); method: Chromatography
Temperature, K	Activity coefficient of 2-methylbutan-2-ol	uncertainty
302.55	2.53	0.17
312.15	2.32	0.16
333.25	1.94	0.13
343.65	1.8	0.12
354.05	1.67	0.11

System: 1,4-dioxane + butyltrimethylammonium bis(trifluoromethylsulfonyl)imide; phases: Liquid, Gas
Fixed: Mole fraction of 1,4-dioxane = 0
Property: Activity coefficient of 1,4-dioxane (Liquid); method: Chromatography
Temperature, K	Activity coefficient of 1,4-dioxane	uncertainty
343.75	0.74	0.05
354.25	0.73	0.05

System: pentane + butyltrimethylammonium bis(trifluoromethylsulfonyl)imide; phases: Liquid, Gas
Fixed: Mole fraction of pentane = 0
Property: Activity coefficient of pentane (Liquid); method: Chromatography
Temperature, K	Activity coefficient of pentane	uncertainty
301.85	13.68	0.93
322.85	13.86	0.95

System: hexane + butyltrimethylammonium bis(trifluoromethylsulfonyl)imide; phases: Liquid, Gas
Fixed: Mole fraction of hexane = 0
Property: Activity coefficient of hexane (Liquid); method: Chromatography
Temperature, K	Activity coefficient of hexane	uncertainty
301.85	19.44	1.33
312.35	18.15	1.24
322.85	17.62	1.2
333.35	16.3	1.11

System: heptane + butyltrimethylammonium bis(trifluoromethylsulfonyl)imide; phases: Liquid, Gas
Fixed: Mole fraction of heptane = 0
Property: Activity coefficient of heptane (Liquid); method: Chromatography
Temperature, K	Activity coefficient of heptane	uncertainty
301.62	30.16	2.06
312.15	27.74	1.9
322.75	25.58	1.75
333.25	23.39	1.6

System: octane + butyltrimethylammonium bis(trifluoromethylsulfonyl)imide; phases: Liquid, Gas
Fixed: Mole fraction of octane = 0
Property: Activity coefficient of octane (Liquid); method: Chromatography
Temperature, K	Activity coefficient of octane	uncertainty
301.62	45.39	3.11
312.15	40.97	2.8
322.75	37.21	2.55
333.25	34.15	2.34

System: nonane + butyltrimethylammonium bis(trifluoromethylsulfonyl)imide; phases: Liquid, Gas
Fixed: Mole fraction of nonane = 0
Property: Activity coefficient of nonane (Liquid); method: Chromatography
Temperature, K	Activity coefficient of nonane	uncertainty
301.65	67.55	4.63
312.15	59.82	4.1
322.75	52.57	3.6
333.25	47.31	3.24
343.65	43.24	2.96
354.05	39.02	2.67
364.55	35.97	2.46
374.95	32.33	2.21

System: decane + butyltrimethylammonium bis(trifluoromethylsulfonyl)imide; phases: Liquid, Gas
Fixed: Mole fraction of decane = 0
Property: Activity coefficient of decane (Liquid); method: Chromatography
Temperature, K	Activity coefficient of decane	uncertainty
302.15	97.77	6.7
312.15	87.54	6
322.65	77.46	5.31
333.25	67.16	4.6
343.65	59.93	4.1
354.05	53.68	3.68

System: undecane + butyltrimethylammonium bis(trifluoromethylsulfonyl)imide; phases: Liquid, Gas
Fixed: Mole fraction of undecane = 0
Property: Activity coefficient of undecane (Liquid); method: Chromatography
Temperature, K	Activity coefficient of undecane	uncertainty
333.25	94.38	6.47
343.65	83.93	5.75
354.05	73.27	5.02
364.55	66.3	4.54
374.95	55.98	3.83

System: dodecane + butyltrimethylammonium bis(trifluoromethylsulfonyl)imide; phases: Liquid, Gas
Fixed: Mole fraction of dodecane = 0
Property: Activity coefficient of dodecane (Liquid); method: Chromatography
Temperature, K	Activity coefficient of dodecane	uncertainty
333.25	128.04	8.78
343.65	110	7.54
354.05	92.26	6.32

System: 1-pentene + butyltrimethylammonium bis(trifluoromethylsulfonyl)imide; phases: Liquid, Gas
Fixed: Mole fraction of 1-pentene = 0
Property: Activity coefficient of 1-pentene (Liquid); method: Chromatography
Temperature, K	Activity coefficient of 1-pentene	uncertainty
301.85	6.06	0.41
312.35	5.79	0.39

System: hex-1-ene + butyltrimethylammonium bis(trifluoromethylsulfonyl)imide; phases: Liquid, Gas
Fixed: Mole fraction of hex-1-ene = 0
Property: Activity coefficient of hex-1-ene (Liquid); method: Chromatography
Temperature, K	Activity coefficient of hex-1-ene	uncertainty
305.85	10.19	0.7
312.35	9.81	0.67
322.55	9.46	0.65
343.65	8.63	0.59
364.55	7.93	0.54

System: 1-heptene + butyltrimethylammonium bis(trifluoromethylsulfonyl)imide; phases: Liquid, Gas
Fixed: Mole fraction of 1-heptene = 0
Property: Activity coefficient of 1-heptene (Liquid); method: Chromatography
Temperature, K	Activity coefficient of 1-heptene	uncertainty
306.75	15.57	1.06
311.95	14.9	1.02
322.55	13.92	0.95
333.25	12.92	0.88
343.65	11.97	0.82
354.05	11.3	0.77

System: oct-1-ene + butyltrimethylammonium bis(trifluoromethylsulfonyl)imide; phases: Liquid, Gas
Fixed: Mole fraction of oct-1-ene = 0
Property: Activity coefficient of oct-1-ene (Liquid); method: Chromatography
Temperature, K	Activity coefficient of oct-1-ene	uncertainty
306.75	22.85	1.56
312.98	22.01	1.5
322.55	20.44	1.4
333.25	19.01	1.3
343.65	17.19	1.17
354.05	16.21	1.11
364.55	15.14	1.03

System: 1-nonene + butyltrimethylammonium bis(trifluoromethylsulfonyl)imide; phases: Liquid, Gas
Fixed: Mole fraction of 1-nonene = 0
Property: Activity coefficient of 1-nonene (Liquid); method: Chromatography
Temperature, K	Activity coefficient of 1-nonene	uncertainty
306.65	34.14	2.34
311.98	32.6	2.23
322.55	29.93	2.05
333.25	26.73	1.83
343.65	24.47	1.67
354.05	22.26	1.52
364.55	20.85	1.42

System: 1-decene + butyltrimethylammonium bis(trifluoromethylsulfonyl)imide; phases: Liquid, Gas
Fixed: Mole fraction of 1-decene = 0
Property: Activity coefficient of 1-decene (Liquid); method: Chromatography
Temperature, K	Activity coefficient of 1-decene	uncertainty
306.15	50.39	3.45
311.95	47.8	3.27
322.55	43.08	2.95
333.25	38.95	2.67
343.65	35.19	2.41
354.05	32.15	2.2

System: 1-undecene + butyltrimethylammonium bis(trifluoromethylsulfonyl)imide; phases: Liquid, Gas
Fixed: Mole fraction of 1-undecene = 0
Property: Activity coefficient of 1-undecene (Liquid); method: Chromatography
Temperature, K	Activity coefficient of 1-undecene	uncertainty
322.55	62.71	4.3
333.25	56.07	3.84
343.65	50.71	3.47
354.05	45.81	3.14
364.55	42.61	2.92
374.95	37.61	2.57

System: 1-dodecene + butyltrimethylammonium bis(trifluoromethylsulfonyl)imide; phases: Liquid, Gas
Fixed: Mole fraction of 1-dodecene = 0
Property: Activity coefficient of 1-dodecene (Liquid); method: Chromatography
Temperature, K	Activity coefficient of 1-dodecene	uncertainty
333.25	76.8	5.26
343.75	68.91	4.72
354.05	61.4	4.21
364.55	54.63	3.74
371.95	49.04	3.36

System: cyclohexane + butyltrimethylammonium bis(trifluoromethylsulfonyl)imide; phases: Liquid, Gas
Fixed: Mole fraction of cyclohexane = 0
Property: Activity coefficient of cyclohexane (Liquid); method: Chromatography
Temperature, K	Activity coefficient of cyclohexane	uncertainty
300.95	4.15	0.28
312.25	3.84	0.26
322.85	3.6	0.25
333.35	3.37	0.23

System: cyclohexene + butyltrimethylammonium bis(trifluoromethylsulfonyl)imide; phases: Liquid, Gas
Fixed: Mole fraction of cyclohexene = 0
Property: Activity coefficient of cyclohexene (Liquid); method: Chromatography
Temperature, K	Activity coefficient of cyclohexene	uncertainty
312.05	6.87	0.47
322.55	6.45	0.44
333.25	5.94	0.4
343.65	5.5	0.37
354.15	5.31	0.36

System: 1,3-cyclohexadiene + butyltrimethylammonium bis(trifluoromethylsulfonyl)imide; phases: Liquid, Gas
Fixed: Mole fraction of 1,3-cyclohexadiene = 0
Property: Activity coefficient of 1,3-cyclohexadiene (Liquid); method: Chromatography
Temperature, K	Activity coefficient of 1,3-cyclohexadiene	uncertainty
305.95	3.59	0.24
322.55	3.37	0.23
333.25	3.18	0.22
343.65	3.03	0.21
354.15	2.91	0.2
364.55	2.81	0.19

System: methanol + butyltrimethylammonium bis(trifluoromethylsulfonyl)imide; phases: Liquid, Gas
Fixed: Mole fraction of methanol = 0
Property: Activity coefficient of methanol (Liquid); method: Chromatography
Temperature, K	Activity coefficient of methanol	uncertainty
303.95	1.55	0.1
312.05	1.42	0.09
333.25	1.15	0.07
343.65	1.02	0.06

System: methanol + butyltrimethylammonium bis(trifluoromethylsulfonyl)imide; phases: Liquid, Gas
Property: Vapor or sublimation pressure, kPa (Liquid); method: Closed cell (Static) method
Temperature, K	Mole fraction of methanol	Vapor or sublimation pressure, kPa	uncertainty
298.15	0	0	0.02
298.15	0.085	1.98	0.034
298.15	0.1093	2.502	0.037
298.15	0.1308	2.923	0.039
298.15	0.2069	4.799	0.052
298.15	0.2166	5.034	0.053
298.15	0.2539	5.963	0.058
298.15	0.2973	7.051	0.064
298.15	0.44	10.047	0.075
298.15	0.5989	12.676	0.077
298.15	0.645	13.302	0.076
298.15	0.741	14.489	0.074
298.15	0.8624	15.756	0.071
298.15	0.9046	16.118	0.07
298.15	0.93664	16.409	0.07
298.15	0.96865	16.75	0.071
298.15	1	16.958	0.071
303.15	0	0	0.02
303.15	0.085	2.411	0.036
303.15	0.1093	3.04	0.041
303.15	0.1308	3.608	0.045
303.15	0.2069	5.917	0.06
303.15	0.2166	6.23	0.062
303.15	0.2539	7.386	0.069
303.15	0.2973	8.729	0.076
303.15	0.44	12.605	0.091
303.15	0.5989	16.044	0.094
303.15	0.645	16.902	0.093
303.15	0.741	18.386	0.09
303.15	0.8624	20.028	0.086
303.15	0.9046	20.583	0.085
303.15	0.93664	20.997	0.085
303.15	0.96865	21.546	0.086
303.15	1	21.88	0.086
308.15	0	0	0.02
308.15	0.085	2.823	0.04
308.15	0.1093	3.658	0.046
308.15	0.1308	4.315	0.05
308.15	0.2069	7.202	0.07
308.15	0.2166	7.561	0.072
308.15	0.2539	8.945	0.081
308.15	0.2973	10.553	0.089
308.15	0.44	15.457	0.109
308.15	0.5989	19.893	0.114
308.15	0.645	20.913	0.113
308.15	0.741	22.84	0.108
308.15	0.8624	25.17	0.104
308.15	0.9046	26.007	0.103
308.15	0.93664	26.561	0.103
308.15	0.96865	27.4	0.105
308.15	1	27.96	0.106
313.15	0	0	0.02
313.15	0.085	3.419	0.044
313.15	0.1093	4.379	0.051
313.15	0.1308	5.171	0.057
313.15	0.2069	8.65	0.082
313.15	0.2166	9.102	0.085
313.15	0.2539	10.746	0.095
313.15	0.2973	12.748	0.106
313.15	0.44	18.703	0.13
313.15	0.5989	24.271	0.136
313.15	0.645	25.631	0.135
313.15	0.741	28.317	0.131
313.15	0.8624	31.522	0.126
313.15	0.9046	32.503	0.125
313.15	0.93664	33.321	0.125
313.15	0.96865	34.573	0.127
313.15	1	35.45	0.129

System: ethanol + butyltrimethylammonium bis(trifluoromethylsulfonyl)imide; phases: Liquid, Gas
Fixed: Mole fraction of ethanol = 0
Property: Activity coefficient of ethanol (Liquid); method: Chromatography
Temperature, K	Activity coefficient of ethanol	uncertainty
312.25	1.94	0.13
322.85	1.73	0.12
333.25	1.57	0.1
343.65	1.41	0.09

System: ethanol + butyltrimethylammonium bis(trifluoromethylsulfonyl)imide; phases: Liquid, Gas
Property: Vapor or sublimation pressure, kPa (Liquid); method: Closed cell (Static) method
Temperature, K	Mole fraction of ethanol	Vapor or sublimation pressure, kPa	uncertainty
298.15	0	0	0.02
298.15	0.0575	1.097	0.028
298.15	0.1524	2.222	0.034
298.15	0.1651	2.42	0.035
298.15	0.254	3.652	0.042
298.15	0.3305	4.665	0.047
298.15	0.4141	5.486	0.049
298.15	0.5078	6.226	0.049
298.15	0.5919	6.771	0.049
298.15	0.6555	7.219	0.048
298.15	0.7041	7.616	0.048
298.15	0.7364	7.731	0.047
298.15	0.7969	7.825	0.046
298.15	0.8705	7.837	0.044
298.15	0.94893	7.854	0.043
298.15	0.96847	7.857	0.043
298.15	1	7.876	0.043
303.15	0	0	0.02
303.15	0.0575	1.369	0.03
303.15	0.1524	2.678	0.037
303.15	0.1651	2.913	0.039
303.15	0.254	4.555	0.048
303.15	0.3305	5.748	0.053
303.15	0.4141	6.839	0.057
303.15	0.5078	7.889	0.058
303.15	0.5919	8.652	0.057
303.15	0.6555	9.215	0.056
303.15	0.7041	9.736	0.056
303.15	0.7364	9.991	0.055
303.15	0.7969	10.227	0.054
303.15	0.8705	10.364	0.051
303.15	0.94893	10.43	0.05
303.15	0.96847	10.439	0.05
303.15	1	10.468	0.05
308.15	0	0	0.02
308.15	0.0575	1.625	0.031
308.15	0.1524	3.184	0.041
308.15	0.1651	3.461	0.043
308.15	0.254	5.423	0.054
308.15	0.3305	7	0.062
308.15	0.4141	8.218	0.065
308.15	0.5078	9.677	0.067
308.15	0.5919	10.769	0.067
308.15	0.6555	11.596	0.067
308.15	0.7041	12.248	0.066
308.15	0.7364	12.607	0.066
308.15	0.7969	13.127	0.064
308.15	0.8705	13.501	0.062
308.15	0.94893	13.69	0.061
308.15	0.96847	13.723	0.06
308.15	1	13.768	0.06
313.15	0	0	0.02
313.15	0.0575	1.91	0.033
313.15	0.1524	3.872	0.046
313.15	0.1651	4.235	0.049
313.15	0.254	6.28	0.06
313.15	0.3305	7.947	0.068
313.15	0.4141	9.774	0.075
313.15	0.5078	11.885	0.08
313.15	0.5919	13.488	0.081
313.15	0.6555	14.49	0.08
313.15	0.7041	15.212	0.079
313.15	0.7364	15.701	0.079
313.15	0.7969	16.569	0.077
313.15	0.8705	17.338	0.075
313.15	0.94893	17.79	0.074
313.15	0.96847	17.856	0.073
313.15	1	17.928	0.073

System: propan-1-ol + butyltrimethylammonium bis(trifluoromethylsulfonyl)imide; phases: Liquid, Gas
Fixed: Mole fraction of propan-1-ol = 0
Property: Activity coefficient of propan-1-ol (Liquid); method: Chromatography
Temperature, K	Activity coefficient of propan-1-ol	uncertainty
301.75	2.76	0.19
312.15	2.43	0.17
322.85	2.14	0.15
333.35	1.9	0.13

System: propan-1-ol + butyltrimethylammonium bis(trifluoromethylsulfonyl)imide; phases: Liquid, Gas
Property: Vapor or sublimation pressure, kPa (Liquid); method: Closed cell (Static) method
Temperature, K	Mole fraction of propan-1-ol	Vapor or sublimation pressure, kPa	uncertainty
298.15	0	0	0.02
298.15	0.0223	0.247	0.021
298.15	0.0336	0.332	0.021
298.15	0.0785	0.71	0.024
298.15	0.1456	1.193	0.029
298.15	0.1742	1.355	0.029
298.15	0.1841	1.416	0.029
298.15	0.2518	1.772	0.031
298.15	0.2937	1.977	0.032
298.15	0.3317	2.134	0.032
298.15	0.3857	2.33	0.032
298.15	0.4575	2.519	0.033
298.15	0.5025	2.594	0.032
298.15	0.5622	2.665	0.032
298.15	0.62471	2.702	0.032
298.15	0.65725	2.715	0.031
298.15	0.78237	2.737	0.031
298.15	0.87331	2.747	0.03
298.15	0.91542	2.75	0.03
298.15	1	2.786	0.03
303.15	0	0	0.02
303.15	0.0223	0.316	0.021
303.15	0.0336	0.422	0.022
303.15	0.0785	0.905	0.026
303.15	0.1456	1.535	0.03
303.15	0.1742	1.75	0.031
303.15	0.1841	1.824	0.032
303.15	0.2518	2.289	0.034
303.15	0.2937	2.567	0.035
303.15	0.3317	2.802	0.035
303.15	0.3857	3.082	0.036
303.15	0.4575	3.364	0.036
303.15	0.5025	3.478	0.036
303.15	0.5622	3.587	0.036
303.15	0.62471	3.658	0.035
303.15	0.65725	3.686	0.035
303.15	0.78237	3.737	0.033
303.15	0.87331	3.755	0.033
303.15	0.91542	3.755	0.032
303.15	1	3.826	0.032
308.15	0	0	0.02
308.15	0.0223	0.382	0.022
308.15	0.0336	0.514	0.023
308.15	0.0785	1.125	0.029
308.15	0.1456	1.941	0.033
308.15	0.1742	2.223	0.034
308.15	0.1841	2.305	0.034
308.15	0.2518	2.917	0.037
308.15	0.2937	3.28	0.039
308.15	0.3317	3.615	0.04
308.15	0.3857	4.012	0.041
308.15	0.4575	4.41	0.041
308.15	0.5025	4.583	0.041
308.15	0.5622	4.766	0.041
308.15	0.62471	4.895	0.04
308.15	0.65725	4.94	0.039
308.15	0.78237	5.041	0.037
308.15	0.87331	5.076	0.036
308.15	0.91542	5.076	0.036
308.15	1	5.199	0.036
313.15	0	0	0.02
313.15	0.0223	0.492	0.022
313.15	0.0336	0.644	0.024
313.15	0.0785	1.424	0.03
313.15	0.1456	2.504	0.036
313.15	0.1742	2.839	0.038
313.15	0.1841	2.951	0.039
313.15	0.2518	3.77	0.043
313.15	0.2937	4.2	0.045
313.15	0.3317	4.598	0.046
313.15	0.3857	5.122	0.047
313.15	0.4575	5.654	0.048
313.15	0.5025	5.955	0.048
313.15	0.5622	6.259	0.047
313.15	0.62471	6.471	0.046
313.15	0.65725	6.55	0.045
313.15	0.78237	6.723	0.042
313.15	0.87331	6.775	0.041
313.15	0.91542	6.782	0.04
313.15	1	6.986	0.04

System: butan-1-ol + butyltrimethylammonium bis(trifluoromethylsulfonyl)imide; phases: Liquid, Gas
Fixed: Mole fraction of butan-1-ol = 0
Property: Activity coefficient of butan-1-ol (Liquid); method: Chromatography
Temperature, K	Activity coefficient of butan-1-ol	uncertainty
302.55	3.62	0.25
312.15	3.22	0.22
322.85	2.83	0.19
333.35	2.49	0.17
343.65	2.24	0.15

System: methyl pentanoate + butyltrimethylammonium bis(trifluoromethylsulfonyl)imide; phases: Liquid, Gas
Fixed: Mole fraction of methyl pentanoate = 0
Property: Activity coefficient of methyl pentanoate (Liquid); method: Chromatography
Temperature, K	Activity coefficient of methyl pentanoate	uncertainty
322.75	1.66	0.11
333.15	1.63	0.11
364.55	1.44	0.09
374.95	1.33	0.09

System: pentan-1-ol + butyltrimethylammonium bis(trifluoromethylsulfonyl)imide; phases: Liquid, Gas
Fixed: Mole fraction of pentan-1-ol = 0
Property: Activity coefficient of pentan-1-ol (Liquid); method: Chromatography
Temperature, K	Activity coefficient of pentan-1-ol	uncertainty
322.85	3.85	0.26
333.15	3.39	0.23
343.65	3.01	0.2
354.05	2.72	0.19
364.45	2.45	0.17

System: hexan-1-ol + butyltrimethylammonium bis(trifluoromethylsulfonyl)imide; phases: Liquid, Gas
Fixed: Mole fraction of hexan-1-ol = 0
Property: Activity coefficient of hexan-1-ol (Liquid); method: Chromatography
Temperature, K	Activity coefficient of hexan-1-ol	uncertainty
343.65	4.02	0.27
354.05	3.58	0.24
364.45	3.24	0.22
385.55	2.67	0.18

System: heptan-1-ol + butyltrimethylammonium bis(trifluoromethylsulfonyl)imide; phases: Liquid, Gas
Fixed: Mole fraction of heptan-1-ol = 0
Property: Activity coefficient of heptan-1-ol (Liquid); method: Chromatography
Temperature, K	Activity coefficient of heptan-1-ol	uncertainty
354.05	3.47	0.24
364.63	3.11	0.21
375.05	2.81	0.19
386.6	2.58	0.18

System: propan-2-ol + butyltrimethylammonium bis(trifluoromethylsulfonyl)imide; phases: Liquid, Gas
Fixed: Mole fraction of propan-2-ol = 0
Property: Activity coefficient of propan-2-ol (Liquid); method: Chromatography
Temperature, K	Activity coefficient of propan-2-ol	uncertainty
302.55	2.4	0.16
312.15	2.14	0.15
322.85	1.89	0.13
333.35	1.67	0.11
343.65	1.53	0.1
354.05	1.37	0.09

System: 2-methyl-1-propanol + butyltrimethylammonium bis(trifluoromethylsulfonyl)imide; phases: Liquid, Gas
Fixed: Mole fraction of 2-methyl-1-propanol = 0
Property: Activity coefficient of 2-methyl-1-propanol (Liquid); method: Chromatography
Temperature, K	Activity coefficient of 2-methyl-1-propanol	uncertainty
302.55	3.98	0.27
312.15	3.52	0.24
322.85	3.13	0.21
333.35	2.72	0.19
343.65	2.46	0.17
354.05	2.23	0.15

System: butan-2-ol + butyltrimethylammonium bis(trifluoromethylsulfonyl)imide; phases: Liquid, Gas
Fixed: Mole fraction of butan-2-ol = 0
Property: Activity coefficient of butan-2-ol (Liquid); method: Chromatography
Temperature, K	Activity coefficient of butan-2-ol	uncertainty
333.15	2.06	0.14
343.65	1.87	0.13
354.05	1.7	0.11
364.45	1.53	0.1
374.95	1.38	0.09

System: 2-methylpropan-2-ol + butyltrimethylammonium bis(trifluoromethylsulfonyl)imide; phases: Liquid, Gas
Fixed: Mole fraction of 2-methylpropan-2-ol = 0
Property: Activity coefficient of 2-methylpropan-2-ol (Liquid); method: Chromatography
Temperature, K	Activity coefficient of 2-methylpropan-2-ol	uncertainty
302.55	2.24	0.15
312.15	2.01	0.14
322.85	1.79	0.12
333.25	1.61	0.11
343.65	1.47	0.1
354.05	1.34	0.09

System: cyclohexanol + butyltrimethylammonium bis(trifluoromethylsulfonyl)imide; phases: Liquid, Gas
Fixed: Mole fraction of cyclohexanol = 0
Property: Activity coefficient of cyclohexanol (Liquid); method: Chromatography
Temperature, K	Activity coefficient of cyclohexanol	uncertainty
343.65	3.52	0.24
354.05	2.89	0.2
364.45	2.54	0.17
373.95	2.27	0.15
385.55	1.95	0.13

System: benzene + butyltrimethylammonium bis(trifluoromethylsulfonyl)imide; phases: Liquid, Gas
Fixed: Mole fraction of benzene = 0
Property: Activity coefficient of benzene (Liquid); method: Chromatography
Temperature, K	Activity coefficient of benzene	uncertainty
322.75	1.3	0.08
333.35	1.26	0.08
343.55	1.26	0.08
354.05	1.22	0.08
364.45	1.2	0.08

System: toluene + butyltrimethylammonium bis(trifluoromethylsulfonyl)imide; phases: Liquid, Gas
Fixed: Mole fraction of toluene = 0
Property: Activity coefficient of toluene (Liquid); method: Chromatography
Temperature, K	Activity coefficient of toluene	uncertainty
322.75	1.73	0.12
333.25	1.71	0.11
343.65	1.7	0.11
364.45	1.68	0.11

System: ethylbenzene + butyltrimethylammonium bis(trifluoromethylsulfonyl)imide; phases: Liquid, Gas
Fixed: Mole fraction of ethylbenzene = 0
Property: Activity coefficient of ethylbenzene (Liquid); method: Chromatography
Temperature, K	Activity coefficient of ethylbenzene	uncertainty
322.85	2.79	0.19
333.25	2.76	0.19
343.75	2.65	0.18
354.15	2.6	0.18

System: propylbenzene + butyltrimethylammonium bis(trifluoromethylsulfonyl)imide; phases: Liquid, Gas
Fixed: Mole fraction of propylbenzene = 0
Property: Activity coefficient of propylbenzene (Liquid); method: Chromatography
Temperature, K	Activity coefficient of propylbenzene	uncertainty
333.25	3.95	0.27
343.65	3.86	0.26
354.05	3.79	0.26
364.45	3.69	0.25

System: butylbenzene + butyltrimethylammonium bis(trifluoromethylsulfonyl)imide; phases: Liquid, Gas
Fixed: Mole fraction of butylbenzene = 0
Property: Activity coefficient of butylbenzene (Liquid); method: Chromatography
Temperature, K	Activity coefficient of butylbenzene	uncertainty
333.25	5.77	0.39
343.65	5.62	0.38
354.05	5.43	0.37
364.45	5.31	0.36
374.95	5.16	0.35

System: pentylbenzene + butyltrimethylammonium bis(trifluoromethylsulfonyl)imide; phases: Liquid, Gas
Fixed: Mole fraction of pentylbenzene = 0
Property: Activity coefficient of pentylbenzene (Liquid); method: Chromatography
Temperature, K	Activity coefficient of pentylbenzene	uncertainty
354.05	7.92	0.54
364.45	7.69	0.52
374.95	7.36	0.5
385.45	7.07	0.48

System: propanal + butyltrimethylammonium bis(trifluoromethylsulfonyl)imide; phases: Liquid, Gas
Fixed: Mole fraction of propanal = 0
Property: Activity coefficient of propanal (Liquid); method: Chromatography
Temperature, K	Activity coefficient of propanal	uncertainty
301.65	0.58	0.04
312.25	0.57	0.04
322.75	0.54	0.04
333.25	0.53	0.04
343.55	0.52	0.04

System: butanal + butyltrimethylammonium bis(trifluoromethylsulfonyl)imide; phases: Liquid, Gas
Fixed: Mole fraction of butanal = 0
Property: Activity coefficient of butanal (Liquid); method: Chromatography
Temperature, K	Activity coefficient of butanal	uncertainty
301.75	0.84	0.05
312.25	0.8	0.05
322.75	0.79	0.05
343.55	0.77	0.05
354.15	0.76	0.05

System: pentanal + butyltrimethylammonium bis(trifluoromethylsulfonyl)imide; phases: Liquid, Gas
Fixed: Mole fraction of pentanal = 0
Property: Activity coefficient of pentanal (Liquid); method: Chromatography
Temperature, K	Activity coefficient of pentanal	uncertainty
301.75	1.71	0.11
312.25	1.65	0.11
322.75	1.62	0.11
333.25	1.57	0.1
343.55	1.5	0.1
354.15	1.46	0.1

System: hexanal + butyltrimethylammonium bis(trifluoromethylsulfonyl)imide; phases: Liquid, Gas
Fixed: Mole fraction of hexanal = 0
Property: Activity coefficient of hexanal (Liquid); method: Chromatography
Temperature, K	Activity coefficient of hexanal	uncertainty
322.75	1.92	0.13
333.25	1.9	0.13
343.55	1.88	0.13
354.15	1.85	0.12
364.65	1.84	0.12

System: heptanal + butyltrimethylammonium bis(trifluoromethylsulfonyl)imide; phases: Liquid, Gas
Fixed: Mole fraction of heptanal = 0
Property: Activity coefficient of heptanal (Liquid); method: Chromatography
Temperature, K	Activity coefficient of heptanal	uncertainty
354.15	1.84	0.12
364.65	1.73	0.12
374.95	1.6	0.11
385.45	1.48	0.1
395.95	1.36	0.09

System: octanal + butyltrimethylammonium bis(trifluoromethylsulfonyl)imide; phases: Liquid, Gas
Fixed: Mole fraction of octanal = 0
Property: Activity coefficient of octanal (Liquid); method: Chromatography
Temperature, K	Activity coefficient of octanal	uncertainty
364.64	3.53	0.24
374.95	3.48	0.24
385.45	3.44	0.23
395.95	3.37	0.23

System: methyl propanoate + butyltrimethylammonium bis(trifluoromethylsulfonyl)imide; phases: Liquid, Gas
Fixed: Mole fraction of methyl propanoate = 0
Property: Activity coefficient of methyl propanoate (Liquid); method: Chromatography
Temperature, K	Activity coefficient of methyl propanoate	uncertainty
311.65	0.94	0.06
333.15	0.92	0.06
343.75	0.91	0.06
