Measured thermophysical data. Solubility of Cesium Nitrate in Alcohol Aqueous Solutions at (25, 35 and 45 ) C
Source: J. Chem. Eng. Data, 2005, 10.1021/je050072b
Compound 1: methanol, CH4O, InChI=1S/CH4O/c1-2/h2H,1H3, purity 99.5%
Compound 2: cesium nitrate, CsNO3, InChI=1S/Cs.NO3/c;2-1(3)4/q+1;-1, purity 99.5%
Compound 3: ethanol, C2H6O, InChI=1S/C2H6O/c1-2-3/h3H,2H2,1H3, purity 99.5%
Compound 4: propan-1-ol, C3H8O, InChI=1S/C3H8O/c1-2-3-4/h4H,2-3H2,1H3, purity 99.5%
Compound 5: propan-2-ol, C3H8O, InChI=1S/C3H8O/c1-3(2)4/h3-4H,1-2H3, purity 99.5%
Compound 6: 2-methylpropan-2-ol, C4H10O, InChI=1S/C4H10O/c1-4(2,3)5/h5H,1-3H3, purity 99.5%
Compound 7: water, H2O, InChI=1S/H2O/h1H2

System: methanol + cesium nitrate; phases: Liquid, Crystal
Fixed: Pressure, kPa = 101
Property: Molality, mol/kg of cesium nitrate (Liquid); method: x
Temperature, K	Molality, mol/kg of cesium nitrate	uncertainty
298.15	0.0119	0.0003
308.15	0.0279	0.0003
318.15	0.02997	0.00031

System: methanol + cesium nitrate; phases: Liquid, Crystal
Fixed: Pressure, kPa = 101
Property: Refractive index (Na D-line) (Liquid); method: ZAW-J refractometer
Temperature, K	Refractive index (Na D-line)	uncertainty
298.15	1.3283	0.0004
308.15	1.3239	0.0004
318.15	1.3195	0.0004

System: ethanol + cesium nitrate; phases: Liquid, Crystal
Property: Molality, mol/kg of cesium nitrate (Liquid); method: x
Temperature, K	Pressure, kPa	Molality, mol/kg of cesium nitrate	uncertainty
318.15	101	0.01498	0.00015

System: ethanol + cesium nitrate; phases: Liquid, Crystal
Property: Refractive index (Na D-line) (Liquid); method: ZAW-J refractometer
Temperature, K	Pressure, kPa	Refractive index (Na D-line)	uncertainty
318.15	101	1.3519	0.0004

System: propan-1-ol + cesium nitrate; phases: Liquid, Crystal
Fixed: Pressure, kPa = 101
Property: Molality, mol/kg of cesium nitrate (Liquid); method: x
Temperature, K	Molality, mol/kg of cesium nitrate	uncertainty
298.15	0.005972	8e-05
318.15	0.01111	0.00012

System: propan-1-ol + cesium nitrate; phases: Liquid, Crystal
Fixed: Pressure, kPa = 101
Property: Refractive index (Na D-line) (Liquid); method: ZAW-J refractometer
Temperature, K	Refractive index (Na D-line)	uncertainty
298.15	1.383	0.0004
318.15	1.3747	0.0004

System: propan-2-ol + cesium nitrate; phases: Liquid, Crystal
Fixed: Pressure, kPa = 101
Property: Molality, mol/kg of cesium nitrate (Liquid); method: x
Temperature, K	Molality, mol/kg of cesium nitrate	uncertainty
308.15	0.002477	2.6e-05
318.15	0.002747	2.9e-05

System: propan-2-ol + cesium nitrate; phases: Liquid, Crystal
Fixed: Pressure, kPa = 101
Property: Refractive index (Na D-line) (Liquid); method: ZAW-J refractometer
Temperature, K	Refractive index (Na D-line)	uncertainty
308.15	1.3707	0.0004
318.15	1.367	0.0004

System: 2-methylpropan-2-ol + cesium nitrate; phases: Liquid, Crystal
Fixed: Pressure, kPa = 101
Property: Molality, mol/kg of cesium nitrate (Liquid); method: x
Temperature, K	Molality, mol/kg of cesium nitrate	uncertainty
308.15	0.006947	7.1e-05
318.15	0.007198	7.4e-05

System: 2-methylpropan-2-ol + cesium nitrate; phases: Liquid, Crystal
Fixed: Pressure, kPa = 101
Property: Refractive index (Na D-line) (Liquid); method: ZAW-J refractometer
Temperature, K	Refractive index (Na D-line)	uncertainty
308.15	1.3789	0.0004
318.15	1.3755	0.0004

System: water + cesium nitrate; phases: Liquid, Crystal
Fixed: Pressure, kPa = 101
Property: Molality, mol/kg of cesium nitrate (Liquid); method: atomic absorption spectrometry (AAS); evaporation method
Temperature, K	Molality, mol/kg of cesium nitrate	uncertainty
298.15	1.396	0.019
308.15	2.006	0.025
318.15	2.797	0.033

System: water + cesium nitrate; phases: Liquid, Crystal
Fixed: Pressure, kPa = 101
Fixed: Wavelength, nm = 852.1
Property: Refractive index (other wavelength) (Liquid); method: ZAW-J refractometer
Temperature, K	Refractive index (other wavelength)	uncertainty
298.15	1.3475	0.002
308.15	1.353	0.002
318.15	1.3582	0.002

System: methanol + water + cesium nitrate; phases: Liquid, Crystal
Fixed: Pressure, kPa = 101
Property: Molality, mol/kg of cesium nitrate (Liquid); method: atomic absorption spectrometry (AAS); evaporation method
Temperature, K	Solvent: Mass ratio of component to other component of binary solvent of methanol	Molality, mol/kg of cesium nitrate	uncertainty
298.15	0	1.396	0.019
298.15	0.1053	0.8876	0.0119
298.15	0.1422	0.7855	0.0106
298.15	0.2035	0.6367	0.0089
298.15	0.3751	0.3686	0.0049
298.15	0.4402	0.2972	0.0037
298.15	0.5108	0.2301	0.0031
298.15	0.7238	0.0838	0.0011
298.15	0.8087	0.0524	0.0007
298.15	0.9009	0.0242	0.0006
308.15	0	2.006	0.025
308.15	0.03845	1.708	0.021
308.15	0.1001	1.328	0.017
308.15	0.1193	1.243	0.016
308.15	0.1546	1.104	0.014
308.15	0.183	0.9979	0.0123
308.15	0.2426	0.8219	0.0106
308.15	0.2993	0.6829	0.0085
308.15	0.3688	0.5449	0.0065
308.15	0.4922	0.3545	0.0042
308.15	0.5639	0.2701	0.0033
308.15	0.648	0.1825	0.0023
308.15	0.7058	0.1402	0.0018
308.15	0.7453	0.1135	0.0016
308.15	0.8023	0.0803	0.001
318.15	0	2.797	0.033
318.15	0.03302	2.415	0.028
318.15	0.07049	2.061	0.024
318.15	0.1836	1.389	0.016
318.15	0.2011	1.286	0.015
318.15	0.2949	0.9446	0.0109
318.15	0.3089	0.9071	0.0105
318.15	0.417	0.6321	0.0078
318.15	0.4919	0.4754	0.0056
318.15	0.5792	0.3451	0.0042
318.15	0.5947	0.3099	0.0037
318.15	0.6279	0.2726	0.0031
318.15	0.6793	0.2198	0.0026
318.15	0.8699	0.0735	0.0012

System: methanol + water + cesium nitrate; phases: Liquid, Crystal
Fixed: Pressure, kPa = 101
Fixed: Wavelength, nm = 852.1
Property: Refractive index (other wavelength) (Liquid); method: ZAW-J refractometer
Temperature, K	Solvent: Mass ratio of component to other component of binary solvent of methanol	Refractive index (other wavelength)	uncertainty
298.15	0	1.3475	0.002
298.15	0.1053	1.3455	0.002
298.15	0.1422	1.3453	0.002
298.15	0.2035	1.344	0.002
298.15	0.3751	1.3414	0.002
298.15	0.4402	1.3403	0.002
298.15	0.5108	1.3387	0.002
298.15	0.7238	1.3362	0.002
298.15	0.8087	1.3325	0.002
298.15	0.9009	1.3319	0.002
308.15	0	1.353	0.002
308.15	0.03845	1.351	0.002
308.15	0.1001	1.3486	0.002
308.15	0.1193	1.3482	0.002
308.15	0.1546	1.3476	0.002
308.15	0.183	1.3475	0.002
308.15	0.2426	1.3445	0.002
308.15	0.2993	1.3466	0.002
308.15	0.3688	1.3426	0.002
308.15	0.4922	1.3407	0.002
308.15	0.5639	1.3404	0.002
308.15	0.648	1.337	0.002
308.15	0.7058	1.336	0.002
308.15	0.7453	1.3346	0.002
308.15	0.8023	1.3332	0.002
318.15	0	1.3582	0.002
318.15	0.03302	1.3555	0.002
318.15	0.07049	1.352	0.002
318.15	0.1836	1.3494	0.002
318.15	0.2011	1.3472	0.002
318.15	0.2949	1.3447	0.002
318.15	0.3089	1.3455	0.002
318.15	0.417	1.3426	0.002
318.15	0.4919	1.339	0.002
318.15	0.5792	1.3382	0.002
318.15	0.5947	1.3376	0.002
318.15	0.6279	1.3347	0.002
318.15	0.6793	1.3334	0.002
318.15	0.8699	1.3275	0.002

System: ethanol + water + cesium nitrate; phases: Liquid, Crystal
Fixed: Pressure, kPa = 101
Property: Molality, mol/kg of cesium nitrate (Liquid); method: atomic absorption spectrometry (AAS); evaporation
Temperature, K	Solvent: Mass ratio of component to other component of binary solvent of ethanol	Molality, mol/kg of cesium nitrate	uncertainty
298.15	0	1.396	0.0188
298.15	0.06158	1.062	0.017
298.15	0.1648	0.7953	0.0119
298.15	0.2615	0.6059	0.0096
298.15	0.4025	0.57	0.0078
298.15	0.5373	0.4047	0.0064
298.15	0.7171	0.3897	0.0049
298.15	0.9132	0.2695	0.0038
298.15	1.18	0.2149	0.003
298.15	1.585	0.1435	0.0023
298.15	2.177	0.08291	0.00184
298.15	5.046	0.02708	0.00065
308.15	0	2.006	0.0248
308.15	0.1584	1.267	0.0169
308.15	0.2358	1.058	0.0139
308.15	0.339	0.8779	0.0104
308.15	0.4013	0.7824	0.0095
308.15	0.8606	0.4474	0.0056
308.15	1.291	0.2956	0.0037
308.15	1.397	0.2703	0.0032
308.15	2.372	0.1445	0.0019
308.15	3.711	0.0826	0.0009
308.15	6.412	0.04578	0.0006
308.15	10.85	0.0358	0.0267
318.15	0	2.797	0.0327
318.15	0.06947	2.271	0.0273
318.15	0.249	1.508	0.0195
318.15	0.4217	1.072	0.0139
318.15	0.7954	0.6552	0.0075
318.15	0.8827	0.6044	0.0071
318.15	1.575	0.3097	0.0042
318.15	2.044	0.2119	0.0024
318.15	2.967	0.1249	0.0015
318.15	5.072	0.04777	0.00106

System: ethanol + water + cesium nitrate; phases: Liquid, Crystal
Fixed: Pressure, kPa = 101
Fixed: Wavelength, nm = 852.1
Property: Refractive index (other wavelength) (Liquid); method: OTHER
Temperature, K	Solvent: Mass ratio of component to other component of binary solvent of ethanol	Refractive index (other wavelength)	uncertainty
298.15	0	1.3475	0.002
298.15	0.04806	1.3477	0.002
298.15	0.1225	1.3506	0.002
298.15	0.1854	1.3529	0.002
298.15	0.2583	1.356	0.002
298.15	0.324	1.3581	0.002
298.15	0.3881	1.3593	0.002
298.15	0.4535	1.361	0.002
298.15	0.5196	1.3623	0.002
298.15	0.5965	1.3624	0.002
298.15	0.6743	1.3627	0.002
298.15	0.8302	1.363	0.002
308.15	0	1.353	0.002
308.15	0.1096	1.3535	0.002
308.15	0.1582	1.355	0.002
308.15	0.2162	1.3565	0.002
308.15	0.2485	1.356	0.002
308.15	0.4254	1.3586	0.002
308.15	0.5329	1.3587	0.002
308.15	0.5537	1.3595	0.002
308.15	0.6842	1.36	0.002
308.15	0.7752	1.3597	0.002
308.15	0.8574	1.3591	0.002
308.15	0.9092	1.3584	0.002
318.15	0	1.3582	0.002
318.15	0.04503	1.358	0.002
318.15	0.1541	1.3579	0.002
318.15	0.2454	1.358	0.002
318.15	0.3928	1.3582	0.002
318.15	0.4194	1.3575	0.002
318.15	0.5768	1.3577	0.002
318.15	0.6448	1.3578	0.002
318.15	0.7301	1.3561	0.002
318.15	0.8276	1.3555	0.002

System: propan-1-ol + water + cesium nitrate; phases: Liquid, Crystal
Fixed: Pressure, kPa = 101
Property: Molality, mol/kg of cesium nitrate (Liquid); method: atomic absorption spectrometry (AAS); evaporation method
Temperature, K	Solvent: Mass ratio of component to other component of binary solvent of propan-1-ol	Molality, mol/kg of cesium nitrate	uncertainty
298.15	0	1.396	0.019
298.15	0.01698	1.301	0.018
298.15	0.06091	1.131	0.015
298.15	0.1982	0.8276	0.0115
298.15	0.2953	0.7008	0.0114
298.15	0.3904	0.6254	0.0088
298.15	0.5735	0.5131	0.0075
298.15	0.9154	0.352	0.0048
298.15	1.256	0.2566	0.0036
298.15	2.217	0.1097	0.0015
298.15	3.448	0.05849	0.00082
298.15	5.322	0.02496	0.00043
298.15	12.72	0.007717	0.000157
308.15	0	2.006	0.025
308.15	0.1109	1.478	0.018
308.15	0.135	1.408	0.017
308.15	0.184	1.275	0.016
308.15	0.411	0.9194	0.0118
308.15	0.4924	0.8327	0.0106
308.15	0.729	0.6357	0.0083
308.15	0.84	0.568	0.0071
308.15	0.8686	0.5521	0.0071
308.15	0.9866	0.4897	0.0064
308.15	1.137	0.421	0.0051
308.15	1.607	0.2822	0.0036
308.15	2	0.2146	0.0026
308.15	3.008	0.1096	0.0013
308.15	4.133	0.06147	0.00082
308.15	11.32	0.01775	0.00018
318.15	0	2.797	0.033
318.15	0.1933	1.812	0.023
318.15	0.3066	1.508	0.017
318.15	0.426	1.282	0.016
318.15	0.7319	0.8994	0.0108
318.15	0.845	0.7881	0.0094
318.15	1.212	0.549	0.007
318.15	1.677	0.3712	0.0046
318.15	2.136	0.2589	0.0032
318.15	2.848	0.1663	0.002
318.15	3.738	0.09902	0.00138
318.15	6.478	0.03891	0.0007

System: propan-1-ol + water + cesium nitrate; phases: Liquid, Crystal
Fixed: Pressure, kPa = 101
Fixed: Wavelength, nm = 852.1
Property: Refractive index (other wavelength) (Liquid); method: OTHER
Temperature, K	Solvent: Mass ratio of component to other component of binary solvent of propan-1-ol	Refractive index (other wavelength)	uncertainty
298.15	0	1.3475	0.002
298.15	0.01332	1.348	0.002
298.15	0.04704	1.3499	0.002
298.15	0.1424	1.3555	0.002
298.15	0.2006	1.359	0.002
298.15	0.2503	1.3602	0.002
298.15	0.3313	1.3646	0.002
298.15	0.4472	1.37	0.002
298.15	0.5302	1.3726	0.002
298.15	0.6747	1.3766	0.002
298.15	0.7664	1.3794	0.002
298.15	0.8377	1.3805	0.002
298.15	0.9257	1.383	0.002
308.15	0	1.353	0.002
308.15	0.07747	1.3557	0.002
308.15	0.09334	1.3565	0.002
308.15	0.1245	1.3568	0.002
308.15	0.247	1.361	0.002
308.15	0.2839	1.3622	0.002
308.15	0.3752	1.3656	0.002
308.15	0.411	1.3666	0.002
308.15	0.4197	1.366	0.002
308.15	0.4534	1.3678	0.002
308.15	0.4917	1.3685	0.002
308.15	0.5843	1.3716	0.002
308.15	0.6399	1.3727	0.002
308.15	0.7348	1.375	0.002
308.15	0.7957	1.3765	0.002
308.15	0.9157	1.3785	0.002
318.15	0	1.3582	0.002
318.15	0.1197	1.36	0.002
318.15	0.1814	1.3605	0.002
318.15	0.239	1.3616	0.002
318.15	0.3596	1.3643	0.002
318.15	0.397	1.366	0.002
318.15	0.4949	1.3672	0.002
318.15	0.5842	1.3685	0.002
318.15	0.6484	1.3689	0.002
318.15	0.7169	1.3709	0.002
318.15	0.774	1.3722	0.002
318.15	0.8598	1.3735	0.002

System: propan-2-ol + water + cesium nitrate; phases: Liquid, Crystal
Fixed: Pressure, kPa = 101
Property: Molality, mol/kg of cesium nitrate (Liquid); method: atomic absorption spectrometry (AAS); evaporation method
Temperature, K	Solvent: Mass ratio of component to other component of binary solvent of propan-2-ol	Molality, mol/kg of cesium nitrate	uncertainty
298.15	0	1.396	0.019
298.15	0.01613	1.277	0.018
298.15	0.1613	0.8194	0.0114
298.15	0.2367	0.6921	0.0101
298.15	0.2842	0.6295	0.0091
298.15	0.3347	0.5787	0.0088
298.15	0.3886	0.5346	0.0076
298.15	0.5064	0.4526	0.0064
298.15	0.71	0.3577	0.005
298.15	0.9012	0.2921	0.004
298.15	1.155	0.2253	0.0032
298.15	1.525	0.1597	0.0023
298.15	3.127	0.05073	0.00053
298.15	4.953	0.01951	0.0007
298.15	9.725	0.008389	0.000125
308.15	0	2.006	0.025
308.15	0.06334	1.597	0.022
308.15	0.1423	1.306	0.017
308.15	0.2165	1.094	0.014
308.15	0.3087	0.9286	0.0119
308.15	0.4123	0.7865	0.0103
308.15	0.5276	0.6757	0.0088
308.15	0.6329	0.5885	0.0072
308.15	0.7781	0.5096	0.0064
308.15	0.9588	0.4131	0.0053
308.15	1.105	0.3526	0.0045
308.15	1.445	0.2549	0.0032
308.15	1.987	0.1712	0.0022
308.15	2.773	0.105	0.001
308.15	3.413	0.07378	0.00107
308.15	7.002	0.01927	0.00021
318.15	0	2.797	0.033
318.15	0.1458	1.857	0.023
318.15	0.1921	1.663	0.019
318.15	0.386	1.18	0.014
318.15	0.4729	1.035	0.012
318.15	0.722	0.7527	0.0086
318.15	0.8186	0.6726	0.0079
318.15	0.9105	0.6121	0.0071
318.15	1.05	0.532	0.0064
318.15	1.564	0.329	0.0043
318.15	1.947	0.243	0.003
318.15	2.649	0.1503	0.0016
318.15	5.471	0.0383	0.0009

System: propan-2-ol + water + cesium nitrate; phases: Liquid, Crystal
Fixed: Pressure, kPa = 101
Fixed: Wavelength, nm = 852.1
Property: Refractive index (other wavelength) (Liquid); method: OTHER
Temperature, K	Solvent: Mass ratio of component to other component of binary solvent of propan-2-ol	Refractive index (other wavelength)	uncertainty
298.15	0	1.3475	0.002
298.15	0.01271	1.3489	0.002
298.15	0.1198	1.353	0.002
298.15	0.1686	1.3559	0.002
298.15	0.1971	1.3585	0.002
298.15	0.2253	1.3589	0.002
298.15	0.2534	1.3611	0.002
298.15	0.3089	1.3635	0.002
298.15	0.3881	1.3659	0.002
298.15	0.4485	1.3675	0.002
298.15	0.5135	1.3697	0.002
298.15	0.5858	1.3725	0.002
298.15	0.7503	1.3732	0.002
298.15	0.8289	1.3755	0.002
298.15	0.9053	1.376	0.002
308.15	0	1.353	0.002
308.15	0.04543	1.3535	0.002
308.15	0.09932	1.3558	0.002
308.15	0.1467	1.3585	0.002
308.15	0.1998	1.3607	0.002
308.15	0.2531	1.361	0.002
308.15	0.3052	1.362	0.002
308.15	0.3477	1.3637	0.002
308.15	0.3981	1.3653	0.002
308.15	0.453	1.366	0.002
308.15	0.4912	1.3674	0.002
308.15	0.563	1.3678	0.002
308.15	0.6438	1.3686	0.002
308.15	0.7203	1.3704	0.002
308.15	0.7624	1.371	0.002
308.15	0.8718	1.3708	0.002
318.15	0	1.3582	0.002
318.15	0.0934	1.358	0.002
318.15	0.1217	1.3589	0.002
318.15	0.2264	1.3601	0.002
318.15	0.2672	1.3616	0.002
318.15	0.3657	1.3631	0.002
318.15	0.3979	1.363	0.002
318.15	0.4258	1.3638	0.002
318.15	0.4641	1.364	0.002
318.15	0.5732	1.3653	0.002
318.15	0.6308	1.3665	0.002
318.15	0.7053	1.367	0.002
318.15	0.8392	1.3671	0.002

System: 2-methylpropan-2-ol + water + cesium nitrate; phases: Liquid, Crystal
Fixed: Pressure, kPa = 101
Property: Molality, mol/kg of cesium nitrate (Liquid); method: atomic absorption spectrometry(AAS); evaporation method
Temperature, K	Solvent: Mass ratio of component to other component of binary solvent of 2-methylpropan-2-ol	Molality, mol/kg of cesium nitrate	uncertainty
298.15	0	1.396	0.019
298.15	0.02237	1.215	0.018
298.15	0.09533	0.9702	0.0144
298.15	0.1266	0.8917	0.0139
298.15	0.1503	0.8322	0.0126
298.15	0.2032	0.7439	0.012
298.15	0.2709	0.6639	0.0108
298.15	0.3308	0.6044	0.0094
298.15	0.4361	0.5238	0.009
298.15	0.521	0.4733	0.0089
298.15	0.8848	0.3206	0.0043
298.15	1.415	0.1993	0.0029
298.15	3.513	0.05402	0.00056
308.15	0	2.006	0.025
308.15	0.1075	1.467	0.019
308.15	0.1802	1.252	0.016
308.15	0.2493	1.112	0.014
308.15	0.3585	0.9425	0.0126
308.15	0.7629	0.5372	0.0061
308.15	0.9925	0.4556	0.0053
308.15	1.272	0.3542	0.0042
308.15	1.928	0.2082	0.0027
308.15	2.884	0.1017	0.0014
308.15	4.762	0.03907	0.0004
308.15	9.782	0.01142	0.02661
318.15	0	2.797	0.033
318.15	0.1521	1.899	0.024
318.15	0.3125	1.44	0.017
318.15	0.6177	0.7953	0.0099
318.15	1.119	0.4867	0.0057
318.15	1.446	0.4114	0.0046
318.15	1.874	0.2974	0.0035
318.15	2.226	0.2235	0.0028
318.15	3.745	0.07501	0.00138

System: 2-methylpropan-2-ol + water + cesium nitrate; phases: Liquid, Crystal
Fixed: Pressure, kPa = 101
Fixed: Wavelength, nm = 852.1
Property: Refractive index (other wavelength) (Liquid); method: OTHER
Temperature, K	Solvent: Mass ratio of component to other component of binary solvent of 2-methylpropan-2-ol	Refractive index (other wavelength)	uncertainty
298.15	0	1.3475	0.002
298.15	0.01769	1.347	0.002
298.15	0.07319	1.3519	0.002
298.15	0.09575	1.353	0.002
298.15	0.1125	1.354	0.002
298.15	0.1475	1.3556	0.002
298.15	0.1887	1.3594	0.002
298.15	0.2224	1.3619	0.002
298.15	0.2755	1.3641	0.002
298.15	0.3136	1.366	0.002
298.15	0.4418	1.3726	0.002
298.15	0.564	1.3765	0.002
298.15	0.7703	1.3823	0.002
308.15	0	1.353	0.002
308.15	0.0755	1.356	0.002
308.15	0.1227	1.3584	0.002
308.15	0.164	1.3606	0.002
308.15	0.223	1.364	0.002
308.15	0.3917	1.367	0.002
308.15	0.4575	1.37	0.002
308.15	0.5236	1.3719	0.002
308.15	0.6327	1.3741	0.002
308.15	0.7281	1.375	0.002
308.15	0.8202	1.3765	0.002
308.15	0.9052	1.3786	0.002
318.15	0	1.3582	0.002
318.15	0.09635	1.3607	0.002
318.15	0.1859	1.3636	0.002
318.15	0.3306	1.3666	0.002
318.15	0.4824	1.3702	0.002
318.15	0.5473	1.3705	0.002
318.15	0.6163	1.371	0.002
318.15	0.6613	1.3717	0.002
318.15	0.7779	1.3726	0.002
