Measured thermophysical data. Viscosity and Density of the Nonelectrolyte System Mannitol + Sorbitol + Sucrose + H2O and Its Binary and Ternary Subsystems at 298.15 K
Source: J. Chem. Eng. Data, 2006, 10.1021/je0503608
Compound 1: mannitol, C6H14O6, InChI=1S/C6H14O6/c7-1-3(9)5(11)6(12)4(10)2-8/h3-12H,1-2H2/t3-,4-,5-,6-/m1/s1
Compound 2: D-sorbitol, C6H14O6, InChI=1S/C6H14O6/c7-1-3(9)5(11)6(12)4(10)2-8/h3-12H,1-2H2/t3-,4+,5-,6-/m1/s1
Compound 3: D-sucrose, C12H22O11, InChI=1S/C12H22O11/c13-1-4-6(16)8(18)9(19)11(21-4)23-12(3-15)10(20)7(17)5(2-14)22-12/h4-11,13-20H,1-3H2/t4-,5-,6-,7-,8+,9-,10+,11-,12+/m1/s1
Compound 4: water, H2O, InChI=1S/H2O/h1H2

System: mannitol + water; phases: Liquid
Fixed: Temperature, K = 298.15
Fixed: Pressure, kPa = 101
Property: Viscosity, Pa*s (Liquid); method: Capillary tube (Ostwald; Ubbelohde) method
Molality, mol/kg of mannitol	Viscosity, Pa*s	uncertainty
0.1999	0.0009818	7.8e-06
0.4002	0.0010852	8.6e-06
0.5998	0.0011905	9.3e-06
0.8006	0.0013113	1.02e-05
0.9995	0.0014422	1.12e-05

System: mannitol + water; phases: Liquid
Fixed: Temperature, K = 298.15
Fixed: Pressure, kPa = 101
Property: Mass density, kg/m3 (Liquid); method: VIBTUB:UFactor:4
Molality, mol/kg of mannitol	Mass density, kg/m3	uncertainty
0.1999	1009.02	0.54
0.4002	1020.81	0.55
0.5998	1031.84	0.56
0.8006	1042.59	0.57
0.9995	1051.72	0.57

System: D-sorbitol + water; phases: Liquid
Fixed: Temperature, K = 298.15
Fixed: Pressure, kPa = 101
Property: Viscosity, Pa*s (Liquid); method: Capillary tube (Ostwald; Ubbelohde) method
Molality, mol/kg of D-sorbitol	Viscosity, Pa*s	uncertainty
0.5085	0.001258	9.8e-06
0.9996	0.0016121	1.24e-05
1.9508	0.0023286	1.77e-05
2.998	0.003435	2.59e-05
4.0003	0.0052208	3.9e-05
4.997	0.007896	5.67e-05
5.9945	0.011282	7.9e-05

System: D-sorbitol + water; phases: Liquid
Fixed: Temperature, K = 298.15
Fixed: Pressure, kPa = 101
Property: Mass density, kg/m3 (Liquid); method: VIBTUB:UFactor:4
Molality, mol/kg of D-sorbitol	Mass density, kg/m3	uncertainty
0.5085	1011.67	0.54
0.9996	1052.99	0.58
1.9508	1098.73	0.62
2.998	1131.74	0.66
4.0003	1160.61	0.7
4.997	1186.96	0.73
5.9945	1205.21	0.75

System: D-sucrose + water; phases: Liquid
Fixed: Temperature, K = 298.15
Fixed: Pressure, kPa = 101
Property: Viscosity, Pa*s (Liquid); method: Capillary tube (Ostwald; Ubbelohde) method
Molality, mol/kg of D-sucrose	Viscosity, Pa*s	uncertainty
0.4998	0.0013786	1.07e-05
1.0169	0.002182	1.66e-05
1.4918	0.0033798	2.54e-05
1.9855	0.00537	3.97e-05
2.5091	0.0085359	6.05e-05
2.9018	0.0122306	8.67e-05
3.5582	0.0215852	0.0001489

System: D-sucrose + water; phases: Liquid
Fixed: Temperature, K = 298.15
Fixed: Pressure, kPa = 101
Property: Mass density, kg/m3 (Liquid); method: VIBTUB:UFactor:4
Molality, mol/kg of D-sucrose	Mass density, kg/m3	uncertainty
0.4998	1057.15	0.59
1.0169	1105.66	0.64
1.4918	1142.43	0.68
1.9855	1175.15	0.72
2.5091	1205.32	0.76
2.9018	1225.58	0.78
3.5582	1256.01	0.83

System: D-sorbitol + mannitol + water; phases: Liquid
Fixed: Temperature, K = 298.15
Fixed: Pressure, kPa = 101
Property: Kinematic viscosity, m2/s (Liquid); method: Capillary tube (Ostwald; Ubbelohde) method
Molality, mol/kg of mannitol	Molality, mol/kg of D-sorbitol	Kinematic viscosity, m2/s	uncertainty
0.0809	0.0605	9.862e-07	9.3e-09
0.1012	0.1528	1.0667e-06	1e-08
0.1254	0.5001	1.2841e-06	1.18e-08
0.1528	0.1482	1.0776e-06	1.01e-08
0.1652	0.6625	1.3995e-06	1.28e-08
0.2028	0.1989	1.1264e-06	1.05e-08
0.2133	0.8513	1.533e-06	1.39e-08
0.2511	0.375	1.2515e-06	1.16e-08
0.2582	0.2619	1.1853e-06	1.1e-08
0.3061	0.3106	1.2309e-06	1.14e-08
0.3302	0.4967	1.3655e-06	1.25e-08
0.357	0.3617	1.2912e-06	1.19e-08
0.3766	0.25	1.2212e-06	1.13e-08
0.4219	0.436	1.3697e-06	1.26e-08
0.4263	0.5314	1.4345e-06	1.31e-08
0.4944	0.3317	1.3345e-06	1.23e-08
0.5018	0.5022	1.4521e-06	1.33e-08
0.502	0.1251	1.1968e-06	1.11e-08
0.6398	0.3036	1.3916e-06	1.27e-08
0.6593	0.166	1.3038e-06	1.2e-08
0.706	0.2861	1.4105e-06	1.29e-08
0.8528	0.133	1.3847e-06	1.27e-08
0.8588	0.2055	1.4358e-06	1.31e-08
0.9008	0.1252	1.4072e-06	1.29e-08

System: D-sorbitol + mannitol + water; phases: Liquid
Fixed: Temperature, K = 298.15
Fixed: Pressure, kPa = 101
Property: Mass density, kg/m3 (Liquid); method: VIBTUB:UFactor:4
Molality, mol/kg of mannitol	Molality, mol/kg of D-sorbitol	Mass density, kg/m3	uncertainty
0.0809	0.0605	989.64	0.54
0.1012	0.1528	994.52	0.54
0.1254	0.5001	1025.58	0.56
0.1528	0.1482	1002.15	0.56
0.1652	0.6625	1041	0.57
0.2028	0.1989	1010.76	0.55
0.2133	0.8513	1056.82	0.59
0.2511	0.375	1026.86	0.56
0.2582	0.2619	1020.5	0.55
0.3061	0.3106	1028.21	0.56
0.3302	0.4967	1042.95	0.57
0.357	0.3617	1035.5	0.57
0.3766	0.25	1029.8	0.56
0.4219	0.436	1044.93	0.58
0.4263	0.5314	1050.94	0.58
0.4944	0.3317	1043.51	0.57
0.5018	0.5022	1053.62	0.58
0.502	0.1251	1031.62	0.56
0.6398	0.3036	1048.02	0.57
0.6593	0.166	1043.62	0.57
0.706	0.2861	1051.05	0.58
0.8528	0.133	1051.56	0.57
0.8588	0.2055	1054.91	0.58
0.9008	0.1252	1052.08	0.57

System: D-sucrose + mannitol + water; phases: Liquid
Fixed: Temperature, K = 298.15
Fixed: Pressure, kPa = 101
Property: Kinematic viscosity, m2/s (Liquid); method: Capillary tube (Ostwald; Ubbelohde) method
Molality, mol/kg of mannitol	Molality, mol/kg of D-sucrose	Kinematic viscosity, m2/s	uncertainty
0.1008	0.0499	9.252e-07	8.8e-09
0.1208	0.2502	1.1217e-06	1.04e-08
0.1285	0.0608	9.571e-07	9e-09
0.1344	0.4912	1.3782e-06	1.26e-08
0.1588	0.306	1.2038e-06	1.11e-08
0.1797	0.6432	1.5857e-06	1.44e-08
0.2371	0.8271	1.8834e-06	1.69e-08
0.2589	0.2502	1.209e-06	1.12e-08
0.2643	0.3619	1.3188e-06	1.21e-08
0.3016	0.306	1.2842e-06	1.18e-08
0.3186	0.1589	1.1519e-06	1.07e-08
0.3186	0.4268	1.4222e-06	1.3e-08
0.3513	0.4719	1.4935e-06	1.36e-08
0.3895	0.2372	1.2622e-06	1.16e-08
0.4218	0.1985	1.243e-06	1.15e-08
0.4601	0.6037	1.7364e-06	1.57e-08
0.5104	0.1167	1.2176e-06	1.13e-08
0.5157	0.3078	1.4119e-06	1.29e-08
0.6731	0.1506	1.341e-06	1.23e-08
0.6731	0.3926	1.6129e-06	1.46e-08
0.8748	0.1912	1.5083e-06	1.37e-08

System: D-sucrose + mannitol + water; phases: Liquid
Fixed: Temperature, K = 298.15
Fixed: Pressure, kPa = 101
Property: Mass density, kg/m3 (Liquid); method: VIBTUB:UFactor:4
Molality, mol/kg of mannitol	Molality, mol/kg of D-sucrose	Mass density, kg/m3	uncertainty
0.1008	0.0499	1009.12	0.55
0.1208	0.2502	1035.25	0.57
0.1285	0.0608	1012.51	0.56
0.1344	0.4912	1061.97	0.59
0.1588	0.306	1043.37	0.58
0.1797	0.6432	1078.73	0.61
0.2371	0.8271	1096.69	0.63
0.2589	0.2502	1042.04	0.58
0.2643	0.3619	1054.34	0.59
0.3016	0.306	1050.17	0.58
0.3186	0.1589	1034.83	0.57
0.3186	0.4268	1063.48	0.59
0.3513	0.4719	1069.33	0.6
0.3895	0.2372	1047.04	0.58
0.4218	0.1985	1044.46	0.58
0.4601	0.6037	1084.8	0.61
0.5104	0.1167	1040.06	0.57
0.5157	0.3078	1060.4	0.59
0.6731	0.1506	1051.92	0.58
0.6731	0.3926	1073.83	0.6
0.8748	0.1912	1063.56	0.59

System: D-sorbitol + D-sucrose + water; phases: Liquid
Fixed: Temperature, K = 298.15
Fixed: Pressure, kPa = 101
Property: Kinematic viscosity, m2/s (Liquid); method: Capillary tube (Ostwald; Ubbelohde) method
Molality, mol/kg of D-sorbitol	Molality, mol/kg of D-sucrose	Kinematic viscosity, m2/s	uncertainty
0.1344	0.4912	1.4125e-06	1.29e-08
0.1797	0.6432	1.6288e-06	1.48e-08
0.2065	0.1969	1.1928e-06	1.11e-08
0.2371	0.8275	1.9293e-06	1.73e-08
0.2519	2.5619	8.0978e-06	6.56e-08
0.2591	0.2608	1.2907e-06	1.19e-08
0.2643	0.3619	1.3883e-06	1.27e-08
0.3036	0.3064	1.3649e-06	1.25e-08
0.3513	0.4719	1.5706e-06	1.43e-08
0.356	0.3422	1.4349e-06	1.31e-08
0.3895	0.2372	1.3594e-06	1.25e-08
0.4017	0.3862	1.5129e-06	1.38e-08
0.4601	0.604	1.8204e-06	1.64e-08
0.5104	0.1168	1.3384e-06	1.23e-08
0.5157	0.3078	1.5199e-06	1.38e-08
0.5267	2.0098	5.8126e-06	4.9e-08
0.6482	0.6607	2.0694e-06	1.85e-08
0.6731	0.1507	1.4683e-06	1.34e-08
0.6731	0.3923	1.7229e-06	1.56e-08
0.8125	0.8258	2.5154e-06	2.23e-08
0.8748	0.191	1.645e-06	1.49e-08
1.0316	1.0588	3.3058e-06	2.9e-08
1.2288	1.2069	4.0233e-06	3.5e-08
1.5059	1.616	6.1462e-06	5.13e-08
1.6842	0.4681	2.6957e-06	2.39e-08
1.8125	1.8036	7.9006e-06	6.38e-08
2.1968	0.3037	2.8658e-06	2.53e-08
2.2167	0.4812	3.3006e-06	2.9e-08
2.5006	0.1267	2.7886e-06	2.46e-08

System: D-sorbitol + D-sucrose + water; phases: Liquid
Fixed: Temperature, K = 298.15
Fixed: Pressure, kPa = 101
Property: Mass density, kg/m3 (Liquid); method: VIBTUB:UFactor:4
Molality, mol/kg of D-sorbitol	Molality, mol/kg of D-sucrose	Mass density, kg/m3	uncertainty
0.1344	0.4912	1060.7	0.59
0.1797	0.6432	1078.85	0.61
0.2065	0.1969	1023.02	0.57
0.2371	0.8275	1098.92	0.63
0.2519	2.5619	1212.06	0.77
0.2591	0.2608	1036.65	0.58
0.2643	0.3619	1050.96	0.59
0.3036	0.3064	1045.9	0.58
0.3513	0.4719	1068.86	0.6
0.356	0.3422	1053.86	0.59
0.3895	0.2372	1041.6	0.58
0.4017	0.3862	1061.8	0.6
0.4601	0.604	1088.25	0.62
0.5104	0.1168	1032.56	0.58
0.5157	0.3078	1059.15	0.6
0.5267	2.0098	1189.18	0.74
0.6482	0.6607	1101.2	0.63
0.6731	0.1507	1049.89	0.59
0.6731	0.3923	1077.63	0.61
0.8125	0.8258	1120.37	0.65
0.8748	0.191	1067.5	0.6
1.0316	1.0588	1143.64	0.68
1.2288	1.2069	1158.68	0.7
1.5059	1.616	1188.96	0.74
1.6842	0.4681	1123.26	0.65
1.8125	1.8036	1206.01	0.76
2.1968	0.3037	1128.36	0.66
2.2167	0.4812	1139.96	0.67
2.5006	0.1267	1125.69	0.66
