Measured thermophysical data. Excess Enthalpies, Heat Capacities, Densities, Viscosities and Refractive Indices of Dimethyl Sulfoxide + Three Aryl Alcohols at 308.15 K and Atmospheric Pressure
Source: J. Chem. Eng. Data, 2005, 10.1021/je0501991
Compound 1: dimethyl sulfoxide, C2H6OS, InChI=1S/C2H6OS/c1-4(2)3/h1-2H3
Compound 2: benzenemethanol, C7H8O, InChI=1S/C7H8O/c8-6-7-4-2-1-3-5-7/h1-5,8H,6H2
Compound 3: 2-phenylethanol, C8H10O, InChI=1S/C8H10O/c9-7-6-8-4-2-1-3-5-8/h1-5,9H,6-7H2
Compound 4: 3-phenyl-1-propanol, C9H12O, InChI=1S/C9H12O/c10-8-4-7-9-5-2-1-3-6-9/h1-3,5-6,10H,4,7-8H2

System: dimethyl sulfoxide; phases: Liquid
Fixed: Pressure, kPa = 101.325
Property: Viscosity, Pa*s (Liquid); method: Capillary tube (Ostwald; Ubbelohde) method
Temperature, K	Viscosity, Pa*s	uncertainty
298.15	0.001989	2.3e-05
308.15	0.001645	1.9e-05

System: dimethyl sulfoxide; phases: Liquid
Fixed: Pressure, kPa = 101.325
Property: Refractive index (Na D-line) (Liquid); method: Standard Abbe refractometry
Temperature, K	Refractive index (Na D-line)	uncertainty
298.15	1.4775	0.0004
308.15	1.473	0.0004

System: dimethyl sulfoxide; phases: Liquid
Fixed: Pressure, kPa = 101.325
Property: Mass density, kg/m3 (Liquid); method: Vibrating tube method
Temperature, K	Mass density, kg/m3	uncertainty
298.15	1095.68	0.09
308.15	1085.31	0.09

System: benzenemethanol; phases: Liquid
Fixed: Pressure, kPa = 101.325
Property: Viscosity, Pa*s (Liquid); method: CAPTUB:UFactor:2
Temperature, K	Viscosity, Pa*s	uncertainty
298.15	0.005211	7.6e-05
308.15	0.004125	6.2e-05

System: benzenemethanol; phases: Liquid
Fixed: Pressure, kPa = 101.325
Property: Refractive index (Na D-line) (Liquid); method: Standard Abbe refractometry
Temperature, K	Refractive index (Na D-line)	uncertainty
298.15	1.5377	0.0005
308.15	1.535	0.0005

System: benzenemethanol; phases: Liquid
Fixed: Pressure, kPa = 101.325
Property: Mass density, kg/m3 (Liquid); method: VIBTUB:UFactor:4
Temperature, K	Mass density, kg/m3	uncertainty
298.15	1041.65	0.27
308.15	1033.66	0.25

System: 2-phenylethanol; phases: Liquid
Property: Refractive index (Na D-line) (Liquid); method: Standard Abbe refractometry
Temperature, K	Pressure, kPa	Refractive index (Na D-line)	uncertainty
308.15	101.325	1.5267	0.0008

System: 2-phenylethanol; phases: Liquid
Property: Mass density, kg/m3 (Liquid); method: VIBTUB:UFactor:4
Temperature, K	Pressure, kPa	Mass density, kg/m3	uncertainty
308.15	101.325	1008.79	0.54

System: 2-phenylethanol; phases: Liquid
Property: Viscosity, Pa*s (Liquid); method: CAPTUB:UFactor:2
Temperature, K	Pressure, kPa	Viscosity, Pa*s	uncertainty
308.15	101.325	0.007438	0.00012

System: 3-phenyl-1-propanol; phases: Liquid
Property: Refractive index (Na D-line) (Liquid); method: Standard Abbe refractometry
Temperature, K	Pressure, kPa	Refractive index (Na D-line)	uncertainty
308.15	101.325	1.521	0.001

System: 3-phenyl-1-propanol; phases: Liquid
Property: Mass density, kg/m3 (Liquid); method: VIBTUB:UFactor:4
Temperature, K	Pressure, kPa	Mass density, kg/m3	uncertainty
308.15	101.325	991.17	0.53

System: 3-phenyl-1-propanol; phases: Liquid
Property: Viscosity, Pa*s (Liquid); method: CAPTUB:UFactor:2
Temperature, K	Pressure, kPa	Viscosity, Pa*s	uncertainty
298.15	101.325	0.010126	0.00017

System: dimethyl sulfoxide + benzenemethanol; phases: Liquid
Fixed: Temperature, K = 308.15
Fixed: Pressure, kPa = 101.325
Property: Excess molar enthalpy (molar enthalpy of mixing), kJ/mol (Liquid); method: FLOW:UFactor:2
Mole fraction of dimethyl sulfoxide	Excess molar enthalpy (molar enthalpy of mixing), kJ/mol	uncertainty
0.0571	-0.476	0.009
0.108	-0.811	0.015
0.1537	-1.04	0.019
0.195	-1.217	0.022
0.2666	-1.39	0.025
0.3264	-1.497	0.027
0.4209	-1.499	0.027
0.492	-1.424	0.026
0.5924	-1.272	0.023
0.6856	-1.033	0.019
0.744	-0.841	0.016
0.8135	-0.613	0.012
0.8532	-0.495	0.01
0.8971	-0.345	0.007
0.9208	-0.257	0.006
0.9457	-0.164	0.004
0.9721	-0.088	0.003

System: dimethyl sulfoxide + benzenemethanol; phases: Liquid
Fixed: Temperature, K = 308.15
Fixed: Pressure, kPa = 101.325
Property: Viscosity, Pa*s (Liquid); method: CAPTUB:UFactor:2
Mole fraction of dimethyl sulfoxide	Viscosity, Pa*s	uncertainty
0.0641	0.003957	6e-05
0.1255	0.003787	5.7e-05
0.2283	0.00349	5.3e-05
0.3275	0.003201	4.8e-05
0.4152	0.002949	4.4e-05
0.5117	0.002686	4e-05
0.5942	0.002477	3.7e-05
0.6646	0.002306	3.5e-05
0.7406	0.002134	3.2e-05
0.8125	0.001988	3e-05
0.8745	0.001858	2.8e-05
0.9388	0.001748	2.6e-05

System: dimethyl sulfoxide + benzenemethanol; phases: Liquid
Fixed: Temperature, K = 308.15
Fixed: Pressure, kPa = 101.325
Property: Refractive index (Na D-line) (Liquid); method: Standard Abbe refractometry
Mole fraction of dimethyl sulfoxide	Refractive index (Na D-line)	uncertainty
0.0641	1.5328	0.0007
0.1255	1.5297	0.0007
0.2283	1.5252	0.0007
0.3275	1.5204	0.0007
0.4152	1.5157	0.0007
0.5117	1.5099	0.0007
0.5942	1.5048	0.0007
0.6646	1.4998	0.0007
0.7406	1.4946	0.0007
0.8125	1.4891	0.0007
0.8745	1.4838	0.0007
0.9388	1.4785	0.0007

System: dimethyl sulfoxide + benzenemethanol; phases: Liquid
Fixed: Temperature, K = 308.15
Fixed: Pressure, kPa = 101.325
Property: Mass density, kg/m3 (Liquid); method: VIBTUB:UFactor:4
Mole fraction of dimethyl sulfoxide	Mass density, kg/m3	uncertainty
0.0641	1037.17	0.26
0.1255	1040.32	0.27
0.2283	1045.4	0.27
0.3275	1050.05	0.28
0.4152	1054.07	0.29
0.5117	1058.52	0.3
0.5942	1062.41	0.3
0.6646	1065.87	0.31
0.7406	1069.8	0.31
0.8125	1073.74	0.32
0.8745	1077.57	0.33
0.9388	1081.3	0.33

System: dimethyl sulfoxide + benzenemethanol; phases: Liquid
Fixed: Pressure, kPa = 101.325
Property: Molar heat capacity at constant pressure, J/K/mol (Liquid); method: SDSC:UFactor:4
Temperature, K	Mole fraction of dimethyl sulfoxide	Molar heat capacity at constant pressure, J/K/mol	uncertainty
298.15	0	200.4	16
298.15	0.087064	196.4	15.7
298.15	0.143896	189.3	15.1
298.15	0.270827	168.3	13.5
298.15	0.381711	167	13.4
298.15	0.496372	162.3	13
298.15	0.542236	160.1	12.8
298.15	0.596621	159.3	12.7
298.15	0.68632	146.6	11.7
298.15	0.771089	146.9	11.8
298.15	0.857671	149.7	12
298.15	0.923696	149	11.9
298.15	0.950779	146.4	11.7
298.15	1	142.7	11.4
308.15	0	203.9	16.3
308.15	0.087064	201.5	16.1
308.15	0.143896	193.7	15.5
308.15	0.270827	172.9	13.8
308.15	0.381711	170.3	13.6
308.15	0.496372	164.4	13.2
308.15	0.542236	162.4	13
308.15	0.596621	161.5	12.9
308.15	0.68632	149.1	11.9
308.15	0.771089	148.1	11.8
308.15	0.857671	151.2	12.1
308.15	0.923696	150.2	12
308.15	0.950779	147.6	11.8
308.15	1	143.5	11.5
318.15	0	207.2	16.6
318.15	0.087064	206.4	16.5
318.15	0.143896	198.6	15.9
318.15	0.270827	177	14.2
318.15	0.381711	174.1	13.9
318.15	0.496372	166.7	13.3
318.15	0.542236	164.9	13.2
318.15	0.596621	163.6	13.1
318.15	0.68632	150.8	12.1
318.15	0.771089	149.8	12
318.15	0.857671	152.5	12.2
318.15	0.923696	151.4	12.1
318.15	0.950779	148.8	11.9
318.15	1	144.6	11.6

System: 2-phenylethanol + dimethyl sulfoxide; phases: Liquid
Fixed: Temperature, K = 308.15
Fixed: Pressure, kPa = 101.325
Property: Excess molar enthalpy (molar enthalpy of mixing), kJ/mol (Liquid); method: FLOW:UFactor:2
Mole fraction of dimethyl sulfoxide	Excess molar enthalpy (molar enthalpy of mixing), kJ/mol	uncertainty
0.0655	-0.389	0.008
0.123	-0.628	0.012
0.1738	-0.776	0.015
0.219	-0.867	0.016
0.2961	-0.946	0.018
0.3593	-0.975	0.018
0.4569	-0.929	0.017
0.5286	-0.867	0.016
0.6273	-0.732	0.014
0.7163	-0.572	0.011
0.7709	-0.468	0.009
0.8347	-0.345	0.007
0.8707	-0.269	0.006
0.9099	-0.192	0.005
0.9309	-0.147	0.004
0.9528	-0.098	0.003
0.9759	-0.05	0.002

System: 2-phenylethanol + dimethyl sulfoxide; phases: Liquid
Fixed: Temperature, K = 308.15
Fixed: Pressure, kPa = 101.325
Property: Viscosity, Pa*s (Liquid); method: CAPTUB:UFactor:2
Mole fraction of dimethyl sulfoxide	Viscosity, Pa*s	uncertainty
0.0435	0.007049	0.000113
0.1521	0.006133	9.7e-05
0.2758	0.005162	8.1e-05
0.3564	0.004611	7.2e-05
0.4566	0.003976	6.2e-05
0.5477	0.003446	5.3e-05
0.6247	0.003052	4.6e-05
0.7102	0.002652	4e-05
0.7707	0.002398	3.6e-05
0.8346	0.002157	3.2e-05
0.8653	0.002056	3.1e-05
0.9433	0.001806	2.7e-05

System: 2-phenylethanol + dimethyl sulfoxide; phases: Liquid
Fixed: Temperature, K = 308.15
Fixed: Pressure, kPa = 101.325
Property: Refractive index (Na D-line) (Liquid); method: Standard Abbe refractometry
Mole fraction of dimethyl sulfoxide	Refractive index (Na D-line)	uncertainty
0.0435	1.5257	0.0007
0.1521	1.5224	0.0007
0.2758	1.5179	0.0007
0.3564	1.5145	0.0007
0.4566	1.5099	0.0007
0.5477	1.5052	0.0007
0.6247	1.5008	0.0007
0.7102	1.4956	0.0007
0.7707	1.4916	0.0007
0.8346	1.487	0.0007
0.8653	1.4846	0.0007
0.9433	1.4783	0.0007

System: 2-phenylethanol + dimethyl sulfoxide; phases: Liquid
Fixed: Temperature, K = 308.15
Fixed: Pressure, kPa = 101.325
Property: Mass density, kg/m3 (Liquid); method: VIBTUB:UFactor:4
Mole fraction of dimethyl sulfoxide	Mass density, kg/m3	uncertainty
0.0435	1011.25	0.53
0.1521	1017.45	0.49
0.2758	1024.6	0.44
0.3564	1029.49	0.42
0.4566	1035.91	0.39
0.5477	1042.18	0.37
0.6247	1047.95	0.35
0.7102	1054.95	0.34
0.7707	1060.33	0.33
0.8346	1066.5	0.33
0.8653	1069.64	0.33
0.9433	1078.31	0.33

System: 2-phenylethanol + dimethyl sulfoxide; phases: Liquid
Fixed: Pressure, kPa = 101.325
Property: Molar heat capacity at constant pressure, J/K/mol (Liquid); method: SDSC:UFactor:4
Temperature, K	Mole fraction of dimethyl sulfoxide	Molar heat capacity at constant pressure, J/K/mol	uncertainty
298.15	0	239.6	19.2
298.15	0.08581	235	18.8
298.15	0.163767	218.3	17.5
298.15	0.299943	190.7	15.3
298.15	0.420494	185	14.8
298.15	0.518991	185.5	14.8
298.15	0.629341	169.3	13.5
298.15	0.671277	171	13.7
298.15	0.706559	162.6	13
298.15	0.791908	162.7	13
298.15	0.859577	156.2	12.5
298.15	0.937011	157.8	12.6
298.15	0.968842	143.5	11.5
298.15	1	142.7	11.4
308.15	0	245.3	19.6
308.15	0.08581	240.8	19.3
308.15	0.163767	223.2	17.9
308.15	0.299943	194.2	15.5
308.15	0.420494	188.4	15.1
308.15	0.518991	188.2	15.1
308.15	0.629341	171.3	13.7
308.15	0.671277	172.8	13.8
308.15	0.706559	164.6	13.2
308.15	0.791908	164.8	13.2
308.15	0.859577	157.3	12.6
308.15	0.937011	159.6	12.8
308.15	0.968842	144.8	11.6
308.15	1	143.5	11.5
318.15	0	251.6	20.1
318.15	0.08581	246.5	19.7
318.15	0.163767	228.7	18.3
318.15	0.299943	198.1	15.8
318.15	0.420494	191.3	15.3
318.15	0.518991	190.7	15.3
318.15	0.629341	173.6	13.9
318.15	0.671277	174.9	14
318.15	0.706559	166.5	13.3
318.15	0.791908	166.8	13.3
318.15	0.859577	159.1	12.7
318.15	0.937011	160	12.8
318.15	0.968842	145.9	11.7
318.15	1	144.6	11.6

System: dimethyl sulfoxide + 3-phenyl-1-propanol; phases: Liquid
Fixed: Temperature, K = 308.15
Fixed: Pressure, kPa = 101.325
Property: Excess molar enthalpy (molar enthalpy of mixing), kJ/mol (Liquid); method: FLOW:UFactor:2
Mole fraction of dimethyl sulfoxide	Excess molar enthalpy (molar enthalpy of mixing), kJ/mol	uncertainty
0.0737	-0.227	0.005
0.1373	-0.344	0.007
0.1927	-0.398	0.008
0.2414	-0.429	0.009
0.3232	-0.422	0.009
0.389	-0.396	0.008
0.4885	-0.333	0.007
0.56	-0.27	0.006
0.6563	-0.177	0.004
0.7413	-0.09	0.003
0.7925	-0.048	0.002
0.8514	-0.013	0.002
0.8843	0.007	0.002
0.9162	0.014	0.002
0.9386	0.018	0.002
0.9582	0.017	0.002
0.9787	0.011	0.002

System: dimethyl sulfoxide + 3-phenyl-1-propanol; phases: Liquid
Fixed: Temperature, K = 308.15
Fixed: Pressure, kPa = 101.325
Property: Viscosity, Pa*s (Liquid); method: CAPTUB:UFactor:2
Mole fraction of dimethyl sulfoxide	Viscosity, Pa*s	uncertainty
0.0936	0.008592	0.000139
0.1499	0.007792	0.000125
0.277	0.00619	9.7e-05
0.3915	0.005032	7.9e-05
0.4564	0.004488	7e-05
0.578	0.003629	5.6e-05
0.6526	0.00318	4.8e-05
0.7233	0.002801	4.2e-05
0.7879	0.002487	3.8e-05
0.8512	0.002208	3.3e-05
0.9027	0.001993	3e-05
0.9543	0.001801	2.7e-05

System: dimethyl sulfoxide + 3-phenyl-1-propanol; phases: Liquid
Fixed: Temperature, K = 308.15
Fixed: Pressure, kPa = 101.325
Property: Refractive index (Na D-line) (Liquid); method: Standard Abbe refractometry
Mole fraction of dimethyl sulfoxide	Refractive index (Na D-line)	uncertainty
0.0936	1.5188	0.0007
0.1499	1.5172	0.0007
0.277	1.5132	0.0007
0.3915	1.509	0.0007
0.4564	1.5063	0.0007
0.578	1.5008	0.0007
0.6526	1.4969	0.0007
0.7233	1.4931	0.0007
0.7879	1.489	0.0007
0.8512	1.4847	0.0007
0.9027	1.4811	0.0007
0.9543	1.4771	0.0007

System: dimethyl sulfoxide + 3-phenyl-1-propanol; phases: Liquid
Fixed: Temperature, K = 308.15
Fixed: Pressure, kPa = 101.325
Property: Mass density, kg/m3 (Liquid); method: VIBTUB:UFactor:4
Mole fraction of dimethyl sulfoxide	Mass density, kg/m3	uncertainty
0.0936	996.28	0.49
0.1499	999.45	0.47
0.277	1007.07	0.42
0.3915	1014.73	0.39
0.4564	1019.55	0.37
0.578	1029.68	0.34
0.6526	1036.85	0.32
0.7233	1044.45	0.32
0.7879	1052.21	0.31
0.8512	1060.69	0.31
0.9027	1068.4	0.32
0.9543	1076.93	0.33

System: dimethyl sulfoxide + 3-phenyl-1-propanol; phases: Liquid
Fixed: Pressure, kPa = 101
Property: Molar heat capacity at constant pressure, J/K/mol (Liquid); method: SDSC:UFactor:4
Temperature, K	Mole fraction of dimethyl sulfoxide	Molar heat capacity at constant pressure, J/K/mol	uncertainty
298.15	0	276.3	22.1
298.15	0.0905	259.9	20.8
298.15	0.120398	250.3	20
298.15	0.171194	243.4	19.5
298.15	0.337513	211.1	16.9
298.15	0.45199	196.9	15.8
298.15	0.557097	185.1	14.8
298.15	0.610081	185.8	14.9
298.15	0.6567	177	14.2
298.15	0.739632	165.6	13.2
298.15	0.805986	162.2	13
298.15	0.871844	159.2	12.7
298.15	0.94866	148.5	11.9
298.15	1	142.7	11.4
308.15	0	284.1	22.7
308.15	0.0905	265.7	21.3
308.15	0.120398	256	20.5
308.15	0.171194	249.7	20
308.15	0.337513	215.5	17.2
308.15	0.45199	200	16
308.15	0.557097	187.5	15
308.15	0.610081	188.7	15.1
308.15	0.6567	178.3	14.3
308.15	0.739632	167.2	13.4
308.15	0.805986	163.9	13.1
308.15	0.871844	160.5	12.8
308.15	0.94866	149.3	11.9
308.15	1	143.5	11.5
318.15	0	291.8	23.3
318.15	0.0905	273	21.8
318.15	0.120398	262.8	21
318.15	0.171194	256.2	20.5
318.15	0.337513	220	17.6
318.15	0.45199	203.5	16.3
318.15	0.557097	190.7	15.3
318.15	0.610081	191.4	15.3
318.15	0.6567	180.9	14.5
318.15	0.739632	170	13.6
318.15	0.805986	165.4	13.2
318.15	0.871844	161.9	13
318.15	0.94866	151.3	12.1
318.15	1	144.6	11.6
