Measured thermophysical data. Experimental (P, V, T, x) Data for the Mixture Ethyl Nonafluorobutyl Ether + n-Hexane
Source: J. Chem. Eng. Data, 2006, 10.1021/je050407p
Compound 1: hexane, C6H14, InChI=1S/C6H14/c1-3-5-6-4-2/h3-6H2,1-2H3, purity 99.5%
Compound 2: 1-ethoxy-1,1,2,2,3,3,4,4,4-nonafluorobutane, C6H5F9O, InChI=1S/C6H5F9O/c1-2-16-6(14,15)4(9,10)3(7,8)5(11,12)13/h2H2,1H3, purity 99.8%
Compound 3: nonafluoroisobutyl ethyl ether, C6H5F9O, InChI=1S/C6H5F9O/c1-2-16-6(14,15)3(7,4(8,9)10)5(11,12)13/h2H2,1H3, purity 99.8%

System: hexane + 1-ethoxy-1,1,2,2,3,3,4,4,4-nonafluorobutane + nonafluoroisobutyl ethyl ether; phases: Liquid
Fixed: Solvent: Mole fraction of 1-ethoxy-1,1,2,2,3,3,4,4,4-nonafluorobutane = 0.39
Property: Mass density, kg/m3 (Liquid); method: VIBTUB:UFactor:2
Pressure, kPa	Temperature, K	Mole fraction of 1-ethoxy-1,1,2,2,3,3,4,4,4-nonafluorobutane	Mass density, kg/m3	uncertainty
100	283.15	0.02075	722.4	0.6
100	283.15	0.03857	766.8	0.6
100	283.15	0.07352	851.3	0.6
100	283.15	0.11372	942.6	0.5
100	283.15	0.156	1032.6	0.5
100	283.15	0.19067	1102.5	0.5
100	283.15	0.23053	1179.3	0.5
100	283.15	0.27366	1258	0.5
100	283.15	0.31352	1329.2	0.5
100	283.15	0.37417	1431.6	0.6
100	298.15	0.02075	707.4	0.6
100	298.15	0.03857	750.6	0.6
100	298.15	0.07352	832.8	0.5
100	298.15	0.11372	921.3	0.5
100	298.15	0.156	1008.9	0.5
100	298.15	0.19067	1076.8	0.5
100	298.15	0.23053	1151.9	0.5
100	298.15	0.27366	1228.4	0.5
100	298.15	0.31352	1297.2	0.5
100	298.15	0.37417	1397.8	0.6
100	313.15	0.02075	691.7	0.6
100	313.15	0.03857	733.6	0.6
100	313.15	0.07352	813.1	0.5
100	313.15	0.11372	898.9	0.5
100	313.15	0.156	983.9	0.5
100	313.15	0.19067	1049.8	0.5
100	313.15	0.23053	1122.6	0.5
100	313.15	0.27366	1197.1	0.5
100	313.15	0.31352	1264	0.5
100	313.15	0.37417	1362.3	0.5
1000	283.15	0.02075	723.4	0.6
1000	283.15	0.03857	768	0.6
1000	283.15	0.07352	852.5	0.6
1000	283.15	0.11372	944.1	0.5
1000	283.15	0.156	1034.3	0.5
1000	283.15	0.19067	1104.3	0.5
1000	283.15	0.23053	1181.3	0.5
1000	283.15	0.27366	1260.1	0.5
1000	283.15	0.31352	1330.8	0.6
1000	283.15	0.37417	1433.9	0.6
1000	298.15	0.02075	708.4	0.6
1000	298.15	0.03857	751.7	0.6
1000	298.15	0.07352	834.1	0.6
1000	298.15	0.11372	922.9	0.5
1000	298.15	0.156	1010.7	0.5
1000	298.15	0.19067	1078.8	0.5
1000	298.15	0.23053	1154.1	0.5
1000	298.15	0.27366	1230.7	0.5
1000	298.15	0.31352	1299.8	0.5
1000	298.15	0.37417	1400.5	0.6
1000	313.15	0.02075	693.8	0.6
1000	313.15	0.03857	735.9	0.6
1000	313.15	0.07352	815.6	0.5
1000	313.15	0.11372	901.7	0.5
1000	313.15	0.156	987	0.5
1000	313.15	0.19067	1053.1	0.5
1000	313.15	0.23053	1126.1	0.5
1000	313.15	0.27366	1200.9	0.5
1000	313.15	0.31352	1267.9	0.5
1000	313.15	0.37417	1366.3	0.6
2000	283.15	0.02075	724.5	0.6
2000	283.15	0.03857	769.3	0.6
2000	283.15	0.07352	853.9	0.6
2000	283.15	0.11372	945.8	0.5
2000	283.15	0.156	1036.2	0.5
2000	283.15	0.19067	1106.5	0.5
2000	283.15	0.23053	1183.5	0.5
2000	283.15	0.27366	1262.6	0.5
2000	283.15	0.31352	1333.4	0.6
2000	283.15	0.37417	1436.7	0.6
2000	298.15	0.02075	709.7	0.6
2000	298.15	0.03857	753.2	0.6
2000	298.15	0.07352	835.8	0.6
2000	298.15	0.11372	924.8	0.5
2000	298.15	0.156	1012.9	0.5
2000	298.15	0.19067	1081.2	0.5
2000	298.15	0.23053	1156.7	0.5
2000	298.15	0.27366	1233.5	0.5
2000	298.15	0.31352	1302.7	0.5
2000	298.15	0.37417	1403.7	0.6
2000	313.15	0.02075	695.1	0.6
2000	313.15	0.03857	737.4	0.6
2000	313.15	0.07352	817.4	0.5
2000	313.15	0.11372	903.8	0.5
2000	313.15	0.156	989.4	0.5
2000	313.15	0.19067	1055.8	0.5
2000	313.15	0.23053	1129	0.5
2000	313.15	0.27366	1204	0.5
2000	313.15	0.31352	1271.3	0.5
2000	313.15	0.37417	1369.9	0.6
3000	283.15	0.02075	725.6	0.6
3000	283.15	0.03857	770.5	0.6
3000	283.15	0.07352	855.3	0.6
3000	283.15	0.11372	947.3	0.5
3000	283.15	0.156	1038	0.5
3000	283.15	0.19067	1108.4	0.5
3000	283.15	0.23053	1185.7	0.5
3000	283.15	0.27366	1264.9	0.6
3000	283.15	0.31352	1335.9	0.6
3000	283.15	0.37417	1439.3	0.7
3000	298.15	0.02075	710.9	0.6
3000	298.15	0.03857	754.4	0.6
3000	298.15	0.07352	837.3	0.6
3000	298.15	0.11372	926.6	0.5
3000	298.15	0.156	1014.9	0.5
3000	298.15	0.19067	1083.5	0.5
3000	298.15	0.23053	1159.1	0.5
3000	298.15	0.27366	1236.1	0.5
3000	298.15	0.31352	1305.5	0.6
3000	298.15	0.37417	1406.7	0.6
3000	313.15	0.02075	696.5	0.6
3000	313.15	0.03857	738.9	0.6
3000	313.15	0.07352	819.2	0.6
3000	313.15	0.11372	905.9	0.5
3000	313.15	0.156	991.8	0.5
3000	313.15	0.19067	1058.4	0.5
3000	313.15	0.23053	1131.9	0.5
3000	313.15	0.27366	1207	0.5
3000	313.15	0.31352	1274.5	0.5
3000	313.15	0.37417	1373.4	0.6
4000	283.15	0.02075	726.5	0.6
4000	283.15	0.03857	771.4	0.6
4000	283.15	0.07352	856.4	0.6
4000	283.15	0.11372	948.7	0.5
4000	283.15	0.156	1039.6	0.5
4000	283.15	0.19067	1110.2	0.5
4000	283.15	0.23053	1187.6	0.5
4000	283.15	0.27366	1267	0.6
4000	283.15	0.31352	1338.1	0.6
4000	283.15	0.37417	1441.7	0.7
4000	298.15	0.02075	712	0.6
4000	298.15	0.03857	755.8	0.6
4000	298.15	0.07352	838.8	0.6
4000	298.15	0.11372	928.3	0.5
4000	298.15	0.156	1016.9	0.5
4000	298.15	0.19067	1085.7	0.5
4000	298.15	0.23053	1161.5	0.5
4000	298.15	0.27366	1238.7	0.5
4000	298.15	0.31352	1308.2	0.6
4000	298.15	0.37417	1409.6	0.7
4000	313.15	0.02075	697.8	0.6
4000	313.15	0.03857	740.3	0.6
4000	313.15	0.07352	820.9	0.6
4000	313.15	0.11372	907.9	0.5
4000	313.15	0.156	994.1	0.5
4000	313.15	0.19067	1060.9	0.5
4000	313.15	0.23053	1134.6	0.5
4000	313.15	0.27366	1209.9	0.5
4000	313.15	0.31352	1277.7	0.6
4000	313.15	0.37417	1376.7	0.6
5000	283.15	0.02075	727.8	0.7
5000	283.15	0.03857	772.8	0.6
5000	283.15	0.07352	858.1	0.6
5000	283.15	0.11372	950.6	0.5
5000	283.15	0.156	1041.7	0.5
5000	283.15	0.19067	1112.4	0.5
5000	283.15	0.23053	1190	0.5
5000	283.15	0.27366	1269.5	0.6
5000	283.15	0.31352	1340.8	0.6
5000	283.15	0.37417	1444.5	0.7
5000	298.15	0.02075	713.2	0.7
5000	298.15	0.03857	757.1	0.6
5000	298.15	0.07352	840.3	0.6
5000	298.15	0.11372	930.1	0.5
5000	298.15	0.156	1018.9	0.5
5000	298.15	0.19067	1087.8	0.5
5000	298.15	0.23053	1163.9	0.5
5000	298.15	0.27366	1241.3	0.6
5000	298.15	0.31352	1310.9	0.6
5000	298.15	0.37417	1412.5	0.7
5000	313.15	0.02075	699.1	0.7
5000	313.15	0.03857	741.7	0.6
5000	313.15	0.07352	822.6	0.6
5000	313.15	0.11372	909.9	0.5
5000	313.15	0.156	996.3	0.5
5000	313.15	0.19067	1063.3	0.5
5000	313.15	0.23053	1137.3	0.5
5000	313.15	0.27366	1212.9	0.5
5000	313.15	0.31352	1280.7	0.6
5000	313.15	0.37417	1380	0.6
7500	283.15	0.02075	730.3	0.7
7500	283.15	0.03857	775.7	0.6
7500	283.15	0.07352	861.3	0.6
7500	283.15	0.11372	954.3	0.5
7500	283.15	0.156	1045.9	0.5
7500	283.15	0.19067	1117	0.5
7500	283.15	0.23053	1195	0.6
7500	283.15	0.27366	1274.9	0.6
7500	283.15	0.31352	1346.5	0.7
7500	283.15	0.37417	1450.6	0.8
7500	298.15	0.02075	716	0.7
7500	298.15	0.03857	760.2	0.6
7500	298.15	0.07352	843.9	0.6
7500	298.15	0.11372	934.2	0.5
7500	298.15	0.156	1023.7	0.5
7500	298.15	0.19067	1093	0.5
7500	298.15	0.23053	1169.5	0.5
7500	298.15	0.27366	1247.4	0.6
7500	298.15	0.31352	1317.4	0.6
7500	298.15	0.37417	1419.4	0.8
7500	313.15	0.02075	702.3	0.7
7500	313.15	0.03857	745.2	0.6
7500	313.15	0.07352	826.7	0.6
7500	313.15	0.11372	914.7	0.5
7500	313.15	0.156	1001.8	0.5
7500	313.15	0.19067	1069.3	0.5
7500	313.15	0.23053	1143.8	0.5
7500	313.15	0.27366	1219.8	0.6
7500	313.15	0.31352	1288.2	0.6
7500	313.15	0.37417	1387.9	0.7
10000	283.15	0.02075	732.4	0.7
10000	283.15	0.03857	777.9	0.7
10000	283.15	0.07352	864.1	0.6
10000	283.15	0.11372	957.6	0.5
10000	283.15	0.156	1049.7	0.5
10000	283.15	0.19067	1121.1	0.5
10000	283.15	0.23053	1199.5	0.6
10000	283.15	0.27366	1279.8	0.7
10000	283.15	0.31352	1351.7	0.7
10000	283.15	0.37417	1456.1	0.9
10000	298.15	0.02075	718.7	0.7
10000	298.15	0.03857	763.2	0.7
10000	298.15	0.07352	847.3	0.6
10000	298.15	0.11372	938.3	0.5
10000	298.15	0.156	1028.4	0.5
10000	298.15	0.19067	1098	0.5
10000	298.15	0.23053	1174.9	0.6
10000	298.15	0.27366	1253.2	0.6
10000	298.15	0.31352	1323.6	0.7
10000	298.15	0.37417	1426	0.8
10000	313.15	0.02075	705.3	0.7
10000	313.15	0.03857	748.5	0.7
10000	313.15	0.07352	830.5	0.6
10000	313.15	0.11372	919.2	0.5
10000	313.15	0.156	1007	0.5
10000	313.15	0.19067	1075	0.5
10000	313.15	0.23053	1149.9	0.5
10000	313.15	0.27366	1226.4	0.6
10000	313.15	0.31352	1295.1	0.7
10000	313.15	0.37417	1395.4	0.8
12500	283.15	0.02075	735.1	0.7
12500	283.15	0.03857	780.8	0.7
12500	283.15	0.07352	867.4	0.6
12500	283.15	0.11372	961.4	0.5
12500	283.15	0.156	1054	0.5
12500	283.15	0.19067	1125.7	0.6
12500	283.15	0.23053	1204.5	0.6
12500	283.15	0.27366	1285.1	0.7
12500	283.15	0.31352	1357.3	0.8
12500	283.15	0.37417	1462.1	1
12500	298.15	0.02075	721.3	0.8
12500	298.15	0.03857	766	0.7
12500	298.15	0.07352	850.6	0.6
12500	298.15	0.11372	942.2	0.5
12500	298.15	0.156	1032.7	0.5
12500	298.15	0.19067	1102.8	0.5
12500	298.15	0.23053	1180.1	0.6
12500	298.15	0.27366	1258.9	0.7
12500	298.15	0.31352	1329.5	0.8
12500	298.15	0.37417	1432.3	0.9
12500	313.15	0.02075	708.3	0.8
12500	313.15	0.03857	751.7	0.7
12500	313.15	0.07352	834.3	0.6
12500	313.15	0.11372	923.5	0.5
12500	313.15	0.156	1011.9	0.5
12500	313.15	0.19067	1080.4	0.5
12500	313.15	0.23053	1155.8	0.6
12500	313.15	0.27366	1232.7	0.6
12500	313.15	0.31352	1301.8	0.7
12500	313.15	0.37417	1402.5	0.9
15000	283.15	0.02075	737.4	0.8
15000	283.15	0.03857	783.3	0.7
15000	283.15	0.07352	870.3	0.6
15000	283.15	0.11372	964.7	0.5
15000	283.15	0.156	1057.8	0.5
15000	283.15	0.19067	1129.9	0.6
15000	283.15	0.23053	1209	0.6
15000	283.15	0.27366	1290	0.8
15000	283.15	0.31352	1362.4	0.9
15000	283.15	0.37417	1467.5	1.1
15000	298.15	0.02075	723.8	0.8
15000	298.15	0.03857	768.8	0.7
15000	298.15	0.07352	853.8	0.6
15000	298.15	0.11372	945.9	0.5
15000	298.15	0.156	1037	0.5
15000	298.15	0.19067	1107.4	0.5
15000	298.15	0.23053	1185.1	0.6
15000	298.15	0.27366	1264.2	0.7
15000	298.15	0.31352	1335.2	0.8
15000	298.15	0.37417	1438.3	1
15000	313.15	0.02075	711	0.8
15000	313.15	0.03857	754.8	0.7
15000	313.15	0.07352	837.9	0.6
15000	313.15	0.11372	927.7	0.5
15000	313.15	0.156	1016.6	0.5
15000	313.15	0.19067	1085.5	0.5
15000	313.15	0.23053	1161.3	0.6
15000	313.15	0.27366	1238.7	0.7
15000	313.15	0.31352	1308.1	0.8
15000	313.15	0.37417	1409.2	0.9
17500	283.15	0.02075	739.3	0.8
17500	283.15	0.03857	785.4	0.7
17500	283.15	0.07352	872.8	0.6
17500	283.15	0.11372	967.7	0.5
17500	283.15	0.156	1061.1	0.5
17500	283.15	0.19067	1133.5	0.6
17500	283.15	0.23053	1213	0.7
17500	283.15	0.27366	1294.3	0.8
17500	283.15	0.31352	1367	0.9
17500	283.15	0.37417	1472.5	1.2
17500	298.15	0.02075	726.3	0.8
17500	298.15	0.03857	771.5	0.8
17500	298.15	0.07352	856.9	0.6
17500	298.15	0.11372	949.3	0.5
17500	298.15	0.156	1041	0.5
17500	298.15	0.19067	1111.8	0.6
17500	298.15	0.23053	1189.9	0.6
17500	298.15	0.27366	1269.4	0.8
17500	298.15	0.31352	1340.7	0.9
17500	298.15	0.37417	1444.2	1.1
17500	313.15	0.02075	713.7	0.8
17500	313.15	0.03857	757.8	0.8
17500	313.15	0.07352	841.2	0.6
17500	313.15	0.11372	931.7	0.5
17500	313.15	0.156	1021.1	0.5
17500	313.15	0.19067	1090.4	0.5
17500	313.15	0.23053	1166.6	0.6
17500	313.15	0.27366	1244.5	0.7
17500	313.15	0.31352	1314.2	0.8
17500	313.15	0.37417	1415.7	1
20000	283.15	0.02075	741.8	0.9
20000	283.15	0.03857	788.1	0.8
20000	283.15	0.07352	875.9	0.6
20000	283.15	0.11372	971.1	0.5
20000	283.15	0.156	1064.9	0.5
20000	283.15	0.19067	1137.7	0.6
20000	283.15	0.23053	1217.5	0.7
20000	283.15	0.27366	1299.1	0.9
20000	283.15	0.31352	1372.1	1
20000	283.15	0.37417	1477.9	1.2
20000	298.15	0.02075	728.7	0.9
20000	298.15	0.03857	774.1	0.8
20000	298.15	0.07352	859.9	0.6
20000	298.15	0.11372	953	0.5
20000	298.15	0.156	1044.9	0.5
20000	298.15	0.19067	1116.2	0.6
20000	298.15	0.23053	1194.5	0.7
20000	298.15	0.27366	1274.4	0.8
20000	298.15	0.31352	1346	1
20000	298.15	0.37417	1449.9	1.2
20000	313.15	0.02075	716.3	0.9
20000	313.15	0.03857	760.7	0.8
20000	313.15	0.07352	844.6	0.7
20000	313.15	0.11372	935.5	0.5
20000	313.15	0.156	1025.4	0.5
20000	313.15	0.19067	1095.1	0.5
20000	313.15	0.23053	1171.7	0.6
20000	313.15	0.27366	1249.9	0.8
20000	313.15	0.31352	1320	0.9
20000	313.15	0.37417	1421.9	1.1
22500	283.15	0.02075	743.9	0.9
22500	283.15	0.03857	790.4	0.8
22500	283.15	0.07352	878.6	0.6
22500	283.15	0.11372	974.2	0.5
22500	283.15	0.156	1068.4	0.6
22500	283.15	0.19067	1141.4	0.6
22500	283.15	0.23053	1221.6	0.8
22500	283.15	0.27366	1303.5	0.9
22500	283.15	0.31352	1376.7	1.1
22500	283.15	0.37417	1482.7	1.3
22500	298.15	0.02075	731.1	0.9
22500	298.15	0.03857	776.7	0.8
22500	298.15	0.07352	862.9	0.7
22500	298.15	0.11372	956.4	0.5
22500	298.15	0.156	1048.9	0.5
22500	298.15	0.19067	1120.3	0.6
22500	298.15	0.23053	1199.1	0.7
22500	298.15	0.27366	1279.2	0.9
22500	298.15	0.31352	1351.1	1
22500	298.15	0.37417	1455.3	1.3
22500	313.15	0.02075	718.8	0.9
22500	313.15	0.03857	763.4	0.8
22500	313.15	0.07352	847.8	0.7
22500	313.15	0.11372	939.2	0.5
22500	313.15	0.156	1029.6	0.5
22500	313.15	0.19067	1099.6	0.6
22500	313.15	0.23053	1176.6	0.7
22500	313.15	0.27366	1255.2	0.8
22500	313.15	0.31352	1325.5	1
22500	313.15	0.37417	1427.8	1.2
25000	283.15	0.02075	745.6	0.9
25000	283.15	0.03857	792.3	0.8
25000	283.15	0.07352	880.9	0.7
25000	283.15	0.11372	976.8	0.5
25000	283.15	0.156	1071.5	0.6
25000	283.15	0.19067	1144.8	0.6
25000	283.15	0.23053	1225.2	0.8
25000	283.15	0.27366	1307.4	1
25000	283.15	0.31352	1380.9	1.2
25000	283.15	0.37417	1487.2	1.4
25000	298.15	0.02075	733.3	0.9
25000	298.15	0.03857	779.1	0.8
25000	298.15	0.07352	865.8	0.7
25000	298.15	0.11372	959.6	0.5
25000	298.15	0.156	1052.5	0.5
25000	298.15	0.19067	1124.3	0.6
25000	298.15	0.23053	1203.4	0.8
25000	298.15	0.27366	1283.8	0.9
25000	298.15	0.31352	1356	1.1
25000	298.15	0.37417	1460.5	1.4
25000	313.15	0.02075	721.2	1
25000	313.15	0.03857	766.1	0.9
25000	313.15	0.07352	850.9	0.7
25000	313.15	0.11372	942.7	0.6
25000	313.15	0.156	1033.6	0.5
25000	313.15	0.19067	1103.9	0.6
25000	313.15	0.23053	1181.3	0.7
25000	313.15	0.27366	1260.3	0.9
25000	313.15	0.31352	1330.9	1
25000	313.15	0.37417	1433.5	1.3
