Measured thermophysical data. Isothermal Vapor-Liquid Equilibrium Data for the System Methanol + Benzene + Sodium Tetraphenylborate
Source: J. Chem. Eng. Data, 2005, 10.1021/je050146j
Compound 1: methanol, CH4O, InChI=1S/CH4O/c1-2/h2H,1H3, purity 99.9%
Compound 2: benzene, C6H6, InChI=1S/C6H6/c1-2-4-6-5-3-1/h1-6H, purity 99.5%
Compound 3: sodium tetraphenylboron, C24H20BNa, InChI=1S/C24H20B.Na/c1-5-13-21(14-6-1)25(22-15-7-2-8-16-22,23-17-9-3-10-18-23)24-19-11-4-12-20-24;/h1-20H;/q-1;+1, purity 99%

System: methanol + benzene; phases: Gas, Liquid
Property: Mole fraction of methanol (Gas); method: CHROM:UFactor:8
Temperature, K	Mole fraction of methanol	Mole fraction of methanol	uncertainty
298	0.3	0.5509	0.0335
298	0.4508	0.5711	0.032
298	0.6505	0.5996	0.0298
298	0.8009	0.6325	0.0276
298	0.9507	0.8419	0.0131
308	0.3	0.5219	0.0356
308	0.4508	0.5467	0.0338
308	0.6505	0.5923	0.0304
308	0.8009	0.651	0.0262
308	0.9507	0.8217	0.0141

System: methanol + benzene + sodium tetraphenylboron; phases: Gas, Liquid
Property: Mole fraction of methanol (Gas); method: CHROM:UFactor:8
Temperature, K	Molality, mol/kg of sodium tetraphenylboron	Solvent: Mole fraction of methanol	Mole fraction of methanol	uncertainty
298	0	0.3	0.5509	0.0335
298	0	0.4508	0.5711	0.032
298	0	0.6505	0.5996	0.0298
298	0	0.8009	0.6325	0.0276
298	0	0.9507	0.8419	0.0131
298	0.05	0.3	0.5345	0.0347
298	0.05	0.4508	0.5619	0.0326
298	0.05	0.6505	0.5901	0.0306
298	0.05	0.8009	0.6123	0.0291
298	0.05	0.9507	0.8212	0.0146
298	0.1	0.3	0.5235	0.0355
298	0.1	0.4508	0.5514	0.0334
298	0.1	0.6505	0.5825	0.0311
298	0.1	0.8009	0.6009	0.0299
298	0.1	0.9507	0.8177	0.0148
298	0.15	0.3	0.5178	0.0359
298	0.15	0.4508	0.5456	0.0339
298	0.15	0.6505	0.5742	0.0317
298	0.15	0.8009	0.5926	0.0305
298	0.15	0.9507	0.8013	0.0159
298	0.2	0.3	0.5064	0.0368
298	0.2	0.4508	0.5381	0.0344
298	0.2	0.6505	0.5675	0.0322
298	0.2	0.8009	0.5866	0.031
298	0.2	0.9507	0.7968	0.0162
298	0.25	0.3	0.4972	0.037
298	0.25	0.4508	0.5374	0.0345
298	0.25	0.6505	0.5658	0.0324
298	0.25	0.8009	0.5849	0.0311
298	0.25	0.9507	0.788	0.0167
308	0	0.3	0.5219	0.0356
308	0	0.4508	0.5467	0.0338
308	0	0.6505	0.5923	0.0304
308	0	0.8009	0.651	0.0262
308	0	0.9507	0.8217	0.0141
308	0.05	0.3	0.5234	0.0355
308	0.05	0.4508	0.5422	0.0341
308	0.05	0.6505	0.566	0.0323
308	0.05	0.8009	0.6031	0.0297
308	0.05	0.9507	0.7767	0.0174
308	0.1	0.3	0.5187	0.0359
308	0.1	0.4508	0.5374	0.0345
308	0.1	0.6505	0.558	0.0329
308	0.1	0.8009	0.5972	0.0302
308	0.1	0.9507	0.7691	0.0179
308	0.15	0.3	0.5093	0.0366
308	0.15	0.4508	0.5301	0.035
308	0.15	0.6505	0.5466	0.0338
308	0.15	0.8009	0.591	0.0306
308	0.15	0.9507	0.7608	0.0184
308	0.2	0.3	0.4978	0.0371
308	0.2	0.4508	0.5234	0.0355
308	0.2	0.6505	0.539	0.0344
308	0.2	0.8009	0.586	0.031
308	0.2	0.9507	0.7557	0.0188
308	0.25	0.3	0.4867	0.0363
308	0.25	0.4508	0.5177	0.0359
308	0.25	0.6505	0.5305	0.035
308	0.25	0.8009	0.579	0.0315
308	0.25	0.9507	0.7489	0.0193
