Measured thermophysical data. Densities, Viscosities and Derived Functions of Binary Mixtures: (Triethylene Glycol Dimethyl Ether + Water) and (N-acetylmorpholine+ Water) from 298.15 to 343.15 K
Source: J. Chem. Eng. Data, 2005, 10.1021/je050021e
Compound 1: 2,5,8,11-tetraoxadodecane, C8H18O4, InChI=1S/C8H18O4/c1-9-3-5-11-7-8-12-6-4-10-2/h3-8H2,1-2H3, purity 98%
Compound 2: 4-acetylmorpholine, C6H11NO2, InChI=1S/C6H11NO2/c1-6(8)7-2-4-9-5-3-7/h2-5H2,1H3, purity 98%
Compound 3: water, H2O, InChI=1S/H2O/h1H2

System: 2,5,8,11-tetraoxadodecane; phases: Liquid
Fixed: Pressure, kPa = 101
Property: Viscosity, Pa*s (Liquid); method: CAPTUB:UFactor:3
Temperature, K	Viscosity, Pa*s	uncertainty
303.15	0.00177	4e-05
313.15	0.00148	4e-05
323.15	0.00126	3e-05
333.15	0.00108	3e-05
343.15	0.000945	2.5e-05

System: 2,5,8,11-tetraoxadodecane; phases: Liquid
Fixed: Pressure, kPa = 101.3
Property: Mass density, kg/m3 (Liquid); method: VIBTUB:UFactor:2
Temperature, K	Mass density, kg/m3	uncertainty
303.15	975.86	1
313.15	966.36	0.99
323.15	956.85	0.98
333.15	947.32	0.97
343.15	937.72	0.96

System: 4-acetylmorpholine; phases: Liquid
Fixed: Pressure, kPa = 101
Property: Viscosity, Pa*s (Liquid); method: CAPTUB:UFactor:4
Temperature, K	Viscosity, Pa*s	uncertainty
298.15	0.00848	0.00023
303.15	0.0071	0.0002
313.15	0.00518	0.00015
323.15	0.00396	0.00012
333.15	0.00312	0.0001
343.15	0.00255	8e-05

System: 4-acetylmorpholine; phases: Liquid
Fixed: Pressure, kPa = 101
Property: Mass density, kg/m3 (Liquid); method: VIBTUB::UFactor:2
Temperature, K	Mass density, kg/m3	uncertainty
298.15	1110.33	0.61
303.15	1106	0.6
313.15	1097.35	0.6
323.15	1088.74	0.59
333.15	1080.14	0.59
343.15	1071.55	0.58

System: 2,5,8,11-tetraoxadodecane + water; phases: Liquid
Fixed: Pressure, kPa = 101
Property: Viscosity, Pa*s (Liquid); method: CAPTUB:UFactor:3
Temperature, K	Mole fraction of 2,5,8,11-tetraoxadodecane	Viscosity, Pa*s	uncertainty
303.15	0	0.00089	2.16e-05
303.15	0.0198	0.00138	3e-05
303.15	0.05	0.00238	5e-05
303.15	0.07	0.00299	7e-05
303.15	0.1	0.0036	8e-05
303.15	0.2	0.00376	8e-05
303.15	0.3	0.00313	7e-05
303.15	0.4	0.00267	6e-05
303.15	0.5	0.00238	5e-05
303.15	0.6	0.00214	5e-05
303.15	0.7	0.00199	5e-05
303.15	0.8	0.0019	5e-05
303.15	0.9	0.00182	4e-05
303.15	1	0.00177	4e-05
313.15	0	0.0006531	1.67e-05
313.15	0.0198	0.00109	3e-05
313.15	0.05	0.00179	4e-05
313.15	0.07	0.00219	5e-05
313.15	0.1	0.0026	6e-05
313.15	0.2	0.0028	6e-05
313.15	0.3	0.00239	5e-05
313.15	0.4	0.00209	5e-05
313.15	0.5	0.00194	4e-05
313.15	0.6	0.00173	4e-05
313.15	0.7	0.00165	4e-05
313.15	0.8	0.00158	4e-05
313.15	0.9	0.00151	4e-05
313.15	1	0.00148	4e-05
323.15	0	0.000547	1.45e-05
323.15	0.0198	0.000876	2.1e-05
323.15	0.05	0.00139	3e-05
323.15	0.07	0.00167	4e-05
323.15	0.1	0.00196	4e-05
323.15	0.2	0.0021	5e-05
323.15	0.3	0.00188	4e-05
323.15	0.4	0.00169	4e-05
323.15	0.5	0.0016	4e-05
323.15	0.6	0.00144	3e-05
323.15	0.7	0.00137	3e-05
323.15	0.8	0.00132	3e-05
323.15	0.9	0.00127	3e-05
323.15	1	0.00126	3e-05
333.15	0	0.000466	1.28e-05
333.15	0.0198	0.000728	1.8e-05
333.15	0.05	0.00129	3e-05
333.15	0.07	0.00133	3e-05
333.15	0.1	0.00153	4e-05
333.15	0.2	0.00166	3.8e-05
333.15	0.3	0.00152	4e-05
333.15	0.4	0.0014	3e-05
333.15	0.5	0.0013	3e-05
333.15	0.6	0.00121	3e-05
333.15	0.7	0.00116	3e-05
333.15	0.8	0.00113	3e-05
333.15	0.9	0.0011	3e-05
333.15	1	0.00108	3e-05
343.15	0	0.0004049	1.15e-05
343.15	0.0198	0.000617	1.6e-05
343.15	0.05	0.000922	2.2e-05
343.15	0.07	0.00108	3e-05
343.15	0.1	0.00124	3e-05
343.15	0.2	0.00134	3e-05
343.15	0.3	0.00126	3e-05
343.15	0.4	0.00117	3e-05
343.15	0.5	0.0011	3e-05
343.15	0.6	0.00104	3e-05
343.15	0.7	0.000998	2.5e-05
343.15	0.8	0.000976	2.5e-05
343.15	0.9	0.000952	2.4e-05
343.15	1	0.000945	2.5e-05

System: 2,5,8,11-tetraoxadodecane + water; phases: Liquid
Fixed: Pressure, kPa = 101.3
Property: Mass density, kg/m3 (Liquid); method: VIBTUB:UFactor:2
Temperature, K	Mole fraction of 2,5,8,11-tetraoxadodecane	Mass density, kg/m3	uncertainty
303.15	0	995.64	0.08
303.15	0.0198	1004.97	0.1
303.15	0.05	1015.35	0.13
303.15	0.07	1019.1	0.14
303.15	0.1	1020.68	0.17
303.15	0.2	1012.62	0.26
303.15	0.3	1002.98	0.35
303.15	0.4	995.48	0.44
303.15	0.5	990.09	0.53
303.15	0.6	985.94	0.62
303.15	0.7	982.66	0.72
303.15	0.8	979.8	0.81
303.15	0.9	977.61	0.91
303.15	1	975.86	1
313.15	0	992.21	0.09
313.15	0.0198	1000.31	0.1
313.15	0.05	1008.77	0.12
313.15	0.07	1011.54	0.14
313.15	0.1	1012.19	0.17
313.15	0.2	1003.21	0.25
313.15	0.3	993.51	0.34
313.15	0.4	985.98	0.43
313.15	0.5	980.57	0.53
313.15	0.6	976.37	0.62
313.15	0.7	973.09	0.71
313.15	0.8	970.25	0.8
313.15	0.9	968.06	0.9
313.15	1	966.36	0.99
323.15	0	988.04	0.09
323.15	0.0198	995.02	0.1
323.15	0.05	1001.79	0.12
323.15	0.07	1003.67	0.14
323.15	0.1	1003.47	0.16
323.15	0.2	993.71	0.25
323.15	0.3	983.93	0.34
323.15	0.4	976.37	0.43
323.15	0.5	970.93	0.52
323.15	0.6	966.77	0.61
323.15	0.7	963.5	0.71
323.15	0.8	960.68	0.8
323.15	0.9	958.5	0.89
323.15	1	956.85	0.98
333.15	0	983.12	0.09
333.15	0.0198	989.18	0.1
333.15	0.05	994.39	0.12
333.15	0.07	995.46	0.14
333.15	0.1	994.52	0.16
333.15	0.2	984.05	0.25
333.15	0.3	974.23	0.34
333.15	0.4	966.69	0.43
333.15	0.5	961.2	0.52
333.15	0.6	957.06	0.61
333.15	0.7	953.78	0.7
333.15	0.8	950.98	0.79
333.15	0.9	948.9	0.88
333.15	1	947.32	0.97
343.15	0	977.77	0.09
343.15	0.0198	982.78	0.11
343.15	0.05	986.6	0.12
343.15	0.07	986.96	0.14
343.15	0.1	985.33	0.16
343.15	0.2	974.27	0.25
343.15	0.3	964.41	0.34
343.15	0.4	956.86	0.43
343.15	0.5	951.36	0.52
343.15	0.6	947.25	0.6
343.15	0.7	943.99	0.69
343.15	0.8	941.33	0.78
343.15	0.9	939.3	0.87
343.15	1	937.72	0.96

System: 4-acetylmorpholine + water; phases: Liquid
Fixed: Pressure, kPa = 101
Property: Viscosity, Pa*s (Liquid); method: CAPTUB:UFactor:4
Temperature, K	Mole fraction of 4-acetylmorpholine	Viscosity, Pa*s	uncertainty
298.15	0	0.0008903	2.88e-05
298.15	0.05	0.00179	5e-05
298.15	0.07	0.00222	7e-05
298.15	0.1	0.00322	9e-05
298.15	0.2	0.00596	0.00016
298.15	0.3	0.0087	0.00022
298.15	0.4	0.0101	0.0003
298.15	0.5	0.0104	0.0003
298.15	0.6	0.0105	0.0003
298.15	0.7	0.00961	0.00024
298.15	0.8	0.00918	0.00024
298.15	0.9	0.00879	0.00023
298.15	1	0.00848	0.00023
303.15	0	0.0007976	2.62e-05
303.15	0.05	0.00156	5e-05
303.15	0.07	0.00196	6e-05
303.15	0.1	0.00275	8e-05
303.15	0.2	0.00494	0.00014
303.15	0.3	0.00701	0.00018
303.15	0.4	0.00802	0.0002
303.15	0.5	0.00829	0.00021
303.15	0.6	0.00848	0.00022
303.15	0.7	0.00789	0.00021
303.15	0.8	0.00756	0.0002
303.15	0.9	0.0073	0.0002
303.15	1	0.0071	0.0002
313.15	0	0.0006531	2.22e-05
313.15	0.05	0.00123	4e-05
313.15	0.07	0.00152	5e-05
313.15	0.1	0.0021	6e-05
313.15	0.2	0.00355	0.0001
313.15	0.3	0.0048	0.00014
313.15	0.4	0.00547	0.00015
313.15	0.5	0.00568	0.00016
313.15	0.6	0.00577	0.00016
313.15	0.7	0.00556	0.00016
313.15	0.8	0.00542	0.00015
313.15	0.9	0.00528	0.00015
313.15	1	0.00518	0.00015
323.15	0	0.000547	1.93e-05
323.15	0.05	0.000998	3.2e-05
323.15	0.07	0.00121	4e-05
323.15	0.1	0.00165	5e-05
323.15	0.2	0.00268	8e-05
323.15	0.3	0.00351	0.0001
323.15	0.4	0.00396	0.00011
323.15	0.5	0.00413	0.00012
323.15	0.6	0.0044	0.00013
323.15	0.7	0.00413	0.00012
323.15	0.8	0.00406	0.00012
323.15	0.9	0.004	0.00012
323.15	1	0.00396	0.00012
333.15	0	0.000466	1.7e-05
333.15	0.05	0.000857	2.8e-05
333.15	0.07	0.00104	3e-05
333.15	0.1	0.00124	4e-05
333.15	0.2	0.00205	6e-05
333.15	0.3	0.00266	8e-05
333.15	0.4	0.003	9e-05
333.15	0.5	0.00313	9e-05
333.15	0.6	0.00341	0.0001
333.15	0.7	0.00318	9e-05
333.15	0.8	0.00317	9e-05
333.15	0.9	0.00314	9e-05
333.15	1	0.00312	0.0001
343.15	0	0.0004049	1.53e-05
343.15	0.05	0.000743	2.5e-05
343.15	0.07	0.000861	2.8e-05
343.15	0.1	0.00103	3e-05
343.15	0.2	0.00166	5e-05
343.15	0.3	0.00209	6e-05
343.15	0.4	0.00234	7e-05
343.15	0.5	0.00246	7e-05
343.15	0.6	0.00259	8e-05
343.15	0.7	0.00254	8e-05
343.15	0.8	0.00253	8e-05
343.15	0.9	0.00254	8e-05
343.15	1	0.00255	8e-05

System: 4-acetylmorpholine + water; phases: Liquid
Fixed: Pressure, kPa = 101
Property: Mass density, kg/m3 (Liquid); method: VIBTUB:UFactor:2
Temperature, K	Mole fraction of 4-acetylmorpholine	Mass density, kg/m3	uncertainty
298.15	0	997.04	0.53
298.15	0.05	1034.97	0.56
298.15	0.07	1046.13	0.57
298.15	0.1	1060.06	0.57
298.15	0.2	1087.71	0.59
298.15	0.3	1100.16	0.6
298.15	0.4	1106	0.6
298.15	0.5	1108.55	0.61
298.15	0.6	1109.77	0.61
298.15	0.7	1110.29	0.61
298.15	0.8	1110.46	0.61
298.15	0.9	1110.4	0.61
298.15	1	1110.33	0.61
303.15	0	995.65	0.53
303.15	0.05	1032.47	0.56
303.15	0.07	1043.32	0.56
303.15	0.1	1056.85	0.57
303.15	0.2	1083.85	0.59
303.15	0.3	1095.95	0.6
303.15	0.4	1101.68	0.6
303.15	0.5	1104.19	0.6
303.15	0.6	1105.39	0.6
303.15	0.7	1105.93	0.6
303.15	0.8	1106.12	0.6
303.15	0.9	1106.08	0.6
303.15	1	1106	0.6
313.15	0	992.21	0.53
313.15	0.05	1027.12	0.56
313.15	0.07	1037.36	0.56
313.15	0.1	1050.17	0.57
313.15	0.2	1075.73	0.58
313.15	0.3	1087.43	0.59
313.15	0.4	1092.98	0.6
313.15	0.5	1095.41	0.6
313.15	0.6	1096.65	0.6
313.15	0.7	1097.23	0.6
313.15	0.8	1097.4	0.6
313.15	0.9	1097.41	0.6
313.15	1	1097.35	0.6
323.15	0	988.04	0.53
323.15	0.05	1021.29	0.55
323.15	0.07	1031.03	0.56
323.15	0.1	1043.19	0.56
323.15	0.2	1067.57	0.58
323.15	0.3	1078.79	0.59
323.15	0.4	1084.2	0.59
323.15	0.5	1086.6	0.59
323.15	0.6	1087.84	0.59
323.15	0.7	1088.43	0.59
323.15	0.8	1088.71	0.59
323.15	0.9	1088.78	0.59
323.15	1	1088.74	0.59
333.15	0	983.12	0.53
333.15	0.05	1015.01	0.55
333.15	0.07	1024.27	0.55
333.15	0.1	1035.89	0.56
333.15	0.2	1059.2	0.57
333.15	0.3	1069.99	0.58
333.15	0.4	1075.32	0.58
333.15	0.5	1077.66	0.58
333.15	0.6	1078.93	0.59
333.15	0.7	1079.63	0.59
333.15	0.8	1079.97	0.59
333.15	0.9	1080.1	0.59
333.15	1	1080.14	0.59
343.15	0	977.77	0.52
343.15	0.05	1008.29	0.54
343.15	0.07	1017.17	0.55
343.15	0.1	1028.29	0.55
343.15	0.2	1050.63	0.57
343.15	0.3	1061.11	0.57
343.15	0.4	1066.32	0.58
343.15	0.5	1068.66	0.58
343.15	0.6	1070	0.58
343.15	0.7	1070.82	0.58
343.15	0.8	1071.21	0.58
343.15	0.9	1071.43	0.58
343.15	1	1071.55	0.58
