Measured thermophysical data. Liquid-Liquid Equilibrium in Mixtures of the Ionic Liquid 1-n-Butyl-3-methylimidazolium Hexafluorophosphate and an Alkanol
Source: J. Chem. Eng. Data, 2006, 10.1021/je050474j
Compound 1: ethanol, C2H6O, InChI=1S/C2H6O/c1-2-3/h3H,2H2,1H3, purity 99.8%
Compound 2: 1-butyl-3-methylimidazolium hexafluorophosphate, C8H15F6N2P, InChI=1S/C8H15N2.F6P/c1-3-4-5-10-7-6-9(2)8-10;1-7(2,3,4,5)6/h6-8H,3-5H2,1-2H3;/q+1;-1
Compound 3: propan-1-ol, C3H8O, InChI=1S/C3H8O/c1-2-3-4/h4H,2-3H2,1H3, purity 99.5%
Compound 4: butan-1-ol, C4H10O, InChI=1S/C4H10O/c1-2-3-4-5/h5H,2-4H2,1H3, purity 99.5%

System: ethanol + 1-butyl-3-methylimidazolium hexafluorophosphate; phases: Liquid mixture 2, Liquid mixture 1
Fixed: Pressure, kPa = 101
Property: Mole fraction of 1-butyl-3-methylimidazolium hexafluorophosphate (Liquid mixture 2); method: Titration method
Temperature, K	Mole fraction of 1-butyl-3-methylimidazolium hexafluorophosphate	uncertainty
288.2	0.0047	0.0016
288.2	0.0047	0.0016
293.2	0.0063	0.0016
293.2	0.0065	0.0016
298.2	0.0071	0.0016
298.2	0.007	0.0016
308.1	0.0112	0.0016
308.1	0.0127	0.0016
318.1	0.0231	0.0016
318.1	0.0234	0.0016
328	0.0636	0.0018
328	0.0644	0.0018

System: ethanol + 1-butyl-3-methylimidazolium hexafluorophosphate; phases: Liquid mixture 2, Liquid mixture 1
Fixed: Pressure, kPa = 101
Property: Mole fraction of 1-butyl-3-methylimidazolium hexafluorophosphate (Liquid mixture 2); method: UV spectroscopy
Temperature, K	Mole fraction of 1-butyl-3-methylimidazolium hexafluorophosphate	uncertainty
279.1	0.0041	0.0014
279.1	0.0039	0.0014
279.1	0.004	0.0012
279.1	0.0039	0.0012
279.1	0.0037	0.0012
279.1	0.0039	0.0012
284	0.0045	0.0014
284	0.0049	0.0016
284	0.0046	0.0014
284	0.0048	0.0016
284	0.0048	0.0016
284	0.0047	0.0014
289	0.0056	0.0018
289	0.0057	0.0018
289	0.0061	0.002
289	0.006	0.002
289	0.006	0.002
289	0.0058	0.0018
293.9	0.0066	0.0022
293.9	0.0066	0.0022
293.9	0.0068	0.0022
298.8	0.0083	0.0028
298.8	0.008	0.0026
298.8	0.0083	0.0028
303.9	0.0099	0.0032
303.9	0.0099	0.0032
303.9	0.01	0.0032
308.8	0.0162	0.0054
308.8	0.0167	0.0056
308.8	0.0154	0.0052
308.8	0.0142	0.0048
308.8	0.0148	0.005
308.8	0.0167	0.0056
308.8	0.0169	0.0058
308.8	0.0145	0.0048
308.8	0.0142	0.0048
313.8	0.019	0.0066
313.8	0.0197	0.0068
313.8	0.0189	0.0066

System: ethanol + 1-butyl-3-methylimidazolium hexafluorophosphate; phases: Liquid mixture 1, Liquid mixture 2
Fixed: Pressure, kPa = 101
Property: Mole fraction of ethanol (Liquid mixture 1); method: Titration method
Temperature, K	Mole fraction of ethanol	uncertainty
288.2	0.4835	0.0102
288.2	0.4789	0.0102
288.2	0.4837	0.0102
293.2	0.5048	0.0103
293.2	0.509	0.0103
295.2	0.518	0.0102
295.2	0.5255	0.0101
298.2	0.5489	0.0099
298.2	0.5459	0.01
308.1	0.632	0.0092
308.1	0.6329	0.0092
318.1	0.7149	0.0086
318.1	0.7141	0.0086
328	0.8279	0.008
328	0.8267	0.008

System: propan-1-ol + 1-butyl-3-methylimidazolium hexafluorophosphate; phases: Liquid mixture 1, Liquid mixture 2
Fixed: Pressure, kPa = 101
Property: Mole fraction of propan-1-ol (Liquid mixture 1); method: Titration method
Temperature, K	Mole fraction of propan-1-ol	uncertainty
293.2	0.2755	0.0059
293.2	0.2721	0.0058
303.2	0.3285	0.0064
303.2	0.3293	0.0064
313.1	0.3838	0.007
313.1	0.3831	0.007
323.1	0.4517	0.0078
323.1	0.4508	0.0077
333	0.5279	0.008
333	0.5243	0.008
343	0.6006	0.0072
343	0.5992	0.0072
352.4	0.6439	0.0067
352.4	0.6483	0.0066
361.9	0.7498	0.0056
361.9	0.752	0.0056

System: propan-1-ol + 1-butyl-3-methylimidazolium hexafluorophosphate; phases: Liquid mixture 2, Liquid mixture 1
Fixed: Pressure, kPa = 101
Property: Mole fraction of 1-butyl-3-methylimidazolium hexafluorophosphate (Liquid mixture 2); method: Titration method
Temperature, K	Mole fraction of 1-butyl-3-methylimidazolium hexafluorophosphate	uncertainty
333	0.0076	0.0022
333	0.0084	0.0022
343	0.0147	0.0022
343	0.0169	0.0022
352.4	0.0288	0.0022
352.4	0.0297	0.0022

System: propan-1-ol + 1-butyl-3-methylimidazolium hexafluorophosphate; phases: Liquid mixture 2, Liquid mixture 1
Fixed: Pressure, kPa = 101
Property: Mole fraction of 1-butyl-3-methylimidazolium hexafluorophosphate (Liquid mixture 2); method: UV spec
Temperature, K	Mole fraction of 1-butyl-3-methylimidazolium hexafluorophosphate	uncertainty
262.6	0.0004	0.0002
262.6	0.0004	0.0002
262.6	0.0004	0.0002
267.6	0.0006	0.0002
267.6	0.0005	0.0002
267.6	0.0005	0.0002
271.4	0.0007	0.0002
271.4	0.0006	0.0002
271.4	0.0006	0.0002
274.3	0.0007	0.0002
274.3	0.0007	0.0002
274.3	0.0007	0.0002
278.2	0.0008	0.0002
278.2	0.0008	0.0002
278.2	0.0007	0.0002
284.1	0.0009	0.0004
284.1	0.0009	0.0004
284.1	0.0009	0.0002
289	0.0012	0.0004
289	0.0012	0.0004
289	0.0012	0.0004
294	0.0016	0.0004
294	0.0015	0.0004
294	0.0014	0.0004
298.9	0.0019	0.0006
298.9	0.0019	0.0006
298.9	0.0019	0.0006
303.9	0.0023	0.0008
303.9	0.0023	0.0008
303.9	0.0023	0.0008
308.8	0.0025	0.0008
308.8	0.0026	0.0008
308.8	0.0026	0.0008
313.8	0.0032	0.001
313.8	0.0031	0.001
313.8	0.0033	0.001

System: butan-1-ol + 1-butyl-3-methylimidazolium hexafluorophosphate; phases: Liquid mixture 2, Liquid mixture 1
Fixed: Temperature, K = 361.9
Fixed: Pressure, kPa = 101
Property: Mole fraction of 1-butyl-3-methylimidazolium hexafluorophosphate (Liquid mixture 2); method: Titration method
Mole fraction of 1-butyl-3-methylimidazolium hexafluorophosphate	uncertainty
0.0127	0.0006
0.0131	0.0006

System: butan-1-ol + 1-butyl-3-methylimidazolium hexafluorophosphate; phases: Liquid mixture 2, Liquid mixture 1
Fixed: Pressure, kPa = 101
Property: Mole fraction of 1-butyl-3-methylimidazolium hexafluorophosphate (Liquid mixture 2); method: UV spec
Temperature, K	Mole fraction of 1-butyl-3-methylimidazolium hexafluorophosphate	uncertainty
278.2	0.0004	0.0002
278.2	0.0004	0.0002
278.2	0.0004	0.0002
281.1	0.0005	0.0002
281.1	0.0005	0.0002
281.1	0.0005	0.0002
284.1	0.0004	0.0002
284.1	0.0004	0.0002
284.1	0.0004	0.0002
289	0.0005	0.0002
289	0.0005	0.0002
289	0.0005	0.0002
293.9	0.0007	0.0002
293.9	0.0007	0.0002
293.9	0.0007	0.0002
298.9	0.0008	0.0002
298.9	0.0008	0.0002
298.9	0.0008	0.0002
303.8	0.0011	0.0004
303.8	0.0011	0.0004
303.8	0.001	0.0004
308.8	0.0012	0.0004
308.8	0.0012	0.0004
308.8	0.0012	0.0004
313.8	0.0016	0.0004
313.8	0.0016	0.0004
313.8	0.0016	0.0004
323.7	0.0024	0.0008
323.7	0.0024	0.0008
323.7	0.0024	0.0008
333.7	0.004	0.0012
333.7	0.0039	0.0012
333.7	0.0038	0.0012
333.7	0.0038	0.0012

System: butan-1-ol + 1-butyl-3-methylimidazolium hexafluorophosphate; phases: Liquid mixture 1, Liquid mixture 2
Fixed: Pressure, kPa = 101
Property: Mole fraction of butan-1-ol (Liquid mixture 1); method: Titration method
Temperature, K	Mole fraction of butan-1-ol	uncertainty
293.2	0.2755	0.0059
293.2	0.2721	0.0058
303.2	0.3285	0.0064
303.2	0.3293	0.0064
313.1	0.3838	0.007
313.1	0.3831	0.007
323.1	0.4517	0.0078
323.1	0.4508	0.0077
333	0.5279	0.008
333	0.5243	0.008
343	0.6006	0.0072
343	0.5992	0.0072
352.4	0.6439	0.0067
352.4	0.6483	0.0066
361.9	0.7498	0.0056
361.9	0.752	0.0056
