Measured thermophysical data. Solubility of H2 in the Ionic Liquid [bmim][PF6]
Source: J. Chem. Eng. Data, 2006, 10.1021/je050362s
Compound 1: 1-butyl-3-methylimidazolium hexafluorophosphate, C8H15F6N2P, InChI=1S/C8H15N2.F6P/c1-3-4-5-10-7-6-9(2)8-10;1-7(2,3,4,5)6/h6-8H,3-5H2,1-2H3;/q+1;-1, purity 99%
Compound 2: hydrogen, H2, InChI=1S/H2/h1H, purity 99.999%

System: hydrogen + 1-butyl-3-methylimidazolium hexafluorophosphate; phases: Liquid, Gas
Property: Vapor or sublimation pressure, kPa (Liquid); method: CCELL:UFactor:2
Temperature, K	Molality, mol/kg of hydrogen	Vapor or sublimation pressure, kPa	uncertainty
313.05	0.01425	1695	67
313.05	0.0172	2016	68
313.05	0.02865	3372	90
313.05	0.03807	4422	96
313.05	0.04731	5518	103
313.05	0.05689	6650	112
313.05	0.06774	7935	122
313.05	0.07775	9085	216
333.15	0.01179	1231	62
333.15	0.02173	2288	68
333.15	0.03171	3329	87
333.15	0.04293	4502	94
333.15	0.05411	5679	103
333.15	0.06507	6875	111
333.15	0.07549	7974	118
333.15	0.08541	9014	127
353.1	0.01541	1456	62
353.1	0.02751	2643	81
353.1	0.03959	3758	88
353.1	0.05191	4926	97
353.1	0.06323	6040	104
353.1	0.07387	7045	175
353.1	0.08488	8115	179
353.1	0.09564	9100	182
373.15	0.01251	1084	60
373.15	0.02482	2147	63
373.15	0.03711	3200	84
373.15	0.04957	4258	91
373.15	0.06306	5378	156
373.15	0.07685	6596	160
373.15	0.09102	7721	164
373.15	0.10607	9021	173
