Measured thermophysical data. Determination of Partitioning Coefficients of Numerous Organic Solutes between a Long-Chain Aliphatic Alcohol and the Gas Phase as a Function of Temperature
Source: J. Chem. Eng. Data, 2006, 10.1021/je050368h
Compound 1: 1-hexadecanol, C16H34O, InChI=1S/C16H34O/c1-2-3-4-5-6-7-8-9-10-11-12-13-14-15-16-17/h17H,2-16H2,1H3
Compound 2: nonane, C9H20, InChI=1S/C9H20/c1-3-5-7-9-8-6-4-2/h3-9H2,1-2H3
Compound 3: decane, C10H22, InChI=1S/C10H22/c1-3-5-7-9-10-8-6-4-2/h3-10H2,1-2H3
Compound 4: undecane, C11H24, InChI=1S/C11H24/c1-3-5-7-9-11-10-8-6-4-2/h3-11H2,1-2H3
Compound 5: cyclooctane, C8H16, InChI=1S/C8H16/c1-2-4-6-8-7-5-3-1/h1-8H2
Compound 6: 1-nonene, C9H18, InChI=1S/C9H18/c1-3-5-7-9-8-6-4-2/h3H,1,4-9H2,2H3
Compound 7: 1-heptyne, C7H12, InChI=1S/C7H12/c1-3-5-7-6-4-2/h1H,4-7H2,2H3
Compound 8: 1-octyne, C8H14, InChI=1S/C8H14/c1-3-5-7-8-6-4-2/h1H,4-8H2,2H3
Compound 9: propan-1-ol, C3H8O, InChI=1S/C3H8O/c1-2-3-4/h4H,2-3H2,1H3
Compound 10: propan-2-ol, C3H8O, InChI=1S/C3H8O/c1-3(2)4/h3-4H,1-2H3
Compound 11: butan-1-ol, C4H10O, InChI=1S/C4H10O/c1-2-3-4-5/h5H,2-4H2,1H3
Compound 12: 2-methyl-1-propanol, C4H10O, InChI=1S/C4H10O/c1-4(2)3-5/h4-5H,3H2,1-2H3
Compound 13: octan-1-ol, C8H18O, InChI=1S/C8H18O/c1-2-3-4-5-6-7-8-9/h9H,2-8H2,1H3
Compound 14: dipropyl ether, C6H14O, InChI=1S/C6H14O/c1-3-5-7-6-4-2/h3-6H2,1-2H3
Compound 15: diisopropyl ether, C6H14O, InChI=1S/C6H14O/c1-5(2)7-6(3)4/h5-6H,1-4H3
Compound 16: tetrahydrofuran, C4H8O, InChI=1S/C4H8O/c1-2-4-5-3-1/h1-4H2
Compound 17: 1,4-dioxane, C4H8O2, InChI=1S/C4H8O2/c1-2-6-4-3-5-1/h1-4H2
Compound 18: acetone, C3H6O, InChI=1S/C3H6O/c1-3(2)4/h1-2H3
Compound 19: butanone, C4H8O, InChI=1S/C4H8O/c1-3-4(2)5/h3H2,1-2H3
Compound 20: 3-methyl-2-butanone, C5H10O, InChI=1S/C5H10O/c1-4(2)5(3)6/h4H,1-3H3
Compound 21: cyclopentanone, C5H8O, InChI=1S/C5H8O/c6-5-3-1-2-4-5/h1-4H2
Compound 22: methyl ethanoate, C3H6O2, InChI=1S/C3H6O2/c1-3(4)5-2/h1-2H3
Compound 23: ethyl acetate, C4H8O2, InChI=1S/C4H8O2/c1-3-6-4(2)5/h3H2,1-2H3
Compound 24: 2-methylpropyl ethanoate, C6H12O2, InChI=1S/C6H12O2/c1-5(2)4-8-6(3)7/h5H,4H2,1-3H3
Compound 25: 1,2-dichloroethane, C2H4Cl2, InChI=1S/C2H4Cl2/c3-1-2-4/h1-2H2
Compound 26: 1,1,2,2-tetrachloroethane, C2H2Cl4, InChI=1S/C2H2Cl4/c3-1(4)2(5)6/h1-2H
Compound 27: 1-iodopropane, C3H7I, InChI=1S/C3H7I/c1-2-3-4/h2-3H2,1H3
Compound 28: 1,1,2-trichloro-1,2,2-trifluoroethane, C2Cl3F3, InChI=1S/C2Cl3F3/c3-1(4,6)2(5,7)8
Compound 29: 2,2,2-trifluoroethanol, C2H3F3O, InChI=1S/C2H3F3O/c3-2(4,5)1-6/h6H,1H2
Compound 30: benzene, C6H6, InChI=1S/C6H6/c1-2-4-6-5-3-1/h1-6H
Compound 31: toluene, C7H8, InChI=1S/C7H8/c1-7-5-3-2-4-6-7/h2-6H,1H3
Compound 32: 1,4-dimethylbenzene, C8H10, InChI=1S/C8H10/c1-7-3-5-8(2)6-4-7/h3-6H,1-2H3
Compound 33: 1,2,4-trimethylbenzene, C9H12, InChI=1S/C9H12/c1-7-4-5-8(2)9(3)6-7/h4-6H,1-3H3
Compound 34: ethylbenzene, C8H10, InChI=1S/C8H10/c1-2-8-6-4-3-5-7-8/h3-7H,2H2,1H3
Compound 35: styrene, C8H8, InChI=1S/C8H8/c1-2-8-6-4-3-5-7-8/h2-7H,1H2
Compound 36: chlorobenzene, C6H5Cl, InChI=1S/C6H5Cl/c7-6-4-2-1-3-5-6/h1-5H
Compound 37: 1,2-dichlorobenzene, C6H4Cl2, InChI=1S/C6H4Cl2/c7-5-3-1-2-4-6(5)8/h1-4H
Compound 38: 1,3-dichlorobenzene, C6H4Cl2, InChI=1S/C6H4Cl2/c7-5-2-1-3-6(8)4-5/h1-4H
Compound 39: bromobenzene, C6H5Br, InChI=1S/C6H5Br/c7-6-4-2-1-3-5-6/h1-5H
Compound 40: iodobenzene, C6H5I, InChI=1S/C6H5I/c7-6-4-2-1-3-5-6/h1-5H
Compound 41: 1-fluoro-4-methylbenzene, C7H7F, InChI=1S/C7H7F/c1-6-2-4-7(8)5-3-6/h2-5H,1H3
Compound 42: anisole, C7H8O, InChI=1S/C7H8O/c1-8-7-5-3-2-4-6-7/h2-6H,1H3
Compound 43: benzaldehyde, C7H6O, InChI=1S/C7H6O/c8-6-7-4-2-1-3-5-7/h1-6H
Compound 44: indane, C9H10, InChI=1S/C9H10/c1-2-5-9-7-3-6-8(9)4-1/h1-2,4-5H,3,6-7H2
Compound 45: 1H-indene, C9H8, InChI=1S/C9H8/c1-2-5-9-7-3-6-8(9)4-1/h1-6H,7H2

System: nonane + 1-hexadecanol; phases: Liquid, Gas
Fixed: Amount concentration (molarity), mol/dm3 of nonane = 0
Property: Amount concentration (molarity), mol/dm3 (Liquid); method: gas chromatography
Temperature, K	Amount concentration (molarity), mol/dm3	uncertainty
343.15	1258.925	232
353.15	831.764	230
363.15	691.831	128
373.15	562.341	156
383.15	446.684	124

System: decane + 1-hexadecanol; phases: Liquid, Gas
Fixed: Amount concentration (molarity), mol/dm3 of decane = 0
Property: Amount concentration (molarity), mol/dm3 (Liquid); method: gas chromatography
Temperature, K	Amount concentration (molarity), mol/dm3	uncertainty
333.15	4073.803	1126
343.15	2691.535	744
353.15	1659.587	306
363.15	1230.269	114
373.15	851.138	314

System: undecane + 1-hexadecanol; phases: Liquid, Gas
Fixed: Amount concentration (molarity), mol/dm3 of undecane = 0
Property: Amount concentration (molarity), mol/dm3 (Liquid); method: gas chromatography
Temperature, K	Amount concentration (molarity), mol/dm3	uncertainty
333.15	12882.496	16900
343.15	5370.318	3980
353.15	3630.781	1676
363.15	2041.738	376
373.15	1584.893	584
383.15	1202.264	444

System: cyclooctane + 1-hexadecanol; phases: Liquid, Gas
Fixed: Amount concentration (molarity), mol/dm3 of cyclooctane = 0
Property: Amount concentration (molarity), mol/dm3 (Liquid); method: gas chromatography
Temperature, K	Amount concentration (molarity), mol/dm3	uncertainty
343.15	1348.963	374
353.15	954.993	176
363.15	602.56	56
373.15	457.088	168
383.15	371.535	102

System: 1-nonene + 1-hexadecanol; phases: Liquid, Gas
Fixed: Amount concentration (molarity), mol/dm3 of 1-nonene = 0
Property: Amount concentration (molarity), mol/dm3 (Liquid); method: gas chromatography
Temperature, K	Amount concentration (molarity), mol/dm3	uncertainty
343.15	1122.018	622
353.15	758.578	210
363.15	497.737	0.001
373.15	363.078	100
383.15	275.423	76

System: 1-heptyne + 1-hexadecanol; phases: Liquid, Gas
Fixed: Amount concentration (molarity), mol/dm3 of 1-heptyne = 0
Property: Amount concentration (molarity), mol/dm3 (Liquid); method: gas chromatography
Temperature, K	Amount concentration (molarity), mol/dm3	uncertainty
343.15	257.04	72
353.15	186.209	226
363.15	120.226	56
373.15	117.49	10
383.15	77.625	8

System: 1-octyne + 1-hexadecanol; phases: Liquid, Gas
Fixed: Amount concentration (molarity), mol/dm3 of 1-octyne = 0
Property: Amount concentration (molarity), mol/dm3 (Liquid); method: gas chromatography
Temperature, K	Amount concentration (molarity), mol/dm3	uncertainty
343.15	537.032	148
353.15	389.045	36
363.15	245.471	46
373.15	169.824	94
383.15	114.815	52

System: propan-1-ol + 1-hexadecanol; phases: Liquid, Gas
Fixed: Amount concentration (molarity), mol/dm3 of propan-1-ol = 0
Property: Amount concentration (molarity), mol/dm3 (Liquid); method: gas chromatography
Temperature, K	Amount concentration (molarity), mol/dm3	uncertainty
343.15	301.995	196
353.15	245.471	68
363.15	165.959	76
373.15	144.544	120
383.15	114.815	42

System: propan-2-ol + 1-hexadecanol; phases: Liquid, Gas
Fixed: Amount concentration (molarity), mol/dm3 of propan-2-ol = 0
Property: Amount concentration (molarity), mol/dm3 (Liquid); method: gas chromatography
Temperature, K	Amount concentration (molarity), mol/dm3	uncertainty
343.15	208.93	116
353.15	169.824	240
363.15	131.826	122
373.15	128.825	156
383.15	117.49	154

System: butan-1-ol + 1-hexadecanol; phases: Liquid, Gas
Fixed: Amount concentration (molarity), mol/dm3 of butan-1-ol = 0
Property: Amount concentration (molarity), mol/dm3 (Liquid); method: gas chromatography
Temperature, K	Amount concentration (molarity), mol/dm3	uncertainty
333.15	1659.587	458
343.15	1148.154	1396
353.15	478.63	88
363.15	354.813	196
373.15	346.737	256
383.15	316.228	176

System: 2-methyl-1-propanol + 1-hexadecanol; phases: Liquid, Gas
Fixed: Amount concentration (molarity), mol/dm3 of 2-methyl-1-propanol = 0
Property: Amount concentration (molarity), mol/dm3 (Liquid); method: gas chromatography
Temperature, K	Amount concentration (molarity), mol/dm3	uncertainty
343.15	661	428
353.15	407	112
363.15	282	130
373.15	209	96
383.15	148	166

System: octan-1-ol + 1-hexadecanol; phases: Liquid, Gas
Fixed: Amount concentration (molarity), mol/dm3 of octan-1-ol = 0
Property: Amount concentration (molarity), mol/dm3 (Liquid); method: gas chromatography
Temperature, K	Amount concentration (molarity), mol/dm3	uncertainty
343.15	22387	47330
353.15	12882	29950
363.15	7079	5246
373.15	3890	1436
383.15	3548	654

System: dipropyl ether + 1-hexadecanol; phases: Liquid, Gas
Fixed: Amount concentration (molarity), mol/dm3 of dipropyl ether = 0
Property: Amount concentration (molarity), mol/dm3 (Liquid); method: gas chromatography
Temperature, K	Amount concentration (molarity), mol/dm3	uncertainty
343.15	191	70
353.15	148	40
373.15	85	72
383.15	55	36

System: diisopropyl ether + 1-hexadecanol; phases: Liquid, Gas
Fixed: Amount concentration (molarity), mol/dm3 of diisopropyl ether = 0
Property: Amount concentration (molarity), mol/dm3 (Liquid); method: gas chromatography
Temperature, K	Amount concentration (molarity), mol/dm3	uncertainty
343.15	123	102
353.15	85	64
363.15	63	52
373.15	69	78
383.15	54	70

System: tetrahydrofuran + 1-hexadecanol; phases: Liquid, Gas
Fixed: Amount concentration (molarity), mol/dm3 of tetrahydrofuran = 0
Property: Amount concentration (molarity), mol/dm3 (Liquid); method: gas chromatography
Temperature, K	Amount concentration (molarity), mol/dm3	uncertainty
343.15	309	288
353.15	245	274
363.15	174	178
373.15	162	90
383.15	138	830

System: 1,4-dioxane + 1-hexadecanol; phases: Liquid, Gas
Fixed: Amount concentration (molarity), mol/dm3 of 1,4-dioxane = 0
Property: Amount concentration (molarity), mol/dm3 (Liquid); method: gas chromatography
Temperature, K	Amount concentration (molarity), mol/dm3	uncertainty
343.15	170	94
353.15	224	104
363.15	110	70
373.15	170	158
383.15	17	144

System: acetone + 1-hexadecanol; phases: Liquid, Gas
Fixed: Amount concentration (molarity), mol/dm3 of acetone = 0
Property: Amount concentration (molarity), mol/dm3 (Liquid); method: gas chromatography
Temperature, K	Amount concentration (molarity), mol/dm3	uncertainty
353.15	76	36
363.15	56	80
383.15	30	102

System: butanone + 1-hexadecanol; phases: Liquid, Gas
Fixed: Amount concentration (molarity), mol/dm3 of butanone = 0
Property: Amount concentration (molarity), mol/dm3 (Liquid); method: gas chromatography
Temperature, K	Amount concentration (molarity), mol/dm3	uncertainty
343.15	178	116
353.15	166	92
363.15	155	114
373.15	102	96

System: 3-methyl-2-butanone + 1-hexadecanol; phases: Liquid, Gas
Fixed: Amount concentration (molarity), mol/dm3 of 3-methyl-2-butanone = 0
Property: Amount concentration (molarity), mol/dm3 (Liquid); method: gas chromatography
Temperature, K	Amount concentration (molarity), mol/dm3	uncertainty
333.15	282	104
343.15	200	18
353.15	162	30
363.15	135	126
373.15	105	158

System: cyclopentanone + 1-hexadecanol; phases: Liquid, Gas
Fixed: Amount concentration (molarity), mol/dm3 of cyclopentanone = 0
Property: Amount concentration (molarity), mol/dm3 (Liquid); method: gas chromatography
Temperature, K	Amount concentration (molarity), mol/dm3	uncertainty
343.15	513	672
353.15	331	62
363.15	251	116
373.15	186	52
383.15	162	106

System: methyl ethanoate + 1-hexadecanol; phases: Liquid, Gas
Fixed: Amount concentration (molarity), mol/dm3 of methyl ethanoate = 0
Property: Amount concentration (molarity), mol/dm3 (Liquid); method: gas chromatography
Temperature, K	Amount concentration (molarity), mol/dm3	uncertainty
343.15	68	24
353.15	45	2
363.15	41	18
373.15	28	10
383.15	25	20

System: ethyl acetate + 1-hexadecanol; phases: Liquid, Gas
Fixed: Amount concentration (molarity), mol/dm3 of ethyl acetate = 0
Property: Amount concentration (molarity), mol/dm3 (Liquid); method: gas chromatography
Temperature, K	Amount concentration (molarity), mol/dm3	uncertainty
343.15	123	56
353.15	110	112
363.15	87	32
373.15	72	20
383.15	58	16

System: 2-methylpropyl ethanoate + 1-hexadecanol; phases: Liquid, Gas
Fixed: Amount concentration (molarity), mol/dm3 of 2-methylpropyl ethanoate = 0
Property: Amount concentration (molarity), mol/dm3 (Liquid); method: gas chromatography
Temperature, K	Amount concentration (molarity), mol/dm3	uncertainty
333.15	794	664
343.15	417	76
353.15	331	308
363.15	200	166
373.15	132	122

System: 1,2-dichloroethane + 1-hexadecanol; phases: Liquid, Gas
Fixed: Amount concentration (molarity), mol/dm3 of 1,2-dichloroethane = 0
Property: Amount concentration (molarity), mol/dm3 (Liquid); method: gas chromatography
Temperature, K	Amount concentration (molarity), mol/dm3	uncertainty
343.15	182	118
353.15	151	56
363.15	117	44
373.15	95	80
383.15	85	16

System: 1,1,2,2-tetrachloroethane + 1-hexadecanol; phases: Liquid, Gas
Fixed: Amount concentration (molarity), mol/dm3 of 1,1,2,2-tetrachloroethane = 0
Property: Amount concentration (molarity), mol/dm3 (Liquid); method: gas chromatography
Temperature, K	Amount concentration (molarity), mol/dm3	uncertainty
333.15	3020	1114
343.15	1862	860
353.15	1148	424
363.15	871	322
373.15	537	248

System: 1-iodopropane + 1-hexadecanol; phases: Liquid, Gas
Fixed: Amount concentration (molarity), mol/dm3 of 1-iodopropane = 0
Property: Amount concentration (molarity), mol/dm3 (Liquid); method: gas chromatography
Temperature, K	Amount concentration (molarity), mol/dm3	uncertainty
343.15	316	88
353.15	214	118
363.15	155	42
373.15	132	2
383.15	115	32

System: 1,1,2-trichloro-1,2,2-trifluoroethane + 1-hexadecanol; phases: Liquid, Gas
Fixed: Amount concentration (molarity), mol/dm3 of 1,1,2-trichloro-1,2,2-trifluoroethane = 0
Property: Amount concentration (molarity), mol/dm3 (Liquid); method: gas chromatography
Temperature, K	Amount concentration (molarity), mol/dm3	uncertainty
343.15	66	68
353.15	59	60
363.15	52	48
373.15	48	76
383.15	44	70

System: 2,2,2-trifluoroethanol + 1-hexadecanol; phases: Liquid, Gas
Fixed: Amount concentration (molarity), mol/dm3 of 2,2,2-trifluoroethanol = 0
Property: Amount concentration (molarity), mol/dm3 (Liquid); method: gas chromatography
Temperature, K	Amount concentration (molarity), mol/dm3	uncertainty
343.15	178	234
353.15	151	600
373.15	102	144
383.15	76	14

System: benzene + 1-hexadecanol; phases: Liquid, Gas
Fixed: Amount concentration (molarity), mol/dm3 of benzene = 0
Property: Amount concentration (molarity), mol/dm3 (Liquid); method: gas chromatography
Temperature, K	Amount concentration (molarity), mol/dm3	uncertainty
343.15	372	416
353.15	302	196
363.15	229	256
373.15	204	132
383.15	135	286

System: toluene + 1-hexadecanol; phases: Liquid, Gas
Fixed: Amount concentration (molarity), mol/dm3 of toluene = 0
Property: Amount concentration (molarity), mol/dm3 (Liquid); method: gas chromatography
Temperature, K	Amount concentration (molarity), mol/dm3	uncertainty
343.15	513	94
353.15	363	100
363.15	245	46
373.15	204	56
383.15	166	30

System: 1,4-dimethylbenzene + 1-hexadecanol; phases: Liquid, Gas
Fixed: Amount concentration (molarity), mol/dm3 of 1,4-dimethylbenzene = 0
Property: Amount concentration (molarity), mol/dm3 (Liquid); method: gas chromatography
Temperature, K	Amount concentration (molarity), mol/dm3	uncertainty
333.15	1660	766
343.15	1023	758
353.15	617	400
363.15	468	216
373.15	295	164

System: 1,2,4-trimethylbenzene + 1-hexadecanol; phases: Liquid, Gas
Fixed: Amount concentration (molarity), mol/dm3 of 1,2,4-trimethylbenzene = 0
Property: Amount concentration (molarity), mol/dm3 (Liquid); method: gas chromatography
Temperature, K	Amount concentration (molarity), mol/dm3	uncertainty
363.15	1622	748
373.15	1040	20
383.15	708	658

System: ethylbenzene + 1-hexadecanol; phases: Liquid, Gas
Fixed: Amount concentration (molarity), mol/dm3 of ethylbenzene = 0
Property: Amount concentration (molarity), mol/dm3 (Liquid); method: gas chromatography
Temperature, K	Amount concentration (molarity), mol/dm3	uncertainty
343.15	1023	662
353.15	622	6
363.15	461	8
373.15	363	66
383.15	275	50

System: styrene + 1-hexadecanol; phases: Liquid, Gas
Fixed: Amount concentration (molarity), mol/dm3 of styrene = 0
Property: Amount concentration (molarity), mol/dm3 (Liquid); method: gas chromatography
Temperature, K	Amount concentration (molarity), mol/dm3	uncertainty
343.15	1698	942
353.15	977	632
363.15	647	12
373.15	479	44
383.15	355	98

System: chlorobenzene + 1-hexadecanol; phases: Liquid, Gas
Fixed: Amount concentration (molarity), mol/dm3 of chlorobenzene = 0
Property: Amount concentration (molarity), mol/dm3 (Liquid); method: gas chromatography
Temperature, K	Amount concentration (molarity), mol/dm3	uncertainty
333.15	1175	216
343.15	871	160
353.15	661	60
363.15	457	84
373.15	372	138

System: 1,2-dichlorobenzene + 1-hexadecanol; phases: Liquid, Gas
Fixed: Amount concentration (molarity), mol/dm3 of 1,2-dichlorobenzene = 0
Property: Amount concentration (molarity), mol/dm3 (Liquid); method: gas chromatography
Temperature, K	Amount concentration (molarity), mol/dm3	uncertainty
343.15	6310	25840
353.15	4266	15820
363.15	2291	1484
373.15	1445	400
383.15	724	470

System: 1,3-dichlorobenzene + 1-hexadecanol; phases: Liquid, Gas
Fixed: Amount concentration (molarity), mol/dm3 of 1,3-dichlorobenzene = 0
Property: Amount concentration (molarity), mol/dm3 (Liquid); method: gas chromatography
Temperature, K	Amount concentration (molarity), mol/dm3	uncertainty
333.15	5129	1892
343.15	3236	1194
353.15	2138	592
363.15	1445	534
373.15	955	530

System: bromobenzene + 1-hexadecanol; phases: Liquid, Gas
Fixed: Amount concentration (molarity), mol/dm3 of bromobenzene = 0
Property: Amount concentration (molarity), mol/dm3 (Liquid); method: gas chromatography
Temperature, K	Amount concentration (molarity), mol/dm3	uncertainty
343.15	3802	8838
353.15	2344	1738
363.15	1122	206
373.15	631	116
383.15	407	226

System: iodobenzene + 1-hexadecanol; phases: Liquid, Gas
Fixed: Amount concentration (molarity), mol/dm3 of iodobenzene = 0
Property: Amount concentration (molarity), mol/dm3 (Liquid); method: gas chromatography
Temperature, K	Amount concentration (molarity), mol/dm3	uncertainty
343.15	3802	3894
353.15	1660	3858
363.15	2455	226
373.15	1122	832
383.15	1202	554

System: 1-fluoro-4-methylbenzene + 1-hexadecanol; phases: Liquid, Gas
Fixed: Amount concentration (molarity), mol/dm3 of 1-fluoro-4-methylbenzene = 0
Property: Amount concentration (molarity), mol/dm3 (Liquid); method: gas chromatography
Temperature, K	Amount concentration (molarity), mol/dm3	uncertainty
343.15	398	74
353.15	331	62
363.15	214	78
373.15	170	94
383.15	129	48

System: anisole + 1-hexadecanol; phases: Liquid, Gas
Fixed: Amount concentration (molarity), mol/dm3 of anisole = 0
Property: Amount concentration (molarity), mol/dm3 (Liquid); method: gas chromatography
Temperature, K	Amount concentration (molarity), mol/dm3	uncertainty
343.15	1549	428
353.15	1148	1066
363.15	741	204
373.15	525	194
383.15	427	78

System: benzaldehyde + 1-hexadecanol; phases: Liquid, Gas
Fixed: Amount concentration (molarity), mol/dm3 of benzaldehyde = 0
Property: Amount concentration (molarity), mol/dm3 (Liquid); method: gas chromatography
Temperature, K	Amount concentration (molarity), mol/dm3	uncertainty
333.15	4169	1538
343.15	2692	1242
353.15	1778	492
363.15	1288	476
373.15	832	538

System: indane + 1-hexadecanol; phases: Liquid, Gas
Fixed: Amount concentration (molarity), mol/dm3 of indane = 0
Property: Amount concentration (molarity), mol/dm3 (Liquid); method: gas chromatography
Temperature, K	Amount concentration (molarity), mol/dm3	uncertainty
363.15	2089	1158
373.15	1318	242
383.15	813	1146

System: 1H-indene + 1-hexadecanol; phases: Liquid, Gas
Fixed: Amount concentration (molarity), mol/dm3 of 1H-indene = 0
Property: Amount concentration (molarity), mol/dm3 (Liquid); method: gas chromatography
Temperature, K	Amount concentration (molarity), mol/dm3	uncertainty
343.15	3631	1340
353.15	2512	3296
363.15	1738	802
373.15	1380	766
383.15	1175	216
