Measured thermophysical data. Volumetric and Viscosity Properties of Monosaccharides in Aqueous Amino Acid Solutions at 298.15 K
Source: J. Chem. Eng. Data, 2006, 10.1021/je050412t
Compound 1: water, H2O, InChI=1S/H2O/h1H2
Compound 2: D-glucose, C6H12O6, InChI=1S/C6H12O6/c7-1-3(9)5(11)6(12)4(10)2-8/h1,3-6,8-12H,2H2/t3-,4+,5+,6+/m0/s1
Compound 3: (+)-galactose, C6H12O6, InChI=1S/C6H12O6/c7-1-3(9)5(11)6(12)4(10)2-8/h1,3-6,8-12H,2H2/t3-,4+,5+,6-/m0/s1
Compound 4: D-xylose, C5H10O5, InChI=1S/C5H10O5/c6-1-3(8)5(10)4(9)2-7/h1,3-5,7-10H,2H2/t3-,4+,5+/m0/s1
Compound 5: D-ribose, C5H10O5, InChI=1S/C5H10O5/c6-1-3(8)5(10)4(9)2-7/h1,3-5,7-10H,2H2/t3-,4+,5-/m0/s1
Compound 6: 2-aminoacetic acid, C2H5NO2, InChI=1S/C2H5NO2/c3-1-2(4)5/h1,3H2,(H,4,5)
Compound 7: (S)-2-aminopropanoic acid, C3H7NO2, InChI=1S/C3H7NO2/c1-2(4)3(5)6/h2H,4H2,1H3,(H,5,6)/t2-/m0/s1

System: D-glucose + water; phases: Liquid
Fixed: Temperature, K = 298.15
Fixed: Pressure, kPa = 101
Property: Mass density, kg/m3 (Liquid); method: Vibrating tube method
Molality, mol/kg of D-glucose	Mass density, kg/m3	uncertainty
0.2	1010.418	0.587
0.4	1023.16	0.662
0.6	1035.322	0.734
0.8	1046.917	0.803
1	1057.986	0.869
1.2	1068.59	0.933

System: D-glucose + water; phases: Liquid
Fixed: Pressure, kPa = 101
Fixed: Temperature, K = 298.15
Property: Viscosity, Pa*s (Liquid); method: Capillary tube (Ostwald; Ubbelohde) method
Molality, mol/kg of D-glucose	Viscosity, Pa*s	uncertainty
0.1951	0.000974	9e-06
0.3818	0.001065	1e-05
0.5606	0.001166	1.2e-05
0.732	0.00127	1.3e-05
0.8964	0.001389	1.5e-05
1.0756	0.001517	1.7e-05

System: (+)-galactose + water; phases: Liquid
Fixed: Temperature, K = 298.15
Fixed: Pressure, kPa = 101
Property: Mass density, kg/m3 (Liquid); method: Vibrating tube method
Molality, mol/kg of (+)-galactose	Mass density, kg/m3	uncertainty
0.2	1010.729	0.587
0.4	1023.81	0.662
0.6	1036.283	0.735
0.8	1048.233	0.804
1	1059.604	0.871
1.2	1070.559	0.935

System: (+)-galactose + water; phases: Liquid
Fixed: Pressure, kPa = 101
Fixed: Temperature, K = 298.15
Property: Viscosity, Pa*s (Liquid); method: Capillary tube (Ostwald; Ubbelohde) method
Molality, mol/kg of (+)-galactose	Viscosity, Pa*s	uncertainty
0.1951	0.000971	9e-06
0.382	0.00106	1e-05
0.5611	0.001158	1.2e-05
0.7329	0.001266	1.3e-05
0.8978	0.001379	1.5e-05
1.0563	0.001505	1.7e-05

System: D-xylose + water; phases: Liquid
Fixed: Temperature, K = 298.15
Fixed: Pressure, kPa = 101
Property: Mass density, kg/m3 (Liquid); method: Vibrating tube method
Molality, mol/kg of D-xylose	Mass density, kg/m3	uncertainty
0.2	1007.782	0.572
0.4	1018.09	0.635
0.6	1027.997	0.696
0.8	1037.513	0.755
1	1046.668	0.812
1.2	1055.493	0.867

System: D-xylose + water; phases: Liquid
Fixed: Pressure, kPa = 101
Fixed: Temperature, K = 298.15
Property: Viscosity, Pa*s (Liquid); method: Capillary tube (Ostwald; Ubbelohde) method
Molality, mol/kg of D-xylose	Viscosity, Pa*s	uncertainty
0.1957	0.000953	9e-06
0.3842	0.001023	1e-05
0.5658	0.001096	1.1e-05
0.741	0.001175	1.2e-05
0.9102	0.001257	1.3e-05
1.0732	0.001343	1.4e-05

System: D-ribose + water; phases: Liquid
Fixed: Temperature, K = 298.15
Fixed: Pressure, kPa = 101
Property: Mass density, kg/m3 (Liquid); method: Vibrating tube method
Molality, mol/kg of D-ribose	Mass density, kg/m3	uncertainty
0.2	1007.829	0.573
0.4	1018.185	0.636
0.6	1028.154	0.696
0.8	1037.724	0.755
1	1046.944	0.812
1.2	1055.805	0.867

System: D-ribose + water; phases: Liquid
Fixed: Pressure, kPa = 101
Fixed: Temperature, K = 298.15
Property: Viscosity, Pa*s (Liquid); method: Capillary tube (Ostwald; Ubbelohde) method
Molality, mol/kg of D-ribose	Viscosity, Pa*s	uncertainty
0.1957	0.00095	9e-06
0.3842	0.00101	1e-05
0.5659	0.001075	1.1e-05
0.7412	0.001145	1.2e-05
0.9103	0.001215	1.3e-05
1.0737	0.001292	1.4e-05

System: 2-aminoacetic acid + water; phases: Liquid
Fixed: Pressure, kPa = 101
Fixed: Temperature, K = 298.15
Property: Viscosity, Pa*s (Liquid); method: Capillary tube (Ostwald; Ubbelohde) method
Molality, mol/kg of 2-aminoacetic acid	Viscosity, Pa*s	uncertainty
0.1	0.000903	8e-06
0.15	0.00091	8e-06
0.2	0.000916	8e-06
0.25	0.000922	9e-06
0.3	0.000929	9e-06
0.35	0.000935	9e-06

System: 2-aminoacetic acid + water; phases: Liquid
Fixed: Temperature, K = 298.15
Fixed: Pressure, kPa = 101
Property: Mass density, kg/m3 (Liquid); method: Vibrating tube method
Molality, mol/kg of 2-aminoacetic acid	Mass density, kg/m3	uncertainty
0.1	1000.217	0.522
0.15	1001.783	0.53
0.2	1003.34	0.538
0.25	1004.883	0.547
0.3	1006.417	0.555
0.35	1007.94	0.563

System: (S)-2-aminopropanoic acid + water; phases: Liquid
Fixed: Pressure, kPa = 101
Fixed: Temperature, K = 298.15
Property: Viscosity, Pa*s (Liquid); method: Capillary tube (Ostwald; Ubbelohde) method
Molality, mol/kg of (S)-2-aminopropanoic acid	Viscosity, Pa*s	uncertainty
0.1	0.000912	8e-06
0.15	0.000923	9e-06
0.2	0.000935	9e-06
0.25	0.000946	9e-06
0.3	0.000958	9e-06
0.35	0.00097	9e-06

System: (S)-2-aminopropanoic acid + water; phases: Liquid
Fixed: Temperature, K = 298.15
Fixed: Pressure, kPa = 101
Property: Mass density, kg/m3 (Liquid); method: Vibrating tube method
Molality, mol/kg of (S)-2-aminopropanoic acid	Mass density, kg/m3	uncertainty
0.1001	999.919	0.529
0.15	1001.328	0.538
0.2002	1002.733	0.548
0.25	1004.113	0.557
0.2999	1005.483	0.567
0.3502	1006.853	0.576

System: 2-aminoacetic acid + D-xylose + water; phases: Liquid
Fixed: Pressure, kPa = 101
Fixed: Temperature, K = 298.15
Property: Viscosity, Pa*s (Liquid); method: Capillary tube (Ostwald; Ubbelohde) method
Molality, mol/kg of 2-aminoacetic acid	Molality, mol/kg of D-xylose	Viscosity, Pa*s	uncertainty
0	0.1957	0.000953	9e-06
0	0.3842	0.001023	1e-05
0	0.5658	0.001096	1.1e-05
0	0.741	0.001175	1.2e-05
0	0.9102	0.001257	1.3e-05
0	1.0732	0.001343	1.4e-05
0.1	0.1948	0.000968	9e-06
0.1	0.3825	0.001039	1e-05
0.1	0.5635	0.001115	1.1e-05
0.1	0.738	0.001195	1.2e-05
0.1	0.9064	0.001281	1.4e-05
0.1	1.069	0.001372	1.5e-05
0.15	0.1942	0.000976	9e-06
0.15	0.3815	0.001047	1e-05
0.15	0.5613	0.001122	1.1e-05
0.15	0.7365	0.001203	1.2e-05
0.15	0.9046	0.001289	1.4e-05
0.15	1.0671	0.001384	1.5e-05
0.2	0.194	0.000983	9e-06
0.2	0.381	0.001054	1e-05
0.2	0.5608	0.001131	1.1e-05
0.2	0.735	0.001212	1.3e-05
0.2	0.9027	0.001298	1.4e-05
0.2	1.0647	0.001391	1.5e-05
0.25	0.1936	0.00099	9e-06
0.25	0.3802	0.001061	1e-05
0.25	0.56	0.001139	1.2e-05
0.25	0.7335	0.00122	1.3e-05
0.25	0.901	0.001308	1.4e-05
0.25	1.0626	0.001401	1.5e-05
0.3	0.1932	0.000997	1e-05
0.3	0.3794	0.00107	1.1e-05
0.3	0.5588	0.001147	1.2e-05
0.3	0.732	0.00123	1.3e-05
0.3	0.8991	0.001317	1.4e-05
0.3	1.0605	0.001409	1.5e-05
0.35	0.1928	0.001004	1e-05
0.35	0.3786	0.001077	1.1e-05
0.35	0.5577	0.001155	1.2e-05
0.35	0.7305	0.001238	1.3e-05
0.35	0.8876	0.001321	1.4e-05
0.35	1.0584	0.00142	1.6e-05

System: 2-aminoacetic acid + D-xylose + water; phases: Liquid
Fixed: Temperature, K = 298.15
Fixed: Pressure, kPa = 101
Property: Mass density, kg/m3 (Liquid); method: Vibrating tube method
Molality, mol/kg of 2-aminoacetic acid	Molality, mol/kg of D-xylose	Mass density, kg/m3	uncertainty
0.1	0.2	1010.817	0.589
0.1	0.4	1020.998	0.652
0.1	0.6	1030.792	0.712
0.1	0.8	1040.2	0.77
0.1	1	1049.261	0.826
0.1	1.2	1057.98	0.881
0.15	0.1998	1012.311	0.597
0.15	0.3998	1022.44	0.659
0.15	0.5989	1032.139	0.719
0.15	0.8	1041.555	0.777
0.15	1	1050.557	0.833
0.15	1.2	1059.247	0.888
0.2	0.2	1013.822	0.605
0.2	0.4	1023.892	0.667
0.2	0.5996	1033.549	0.727
0.2	0.8	1042.879	0.785
0.2	1	1051.835	0.84
0.2	1.2	1060.458	0.894
0.25	0.2	1015.3	0.613
0.25	0.4	1025.315	0.675
0.25	0.6	1034.95	0.734
0.25	0.8	1044.196	0.792
0.25	0.9999	1053.108	5142
0.25	1.2	1061.686	0.901
0.3	0.2	1016.774	0.621
0.3	0.4	1026.729	0.683
0.3	0.6	1036.291	0.742
0.3	0.8	1045.492	0.799
0.3	1	1054.355	0.854
0.3	1.2	1062.891	0.908
0.35	0.2	1018.231	0.629
0.35	0.4	1028.124	0.69
0.35	0.6	1037.64	0.749
0.35	0.8	1046.789	0.806
0.35	0.9881	1055.09	0.858
0.35	1.2	1064.09	0.915

System: D-ribose + 2-aminoacetic acid + water; phases: Liquid
Fixed: Pressure, kPa = 101
Fixed: Temperature, K = 298.15
Property: Viscosity, Pa*s (Liquid); method: Capillary tube (Ostwald; Ubbelohde) method
Molality, mol/kg of 2-aminoacetic acid	Molality, mol/kg of D-ribose	Viscosity, Pa*s	uncertainty
0	0.1957	0.00095	9e-06
0	0.3842	0.00101	1e-05
0	0.5659	0.001075	1.1e-05
0	0.7412	0.001145	1.2e-05
0	0.9103	0.001215	1.3e-05
0	1.0737	0.001292	1.4e-05
0.1	0.1949	0.000963	9e-06
0.1	0.3826	0.001026	1e-05
0.1	0.5636	0.001094	1.1e-05
0.1	0.7382	0.001165	1.2e-05
0.1	0.8881	0.001233	1.3e-05
0.1	1.0653	0.001318	1.4e-05
0.15	0.1944	0.000971	9e-06
0.15	0.3818	0.001034	1e-05
0.15	0.5624	0.001102	1.1e-05
0.15	0.7364	0.001173	1.2e-05
0.15	0.9048	0.00125	1.3e-05
0.15	1.0672	0.001328	1.4e-05
0.2	0.1919	0.000977	9e-06
0.2	0.381	0.001041	1e-05
0.2	0.5601	0.001109	1.1e-05
0.2	0.7352	0.001182	1.2e-05
0.2	0.903	0.001259	1.3e-05
0.2	1.0651	0.001339	1.5e-05
0.25	0.1936	0.000984	9e-06
0.25	0.3802	0.001049	1e-05
0.25	0.5601	0.001117	1.1e-05
0.25	0.7337	0.00119	1.2e-05
0.25	0.9012	0.001268	1.4e-05
0.25	1.063	0.001348	1.5e-05
0.3	0.1932	0.000991	1e-05
0.3	0.3794	0.001057	1e-05
0.3	0.5589	0.001126	1.1e-05
0.3	0.7322	0.001199	1.3e-05
0.3	0.8983	0.001276	1.4e-05
0.3	1.0609	0.001358	1.5e-05
0.35	0.1926	0.000998	1e-05
0.35	0.377	0.001063	1.1e-05
0.35	0.5578	0.001133	1.2e-05
0.35	0.7306	0.001207	1.3e-05
0.35	0.8975	0.001285	1.4e-05
0.35	1.0589	0.001369	1.5e-05

System: D-ribose + 2-aminoacetic acid + water; phases: Liquid
Fixed: Temperature, K = 298.15
Fixed: Pressure, kPa = 101
Property: Mass density, kg/m3 (Liquid); method: Vibrating tube method
Molality, mol/kg of 2-aminoacetic acid	Molality, mol/kg of D-ribose	Mass density, kg/m3	uncertainty
0.1	0.2	1010.887	0.589
0.1	0.4	1021.128	0.652
0.1	0.6	1030.972	0.712
0.1	0.8	1040.442	0.77
0.1	0.9776	1048.549	0.82
0.1	1.195	1058.119	0.88
0.15	0.2	1012.384	0.597
0.15	0.4	1022.561	0.66
0.15	0.6	1032.345	0.72
0.15	0.8	1041.752	0.778
0.15	1	1050.82	0.834
0.15	1.1978	1059.455	0.887
0.2	0.1978	1013.765	0.605
0.2	0.4	1024.008	0.667
0.2	0.5987	1033.69	0.727
0.2	0.8	1043.112	0.785
0.2	1	1052.141	0.841
0.2	1.2	1060.839	0.895
0.25	0.2	1015.361	0.613
0.25	0.4	1025.433	0.675
0.25	0.6	1035.12	0.734
0.25	0.8	1044.445	0.792
0.25	1	1053.418	0.848
0.25	1.2	1062.055	0.902
0.3	0.2	1016.845	0.621
0.3	0.4	1026.854	0.683
0.3	0.6	1036.487	0.742
0.3	0.8	1045.751	0.799
0.3	0.9987	1054.612	44.502
0.3	1.2	1063.279	0.908
0.35	0.1998	1018.283	0.629
0.35	0.3982	1028.168	0.69
0.35	0.6	1037.832	0.749
0.35	0.7999	1047.043	0.806
0.35	1	1055.902	0.861
0.35	1.2	1064.45	0.915

System: D-glucose + (S)-2-aminopropanoic acid + water; phases: Liquid
Fixed: Pressure, kPa = 101
Fixed: Temperature, K = 298.15
Property: Viscosity, Pa*s (Liquid); method: Capillary tube (Ostwald; Ubbelohde) method
Molality, mol/kg of (S)-2-aminopropanoic acid	Molality, mol/kg of D-glucose	Viscosity, Pa*s	uncertainty
0.1	0	0.000912	8e-06
0.1	0.1939	0.000999	1e-05
0.1	0.3795	0.001093	1.1e-05
0.1	0.5574	0.001197	1.2e-05
0.1	0.7279	0.001307	1.4e-05
0.1	0.8916	0.001429	1.5e-05
0.1	1.0486	0.001561	1.7e-05
0.15	0	0.000923	9e-06
0.15	0.1933	0.001011	1e-05
0.15	0.3784	0.001106	1.1e-05
0.15	0.5558	0.001211	1.2e-05
0.15	0.7259	0.001322	1.4e-05
0.15	0.8892	0.001445	1.6e-05
0.15	1.0459	0.00158	1.8e-05
0.2	0	0.000935	9e-06
0.2	0.1928	0.001024	1e-05
0.2	0.3773	0.001121	1.1e-05
0.2	0.5542	0.001226	1.3e-05
0.2	0.7209	0.001336	1.4e-05
0.2	0.8867	0.001464	1.6e-05
0.2	1.0431	0.001601	1.8e-05
0.25	0	0.000946	9e-06
0.25	0.1922	0.001036	1e-05
0.25	0.3763	0.001134	1.1e-05
0.25	0.5526	0.00124	1.3e-05
0.25	0.7219	0.001355	1.4e-05
0.25	0.8843	0.001482	1.6e-05
0.25	1.0403	0.001619	1.8e-05
0.3	0	0.000958	9e-06
0.3	0.1916	0.001049	1e-05
0.3	0.3752	0.001149	1.2e-05
0.3	0.5504	0.001256	1.3e-05
0.3	0.7199	0.001372	1.5e-05
0.3	0.8808	0.001499	1.6e-05
0.3	1.0375	0.00164	1.8e-05
0.35	0	0.00097	9e-06
0.35	0.1911	0.001062	1e-05
0.35	0.3741	0.001163	1.2e-05
0.35	0.5496	0.001273	1.3e-05
0.35	0.7179	0.001393	1.5e-05
0.35	0.8795	0.001519	1.7e-05
0.35	1.0348	0.001661	1.9e-05

System: D-glucose + (S)-2-aminopropanoic acid + water; phases: Liquid
Fixed: Temperature, K = 298.15
Fixed: Pressure, kPa = 101
Property: Mass density, kg/m3 (Liquid); method: Vibrating tube method
Molality, mol/kg of (S)-2-aminopropanoic acid	Molality, mol/kg of D-glucose	Mass density, kg/m3	uncertainty
0.1001	0	999.919	0.529
0.1001	0.1966	1012.889	0.605
0.1001	0.4	1025.691	0.68
0.1001	0.6	1037.706	0.751
0.1001	0.7996	1049.175	0.819
0.1001	1	1060.183	0.885
0.1001	1.1987	1070.628	0.948
0.15	0	1001.328	0.538
0.15	0.2002	1014.45	0.615
0.15	0.4	1026.941	0.689
0.15	0.6	1038.898	0.759
0.15	0.8	1050.314	0.828
0.15	1	1061.249	0.893
0.15	1.2	1071.706	0.956
0.2002	0	1002.733	0.548
0.2002	0.2	1015.747	0.624
0.2002	0.4	1028.167	0.697
0.2002	0.6	1040.033	0.768
0.2002	0.7964	1051.188	0.834
0.2002	1	1062.247	0.901
0.2002	1.2	1072.636	0.964
0.25	0	1004.113	0.557
0.25	0.2	1017.037	0.633
0.25	0.4	1029.387	0.706
0.25	0.6	1041.186	0.776
0.25	0.8	1052.475	0.843
0.25	1	1063.256	0.908
0.25	1.2	1073.624	0.971
0.2999	0	1005.483	0.567
0.2999	0.2	1018.332	0.642
0.2999	0.4	1030.606	0.715
0.2999	0.5992	1042.287	0.784
0.2999	0.8005	1053.583	0.852
0.2999	0.9987	1064.216	0.916
0.2999	1.2	1074.575	0.978
0.3502	0	1006.853	0.576
0.3502	0.2	1019.63	0.651
0.3502	0.4	1031.837	0.723
0.3502	0.6	1043.504	0.793
0.3502	0.8	1054.662	0.859
0.3502	1	1065.347	0.924
0.3502	1.2	1075.567	0.985

System: (S)-2-aminopropanoic acid + (+)-galactose + water; phases: Liquid
Fixed: Pressure, kPa = 101
Fixed: Temperature, K = 298.15
Property: Viscosity, Pa*s (Liquid); method: Capillary tube (Ostwald; Ubbelohde) method
Molality, mol/kg of (S)-2-aminopropanoic acid	Molality, mol/kg of (+)-galactose	Viscosity, Pa*s	uncertainty
0.1	0.194	0.000995	1e-05
0.1	0.3798	0.001087	1.1e-05
0.1	0.5579	0.001188	1.2e-05
0.1	0.7289	0.001298	1.4e-05
0.1	0.8929	0.001413	1.5e-05
0.1	1.0506	0.001545	1.7e-05
0.15	0.1934	0.001007	1e-05
0.15	0.3787	0.001101	1.1e-05
0.15	0.5564	0.001203	1.2e-05
0.15	0.7268	0.001314	1.4e-05
0.15	0.8905	0.001429	1.6e-05
0.15	1.0478	0.001561	1.7e-05
0.2	0.1928	0.00102	1e-05
0.2	0.3775	0.001115	1.1e-05
0.2	0.5545	0.001219	1.3e-05
0.2	0.7247	0.00133	1.4e-05
0.2	0.888	0.001446	1.6e-05
0.2	1.0341	0.001575	1.8e-05
0.25	0.1923	0.001032	1e-05
0.25	0.3765	0.001128	1.1e-05
0.25	0.5532	0.001233	1.3e-05
0.25	0.7228	0.001347	1.4e-05
0.25	0.8856	0.001465	1.6e-05
0.25	1.0421	0.001599	1.8e-05
0.3	0.1917	0.001045	1e-05
0.3	0.3754	0.001143	1.1e-05
0.3	0.5516	0.001248	1.3e-05
0.3	0.7207	0.001364	1.5e-05
0.3	0.8832	0.001484	1.6e-05
0.3	1.0393	0.00162	1.8e-05
0.35	0.1911	0.001059	1e-05
0.35	0.3744	0.001157	1.2e-05
0.35	0.5501	0.001264	1.3e-05
0.35	0.7188	0.001381	1.5e-05
0.35	0.8809	0.001506	1.7e-05
0.35	1.0365	0.001641	1.9e-05

System: (S)-2-aminopropanoic acid + (+)-galactose + water; phases: Liquid
Fixed: Temperature, K = 298.15
Fixed: Pressure, kPa = 101
Property: Mass density, kg/m3 (Liquid); method: Vibrating tube method
Molality, mol/kg of (S)-2-aminopropanoic acid	Molality, mol/kg of (+)-galactose	Mass density, kg/m3	uncertainty
0.1	0.2	1013.441	0.606
0.1	0.4	1026.355	0.681
0.1	0.6	1038.69	0.752
0.1	0.8	1050.487	0.821
0.1	1	1061.769	0.887
0.1	1.2	1072.574	0.951
0.1499	0.2	1014.757	0.615
0.1499	0.4	1027.591	0.689
0.1499	0.6	1039.863	0.76
0.1499	0.8	1051.58	0.829
0.1499	1	1062.805	0.894
0.1499	1.2	1073.553	0.958
0.2	0.2	1016.082	0.624
0.2	0.3999	1028.828	0.698
0.2	0.5997	1041.016	0.769
0.2	0.7999	1052.677	0.837
0.2	1	1063.834	0.902
0.2	1.2	1074.529	0.965
0.25	0.2	1017.391	0.633
0.25	0.4	1030.072	0.707
0.25	0.6	1042.206	0.777
0.25	0.8	1053.786	0.845
0.25	1	1064.895	0.91
0.25	1.2	1075.516	0.973
0.3	0.2	1018.695	0.642
0.3	0.4	1031.282	0.715
0.3	0.6	1043.332	0.785
0.3	0.8	1054.859	0.853
0.3	1	1065.893	0.917
0.3	1.2	1076.481	0.98
0.35	0.2	1019.967	0.651
0.35	0.4	1032.504	0.724
0.35	0.6	1044.501	0.793
0.35	0.8	1055.958	0.86
0.35	1	1066.933	0.925
0.35	1.2	1077.445	0.987

System: (S)-2-aminopropanoic acid + D-xylose + water; phases: Liquid
Fixed: Pressure, kPa = 101
Fixed: Temperature, K = 298.15
Property: Viscosity, Pa*s (Liquid); method: Capillary tube (Ostwald; Ubbelohde) method
Molality, mol/kg of (S)-2-aminopropanoic acid	Molality, mol/kg of D-xylose	Viscosity, Pa*s	uncertainty
0.1	0.1945	0.000978	9e-06
0.1	0.378	0.001047	1e-05
0.1	0.5626	0.001123	1.1e-05
0.1	0.7368	0.001204	1.2e-05
0.1	0.905	0.001286	1.4e-05
0.1	1.0674	0.001376	1.5e-05
0.15	0.194	0.00099	9e-06
0.15	0.3783	0.00106	1e-05
0.15	0.561	0.001138	1.1e-05
0.15	0.7348	0.001219	1.3e-05
0.15	0.9025	0.001301	1.4e-05
0.15	1.0644	0.001394	1.5e-05
0.2	0.1934	0.001003	1e-05
0.2	0.3797	0.001075	1.1e-05
0.2	0.5594	0.001152	1.2e-05
0.2	0.7327	0.001234	1.3e-05
0.2	0.9	0.001319	1.4e-05
0.2	1.0616	0.001409	1.5e-05
0.25	0.1928	0.001015	1e-05
0.25	0.3786	0.001088	1.1e-05
0.25	0.5578	0.001166	1.2e-05
0.25	0.7307	0.00125	1.3e-05
0.25	0.8975	0.001333	1.4e-05
0.25	1.0588	0.001428	1.6e-05
0.3	0.1923	0.001028	1e-05
0.3	0.3775	0.001101	1.1e-05
0.3	0.5562	0.001181	1.2e-05
0.3	0.7286	0.001265	1.3e-05
0.3	0.8951	0.001349	1.4e-05
0.3	1.0558	0.001443	1.6e-05
0.35	0.1917	0.001041	1e-05
0.35	0.3765	0.001115	1.1e-05
0.35	0.5547	0.001195	1.2e-05
0.35	0.7266	0.001281	1.3e-05
0.35	0.8926	0.001366	1.5e-05
0.35	1.0531	0.001463	1.6e-05

System: (S)-2-aminopropanoic acid + D-xylose + water; phases: Liquid
Fixed: Temperature, K = 298.15
Fixed: Pressure, kPa = 101
Property: Mass density, kg/m3 (Liquid); method: Vibrating tube method
Molality, mol/kg of (S)-2-aminopropanoic acid	Molality, mol/kg of D-xylose	Mass density, kg/m3	uncertainty
0.09995	0.2	1010.506	0.592
0.09995	0.3923	1020.299	0.652
0.09995	0.6	1030.462	0.714
0.09995	0.8	1039.879	0.772
0.09995	1	1048.94	0.828
0.09995	1.2	1057.651	0.883
0.15	0.2	1011.851	0.601
0.15	0.392	1021.568	0.66
0.15	0.6	1031.691	0.723
0.15	0.8	1041.052	0.78
0.15	1	1050.048	0.836
0.15	1.2	1058.715	0.89
0.2	0.2	1013.188	0.61
0.2	0.4	1023.241	0.672
0.2	0.6	1032.904	0.731
0.2	0.8	1042.212	0.789
0.2	1	1051.152	0.844
0.2	1.2	1059.777	0.898
0.25	0.2	1014.513	0.619
0.25	0.4	1024.507	0.681
0.25	0.6	1034.117	0.74
0.25	0.8	1043.356	0.797
0.25	1	1052.253	0.852
0.25	1.2	1060.82	0.906
0.3	0.2	1015.823	0.628
0.3	0.4	1025.77	0.689
0.3	0.6	1035.324	0.748
0.3	0.8	1044.521	0.805
0.3	1	1053.367	0.86
0.3	1.2	1061.89	0.913
0.35	0.2	1017.129	0.637
0.35	0.4	1027.015	0.698
0.35	0.6	1036.511	0.756
0.35	0.8	1045.653	0.813
0.35	1	1054.446	0.868
0.35	1.2	1062.927	0.921

System: D-ribose + (S)-2-aminopropanoic acid + water; phases: Liquid
Fixed: Pressure, kPa = 101
Fixed: Temperature, K = 298.15
Property: Viscosity, Pa*s (Liquid); method: Capillary tube (Ostwald; Ubbelohde) method
Molality, mol/kg of (S)-2-aminopropanoic acid	Molality, mol/kg of D-ribose	Viscosity, Pa*s	uncertainty
0.1	0.1945	0.000972	9e-06
0.1	0.382	0.001035	1e-05
0.1	0.5627	0.001102	1.1e-05
0.1	0.737	0.001174	1.2e-05
0.1	0.9053	0.001245	1.3e-05
0.1	1.0678	0.001325	1.4e-05
0.15	0.194	0.000984	9e-06
0.15	0.3809	0.001048	1e-05
0.15	0.5611	0.001116	1.1e-05
0.15	0.7349	0.001188	1.2e-05
0.15	0.9028	0.00126	1.3e-05
0.15	1.0648	0.00134	1.5e-05
0.2	0.1934	0.000997	1e-05
0.2	0.3788	0.001061	1e-05
0.2	0.5595	0.00113	1.1e-05
0.2	0.7329	0.001203	1.3e-05
0.2	0.9003	0.001276	1.4e-05
0.2	1.0619	0.001356	1.5e-05
0.25	0.1928	0.001009	1e-05
0.25	0.3787	0.001074	1.1e-05
0.25	0.5579	0.001144	1.2e-05
0.25	0.7308	0.001218	1.3e-05
0.25	0.8978	0.001292	1.4e-05
0.25	1.0591	0.001373	1.5e-05
0.3	0.1923	0.001022	1e-05
0.3	0.3776	0.001088	1.1e-05
0.3	0.5563	0.001158	1.2e-05
0.3	0.7288	0.001233	1.3e-05
0.3	0.8953	0.001307	1.4e-05
0.3	1.056	0.001389	1.5e-05
0.35	0.1917	0.001035	1e-05
0.35	0.3765	0.001102	1.1e-05
0.35	0.5548	0.001173	1.2e-05
0.35	0.7268	0.001249	1.3e-05
0.35	0.8928	0.001323	1.4e-05
0.35	1.0533	0.001407	1.6e-05

System: D-ribose + (S)-2-aminopropanoic acid + water; phases: Liquid
Fixed: Temperature, K = 298.15
Fixed: Pressure, kPa = 101
Property: Mass density, kg/m3 (Liquid); method: Vibrating tube method
Molality, mol/kg of (S)-2-aminopropanoic acid	Molality, mol/kg of D-ribose	Mass density, kg/m3	uncertainty
0.1	0.2	1010.556	0.592
0.1	0.4	1020.796	0.654
0.1	0.6	1030.652	0.714
0.1	0.8	1040.114	0.772
0.1	1	1049.238	0.829
0.1	1.2	1058.03	0.883
0.15	0.2	1011.916	0.601
0.15	0.4	1022.092	0.663
0.15	0.6	1031.878	0.723
0.15	0.8	1041.3	0.781
0.15	1	1050.355	0.837
0.15	1.2	1059.092	0.891
0.2	0.2	1013.251	0.61
0.2	0.4	1023.364	0.672
0.2	0.6	1033.092	0.731
0.2	0.8	1042.456	0.789
0.2	1	1051.461	0.844
0.2	1.2	1060.145	0.898
0.25	0.2	1014.573	0.619
0.25	0.4	1024.628	0.681
0.25	0.6	1034.306	0.74
0.25	0.8	1043.599	0.797
0.25	1	1052.565	0.852
0.25	1.2	1061.198	0.906
0.3	0.2	1015.879	0.628
0.3	0.4	1025.872	0.689
0.3	0.6	1035.488	0.748
0.3	0.8	1044.742	0.805
0.3	1	1053.659	0.86
0.3	1.2	1062.223	0.914
0.35	0.2	1017.188	0.637
0.35	0.4	1027.114	0.698
0.35	0.6	1036.675	0.757
0.35	0.8	1045.882	0.813
0.35	1	1054.734	0.868
0.35	1.2	1063.282	0.921

System: D-glucose + 2-aminoacetic acid + water; phases: Liquid
Fixed: Pressure, kPa = 101
Fixed: Temperature, K = 298.15
Property: Viscosity, Pa*s (Liquid); method: Capillary tube (Ostwald; Ubbelohde) method
Molality, mol/kg of 2-aminoacetic acid	Molality, mol/kg of D-glucose	Viscosity, Pa*s	uncertainty
0	0.1951	0.000974	9e-06
0	0.3818	0.001065	1e-05
0	0.5606	0.001166	1.2e-05
0	0.732	0.00127	1.3e-05
0	0.8964	0.001389	1.5e-05
0	1.0756	0.001517	1.7e-05
0.1	0	0.000903	8e-06
0.1	0.1942	0.000988	9e-06
0.1	0.3802	0.001083	1.1e-05
0.1	0.5583	0.001186	1.2e-05
0.1	0.7283	0.001298	1.4e-05
0.1	0.8929	0.001418	1.5e-05
0.1	1.0502	0.00154	1.7e-05
0.15	0	0.00091	8e-06
0.15	0.1937	0.000996	1e-05
0.15	0.3793	0.001091	1.1e-05
0.15	0.5571	0.001195	1.2e-05
0.15	0.7276	0.001308	1.4e-05
0.15	0.8853	0.001427	1.5e-05
0.15	1.0481	0.001553	1.7e-05
0.2	0	0.000916	8e-06
0.2	0.1934	0.001003	1e-05
0.2	0.3786	0.001099	1.1e-05
0.2	0.556	0.001203	1.2e-05
0.2	0.7261	0.001317	1.4e-05
0.2	0.8893	0.001439	1.6e-05
0.2	1.0461	0.001572	1.8e-05
0.25	0	0.000922	9e-06
0.25	0.193	0.00101	1e-05
0.25	0.3778	0.001106	1.1e-05
0.25	0.5548	0.001211	1.2e-05
0.25	0.724	0.001326	1.4e-05
0.25	0.8876	0.001452	1.6e-05
0.25	1.0439	0.001582	1.8e-05
0.3	0	0.000929	9e-06
0.3	0.1926	0.001018	1e-05
0.3	0.377	0.001114	1.1e-05
0.3	0.5537	0.001221	1.3e-05
0.3	0.7232	0.001336	1.4e-05
0.3	0.8944	0.001466	1.6e-05
0.3	1.0321	0.001591	1.8e-05
0.35	0	0.000935	9e-06
0.35	0.1922	0.001025	1e-05
0.35	0.3762	0.001122	1.1e-05
0.35	0.5526	0.00123	1.3e-05
0.35	0.7213	0.001346	1.4e-05
0.35	0.8826	0.001472	1.6e-05
0.35	1.04	0.00161	1.8e-05

System: D-glucose + 2-aminoacetic acid + water; phases: Liquid
Fixed: Temperature, K = 298.15
Fixed: Pressure, kPa = 101
Property: Mass density, kg/m3 (Liquid); method: Vibrating tube method
Molality, mol/kg of 2-aminoacetic acid	Molality, mol/kg of D-glucose	Mass density, kg/m3	uncertainty
0.1	0	1000.217	0.522
0.1	0.2	1013.415	0.6
0.1	0.4	1026.006	0.674
0.1	0.6	1038.016	0.746
0.1	0.7991	1049.449	0.815
0.1	1	1060.457	0.882
0.1	1.2	1070.976	0.945
0.15	0	1001.783	0.53
0.15	0.1999	1014.89	0.608
0.15	0.4	1027.409	0.682
0.15	0.6	1039.349	0.754
0.15	0.8	1050.761	0.822
0.15	0.9928	1061.292	0.886
0.15	1.2	1072.115	0.952
0.2	0	1003.34	0.538
0.2	0.2	1016.378	0.616
0.2	0.4	1028.814	0.69
0.2	0.6	1040.704	0.761
0.2	0.8	1052.057	0.83
0.2	1	1062.914	0.895
0.2	1.2	1073.307	0.959
0.25	0	1004.883	0.547
0.25	0.2	1017.846	0.624
0.25	0.4	1030.217	0.698
0.25	0.6	1042.034	0.768
0.25	0.7992	1053.294	0.836
0.25	1	1064.124	0.902
0.25	1.1999	1074.458	0.965
0.3	0	1006.417	0.555
0.3	0.2	1019.309	0.632
0.3	0.4	1031.615	0.705
0.3	0.6	1043.372	0.776
0.3	0.8	1054.61	0.844
0.3	1	1065.365	0.909
0.3	1.2	1075.655	0.972
0.35	0	1007.94	0.563
0.35	0.2	1020.754	0.639
0.35	0.4	1032.986	0.713
0.35	0.6	1044.669	0.783
0.35	0.7995	1055.813	0.85
0.35	0.9982	1066.43	0.915
0.35	1.2	1076.763	0.978

System: 2-aminoacetic acid + (+)-galactose + water; phases: Liquid
Fixed: Pressure, kPa = 101
Fixed: Temperature, K = 298.15
Property: Viscosity, Pa*s (Liquid); method: Capillary tube (Ostwald; Ubbelohde) method
Molality, mol/kg of 2-aminoacetic acid	Molality, mol/kg of (+)-galactose	Viscosity, Pa*s	uncertainty
0	0.1951	0.000971	9e-06
0	0.382	0.00106	1e-05
0	0.5611	0.001158	1.2e-05
0	0.7329	0.001266	1.3e-05
0	0.8978	0.001379	1.5e-05
0	1.0563	0.001505	1.7e-05
0.1	0.1943	0.000986	9e-06
0.1	0.3804	0.001077	1.1e-05
0.1	0.5584	0.001179	1.2e-05
0.1	0.7253	0.001286	1.4e-05
0.1	0.8943	0.001409	1.5e-05
0.1	1.0521	0.001534	1.7e-05
0.15	0.1939	0.000994	1e-05
0.15	0.3795	0.001086	1.1e-05
0.15	0.5576	0.001188	1.2e-05
0.15	0.7284	0.001298	1.4e-05
0.15	0.8923	0.001419	1.5e-05
0.15	1.05	0.001551	1.7e-05
0.2	0.1935	0.001001	1e-05
0.2	0.3788	0.001094	1.1e-05
0.2	0.5565	0.001196	1.2e-05
0.2	0.727	0.001306	1.4e-05
0.2	0.8898	0.001429	1.6e-05
0.2	1.048	0.001562	1.7e-05
0.25	0.1897	0.001006	1e-05
0.25	0.378	0.001102	1.1e-05
0.25	0.5554	0.001204	1.2e-05
0.25	0.7255	0.001316	1.4e-05
0.25	0.8889	0.001438	1.6e-05
0.25	1.0459	0.001572	1.8e-05
0.3	0.1926	0.001016	1e-05
0.3	0.3772	0.00111	1.1e-05
0.3	0.5542	0.001213	1.3e-05
0.3	0.724	0.001326	1.4e-05
0.3	0.8871	0.001449	1.6e-05
0.3	1.0439	0.001583	1.8e-05
0.35	0.1922	0.001023	1e-05
0.35	0.3764	0.001117	1.1e-05
0.35	0.5531	0.001221	1.3e-05
0.35	0.7226	0.001335	1.4e-05
0.35	0.8854	0.001459	1.6e-05
0.35	1.0417	0.001594	1.8e-05

System: 2-aminoacetic acid + (+)-galactose + water; phases: Liquid
Fixed: Temperature, K = 298.15
Fixed: Pressure, kPa = 101
Property: Mass density, kg/m3 (Liquid); method: Vibrating tube method
Molality, mol/kg of 2-aminoacetic acid	Molality, mol/kg of (+)-galactose	Mass density, kg/m3	uncertainty
0.1	0.2	1013.758	0.604
0.1	0.4	1026.679	0.678
0.1	0.5996	1038.99	0.75
0.1	0.7945	1050.492	0.817
0.1	1	1062.093	0.885
0.1	1.2	1072.885	0.949
0.15	0.2	1015.25	0.612
0.15	0.3999	1028.073	0.686
0.15	0.6	1040.347	0.757
0.15	0.7999	1052.078	0.826
0.15	0.9998	1063.289	0.892
0.15	1.2	1074.029	0.955
0.2	0.2	1016.729	0.62
0.2	0.4	1029.501	0.694
0.2	0.6	1041.704	0.765
0.2	0.8	1053.374	0.833
0.2	0.9988	1064.477	0.898
0.2	1.2	1075.225	0.962
0.25	0.1965	1017.96	7.822
0.25	0.4	1030.896	0.701
0.25	0.6	1043.039	0.772
0.25	0.8	1054.642	0.84
0.25	1	1065.742	0.905
0.25	1.2	1076.385	0.968
0.3	0.2	1019.649	0.635
0.3	0.4	1032.287	0.709
0.3	0.6	1044.358	0.779
0.3	0.8	1055.894	0.847
0.3	1	1066.952	0.912
0.3	1.2	1077.532	0.975
0.35	0.2	1021.094	0.643
0.35	0.4	1033.663	0.716
0.35	0.6	1045.668	0.786
0.35	0.8	1057.15	0.854
0.35	1	1068.151	0.919
0.35	1.2	1078.675	0.981
