Measured thermophysical data. Saturated Heat Capacities of Some Linear and Branched Alkylbenzenes between (332 and 401) K
Source: J. Chem. Eng. Data, 2006, 10.1021/je050273f
Compound 1: ethylbenzene, C8H10, InChI=1S/C8H10/c1-2-8-6-4-3-5-7-8/h3-7H,2H2,1H3, purity 99%
Compound 2: propylbenzene, C9H12, InChI=1S/C9H12/c1-2-6-9-7-4-3-5-8-9/h3-5,7-8H,2,6H2,1H3, purity 99%
Compound 3: butylbenzene, C10H14, InChI=1S/C10H14/c1-2-3-7-10-8-5-4-6-9-10/h4-6,8-9H,2-3,7H2,1H3, purity 99%
Compound 4: hexylbenzene, C12H18, InChI=1S/C12H18/c1-2-3-4-6-9-12-10-7-5-8-11-12/h5,7-8,10-11H,2-4,6,9H2,1H3, purity 97%
Compound 5: heptylbenzene, C13H20, InChI=1S/C13H20/c1-2-3-4-5-7-10-13-11-8-6-9-12-13/h6,8-9,11-12H,2-5,7,10H2,1H3, purity 99%
Compound 6: hexadecylbenzene, C22H38, InChI=1S/C22H38/c1-2-3-4-5-6-7-8-9-10-11-12-13-14-16-19-22-20-17-15-18-21-22/h15,17-18,20-21H,2-14,16,19H2,1H3, purity 97%
Compound 7: 1,3-dimethylbenzene, C8H10, InChI=1S/C8H10/c1-7-4-3-5-8(2)6-7/h3-6H,1-2H3, purity 99%
Compound 8: isopropylbenzene, C9H12, InChI=1S/C9H12/c1-8(2)9-6-4-3-5-7-9/h3-8H,1-2H3, purity 98%
Compound 9: (1-methylpropyl)benzene, C10H14, InChI=1S/C10H14/c1-3-9(2)10-7-5-4-6-8-10/h4-9H,3H2,1-2H3, purity 99%
Compound 10: (1,1-dimethylethyl)benzene, C10H14, InChI=1S/C10H14/c1-10(2,3)9-7-5-4-6-8-9/h4-8H,1-3H3, purity 97%
Compound 11: (2-methylpropyl)benzene, C10H14, InChI=1S/C10H14/c1-9(2)8-10-6-4-3-5-7-10/h3-7,9H,8H2,1-2H3, purity 99%

System: ethylbenzene; phases: Liquid, Gas
Property: Molar heat capacity at saturation pressure, J/K/mol (Liquid); method: Large sample (1 g) DSC
Temperature, K	Molar heat capacity at saturation pressure, J/K/mol	uncertainty
332.2	198.7	4
342.1	202.4	4
354.9	205.9	4.1
361.8	210.2	4.2
371.6	213.6	4.3
381.5	218	4.4
391.4	221.7	4.4

System: propylbenzene; phases: Liquid, Gas
Property: Molar heat capacity at saturation pressure, J/K/mol (Liquid); method: Large sample (1 g) DSC
Temperature, K	Molar heat capacity at saturation pressure, J/K/mol	uncertainty
332.2	227.4	4.5
342.1	231.4	4.6
354.9	235.8	4.7
361.8	240.1	4.8
371.6	244.6	4.9
381.5	249.3	5
391.4	252	5

System: butylbenzene; phases: Liquid, Gas
Property: Molar heat capacity at saturation pressure, J/K/mol (Liquid); method: Large sample (1 g) DSC
Temperature, K	Molar heat capacity at saturation pressure, J/K/mol	uncertainty
332.2	259.1	5.2
342.1	263	5.3
354.9	267.8	5.4
361.8	272.9	5.5
371.6	277.6	5.6
381.5	283.9	5.7
391.4	288	5.8
401.3	293.9	5.9

System: hexylbenzene; phases: Liquid, Gas
Property: Molar heat capacity at saturation pressure, J/K/mol (Liquid); method: Large sample (1 g) DSC
Temperature, K	Molar heat capacity at saturation pressure, J/K/mol	uncertainty
332.2	323.1	6.5
342.1	328.8	6.6
354.9	334.1	6.7
361.8	340.1	6.8
371.6	347.9	7
381.5	353.8	7.1
391.4	359.1	7.2
401.3	366.1	7.3

System: heptylbenzene; phases: Liquid, Gas
Property: Molar heat capacity at saturation pressure, J/K/mol (Liquid); method: Large sample (1 g) DSC
Temperature, K	Molar heat capacity at saturation pressure, J/K/mol	uncertainty
332.2	353.6	7.1
342.1	359.6	7.2
354.9	364.9	7.3
361.8	371.5	7.4
371.6	377.2	7.5
381.5	384.3	7.7
391.4	389.9	7.8
401.3	396.5	7.9

System: hexadecylbenzene; phases: Liquid, Gas
Property: Molar heat capacity at saturation pressure, J/K/mol (Liquid); method: Large sample (1 g) DSC
Temperature, K	Molar heat capacity at saturation pressure, J/K/mol	uncertainty
332.2	640	12.8
342.1	651.3	13
354.9	662	13.2
361.8	671.9	13.4
371.6	683.3	13.7
381.5	695.3	13.9
391.4	710	14.2
401.3	721.1	14.4

System: 1,3-dimethylbenzene; phases: Liquid, Gas
Property: Molar heat capacity at saturation pressure, J/K/mol (Liquid); method: Large sample (1 g) DSC
Temperature, K	Molar heat capacity at saturation pressure, J/K/mol	uncertainty
332.2	193.6	3.9
342.1	197.6	4
354.9	201.7	4
361.8	205.7	4.1
371.6	209.4	4.2
381.5	213.6	4.3
391.4	217.4	4.3
401.3	221.7	4.4

System: isopropylbenzene; phases: Liquid, Gas
Property: Molar heat capacity at saturation pressure, J/K/mol (Liquid); method: Large sample (1 g) DSC
Temperature, K	Molar heat capacity at saturation pressure, J/K/mol	uncertainty
332.2	229.1	4.6
342.1	234.2	4.7
354.9	238.5	4.8
361.8	242.5	4.9
371.6	246.7	4.9
381.5	251.1	5
391.4	255.2	5.1
401.3	259.5	5.2

System: (1-methylpropyl)benzene; phases: Liquid, Gas
Property: Molar heat capacity at saturation pressure, J/K/mol (Liquid); method: Large sample (1 g) DSC
Temperature, K	Molar heat capacity at saturation pressure, J/K/mol	uncertainty
332.2	258.5	5.2
342.1	262.6	5.3
354.9	267.9	5.4
361.8	272.5	5.5
371.6	277.5	5.6
381.5	282.4	5.6
391.4	287.3	5.7
401.3	292.1	5.8

System: (1,1-dimethylethyl)benzene; phases: Liquid, Gas
Property: Molar heat capacity at saturation pressure, J/K/mol (Liquid); method: Large sample (1 g) DSC
Temperature, K	Molar heat capacity at saturation pressure, J/K/mol	uncertainty
332.2	259	5.2
342.1	263.1	5.3
354.9	268.3	5.4
361.8	272.7	5.5
371.6	278.4	5.6
381.5	283	5.7
391.4	288.8	5.8
401.3	293.5	5.9

System: (2-methylpropyl)benzene; phases: Liquid, Gas
Property: Molar heat capacity at saturation pressure, J/K/mol (Liquid); method: Large sample (1 g) DSC
Temperature, K	Molar heat capacity at saturation pressure, J/K/mol	uncertainty
332.2	259.1	5.2
342.1	263.5	5.3
354.9	268.8	5.4
361.8	273.9	5.5
371.6	278.6	5.6
381.5	283	5.7
391.4	289.1	5.8
401.3	293.8	5.9
