Measured thermophysical data. Liquid-Liquid Equilibria for the Binary Systems (Water + Di-n-butyl Phthalate), (Water + Di-ethyl Phthalate), and (Water + Di-isobutyl Hexahydrophthalate) from (298.2 to 348.2) K
Source: J. Chem. Eng. Data, 2006, 10.1021/je050382u
Compound 1: water, H2O, InChI=1S/H2O/h1H2
Compound 2: dibutyl phthalate, C16H22O4, InChI=1S/C16H22O4/c1-3-5-11-19-15(17)13-9-7-8-10-14(13)16(18)20-12-6-4-2/h7-10H,3-6,11-12H2,1-2H3
Compound 3: diethyl phthalate, C12H14O4, InChI=1S/C12H14O4/c1-3-15-11(13)9-7-5-6-8-10(9)12(14)16-4-2/h5-8H,3-4H2,1-2H3
Compound 4: diisobutyl hexahydrophthalate, C16H28O4, InChI=1S/C16H28O4/c1-11(2)9-19-15(17)13-7-5-6-8-14(13)16(18)20-10-12(3)4/h11-14H,5-10H2,1-4H3

System: dibutyl phthalate + water; phases: Liquid mixture 2, Liquid mixture 1
Fixed: Pressure, kPa = 101
Property: Mole fraction of dibutyl phthalate (Liquid mixture 2); method: OTHER:UFactor:2:sMethod:UV Spectrum
Temperature, K	Mole fraction of dibutyl phthalate	uncertainty
298.2	3.92e-06	2.3e-07
318.2	6.03e-06	2.6e-07
333.2	8.61e-06	3.2e-07
343.2	1.04e-05	4e-07

System: dibutyl phthalate + water; phases: Liquid mixture 1, Liquid mixture 2
Fixed: Pressure, kPa = 101
Property: Mole fraction of water (Liquid mixture 1); method: TITR:UFactor:2
Temperature, K	Mole fraction of water	uncertainty
298.2	0.0584	0.0018
318.2	0.061	0.0019
333.2	0.0672	0.0021
343.2	0.0748	0.0023

System: diethyl phthalate + water; phases: Liquid mixture 2, Liquid mixture 1
Fixed: Pressure, kPa = 101
Property: Mole fraction of diethyl phthalate (Liquid mixture 2); method: OTHER:UFactor:2:sMethod:UV Spectrum
Temperature, K	Mole fraction of diethyl phthalate	uncertainty
298.2	0.000201	6e-06
318.2	0.000244	8e-06
333.2	0.000294	9e-06
343.2	0.000335	1e-05

System: diethyl phthalate + water; phases: Liquid mixture 1, Liquid mixture 2
Fixed: Pressure, kPa = 101
Property: Mole fraction of water (Liquid mixture 1); method: TITR:UFactor:2
Temperature, K	Mole fraction of water	uncertainty
298.2	0.0962	0.003
318.2	0.114	0.0035
333.2	0.1356	0.0042
343.2	0.1563	0.0048

System: water + diisobutyl hexahydrophthalate; phases: Liquid mixture 1, Liquid mixture 2
Fixed: Pressure, kPa = 101
Property: Mole fraction of water (Liquid mixture 1); method: TITR:UFactor:4
Temperature, K	Mole fraction of water	uncertainty
298.2	0.0659	0.0041
318.2	0.0813	0.005
333.2	0.0964	0.006
348.2	0.1043	0.0065

System: water + diisobutyl hexahydrophthalate; phases: Liquid mixture 2, Liquid mixture 1
Fixed: Pressure, kPa = 101
Property: Mole fraction of diisobutyl hexahydrophthalate (Liquid mixture 2); method: OTHER:UFactor:2:sMethod:UV Spectrum
Temperature, K	Mole fraction of diisobutyl hexahydrophthalate	uncertainty
298.2	3.42e-06	2.2e-07
318.2	7.67e-06	3e-07
333.2	8.56e-06	3.1e-07
348.2	9.06e-06	3.3e-07
