Measured thermophysical data. Volumetric and Viscosity Properties of r-Amino Acids and Their Groups in Aqueous Sodium Caproate Solutions
Source: J. Chem. Eng. Data, 2005, 10.1021/je0501484
Compound 1: sodium hexanoate, C6H11NaO2, InChI=1S/C6H12O2.Na/c1-2-3-4-5-6(7)8;/h2-5H2,1H3,(H,7,8);/q;+1/p-1
Compound 2: DL-2-amino-3-methylbutanoic acid, C5H11NO2, InChI=1S/C5H11NO2/c1-3(2)4(6)5(7)8/h3-4H,6H2,1-2H3,(H,7,8)
Compound 3: (.+-.)-leucine, C6H13NO2, InChI=1S/C6H13NO2/c1-4(2)3-5(7)6(8)9/h4-5H,3,7H2,1-2H3,(H,8,9)
Compound 4: water, H2O, InChI=1S/H2O/h1H2

System: water + sodium hexanoate; phases: Liquid
Fixed: Pressure, kPa = 101
Property: Viscosity, Pa*s (Liquid); method: CAPTUB:UFactor:2
Temperature, K	Molality, mol/kg of sodium hexanoate	Viscosity, Pa*s	uncertainty
298.15	0.5	0.001212	2.7e-05
298.15	1	0.001607	3.5e-05
298.15	1.5	0.002102	4.5e-05
298.15	2.1773	0.003187	6.8e-05
308.15	0.5	0.000956	2.1e-05
308.15	1	0.00124	2.7e-05
308.15	1.5	0.001601	3.5e-05
308.15	2.1773	0.002402	5.2e-05

System: water + sodium hexanoate; phases: Liquid
Fixed: Pressure, kPa = 101
Property: Mass density, kg/m3 (Liquid); method: VIBTUB:UFactor:16
Temperature, K	Molality, mol/kg of sodium hexanoate	Mass density, kg/m3	uncertainty
298.15	0.5	1014.396	0.872
298.15	1	1029.412	1.032
298.15	1.5	1041.883	1.172
298.15	2.1773	1054.224	1.33
308.15	0.5	1010.739	0.855
308.15	1	1024.963	1.011
308.15	1.5	1036.699	1.148
308.15	2.1773	1048.717	1.304

System: DL-2-amino-3-methylbutanoic acid + water + sodium hexanoate; phases: Liquid
Fixed: Pressure, kPa = 101
Property: Viscosity, Pa*s (Liquid); method: CAPTUB:UFactor:2
Temperature, K	Molality, mol/kg of sodium hexanoate	Amount concentration (molarity), mol/dm3 of DL-2-amino-3-methylbutanoic acid	Viscosity, Pa*s	uncertainty
298.15	0.5	0	0.001212	2.7e-05
298.15	0.5	0.03481	0.001229	2.7e-05
298.15	0.5	0.06616	0.001246	2.7e-05
298.15	0.5	0.1012	0.001264	2.8e-05
298.15	0.5	0.1506	0.001292	2.8e-05
298.15	0.5	0.1992	0.001319	2.9e-05
298.15	0.5	0.2506	0.001349	3e-05
298.15	1	0	0.001607	3.5e-05
298.15	1	0.03519	0.001632	3.5e-05
298.15	1	0.0668	0.001656	3.6e-05
298.15	1	0.1017	0.001681	3.7e-05
298.15	1	0.1504	0.001717	3.7e-05
298.15	1	0.2013	0.001754	3.8e-05
298.15	1	0.2495	0.001789	3.9e-05
298.15	1.5	0	0.002102	4.5e-05
298.15	1.5	0.03538	0.002133	4.6e-05
298.15	1.5	0.06789	0.002164	4.7e-05
298.15	1.5	0.1035	0.002198	4.7e-05
298.15	1.5	0.1543	0.002249	4.9e-05
298.15	1.5	0.2042	0.002299	5e-05
298.15	1.5	0.2546	0.00235	5.1e-05
298.15	2.1773	0	0.003187	6.8e-05
298.15	2.1773	0.0362	0.003241	7e-05
298.15	2.1773	0.06928	0.003293	7.1e-05
298.15	2.1773	0.105	0.003353	7.2e-05
298.15	2.1773	0.1564	0.003431	7.4e-05
298.15	2.1773	0.2065	0.003508	7.5e-05
298.15	2.1773	0.2561	0.003593	7.7e-05
308.15	0.5	0	0.000956	2.1e-05
308.15	0.5	0.03468	0.000969	2.1e-05
308.15	0.5	0.06592	0.000981	2.2e-05
308.15	0.5	0.1008	0.000995	2.2e-05
308.15	0.5	0.1501	0.001015	2.2e-05
308.15	0.5	0.1985	0.001035	2.3e-05
308.15	0.5	0.2497	0.001057	2.3e-05
308.15	1	0	0.00124	2.7e-05
308.15	1	0.03504	0.001258	2.8e-05
308.15	1	0.06651	0.001273	2.8e-05
308.15	1	0.1012	0.001291	2.8e-05
308.15	1	0.1497	0.001316	2.9e-05
308.15	1	0.2004	0.001343	2.9e-05
308.15	1	0.2484	0.00137	3e-05
308.15	1.5	0	0.001601	3.5e-05
308.15	1.5	0.0352	0.001625	3.5e-05
308.15	1.5	0.06755	0.001648	3.6e-05
308.15	1.5	0.103	0.001673	3.6e-05
308.15	1.5	0.1535	0.001709	3.7e-05
308.15	1.5	0.2032	0.001745	3.8e-05
308.15	1.5	0.2533	0.001781	3.9e-05
308.15	2.1773	0	0.002402	5.2e-05
308.15	2.1773	0.036	0.002444	5.3e-05
308.15	2.1773	0.06892	0.002481	5.3e-05
308.15	2.1773	0.1045	0.002527	5.4e-05
308.15	2.1773	0.1556	0.002577	5.6e-05
308.15	2.1773	0.2054	0.002632	5.7e-05
308.15	2.1773	0.2548	0.00269	5.8e-05

System: DL-2-amino-3-methylbutanoic acid + water + sodium hexanoate; phases: Liquid
Fixed: Pressure, kPa = 101
Property: Mass density, kg/m3 (Liquid); method: VIBTUB:UFactor:16
Temperature, K	Molality, mol/kg of sodium hexanoate	Molality, mol/kg of DL-2-amino-3-methylbutanoic acid	Mass density, kg/m3	uncertainty
298.15	0.5	0	1014.396	0.872
298.15	0.5	0.03442	1015.248	0.882
298.15	0.5	0.06562	1016.013	0.89
298.15	0.5	0.1007	1016.874	0.9
298.15	0.5	0.1505	1018.062	0.913
298.15	0.5	0.2	1019.258	0.926
298.15	0.5	0.2528	1020.522	0.94
298.15	0.5	0.2961	1021.516	0.951
298.15	0.5	0.3478	1022.727	0.965
298.15	0.5	0.3964	1023.846	0.977
298.15	1	0	1029.412	1.032
298.15	1	0.0343	1030.194	1.04
298.15	1	0.06529	1030.894	1.048
298.15	1	0.09971	1031.673	1.057
298.15	1	0.1481	1032.744	1.069
298.15	1	0.1992	1033.869	1.081
298.15	1	0.2481	1034.956	1.093
298.15	1	0.2943	1035.922	1.104
298.15	1	0.3391	1036.888	1.115
298.15	1	0.3945	1038.049	1.128
298.15	1.5	0	1041.883	1.172
298.15	1.5	0.03407	1042.558	1.179
298.15	1.5	0.06559	1043.179	1.187
298.15	1.5	0.1003	1043.858	1.194
298.15	1.5	0.1503	1044.824	1.205
298.15	1.5	0.1998	1045.723	1.216
298.15	1.5	0.2503	1046.684	1.227
298.15	1.5	0.3228	1048.039	1.242
298.15	1.5	0.3742	1048.971	1.253
298.15	1.5	0.4307	1049.983	1.265
298.15	2.1773	0	1054.224	1.33
298.15	2.1773	0.03446	1054.799	1.336
298.15	2.1773	0.06616	1055.319	1.343
298.15	2.1773	0.1006	1055.903	1.349
298.15	2.1773	0.1506	1056.689	1.359
298.15	2.1773	0.1998	1057.469	1.368
298.15	2.1773	0.2491	1058.291	1.378
298.15	2.1773	0.3055	1059.16	1.388
298.15	2.1773	0.3597	1060.026	1.398
298.15	2.1773	0.4115	1060.836	1.408
308.15	0.5	0	1010.739	0.855
308.15	0.5	0.03442	1011.566	0.865
308.15	0.5	0.06562	1012.306	0.873
308.15	0.5	0.1007	1013.148	0.883
308.15	0.5	0.1505	1014.329	0.896
308.15	0.5	0.2	1015.518	0.909
308.15	0.5	0.2528	1016.738	0.923
308.15	0.5	0.2961	1017.702	0.934
308.15	0.5	0.3478	1018.873	0.947
308.15	0.5	0.3964	1019.988	0.96
308.15	1	0	1024.963	1.011
308.15	1	0.0343	1025.74	1.02
308.15	1	0.06529	1026.437	1.027
308.15	1	0.09971	1027.194	1.036
308.15	1	0.1481	1028.259	1.048
308.15	1	0.1992	1029.361	1.06
308.15	1	0.2481	1030.427	1.072
308.15	1	0.2943	1031.349	1.083
308.15	1	0.3391	1032.273	1.093
308.15	1	0.3945	1033.386	1.106
308.15	1.5	0	1036.699	1.148
308.15	1.5	0.03407	1037.381	1.155
308.15	1.5	0.06559	1038.002	1.162
308.15	1.5	0.1003	1038.679	1.17
308.15	1.5	0.1503	1039.642	1.181
308.15	1.5	0.1998	1040.582	1.192
308.15	1.5	0.2503	1041.54	1.203
308.15	1.5	0.3228	1042.784	1.218
308.15	1.5	0.3742	1043.697	1.229
308.15	1.5	0.4307	1044.729	1.241
308.15	2.1773	0	1048.717	1.304
308.15	2.1773	0.03446	1049.269	1.311
308.15	2.1773	0.06616	1049.77	1.317
308.15	2.1773	0.1006	1050.331	1.323
308.15	2.1773	0.1506	1051.108	1.333
308.15	2.1773	0.1998	1051.871	1.342
308.15	2.1773	0.2491	1052.685	1.351
308.15	2.1773	0.3055	1053.57	1.362
308.15	2.1773	0.3597	1054.428	1.372
308.15	2.1773	0.4115	1055.234	1.382

System: (.+-.)-leucine + water + sodium hexanoate; phases: Liquid
Fixed: Pressure, kPa = 101
Property: Viscosity, Pa*s (Liquid); method: CAPTUB:UFactor:2
Temperature, K	Molality, mol/kg of sodium hexanoate	Amount concentration (molarity), mol/dm3 of (.+-.)-leucine	Viscosity, Pa*s	uncertainty
298.15	0.5	0.004434	0.001197	2.6e-05
298.15	0.5	0.01481	0.00122	2.7e-05
298.15	0.5	0.02491	0.001226	2.7e-05
298.15	0.5	0.04036	0.001235	2.7e-05
298.15	0.5	0.05038	0.001241	2.7e-05
298.15	0.5	0.06572	0.001251	2.7e-05
298.15	1	0.01548	0.001619	3.5e-05
298.15	1	0.02572	0.001628	3.5e-05
298.15	1	0.04149	0.00164	3.6e-05
298.15	1	0.05156	0.001648	3.6e-05
298.15	1	0.06198	0.001657	3.6e-05
298.15	1.5	0.01571	0.002117	4.6e-05
298.15	1.5	0.02658	0.002129	4.6e-05
298.15	1.5	0.04174	0.002146	4.6e-05
298.15	1.5	0.05201	0.002157	4.7e-05
298.15	1.5	0.0635	0.002171	4.7e-05
298.15	2.1773	0.01571	0.003213	6.9e-05
298.15	2.1773	0.02624	0.003231	6.9e-05
298.15	2.1773	0.04195	0.003257	7e-05
298.15	2.1773	0.05223	0.003274	7e-05
298.15	2.1773	0.0631	0.003292	7.1e-05
308.15	0.5	0.004418	0.000958	2.1e-05
308.15	0.5	0.01475	0.000962	2.1e-05
308.15	0.5	0.02482	0.000967	2.1e-05
308.15	0.5	0.04021	0.000974	2.2e-05
308.15	0.5	0.0502	0.000978	2.2e-05
308.15	0.5	0.06548	0.000985	2.2e-05
308.15	1	0.01542	0.001249	2.7e-05
308.15	1	0.02561	0.001254	2.7e-05
308.15	1	0.04131	0.001263	2.8e-05
308.15	1	0.05134	0.001269	2.8e-05
308.15	1	0.06171	0.001275	2.8e-05
308.15	1.5	0.01563	0.001613	3.5e-05
308.15	1.5	0.02645	0.001622	3.5e-05
308.15	1.5	0.04153	0.001634	3.6e-05
308.15	1.5	0.05179	0.001642	3.6e-05
308.15	1.5	0.06324	0.001651	3.6e-05
308.15	2.1773	0.01563	0.002421	5.2e-05
308.15	2.1773	0.0261	0.002434	5.2e-05
308.15	2.1773	0.04173	0.002453	5.3e-05
308.15	2.1773	0.05195	0.002466	5.3e-05
308.15	2.1773	0.06276	0.002479	5.3e-05

System: (.+-.)-leucine + water + sodium hexanoate; phases: Liquid
Fixed: Pressure, kPa = 101
Property: Mass density, kg/m3 (Liquid); method: VIBTUB:UFactor:16
Temperature, K	Molality, mol/kg of sodium hexanoate	Molality, mol/kg of (.+-.)-leucine	Mass density, kg/m3	uncertainty
298.15	0.5	0.004373	1014.493	0.874
298.15	0.5	0.01462	1014.719	0.877
298.15	0.5	0.02462	1014.931	0.879
298.15	0.5	0.03499	1015.157	0.882
298.15	0.5	0.03996	1015.259	0.884
298.15	0.5	0.04994	1015.462	0.927
298.15	1	0.01506	1029.71	1.036
298.15	1	0.02505	1029.902	1.038
298.15	1	0.03033	1030	1.04
298.15	1	0.04049	1030.199	1.042
298.15	1	0.04553	1030.288	1.043
298.15	1	0.05037	1030.375	1.044
298.15	1	0.05602	1030.48	1.046
298.15	1	0.06477	1030.624	1.074
298.15	1.5	0.0151	1042.147	1.176
298.15	1.5	0.02559	1042.326	1.178
298.15	1.5	0.04024	1042.574	1.181
298.15	1.5	0.04735	1042.695	1.183
298.15	1.5	0.05021	1042.739	1.183
298.15	1.5	0.05765	1042.87	1.185
298.15	1.5	0.06138	1042.925	1.186
298.15	1.5	0.06562	1042.993	1.187
298.15	2.1777	0.01493	1054.427	1.333
298.15	2.1777	0.02496	1054.563	1.335
298.15	2.1777	0.03998	1054.761	1.337
298.15	2.1777	0.04527	1054.832	1.339
298.15	2.1777	0.04983	1054.892	1.339
298.15	2.1777	0.05566	1054.97	1.34
298.15	2.1777	0.06028	1055.021	1.341
298.15	2.1777	0.0645	1055.076	1.342
308.15	0.5	0.004373	1010.833	0.857
308.15	0.5	0.01462	1011.051	0.86
308.15	0.5	0.01972	1011.158	0.861
308.15	0.5	0.02462	1011.265	0.862
308.15	0.5	0.03499	1011.484	0.865
308.15	0.5	0.03996	1011.589	0.867
308.15	0.5	0.04994	1011.798	0.869
308.15	0.5	0.06525	1012.117	0.874
308.15	1	0.01506	1025.262	1.015
308.15	1	0.02505	1025.461	1.017
308.15	1	0.04049	1025.76	1.021
308.15	1	0.04553	1025.859	1.023
308.15	1	0.05037	1025.957	1.024
308.15	1	0.05602	1026.062	1.025
308.15	1	0.06062	1026.153	1.026
308.15	1	0.06477	1026.348	1.029
308.15	1.5	0.0151	1036.967	1.151
308.15	1.5	0.02559	1037.148	1.154
308.15	1.5	0.03192	1037.26	1.155
308.15	1.5	0.04024	1037.409	1.157
308.15	1.5	0.04735	1037.535	1.159
308.15	1.5	0.05021	1037.579	1.159
308.15	1.5	0.05765	1037.714	1.161
308.15	1.5	0.06138	1037.771	1.162
308.15	1.5	0.06562	1037.851	1.163
308.15	2.1777	0.01493	1048.912	1.307
308.15	2.1777	0.02496	1049.038	1.309
308.15	2.1777	0.03998	1049.222	1.312
308.15	2.1777	0.04983	1049.344	1.314
308.15	2.1777	0.05566	1049.413	1.315
308.15	2.1777	0.06028	1049.466	1.315
308.15	2.1777	0.0645	1049.512	1.316
