Measured thermophysical data. Effect of Water Content on the Solubility of CO2 in the Ionic Liquid [bmim][PF6]
Source: J. Chem. Eng. Data, 2006, 10.1021/je0502501
Compound 1: 1-butyl-3-methylimidazolium hexafluorophosphate, C8H15F6N2P, InChI=1S/C8H15N2.F6P/c1-3-4-5-10-7-6-9(2)8-10;1-7(2,3,4,5)6/h6-8H,3-5H2,1-2H3;/q+1;-1
Compound 2: carbon dioxide, CO2, InChI=1S/CO2/c2-1-3
Compound 3: water, H2O, InChI=1S/H2O/h1H2

System: water + 1-butyl-3-methylimidazolium hexafluorophosphate; phases: Liquid
Fixed: Temperature, K = 313
Fixed: Pressure, kPa = 101
Property: Mass density, kg/m3 (Liquid); method: Vibrating tube method
Mass fraction of water	Mass density, kg/m3	uncertainty
6.7e-05	1358.7	3.6
0.0015	1357.6	3.6
0.0089	1347.3	3.6
0.016	1335.5	3.5

System: carbon dioxide + water + 1-butyl-3-methylimidazolium hexafluorophosphate; phases: Liquid, Gas
Property: Molar volume, m3/mol (Liquid); method: Pycnometric method
Mass fraction of water	Temperature, K	Pressure, kPa	Molar volume, m3/mol	uncertainty
6.7e-05	313.15	1000	0.0001872	5.6e-06
6.7e-05	313.15	2000	0.0001697	5.1e-06
6.7e-05	313.15	3000	0.0001563	4.7e-06
6.7e-05	313.15	4000	0.0001447	4.3e-06
6.7e-05	313.15	5000	0.0001368	4.1e-06
6.7e-05	313.15	6000	0.0001299	3.9e-06
6.7e-05	313.15	7000	0.0001243	3.7e-06
6.7e-05	313.15	8000	0.0001214	3.6e-06
6.7e-05	313.15	9000	0.0001172	3.5e-06
6.7e-05	323.15	1000	0.0001927	5.8e-06
6.7e-05	323.15	2000	0.0001762	5.3e-06
6.7e-05	323.15	3000	0.0001627	4.9e-06
6.7e-05	323.15	4000	0.0001511	4.5e-06
6.7e-05	323.15	5000	0.0001419	4.3e-06
6.7e-05	323.15	6000	0.0001359	4.1e-06
6.7e-05	323.15	7000	0.0001283	3.9e-06
6.7e-05	323.15	8000	0.0001236	3.7e-06
6.7e-05	323.15	9000	0.0001203	3.6e-06
6.7e-05	333.15	1000	0.0001953	5.9e-06
6.7e-05	333.15	2000	0.0001788	5.4e-06
6.7e-05	333.15	3000	0.0001683	5.1e-06
6.7e-05	333.15	4000	0.0001577	4.7e-06
6.7e-05	333.15	5000	0.0001485	4.5e-06
6.7e-05	333.15	6000	0.0001408	4.2e-06
6.7e-05	333.15	7000	0.000135	4.1e-06
6.7e-05	333.15	8000	0.0001303	3.9e-06
6.7e-05	333.15	9000	0.0001258	3.8e-06
0.0015	313.15	1000	0.000183	5.5e-06
0.0015	313.15	2000	0.0001652	5e-06
0.0015	313.15	3000	0.0001514	4.5e-06
0.0015	313.15	4000	0.0001398	4.2e-06
0.0015	313.15	5000	0.000131	3.9e-06
0.0015	313.15	6000	0.0001238	3.7e-06
0.0015	313.15	7000	0.0001182	3.6e-06
0.0015	313.15	8000	0.0001153	3.5e-06
0.0015	313.15	9000	0.0001091	3.3e-06
0.0015	313.15	10000	0.0001054	3.2e-06
0.0015	313.15	12000	9.23e-05	2.8e-06
0.0015	313.15	15000	9.02e-05	2.7e-06
0.0015	313.15	20000	8.82e-05	2.7e-06
0.0015	313.15	25000	8.62e-05	2.6e-06
0.0015	323.15	1000	0.0001836	5.5e-06
0.0015	323.15	2000	0.0001684	5.1e-06
0.0015	323.15	3000	0.0001579	4.7e-06
0.0015	323.15	4000	0.0001503	4.5e-06
0.0015	323.15	5000	0.0001419	4.3e-06
0.0015	323.15	6000	0.0001347	4e-06
0.0015	323.15	7000	0.0001284	3.9e-06
0.0015	323.15	8000	0.0001235	3.7e-06
0.0015	323.15	9000	0.0001203	3.6e-06
0.0015	323.15	10000	0.0001175	3.5e-06
0.0015	323.15	12000	0.0001103	3.3e-06
0.0015	323.15	15000	0.0001071	3.2e-06
0.0015	323.15	20000	0.0001032	3.1e-06
0.0015	323.15	25000	9.99e-05	3e-06
0.0015	333.15	1000	0.0001965	5.9e-06
0.0015	333.15	2000	0.0001831	5.5e-06
0.0015	333.15	3000	0.000171	5.1e-06
0.0015	333.15	4000	0.0001612	4.8e-06
0.0015	333.15	5000	0.0001532	4.6e-06
0.0015	333.15	6000	0.000146	4.4e-06
0.0015	333.15	7000	0.0001399	4.2e-06
0.0015	333.15	8000	0.0001351	4.1e-06
0.0015	333.15	9000	0.0001313	3.9e-06
0.0015	333.15	10000	0.0001277	3.8e-06
0.0015	333.15	12000	0.0001218	3.7e-06
0.0015	333.15	15000	0.0001157	3.5e-06
0.0015	333.15	20000	0.0001111	3.3e-06
0.0015	333.15	25000	0.0001077	3.2e-06
0.0089	313.15	1000	0.0001696	5.1e-06
0.0089	313.15	2000	0.0001564	4.7e-06
0.0089	313.15	3000	0.0001451	4.4e-06
0.0089	313.15	4000	0.0001356	4.1e-06
0.0089	313.15	5000	0.0001279	3.8e-06
0.0089	313.15	6000	0.0001215	3.7e-06
0.0089	313.15	7000	0.0001165	3.5e-06
0.0089	313.15	8000	0.0001124	3.4e-06
0.0089	313.15	9000	0.0001108	3.3e-06
0.0089	323.15	1000	0.0001715	5.2e-06
0.0089	323.15	2000	0.0001595	4.8e-06
0.0089	323.15	3000	0.0001494	4.5e-06
0.0089	323.15	4000	0.0001409	4.2e-06
0.0089	323.15	5000	0.0001335	4e-06
0.0089	323.15	6000	0.0001272	3.8e-06
0.0089	323.15	7000	0.000122	3.7e-06
0.0089	323.15	8000	0.0001177	3.5e-06
0.0089	323.15	9000	0.0001148	3.5e-06
0.0089	333.15	1000	0.0001792	5.4e-06
0.0089	333.15	2000	0.0001679	5e-06
0.0089	333.15	3000	0.0001584	4.8e-06
0.0089	333.15	4000	0.0001505	4.5e-06
0.0089	333.15	5000	0.0001434	4.3e-06
0.0089	333.15	6000	0.0001372	4.1e-06
0.0089	333.15	7000	0.0001321	4e-06
0.0089	333.15	8000	0.0001279	3.8e-06
0.0089	333.15	9000	0.0001246	3.7e-06
0.016	313.15	1000	0.0001518	4.6e-06
0.016	313.15	2000	0.000139	4.2e-06
0.016	313.15	3000	0.0001303	3.9e-06
0.016	313.15	4000	0.0001227	3.7e-06
0.016	313.15	5000	0.0001166	3.5e-06
0.016	313.15	6000	0.0001124	3.4e-06
0.016	313.15	7000	0.0001083	3.3e-06
0.016	313.15	8000	0.0001075	3.2e-06
0.016	313.15	9000	0.0001075	3.2e-06
0.016	323.15	1000	0.0001551	4.7e-06
0.016	323.15	2000	0.0001449	4.4e-06
0.016	323.15	3000	0.0001365	4.1e-06
0.016	323.15	4000	0.0001295	3.9e-06
0.016	323.15	5000	0.0001234	3.7e-06
0.016	323.15	6000	0.0001185	3.6e-06
0.016	323.15	7000	0.0001149	3.5e-06
0.016	323.15	8000	0.0001129	3.4e-06
0.016	323.15	9000	0.0001099	3.3e-06
0.016	333.15	1000	0.0001615	4.9e-06
0.016	333.15	2000	0.0001493	4.5e-06
0.016	333.15	3000	0.0001407	4.2e-06
0.016	333.15	4000	0.0001331	4e-06
0.016	333.15	5000	0.0001268	3.8e-06
0.016	333.15	6000	0.0001215	3.7e-06
0.016	333.15	7000	0.0001173	3.5e-06
0.016	333.15	8000	0.0001135	3.4e-06
0.016	333.15	9000	0.0001105	3.3e-06

System: carbon dioxide + water + 1-butyl-3-methylimidazolium hexafluorophosphate; phases: Liquid, Gas
Property: Mole fraction of carbon dioxide (Liquid); method: Phase equilibration
Mass fraction of water	Temperature, K	Pressure, kPa	Mole fraction of carbon dioxide	uncertainty
6.7e-05	313.15	1000	0.129	0.004
6.7e-05	313.15	2000	0.215	0.004
6.7e-05	313.15	3000	0.288	0.005
6.7e-05	313.15	4000	0.356	0.005
6.7e-05	313.15	5000	0.412	0.006
6.7e-05	313.15	6000	0.456	0.006
6.7e-05	313.15	7000	0.49	0.007
6.7e-05	313.15	8000	0.51	0.007
6.7e-05	313.15	9000	0.529	0.007
6.7e-05	323.15	1000	0.112	0.004
6.7e-05	323.15	2000	0.2	0.004
6.7e-05	323.15	3000	0.271	0.005
6.7e-05	323.15	4000	0.331	0.005
6.7e-05	323.15	5000	0.383	0.005
6.7e-05	323.15	6000	0.425	0.006
6.7e-05	323.15	7000	0.465	0.007
6.7e-05	323.15	8000	0.492	0.007
6.7e-05	323.15	9000	0.514	0.007
6.7e-05	333.15	1000	0.099	0.004
6.7e-05	333.15	2000	0.179	0.004
6.7e-05	333.15	3000	0.243	0.004
6.7e-05	333.15	4000	0.301	0.005
6.7e-05	333.15	5000	0.35	0.005
6.7e-05	333.15	6000	0.391	0.005
6.7e-05	333.15	7000	0.426	0.006
6.7e-05	333.15	8000	0.454	0.006
6.7e-05	333.15	9000	0.478	0.007
0.0015	313.15	1000	0.131	0.004
0.0015	313.15	2000	0.232	0.005
0.0015	313.15	3000	0.312	0.005
0.0015	313.15	4000	0.376	0.006
0.0015	313.15	5000	0.427	0.006
0.0015	313.15	6000	0.469	0.007
0.0015	313.15	7000	0.503	0.007
0.0015	313.15	8000	0.525	0.007
0.0015	313.15	9000	0.554	0.007
0.0015	313.15	10000	0.571	0.007
0.0015	313.15	12000	0.626	0.03
0.0015	313.15	15000	0.641	0.007
0.0015	313.15	20000	0.648	0.007
0.0015	313.15	25000	0.658	0.007
0.0015	323.15	1000	0.11	0.004
0.0015	323.15	2000	0.197	0.004
0.0015	323.15	3000	0.268	0.005
0.0015	323.15	4000	0.324	0.005
0.0015	323.15	5000	0.374	0.005
0.0015	323.15	6000	0.416	0.006
0.0015	323.15	7000	0.451	0.007
0.0015	323.15	8000	0.479	0.007
0.0015	323.15	9000	0.499	0.007
0.0015	323.15	10000	0.519	0.007
0.0015	323.15	12000	0.553	0.007
0.0015	323.15	15000	0.57	0.007
0.0015	323.15	20000	0.59	0.007
0.0015	323.15	25000	0.606	0.007
0.0015	333.15	1000	0.094	0.004
0.0015	333.15	2000	0.171	0.004
0.0015	333.15	3000	0.235	0.005
0.0015	333.15	4000	0.29	0.005
0.0015	333.15	5000	0.335	0.005
0.0015	333.15	6000	0.375	0.006
0.0015	333.15	7000	0.408	0.006
0.0015	333.15	8000	0.436	0.006
0.0015	333.15	9000	0.46	0.007
0.0015	333.15	10000	0.481	0.007
0.0015	333.15	12000	0.51	0.007
0.0015	333.15	15000	0.541	0.007
0.0015	333.15	20000	0.564	0.007
0.0015	333.15	25000	0.58	0.007
0.0089	313.15	1000	0.116	0.004
0.0089	313.15	2000	0.205	0.004
0.0089	313.15	3000	0.278	0.005
0.0089	313.15	4000	0.339	0.006
0.0089	313.15	5000	0.39	0.006
0.0089	313.15	6000	0.432	0.007
0.0089	313.15	7000	0.466	0.007
0.0089	313.15	8000	0.492	0.008
0.0089	313.15	9000	0.504	0.009
0.0089	323.15	1000	0.096	0.004
0.0089	323.15	2000	0.174	0.004
0.0089	323.15	3000	0.24	0.005
0.0089	323.15	4000	0.296	0.005
0.0089	323.15	5000	0.345	0.005
0.0089	323.15	6000	0.386	0.006
0.0089	323.15	7000	0.421	0.006
0.0089	323.15	8000	0.448	0.007
0.0089	323.15	9000	0.467	0.007
0.0089	333.15	1000	0.082	0.004
0.0089	333.15	2000	0.152	0.004
0.0089	333.15	3000	0.211	0.004
0.0089	333.15	4000	0.262	0.005
0.0089	333.15	5000	0.307	0.005
0.0089	333.15	6000	0.346	0.005
0.0089	333.15	7000	0.379	0.005
0.0089	333.15	8000	0.407	0.006
0.0089	333.15	9000	0.429	0.006
0.016	313.15	1000	0.126	0.005
0.016	313.15	2000	0.215	0.004
0.016	313.15	3000	0.28	0.005
0.016	313.15	4000	0.338	0.005
0.016	313.15	5000	0.386	0.006
0.016	313.15	6000	0.426	0.006
0.016	313.15	7000	0.455	0.007
0.016	313.15	8000	0.467	0.009
0.016	313.15	9000	0.473	0.01
0.016	323.15	1000	0.108	0.005
0.016	323.15	2000	0.183	0.005
0.016	323.15	3000	0.246	0.005
0.016	323.15	4000	0.297	0.005
0.016	323.15	5000	0.343	0.005
0.016	323.15	6000	0.38	0.005
0.016	323.15	7000	0.41	0.006
0.016	323.15	8000	0.429	0.007
0.016	323.15	9000	0.452	0.007
0.016	333.15	1000	0.083	0.004
0.016	333.15	2000	0.161	0.004
0.016	333.15	3000	0.22	0.005
0.016	333.15	4000	0.274	0.005
0.016	333.15	5000	0.32	0.005
0.016	333.15	6000	0.358	0.006
0.016	333.15	7000	0.39	0.006
0.016	333.15	8000	0.417	0.006
0.016	333.15	9000	0.441	0.007
