Measured thermophysical data. Enthalpies of Mixing, Densities, and Refractive Indices for Binary Mixtures of (Anisole or Phenetole) + Three Aryl Alcohols at 308.15 K and at Atmospheric Pressure
Source: J. Chem. Eng. Data, 2005, 10.1021/je050085p
Compound 1: anisole, C7H8O, InChI=1S/C7H8O/c1-8-7-5-3-2-4-6-7/h2-6H,1H3
Compound 2: ethoxybenzene, C8H10O, InChI=1S/C8H10O/c1-2-9-8-6-4-3-5-7-8/h3-7H,2H2,1H3
Compound 3: benzenemethanol, C7H8O, InChI=1S/C7H8O/c8-6-7-4-2-1-3-5-7/h1-5,8H,6H2
Compound 4: 2-phenylethanol, C8H10O, InChI=1S/C8H10O/c9-7-6-8-4-2-1-3-5-8/h1-5,9H,6-7H2
Compound 5: 3-phenyl-1-propanol, C9H12O, InChI=1S/C9H12O/c10-8-4-7-9-5-2-1-3-6-9/h1-3,5-6,10H,4,7-8H2

System: anisole; phases: Liquid
Fixed: Pressure, kPa = 101.325
Property: Refractive index (Na D-line) (Liquid); method: Standard Abbe refractometry
Temperature, K	Refractive index (Na D-line)	uncertainty
298.15	1.5153	0.0007
308.15	1.5095	0.0007

System: anisole; phases: Liquid
Fixed: Pressure, kPa = 101.325
Property: Mass density, kg/m3 (Liquid); method: VIBTUB:UFactor:4
Temperature, K	Mass density, kg/m3	uncertainty
298.15	989.3	0.52
308.15	979.71	0.52

System: ethoxybenzene; phases: Liquid
Fixed: Pressure, kPa = 101.325
Property: Refractive index (Na D-line) (Liquid); method: Standard Abbe refractometry
Temperature, K	Refractive index (Na D-line)	uncertainty
298.15	1.5058	0.0007
308.15	1.5002	0.0007

System: ethoxybenzene; phases: Liquid
Property: Mass density, kg/m3 (Liquid); method: VIBTUB:UFactor:4
Temperature, K	Pressure, kPa	Mass density, kg/m3	uncertainty
308.15	101.325	950.86	0.55

System: benzenemethanol; phases: Liquid
Fixed: Pressure, kPa = 101.325
Property: Refractive index (Na D-line) (Liquid); method: Standard Abbe refractometry
Temperature, K	Refractive index (Na D-line)	uncertainty
298.15	1.5377	0.0005
308.15	1.535	0.0005

System: benzenemethanol; phases: Liquid
Fixed: Pressure, kPa = 101.325
Property: Mass density, kg/m3 (Liquid); method: VIBTUB:UFactor:4
Temperature, K	Mass density, kg/m3	uncertainty
298.15	1041.65	0.22
308.15	1033.64	0.21

System: 2-phenylethanol; phases: Liquid
Fixed: Pressure, kPa = 101.325
Property: Refractive index (Na D-line) (Liquid); method: Standard Abbe refractometry
Temperature, K	Refractive index (Na D-line)	uncertainty
298.15	1.5321	0.0007
308.15	1.5269	0.0007

System: 2-phenylethanol; phases: Liquid
Property: Mass density, kg/m3 (Liquid); method: VIBTUB:UFactor:4
Temperature, K	Pressure, kPa	Mass density, kg/m3	uncertainty
308.15	101.325	1008.75	0.56

System: 3-phenyl-1-propanol; phases: Liquid
Fixed: Pressure, kPa = 101.325
Property: Refractive index (Na D-line) (Liquid); method: Standard Abbe refractometry
Temperature, K	Refractive index (Na D-line)	uncertainty
298.15	1.5259	0.0006
308.15	1.5214	0.0006

System: 3-phenyl-1-propanol; phases: Liquid
Fixed: Pressure, kPa = 101.325
Property: Mass density, kg/m3 (Liquid); method: VIBTUB:UFactor:4
Temperature, K	Mass density, kg/m3	uncertainty
298.15	1032.69	12
308.15	991.01	0.52

System: 2-phenylethanol + anisole; phases: Liquid
Fixed: Temperature, K = 308.15
Fixed: Pressure, kPa = 101
Property: Excess molar enthalpy (molar enthalpy of mixing), kJ/mol (Liquid); method: Flow calorimetry
Mole fraction of anisole	Excess molar enthalpy (molar enthalpy of mixing), kJ/mol	uncertainty
0.0437	0.0951	0.0026
0.0838	0.2001	0.0047
0.1206	0.3047	0.0068
0.1546	0.3966	0.0087
0.2153	0.5592	0.0122
0.2678	0.688	0.0149
0.3543	0.8677	0.0187
0.4224	0.952	0.0204
0.5232	1.0457	0.0224
0.6221	1.1248	0.0241
0.687	1.1429	0.0245
0.767	1.1154	0.0239
0.8145	1.0491	0.0225
0.8682	0.9077	0.0195
0.9006	0.7757	0.0168
0.9294	0.6133	0.0135
0.9634	0.3613	0.0085

System: 2-phenylethanol + anisole; phases: Liquid
Fixed: Temperature, K = 308.15
Fixed: Pressure, kPa = 101
Property: Refractive index (Na D-line) (Liquid); method: Standard Abbe refractometry
Mole fraction of anisole	Refractive index (Na D-line)	uncertainty
0.0521	1.526	0.0007
0.1223	1.5248	0.0007
0.2121	1.5233	0.0007
0.3153	1.5217	0.0007
0.4172	1.52	0.0007
0.5245	1.5182	0.0007
0.617	1.5165	0.0007
0.7479	1.514	0.0007
0.7673	1.5136	0.0007
0.811	1.5127	0.0007
0.9073	1.5106	0.0007
0.9513	1.5096	0.0007

System: 2-phenylethanol + anisole; phases: Liquid
Fixed: Temperature, K = 308.15
Fixed: Pressure, kPa = 101
Property: Mass density, kg/m3 (Liquid); method: VIBTUB:UFactor:4
Mole fraction of anisole	Mass density, kg/m3	uncertainty
0.0521	1007.44	0.53
0.1223	1005.63	0.53
0.2121	1003.26	0.52
0.3153	1000.43	0.52
0.4172	997.53	0.52
0.5245	994.36	0.52
0.617	991.55	0.52
0.7479	987.5	0.52
0.7673	986.9	0.52
0.811	985.5	0.5
0.9073	982.55	0.52
0.9513	981.2	0.52

System: anisole + 3-phenyl-1-propanol; phases: Liquid
Fixed: Temperature, K = 308.15
Fixed: Pressure, kPa = 101
Property: Excess molar enthalpy (molar enthalpy of mixing), kJ/mol (Liquid); method: Flow calorimetry
Mole fraction of anisole	Excess molar enthalpy (molar enthalpy of mixing), kJ/mol	uncertainty
0.0493	0.1266	0.0032
0.094	0.2467	0.0056
0.1347	0.3611	0.008
0.1719	0.4468	0.0098
0.2374	0.6076	0.0132
0.2934	0.7173	0.0155
0.3838	0.8557	0.0184
0.4536	0.9373	0.0201
0.5547	1.0293	0.0221
0.6514	1.0913	0.0234
0.7136	1.1088	0.0238
0.7889	1.0791	0.0231
0.8328	1.0006	0.0215
0.877	0.8681	0.0187
0.9088	0.7339	0.016
0.9373	0.5552	0.0123
0.9676	0.3253	0.0078

System: anisole + 3-phenyl-1-propanol; phases: Liquid
Fixed: Temperature, K = 308.15
Fixed: Pressure, kPa = 101
Property: Refractive index (Na D-line) (Liquid); method: Standard Abbe refractometry
Mole fraction of anisole	Refractive index (Na D-line)	uncertainty
0.0579	1.5208	0.0007
0.1201	1.5201	0.0007
0.2636	1.5186	0.0007
0.384	1.5173	0.0007
0.44751	1.5166	0.0007
0.5551	1.5154	0.0007
0.6495	1.5142	0.0007
0.7477	1.5129	0.0007
0.8274	1.5118	0.0007
0.8652	1.5113	0.0007
0.91296	1.5108	0.0007
0.9588	1.5101	0.0007

System: anisole + 3-phenyl-1-propanol; phases: Liquid
Fixed: Temperature, K = 308.15
Fixed: Pressure, kPa = 101
Property: Mass density, kg/m3 (Liquid); method: VIBTUB:UFactor:4
Mole fraction of anisole	Mass density, kg/m3	uncertainty
0.0579	990.46	0.52
0.1201	989.91	0.52
0.2636	988.55	0.52
0.384	987.28	0.52
0.44751	986.57	0.52
0.5551	985.27	0.52
0.6495	984.07	0.52
0.7477	982.78	0.52
0.8274	981.73	0.52
0.8652	981.26	0.52
0.91296	980.67	0.52
0.9588	980.14	0.52

System: benzenemethanol + ethoxybenzene; phases: Liquid
Fixed: Temperature, K = 308.15
Fixed: Pressure, kPa = 101
Property: Excess molar enthalpy (molar enthalpy of mixing), kJ/mol (Liquid); method: Flow calorimetry
Mole fraction of ethoxybenzene	Excess molar enthalpy (molar enthalpy of mixing), kJ/mol	uncertainty
0.0328	0.1033	0.0028
0.0636	0.1901	0.0045
0.0924	0.2833	0.0064
0.1195	0.3575	0.0079
0.1691	0.495	0.0108
0.2135	0.6158	0.0133
0.2893	0.7393	0.0159
0.3517	0.8561	0.0184
0.4488	0.9718	0.0209
0.5499	1.0561	0.0227
0.6196	1.0959	0.0235
0.7095	1.1139	0.0239
0.7651	1.083	0.0232
0.8301	0.9713	0.0209
0.8669	0.8745	0.0188
0.907	0.707	0.0154
0.9513	0.4332	0.0098

System: benzenemethanol + ethoxybenzene; phases: Liquid
Fixed: Temperature, K = 308.15
Fixed: Pressure, kPa = 101
Property: Refractive index (Na D-line) (Liquid); method: Standard Abbe refractometry
Mole fraction of ethoxybenzene	Refractive index (Na D-line)	uncertainty
0.0642	1.5322	0.0007
0.0826	1.5313	0.0007
0.1663	1.5279	0.0007
0.1751	1.5275	0.0007
0.2585	1.5244	0.0007
0.3363	1.5216	0.0007
0.4598	1.5172	0.0007
0.544	1.5142	0.0007
0.6369	1.5111	0.0007
0.7572	1.5071	0.0007
0.8621	1.5039	0.0007
0.9361	1.5018	0.0007

System: benzenemethanol + ethoxybenzene; phases: Liquid
Fixed: Temperature, K = 308.15
Fixed: Pressure, kPa = 101
Property: Mass density, kg/m3 (Liquid); method: VIBTUB:UFactor:4
Mole fraction of ethoxybenzene	Mass density, kg/m3	uncertainty
0.0642	1027.61	0.22
0.0826	1025.86	0.22
0.1663	1018.18	0.23
0.1751	1017.38	0.23
0.2585	1009.89	0.25
0.3363	1003.06	0.27
0.4598	992.51	0.32
0.544	985.53	0.35
0.6369	978.04	0.39
0.7572	968.65	0.43
0.8621	960.77	0.47
0.9361	955.37	0.5

System: 2-phenylethanol + ethoxybenzene; phases: Liquid
Fixed: Temperature, K = 308.15
Fixed: Pressure, kPa = 101
Property: Excess molar enthalpy (molar enthalpy of mixing), kJ/mol (Liquid); method: Flow calorimetry
Mole fraction of ethoxybenzene	Excess molar enthalpy (molar enthalpy of mixing), kJ/mol	uncertainty
0.0378	0.1128	0.003
0.0728	0.2233	0.0052
0.1054	0.3228	0.0072
0.1358	0.4098	0.009
0.1907	0.5643	0.0123
0.2391	0.6669	0.0144
0.3203	0.8057	0.0174
0.3858	0.9115	0.0196
0.4852	1.0249	0.022
0.5857	1.1226	0.0241
0.6534	1.1492	0.0246
0.7388	1.1427	0.0245
0.7904	1.1025	0.0236
0.8498	0.9714	0.0209
0.8829	0.8532	0.0184
0.9188	0.6744	0.0148
0.9577	0.4036	0.0093

System: 2-phenylethanol + ethoxybenzene; phases: Liquid
Fixed: Temperature, K = 308.15
Fixed: Pressure, kPa = 101
Property: Refractive index (Na D-line) (Liquid); method: Standard Abbe refractometry
Mole fraction of ethoxybenzene	Refractive index (Na D-line)	uncertainty
0.0656	1.5252	0.0007
0.1079	1.524	0.0007
0.1726	1.5223	0.0007
0.3041	1.5187	0.0007
0.3803	1.5166	0.0007
0.4826	1.5137	0.0007
0.5243	1.5126	0.0007
0.5904	1.5108	0.0007
0.6819	1.5083	0.0007
0.7929	1.5054	0.0007
0.8881	1.5029	0.0007
0.9469	1.5014	0.0007
0.9881	1.5005	0.0007

System: 2-phenylethanol + ethoxybenzene; phases: Liquid
Fixed: Temperature, K = 308.15
Fixed: Pressure, kPa = 101
Property: Mass density, kg/m3 (Liquid); method: VIBTUB:UFactor:4
Mole fraction of ethoxybenzene	Mass density, kg/m3	uncertainty
0.0656	1004.96	0.53
0.1079	1002.5	0.52
0.1726	998.71	0.52
0.3041	990.99	0.52
0.3803	986.52	0.52
0.4826	980.37	0.52
0.5243	978.09	0.52
0.5904	974.22	0.52
0.6819	968.87	0.52
0.7929	962.44	0.52
0.8881	957	0.52
0.9469	953.74	0.52
0.9881	951.5	0.52

System: ethoxybenzene + 3-phenyl-1-propanol; phases: Liquid
Fixed: Temperature, K = 308.15
Fixed: Pressure, kPa = 101
Property: Excess molar enthalpy (molar enthalpy of mixing), kJ/mol (Liquid); method: Flow calorimetry
Mole fraction of ethoxybenzene	Excess molar enthalpy (molar enthalpy of mixing), kJ/mol	uncertainty
0.0427	0.1378	0.0035
0.0818	0.2642	0.006
0.118	0.368	0.0082
0.1513	0.4762	0.0104
0.211	0.6106	0.0132
0.2629	0.7	0.0151
0.3485	0.8062	0.0174
0.4162	0.8861	0.019
0.5169	0.989	0.0212
0.6162	1.0741	0.023
0.6815	1.1154	0.0239
0.7625	1.1164	0.0239
0.8106	1.0651	0.0229
0.8596	0.9423	0.0203
0.8954	0.8129	0.0176
0.9277	0.6348	0.014
0.9625	0.3747	0.0087

System: ethoxybenzene + 3-phenyl-1-propanol; phases: Liquid
Fixed: Temperature, K = 308.15
Fixed: Pressure, kPa = 101
Property: Refractive index (Na D-line) (Liquid); method: Standard Abbe refractometry
Mole fraction of ethoxybenzene	Refractive index (Na D-line)	uncertainty
0.0636	1.5203	0.0007
0.1067	1.5194	0.0007
0.2164	1.5173	0.0007
0.31	1.5153	0.0007
0.417	1.513	0.0007
0.515	1.5109	0.0007
0.6168	1.5086	0.0007
0.7074	1.5066	0.0007
0.7975	1.5045	0.0007
0.8977	1.5023	0.0007
0.9488	1.5012	0.0007
0.9596	1.501	0.0007

System: ethoxybenzene + 3-phenyl-1-propanol; phases: Liquid
Fixed: Temperature, K = 308.15
Fixed: Pressure, kPa = 101
Property: Mass density, kg/m3 (Liquid); method: VIBTUB:UFactor:4
Mole fraction of ethoxybenzene	Mass density, kg/m3	uncertainty
0.0636	988.77	0.52
0.1067	987.22	0.52
0.2164	983.2	0.52
0.31	979.65	0.52
0.417	975.46	0.52
0.515	971.51	0.52
0.6168	967.29	0.52
0.7074	963.43	0.52
0.7975	959.53	0.52
0.8977	955.2	0.5
0.9488	952.99	0.52
0.9596	952.53	0.52

System: benzenemethanol + anisole; phases: Liquid
Fixed: Temperature, K = 308.15
Fixed: Pressure, kPa = 101
Property: Excess molar enthalpy (molar enthalpy of mixing), kJ/mol (Liquid); method: Flow calorimetry
Mole fraction of anisole	Excess molar enthalpy (molar enthalpy of mixing), kJ/mol	uncertainty
0.038	0.0921	0.0026
0.0732	0.1928	0.0045
0.1059	0.2741	0.0062
0.1364	0.367	0.0081
0.1916	0.5079	0.0111
0.2401	0.6199	0.0134
0.3216	0.7615	0.0164
0.3871	0.849	0.0183
0.4866	0.9688	0.0208
0.5872	1.0408	0.0223
0.6547	1.0643	0.0228
0.7398	1.0539	0.0226
0.7913	1.0034	0.0215
0.8505	0.8816	0.019
0.8835	0.7757	0.0168
0.9191	0.6101	0.0134
0.9578	0.367	0.0084

System: benzenemethanol + anisole; phases: Liquid
Fixed: Temperature, K = 308.15
Fixed: Pressure, kPa = 101
Property: Refractive index (Na D-line) (Liquid); method: Standard Abbe refractometry
Mole fraction of anisole	Refractive index (Na D-line)	uncertainty
0.0519	1.5335	0.0007
0.0898	1.5324	0.0007
0.1854	1.5298	0.0007
0.2883	1.527	0.0007
0.3766	1.5247	0.0007
0.4911	1.5218	0.0007
0.5916	1.5193	0.0007
0.6747	1.5173	0.0007
0.7745	1.5149	0.0007
0.9039	1.5118	0.0007
0.9448	1.5108	0.0007
0.9723	1.5102	0.0007

System: benzenemethanol + anisole; phases: Liquid
Fixed: Temperature, K = 308.15
Fixed: Pressure, kPa = 101
Property: Mass density, kg/m3 (Liquid); method: VIBTUB:UFactor:4
Mole fraction of anisole	Mass density, kg/m3	uncertainty
0.0519	1030.85	0.21
0.0898	1028.81	0.22
0.1854	1023.62	0.24
0.2883	1018	0.27
0.3766	1013.19	0.29
0.4911	1006.94	0.33
0.5916	1001.47	0.36
0.6747	996.96	0.39
0.7745	991.59	0.43
0.9039	984.73	0.48
0.9448	982.58	0.5
0.9723	981.14	0.51
