Measured thermophysical data. Binary Diffusion Coefficients and Retention Factors for Long-Chain Triglycerides in Supercritical Carbon Dioxide by the Chromatographic Impulse Response Method
Source: J. Chem. Eng. Data, 2005, 10.1021/je050101i
Compound 1: 1,2,3-tri-(cis,cis,cis,cis)-5,8,11,14-eicosatetraenoyl, C63H98O6, InChI=1S/C63H98O6/c1-4-7-10-13-16-19-22-25-28-31-34-37-40-43-46-49-52-55-61(64)67-58-60(69-63(66)57-54-51-48-45-42-39-36-33-30-27-24-21-18-15-12-9-6-3)59-68-62(65)56-53-50-47-44-41-38-35-32-29-26-23-20-17-14-11-8-5-2/h16-21,25-30,34-39,43-48,60H,4-15,22-24,31-33,40-42,49-59H2,1-3H3/b19-16-,20-17-,21-18-,28-25-,29-26-,30-27-,37-34-,38-35-,39-36-,46-43-,47-44-,48-45-, purity 98%
Compound 2: trierucin, C69H128O6, InChI=1S/C69H128O6/c1-4-7-10-13-16-19-22-25-28-31-34-37-40-43-46-49-52-55-58-61-67(70)73-64-66(75-69(72)63-60-57-54-51-48-45-42-39-36-33-30-27-24-21-18-15-12-9-6-3)65-74-68(71)62-59-56-53-50-47-44-41-38-35-32-29-26-23-20-17-14-11-8-5-2/h25-30,66H,4-24,31-65H2,1-3H3/b28-25-,29-26-,30-27-, purity 99%
Compound 3: 1,2,3-tri-[cis-15-tetracosenoyl]-glycerol, C75H140O6, InChI=1S/C75H140O6/c1-4-7-10-13-16-19-22-25-28-31-34-37-40-43-46-49-52-55-58-61-64-67-73(76)79-70-72(81-75(78)69-66-63-60-57-54-51-48-45-42-39-36-33-30-27-24-21-18-15-12-9-6-3)71-80-74(77)68-65-62-59-56-53-50-47-44-41-38-35-32-29-26-23-20-17-14-11-8-5-2/h25-30,72H,4-24,31-71H2,1-3H3/b28-25-,29-26-,30-27-, purity 99%
Compound 4: carbon dioxide, CO2, InChI=1S/CO2/c2-1-3

System: carbon dioxide + 1,2,3-tri-(cis,cis,cis,cis)-5,8,11,14-eicosatetraenoyl; phases: Fluid (supercritical or subcritical phases)
Fixed: Temperature, K = 313.21
Fixed: Mole fraction of 1,2,3-tri-(cis,cis,cis,cis)-5,8,11,14-eicosatetraenoyl = 0
Property: Binary diffusion coefficient, m2/s (Fluid (supercritical or subcritical phases)); method: chromatographic impulse response method
Pressure, kPa	Binary diffusion coefficient, m2/s	uncertainty
9950	5.464e-09	0.341
9980	5.426e-09	0.336
10000	5.418e-09	0.336
10450	5.231e-09	0.325
10840	5.071e-09	0.31
10910	5.061e-09	0.31
11000	5.082e-09	0.311
12000	4.747e-09	0.289
13010	4.612e-09	0.278
15980	4.246e-09	0.256
16000	4.247e-09	0.256
17990	4.077e-09	0.245
20030	3.96e-09	0.238
21000	3.901e-09	0.234
22000	3.864e-09	0.232
23030	3.788e-09	0.227
23980	3.817e-09	0.229
26000	3.749e-09	0.225
26020	3.728e-09	0.224
26050	3.694e-09	0.222
26990	3.608e-09	0.217
28010	3.596e-09	0.216
29090	3.602e-09	0.216
30240	3.568e-09	0.214
12000	4.771e-09	0.29
16000	4.253e-09	0.256
16000	4.251e-09	0.256

System: carbon dioxide + trierucin; phases: Fluid (supercritical or subcritical phases)
Fixed: Mole fraction of trierucin = 0
Property: Binary diffusion coefficient, m2/s (Fluid (supercritical or subcritical phases)); method: chromatographic impulse response method
Temperature, K	Pressure, kPa	Binary diffusion coefficient, m2/s	uncertainty
308.15	8260	5.155e-09	0.525
308.15	8300	4.986e-09	0.388
308.15	8460	4.726e-09	0.32
308.15	8480	4.7e-09	0.374
308.15	8500	4.744e-09	0.38
308.15	8660	4.553e-09	0.315
308.15	8800	4.483e-09	0.306
308.15	8850	4.447e-09	0.299
308.15	8980	4.47e-09	0.278
308.15	9050	4.355e-09	0.268
308.15	9100	4.36e-09	0.266
308.15	9110	4.507e-09	0.278
308.15	9200	4.365e-09	0.273
308.15	9310	4.35e-09	0.264
308.15	9400	4.29e-09	0.266
308.15	9500	4.275e-09	0.261
308.15	9510	4.377e-09	0.267
308.15	9600	4.277e-09	0.261
308.15	10000	4.205e-09	0.255
308.15	10010	4.241e-09	0.257
308.15	10510	4.141e-09	0.254
308.15	11000	4.001e-09	0.244
308.15	11510	3.962e-09	0.239
308.15	12010	3.915e-09	0.236
308.15	12500	3.852e-09	0.232
308.15	13010	3.821e-09	0.23
308.15	14010	3.729e-09	0.225
308.15	14990	3.653e-09	0.22
308.15	16000	3.588e-09	0.216
308.15	16020	3.58e-09	0.215
308.15	17520	3.501e-09	0.211
308.15	19980	3.35e-09	0.201
308.15	23010	3.225e-09	0.194
308.15	25010	3.148e-09	0.189
308.15	26450	3.082e-09	0.185
308.15	27030	3.065e-09	0.184
308.15	30020	2.991e-09	0.18
308.15	9110	4.383e-09	0.27
308.15	9400	4.305e-09	0.267
308.15	11000	4.037e-09	0.246
308.15	11000	4.047e-09	0.246
313.21	9500	4.904e-09	0.305
313.21	9510	4.922e-09	0.309
313.21	9550	5.096e-09	0.378
313.21	9570	4.844e-09	0.296
313.21	9700	4.823e-09	0.295
313.21	9840	4.777e-09	0.292
313.21	9980	4.694e-09	0.287
313.21	10000	4.651e-09	0.283
313.21	10050	4.868e-09	0.3
313.21	10510	4.599e-09	0.284
313.21	11000	4.572e-09	0.279
313.21	11030	4.492e-09	0.274
313.21	11090	4.445e-09	0.271
313.21	11500	4.375e-09	0.264
313.21	12000	4.307e-09	0.261
313.21	13020	4.131e-09	0.25
313.21	13500	4.088e-09	0.248
313.21	14000	4.022e-09	0.242
313.21	14500	3.996e-09	0.241
313.21	15000	3.943e-09	0.238
313.21	15520	3.904e-09	0.235
313.21	15530	3.92e-09	0.236
313.21	15970	3.884e-09	0.234
313.21	15990	3.887e-09	0.234
313.21	16000	3.883e-09	0.234
313.21	16020	3.891e-09	0.235
313.21	16960	3.791e-09	0.228
313.21	21000	3.564e-09	0.214
313.21	24950	3.368e-09	0.202
313.21	25050	3.343e-09	0.201
313.21	27000	3.287e-09	0.198
313.21	30060	3.153e-09	0.189
313.21	10000	4.736e-09	0.29
323.15	11980	5.287e-09	0.324
323.15	12030	5.309e-09	0.329
323.15	12500	5.12e-09	0.314
323.15	12990	5.011e-09	0.303
323.15	13000	5.04e-09	0.305
323.15	13050	5.05e-09	0.305
323.15	13310	4.975e-09	0.303
323.15	13490	4.943e-09	0.302
323.15	14000	4.804e-09	0.292
323.15	14530	4.722e-09	0.286
323.15	15000	4.637e-09	0.28
323.15	15030	4.603e-09	0.278
323.15	15520	4.56e-09	0.275
323.15	16000	4.495e-09	0.271
323.15	16510	4.47e-09	0.269
323.15	16540	4.422e-09	0.266
323.15	17000	4.409e-09	0.266
323.15	18000	4.267e-09	0.257
323.15	18500	4.239e-09	0.255
323.15	20000	4.11e-09	0.247
323.15	22010	3.978e-09	0.239
323.15	22040	3.995e-09	0.24
323.15	24990	3.819e-09	0.23
323.15	27020	3.709e-09	0.223
323.15	30030	3.603e-09	0.216
323.15	14000	4.829e-09	0.293
323.15	15030	4.622e-09	0.28

System: carbon dioxide + 1,2,3-tri-[cis-15-tetracosenoyl]-glycerol; phases: Fluid (supercritical or subcritical phases)
Fixed: Mole fraction of 1,2,3-tri-[cis-15-tetracosenoyl]-glycerol = 0
Property: Binary diffusion coefficient, m2/s (Fluid (supercritical or subcritical phases)); method: chromatographic impulse response method
Temperature, K	Pressure, kPa	Binary diffusion coefficient, m2/s	uncertainty
308.15	9000	4.294e-09	0.258
308.15	10000	3.961e-09	0.238
308.15	10020	4.032e-09	0.242
308.15	11000	3.919e-09	0.236
308.15	11010	3.866e-09	0.233
308.15	12000	3.774e-09	0.227
308.15	12490	3.706e-09	0.223
308.15	16010	3.447e-09	0.207
308.15	20000	3.258e-09	0.195
308.15	30020	2.777e-09	0.167
308.15	30030	2.806e-09	0.168
308.15	10000	4.063e-09	0.244
313.15	9610	4.762e-09	0.286
313.15	9700	4.689e-09	0.282
313.15	10020	4.546e-09	0.273
313.15	10480	4.429e-09	0.266
313.15	10500	4.41e-09	0.265
313.15	11000	4.331e-09	0.26
313.15	11030	4.309e-09	0.259
313.15	11500	4.199e-09	0.252
313.15	11510	4.208e-09	0.253
313.15	14000	3.892e-09	0.234
313.15	16010	3.748e-09	0.225
313.15	20000	3.459e-09	0.208
313.15	25000	3.252e-09	0.195
313.15	30050	3.113e-09	0.187
323.15	12500	4.913e-09	0.295
323.15	13000	4.848e-09	0.291
323.15	14000	4.57e-09	0.274
323.15	15010	4.456e-09	0.267
323.15	16030	4.298e-09	0.258
323.15	16980	4.26e-09	0.256
323.15	17040	4.299e-09	0.258
323.15	20000	3.997e-09	0.24
323.15	25040	3.695e-09	0.222
323.15	30020	3.461e-09	0.208
323.15	16980	4.285e-09	0.257
323.15	20000	3.978e-09	0.239
