Measured thermophysical data. Experimental Vapor Pressures of Six n-Alkanes (C21, C23, C25, C27, C29, C30) in the Temperature Range between 350 K and 460 K
Source: J. Chem. Eng. Data, 2006, 10.1021/je050182i
Compound 1: heneicosane, C21H44, InChI=1S/C21H44/c1-3-5-7-9-11-13-15-17-19-21-20-18-16-14-12-10-8-6-4-2/h3-21H2,1-2H3, purity 99%
Compound 2: tricosane, C23H48, InChI=1S/C23H48/c1-3-5-7-9-11-13-15-17-19-21-23-22-20-18-16-14-12-10-8-6-4-2/h3-23H2,1-2H3, purity 99%
Compound 3: pentacosane, C25H52, InChI=1S/C25H52/c1-3-5-7-9-11-13-15-17-19-21-23-25-24-22-20-18-16-14-12-10-8-6-4-2/h3-25H2,1-2H3, purity 99%
Compound 4: heptacosane, C27H56, InChI=1S/C27H56/c1-3-5-7-9-11-13-15-17-19-21-23-25-27-26-24-22-20-18-16-14-12-10-8-6-4-2/h3-27H2,1-2H3, purity 99%
Compound 5: nonacosane, C29H60, InChI=1S/C29H60/c1-3-5-7-9-11-13-15-17-19-21-23-25-27-29-28-26-24-22-20-18-16-14-12-10-8-6-4-2/h3-29H2,1-2H3, purity 99%
Compound 6: triacontane, C30H62, InChI=1S/C30H62/c1-3-5-7-9-11-13-15-17-19-21-23-25-27-29-30-28-26-24-22-20-18-16-14-12-10-8-6-4-2/h3-30H2,1-2H3, purity 99%

System: heneicosane; phases: Liquid, Gas
Property: Vapor or sublimation pressure, kPa (Liquid); method: DCELL:UFactor:2
Temperature, K	Vapor or sublimation pressure, kPa	uncertainty
351.54	0.000396	3.1e-05
361.52	0.000971	5.3e-05
371.42	0.0022	0.0001
381.65	0.00498	0.00021
391.86	0.0106	0.0004
402.05	0.0213	0.0009
422.19	0.0751	0.0031
432.27	0.133	0.005
442.3	0.228	0.009
452.22	0.378	0.015
461.96	0.611	0.025

System: tricosane; phases: Liquid, Gas
Property: Vapor or sublimation pressure, kPa (Liquid); method: DCELL:UFactor:2
Temperature, K	Vapor or sublimation pressure, kPa	uncertainty
412.18	0.0129	0.0005
422.26	0.0248	0.001
422.29	0.0247	0.001
432.34	0.0461	0.0019
442.33	0.0839	0.0034
452.22	0.143	0.006
461.99	0.242	0.01

System: pentacosane; phases: Liquid, Gas
Property: Vapor or sublimation pressure, kPa (Liquid); method: DCELL:UFactor:2
Temperature, K	Vapor or sublimation pressure, kPa	uncertainty
381.69	0.000331	2.8e-05
391.91	0.000783	4.6e-05
402.03	0.00178	9e-05
411.75	0.00383	0.00017
411.78	0.00383	0.00017
422.02	0.00802	0.00034
432.21	0.0158	0.0007
442.33	0.0296	0.0012
442.34	0.0299	0.0012
452.24	0.0541	0.0022
452.25	0.0534	0.0022
461.95	0.0926	0.0038
461.98	0.0923	0.0038
461.98	0.0938	0.0038

System: heptacosane; phases: Liquid, Gas
Property: Vapor or sublimation pressure, kPa (Liquid); method: DCELL:UFactor:2
Temperature, K	Vapor or sublimation pressure, kPa	uncertainty
401.68	0.000592	3.8e-05
401.69	0.00059	3.8e-05
411.78	0.00129	7e-05
411.81	0.0013	7e-05
421.93	0.00269	0.00012
421.95	0.00272	0.00012
432.03	0.00556	0.00024
442.18	0.011	0.0005
452.27	0.0214	0.0009
462.27	0.0401	0.0016
462.27	0.0405	0.0017

System: nonacosane; phases: Liquid, Gas
Property: Vapor or sublimation pressure, kPa (Liquid); method: DCELL:UFactor:2
Temperature, K	Vapor or sublimation pressure, kPa	uncertainty
422.1	0.00097	5.3e-05
422.1	0.000971	5.3e-05
432.12	0.00206	0.0001
442.17	0.00421	0.00018
442.19	0.00417	0.00018
452.2	0.00824	0.00035
452.23	0.00819	0.00035

System: triacontane; phases: Liquid, Gas
Property: Vapor or sublimation pressure, kPa (Liquid); method: DCELL:UFactor:2
Temperature, K	Vapor or sublimation pressure, kPa	uncertainty
432.36	0.00115	6e-05
432.37	0.00113	6e-05
442.48	0.00233	0.00011
452.32	0.00457	0.0002
452.34	0.00451	0.0002
