Measured thermophysical data. Experimental Study on the Thermochemistry of Some Derivatives of Piperidinol
Source: J. Chem. Eng. Data, 2006, 10.1021/je050508n
Compound 1: carbon dioxide, CO2, InChI=1S/CO2/c2-1-3
Compound 2: nitrogen, N2, InChI=1S/N2/c1-2
Compound 3: water, H2O, InChI=1S/H2O/h1H2
Compound 4: oxygen, O2, InChI=1S/O2/c1-2
Compound 5: 1-methyl-3-piperidinol, C6H13NO, InChI=1S/C6H13NO/c1-7-4-2-3-6(8)5-7/h6,8H,2-5H2,1H3
Compound 6: 1-ethyl-3-piperidinol, C7H15NO, InChI=1S/C7H15NO/c1-2-8-5-3-4-7(9)6-8/h7,9H,2-6H2,1H3
Compound 7: 1-methyl-4-piperidinol, C6H13NO, InChI=1S/C6H13NO/c1-7-4-2-6(8)3-5-7/h6,8H,2-5H2,1H3

System: 1-methyl-3-piperidinol; phases: Gas
Property: Molar enthalpy, kJ/mol (Gas); method: Drop calorimetry
Temperature, K	Pressure, kPa	Molar enthalpy, kJ/mol	uncertainty
358	101	72.99	1.92

System: 1-ethyl-3-piperidinol; phases: Gas
Property: Molar enthalpy, kJ/mol (Gas); method: Drop calorimetry
Temperature, K	Pressure, kPa	Molar enthalpy, kJ/mol	uncertainty
339.1	101	75.73	1.82

System: 1-methyl-4-piperidinol; phases: Gas
Property: Molar enthalpy, kJ/mol (Gas); method: Drop calorimetry
Temperature, K	Pressure, kPa	Molar enthalpy, kJ/mol	uncertainty
357.9	101	80.76	1.88

Reaction: -1 1-methyl-3-piperidinol + 6 carbon dioxide + .5 nitrogen + 6.5 water + -8.75 oxygen
Property: Specific internal energy of reaction at constant volume, J/g
-34072.1

Reaction: -1 1-ethyl-3-piperidinol + 7 carbon dioxide + .5 nitrogen + 7.5 water + -10.25 oxygen
Property: Specific internal energy of reaction at constant volume, J/g
-35382.7

Reaction: -1 1-methyl-4-piperidinol + 6 carbon dioxide + .5 nitrogen + 6.5 water + -8.75 oxygen
Property: Specific internal energy of reaction at constant volume, J/g
-33992.9
