Measured thermophysical data. Viscosities, Ultrasonic Velocities at (288.15 and 298.15) K, and Refractive Indices at (298.15) K of Binary Mixtures of 2,4,6-Trimethyl-1,3,5-trioxane with Dimethyl Carbonate, Diethyl Carbonate, and Propylene Carbonate
Source: J. Chem. Eng. Data, 2006, 10.1021/je050183a
Compound 1: 2,4,6-trimethyl-1,3,5-trioxane, C6H12O3, InChI=1S/C6H12O3/c1-4-7-5(2)9-6(3)8-4/h4-6H,1-3H3, purity 98%
Compound 2: dimethyl carbonate, C3H6O3, InChI=1S/C3H6O3/c1-5-3(4)6-2/h1-2H3
Compound 3: diethyl carbonate, C5H10O3, InChI=1S/C5H10O3/c1-3-7-5(6)8-4-2/h3-4H2,1-2H3
Compound 4: 4-methyl-1,3-dioxolan-2-one, C4H6O3, InChI=1S/C4H6O3/c1-3-2-6-4(5)7-3/h3H,2H2,1H3

System: 2,4,6-trimethyl-1,3,5-trioxane; phases: Liquid
Property: Refractive index (Na D-line) (Liquid); method: Standard Abbe refractometry
Temperature, K	Pressure, kPa	Refractive index (Na D-line)	uncertainty
298.15	101.325	1.4029	0.0008

System: 2,4,6-trimethyl-1,3,5-trioxane; phases: Liquid
Fixed: Pressure, kPa = 101
Property: Viscosity, Pa*s (Liquid); method: Capillary tube (Ostwald; Ubbelohde) method
Temperature, K	Viscosity, Pa*s	uncertainty
288.15	0.001374	1.8e-05
298.15	0.001107	1.5e-05

System: 2,4,6-trimethyl-1,3,5-trioxane; phases: Liquid
Fixed: Pressure, kPa = 101
Property: Speed of sound, m/s (Liquid); method: Linear variable-path acoustic interferometer
Temperature, K	Speed of sound, m/s	uncertainty
288.15	1217.7	2.7
298.15	1174.5	2.6

System: 2,4,6-trimethyl-1,3,5-trioxane; phases: Liquid
Fixed: Pressure, kPa = 101
Property: Mass density, kg/m3 (Liquid); method: Pycnometric method
Temperature, K	Mass density, kg/m3	uncertainty
288.15	999.69	1.34
298.15	988.35	1.33

System: dimethyl carbonate; phases: Liquid
Property: Refractive index (Na D-line) (Liquid); method: Standard Abbe refractometry
Temperature, K	Pressure, kPa	Refractive index (Na D-line)	uncertainty
298.15	101.325	1.366	0.0008

System: dimethyl carbonate; phases: Liquid
Fixed: Pressure, kPa = 101
Property: Viscosity, Pa*s (Liquid); method: Capillary tube (Ostwald; Ubbelohde) method
Temperature, K	Viscosity, Pa*s	uncertainty
288.15	0.000647	9e-06
298.15	0.000579	8e-06

System: dimethyl carbonate; phases: Liquid
Fixed: Pressure, kPa = 101
Property: Speed of sound, m/s (Liquid); method: Linear variable-path acoustic interferometer
Temperature, K	Speed of sound, m/s	uncertainty
288.15	1242	2.7
298.15	1197.4	2.7

System: dimethyl carbonate; phases: Liquid
Fixed: Pressure, kPa = 101
Property: Mass density, kg/m3 (Liquid); method: Pycnometric method
Temperature, K	Mass density, kg/m3	uncertainty
288.15	1076.43	1.49
298.15	1063.1	1.48

System: diethyl carbonate; phases: Liquid
Property: Refractive index (Na D-line) (Liquid); method: Standard Abbe refractometry
Temperature, K	Pressure, kPa	Refractive index (Na D-line)	uncertainty
298.15	101.325	1.383	0.0008

System: diethyl carbonate; phases: Liquid
Fixed: Pressure, kPa = 101
Property: Viscosity, Pa*s (Liquid); method: Capillary tube (Ostwald; Ubbelohde) method
Temperature, K	Viscosity, Pa*s	uncertainty
288.15	0.000868	1.1e-05
298.15	0.000749	1e-05

System: diethyl carbonate; phases: Liquid
Fixed: Pressure, kPa = 101
Property: Speed of sound, m/s (Liquid); method: Linear variable-path acoustic interferometer
Temperature, K	Speed of sound, m/s	uncertainty
288.15	1225.6	2.7
298.15	1173.4	2.7

System: diethyl carbonate; phases: Liquid
Fixed: Pressure, kPa = 101
Property: Mass density, kg/m3 (Liquid); method: Pycnometric method
Temperature, K	Mass density, kg/m3	uncertainty
288.15	980.41	1.31
298.15	969.15	1.31

System: 4-methyl-1,3-dioxolan-2-one; phases: Liquid
Property: Refractive index (Na D-line) (Liquid); method: Standard Abbe refractometry
Temperature, K	Pressure, kPa	Refractive index (Na D-line)	uncertainty
298.15	101.325	1.4203	0.0008

System: 4-methyl-1,3-dioxolan-2-one; phases: Liquid
Fixed: Pressure, kPa = 101
Property: Viscosity, Pa*s (Liquid); method: Capillary tube (Ostwald; Ubbelohde) method
Temperature, K	Viscosity, Pa*s	uncertainty
288.15	0.003086	4e-05
298.15	0.002499	3.3e-05

System: 4-methyl-1,3-dioxolan-2-one; phases: Liquid
Fixed: Pressure, kPa = 101
Property: Speed of sound, m/s (Liquid); method: Linear variable-path acoustic interferometer
Temperature, K	Speed of sound, m/s	uncertainty
288.15	1478.4	2.8
298.15	1442.3	2.8

System: 4-methyl-1,3-dioxolan-2-one; phases: Liquid
Fixed: Pressure, kPa = 101
Property: Mass density, kg/m3 (Liquid); method: Pycnometric method
Temperature, K	Mass density, kg/m3	uncertainty
288.15	1208.67	1.51
298.15	1197.58	1.5

System: 2,4,6-trimethyl-1,3,5-trioxane + dimethyl carbonate; phases: Liquid
Fixed: Temperature, K = 298.15
Fixed: Pressure, kPa = 101
Property: Refractive index (Na D-line) (Liquid); method: Standard Abbe refractometry
Mole fraction of 2,4,6-trimethyl-1,3,5-trioxane	Refractive index (Na D-line)	uncertainty
0	1.366	0.0008
0.0204	1.3673	0.0008
0.0409	1.3686	0.0008
0.059	1.3696	0.0008
0.0845	1.3711	0.0008
0.1091	1.3725	0.0008
0.2258	1.3786	0.0008
0.3012	1.382	0.0008
0.3994	1.386	0.0008
0.494	1.3894	0.0008
0.5906	1.3925	0.0008
0.696	1.3956	0.0008
0.808	1.3985	0.0008
0.9289	1.4014	0.0008
1	1.4029	0.0008

System: 2,4,6-trimethyl-1,3,5-trioxane + dimethyl carbonate; phases: Liquid
Fixed: Pressure, kPa = 101
Property: Viscosity, Pa*s (Liquid); method: Capillary tube (Ostwald; Ubbelohde) method
Temperature, K	Mole fraction of 2,4,6-trimethyl-1,3,5-trioxane	Viscosity, Pa*s	uncertainty
288.15	0	0.000647	9e-06
288.15	0.0204	0.00066	9e-06
288.15	0.0409	0.000673	9e-06
288.15	0.059	0.000684	9e-06
288.15	0.0845	0.000699	9e-06
288.15	0.1091	0.000713	9e-06
288.15	0.2258	0.00077	1e-05
288.15	0.3012	0.000803	1.1e-05
288.15	0.3994	0.000844	1.1e-05
288.15	0.494	0.000887	1.2e-05
288.15	0.5906	0.000936	1.2e-05
288.15	0.696	0.001002	1.3e-05
288.15	0.808	0.001091	1.4e-05
288.15	0.9289	0.001214	1.6e-05
288.15	1	0.001374	1.8e-05
298.15	0	0.000579	8e-06
298.15	0.0204	0.00059	8e-06
298.15	0.0409	0.0006	8e-06
298.15	0.059	0.000609	8e-06
298.15	0.0845	0.00062	8e-06
298.15	0.1091	0.00063	8e-06
298.15	0.2258	0.000673	9e-06
298.15	0.3012	0.000697	9e-06
298.15	0.3994	0.000727	1e-05
298.15	0.494	0.000757	1e-05
298.15	0.5906	0.000793	1.1e-05
298.15	0.696	0.00084	1.1e-05
298.15	0.808	0.000906	1.2e-05
298.15	0.9289	0.000998	1.3e-05
298.15	1	0.001107	1.5e-05

System: 2,4,6-trimethyl-1,3,5-trioxane + dimethyl carbonate; phases: Liquid
Fixed: Pressure, kPa = 101
Property: Speed of sound, m/s (Liquid); method: Linear variable-path acoustic interferometer
Temperature, K	Mole fraction of 2,4,6-trimethyl-1,3,5-trioxane	Speed of sound, m/s	uncertainty
288.15	0	1242	2.7
288.15	0.0204	1242.2	2.7
288.15	0.0409	1242.3	2.7
288.15	0.059	1242.4	2.7
288.15	0.0845	1242.4	2.7
288.15	0.1091	1242.3	2.7
288.15	0.2258	1240.4	2.7
288.15	0.3012	1238.4	2.7
288.15	0.3994	1235	2.7
288.15	0.494	1231.2	2.7
288.15	0.5906	1227.2	2.7
288.15	0.696	1223.1	2.7
288.15	0.808	1219.3	2.7
288.15	0.9289	1216.7	2.7
288.15	1	1217.7	2.7
298.15	0	1197.4	2.7
298.15	0.0204	1197.4	2.7
298.15	0.0409	1197.3	2.7
298.15	0.059	1197.3	2.7
298.15	0.0845	1197	2.7
298.15	0.1091	1196.8	2.7
298.15	0.2258	1194.6	2.7
298.15	0.3012	1192.7	2.7
298.15	0.3994	1189.6	2.7
298.15	0.494	1186	2.7
298.15	0.5906	1182.3	2.7
298.15	0.696	1178.5	2.6
298.15	0.808	1175.3	2.6
298.15	0.9289	1173.1	2.6
298.15	1	1174.5	2.6

System: 2,4,6-trimethyl-1,3,5-trioxane + dimethyl carbonate; phases: Liquid
Fixed: Pressure, kPa = 101
Property: Mass density, kg/m3 (Liquid); method: Pycnometric method
Temperature, K	Mole fraction of 2,4,6-trimethyl-1,3,5-trioxane	Mass density, kg/m3	uncertainty
288.15	0	1076.43	1.49
288.15	0.0204	1074.19	1.48
288.15	0.0409	1071.96	1.47
288.15	0.059	1070.03	1.47
288.15	0.0845	1067.35	1.46
288.15	0.1091	1064.81	1.45
288.15	0.2258	1053.37	1.43
288.15	0.3012	1046.5	1.42
288.15	0.3994	1038.14	1.42
288.15	0.494	1030.68	1.41
288.15	0.5906	1023.62	1.41
288.15	0.696	1016.52	1.4
288.15	0.808	1009.63	1.39
288.15	0.9289	1002.87	1.37
288.15	1	999.69	1.34
298.15	0	1063.1	1.48
298.15	0.0204	1060.99	1.47
298.15	0.0409	1058.89	1.46
298.15	0.059	1057.07	1.45
298.15	0.0845	1054.53	1.45
298.15	0.1091	1052.11	1.44
298.15	0.2258	1041.01	1.41
298.15	0.3012	1034.2	1.4
298.15	0.3994	1025.83	1.39
298.15	0.494	1018.35	1.39
298.15	0.5906	1011.31	1.38
298.15	0.696	1004.26	1.37
298.15	0.808	997.47	1.35
298.15	0.9289	991.2	1.33
298.15	1	988.35	1.33

System: diethyl carbonate + 2,4,6-trimethyl-1,3,5-trioxane; phases: Liquid
Fixed: Temperature, K = 298.15
Fixed: Pressure, kPa = 101
Property: Refractive index (Na D-line) (Liquid); method: Standard Abbe refractometry
Mole fraction of 2,4,6-trimethyl-1,3,5-trioxane	Refractive index (Na D-line)	uncertainty
0	1.383	0.0008
0.0215	1.3835	0.0008
0.0425	1.384	0.0008
0.0615	1.3844	0.0008
0.0816	1.3848	0.0008
0.1036	1.3853	0.0008
0.1911	1.3873	0.0008
0.317	1.3901	0.0008
0.4272	1.3926	0.0008
0.5162	1.3945	0.0008
0.608	1.3963	0.0008
0.7032	1.3982	0.0008
0.7984	1.3999	0.0008
0.8957	1.4015	0.0008
1	1.4029	0.0008

System: diethyl carbonate + 2,4,6-trimethyl-1,3,5-trioxane; phases: Liquid
Fixed: Pressure, kPa = 101
Property: Viscosity, Pa*s (Liquid); method: Capillary tube (Ostwald; Ubbelohde) method
Temperature, K	Mole fraction of 2,4,6-trimethyl-1,3,5-trioxane	Viscosity, Pa*s	uncertainty
288.15	0	0.000868	1.1e-05
288.15	0.0215	0.000877	1.2e-05
288.15	0.0425	0.000885	1.2e-05
288.15	0.0615	0.000892	1.2e-05
288.15	0.0816	0.000899	1.2e-05
288.15	0.1036	0.000906	1.2e-05
288.15	0.1911	0.000931	1.2e-05
288.15	0.317	0.000959	1.3e-05
288.15	0.4272	0.000985	1.3e-05
288.15	0.5162	0.001011	1.3e-05
288.15	0.608	0.001047	1.4e-05
288.15	0.7032	0.001098	1.4e-05
288.15	0.7984	0.001167	1.5e-05
288.15	0.8957	0.00126	1.7e-05
288.15	1	0.001374	1.8e-05
298.15	0	0.000749	1e-05
298.15	0.0215	0.000756	1e-05
298.15	0.0425	0.000763	1e-05
298.15	0.0615	0.000768	1e-05
298.15	0.0816	0.000774	1e-05
298.15	0.1036	0.000779	1e-05
298.15	0.1911	0.000798	1.1e-05
298.15	0.317	0.000819	1.1e-05
298.15	0.4272	0.000836	1.1e-05
298.15	0.5162	0.000854	1.1e-05
298.15	0.608	0.000878	1.2e-05
298.15	0.7032	0.000913	1.2e-05
298.15	0.7984	0.000962	1.3e-05
298.15	0.8957	0.001028	1.4e-05
298.15	1	0.001107	1.5e-05

System: diethyl carbonate + 2,4,6-trimethyl-1,3,5-trioxane; phases: Liquid
Fixed: Pressure, kPa = 101
Property: Speed of sound, m/s (Liquid); method: Linear variable-path acoustic interferometer
Temperature, K	Mole fraction of 2,4,6-trimethyl-1,3,5-trioxane	Speed of sound, m/s	uncertainty
288.15	0	1225.6	2.7
288.15	0.0215	1224	2.7
288.15	0.0425	1222.6	2.7
288.15	0.0615	1221.4	2.7
288.15	0.0816	1220.3	2.7
288.15	0.1036	1219.1	2.7
288.15	0.1911	1215.7	2.7
288.15	0.317	1213.4	2.7
288.15	0.4272	1213.2	2.7
288.15	0.5162	1213.8	2.7
288.15	0.608	1214.8	2.7
288.15	0.7032	1215.7	2.7
288.15	0.7984	1216.2	2.7
288.15	0.8957	1216.7	2.7
288.15	1	1217.7	2.7
298.15	0	1173.4	2.7
298.15	0.0215	1173.8	2.7
298.15	0.0425	1174.2	2.7
298.15	0.0615	1174.5	2.7
298.15	0.0816	1174.8	2.6
298.15	0.1036	1175	2.6
298.15	0.1911	1175.6	2.6
298.15	0.317	1175.3	2.6
298.15	0.4272	1174.4	2.6
298.15	0.5162	1173.5	2.6
298.15	0.608	1172.6	2.6
298.15	0.7032	1171.9	2.6
298.15	0.7984	1171.5	2.6
298.15	0.8957	1171.8	2.6
298.15	1	1174.5	2.6

System: diethyl carbonate + 2,4,6-trimethyl-1,3,5-trioxane; phases: Liquid
Fixed: Pressure, kPa = 101
Property: Mass density, kg/m3 (Liquid); method: Pycnometric method
Temperature, K	Mole fraction of 2,4,6-trimethyl-1,3,5-trioxane	Mass density, kg/m3	uncertainty
288.15	0	980.41	1.31
288.15	0.0215	980.99	1.32
288.15	0.0425	981.54	1.33
288.15	0.0615	982.03	1.33
288.15	0.0816	982.54	1.34
288.15	0.1036	983.08	1.34
288.15	0.1911	985.12	1.36
288.15	0.317	987.74	1.36
288.15	0.4272	989.8	1.36
288.15	0.5162	991.35	1.36
288.15	0.608	992.87	1.35
288.15	0.7032	994.41	1.34
288.15	0.7984	995.94	1.34
288.15	0.8957	997.54	1.35
288.15	1	999.69	1.34
298.15	0	969.15	1.31
298.15	0.0215	969.57	1.31
298.15	0.0425	969.99	1.32
298.15	0.0615	970.36	1.32
298.15	0.0816	970.76	1.33
298.15	0.1036	971.19	1.33
298.15	0.1911	972.92	1.35
298.15	0.317	975.41	1.36
298.15	0.4272	977.57	1.36
298.15	0.5162	979.28	1.35
298.15	0.608	981	1.34
298.15	0.7032	982.74	1.34
298.15	0.7984	984.41	1.33
298.15	0.8957	986.04	1.32
298.15	1	988.35	1.33

System: 4-methyl-1,3-dioxolan-2-one + 2,4,6-trimethyl-1,3,5-trioxane; phases: Liquid
Fixed: Temperature, K = 298.15
Fixed: Pressure, kPa = 101
Property: Refractive index (Na D-line) (Liquid); method: Standard Abbe refractometry
Mole fraction of 2,4,6-trimethyl-1,3,5-trioxane	Refractive index (Na D-line)	uncertainty
0	1.4203	0.0008
0.091	1.4188	0.0008
0.2019	1.4172	0.0008
0.3007	1.4157	0.0008
0.4055	1.4142	0.0008
0.5011	1.4127	0.0008
0.6022	1.4111	0.0008
0.7006	1.4094	0.0008

System: 4-methyl-1,3-dioxolan-2-one + 2,4,6-trimethyl-1,3,5-trioxane; phases: Liquid
Fixed: Pressure, kPa = 101
Property: Viscosity, Pa*s (Liquid); method: Capillary tube (Ostwald; Ubbelohde) method
Temperature, K	Mole fraction of 2,4,6-trimethyl-1,3,5-trioxane	Viscosity, Pa*s	uncertainty
288.15	0	0.003086	4e-05
288.15	0.091	0.002966	3.8e-05
288.15	0.2019	0.002809	3.6e-05
288.15	0.3007	0.002661	3.5e-05
288.15	0.4055	0.002494	3.3e-05
288.15	0.5011	0.002333	3.1e-05
288.15	0.6022	0.002155	2.8e-05
288.15	0.7006	0.001974	2.6e-05
288.15	0.8028	0.001779	2.3e-05
288.15	0.9027	0.001581	2.1e-05
288.15	1	0.001374	1.8e-05
298.15	0	0.002499	3.3e-05
298.15	0.091	0.002386	3.2e-05
298.15	0.2019	0.002245	3e-05
298.15	0.3007	0.002116	2.8e-05
298.15	0.4055	0.001977	2.7e-05
298.15	0.5011	0.001846	2.5e-05
298.15	0.6022	0.001705	2.3e-05
298.15	0.7006	0.001563	2.1e-05

System: 4-methyl-1,3-dioxolan-2-one + 2,4,6-trimethyl-1,3,5-trioxane; phases: Liquid
Fixed: Pressure, kPa = 101
Property: Speed of sound, m/s (Liquid); method: Linear variable-path acoustic interferometer
Temperature, K	Mole fraction of 2,4,6-trimethyl-1,3,5-trioxane	Speed of sound, m/s	uncertainty
288.15	0	1478.4	2.8
288.15	0.091	1451.8	2.8
288.15	0.2019	1420.2	2.8
288.15	0.3007	1392.9	2.8
288.15	0.4055	1364.7	2.8
288.15	0.5011	1339.7	2.8
288.15	0.6022	1314	2.7
288.15	0.7006	1289.8	2.7
288.15	0.8028	1265.5	2.7
288.15	0.9027	1242.1	2.7
288.15	1	1217.7	2.7
298.15	0	1442.3	2.8
298.15	0.091	1415	2.8
298.15	0.2019	1382.6	2.8
298.15	0.3007	1354.5	2.8
298.15	0.4055	1325.5	2.7
298.15	0.5011	1299.9	2.7
298.15	0.6022	1273.4	2.7
298.15	0.7006	1248.5	2.7

System: 4-methyl-1,3-dioxolan-2-one + 2,4,6-trimethyl-1,3,5-trioxane; phases: Liquid
Fixed: Pressure, kPa = 101
Property: Mass density, kg/m3 (Liquid); method: Pycnometric method
Temperature, K	Mole fraction of 2,4,6-trimethyl-1,3,5-trioxane	Mass density, kg/m3	uncertainty
288.15	0	1208.67	1.51
288.15	0.091	1181.68	1.52
288.15	0.2019	1151.81	1.48
288.15	0.3007	1127.63	1.45
288.15	0.4055	1104.07	1.42
288.15	0.5011	1084.21	1.4
288.15	0.6022	1064.71	1.38
288.15	0.7006	1046.98	1.37
288.15	0.8028	1029.73	1.41
288.15	0.9027	1014	1.38
288.15	1	999.69	1.36
298.15	0	1197.58	1.5
298.15	0.091	1170.78	1.44
298.15	0.2019	1141.1	1.41
298.15	0.3007	1117.02	1.39
298.15	0.4055	1093.5	1.37
298.15	0.5011	1073.63	1.36
298.15	0.6022	1054.05	1.34
298.15	0.7006	1036.19	1.35
