Measured thermophysical data. Vapor Pressures and Activity Coefficients of n-Alcohols and Benzene in Binary Mixtures with 1-Methyl-3-Butyl-Imidazolium Octylsulfate and 1-Methyl-3-Octyl-Imidazolium Tetrafluoroborate
Source: J. Chem. Eng. Data, 2006, 10.1021/je050394f
Compound 1: 1-butyl-3-methylimidazolium octyl sulfate, C16H32N2O4S, InChI=1S/C8H15N2.C8H18O4S/c1-3-4-5-10-7-6-9(2)8-10;1-2-3-4-5-6-7-8-12-13(9,10)11/h6-8H,3-5H2,1-2H3;2-8H2,1H3,(H,9,10,11)/q+1;/p-1
Compound 2: 1-methyl-3-octylimidazolium tetrafluoroborate, C12H23BF4N2, InChI=1S/C12H23N2.BF4/c1-3-4-5-6-7-8-9-14-11-10-13(2)12-14;2-1(3,4)5/h10-12H,3-9H2,1-2H3;/q+1;-1
Compound 3: methanol, CH4O, InChI=1S/CH4O/c1-2/h2H,1H3, purity 99.9%
Compound 4: ethanol, C2H6O, InChI=1S/C2H6O/c1-2-3/h3H,2H2,1H3, purity 99.9%
Compound 5: propan-1-ol, C3H8O, InChI=1S/C3H8O/c1-2-3-4/h4H,2-3H2,1H3, purity 99.9%
Compound 6: benzene, C6H6, InChI=1S/C6H6/c1-2-4-6-5-3-1/h1-6H, purity 99.9%

System: methanol + 1-butyl-3-methylimidazolium octyl sulfate; phases: Liquid, Gas
Property: Vapor or sublimation pressure, kPa (Liquid); method: CCELL:UFactor:8
Temperature, K	Mole fraction of methanol	Vapor or sublimation pressure, kPa	uncertainty
298.15	0	0	0.01
298.15	0.1083	1.142	0.158
298.15	0.2222	1.708	0.167
298.15	0.2629	2.066	0.176
298.15	0.4629	3.612	0.215
298.15	0.6156	6.101	0.278
298.15	0.6549	7.046	0.301
298.15	0.7638	10.155	0.38
298.15	0.8792	13.903	0.475
298.15	0.9235	15.713	0.521
298.15	0.9392	16.15	0.532
298.15	0.9754	16.621	0.544
298.15	0.9874	16.682	0.546
298.15	1	16.958	0.553
303.15	0	0	0.01
303.15	0.1083	1.417	0.16
303.15	0.2222	2.102	0.177
303.15	0.2629	2.57	0.189
303.15	0.4629	4.482	0.237
303.15	0.6156	7.603	0.316
303.15	0.6549	8.769	0.345
303.15	0.7638	12.88	0.448
303.15	0.8792	17.732	0.57
303.15	0.9235	19.952	0.626
303.15	0.9392	20.583	0.642
303.15	0.9754	21.348	0.662
303.15	0.9874	21.485	0.665
303.15	1	21.88	0.675
308.15	0	0	0.01
308.15	0.1083	1.739	0.168
308.15	0.2222	2.544	0.188
308.15	0.2629	3.13	0.203
308.15	0.4629	5.507	0.263
308.15	0.6156	9.404	0.361
308.15	0.6549	10.796	0.396
308.15	0.7638	16.058	0.528
308.15	0.8792	22.429	0.689
308.15	0.9235	24.961	0.752
308.15	0.9392	25.914	0.775
308.15	0.9754	27.136	0.807
308.15	0.9874	27.405	0.814
308.15	1	27.96	0.828
313.15	0	0	0.01
313.15	0.1083	2.101	0.177
313.15	0.2222	3.101	0.203
313.15	0.2629	3.813	0.221
313.15	0.4629	6.673	0.295
313.15	0.6156	11.402	0.412
313.15	0.6549	13.26	0.458
313.15	0.7638	19.88	0.624
313.15	0.8792	28.172	0.831
313.15	0.9235	31.222	0.907
313.15	0.9392	32.289	0.933
313.15	0.9754	34.24	0.983
313.15	0.9874	34.71	0.995
313.15	1	35.45	1.014

System: ethanol + 1-butyl-3-methylimidazolium octyl sulfate; phases: Liquid, Gas
Property: Vapor or sublimation pressure, kPa (Liquid); method: CCELL:UFactor:8
Temperature, K	Mole fraction of ethanol	Vapor or sublimation pressure, kPa	uncertainty
298.15	0	0	0.01
298.15	0.0617	0.304	0.054
298.15	0.1429	0.571	0.087
298.15	0.1794	0.752	0.11
298.15	0.2873	1.33	0.157
298.15	0.3544	1.864	0.171
298.15	0.3861	2.142	0.178
298.15	0.4892	3.326	0.207
298.15	0.5515	4.164	0.228
298.15	0.6364	5.55	0.263
298.15	0.6992	6.405	0.285
298.15	0.7299	6.789	0.295
298.15	0.7831	7.359	0.31
298.15	0.8343	7.668	0.318
298.15	0.87474	7.824	0.322
298.15	0.95435	7.851	0.323
298.15	1	7.876	0.323
303.15	0	0	0.01
303.15	0.0617	0.369	0.062
303.15	0.1429	0.707	0.104
303.15	0.1794	0.921	0.131
303.15	0.2873	1.683	0.166
303.15	0.3544	2.346	0.183
303.15	0.3861	2.723	0.193
303.15	0.4892	3.976	0.224
303.15	0.5515	4.949	0.248
303.15	0.6364	6.659	0.291
303.15	0.6992	7.862	0.321
303.15	0.7299	8.477	0.337
303.15	0.7831	9.398	0.36
303.15	0.8343	10.004	0.376
303.15	0.87474	10.275	0.383
303.15	0.95435	10.406	0.386
303.15	1	10.468	0.388
308.15	0	0	0.01
308.15	0.0617	0.428	0.069
308.15	0.1429	0.863	0.123
308.15	0.1794	1.124	0.156
308.15	0.2873	2.082	0.176
308.15	0.3544	2.94	0.198
308.15	0.3861	3.357	0.209
308.15	0.4892	4.818	0.245
308.15	0.5515	5.892	0.272
308.15	0.6364	7.73	0.318
308.15	0.6992	9.454	0.361
308.15	0.7299	10.306	0.382
308.15	0.7831	11.688	0.417
308.15	0.8343	12.722	0.444
308.15	0.87474	13.24	0.457
308.15	0.95435	13.625	0.467
308.15	1	13.768	0.471
313.15	0	0	0.01
313.15	0.0617	0.495	0.078
313.15	0.1429	1.058	0.148
313.15	0.1794	1.36	0.158
313.15	0.2873	2.567	0.189
313.15	0.3544	3.61	0.215
313.15	0.3861	4.062	0.227
313.15	0.4892	5.817	0.271
313.15	0.5515	6.9	0.298
313.15	0.6364	9.007	0.35
313.15	0.6992	11.168	0.404
313.15	0.7299	12.313	0.432
313.15	0.7831	14.342	0.483
313.15	0.8343	16.002	0.525
313.15	0.87474	16.842	0.546
313.15	0.95435	17.669	0.568
313.15	1	17.928	0.574

System: propan-1-ol + 1-butyl-3-methylimidazolium octyl sulfate; phases: Liquid, Gas
Property: Vapor or sublimation pressure, kPa (Liquid); method: CCELL:UFactor:8
Temperature, K	Mole fraction of propan-1-ol	Vapor or sublimation pressure, kPa	uncertainty
298.15	0	0	0.01
298.15	0.1218	0.146	0.034
298.15	0.1464	0.171	0.037
298.15	0.1724	0.197	0.041
298.15	0.31478	0.454	0.072
298.15	0.38852	0.68	0.101
298.15	0.56081	1.29	0.176
298.15	0.59067	1.4	0.159
298.15	0.72583	1.982	0.174
298.15	0.79989	2.491	0.186
298.15	0.85309	2.73	0.193
298.15	0.90911	2.754	0.193
298.15	1	2.786	0.194
303.15	0	0	0.01
303.15	0.1218	0.177	0.038
303.15	0.1464	0.21	0.042
303.15	0.1724	0.248	0.047
303.15	0.31478	0.596	0.09
303.15	0.38852	0.902	0.128
303.15	0.56081	1.705	0.167
303.15	0.59067	1.861	0.171
303.15	0.72583	2.608	0.189
303.15	0.79989	3.225	0.205
303.15	0.85309	3.56	0.213
303.15	0.90911	3.674	0.216
303.15	1	3.826	0.22
308.15	0	0	0.01
308.15	0.1218	0.218	0.043
308.15	0.1464	0.26	0.048
308.15	0.1724	0.304	0.054
308.15	0.31478	0.778	0.113
308.15	0.38852	1.175	0.162
308.15	0.56081	2.24	0.18
308.15	0.59067	2.43	0.185
308.15	0.72583	3.402	0.209
308.15	0.79989	4.07	0.226
308.15	0.85309	4.6	0.239
308.15	0.90911	4.875	0.246
308.15	1	5.199	0.255
313.15	0	0	0.01
313.15	0.1218	0.277	0.051
313.15	0.1464	0.322	0.056
313.15	0.1724	0.372	0.062
313.15	0.31478	0.987	0.139
313.15	0.38852	1.508	0.162
313.15	0.56081	2.865	0.196
313.15	0.59067	3.13	0.202
313.15	0.72583	4.386	0.234
313.15	0.79989	5.22	0.255
313.15	0.85309	5.944	0.273
313.15	0.90911	6.422	0.285
313.15	1	6.986	0.299

System: benzene + 1-butyl-3-methylimidazolium octyl sulfate; phases: Liquid, Gas
Property: Vapor or sublimation pressure, kPa (Liquid); method: CCELL:UFactor:8
Temperature, K	Mole fraction of benzene	Vapor or sublimation pressure, kPa	uncertainty
298.15	0	0	0.01
298.15	0.0624	1.335	0.158
298.15	0.1498	2.958	0.199
298.15	0.2467	4.76	0.245
298.15	0.3758	6.963	0.301
298.15	0.4165	7.725	0.32
298.15	0.548	10.143	0.381
298.15	0.6275	11.365	0.411
298.15	0.6988	12.101	0.429
298.15	0.7843	12.529	0.44
298.15	0.8183	12.62	0.442
298.15	0.87018	12.635	0.442
298.15	0.91993	12.651	0.442
298.15	0.959	12.679	0.443
298.15	0.97415	12.692	0.443
298.15	1	12.704	0.444
303.15	0	0	0.01
303.15	0.0624	1.48	0.161
303.15	0.1498	3.463	0.212
303.15	0.2467	5.7	0.269
303.15	0.3758	8.32	0.336
303.15	0.4165	9.274	0.36
303.15	0.548	12.191	0.432
303.15	0.6275	13.78	0.471
303.15	0.6988	14.847	0.498
303.15	0.7843	15.541	0.515
303.15	0.8183	15.706	0.518
303.15	0.87018	15.845	0.522
303.15	0.91993	15.861	0.522
303.15	0.959	15.872	0.522
303.15	0.97415	15.877	0.522
303.15	1	15.919	0.523
308.15	0	0	0.01
308.15	0.0624	1.736	0.168
308.15	0.1498	4.114	0.229
308.15	0.2467	6.805	0.298
308.15	0.3758	9.948	0.378
308.15	0.4165	11.082	0.406
308.15	0.548	14.479	0.49
308.15	0.6275	16.496	0.54
308.15	0.6988	17.951	0.576
308.15	0.7843	19.012	0.602
308.15	0.8183	19.264	0.608
308.15	0.87018	19.5	0.613
308.15	0.91993	19.581	0.615
308.15	0.959	19.586	0.615
308.15	0.97415	19.594	0.615
308.15	1	19.659	0.617
313.15	0	0	0.01
313.15	0.0624	2.109	0.177
313.15	0.1498	4.904	0.25
313.15	0.2467	8.205	0.334
313.15	0.3758	12.032	0.431
313.15	0.4165	13.34	0.464
313.15	0.548	17.484	0.566
313.15	0.6275	19.824	0.623
313.15	0.6988	21.735	0.67
313.15	0.7843	23.26	0.707
313.15	0.8183	23.655	0.717
313.15	0.87018	24.05	0.726
313.15	0.91993	24.2	0.73
313.15	0.959	24.224	0.73
313.15	0.97415	24.239	0.731
313.15	1	24.331	0.733

System: methanol + 1-methyl-3-octylimidazolium tetrafluoroborate; phases: Gas, Liquid mixture 1
Property: Vapor or sublimation pressure, kPa (Gas); method: CCELL:UFactor:8
Temperature, K	Mole fraction of methanol	Vapor or sublimation pressure, kPa	uncertainty
298.15	0	0	0.01
298.15	0.0388	0.515	0.08
298.15	0.0657	0.851	0.122
298.15	0.0931	1.139	0.158
298.15	0.174	2.548	0.189
298.15	0.2228	3.586	0.215
298.15	0.3539	6.602	0.293
298.15	0.4243	8.16	0.332
298.15	0.4444	8.577	0.343
298.15	0.5473	10.465	0.39
298.15	0.6278	12.12	0.432
298.15	0.7474	14.063	0.481
298.15	0.886	15.858	0.525
298.15	0.94	16.254	0.534
298.15	1	16.958	0.553
303.15	0	0	0.01
303.15	0.0388	0.626	0.094
303.15	0.0657	1.054	0.147
303.15	0.0931	1.408	0.159
303.15	0.174	3.128	0.204
303.15	0.2228	4.406	0.236
303.15	0.3539	8.239	0.334
303.15	0.4243	10.258	0.386
303.15	0.4444	10.779	0.399
303.15	0.5473	13.243	0.46
303.15	0.6278	15.3	0.511
303.15	0.7474	17.912	0.576
303.15	0.886	20.185	0.632
303.15	0.94	20.77	0.647
303.15	1	21.88	0.675
308.15	0	0	0.01
308.15	0.0388	0.745	0.109
308.15	0.0657	1.282	0.175
308.15	0.0931	1.724	0.168
308.15	0.174	3.787	0.221
308.15	0.2228	5.302	0.259
308.15	0.3539	10.137	0.383
308.15	0.4243	12.744	0.449
308.15	0.4444	13.434	0.467
308.15	0.5473	16.523	0.544
308.15	0.6278	19.076	0.607
308.15	0.7474	22.469	0.691
308.15	0.886	25.398	0.763
308.15	0.94	26.263	0.785
308.15	1	27.96	0.828
313.15	0	0	0.01
313.15	0.0388	0.875	0.125
313.15	0.0657	1.515	0.162
313.15	0.0931	2.086	0.177
313.15	0.174	4.544	0.24
313.15	0.2228	6.403	0.288
313.15	0.3539	12.553	0.445
313.15	0.4243	15.682	0.524
313.15	0.4444	16.527	0.545
313.15	0.5473	20.554	0.646
313.15	0.6278	23.759	0.724
313.15	0.7474	27.997	0.828
313.15	0.886	31.626	0.917
313.15	0.94	33.026	0.953
313.15	1	35.45	1.014

System: ethanol + 1-methyl-3-octylimidazolium tetrafluoroborate; phases: Liquid, Gas
Property: Vapor or sublimation pressure, kPa (Liquid); method: CCELL:UFactor:8
Temperature, K	Mole fraction of ethanol	Vapor or sublimation pressure, kPa	uncertainty
298.15	0	0	0.01
298.15	0.0838	1.103	0.153
298.15	0.1226	1.565	0.163
298.15	0.2113	2.61	0.19
298.15	0.251	3.068	0.202
298.15	0.4046	4.524	0.239
298.15	0.4883	5.293	0.258
298.15	0.5721	6.001	0.276
298.15	0.6202	6.379	0.286
298.15	0.7258	7.043	0.302
298.15	0.8596	7.652	0.317
298.15	0.9196	7.75	0.32
298.15	0.9346	7.76	0.32
298.15	1	7.876	0.323
303.15	0	0	0.01
303.15	0.0838	1.336	0.158
303.15	0.1226	1.876	0.171
303.15	0.2113	3.237	0.206
303.15	0.251	3.813	0.221
303.15	0.4046	5.801	0.271
303.15	0.4883	6.801	0.297
303.15	0.5721	7.705	0.319
303.15	0.6202	8.189	0.331
303.15	0.7258	9.043	0.352
303.15	0.8596	9.921	0.374
303.15	0.9196	10.15	0.38
303.15	0.9346	10.18	0.38
303.15	1	10.468	0.388
308.15	0	0	0.01
308.15	0.0838	1.575	0.164
308.15	0.1226	2.263	0.181
308.15	0.2113	4.01	0.226
308.15	0.251	4.667	0.243
308.15	0.4046	7.235	0.308
308.15	0.4883	8.631	0.343
308.15	0.5721	9.834	0.373
308.15	0.6202	10.433	0.388
308.15	0.7258	11.618	0.417
308.15	0.8596	12.89	0.449
308.15	0.9196	13.2	0.456
308.15	0.9346	13.278	0.458
308.15	1	13.768	0.471
313.15	0	0	0.01
313.15	0.0838	1.863	0.171
313.15	0.1226	2.742	0.194
313.15	0.2113	4.908	0.249
313.15	0.251	5.756	0.271
313.15	0.4046	9.089	0.355
313.15	0.4883	10.795	0.398
313.15	0.5721	12.283	0.435
313.15	0.6202	13.086	0.454
313.15	0.7258	14.643	0.492
313.15	0.8596	16.352	0.534
313.15	0.9196	16.93	0.549
313.15	0.9346	17.089	0.553
313.15	1	17.928	0.574

System: propan-1-ol + 1-methyl-3-octylimidazolium tetrafluoroborate; phases: Liquid, Gas
Property: Vapor or sublimation pressure, kPa (Liquid); method: CCELL:UFactor:8
Temperature, K	Mole fraction of propan-1-ol	Vapor or sublimation pressure, kPa	uncertainty
298.15	0	0	0.01
298.15	0.1742	0.954	0.135
298.15	0.3484	1.73	0.168
298.15	0.5068	2.286	0.182
298.15	0.6075	2.51	0.187
298.15	0.7041	2.654	0.191
298.15	0.7281	2.679	0.191
298.15	0.8026	2.739	0.193
298.15	0.8407	2.753	0.193
298.15	0.8656	2.758	0.193
298.15	0.9228	2.765	0.194
298.15	1	2.786	0.194
303.15	0	0	0.01
303.15	0.1742	1.211	0.167
303.15	0.3484	2.235	0.18
303.15	0.5068	2.971	0.199
303.15	0.6075	3.278	0.206
303.15	0.7041	3.522	0.212
303.15	0.7281	3.577	0.214
303.15	0.8026	3.695	0.217
303.15	0.8407	3.727	0.218
303.15	0.8656	3.742	0.218
303.15	0.9228	3.764	0.218
303.15	1	3.826	0.22
308.15	0	0	0.01
308.15	0.1742	1.528	0.162
308.15	0.3484	2.872	0.197
308.15	0.5068	3.781	0.219
308.15	0.6075	4.226	0.23
308.15	0.7041	4.622	0.24
308.15	0.7281	4.717	0.243
308.15	0.8026	4.917	0.248
308.15	0.8407	4.975	0.249
308.15	0.8656	4.998	0.25
308.15	0.9228	5.056	0.251
308.15	1	5.199	0.255
313.15	0	0	0.01
313.15	0.1742	1.955	0.173
313.15	0.3484	3.591	0.215
313.15	0.5068	4.759	0.244
313.15	0.6075	5.361	0.259
313.15	0.7041	5.929	0.273
313.15	0.7281	6.057	0.276
313.15	0.8026	6.384	0.284
313.15	0.8407	6.526	0.288
313.15	0.8656	6.602	0.29
313.15	0.9228	6.753	0.293
313.15	1	6.986	0.299

System: benzene + 1-methyl-3-octylimidazolium tetrafluoroborate; phases: Liquid, Gas
Property: Vapor or sublimation pressure, kPa (Liquid); method: CCELL:UFactor:8
Temperature, K	Mole fraction of benzene	Vapor or sublimation pressure, kPa	uncertainty
298.15	0	0	0.01
298.15	0.1839	3.209	0.206
298.15	0.264	4.398	0.236
298.15	0.3583	5.995	0.277
298.15	0.5299	9.006	0.352
298.15	0.566	9.517	0.365
298.15	0.6417	10.581	0.391
298.15	0.6905	11.226	0.407
298.15	0.7464	12.006	0.427
298.15	0.7586	12.189	0.431
298.15	0.762	12.223	0.432
298.15	0.78731	12.452	0.438
298.15	0.83959	12.578	0.441
298.15	1	12.704	0.444
303.15	0	0	0.01
303.15	0.1839	3.981	0.226
303.15	0.264	5.458	0.263
303.15	0.3583	7.427	0.313
303.15	0.5299	11.072	0.404
303.15	0.566	11.702	0.42
303.15	0.6417	13.05	0.453
303.15	0.6905	13.881	0.473
303.15	0.7464	14.83	0.496
303.15	0.7586	15.036	0.501
303.15	0.762	15.083	0.503
303.15	0.78731	15.476	0.513
303.15	0.83959	15.7	0.518
303.15	1	15.919	0.523
308.15	0	0	0.01
308.15	0.1839	4.868	0.249
308.15	0.264	6.663	0.295
308.15	0.3583	9.048	0.355
308.15	0.5299	13.321	0.461
308.15	0.566	14.105	0.481
308.15	0.6417	15.72	0.52
308.15	0.6905	16.646	0.542
308.15	0.7464	17.701	0.568
308.15	0.7586	17.954	0.574
308.15	0.762	18.07	0.577
308.15	0.78731	18.67	0.592
308.15	0.83959	19.099	0.602
308.15	1	19.659	0.617
313.15	0	0	0.01
313.15	0.1839	5.949	0.276
313.15	0.264	8.146	0.333
313.15	0.3583	11.053	0.406
313.15	0.5299	15.966	0.528
313.15	0.566	16.893	0.551
313.15	0.6417	18.719	0.595
313.15	0.6905	19.816	0.622
313.15	0.7464	21.12	0.654
313.15	0.7586	21.432	0.661
313.15	0.762	21.532	0.664
313.15	0.78731	22.072	0.676
313.15	0.83959	22.76	0.693
313.15	1	24.331	0.733
