Measured thermophysical data. Liquid-Liquid Equilibria for the Binary Systems of Sulfolane with Cycloalkanes
Source: J. Chem. Eng. Data, 2006, 10.1021/je0504313
Compound 1: sulfolane, C4H8O2S, InChI=1S/C4H8O2S/c5-7(6)3-1-2-4-7/h1-4H2, purity 99.5%
Compound 2: cyclohexane, C6H12, InChI=1S/C6H12/c1-2-4-6-5-3-1/h1-6H2, purity 99.5%
Compound 3: cyclooctane, C8H16, InChI=1S/C8H16/c1-2-4-6-8-7-5-3-1/h1-8H2, purity 99.96%

System: cyclohexane + sulfolane; phases: Liquid mixture 1, Liquid mixture 2
Fixed: Pressure, kPa = 101
Property: Mole fraction of cyclohexane (Liquid mixture 1); method: CHROM:UFactor:8
Temperature, K	Mole fraction of cyclohexane	uncertainty
303.1	0.9915	0.0085
318.16	0.9876	0.01
333.24	0.9835	0.01
349.4	0.9804	0.0101
363.42	0.9771	0.0101
372.87	0.9767	0.0101
384	0.9712	0.0101
393.57	0.9661	0.0102
403.25	0.9657	0.0102
413.49	0.962	0.0102
423.25	0.9601	0.0103
431.76	0.9568	0.0103
442.84	0.9493	0.0104
452.67	0.942	0.0105

System: cyclohexane + sulfolane; phases: Liquid mixture 2, Liquid mixture 1
Fixed: Pressure, kPa = 101
Property: Mole fraction of cyclohexane (Liquid mixture 2); method: CHROM:UFactor:8
Temperature, K	Mole fraction of cyclohexane	uncertainty
303.1	0.0221	0.0101
318.16	0.0238	0.0101
333.24	0.0406	0.0103
349.4	0.0435	0.0103
363.42	0.0664	0.0107
372.87	0.0721	0.0108
384	0.0799	0.011
393.57	0.101	0.0115
403.25	0.1135	0.0119
413.49	0.1382	0.0127
423.25	0.1733	0.014
431.76	0.2007	0.0151
442.84	0.2331	0.0165
452.67	0.2724	0.0184

System: sulfolane + cyclooctane; phases: Liquid mixture 1, Liquid mixture 2
Fixed: Pressure, kPa = 101
Property: Mole fraction of cyclooctane (Liquid mixture 1); method: CHROM:UFactor:8
Temperature, K	Mole fraction of cyclooctane	uncertainty
306.84	0.9998	0.0002
313.35	0.9949	0.0051
333.4	0.9926	0.0074
353.4	0.9897	0.01
372.39	0.9796	0.0101
392.01	0.967	0.0102
404.21	0.95	0.0104
413.53	0.9309	0.0107
431.39	0.894	0.0117
439.21	0.8565	0.0129
447.27	0.829	0.0139
456.55	0.7709	0.0164
462.61	0.6682	0.0213

System: sulfolane + cyclooctane; phases: Liquid mixture 2, Liquid mixture 1
Fixed: Pressure, kPa = 101
Property: Mole fraction of cyclooctane (Liquid mixture 2); method: CHROM:UFactor:8
Temperature, K	Mole fraction of cyclooctane	uncertainty
306.84	0.0151	0.01
313.35	0.0174	0.01
333.4	0.0319	0.0102
353.4	0.0393	0.0102
372.39	0.054	0.0105
392.01	0.0769	0.0109
404.21	0.1061	0.0117
413.53	0.1205	0.0121
431.39	0.1777	0.0142
439.21	0.2129	0.0157
447.27	0.2496	0.0173
456.55	0.2968	0.0195
462.61	0.3557	0.0225
