Measured thermophysical data. Isochoric PVTx measurements for the C2H6 + N2O binary system
Source: J. Chem. Eng. Data, 2006, 10.1021/je0503148
Compound 1: ethane, C2H6, InChI=1S/C2H6/c1-2/h1-2H3
Compound 2: nitrous oxide, N2O, InChI=1S/N2O/c1-2-3

System: ethane + nitrous oxide; phases: Gas, Liquid
Property: Vapor or sublimation pressure, kPa (Gas); method: ISOPVT
Mole fraction of ethane	Temperature, K	Vapor or sublimation pressure, kPa	uncertainty
0.125	263.5	2524.3	2.9
0.208	261	2411.4	2.8
0.234	267.6	2834.5	3
0.345	256.32	2132.1	2.9
0.361	263.12	2551.5	2.8
0.483	259.09	2208	3
0.521	282.33	3893.2	3.4
0.628	259.48	2105.9	2.9
0.707	268.32	2547.7	3
0.749	264.65	2258.9	3
0.876	267.15	2218	3.3

System: ethane + nitrous oxide; phases: Gas
Property: Molar volume, m3/mol (Gas); method: ISOCHOR
Temperature, K	Pressure, kPa	Mole fraction of ethane	Molar volume, m3/mol	uncertainty
262.97	2439	0.208	0.000661	1e-06
263.02	2263.6	0.438	0.000715	1e-06
263.08	2153.1	0.628	0.000754	1e-06
263.09	2225.4	0.345	0.000747	1e-06
267.99	2597.9	0.125	0.000639	1e-06
268.07	2310.2	0.749	0.000673	1e-06
268.08	2296.2	0.345	0.000747	1e-06
268.08	2523.7	0.208	0.000661	1e-06
268.11	2340.5	0.438	0.000715	1e-06
268.11	2638.4	0.361	0.000607	1e-06
268.13	2225.8	0.628	0.000754	1e-06
268.14	2219	0.876	0.000711	1e-06
272.91	2630	0.707	0.000596	1e-06
272.92	2412.3	0.438	0.000715	1e-06
272.92	2937.6	0.234	0.000552	1e-06
272.97	2682.6	0.125	0.000639	1e-06
273.05	2727.9	0.361	0.000607	1e-06
273.06	2365.8	0.345	0.000747	1e-06
273.06	2604.3	0.208	0.000661	1e-06
273.13	2296.2	0.628	0.000754	1e-06
273.18	2305.4	0.876	0.000711	1e-06
273.26	2390	0.749	0.000673	1e-06
277.64	2761.6	0.125	0.000639	1e-06
277.86	2485	0.438	0.000716	1e-06
277.87	2431.5	0.345	0.000747	1e-06
277.88	3037	0.234	0.000552	1e-06
278.02	2364.6	0.628	0.000754	1e-06
278.02	2381.2	0.876	0.000711	1e-06
278.03	2467.5	0.749	0.000673	1e-06
278.03	2721.9	0.707	0.000596	1e-06
278.03	2816.4	0.361	0.000607	1e-06
282.83	2500.7	0.345	0.000748	1e-06
282.83	3134.8	0.234	0.000552	1e-06
282.84	2557.3	0.438	0.000716	1e-06
283.01	2456.7	0.876	0.000712	1e-06
283.01	2544.1	0.749	0.000673	1e-06
283.01	2812.8	0.707	0.000596	1e-06
283.02	2433.6	0.628	0.000754	1e-06
283.02	2763.6	0.208	0.000661	1e-06
283.02	2904	0.361	0.000607	1e-06
283.03	2850.2	0.125	0.000639	1e-06
287.88	4087	0.521	0.00035	1e-06
288	2531.5	0.876	0.000712	1e-06
288	2620	0.749	0.000673	1e-06
288	2990.3	0.361	0.000607	1e-06
288.01	2501.8	0.628	0.000755	1e-06
288.01	2931.6	0.125	0.000639	1e-06
292.8	2567	0.628	0.000755	1e-06
292.99	3012	0.125	0.000639	1e-06
293.05	4265.3	0.521	0.00035	1e-06
293.08	2992.8	0.707	0.000596	1e-06
293.09	2606.6	0.876	0.000712	1e-06
293.09	2639.1	0.345	0.000748	1e-06
293.09	3078.6	0.361	0.000607	1e-06
293.1	2920.5	0.208	0.000662	1e-06
293.11	3334.4	0.234	0.000552	1e-06
293.12	2703.5	0.438	0.000716	1e-06
298.06	3080.5	0.707	0.000597	1e-06
298.08	2771.7	0.749	0.000674	1e-06
298.08	4437.4	0.521	0.00035	1e-06
298.13	3095.1	0.125	0.00064	1e-06
303.04	2842.8	0.438	0.000716	1e-06
303.06	3247.6	0.361	0.000608	1e-06
303.07	2704.3	0.628	0.000755	1e-06
303.07	2752.3	0.876	0.000712	1e-06
303.07	2845.4	0.749	0.000674	1e-06
303.07	3072.8	0.208	0.000662	1e-06
303.08	4606.1	0.521	0.00035	1e-06
303.09	3173.7	0.125	0.00064	1e-06
303.1	2772.2	0.345	0.000748	1e-06
303.11	3523.6	0.234	0.000553	1e-06
307.95	4768.9	0.521	0.00035	1e-06
308.08	3616.8	0.234	0.000553	1e-06
308.09	3254.8	0.707	0.000597	1e-06
308.12	2914	0.438	0.000716	1e-06
312.98	2895.7	0.876	0.000713	1e-06
313.04	2836.3	0.628	0.000755	1e-06
313.04	2902.2	0.345	0.000749	1e-06
313.04	2991.5	0.749	0.000674	1e-06
313.04	3222.9	0.208	0.000662	1e-06
313.04	3414.3	0.361	0.000608	1e-06
313.04	4936.5	0.521	0.000351	1e-06
313.05	3330.4	0.125	0.00064	1e-06
317.95	3049.9	0.438	0.000717	1e-06
318.03	5099.4	0.521	0.000351	1e-06
318.06	3802.1	0.234	0.000553	1e-06
318.08	3425.7	0.707	0.000597	1e-06
322.99	3370.6	0.208	0.000662	1e-06
323.01	2966.9	0.628	0.000756	1e-06
323.01	3037.9	0.876	0.000713	1e-06
323.01	3136	0.749	0.000674	1e-06
323.01	3578.5	0.361	0.000608	1e-06
323.02	3032.4	0.345	0.000749	1e-06
323.02	5261	0.521	0.000351	1e-06
323.03	3485.4	0.125	0.00064	1e-06
327.91	3591.7	0.707	0.000597	1e-06
328.05	3187.9	0.438	0.000717	1e-06
328.06	3985.4	0.234	0.000553	1e-06
332.97	3517.7	0.208	0.000663	1e-06
332.97	3740.3	0.361	0.000608	1e-06
332.98	3178.5	0.876	0.000713	1e-06
332.99	3096.5	0.628	0.000756	1e-06
332.99	3160.9	0.345	0.000749	1e-06
332.99	3279.3	0.749	0.000675	1e-06
332.99	3638.4	0.125	0.000641	1e-06
338.09	3762.4	0.707	0.000598	1e-06
338.1	4166.9	0.234	0.000554	1e-06
338.15	3325	0.438	0.000717	1e-06
342.95	3224.6	0.628	0.000756	1e-06
342.95	3288.4	0.345	0.00075	1e-06
342.95	3420.9	0.749	0.000675	1e-06
342.95	3902	0.361	0.000609	1e-06
342.96	3663.8	0.208	0.000663	1e-06
342.96	3790.3	0.125	0.000641	1e-06
343.07	3319.3	0.876	0.000713	1e-06
348.08	3928.3	0.707	0.000598	1e-06
348.08	4347	0.234	0.000554	1e-06
348.09	3458.9	0.438	0.000718	1e-06
352.87	3560.3	0.749	0.000675	1e-06
352.92	3415.1	0.345	0.00075	1e-06
352.92	3808.2	0.208	0.000663	1e-06
352.92	4062.5	0.361	0.000609	1e-06
352.93	3352.1	0.628	0.000757	1e-06
352.93	3939.7	0.125	0.000641	1e-06
353.04	3457.3	0.876	0.000714	1e-06
358.05	4092.5	0.707	0.000598	1e-06
358.06	3592	0.438	0.000718	1e-06
358.06	4524.7	0.234	0.000554	1e-06
