Measured thermophysical data. High-Pressure Phase Equilibrium for Ethylene + Methanol at 278.15 K and 283.65 K
Source: J. Chem. Eng. Data, 2006, 10.1021/je050374d
Compound 1: methanol, CH4O, InChI=1S/CH4O/c1-2/h2H,1H3
Compound 2: ethene, C2H4, InChI=1S/C2H4/c1-2/h1-2H2

System: methanol + ethene; phases: Liquid mixture 1, Liquid mixture 2, Gas
Property: Vapor or sublimation pressure, kPa (Liquid mixture 1); method: Closed cell (Static) method
Temperature, K	Vapor or sublimation pressure, kPa	uncertainty
278.15	4447	14
283.65	5003	16

System: methanol + ethene; phases: Liquid mixture 1, Liquid mixture 2, Gas
Property: Mass density, kg/m3 (Liquid mixture 1); method: VIBTUB:UFactor:64
Temperature, K	Mass density, kg/m3	uncertainty
278.15	568.3	12.7
283.65	585.1	12.3

System: methanol + ethene; phases: Liquid mixture 2, Liquid mixture 1, Gas
Property: Mass density, kg/m3 (Liquid mixture 2); method: VIBTUB:UFactor:64
Temperature, K	Mass density, kg/m3	uncertainty
278.15	362.1	11
283.65	320.6	9.9

System: methanol + ethene; phases: Gas, Liquid mixture 1, Liquid mixture 2
Property: Mass density, kg/m3 (Gas); method: VIBTUB:UFactor:64
Temperature, K	Mass density, kg/m3	uncertainty
278.15	109.9	4.7
283.65	145.5	5.6

System: methanol + ethene; phases: Liquid mixture 1, Liquid mixture 2, Gas
Property: Mole fraction of ethene (Liquid mixture 1); method: Chromatography
Temperature, K	Mole fraction of ethene	uncertainty
278.15	0.525	0.004
283.65	0.485	0.004

System: methanol + ethene; phases: Liquid mixture 2, Liquid mixture 1, Gas
Property: Mole fraction of ethene (Liquid mixture 2); method: Chromatography
Temperature, K	Mole fraction of ethene	uncertainty
278.15	0.901	0.002
283.65	0.955	0.002

System: methanol + ethene; phases: Gas, Liquid mixture 1, Liquid mixture 2
Property: Mole fraction of ethene (Gas); method: Chromatography
Temperature, K	Mole fraction of ethene	uncertainty
278.15	0.996	0.002
283.65	0.993	0.002

System: methanol + ethene; phases: Liquid, Gas
Property: Vapor or sublimation pressure, kPa (Liquid); method: Closed cell (Static) method
Mole fraction of ethene	Temperature, K	Vapor or sublimation pressure, kPa	uncertainty
0.14	283.65	2222	26
0.147	278.15	2050	30
0.189	278.15	2659	22
0.221	283.65	3227	24
0.295	278.15	3613	19
0.325	283.65	4227	20
0.373	278.15	4015	16
0.432	283.65	4816	18
0.475	283.65	4983	18
0.984	283.65	5059	16
0.989	278.15	4524	14

System: methanol + ethene; phases: Gas, Liquid
Property: Mass density, kg/m3 (Gas); method: VIBTUB:UFactor:64
Temperature, K	Mole fraction of ethene	Mass density, kg/m3	uncertainty
278.15	0.147	30.2	2.8
278.15	0.189	42.2	3.1
278.15	0.295	67	3.7
278.15	0.373	83.1	4.1
278.15	0.989	118.9	4.9
283.65	0.14	32.2	2.8
283.65	0.221	53.2	3.3
283.65	0.325	84.3	4.1
283.65	0.432	119.2	5
283.65	0.475	141	5.6
283.65	0.984	160.8	6

System: methanol + ethene; phases: Liquid mixture 1, Liquid mixture 2
Property: Mass density, kg/m3 (Liquid mixture 1); method: VIBTUB:UFactor:64
Temperature, K	Pressure, kPa	Mass density, kg/m3	uncertainty
278.15	5404	517.2	20.4
278.15	5769	487.6	21
283.65	5390	575.9	18.2
283.65	5906	564	19.2

System: methanol + ethene; phases: Liquid, Gas
Property: Mass density, kg/m3 (Liquid); method: VIBTUB:UFactor:64
Temperature, K	Mole fraction of ethene	Mass density, kg/m3	uncertainty
278.15	0.147	742.3	8.4
278.15	0.189	722.2	8.9
278.15	0.295	675.3	10.1
278.15	0.373	644.9	10.8
278.15	0.989	322	10
283.65	0.14	741.3	8.4
283.65	0.221	706	9.3
283.65	0.325	657.5	10.5
283.65	0.432	610.9	11.7
283.65	0.475	589.1	12.2
283.65	0.984	258.5	8.5

System: methanol + ethene; phases: Liquid mixture 2, Liquid mixture 1
Property: Mass density, kg/m3 (Liquid mixture 2); method: VIBTUB:UFactor:64
Temperature, K	Pressure, kPa	Mass density, kg/m3	uncertainty
278.15	5404	403.6	17.4
278.15	5769	417.4	18.3
283.65	5390	352.8	15.4
283.65	5906	375.6	16.8

System: methanol + ethene; phases: Liquid mixture 1, Liquid mixture 2
Property: Mole fraction of ethene (Liquid mixture 1); method: Chromatography
Temperature, K	Pressure, kPa	Mole fraction of ethene	uncertainty
278.15	5404	0.69	0.003
278.15	5769	0.789	0.003
283.65	5390	0.506	0.004
283.65	5906	0.532	0.004

System: methanol + ethene; phases: Gas, Liquid
Property: Mole fraction of ethene (Gas); method: CHROM:UFactor:32
Mole fraction of ethene	Temperature, K	Mole fraction of ethene	uncertainty
0.14	283.65	0.983	0.005
0.147	278.15	0.996	0.002
0.189	278.15	0.992	0.003
0.221	283.65	0.983	0.005
0.295	278.15	0.985	0.005
0.325	283.65	0.984	0.005
0.373	278.15	0.989	0.004
0.432	283.65	0.991	0.003
0.475	283.65	0.991	0.003
0.984	283.65	0.993	0.003
0.989	278.15	0.997	0.002

System: methanol + ethene; phases: Liquid mixture 2, Liquid mixture 1
Property: Mole fraction of ethene (Liquid mixture 2); method: Chromatography
Temperature, K	Pressure, kPa	Mole fraction of ethene	uncertainty
278.15	5404	0.889	0.002
278.15	5769	0.865	0.002
283.65	5390	0.93	0.002
283.65	5906	0.894	0.002
