Measured thermophysical data. Densities, Viscosities, and Refractive Indices for Binary and Ternary Mixtures of N,N-Dimethylacetamide (1) + 2-Methylbutan-2-ol (2) + Ethyl Acetate (3) at 298.15 K for the Liquid Region and at Ambient Pressure
Source: J. Chem. Eng. Data, 2006, 10.1021/je050538q
Compound 1: N,N-dimethylethanamide, C4H9NO, InChI=1S/C4H9NO/c1-4(6)5(2)3/h1-3H3, purity 99.5%
Compound 2: 2-methylbutan-2-ol, C5H12O, InChI=1S/C5H12O/c1-4-5(2,3)6/h6H,4H2,1-3H3, purity 99.5%
Compound 3: ethyl acetate, C4H8O2, InChI=1S/C4H8O2/c1-3-6-4(2)5/h3H2,1-2H3, purity 99%

System: N,N-dimethylethanamide; phases: Liquid
Property: Refractive index (Na D-line) (Liquid); method: ABBE::UFactor:2
Temperature, K	Pressure, kPa	Refractive index (Na D-line)	uncertainty
298.15	101.325	1.4357	0.0006

System: N,N-dimethylethanamide; phases: Liquid
Property: Viscosity, Pa*s (Liquid); method: CAPTUB::UFactor:2
Pressure, kPa	Temperature, K	Viscosity, Pa*s	uncertainty
101	298.15	0.000945	1.2e-05

System: N,N-dimethylethanamide; phases: Liquid
Property: Mass density, kg/m3 (Liquid); method: VIBTUB::UFactor:4
Pressure, kPa	Temperature, K	Mass density, kg/m3	uncertainty
101	298.15	936.7	0.33

System: 2-methylbutan-2-ol; phases: Liquid
Property: Viscosity, Pa*s (Liquid); method: Capillary tube (Ostwald; Ubbelohde) method
Temperature, K	Pressure, kPa	Viscosity, Pa*s	uncertainty
303.15	101.325	0.00281	1.7e-05

System: 2-methylbutan-2-ol; phases: Liquid
Property: Refractive index (Na D-line) (Liquid); method: ABBE::UFactor:2
Temperature, K	Pressure, kPa	Refractive index (Na D-line)	uncertainty
298.15	101.325	1.4025	0.0006

System: 2-methylbutan-2-ol; phases: Liquid
Property: Viscosity, Pa*s (Liquid); method: CAPTUB:UFactor:2
Pressure, kPa	Temperature, K	Viscosity, Pa*s	uncertainty
101	298.15	0.003645	4.1e-05

System: 2-methylbutan-2-ol; phases: Liquid
Property: Mass density, kg/m3 (Liquid); method: VIBTUB::UFactor:4
Pressure, kPa	Temperature, K	Mass density, kg/m3	uncertainty
101	298.15	804.98	0.47

System: ethyl acetate; phases: Liquid
Property: Refractive index (Na D-line) (Liquid); method: ABBE::UFactor:2
Temperature, K	Pressure, kPa	Refractive index (Na D-line)	uncertainty
298.15	101.325	1.3699	0.0007

System: ethyl acetate; phases: Liquid
Property: Viscosity, Pa*s (Liquid); method: CAPTUB::UFactor:2
Pressure, kPa	Temperature, K	Viscosity, Pa*s	uncertainty
101	298.15	0.000426	7e-06

System: ethyl acetate; phases: Liquid
Property: Mass density, kg/m3 (Liquid); method: VIBTUB::UFactor:4
Pressure, kPa	Temperature, K	Mass density, kg/m3	uncertainty
101	298.15	894.6	0.54

System: 2-methylbutan-2-ol + N,N-dimethylethanamide; phases: Liquid
Fixed: Pressure, kPa = 101
Fixed: Temperature, K = 298.15
Property: Viscosity, Pa*s (Liquid); method: CAPTUB:UFactor:2
Mole fraction of N,N-dimethylethanamide	Viscosity, Pa*s	uncertainty
0	0.003645	4.1e-05
0.0112	0.0036	4.1e-05
0.0284	0.003533	4e-05
0.0423	0.00348	4e-05
0.0681	0.003381	3.9e-05
0.1023	0.003254	3.7e-05
0.1613	0.003041	3.5e-05
0.2112	0.00287	3.3e-05
0.253	0.002731	3.2e-05
0.2912	0.002608	3e-05
0.3366	0.002467	2.9e-05
0.3844	0.002325	2.7e-05
0.4203	0.002221	2.6e-05
0.4743	0.002071	2.4e-05
0.5864	0.00178	2.1e-05
0.6721	0.001578	1.9e-05
0.7474	0.001413	1.7e-05
0.8321	0.001242	1.5e-05
0.9168	0.001086	1.4e-05
0.954	0.001021	1.3e-05
1	0.000945	1.2e-05

System: 2-methylbutan-2-ol + N,N-dimethylethanamide; phases: Liquid
Fixed: Pressure, kPa = 101
Fixed: Temperature, K = 298.15
Property: Refractive index (Na D-line) (Liquid); method: ABBE:UFactor:2
Mole fraction of N,N-dimethylethanamide	Refractive index (Na D-line)	uncertainty
0	1.4025	0.0006
0.0112	1.4031	0.0006
0.0284	1.404	0.0006
0.0423	1.4046	0.0006
0.0681	1.4058	0.0006
0.1023	1.4072	0.0006
0.1613	1.4095	0.0006
0.2112	1.4113	0.0006
0.253	1.4128	0.0006
0.2912	1.4141	0.0006
0.3366	1.4156	0.0006
0.3844	1.4171	0.0006
0.4203	1.4182	0.0006
0.4743	1.4198	0.0006
0.5864	1.423	0.0006
0.6721	1.4254	0.0006
0.7474	1.4276	0.0006
0.8321	1.4302	0.0006
0.9168	1.4329	0.0006
0.954	1.4341	0.0006
1	1.4357	0.0006

System: 2-methylbutan-2-ol + N,N-dimethylethanamide; phases: Liquid
Fixed: Pressure, kPa = 101
Fixed: Temperature, K = 298.15
Property: Mass density, kg/m3 (Liquid); method: VIBTUB:UFactor:4
Mole fraction of N,N-dimethylethanamide	Mass density, kg/m3	uncertainty
0	804.98	0.47
0.0112	806.65	0.48
0.0284	809.1	0.47
0.0423	810.93	0.47
0.0681	814.29	0.47
0.1023	818.47	0.46
0.1613	825.31	0.45
0.2112	830.81	0.44
0.253	835.39	0.44
0.2912	839.58	0.43
0.3366	844.6	0.43
0.3844	850.11	0.42
0.4203	854.29	0.42
0.4743	860.87	0.41
0.5864	875.18	0.39
0.6721	886.7	0.38
0.7474	897.47	0.37
0.8321	910.06	0.36
0.9168	923.22	0.34
0.954	929.18	0.34
1	936.7	0.33

System: N,N-dimethylethanamide + ethyl acetate; phases: Liquid
Fixed: Pressure, kPa = 101
Fixed: Temperature, K = 298.15
Property: Viscosity, Pa*s (Liquid); method: CAPTUB:UFactor:2
Mole fraction of N,N-dimethylethanamide	Viscosity, Pa*s	uncertainty
0	0.000426	7e-06
0.0392	0.000442	7e-06
0.0791	0.000458	8e-06
0.156	0.00049	8e-06
0.2331	0.000523	8e-06
0.3109	0.000558	8e-06
0.3875	0.000595	9e-06
0.4646	0.000634	9e-06
0.541	0.000674	9e-06
0.6137	0.000713	1e-05
0.6931	0.000757	1e-05
0.7718	0.000803	1.1e-05
0.8145	0.000828	1.1e-05
0.8896	0.000874	1.1e-05
0.9558	0.000916	1.2e-05
1	0.000945	1.2e-05

System: N,N-dimethylethanamide + ethyl acetate; phases: Liquid
Fixed: Pressure, kPa = 101
Fixed: Temperature, K = 298.15
Property: Refractive index (Na D-line) (Liquid); method: ABBE:UFactor:2
Mole fraction of N,N-dimethylethanamide	Refractive index (Na D-line)	uncertainty
0	1.3699	0.0007
0.0392	1.3731	0.0007
0.0791	1.3763	0.0007
0.156	1.3824	0.0006
0.2331	1.3883	0.0006
0.3109	1.3942	0.0006
0.3875	1.3999	0.0006
0.4646	1.4054	0.0006
0.541	1.4106	0.0006
0.6137	1.4153	0.0006
0.6931	1.4201	0.0006
0.7718	1.4246	0.0006
0.8145	1.4269	0.0006
0.8896	1.4307	0.0006
0.9558	1.4338	0.0006
1	1.4357	0.0006

System: N,N-dimethylethanamide + ethyl acetate; phases: Liquid
Fixed: Pressure, kPa = 101
Fixed: Temperature, K = 298.15
Property: Mass density, kg/m3 (Liquid); method: VIBTUB:UFactor:4
Mole fraction of N,N-dimethylethanamide	Mass density, kg/m3	uncertainty
0	894.6	0.54
0.0392	896.84	0.53
0.0791	898.95	0.52
0.156	902.75	0.5
0.2331	906.43	0.49
0.3109	909.97	0.47
0.3875	913.34	0.45
0.4646	916.63	0.44
0.541	919.8	0.42
0.6137	922.68	0.41
0.6931	925.71	0.39
0.7718	928.62	0.37
0.8145	930.15	0.36
0.8896	932.81	0.35
0.9558	935.14	0.33
1	936.7	0.33

System: 2-methylbutan-2-ol + ethyl acetate; phases: Liquid
Fixed: Pressure, kPa = 101
Fixed: Temperature, K = 298.15
Property: Viscosity, Pa*s (Liquid); method: CAPTUB:UFactor:2
Mole fraction of 2-methylbutan-2-ol	Viscosity, Pa*s	uncertainty
0	0.000426	7e-06
0.0279	0.000464	8e-06
0.0573	0.000508	8e-06
0.096	0.000567	9e-06
0.1672	0.000691	1e-05
0.2475	0.00085	1.1e-05
0.3322	0.001041	1.4e-05
0.4168	0.001261	1.6e-05
0.4994	0.001503	1.9e-05
0.5831	0.001776	2.2e-05
0.6658	0.002078	2.5e-05
0.7486	0.002412	2.8e-05
0.8336	0.002791	3.2e-05
0.9149	0.003188	3.7e-05
0.9445	0.003344	3.8e-05
0.9712	0.003486	4e-05
1	0.003645	4.1e-05

System: 2-methylbutan-2-ol + ethyl acetate; phases: Liquid
Fixed: Pressure, kPa = 101
Fixed: Temperature, K = 298.15
Property: Refractive index (Na D-line) (Liquid); method: ABBE:UFactor:2
Mole fraction of 2-methylbutan-2-ol	Refractive index (Na D-line)	uncertainty
0	1.3699	0.0007
0.0279	1.3711	0.0007
0.0573	1.3723	0.0007
0.096	1.3739	0.0007
0.1672	1.3767	0.0006
0.2475	1.3798	0.0006
0.3322	1.383	0.0006
0.4168	1.3861	0.0006
0.4994	1.3891	0.0006
0.5831	1.3919	0.0006
0.6658	1.3946	0.0006
0.7486	1.397	0.0006
0.8336	1.3993	0.0006
0.9149	1.4011	0.0006
0.9445	1.4017	0.0006
0.9712	1.4021	0.0006
1	1.4025	0.0006

System: 2-methylbutan-2-ol + ethyl acetate; phases: Liquid
Fixed: Pressure, kPa = 101
Fixed: Temperature, K = 298.15
Property: Mass density, kg/m3 (Liquid); method: VIBTUB:UFactor:4
Mole fraction of 2-methylbutan-2-ol	Mass density, kg/m3	uncertainty
0	894.6	0.54
0.0279	891.15	0.54
0.0573	887.59	0.53
0.096	883.06	0.53
0.1672	874.97	0.52
0.2475	866.39	0.51
0.3322	857.83	0.5
0.4168	849.81	0.5
0.4994	842.59	0.49
0.5831	835.67	0.49
0.6658	829.16	0.48
0.7486	822.86	0.48
0.8336	816.62	0.48
0.9149	810.81	0.48
0.9445	808.73	0.48
0.9712	806.91	0.48
1	804.98	0.47

System: 2-methylbutan-2-ol + N,N-dimethylethanamide + ethyl acetate; phases: Liquid
Fixed: Pressure, kPa = 101
Fixed: Temperature, K = 298.15
Property: Viscosity, Pa*s (Liquid); method: CAPTUB:UFactor:2
Mole fraction of N,N-dimethylethanamide	Mole fraction of 2-methylbutan-2-ol	Viscosity, Pa*s	uncertainty
0.0492	0.4412	0.001306	1.6e-05
0.0499	0.1	0.000579	9e-06
0.0501	0.8473	0.002928	3.4e-05
0.0501	0.8998	0.003206	3.7e-05
0.0503	0.3	0.000943	1.2e-05
0.0505	0.2484	0.000835	1.1e-05
0.0506	0.0513	0.000512	8e-06
0.0509	0.5027	0.001493	1.9e-05
0.0513	0.6973	0.002218	2.6e-05
0.0552	0.6475	0.002012	2.4e-05
0.0992	0.646	0.00201	2.4e-05
0.0993	0.4488	0.001327	1.7e-05
0.0997	0.0505	0.000545	8e-06
0.0998	0.2494	0.000868	1.2e-05
0.0999	0.8497	0.003021	3.5e-05
0.1983	0.7391	0.002601	3e-05
0.1991	0.4738	0.001446	1.8e-05
0.1992	0.5524	0.001712	2.1e-05
0.2	0.3504	0.001133	1.4e-05
0.2001	0.6503	0.002124	2.5e-05
0.2004	0.2524	0.000942	1.2e-05
0.201	0.1503	0.000773	1e-05
0.2017	0.0525	0.000614	9e-06
0.2874	0.2775	0.001043	1.3e-05
0.2983	0.448	0.001459	1.8e-05
0.3003	0.6482	0.002334	2.7e-05
0.3005	0.0505	0.000672	9e-06
0.398	0.2505	0.001085	1.4e-05
0.399	0.0504	0.000737	1e-05
0.3995	0.5499	0.002032	2.4e-05
0.3998	0.3499	0.001289	1.6e-05
0.3999	0.1507	0.000915	1.2e-05
0.4001	0.4498	0.001593	1.9e-05
0.4989	0.4492	0.001749	2.1e-05
0.4996	0.0515	0.000799	1.1e-05
0.5002	0.2487	0.001155	1.4e-05
0.5917	0.2458	0.001215	1.5e-05
0.6001	0.0501	0.000849	1.1e-05
0.6004	0.3497	0.00151	1.8e-05
0.7008	0.0499	0.000896	1.2e-05
0.701	0.2488	0.001288	1.6e-05
0.8495	0.0504	0.000957	1.2e-05
0.8497	0.1	0.001036	1.3e-05
0.9006	0.05	0.000974	1.2e-05

System: 2-methylbutan-2-ol + N,N-dimethylethanamide + ethyl acetate; phases: Liquid
Fixed: Pressure, kPa = 101
Fixed: Temperature, K = 298.15
Property: Refractive index (Na D-line) (Liquid); method: ABBE:UFactor:2
Mole fraction of N,N-dimethylethanamide	Mole fraction of 2-methylbutan-2-ol	Refractive index (Na D-line)	uncertainty
0.0492	0.4412	1.3892	0.0006
0.0499	0.1	1.3774	0.0006
0.0501	0.8473	1.4025	0.0006
0.0501	0.8998	1.404	0.0006
0.0503	0.3	1.3836	0.0006
0.0505	0.2484	1.3821	0.0006
0.0506	0.0513	1.3762	0.0007
0.0509	0.5027	1.3915	0.0006
0.0513	0.6973	1.3977	0.0006
0.0552	0.6475	1.397	0.0006
0.0992	0.646	1.3992	0.0006
0.0993	0.4488	1.3918	0.0006
0.0997	0.0505	1.3796	0.0006
0.0998	0.2494	1.3851	0.0006
0.0999	0.8497	1.406	0.0006
0.1983	0.7391	1.4085	0.0006
0.1991	0.4738	1.4005	0.0006
0.1992	0.5524	1.4039	0.0006
0.2	0.3504	1.395	0.0006
0.2001	0.6503	1.4073	0.0006
0.2004	0.2524	1.3914	0.0006
0.201	0.1503	1.3882	0.0006
0.2017	0.0525	1.3876	0.0006
0.2874	0.2775	1.3988	0.0006
0.2983	0.448	1.4069	0.0006
0.3003	0.6482	1.4132	0.0006
0.3005	0.0505	1.3942	0.0006
0.398	0.2505	1.4054	0.0006
0.399	0.0504	1.4007	0.0006
0.3995	0.5499	1.4164	0.0006
0.3998	0.3499	1.4102	0.0006
0.3999	0.1507	1.4024	0.0006
0.4001	0.4498	1.414	0.0006
0.4989	0.4492	1.4201	0.0006
0.4996	0.0515	1.4073	0.0006
0.5002	0.2487	1.4137	0.0006
0.5917	0.2458	1.4202	0.0006
0.6001	0.0501	1.4138	0.0006
0.6004	0.3497	1.4237	0.0006
0.7008	0.0499	1.4203	0.0006
0.701	0.2488	1.4268	0.0006
0.8495	0.0504	1.43	0.0006
0.8497	0.1	1.4317	0.0006
0.9006	0.05	1.4323	0.0006

System: 2-methylbutan-2-ol + N,N-dimethylethanamide + ethyl acetate; phases: Liquid
Fixed: Pressure, kPa = 101
Fixed: Temperature, K = 298.15
Property: Mass density, kg/m3 (Liquid); method: VIBTUB:UFactor:4
Mole fraction of N,N-dimethylethanamide	Mole fraction of 2-methylbutan-2-ol	Mass density, kg/m3	uncertainty
0.0492	0.4412	852.05	0.49
0.0499	0.1	885.71	0.52
0.0501	0.8473	818.44	0.47
0.0501	0.8998	814.27	0.47
0.0503	0.3	865.43	0.49
0.0505	0.2484	870.5	0.5
0.0506	0.0513	891.16	0.52
0.0509	0.5027	846.73	0.48
0.0513	0.6973	830.51	0.47
0.0552	0.6475	834.86	0.47
0.0992	0.646	837.89	0.46
0.0993	0.4488	854.7	0.47
0.0997	0.0505	893.56	0.51
0.0998	0.2494	872.91	0.49
0.0999	0.8497	820.54	0.46
0.1983	0.7391	833.28	0.45
0.1991	0.4738	856.63	0.46
0.1992	0.5524	849.71	0.45
0.2	0.3504	867.21	0.46
0.2001	0.6503	841.04	0.45
0.2004	0.2524	876.35	0.47
0.201	0.1503	886.21	0.48
0.2017	0.0525	897.56	0.49
0.2874	0.2775	876.19	0.45
0.2983	0.448	861.56	0.44
0.3003	0.6482	843.86	0.43
0.3005	0.0505	901.88	0.47
0.398	0.2505	881.15	0.43
0.399	0.0504	905.95	0.45
0.3995	0.5499	855.56	0.42
0.3998	0.3499	872.27	0.43
0.3999	0.1507	891.89	0.44
0.4001	0.4498	864.06	0.42
0.4989	0.4492	867.95	0.41
0.4996	0.0515	910.43	0.43
0.5002	0.2487	884.22	0.42
0.5917	0.2458	888.48	0.4
0.6001	0.0501	914.32	0.41
0.6004	0.3497	881.22	0.39
0.7008	0.0499	918.49	0.39
0.701	0.2488	895.85	0.38
0.8495	0.0504	924.63	0.36
0.8497	0.1	919.23	0.35
0.9006	0.05	927.63	0.35
