Measured thermophysical data. Volumetric Properties of 1-Phenyldecane and 1-Phenylundecane at Pressures to 65 MPa and Temperature between 293.15 and 353.15 K
Source: J. Chem. Eng. Data, 2005, 10.1021/je0500936
Compound 1: 1-phenyldecane, C16H26, InChI=1S/C16H26/c1-2-3-4-5-6-7-8-10-13-16-14-11-9-12-15-16/h9,11-12,14-15H,2-8,10,13H2,1H3, purity 98%
Compound 2: undecylbenzene, C17H28, InChI=1S/C17H28/c1-2-3-4-5-6-7-8-9-11-14-17-15-12-10-13-16-17/h10,12-13,15-16H,2-9,11,14H2,1H3, purity 99%

System: 1-phenyldecane; phases: Liquid
Property: Mass density, kg/m3 (Liquid); method: Vibrating tube method
Temperature, K	Pressure, kPa	Mass density, kg/m3	uncertainty
293.15	100	855.8	0.9
293.15	5000	858.6	0.9
293.15	10000	861.5	0.9
293.15	15000	864.2	0.9
293.15	20000	867	0.9
293.15	25000	869.5	0.9
293.15	30000	872	0.9
293.15	35000	874.4	0.9
293.15	40000	876.8	0.9
293.15	45000	879	0.9
293.15	50000	881.4	1
293.15	55000	883.5	1
293.15	60000	885.7	1
293.15	65000	887.8	1
303.15	100	849.1	0.9
303.15	5000	852.2	0.9
303.15	10000	855.1	0.9
303.15	15000	858.2	0.9
303.15	20000	860.9	0.9
303.15	25000	863.6	0.9
303.15	30000	866.2	0.9
303.15	35000	868.7	0.9
303.15	40000	871.2	0.9
303.15	45000	873.5	0.9
303.15	50000	875.9	1
303.15	55000	878.2	1
303.15	60000	880.4	1
303.15	65000	882.6	1
313.15	100	842.1	0.9
313.15	5000	845.3	0.9
313.15	10000	848.4	0.9
313.15	15000	851.3	0.9
313.15	20000	854.1	0.9
313.15	25000	856.9	0.9
313.15	30000	859.7	0.9
313.15	35000	862.3	0.9
313.15	40000	864.9	0.9
313.15	45000	867.4	0.9
313.15	50000	869.9	1
313.15	55000	872.2	1
313.15	60000	874.6	1
313.15	65000	876.8	1
323.15	100	835.1	0.9
323.15	5000	838.3	0.9
323.15	10000	841.6	0.9
323.15	15000	844.6	0.9
323.15	20000	847.7	0.9
323.15	25000	850.8	0.9
323.15	30000	853.6	0.9
323.15	35000	856.3	0.9
323.15	40000	859	0.9
323.15	45000	861.5	0.9
323.15	50000	864.1	0.9
323.15	55000	866.6	1
323.15	60000	868.9	1
323.15	65000	871.2	1
333.15	100	827.8	0.9
333.15	5000	831.3	0.9
333.15	10000	834.9	0.9
333.15	15000	838.2	0.9
333.15	20000	841.3	0.9
333.15	25000	844.3	0.9
333.15	30000	847.2	0.9
333.15	35000	850.1	0.9
333.15	40000	852.8	0.9
333.15	45000	855.5	0.9
333.15	50000	858.1	0.9
333.15	55000	860.8	1
333.15	60000	863.2	1
333.15	65000	865.7	1
343.15	100	821	0.9
343.15	5000	824.6	0.9
343.15	10000	828.2	0.9
343.15	15000	831.6	0.9
343.15	20000	834.9	0.9
343.15	25000	838.1	0.9
343.15	30000	841.1	0.9
343.15	35000	844	0.9
343.15	40000	846.8	0.9
343.15	45000	849.8	0.9
343.15	50000	852.4	0.9
343.15	55000	855.1	1
343.15	60000	857.6	1
343.15	65000	860.1	1
353.15	100	814	0.8
353.15	5000	817.8	0.9
353.15	10000	821.5	0.9
353.15	15000	825.2	0.9
353.15	20000	828.7	0.9
353.15	25000	831.9	0.9
353.15	30000	835	0.9
353.15	35000	838.1	0.9
353.15	40000	841	0.9
353.15	45000	843.9	0.9
353.15	50000	846.6	0.9
353.15	55000	849.4	1
353.15	60000	852	1
353.15	65000	854.7	1

System: undecylbenzene; phases: Liquid
Property: Mass density, kg/m3 (Liquid); method: Vibrating tube method
Temperature, K	Pressure, kPa	Mass density, kg/m3	uncertainty
293.15	100	856.8	0.5
293.15	5000	859.6	0.5
293.15	10000	862.4	0.5
293.15	15000	865.1	0.5
293.15	20000	867.7	0.5
293.15	25000	870.3	0.5
293.15	30000	872.7	0.5
293.15	35000	875.2	0.5
293.15	40000	877.5	0.5
293.15	45000	879.8	0.5
293.15	50000	882	0.5
293.15	55000	884.2	0.6
293.15	60000	886.3	0.6
293.15	65000	888.2	0.6
303.15	100	849.5	0.5
303.15	5000	852.6	0.5
303.15	10000	855.4	0.5
303.15	15000	858.5	0.5
303.15	20000	861.1	0.5
303.15	25000	863.8	0.5
303.15	30000	866.3	0.5
303.15	35000	868.7	0.5
303.15	40000	871.2	0.5
303.15	45000	873.5	0.5
303.15	50000	875.8	0.5
303.15	55000	878.1	0.6
303.15	60000	880.3	0.6
303.15	65000	882.5	0.6
313.15	100	842.5	0.5
313.15	5000	845.7	0.5
313.15	10000	848.7	0.5
313.15	15000	851.6	0.5
313.15	20000	854.4	0.5
313.15	25000	857.2	0.5
313.15	30000	859.8	0.5
313.15	35000	862.4	0.5
313.15	40000	864.9	0.5
313.15	45000	867.5	0.5
313.15	50000	869.9	0.6
313.15	55000	872.3	0.6
313.15	60000	874.5	0.6
313.15	65000	876.8	0.6
323.15	100	835.5	0.4
323.15	5000	838.9	0.5
323.15	10000	842.1	0.5
323.15	15000	845.1	0.5
323.15	20000	848.1	0.5
323.15	25000	851.1	0.5
323.15	30000	853.9	0.5
323.15	35000	856.6	0.5
323.15	40000	859.2	0.5
323.15	45000	861.7	0.5
323.15	50000	864.2	0.6
323.15	55000	866.6	0.6
323.15	60000	869	0.6
323.15	65000	871.3	0.6
333.15	100	828.6	0.4
333.15	5000	831.9	0.5
333.15	10000	835.4	0.5
333.15	15000	838.6	0.5
333.15	20000	841.7	0.5
333.15	25000	844.6	0.5
333.15	30000	847.5	0.5
333.15	35000	850.3	0.5
333.15	40000	853	0.5
333.15	45000	855.7	0.6
333.15	50000	858.3	0.6
333.15	55000	860.9	0.6
333.15	60000	863.3	0.6
333.15	65000	865.6	0.6
343.15	100	821.7	0.4
343.15	5000	825.2	0.5
343.15	10000	828.7	0.5
343.15	15000	832.2	0.5
343.15	20000	835.4	0.5
343.15	25000	838.5	0.5
343.15	30000	841.4	0.5
343.15	35000	844	0.5
343.15	40000	846.8	0.5
343.15	45000	849.6	0.6
343.15	50000	852.3	0.6
343.15	55000	854.9	0.6
343.15	60000	857.4	0.6
343.15	65000	859.8	0.6
353.15	100	814.5	0.4
353.15	5000	818.5	0.4
353.15	10000	822.2	0.5
353.15	15000	825.9	0.5
353.15	20000	829.3	0.5
353.15	25000	832.5	0.5
353.15	30000	835.5	0.5
353.15	35000	838.4	0.5
353.15	40000	841.3	0.5
353.15	45000	844.1	0.6
353.15	50000	846.6	0.6
353.15	55000	849.4	0.6
353.15	60000	851.9	0.6
353.15	65000	854.6	0.6
