Measured thermophysical data. Critical Parameters for 2-Methylpropane (R600a)
Source: J. Chem. Eng. Data, 2006, 10.1021/je050328d
Compound 1: 2-methylpropane, C4H10, InChI=1S/C4H10/c1-4(2)3/h4H,1-3H3

System: 2-methylpropane; phases: Gas, Liquid
Property: Mass density, kg/m3 (Gas); method: meniscus disappearance in a closed cell
Temperature, K	Mass density, kg/m3	uncertainty
391.403	90.6	1.2
393.732	98.2	1.2
394.977	101.1	1.2
398.815	114.2	1.2
404.542	142	1.2
406.169	160.4	1.2
407.029	173.9	1.3
407.214	179.1	1.3
407.653	192.9	2.2
407.757	202.3	4.2
407.788	219.3	11
407.791	225.4	13.6

System: 2-methylpropane; phases: Liquid, Gas
Property: Mass density, kg/m3 (Liquid); method: meniscus disappearance in a closed cell
Temperature, K	Mass density, kg/m3	uncertainty
390.397	388.9	1.2
397.488	358.7	1.2
400.692	341.9	1.2
402.344	330.3	1.2
405.22	308.1	1.2
406.706	289.4	1.3
406.958	284.3	1.3
407.516	271	1.5
407.751	244.3	6.9
407.795	229.4	6.9
