Measured thermophysical data. Solubilities of Gases in the Ionic Liquid 1-n-Butyl-3-methylimidazolium Bis(trifluoromethylsulfonyl)imide
Source: J. Chem. Eng. Data, 2006, 10.1021/je050357o
Compound 1: carbon dioxide, CO2, InChI=1S/CO2/c2-1-3, purity 99.99%
Compound 2: propane, C3H8, InChI=1S/C3H8/c1-3-2/h3H2,1-2H3, purity 99.999%
Compound 3: propene, C3H6, InChI=1S/C3H6/c1-3-2/h3H,1H2,2H3, purity 99%
Compound 4: butane, C4H10, InChI=1S/C4H10/c1-3-4-2/h3-4H2,1-2H3, purity 99.9%
Compound 5: 1-butene, C4H8, InChI=1S/C4H8/c1-3-4-2/h3H,1,4H2,2H3, purity 99%
Compound 6: 1-butyl-3-methylimidazolium bis(trifluoromethylsulfonyl)imide, C10H15F6N3O4S2, InChI=1S/C8H15N2.C2F6NO4S2/c1-3-4-5-10-7-6-9(2)8-10;3-1(4,5)14(10,11)9-15(12,13)2(6,7)8/h6-8H,3-5H2,1-2H3;/q+1;-1

System: carbon dioxide + 1-butyl-3-methylimidazolium bis(trifluoromethylsulfonyl)imide; phases: Liquid, Gas
Property: Mole fraction of carbon dioxide (Liquid); method: Phase equilibration
Temperature, K	Pressure, kPa	Mole fraction of carbon dioxide	uncertainty
279.98	291.8	0.1151	0.0021
279.98	719.2	0.2472	0.0021
279.98	1458.4	0.4141	0.0021
279.98	2059.5	0.5123	0.0021
299.98	405.8	0.1063	0.002
299.98	996.9	0.2309	0.002
299.98	2063.6	0.3896	0.0021
299.98	2962.7	0.4837	0.0021
319.98	518.1	0.099	0.002
319.98	1292.9	0.2153	0.002
319.98	2699.6	0.3659	0.0021
319.98	3903.9	0.4557	0.0021
339.97	635	0.0922	0.002
339.97	1585.9	0.202	0.002
339.97	3322.4	0.3459	0.002
339.97	4799.9	0.4332	0.0021

System: propane + 1-butyl-3-methylimidazolium bis(trifluoromethylsulfonyl)imide; phases: Liquid, Gas
Property: Mole fraction of propane (Liquid); method: Phase equilibration
Temperature, K	Pressure, kPa	Mole fraction of propane	uncertainty
279.98	88.3	0.0175	0.0014
279.98	234.2	0.0759	0.0015
279.98	428.5	0.1632	0.0015
279.98	480.5	0.1818	0.0014
299.98	96.3	0.0175	0.0013
299.98	297.2	0.0712	0.0013
299.98	597	0.15	0.0013
299.98	671.1	0.1671	0.0013
319.98	104.9	0.0174	0.0013
319.98	380.7	0.065	0.0013
319.98	785.1	0.1365	0.0012
319.98	885	0.152	0.0012
339.97	126.8	0.016	0.0012
339.97	465.1	0.0596	0.0012
339.97	959.9	0.1264	0.0012
339.97	1062.2	0.1427	0.0012

System: propene + 1-butyl-3-methylimidazolium bis(trifluoromethylsulfonyl)imide; phases: Liquid, Gas
Property: Mole fraction of propene (Liquid); method: Phase equilibration
Temperature, K	Pressure, kPa	Mole fraction of propene	uncertainty
279.98	99.9	0.0621	0.0018
279.98	228.5	0.1461	0.0017
279.98	260.6	0.1651	0.0017
279.98	367.3	0.23	0.0017
279.98	426.5	0.266	0.0017
279.98	477.5	0.2946	0.0017
299.98	139.9	0.0586	0.0014
299.98	341.4	0.1372	0.0013
299.98	387.9	0.1553	0.0014
299.98	561.7	0.2164	0.0014
299.98	659.9	0.2506	0.0014
299.98	742.6	0.278	0.0014
319.98	192	0.0544	0.0013
319.98	473.1	0.1276	0.0013
319.98	539.6	0.1446	0.0013
319.98	787.5	0.2017	0.0013
319.98	932.2	0.2338	0.0013
319.98	1052.2	0.2596	0.0013
339.97	246.5	0.0506	0.0013
339.97	610.5	0.1189	0.0013
339.97	698.4	0.1346	0.0013
339.97	1024.6	0.188	0.0013
339.97	1218.2	0.2177	0.0013

System: butane + 1-butyl-3-methylimidazolium bis(trifluoromethylsulfonyl)imide; phases: Liquid, Gas
Property: Mole fraction of butane (Liquid); method: Phase equilibration
Temperature, K	Pressure, kPa	Mole fraction of butane	uncertainty
280	33.4	0.0305	0.0021
280	47.3	0.044	0.0024
280	59.3	0.0612	0.0035
280	103.7	0.1409	0.0036
300	48.3	0.0291	0.0014
300	70.1	0.0418	0.0016
300	87.9	0.0586	0.002
300	164.4	0.1358	0.0021
320	70.1	0.0271	0.0011
320	99.8	0.0393	0.0013
320	124.6	0.0555	0.0015
320	246.7	0.1295	0.0014
340	94.9	0.0252	0.001
340	136.3	0.0364	0.0011
340	170.4	0.052	0.0013
340	304.1	0.1262	0.0014

System: 1-butene + 1-butyl-3-methylimidazolium bis(trifluoromethylsulfonyl)imide; phases: Liquid, Gas
Property: Mole fraction of 1-butene (Liquid); method: Phase equilibration
Temperature, K	Pressure, kPa	Mole fraction of 1-butene	uncertainty
280	21	0.0328	0.0034
280	39.4	0.064	0.0037
280	76	0.134	0.0039
280	92.4	0.1663	0.0039
300	32.7	0.0317	0.002
300	64	0.0617	0.002
300	130.1	0.1294	0.0022
300	161.2	0.1608	0.0022
320	50.4	0.0301	0.0014
320	98.1	0.0587	0.0014
320	206	0.1234	0.0014
320	256.5	0.1536	0.0014
340	71.4	0.0284	0.0011
340	140	0.0554	0.0011
340	286.7	0.1178	0.0012
340	351.1	0.1475	0.0012
