Measured thermophysical data. Excess Molar Volumes and Viscosity Deviations of Binary Liquid Mixtures of 1,3-Dioxolane and 1,4-Dioxane with Butyl Acetate, Butyric Acid, Butylamine, and 2-Butanone at 298.15 K
Source: J. Chem. Eng. Data, 2006, 10.1021/je0504109
Compound 1: 1,3-dioxolane, C3H6O2, InChI=1S/C3H6O2/c1-2-5-3-4-1/h1-3H2
Compound 2: 1,4-dioxane, C4H8O2, InChI=1S/C4H8O2/c1-2-6-4-3-5-1/h1-4H2
Compound 3: butyl ethanoate, C6H12O2, InChI=1S/C6H12O2/c1-3-4-5-8-6(2)7/h3-5H2,1-2H3
Compound 4: butanoic acid, C4H8O2, InChI=1S/C4H8O2/c1-2-3-4(5)6/h2-3H2,1H3,(H,5,6)
Compound 5: 1-butanamine, C4H11N, InChI=1S/C4H11N/c1-2-3-4-5/h2-5H2,1H3
Compound 6: butanone, C4H8O, InChI=1S/C4H8O/c1-3-4(2)5/h3H2,1-2H3

System: 1,3-dioxolane; phases: Liquid
Property: Viscosity, Pa*s (Liquid); method: CAPTUB:UFactor:2
Pressure, kPa	Temperature, K	Viscosity, Pa*s	uncertainty
101	298.15	0.000531	1e-05

System: 1,3-dioxolane; phases: Liquid
Property: Mass density, kg/m3 (Liquid); method: PYCNOM:UFactor:2
Pressure, kPa	Temperature, K	Mass density, kg/m3	uncertainty
101	298.15	1057.1	0.9

System: 1,4-dioxane; phases: Liquid
Property: Viscosity, Pa*s (Liquid); method: CAPTUB:UFactor:2
Pressure, kPa	Temperature, K	Viscosity, Pa*s	uncertainty
101	298.15	0.001196	2e-05

System: 1,4-dioxane; phases: Liquid
Property: Mass density, kg/m3 (Liquid); method: PYCNOM:UFactor:2
Pressure, kPa	Temperature, K	Mass density, kg/m3	uncertainty
101	298.15	1026.5	0.8

System: butyl ethanoate; phases: Liquid
Property: Viscosity, Pa*s (Liquid); method: CAPTUB::UFactor:2
Pressure, kPa	Temperature, K	Viscosity, Pa*s	uncertainty
101	298.15	0.000668	1.2e-05

System: butyl ethanoate; phases: Liquid
Property: Mass density, kg/m3 (Liquid); method: PYCNOM::UFactor:2
Pressure, kPa	Temperature, K	Mass density, kg/m3	uncertainty
101	298.15	874.4	0.7

System: butanoic acid; phases: Liquid
Property: Viscosity, Pa*s (Liquid); method: CAPTUB::UFactor:2
Pressure, kPa	Temperature, K	Viscosity, Pa*s	uncertainty
101	298.15	0.001396	2.3e-05

System: butanoic acid; phases: Liquid
Property: Mass density, kg/m3 (Liquid); method: PYCNOM::UFactor:2
Pressure, kPa	Temperature, K	Mass density, kg/m3	uncertainty
101	298.15	952.8	0.8

System: 1-butanamine; phases: Liquid
Property: Viscosity, Pa*s (Liquid); method: CAPTUB::UFactor:2
Pressure, kPa	Temperature, K	Viscosity, Pa*s	uncertainty
101	298.15	0.000493	9e-06

System: 1-butanamine; phases: Liquid
Property: Mass density, kg/m3 (Liquid); method: PYCNOM::UFactor:2
Pressure, kPa	Temperature, K	Mass density, kg/m3	uncertainty
101	298.15	731.9	0.6

System: butanone; phases: Liquid
Property: Viscosity, Pa*s (Liquid); method: CAPTUB::UFactor:2
Pressure, kPa	Temperature, K	Viscosity, Pa*s	uncertainty
101	298.15	0.000373	7e-06

System: butanone; phases: Liquid
Property: Mass density, kg/m3 (Liquid); method: PYCNOM::UFactor:2
Pressure, kPa	Temperature, K	Mass density, kg/m3	uncertainty
101	298.15	798.1	0.6

System: butanone + 1,3-dioxolane; phases: Liquid
Fixed: Pressure, kPa = 101
Fixed: Temperature, K = 298.15
Property: Viscosity, Pa*s (Liquid); method: CAPTUB:UFactor:2
Mole fraction of 1,3-dioxolane	Viscosity, Pa*s	uncertainty
0	0.000373	7e-06
0.0976	0.000384	8e-06
0.1957	0.000397	8e-06
0.2944	0.000411	8e-06
0.3935	0.000426	8e-06
0.4933	0.000441	9e-06
0.5935	0.000456	9e-06
0.6943	0.000473	9e-06
0.7956	0.000491	9e-06
0.8975	0.00051	1e-05
1	0.000531	1e-05

System: butanone + 1,3-dioxolane; phases: Liquid
Fixed: Pressure, kPa = 101
Fixed: Temperature, K = 298.15
Property: Mass density, kg/m3 (Liquid); method: PYCNOM:UFactor:2
Mole fraction of 1,3-dioxolane	Mass density, kg/m3	uncertainty
0	798.1	0.6
0.0976	818.9	0.6
0.1957	840.5	0.7
0.2944	863.1	0.7
0.3935	886.8	0.7
0.4933	911.8	0.7
0.5935	938.1	0.8
0.6943	965.5	0.8
0.7956	994.2	0.8
0.8975	1024.5	0.8
1	1057.1	0.9

System: butanoic acid + 1,3-dioxolane; phases: Liquid
Fixed: Pressure, kPa = 101
Fixed: Temperature, K = 298.15
Property: Viscosity, Pa*s (Liquid); method: CAPTUB:UFactor:2
Mole fraction of 1,3-dioxolane	Viscosity, Pa*s	uncertainty
0	0.001396	2.3e-05
0.1167	0.001297	2.1e-05
0.2292	0.001202	2e-05
0.3376	0.001111	1.9e-05
0.4422	0.001023	1.7e-05
0.5432	0.000938	1.6e-05
0.6408	0.000854	1.5e-05
0.7351	0.00077	1.3e-05
0.8263	0.000688	1.2e-05
0.9146	0.000608	1.1e-05
1	0.000531	1e-05

System: butanoic acid + 1,3-dioxolane; phases: Liquid
Fixed: Pressure, kPa = 101
Fixed: Temperature, K = 298.15
Property: Mass density, kg/m3 (Liquid); method: PYCNOM:UFactor:2
Mole fraction of 1,3-dioxolane	Mass density, kg/m3	uncertainty
0	952.8	0.8
0.1167	963.1	0.8
0.2292	973.7	0.8
0.3376	984.3	0.8
0.4422	995.3	0.8
0.5432	1006.1	0.8
0.6408	1016.9	0.8
0.7351	1027.2	0.8
0.8263	1037.4	0.8
0.9146	1047.3	0.9
1	1057.1	0.9

System: butyl ethanoate + 1,3-dioxolane; phases: Liquid
Fixed: Pressure, kPa = 101
Fixed: Temperature, K = 298.15
Property: Viscosity, Pa*s (Liquid); method: CAPTUB:UFactor:2
Mole fraction of 1,3-dioxolane	Viscosity, Pa*s	uncertainty
0	0.000668	1.2e-05
0.1484	0.000621	1.1e-05
0.2816	0.000599	1.1e-05
0.4019	0.000588	1.1e-05
0.5111	0.000583	1.1e-05
0.6106	0.000577	1.1e-05
0.7017	0.000571	1e-05
0.7853	0.000565	1e-05
0.8625	0.000556	1e-05
0.9338	0.000544	1e-05
1	0.000531	1e-05

System: butyl ethanoate + 1,3-dioxolane; phases: Liquid
Fixed: Pressure, kPa = 101
Fixed: Temperature, K = 298.15
Property: Mass density, kg/m3 (Liquid); method: PYCNOM:UFactor:2
Mole fraction of 1,3-dioxolane	Mass density, kg/m3	uncertainty
0	874.4	0.7
0.1484	890.7	0.7
0.2816	906.9	0.7
0.4019	923.3	0.7
0.5111	940.3	0.8
0.6106	957.8	0.8
0.7017	976.1	0.8
0.7853	995.2	0.8
0.8625	1015	0.8
0.9338	1035.6	0.9
1	1057.1	0.9

System: 1-butanamine + 1,3-dioxolane; phases: Liquid
Fixed: Pressure, kPa = 101
Fixed: Temperature, K = 298.15
Property: Viscosity, Pa*s (Liquid); method: CAPTUB:UFactor:2
Mole fraction of 1,3-dioxolane	Viscosity, Pa*s	uncertainty
0	0.000493	9e-06
0.1001	0.000477	9e-06
0.2001	0.000463	9e-06
0.3002	0.000458	9e-06
0.4002	0.000455	9e-06
0.5002	0.000456	9e-06
0.6002	0.000464	9e-06
0.7002	0.000478	9e-06
0.8001	0.000496	9e-06
0.9001	0.000513	1e-05
1	0.000531	1e-05

System: 1-butanamine + 1,3-dioxolane; phases: Liquid
Fixed: Pressure, kPa = 101
Fixed: Temperature, K = 298.15
Property: Mass density, kg/m3 (Liquid); method: PYCNOM:UFactor:2
Mole fraction of 1,3-dioxolane	Mass density, kg/m3	uncertainty
0	731.9	0.6
0.1001	755.1	0.6
0.2001	779.6	0.6
0.3002	805.8	0.6
0.4002	833.8	0.7
0.5002	864.1	0.7
0.6002	896.8	0.7
0.7002	932.1	0.8
0.8001	970.3	0.8
0.9001	1011.8	0.8
1	1057.1	0.9

System: butanone + 1,4-dioxane; phases: Liquid
Fixed: Pressure, kPa = 101
Fixed: Temperature, K = 298.15
Property: Viscosity, Pa*s (Liquid); method: CAPTUB:UFactor:2
Mole fraction of 1,4-dioxane	Viscosity, Pa*s	uncertainty
0	0.000373	7e-06
0.0833	0.000391	8e-06
0.1698	0.000411	8e-06
0.2597	0.000436	8e-06
0.353	0.000464	9e-06
0.4501	0.000512	1e-05
0.5511	0.000576	1.1e-05
0.6563	0.00065	1.2e-05
0.766	0.000751	1.3e-05
0.8805	0.000901	1.5e-05
1	0.001196	2e-05

System: butanone + 1,4-dioxane; phases: Liquid
Fixed: Pressure, kPa = 101
Fixed: Temperature, K = 298.15
Property: Mass density, kg/m3 (Liquid); method: PYCNOM:UFactor:2
Mole fraction of 1,4-dioxane	Mass density, kg/m3	uncertainty
0	798.1	0.6
0.0833	817	0.6
0.1698	836.5	0.7
0.2597	856.8	0.7
0.353	877.9	0.7
0.4501	900.1	0.7
0.5511	923.3	0.7
0.6563	947.2	0.8
0.766	972.2	0.8
0.8805	998.5	0.8
1	1026.5	0.8

System: butanoic acid + 1,4-dioxane; phases: Liquid
Fixed: Pressure, kPa = 101
Fixed: Temperature, K = 298.15
Property: Viscosity, Pa*s (Liquid); method: CAPTUB:UFactor:2
Mole fraction of 1,4-dioxane	Viscosity, Pa*s	uncertainty
0	0.001396	2.3e-05
0.1	0.001504	2.5e-05
0.2	0.00157	2.6e-05
0.3	0.001587	2.6e-05
0.4	0.001572	2.6e-05
0.5	0.001507	2.5e-05
0.6	0.001443	2.4e-05
0.7	0.001362	2.2e-05
0.8	0.001293	2.1e-05
0.9	0.001241	2.1e-05
1	0.001196	2e-05

System: butanoic acid + 1,4-dioxane; phases: Liquid
Fixed: Pressure, kPa = 101
Fixed: Temperature, K = 298.15
Property: Mass density, kg/m3 (Liquid); method: PYCNOM:UFactor:2
Mole fraction of 1,4-dioxane	Mass density, kg/m3	uncertainty
0	952.8	0.8
0.1	961.7	0.8
0.2	970.3	0.8
0.3	978.4	0.8
0.4	986.1	0.8
0.5	993.4	0.8
0.6	1000.2	0.8
0.7	1006.8	0.8
0.8	1013.1	0.8
0.9	1019.4	0.8
1	1026.5	0.8

System: butyl ethanoate + 1,4-dioxane; phases: Liquid
Fixed: Pressure, kPa = 101
Fixed: Temperature, K = 298.15
Property: Viscosity, Pa*s (Liquid); method: CAPTUB:UFactor:2
Mole fraction of 1,4-dioxane	Viscosity, Pa*s	uncertainty
0	0.000668	1.2e-05
0.1278	0.000682	1.2e-05
0.2479	0.000692	1.2e-05
0.361	0.000708	1.3e-05
0.4678	0.000739	1.3e-05
0.5687	0.000779	1.4e-05
0.6641	0.000822	1.4e-05
0.7547	0.000866	1.5e-05
0.8406	0.000939	1.6e-05
0.9223	0.001035	1.7e-05
1	0.001196	2e-05

System: butyl ethanoate + 1,4-dioxane; phases: Liquid
Fixed: Pressure, kPa = 101
Fixed: Temperature, K = 298.15
Property: Mass density, kg/m3 (Liquid); method: PYCNOM:UFactor:2
Mole fraction of 1,4-dioxane	Mass density, kg/m3	uncertainty
0	874.4	0.7
0.1278	887.5	0.7
0.2479	901	0.7
0.361	914.9	0.7
0.4678	929.2	0.7
0.5687	944.1	0.8
0.6641	959.4	0.8
0.7547	975.3	0.8
0.8406	991.8	0.8
0.9223	1008.9	0.8
1	1026.5	0.8

System: 1-butanamine + 1,4-dioxane; phases: Liquid
Fixed: Pressure, kPa = 101
Fixed: Temperature, K = 298.15
Property: Viscosity, Pa*s (Liquid); method: CAPTUB:UFactor:2
Mole fraction of 1,4-dioxane	Viscosity, Pa*s	uncertainty
0	0.000493	9e-06
0.0855	0.000509	1e-05
0.1738	0.000524	1e-05
0.265	0.000541	1e-05
0.3594	0.00056	1e-05
0.4569	0.00059	1.1e-05
0.5579	0.000637	1.1e-05
0.6625	0.000699	1.2e-05
0.7709	0.000792	1.4e-05
0.8834	0.000941	1.6e-05
1	0.001196	2e-05

System: 1-butanamine + 1,4-dioxane; phases: Liquid
Fixed: Pressure, kPa = 101
Fixed: Temperature, K = 298.15
Property: Mass density, kg/m3 (Liquid); method: PYCNOM:UFactor:2
Mole fraction of 1,4-dioxane	Mass density, kg/m3	uncertainty
0	731.9	0.6
0.0855	753.4	0.6
0.1738	776.1	0.6
0.265	800.1	0.6
0.3594	825.8	0.7
0.4569	853.3	0.7
0.5579	882.8	0.7
0.6625	914.7	0.7
0.7709	949.2	0.8
0.8834	986.4	0.8
1	1026.5	0.8
