Measured thermophysical data. Vapor Pressure Measurements of Ethyl Fluoride
Source: J. Chem. Eng. Data, 2005, 10.1021/je050054u
Compound 1: fluoroethane, C2H5F, InChI=1S/C2H5F/c1-2-3/h2H2,1H3, purity 99.74%

System: fluoroethane; phases: Liquid, Gas
Property: Vapor or sublimation pressure, kPa (Liquid); method: Closed cell (Static) method
Temperature, K	Vapor or sublimation pressure, kPa	uncertainty
235.69	101.5	3
235.74	101.7	3
235.79	101.9	3
235.84	102.2	3
235.89	102.4	3
235.94	102.6	3
236	102.9	3
236.09	103.4	3
237.11	108.3	3
238.07	113.3	3
240.11	124.1	3
242.12	135.4	3
244.1	147.6	3
245.09	153.8	3
247.09	167.1	3
249.1	181.5	3
251.07	196.3	3
253.11	212.7	3
255.11	229.7	3
257.13	247.8	3
259.11	267.6	3
261.11	288	3
263.12	309.5	3
264.11	320.7	3
265.1	332.4	3
266.12	344.5	3
267.13	356.6	3
268.13	369.1	3.1
269.13	382	3.1
270.13	395.3	3.1
271.13	408.8	3.1
272.15	422.9	3.1
273.12	436.7	3.1
274.11	451.2	3.1
275.11	466	3.1
276.14	481.8	3.1
277.14	497.5	3.1
278.17	513.9	3.1
279.14	529.9	3.1
280.13	546.6	3.1
281.13	563.9	3.1
282.16	581.9	3.1
283.14	599.6	3.1
285.18	636.5	3.1
287.13	675.1	3.2
288.13	695.2	3.2
290.14	737.5	3.2
292.01	777.9	3.2
294.03	824.2	3.2
296.04	871.8	3.3
298.07	921.9	3.3
300.05	972.9	3.3
302	1024.9	3.4
304.03	1081.4	3.4
306.12	1141.9	3.4
308.08	1200.9	3.5
310.32	1270.6	3.5
312.19	1330.5	3.6
314.18	1398.1	3.6
316.32	1472.8	3.7
316.33	1473.6	3.7
318.17	1539.8	3.8
320.14	1613.2	3.8
322.13	1690.2	3.9
324.12	1770.2	4
326.11	1852.2	4
328.13	1938.9	4.1
330.15	2027	4.2
332.15	2119.3	4.3
333.15	2167.4	4.4
334.16	2215.1	4.4
335.15	2263.9	4.5
336.15	2313.2	4.5
337.15	2363.2	4.6
338.16	2414.5	4.6
339.15	2465.8	4.7
340.16	2518.5	4.8
341.15	2572	4.8
342.15	2626.3	4.9
343.15	2681.7	4.9
344.14	2737.4	5
345.15	2794.3	5.1
346.15	2852.2	5.1
347.15	2910.8	5.2
348.15	2970.7	5.3
349.15	3030.8	5.3
350.15	3092.2	5.4
351.15	3154.5	5.5
352.15	3218	5.6
353.14	3282	5.7
354.15	3347.6	5.7
355.15	3414.2	5.8
356.15	3481.2	5.9
357.14	3549.5	6
358.14	3619.1	6.1
359.14	3689.1	6.2
360.15	3761.3	6.3
361.15	3834	6.3
362.16	3908	6.4
363.14	3982.2	6.5
364.14	4058.4	6.6
364.15	4060.2	6.6
365.14	4138	6.7
366.15	4216.8	6.8
367.15	4295.8	6.9
368.16	4376.8	7
369.14	4460.1	7.2
370.14	4543.5	7.3
371.14	4627.6	7.4
372.14	4713.9	7.5
