Measured thermophysical data. Vapor Liquid Equilibrium for Six Binary Systems of C4-Hydrocarbons + 2-Propanone
Source: J. Chem. Eng. Data, 2006, 10.1021/je050403k
Compound 1: acetone, C3H6O, InChI=1S/C3H6O/c1-3(2)4/h1-2H3, purity 99.5%
Compound 2: butane, C4H10, InChI=1S/C4H10/c1-3-4-2/h3-4H2,1-2H3, purity 99.95%
Compound 3: 2-methylpropane, C4H10, InChI=1S/C4H10/c1-4(2)3/h4H,1-3H3, purity 99.95%
Compound 4: (Z)-2-butene, C4H8, InChI=1S/C4H8/c1-3-4-2/h3-4H,1-2H3/b4-3-, purity 99.4%
Compound 5: 2-methylpropene, C4H8, InChI=1S/C4H8/c1-4(2)3/h1H2,2-3H3, purity 99.8%
Compound 6: (E)-2-butene, C4H8, InChI=1S/C4H8/c1-3-4-2/h3-4H,1-2H3/b4-3+, purity 99.4%
Compound 7: 1-butene, C4H8, InChI=1S/C4H8/c1-3-4-2/h3H,1,4H2,2H3, purity 99.6%

System: acetone; phases: Liquid, Gas
Property: Vapor or sublimation pressure, kPa (Liquid); method: CCELL:UFactor:2
Temperature, K	Vapor or sublimation pressure, kPa	uncertainty
364.51	297.1	2.1
364.51	294.3	2.1
364.51	296.4	2.1
364.52	296.8	2.1
365.43	302.56	2.13

System: butane; phases: Liquid, Gas
Property: Vapor or sublimation pressure, kPa (Liquid); method: CCELL:UFactor:2
Temperature, K	Vapor or sublimation pressure, kPa	uncertainty
364.51	1284.5	8.9

System: 2-methylpropane; phases: Liquid, Gas
Property: Vapor or sublimation pressure, kPa (Liquid); method: CCELL:UFactor:2
Temperature, K	Vapor or sublimation pressure, kPa	uncertainty
364.5	1685.6	11.6

System: (Z)-2-butene; phases: Liquid, Gas
Property: Vapor or sublimation pressure, kPa (Liquid); method: CCELL:UFactor:2
Temperature, K	Vapor or sublimation pressure, kPa	uncertainty
365.43	1213.01	8.5

System: 2-methylpropene; phases: Liquid, Gas
Property: Vapor or sublimation pressure, kPa (Liquid); method: CCELL:UFactor:2
Temperature, K	Vapor or sublimation pressure, kPa	uncertainty
364.51	1546.2	10.7

System: (E)-2-butene; phases: Liquid, Gas
Property: Vapor or sublimation pressure, kPa (Liquid); method: CCELL:UFactor:2
Temperature, K	Vapor or sublimation pressure, kPa	uncertainty
364.5	1269.2	8.9

System: 1-butene; phases: Liquid, Gas
Property: Vapor or sublimation pressure, kPa (Liquid); method: CCELL:UFactor:2
Temperature, K	Vapor or sublimation pressure, kPa	uncertainty
364.51	1510.5	10.5

System: acetone + butane; phases: Liquid, Gas
Property: Vapor or sublimation pressure, kPa (Liquid); method: CCELL:UFactor:2
Temperature, K	Mole fraction of butane	Vapor or sublimation pressure, kPa	uncertainty
364.5	0.4954	1065.7	7.4
364.5	0.5462	1099	7.6
364.5	0.8459	1250.5	8.6
364.5	0.8952	1268.4	8.8
364.51	0	297.1	2.1
364.51	0.0305	393	2.8
364.51	0.0481	443.7	3.1
364.51	0.0935	558.6	3.9
364.51	0.1408	659	4.6
364.51	0.1889	744.9	5.2
364.51	0.2381	818.4	5.7
364.51	0.289	883	6.1
364.51	0.3919	986.8	6.9
364.51	0.4439	1029.3	7.1
364.51	0.496	1067	7.4
364.51	0.6943	1181.8	8.2
364.51	0.7446	1206.4	8.3
364.51	0.7951	1229.7	8.5
364.51	0.9485	1282	8.9
364.51	0.9687	1284.8	8.9
364.51	0.9781	1285.4	8.9
364.51	0.9884	1285.4	8.9
364.51	1	1284.5	8.9
364.52	0.3401	938.4	6.5
364.52	0.6446	1156.2	8
364.53	0.5954	1129	7.8

System: acetone + 2-methylpropane; phases: Liquid, Gas
Property: Vapor or sublimation pressure, kPa (Liquid); method: CCELL:UFactor:2
Temperature, K	Mole fraction of 2-methylpropane	Vapor or sublimation pressure, kPa	uncertainty
364.5	0.0332	430	3
364.5	0.289	1063.9	7.4
364.5	0.3407	1138.8	7.9
364.5	0.8444	1592.6	11
364.5	0.8972	1629.4	11.3
364.5	0.9798	1678	11.6
364.5	1	1685.6	11.6
364.51	0	294.3	2.1
364.51	0.0159	361.4	2.5
364.51	0.05	492	3.4
364.51	0.0946	639.1	4.5
364.51	0.1888	880	6.1
364.51	0.2386	978.9	6.8
364.51	0.3916	1203	8.3
364.51	0.4448	1262.4	8.8
364.51	0.4877	1305.5	9
364.51	0.4977	1313	9.1
364.51	0.5947	1399.4	9.7
364.51	0.6437	1439.8	10
364.51	0.6939	1479.4	10.2
364.51	0.7437	1517.7	10.5
364.51	0.7934	1555.3	10.7
364.51	0.9492	1662.5	11.5
364.51	0.9697	1673.4	11.6
364.51	0.9898	1682.1	11.6
364.52	0.1412	768.9	5.4
364.52	0.5462	1358	9.4

System: acetone + 1-butene; phases: Liquid, Gas
Property: Vapor or sublimation pressure, kPa (Liquid); method: CCELL:UFactor:2
Temperature, K	Mole fraction of 1-butene	Vapor or sublimation pressure, kPa	uncertainty
364.51	0.0148	336.4	2.4
364.51	0.0321	380.6	2.7
364.51	0.0501	425	3
364.51	0.096	529.4	3.7
364.51	0.242	797.9	5.6
364.51	0.3431	940.7	6.6
364.51	0.394	1002.7	7
364.51	0.6447	1245.4	8.7
364.51	0.694	1285.8	8.9
364.51	0.7443	1325.5	9.2
364.51	1	1510.5	10.5
364.52	0	296.8	2.1
364.52	0.1434	626.7	4.4
364.52	0.1916	714.9	5
364.52	0.2922	872.5	6.1
364.52	0.445	1059.8	7.4
364.52	0.4967	1112.9	7.8
364.52	0.4979	1113.5	7.8
364.52	0.5466	1159.8	8.1
364.52	0.5951	1203.3	8.4
364.52	0.7939	1364.1	9.5
364.52	0.8436	1401.9	9.7
364.52	0.8955	1440.1	10
364.52	0.9686	1491.4	10.4
364.52	0.9789	1498	10.4
364.53	0.9485	1478	10.3
364.53	0.9893	1505	10.5

System: acetone + (Z)-2-butene; phases: Liquid, Gas
Property: Vapor or sublimation pressure, kPa (Liquid); method: CCELL:UFactor:2
Temperature, K	Mole fraction of (Z)-2-butene	Vapor or sublimation pressure, kPa	uncertainty
365.38	0.8962	1174.81	8.23
365.43	0	302.56	2.13
365.43	0.8467	1153.21	8.08
365.43	0.8836	1170.21	8.2
365.43	0.9479	1196.61	8.39
365.43	0.9677	1203.51	8.44
365.43	1	1213.01	8.5
365.44	0.7954	1127.71	7.9
365.44	0.9883	1209.61	8.48
365.44	0.9979	1212.01	8.5
365.45	0.0347	372.65	2.62
365.45	0.0477	397.65	2.79
365.45	0.6962	1074.42	7.53
365.45	0.7455	1101.71	7.72
365.46	0.1029	496.45	3.48
365.46	0.1505	571.74	4.01
365.46	0.2473	703.24	4.93
365.46	0.2969	760.43	5.32
365.46	0.3467	812.53	5.69
365.46	0.3977	860.73	6.03
365.46	0.6465	1045.02	7.32
365.47	0.1983	640.24	4.49
365.47	0.448	904.13	6.33
365.48	0.4982	943.82	6.61
365.48	0.5969	1014.12	7.1
365.49	0.4985	945.52	6.62
365.49	0.5476	981.22	6.87

System: acetone + 2-methylpropene; phases: Liquid, Gas
Property: Vapor or sublimation pressure, kPa (Liquid); method: CCELL:UFactor:2
Temperature, K	Mole fraction of 2-methylpropene	Vapor or sublimation pressure, kPa	uncertainty
364.49	0.9676	1522.3	10.5
364.5	0.1	532	3.7
364.5	0.1465	625.8	4.4
364.5	0.1915	708.4	4.9
364.5	0.2931	869.4	6.1
364.5	0.3439	939	6.5
364.5	0.3955	1003.9	7
364.5	0.4981	1118.4	7.8
364.5	0.5469	1167	8.1
364.5	0.5956	1213.1	8.4
364.5	0.6443	1257.3	8.7
364.5	0.6937	1300.2	9
364.5	0.7438	1342.3	9.3
364.5	0.7934	1383.3	9.6
364.5	0.8444	1425	9.9
364.5	0.8963	1466.8	10.1
364.5	0.9473	1506.9	10.4
364.5	0.9808	1532.3	10.6
364.5	0.9884	1537.7	10.6
364.51	0	296.4	2.1
364.51	0.036	387.1	2.7
364.51	0.0518	424.8	3
364.51	0.2436	795.1	5.5
364.51	0.446	1062.4	7.4
364.51	0.4973	1116.9	7.8
364.51	1	1546.2	10.7

System: acetone + (E)-2-butene; phases: Liquid, Gas
Property: Vapor or sublimation pressure, kPa (Liquid); method: CCELL:UFactor:2
Temperature, K	Mole fraction of (E)-2-butene	Vapor or sublimation pressure, kPa	uncertainty
364.5	1	1269.2	8.9
364.51	0	297.1	2.1
364.51	0.0332	372	2.6
364.51	0.0511	409.5	2.9
364.51	0.0982	501	3.5
364.51	0.1456	583.2	4.1
364.51	0.1946	658.8	4.6
364.51	0.2926	787.3	5.5
364.51	0.3435	843.8	5.9
364.51	0.4459	941.2	6.6
364.51	0.497	983.4	6.9
364.51	0.4981	983.4	6.9
364.51	0.5473	1020.7	7.1
364.51	0.5959	1054.9	7.4
364.51	0.795	1176.2	8.2
364.51	0.845	1202.9	8.4
364.51	0.8956	1228.2	8.6
364.51	0.9453	1250.6	8.8
364.51	0.9684	1259.5	8.8
364.51	0.9793	1263.3	8.9
364.51	0.9888	1266.1	8.9
364.52	0.2437	726.8	5.1
364.52	0.3946	894.7	6.3
364.52	0.6455	1087.8	7.6
364.52	0.695	1118.6	7.8
364.52	0.7453	1148.2	8
