Measured thermophysical data. Density and Viscosity of Several Aldehydes Fragrance Compounds in Their Binary Mixtures with Ethanol at (298.15 K, 308.15 K, and 318.15 K)
Source: J. Chem. Eng. Data, 2005, 10.1021/je0502344
Compound 1: ethanol, C2H6O, InChI=1S/C2H6O/c1-2-3/h3H,2H2,1H3
Compound 2: hexanal, C6H12O, InChI=1S/C6H12O/c1-2-3-4-5-6-7/h6H,2-5H2,1H3
Compound 3: octanal, C8H16O, InChI=1S/C8H16O/c1-2-3-4-5-6-7-8-9/h8H,2-7H2,1H3
Compound 4: nonanal, C9H18O, InChI=1S/C9H18O/c1-2-3-4-5-6-7-8-9-10/h9H,2-8H2,1H3
Compound 5: decanal, C10H20O, InChI=1S/C10H20O/c1-2-3-4-5-6-7-8-9-10-11/h10H,2-9H2,1H3

System: ethanol; phases: Liquid
Fixed: Pressure, kPa = 101.325
Property: Viscosity, Pa*s (Liquid); method: SPHERE::UFactor:4
Temperature, K	Viscosity, Pa*s	uncertainty
298.15	0.001088	3.4e-05
308.15	0.000897	2.8e-05
318.15	0.000767	2.4e-05

System: ethanol; phases: Liquid
Fixed: Pressure, kPa = 101.325
Property: Mass density, kg/m3 (Liquid); method: PYCNOM:UFactor:16
Temperature, K	Mass density, kg/m3	uncertainty
298.15	785.08	2.86
308.15	778.09	3.2
318.15	763.91	3.51

System: hexanal; phases: Liquid
Fixed: Pressure, kPa = 101.325
Property: Viscosity, Pa*s (Liquid); method: SPHERE::UFactor:4
Temperature, K	Viscosity, Pa*s	uncertainty
298.15	0.000805	2.5e-05
308.15	0.000716	2.3e-05
318.15	0.000639	2e-05

System: hexanal; phases: Liquid
Fixed: Pressure, kPa = 101.325
Property: Mass density, kg/m3 (Liquid); method: PYCNOM::UFactor:16
Temperature, K	Mass density, kg/m3	uncertainty
298.15	833.12	3.12
308.15	818.94	3.41
318.15	804.31	3.71

System: octanal; phases: Liquid
Fixed: Pressure, kPa = 101.325
Property: Viscosity, Pa*s (Liquid); method: SPHERE::UFactor:4
Temperature, K	Viscosity, Pa*s	uncertainty
298.15	0.0012	3.8e-05
308.15	0.001074	3.4e-05
318.15	0.000965	3e-05

System: octanal; phases: Liquid
Fixed: Pressure, kPa = 101.325
Property: Mass density, kg/m3 (Liquid); method: PYCNOM::UFactor:16
Temperature, K	Mass density, kg/m3	uncertainty
298.15	821.07	3.05
308.15	807.34	3.35
318.15	793.85	3.66

System: nonanal; phases: Liquid
Fixed: Pressure, kPa = 101.325
Property: Viscosity, Pa*s (Liquid); method: SPHERE::UFactor:4
Temperature, K	Viscosity, Pa*s	uncertainty
298.15	0.001392	4.4e-05
308.15	0.001251	3.9e-05
318.15	0.001127	3.5e-05

System: nonanal; phases: Liquid
Fixed: Pressure, kPa = 101.325
Property: Mass density, kg/m3 (Liquid); method: PYCNOM:UFactor:16
Temperature, K	Mass density, kg/m3	uncertainty
298.15	831.04	4.98
308.15	818.01	5.14
318.15	804.72	5.31

System: decanal; phases: Liquid
Fixed: Pressure, kPa = 101.325
Property: Viscosity, Pa*s (Liquid); method: SPHERE::UFactor:4
Temperature, K	Viscosity, Pa*s	uncertainty
298.15	0.00156	4.9e-05
308.15	0.001412	4.4e-05
318.15	0.001281	4e-05

System: decanal; phases: Liquid
Fixed: Pressure, kPa = 101.325
Property: Mass density, kg/m3 (Liquid); method: PYCNOM:UFactor:16
Temperature, K	Mass density, kg/m3	uncertainty
298.15	801.24	10.39
308.15	789.05	10.47
318.15	776.18	10.55

System: ethanol + hexanal; phases: Liquid
Fixed: Pressure, kPa = 101.325
Property: Viscosity, Pa*s (Liquid); method: SPHERE:UFactor:4
Temperature, K	Mole fraction of hexanal	Viscosity, Pa*s	uncertainty
298.15	0	0.001088	3.4e-05
298.15	0.1094	0.001053	3.3e-05
298.15	0.2049	0.001023	3.2e-05
298.15	0.3226	0.000987	3.1e-05
298.15	0.4037	0.000963	3e-05
298.15	0.5027	0.000935	2.9e-05
298.15	0.6207	0.000902	2.8e-05
298.15	0.7108	0.000878	2.8e-05
298.15	0.81	0.000852	2.7e-05
298.15	0.9226	0.000824	2.6e-05
298.15	1	0.000805	2.5e-05
308.15	0	0.000897	2.8e-05
308.15	0.1094	0.000875	2.8e-05
308.15	0.2049	0.000857	2.7e-05
308.15	0.3226	0.000834	2.6e-05
308.15	0.4037	0.000819	2.6e-05
308.15	0.5027	0.000801	2.5e-05
308.15	0.6207	0.00078	2.5e-05
308.15	0.7108	0.000764	2.4e-05
308.15	0.81	0.000747	2.4e-05
308.15	0.9226	0.000729	2.3e-05
308.15	1	0.000716	2.3e-05
318.15	0	0.000767	2.4e-05
318.15	0.1094	0.000752	2.4e-05
318.15	0.2049	0.000739	2.3e-05
318.15	0.3226	0.000723	2.3e-05
318.15	0.4037	0.000712	2.2e-05
318.15	0.5027	0.0007	2.2e-05
318.15	0.6207	0.000685	2.2e-05
318.15	0.7108	0.000674	2.1e-05
318.15	0.81	0.000662	2.1e-05
318.15	0.9226	0.000648	2e-05
318.15	1	0.000639	2e-05

System: ethanol + hexanal; phases: Liquid
Fixed: Pressure, kPa = 101.325
Property: Mass density, kg/m3 (Liquid); method: PYCNOM:UFactor:16
Temperature, K	Mole fraction of hexanal	Mass density, kg/m3	uncertainty
298.15	0	785.08	2.86
298.15	0.1094	788	2.87
298.15	0.2049	791.01	2.89
298.15	0.3226	795.33	2.91
298.15	0.4037	798.69	2.93
298.15	0.5027	803.22	2.95
298.15	0.6207	809.24	2.99
298.15	0.7108	814.29	3.01
298.15	0.81	820.3	3.05
298.15	0.9226	827.69	3.09
298.15	1	833.12	3.12
308.15	0	778.09	3.2
308.15	0.1094	780.57	3.21
308.15	0.2049	783.13	3.23
308.15	0.3226	786.81	3.25
308.15	0.4037	789.67	3.26
308.15	0.5027	793.52	3.28
308.15	0.6207	798.64	3.31
308.15	0.7108	802.93	3.33
308.15	0.81	808.04	3.36
308.15	0.9226	814.32	3.39
308.15	1	818.94	3.41
318.15	0	763.91	3.51
318.15	0.1094	766.36	3.52
318.15	0.2049	768.9	3.54
318.15	0.3226	772.53	3.55
318.15	0.4037	775.36	3.57
318.15	0.5027	779.17	3.59
318.15	0.6207	784.23	3.61
318.15	0.7108	788.47	3.63
318.15	0.81	793.53	3.66
318.15	0.9226	799.74	3.69
318.15	1	804.31	3.71

System: ethanol + octanal; phases: Liquid
Fixed: Pressure, kPa = 101.325
Property: Viscosity, Pa*s (Liquid); method: SPHERE:UFactor:4
Temperature, K	Mole fraction of octanal	Viscosity, Pa*s	uncertainty
298.15	0	0.001088	3.4e-05
298.15	0.1077	0.0011	3.5e-05
298.15	0.2019	0.00111	3.5e-05
298.15	0.3178	0.001122	3.5e-05
298.15	0.3977	0.001131	3.6e-05
298.15	0.4952	0.001142	3.6e-05
298.15	0.6115	0.001155	3.6e-05
298.15	0.7003	0.001165	3.7e-05
298.15	0.798	0.001176	3.7e-05
298.15	0.9089	0.001189	3.7e-05
298.15	1	0.0012	3.8e-05
308.15	0	0.000897	2.8e-05
308.15	0.1077	0.000915	2.9e-05
308.15	0.2019	0.00093	2.9e-05
308.15	0.3178	0.00095	3e-05
308.15	0.3977	0.000964	3e-05
308.15	0.4952	0.000981	3.1e-05
308.15	0.6115	0.001001	3.1e-05
308.15	0.7003	0.001018	3.2e-05
308.15	0.798	0.001036	3.3e-05
308.15	0.9089	0.001057	3.3e-05
308.15	1	0.001074	3.4e-05
318.15	0	0.000767	2.4e-05
318.15	0.1077	0.000786	2.5e-05
318.15	0.2019	0.000803	2.5e-05
318.15	0.3178	0.000825	2.6e-05
318.15	0.3977	0.00084	2.6e-05
318.15	0.4952	0.000859	2.7e-05
318.15	0.6115	0.000883	2.8e-05
318.15	0.7003	0.000901	2.8e-05
318.15	0.798	0.000921	2.9e-05
318.15	0.9089	0.000945	3e-05
318.15	1	0.000965	3e-05

System: ethanol + octanal; phases: Liquid
Fixed: Pressure, kPa = 101.325
Property: Mass density, kg/m3 (Liquid); method: PYCNOM:UFactor:16
Temperature, K	Mole fraction of octanal	Mass density, kg/m3	uncertainty
298.15	0	785.08	2.86
298.15	0.1077	787.23	2.87
298.15	0.2019	789.45	2.88
298.15	0.3178	792.62	2.9
298.15	0.3977	795.08	2.91
298.15	0.4952	798.4	2.93
298.15	0.6115	802.81	2.95
298.15	0.7003	806.51	2.97
298.15	0.798	810.9	3
298.15	0.9089	816.3	3.03
298.15	1	821.07	3.05
308.15	0	778.09	3.2
308.15	0.1077	779.83	3.21
308.15	0.2019	781.64	3.22
308.15	0.3178	784.21	3.23
308.15	0.3977	786.22	3.24
308.15	0.4952	788.92	3.26
308.15	0.6115	792.5	3.28
308.15	0.7003	795.5	3.29
308.15	0.798	799.07	3.31
308.15	0.9089	803.46	3.33
308.15	1	807.34	3.35
318.15	0	763.91	3.51
318.15	0.1077	765.7	3.52
318.15	0.2019	767.54	3.53
318.15	0.3178	770.18	3.54
318.15	0.3977	772.23	3.55
318.15	0.4952	774.99	3.56
318.15	0.6115	778.66	3.58
318.15	0.7003	781.74	3.6
318.15	0.798	785.39	3.62
318.15	0.9089	789.88	3.64
318.15	1	793.85	3.66

System: ethanol + nonanal; phases: Liquid
Fixed: Pressure, kPa = 101.325
Property: Viscosity, Pa*s (Liquid); method: SPHERE:UFactor:4
Temperature, K	Mole fraction of nonanal	Viscosity, Pa*s	uncertainty
298.15	0	0.001088	3.4e-05
298.15	0.1034	0.001116	3.5e-05
298.15	0.2039	0.001144	3.6e-05
298.15	0.293	0.001169	3.7e-05
298.15	0.3939	0.001199	3.8e-05
298.15	0.5045	0.001232	3.9e-05
298.15	0.5943	0.00126	4e-05
298.15	0.7116	0.001297	4.1e-05
298.15	0.7855	0.00132	4.1e-05
298.15	0.898	0.001357	4.3e-05
298.15	1	0.001392	4.4e-05
308.15	0	0.000897	2.8e-05
308.15	0.1034	0.000928	2.9e-05
308.15	0.2039	0.00096	3e-05
308.15	0.293	0.000989	3.1e-05
308.15	0.3939	0.001023	3.2e-05
308.15	0.5045	0.001061	3.3e-05
308.15	0.5943	0.001093	3.4e-05
308.15	0.7116	0.001137	3.6e-05
308.15	0.7855	0.001165	3.7e-05
308.15	0.898	0.001209	3.8e-05
308.15	1	0.001251	3.9e-05
318.15	0	0.000767	2.4e-05
318.15	0.1034	0.000798	2.5e-05
318.15	0.2039	0.00083	2.6e-05
318.15	0.293	0.000859	2.7e-05
318.15	0.3939	0.000893	2.8e-05
318.15	0.5045	0.000931	2.9e-05
318.15	0.5943	0.000964	3e-05
318.15	0.7116	0.001009	3.2e-05
318.15	0.7855	0.001038	3.3e-05
318.15	0.898	0.001084	3.4e-05
318.15	1	0.001127	3.5e-05

System: ethanol + nonanal; phases: Liquid
Fixed: Pressure, kPa = 101.325
Property: Mass density, kg/m3 (Liquid); method: PYCNOM:UFactor:16
Temperature, K	Mole fraction of nonanal	Mass density, kg/m3	uncertainty
298.15	0	785.08	2.86
298.15	0.1034	787.7	2.87
298.15	0.2039	790.72	2.89
298.15	0.293	793.79	2.9
298.15	0.3939	797.7	2.92
298.15	0.5045	802.52	2.95
298.15	0.5943	806.85	2.97
298.15	0.7116	813.07	3.01
298.15	0.7855	817.31	3.03
298.15	0.898	824.25	3.07
298.15	1	831.04	3.1
308.15	0	778.09	3.2
308.15	0.1034	780.37	3.21
308.15	0.2039	782.99	3.23
308.15	0.293	785.65	3.24
308.15	0.3939	789.05	3.26
308.15	0.5045	793.24	3.28
308.15	0.5943	797	3.3
308.15	0.7116	802.4	3.33
308.15	0.7855	806.08	3.34
308.15	0.898	812.11	3.38
308.15	1	818.01	3.41
318.15	0	763.91	3.51
318.15	0.1034	766.24	3.52
318.15	0.2039	768.92	3.54
318.15	0.293	771.64	3.55
318.15	0.3939	775.11	3.57
318.15	0.5045	779.4	3.59
318.15	0.5943	783.24	3.6
318.15	0.7116	788.76	3.63
318.15	0.7855	792.53	3.65
318.15	0.898	798.69	3.68
318.15	1	804.72	3.71

System: ethanol + decanal; phases: Liquid
Fixed: Pressure, kPa = 101.325
Property: Viscosity, Pa*s (Liquid); method: SPHERE:UFactor:4
Temperature, K	Mole fraction of decanal	Viscosity, Pa*s	uncertainty
298.15	0	0.001088	3.4e-05
298.15	0.1011	0.001128	3.5e-05
298.15	0.2102	0.001174	3.7e-05
298.15	0.3013	0.001213	3.8e-05
298.15	0.412	0.001262	4e-05
298.15	0.5105	0.001308	4.1e-05
298.15	0.5836	0.001343	4.2e-05
298.15	0.6889	0.001395	4.4e-05
298.15	0.8008	0.001452	4.5e-05
298.15	0.9145	0.001513	4.7e-05
298.15	1	0.00156	4.9e-05
308.15	0	0.000897	2.8e-05
308.15	0.1011	0.000939	3e-05
308.15	0.2102	0.000987	3.1e-05
308.15	0.3013	0.001028	3.2e-05
308.15	0.412	0.001081	3.4e-05
308.15	0.5105	0.001131	3.6e-05
308.15	0.5836	0.001169	3.7e-05
308.15	0.6889	0.001226	3.8e-05
308.15	0.8008	0.00129	4e-05
308.15	0.9145	0.001358	4.3e-05
308.15	1	0.001412	4.4e-05
318.15	0	0.000767	2.4e-05
318.15	0.1011	0.000808	2.5e-05
318.15	0.2102	0.000854	2.7e-05
318.15	0.3013	0.000895	2.8e-05
318.15	0.412	0.000947	3e-05
318.15	0.5105	0.000997	3.1e-05
318.15	0.5836	0.001035	3.3e-05
318.15	0.6889	0.001092	3.4e-05
318.15	0.8008	0.001157	3.6e-05
318.15	0.9145	0.001226	3.8e-05
318.15	1	0.001281	4e-05

System: ethanol + decanal; phases: Liquid
Fixed: Pressure, kPa = 101.325
Property: Mass density, kg/m3 (Liquid); method: PYCNOM:UFactor:16
Temperature, K	Mole fraction of decanal	Mass density, kg/m3	uncertainty
298.15	0	785.08	2.86
298.15	0.1011	785.98	2.86
298.15	0.2102	787.14	2.87
298.15	0.3013	788.25	2.88
298.15	0.412	789.78	2.88
298.15	0.5105	791.31	2.89
298.15	0.5836	792.55	2.9
298.15	0.6889	794.48	2.91
298.15	0.8008	796.73	2.92
298.15	0.9145	799.23	2.94
298.15	1	801.24	2.95
308.15	0	778.09	3.2
308.15	0.1011	778.7	3.2
308.15	0.2102	779.48	3.21
308.15	0.3013	780.24	3.21
308.15	0.412	781.28	3.22
308.15	0.5105	782.32	3.22
308.15	0.5836	783.15	3.23
308.15	0.6889	784.47	3.24
308.15	0.8008	785.99	3.24
308.15	0.9145	787.68	3.25
308.15	1	789.05	3.26
318.15	0	763.91	3.51
318.15	0.1011	764.59	3.51
318.15	0.2102	765.47	3.52
318.15	0.3013	766.32	3.52
318.15	0.412	767.48	3.53
318.15	0.5105	768.64	3.53
318.15	0.5836	769.58	3.54
318.15	0.6889	771.05	3.54
318.15	0.8008	772.76	3.55
318.15	0.9145	774.65	3.56
318.15	1	776.18	3.57
