Measured thermophysical data. Solubilities of Phenylphosphinic Acid, Hydroxymethylphenylphosphinic Acid, p-Methoxyphenylphosphinic Acid, p-Methoxyphenylhydroxymethylphosphinic Acid, Triphenylphosphine, Tri(p-methoxyphenyl)phosphine, and Tri(p-methoxyphenyl)phosphine Oxide in Selected Solvents
Source: J. Chem. Eng. Data, 2006, 10.1021/je050377q
Compound 1: phenylphosphinic acid, C6H7O2P, InChI=1S/C6H7O2P/c7-9(8)6-4-2-1-3-5-6/h1-5,9H,(H,7,8)
Compound 2: (hydroxymethyl)(phenyl)phosphinic acid, C7H9O3P, InChI=1S/C7H9O3P/c8-6-11(9,10)7-4-2-1-3-5-7/h1-5,8H,6H2,(H,9,10)
Compound 3: (4-methoxyphenyl)phosphinic acid, C7H9O3P, InChI=1S/C7H9O3P/c1-10-6-2-4-7(5-3-6)11(8)9/h2-5,11H,1H3,(H,8,9)
Compound 4: (hydroxymethyl)(4-methoxyphenyl)phosphinic acid, C8H11O4P, InChI=1S/C8H11O4P/c1-12-7-2-4-8(5-3-7)13(10,11)6-9/h2-5,9H,6H2,1H3,(H,10,11)
Compound 5: triphenylphosphine, C18H15P, InChI=1S/C18H15P/c1-4-10-16(11-5-1)19(17-12-6-2-7-13-17)18-14-8-3-9-15-18/h1-15H
Compound 6: tris(4-methoxyphenyl)phosphane, C21H21O3P, InChI=1S/C21H21O3P/c1-22-16-4-10-19(11-5-16)25(20-12-6-17(23-2)7-13-20)21-14-8-18(24-3)9-15-21/h4-15H,1-3H3
Compound 7: tris(4-methoxyphenyl)phosphine oxide, C21H21O4P, InChI=1S/C21H21O4P/c1-23-16-4-10-19(11-5-16)26(22,20-12-6-17(24-2)7-13-20)21-14-8-18(25-3)9-15-21/h4-15H,1-3H3
Compound 8: water, H2O, InChI=1S/H2O/h1H2
Compound 9: ethanol, C2H6O, InChI=1S/C2H6O/c1-2-3/h3H,2H2,1H3
Compound 10: methanol, CH4O, InChI=1S/CH4O/c1-2/h2H,1H3
Compound 11: cyclohexane, C6H12, InChI=1S/C6H12/c1-2-4-6-5-3-1/h1-6H2

System: (hydroxymethyl)(phenyl)phosphinic acid; phases: Crystal, Liquid, Air at 1 atmosphere
Property: Normal melting temperature, K (Crystal); method: VISOBS
Normal melting temperature, K	uncertainty
411.65	1.1

System: (4-methoxyphenyl)phosphinic acid; phases: Crystal, Liquid, Air at 1 atmosphere
Property: Normal melting temperature, K (Crystal); method: VISOBS
Normal melting temperature, K	uncertainty
387.65	6

System: (hydroxymethyl)(4-methoxyphenyl)phosphinic acid; phases: Crystal, Liquid, Air at 1 atmosphere
Property: Normal melting temperature, K (Crystal); method: VISOBS
Normal melting temperature, K	uncertainty
429.15	1.1

System: triphenylphosphine; phases: Crystal, Liquid, Air at 1 atmosphere
Property: Normal melting temperature, K (Crystal); method: VISOBS
Normal melting temperature, K	uncertainty
352.65	1.1

System: tris(4-methoxyphenyl)phosphane; phases: Crystal, Liquid, Air at 1 atmosphere
Property: Normal melting temperature, K (Crystal); method: VISOBS
Normal melting temperature, K	uncertainty
403.65	1.1

System: tris(4-methoxyphenyl)phosphine oxide; phases: Crystal, Liquid, Air at 1 atmosphere
Property: Normal melting temperature, K (Crystal); method: VISOBS
Normal melting temperature, K	uncertainty
416.65	1.1

System: phenylphosphinic acid + water; phases: Liquid, Crystal
Fixed: Pressure, kPa = 101
Property: Mole fraction of phenylphosphinic acid (Liquid); method: Titration method
Temperature, K	Mole fraction of phenylphosphinic acid	uncertainty
297.79	0.00946	0.00077
300.25	0.01109	0.0009
302.4	0.01294	0.00105
305.22	0.01593	0.0013
309.93	0.02177	0.00178
312.84	0.03047	0.00251

System: water + (hydroxymethyl)(phenyl)phosphinic acid; phases: Liquid, Crystal
Fixed: Pressure, kPa = 101
Property: Mole fraction of (hydroxymethyl)(phenyl)phosphinic acid (Liquid); method: Titration method
Temperature, K	Mole fraction of (hydroxymethyl)(phenyl)phosphinic acid	uncertainty
307.45	0.0099	0.00082
317.46	0.0206	0.00168
327.57	0.0424	0.00347
338.15	0.0966	0.0078
342.45	0.1166	0.00948
346.58	0.1662	0.01354
352.8	0.2474	0.01999
357.11	0.312	0.02515

System: water + (4-methoxyphenyl)phosphinic acid; phases: Liquid, Crystal
Fixed: Pressure, kPa = 101
Property: Mole fraction of (4-methoxyphenyl)phosphinic acid (Liquid); method: Titration method
Temperature, K	Mole fraction of (4-methoxyphenyl)phosphinic acid	uncertainty
303.35	0.00226	0.00018
308.05	0.00261	0.00021
312.97	0.00297	0.00024
317.25	0.00347	0.00028
322.15	0.00441	0.00035
327.75	0.00529	0.00042
333.1	0.0063	0.00051
337.35	0.00773	0.00062

System: water + (hydroxymethyl)(4-methoxyphenyl)phosphinic acid; phases: Liquid, Crystal
Fixed: Pressure, kPa = 101
Property: Mole fraction of (hydroxymethyl)(4-methoxyphenyl)phosphinic acid (Liquid); method: Titration method
Temperature, K	Mole fraction of (hydroxymethyl)(4-methoxyphenyl)phosphinic acid	uncertainty
303.95	0.00201	0.00016
307.72	0.00225	0.00018
312.55	0.00264	0.00021
317.4	0.00326	0.00026
322.15	0.00377	0.0003
327.94	0.00461	0.00037
332.59	0.00575	0.00046
337.72	0.00665	0.00054
342.36	0.00844	0.00068
346.45	0.00972	0.00078

System: ethanol + triphenylphosphine; phases: Liquid, Crystal
Fixed: Pressure, kPa = 101
Property: Mole fraction of triphenylphosphine (Liquid); method: Titration method
Temperature, K	Mole fraction of triphenylphosphine	uncertainty
297.45	0.00805	0.00065
302.25	0.00995	0.0008
307.35	0.0127	0.00102
312.45	0.0165	0.00133
317.55	0.0223	0.0018
323.05	0.029	0.00234
327.65	0.0386	0.00312

System: methanol + triphenylphosphine; phases: Liquid, Crystal
Fixed: Pressure, kPa = 101
Property: Mole fraction of triphenylphosphine (Liquid); method: Titration method
Temperature, K	Mole fraction of triphenylphosphine	uncertainty
299.65	0.00374	0.0003
303.55	0.00441	0.00035
307.45	0.00519	0.00042
311.35	0.00615	0.0005
315.25	0.00727	0.00059
318.95	0.00875	0.00071
322.75	0.0106	0.00085
327.15	0.013	0.00105

System: ethanol + tris(4-methoxyphenyl)phosphane; phases: Liquid, Crystal
Fixed: Pressure, kPa = 101
Property: Mole fraction of tris(4-methoxyphenyl)phosphane (Liquid); method: Titration method
Temperature, K	Mole fraction of tris(4-methoxyphenyl)phosphane	uncertainty
298.25	0.000374	3e-05
303.75	0.000491	4e-05
308.05	0.000667	5.5e-05
313.35	0.00102	8e-05
317.75	0.00128	0.0001
322.35	0.00168	0.00014
328.15	0.00236	0.00019

System: methanol + tris(4-methoxyphenyl)phosphane; phases: Liquid, Crystal
Fixed: Pressure, kPa = 101
Property: Mole fraction of tris(4-methoxyphenyl)phosphane (Liquid); method: Titration method
Temperature, K	Mole fraction of tris(4-methoxyphenyl)phosphane	uncertainty
293.35	0.00019	1.5e-05
298.25	0.00024	1.9e-05
303.15	0.000307	2.5e-05
308.05	0.000417	3.4e-05
313.15	0.000563	4.5e-05
318.15	0.00071	5.7e-05
322.65	0.000983	8e-05

System: cyclohexane + tris(4-methoxyphenyl)phosphine oxide; phases: Liquid, Crystal
Fixed: Pressure, kPa = 101
Property: Mole fraction of tris(4-methoxyphenyl)phosphine oxide (Liquid); method: Titration method
Temperature, K	Mole fraction of tris(4-methoxyphenyl)phosphine oxide	uncertainty
299.15	0.000539	4.5e-05
304.05	0.000824	6.7e-05
308.85	0.00107	9e-05
313.95	0.00151	0.00012
318.45	0.00231	0.00019
323.65	0.00326	0.00026
328.45	0.00436	0.00035
332.85	0.00596	0.00049
337.65	0.00848	0.00069
