Measured thermophysical data. Vapor Pressures of Perfluorooctanoic, -nonanoic, -decanoic, -undecanoic, and -dodecanoic Acids
Source: J. Chem. Eng. Data, 2005, 10.1021/je050070r
Compound 1: pentadecafluorooctanoic acid, C8HF15O2, InChI=1S/C8HF15O2/c9-2(10,1(24)25)3(11,12)4(13,14)5(15,16)6(17,18)7(19,20)8(21,22)23/h(H,24,25)
Compound 2: perfluorononanoic acid, C9HF17O2, InChI=1S/C9HF17O2/c10-2(11,1(27)28)3(12,13)4(14,15)5(16,17)6(18,19)7(20,21)8(22,23)9(24,25)26/h(H,27,28)
Compound 3: dodecanoic acid, tricosafluoro-, C12HF23O2, InChI=1S/C12HF23O2/c13-2(14,1(36)37)3(15,16)4(17,18)5(19,20)6(21,22)7(23,24)8(25,26)9(27,28)10(29,30)11(31,32)12(33,34)35/h(H,36,37)
Compound 4: nonadecafluorodecanoic acid, C10HF19O2, InChI=1S/C10HF19O2/c11-2(12,1(30)31)3(13,14)4(15,16)5(17,18)6(19,20)7(21,22)8(23,24)9(25,26)10(27,28)29/h(H,30,31)
Compound 5: perfluoroundecanoic acid, C11HF21O2, InChI=1S/C11HF21O2/c12-2(13,1(33)34)3(14,15)4(16,17)5(18,19)6(20,21)7(22,23)8(24,25)9(26,27)10(28,29)11(30,31)32/h(H,33,34)

System: pentadecafluorooctanoic acid; phases: Liquid, Gas
Property: Vapor or sublimation pressure, kPa (Liquid); method: CCELL:UFactor:16
Temperature, K	Vapor or sublimation pressure, kPa	uncertainty
332.4	0.128	0.037
335.52	0.168	0.037
339.75	0.231	0.045
345.75	0.361	0.061
352.15	0.581	0.088
359.75	0.96	0.135
368.05	1.602	0.164
377.09	2.69	0.191
387.15	4.591	0.238
397.55	7.691	0.315
409.26	13.07	0.45
421.75	22.16	0.67
435.35	37.25	1.05
450.95	63.98	1.71
463.95	96.5	2.52

System: perfluorononanoic acid; phases: Liquid, Gas
Property: Vapor or sublimation pressure, kPa (Liquid); method: CCELL:UFactor:16
Temperature, K	Vapor or sublimation pressure, kPa	uncertainty
372.78	1.12	0.16
382.69	2.02	0.17
390.81	3.12	0.2
401.7	5.54	0.26
412.92	9.33	0.36
423.86	15.19	0.5
432.85	22.77	0.69
446.11	37.25	1.05
461.08	62.07	1.66
476.13	99.97	2.61
476.27	99.97	2.61

System: dodecanoic acid, tricosafluoro-; phases: Liquid, Gas
Property: Vapor or sublimation pressure, kPa (Liquid); method: CCELL:UFactor:16
Temperature, K	Vapor or sublimation pressure, kPa	uncertainty
400.73	0.856	0.122
413.72	1.819	0.169
422.1	2.854	0.195
422.75	2.985	0.198
433.27	4.848	0.244
445.63	8.29	0.33
457.94	13.81	0.47
470.59	22.07	0.67
483.66	34.48	0.98
498.85	55.15	1.49
520.51	99.96	2.6

System: nonadecafluorodecanoic acid; phases: Liquid, Gas
Property: Vapor or sublimation pressure, kPa (Liquid); method: CCELL:UFactor:16
Temperature, K	Vapor or sublimation pressure, kPa	uncertainty
402.71	3.129	0.202
406.24	3.749	0.217
414.08	5.541	0.261
425.35	9.331	0.355
436.83	15.18	0.5
447.12	22.77	0.69
460.65	37.23	1.05
476.08	62.05	1.66
492.03	99.97	2.6

System: perfluoroundecanoic acid; phases: Liquid, Gas
Property: Vapor or sublimation pressure, kPa (Liquid); method: CCELL:UFactor:16
Temperature, K	Vapor or sublimation pressure, kPa	uncertainty
385.19	0.616	0.092
393.78	1.062	0.148
402.69	1.752	0.167
412.29	2.785	0.193
412.41	2.789	0.193
422.37	4.513	0.236
431.47	6.925	0.296
445.17	12.44	0.43
459.92	20.7	0.64
473.83	34.49	0.98
475.24	34.48	0.98
491.44	58.6	1.58
491.79	58.6	1.58
509.83	96.51	2.52
510.8	99.97	2.6
