Measured thermophysical data. Mutual Solubilities of Terpene in Methanol and Water and Their Multicomponent Liquid-Liquid Equilibria
Source: J. Chem. Eng. Data, 2005, 10.1021/je0502391
Compound 1: water, H2O, InChI=1S/H2O/h1H2, purity 99.99%
Compound 2: methanol, CH4O, InChI=1S/CH4O/c1-2/h2H,1H3, purity 99.8%
Compound 3: dodecane, C12H26, InChI=1S/C12H26/c1-3-5-7-9-11-12-10-8-6-4-2/h3-12H2,1-2H3, purity 99%
Compound 4: toluene, C7H8, InChI=1S/C7H8/c1-7-5-3-2-4-6-7/h2-6H,1H3, purity 99.8%
Compound 5: (S)-2-pinene, C10H16, InChI=1S/C10H16/c1-7-4-5-8-6-9(7)10(8,2)3/h4,8-9H,5-6H2,1-3H3/t8-,9-/m0/s1
Compound 6: (1S,5S)-6,6-dimethyl-2-methylenebicyclo[3.1.1]heptane, C10H16, InChI=1S/C10H16/c1-7-4-5-8-6-9(7)10(8,2)3/h8-9H,1,4-6H2,2-3H3/t8-,9-/m0/s1
Compound 7: (R)-1-methyl-4-(1-methylethenyl)cyclohexene, C10H16, InChI=1S/C10H16/c1-8(2)10-6-4-9(3)5-7-10/h4,10H,1,5-7H2,2-3H3/t10-/m0/s1

System: methanol; phases: Liquid
Property: Mass density, kg/m3 (Liquid); method: VIBTUB:UFactor:2
Temperature, K	Pressure, kPa	Mass density, kg/m3	uncertainty
298.15	101.325	786.62	0.31

System: dodecane; phases: Liquid
Property: Mass density, kg/m3 (Liquid); method: VIBTUB:UFactor:4
Temperature, K	Pressure, kPa	Mass density, kg/m3	uncertainty
298.15	101.325	745.41	0.78

System: toluene; phases: Liquid
Property: Mass density, kg/m3 (Liquid); method: VIBTUB:UFactor:2
Temperature, K	Pressure, kPa	Mass density, kg/m3	uncertainty
298.15	101.325	862.35	0.24

System: (S)-2-pinene; phases: Liquid
Property: Mass density, kg/m3 (Liquid); method: VIBTUB:UFactor:4
Temperature, K	Pressure, kPa	Mass density, kg/m3	uncertainty
298.15	101.325	853.88	0.63

System: (1S,5S)-6,6-dimethyl-2-methylenebicyclo[3.1.1]heptane; phases: Liquid
Property: Mass density, kg/m3 (Liquid); method: VIBTUB:UFactor:4
Temperature, K	Pressure, kPa	Mass density, kg/m3	uncertainty
298.15	101.325	866.84	0.62

System: (R)-1-methyl-4-(1-methylethenyl)cyclohexene; phases: Liquid
Property: Mass density, kg/m3 (Liquid); method: VIBTUB:UFactor:8
Temperature, K	Pressure, kPa	Mass density, kg/m3	uncertainty
298.15	101.325	837.31	1.31

System: water + (S)-2-pinene; phases: Liquid mixture 1, Liquid mixture 2
Property: Mole fraction of water (Liquid mixture 1); method: CHROM:UFactor:2
Temperature, K	Pressure, kPa	Mole fraction of water	uncertainty
298.15	101.325	0.004	0.002

System: water + (S)-2-pinene; phases: Liquid mixture 2, Liquid mixture 1
Property: Mole fraction of (S)-2-pinene (Liquid mixture 2); method: CHROM:UFactor:2
Temperature, K	Pressure, kPa	Mole fraction of (S)-2-pinene	uncertainty
298.15	101.325	6.96e-07	6.96e-07

System: water + (1S,5S)-6,6-dimethyl-2-methylenebicyclo[3.1.1]heptane; phases: Liquid mixture 1, Liquid mixture 2
Property: Mole fraction of water (Liquid mixture 1); method: CHROM:UFactor:2
Temperature, K	Pressure, kPa	Mole fraction of water	uncertainty
298.15	101.325	0.0058	0.002

System: water + (1S,5S)-6,6-dimethyl-2-methylenebicyclo[3.1.1]heptane; phases: Liquid mixture 2, Liquid mixture 1
Property: Mole fraction of (1S,5S)-6,6-dimethyl-2-methylenebicyclo[3.1.1]heptane (Liquid mixture 2); method: CHROM:UFactor:2
Temperature, K	Pressure, kPa	Mole fraction of (1S,5S)-6,6-dimethyl-2-methylenebicyclo[3.1.1]heptane	uncertainty
298.15	101.325	1.68e-06	1.68e-06

System: (R)-1-methyl-4-(1-methylethenyl)cyclohexene + water; phases: Liquid mixture 1, Liquid mixture 2
Property: Mole fraction of water (Liquid mixture 1); method: CHROM:UFactor:2
Temperature, K	Pressure, kPa	Mole fraction of water	uncertainty
298.15	101.325	0.0052	0.002

System: (R)-1-methyl-4-(1-methylethenyl)cyclohexene + water; phases: Liquid mixture 2, Liquid mixture 1
Property: Mole fraction of (R)-1-methyl-4-(1-methylethenyl)cyclohexene (Liquid mixture 2); method: CHROM:UFactor:2
Temperature, K	Pressure, kPa	Mole fraction of (R)-1-methyl-4-(1-methylethenyl)cyclohexene	uncertainty
298.15	101.325	1.63e-06	1.63e-06

System: methanol + (S)-2-pinene; phases: Liquid mixture 1, Liquid mixture 2
Property: Mole fraction of methanol (Liquid mixture 1); method: CHROM:UFactor:2
Temperature, K	Pressure, kPa	Mole fraction of methanol	uncertainty
298.15	101.325	0.1683	0.0031

System: methanol + (S)-2-pinene; phases: Liquid mixture 2, Liquid mixture 1
Property: Mole fraction of (S)-2-pinene (Liquid mixture 2); method: CHROM:UFactor:2
Temperature, K	Pressure, kPa	Mole fraction of (S)-2-pinene	uncertainty
298.15	101.325	0.0861	0.0023

System: methanol + (1S,5S)-6,6-dimethyl-2-methylenebicyclo[3.1.1]heptane; phases: Liquid mixture 1, Liquid mixture 2
Property: Mole fraction of methanol (Liquid mixture 1); method: CHROM:UFactor:2
Temperature, K	Pressure, kPa	Mole fraction of methanol	uncertainty
298.15	101.325	0.2373	0.0039

System: methanol + (1S,5S)-6,6-dimethyl-2-methylenebicyclo[3.1.1]heptane; phases: Liquid mixture 2, Liquid mixture 1
Property: Mole fraction of (1S,5S)-6,6-dimethyl-2-methylenebicyclo[3.1.1]heptane (Liquid mixture 2); method: CHROM:UFactor:2
Temperature, K	Pressure, kPa	Mole fraction of (1S,5S)-6,6-dimethyl-2-methylenebicyclo[3.1.1]heptane	uncertainty
298.15	101.325	0.1165	0.0026

System: methanol + (R)-1-methyl-4-(1-methylethenyl)cyclohexene; phases: Liquid mixture 1, Liquid mixture 2
Property: Mole fraction of methanol (Liquid mixture 1); method: CHROM:UFactor:2
Temperature, K	Pressure, kPa	Mole fraction of methanol	uncertainty
298.15	101.325	0.2872	0.0045

System: methanol + (R)-1-methyl-4-(1-methylethenyl)cyclohexene; phases: Liquid mixture 2, Liquid mixture 1
Property: Mole fraction of (R)-1-methyl-4-(1-methylethenyl)cyclohexene (Liquid mixture 2); method: CHROM:UFactor:2
Temperature, K	Pressure, kPa	Mole fraction of (R)-1-methyl-4-(1-methylethenyl)cyclohexene	uncertainty
298.15	101.325	0.12	0.0026

System: methanol + water + (S)-2-pinene; phases: Liquid mixture 1, Liquid mixture 2
Fixed: Temperature, K = 298.15
Fixed: Pressure, kPa = 101.325
Property: Mole fraction of methanol (Liquid mixture 1); method: CHROM:UFactor:2
Property: Mole fraction of water (Liquid mixture 2); method: CHROM:UFactor:2
Property: Mole fraction of methanol (Liquid mixture 2); method: CHROM:UFactor:2
Mole fraction of water	Mole fraction of methanol	uncertainty	Mole fraction of water	uncertainty	Mole fraction of methanol	uncertainty
0.8992	0.1008	0.0032	0.004	0.002	0.0011	
0.7445	0.2555	0.0046	0.0041	0.002	0.0036	
0.6324	0.3675	0.006	0.004	0.002	0.0069	
0.5432	0.4563	0.0073	0.0041	0.002	0.0097	
0.4319	0.5668	0.007	0.0042	0.002	0.013	
0.3859	0.612	0.0063	0.0043	0.002	0.016	
0.3362	0.6602	0.0056	0.0044	0.002	0.0202	
0.2715	0.7223	0.0048	0.0045	0.002	0.0252	
0.2187	0.7725	0.0042	0.0045	0.002	0.0373	
0.1232	0.8543	0.0033	0.0045	0.002	0.0475	
0.0504	0.9088	0.0028	0.0045	0.002	0.0961	

System: methanol + water + (1S,5S)-6,6-dimethyl-2-methylenebicyclo[3.1.1]heptane; phases: Liquid mixture 1, Liquid mixture 2
Fixed: Temperature, K = 298.15
Fixed: Pressure, kPa = 101.325
Property: Mole fraction of methanol (Liquid mixture 1); method: CHROM:UFactor:2
Property: Mole fraction of water (Liquid mixture 2); method: CHROM:UFactor:2
Property: Mole fraction of methanol (Liquid mixture 2); method: CHROM:UFactor:2
Mole fraction of water	Mole fraction of methanol	uncertainty	Mole fraction of water	uncertainty	Mole fraction of methanol	uncertainty
0.8986	0.1014	0.0032	0.0058	0.002	0.0033	
0.8161	0.1839	0.0038	0.0059	0.002	0.0067	
0.6977	0.3022	0.0051	0.0062	0.002	0.0115	
0.5914	0.4081	0.0066	0.006	0.002	0.0168	
0.4937	0.5051	0.0079	0.0062	0.002	0.0211	
0.3725	0.6243	0.0061	0.0063	0.002	0.0337	
0.2738	0.7183	0.0048	0.0072	0.002	0.0449	
0.1712	0.8105	0.0038	0.0065	0.002	0.0731	
0.1205	0.8487	0.0032	0.0065	0.002	0.0961	
0.0549	0.8899	0.0028	0.007	0.002	0.1599	

System: methanol + (R)-1-methyl-4-(1-methylethenyl)cyclohexene + water; phases: Liquid mixture 1, Liquid mixture 2
Fixed: Temperature, K = 298.15
Fixed: Pressure, kPa = 101.325
Property: Mole fraction of methanol (Liquid mixture 1); method: CHROM:UFactor:2
Property: Mole fraction of water (Liquid mixture 2); method: CHROM:UFactor:2
Property: Mole fraction of methanol (Liquid mixture 2); method: CHROM:UFactor:2
Mole fraction of water	Mole fraction of methanol	uncertainty	Mole fraction of water	uncertainty	Mole fraction of methanol	uncertainty
0.9024	0.0976	0.0031	0.0052	0.002	0.0046	
0.818	0.182	0.0038	0.0052	0.002	0.0084	
0.7057	0.2942	0.005	0.0056	0.002	0.0116	
0.6053	0.3945	0.0064	0.0055	0.002	0.0165	
0.4881	0.5111	0.0078	0.0052	0.002	0.0247	
0.3873	0.6104	0.0063	0.0056	0.002	0.0301	
0.2995	0.6954	0.0051	0.0061	0.002	0.0419	
0.2037	0.7837	0.0041	0.0055	0.002	0.0607	
0.1493	0.8314	0.0035	0.0054	0.002	0.0819	
0.1071	0.8629	0.003	0.0055	0.002	0.1049	
0.0352	0.9023	0.0027	0.0052	0.002	0.1767	

System: (R)-1-methyl-4-(1-methylethenyl)cyclohexene + water + (S)-2-pinene; phases: Liquid mixture 1, Liquid mixture 2
Fixed: Temperature, K = 298.15
Fixed: Pressure, kPa = 101.325
Property: Mole fraction of (S)-2-pinene (Liquid mixture 1); method: CHROM:UFactor:2
Property: Mole fraction of (S)-2-pinene (Liquid mixture 2); method: CHROM:UFactor:2
Property: Mole fraction of (R)-1-methyl-4-(1-methylethenyl)cyclohexene (Liquid mixture 2); method: CHROM:UFactor:2
Mole fraction of (R)-1-methyl-4-(1-methylethenyl)cyclohexene	Mole fraction of (S)-2-pinene	uncertainty	Mole fraction of (S)-2-pinene	uncertainty	Mole fraction of (R)-1-methyl-4-(1-methylethenyl)cyclohexene	uncertainty
4.27e-07	5.9e-07	5.9e-07	0.7471	0.0046	0.2486	
8.96e-07	3.75e-07	3.75e-07	0.4975	0.008	0.4979	
1.32e-06	1.61e-07	1.61e-07	0.2485	0.0045	0.7466	

System: methanol + (R)-1-methyl-4-(1-methylethenyl)cyclohexene + (S)-2-pinene; phases: Liquid mixture 1, Liquid mixture 2
Fixed: Temperature, K = 298.15
Fixed: Pressure, kPa = 101.325
Property: Mole fraction of methanol (Liquid mixture 1); method: CHROM:UFactor:2
Property: Mole fraction of methanol (Liquid mixture 2); method: CHROM:UFactor:2
Property: Mole fraction of (S)-2-pinene (Liquid mixture 2); method: CHROM:UFactor:2
Mole fraction of (S)-2-pinene	Mole fraction of methanol	uncertainty	Mole fraction of methanol	uncertainty	Mole fraction of (S)-2-pinene	uncertainty
0.0788	0.9083	0.0026	0.1888	0.0033	0.7018	
0.0688	0.903	0.0026	0.2012	0.0035	0.5739	
0.0578	0.8986	0.0026	0.2216	0.0037	0.4486	
0.0452	0.893	0.0027	0.2431	0.004	0.3219	
0.0315	0.8871	0.0026	0.2568	0.0042	0.2094	
0.0164	0.8851	0.0026	0.2716	0.0043	0.1018	
