Measured thermophysical data. Densities and Viscosities for Binary and Ternary Mixtures of Diisopropyl Ether, Ethanol, and Methylcyclohexane
Source: J. Chem. Eng. Data, 2005, 10.1021/je050031f
Compound 1: diisopropyl ether, C6H14O, InChI=1S/C6H14O/c1-5(2)7-6(3)4/h5-6H,1-4H3, purity 99%
Compound 2: ethanol, C2H6O, InChI=1S/C2H6O/c1-2-3/h3H,2H2,1H3, purity 99.8%
Compound 3: methylcyclohexane, C7H14, InChI=1S/C7H14/c1-7-5-3-2-4-6-7/h7H,2-6H2,1H3, purity 99.9%

System: diisopropyl ether; phases: Liquid
Fixed: Pressure, kPa = 101.325
Property: Refractive index (Na D-line) (Liquid); method: Standard Abbe refractometry
Temperature, K	Refractive index (Na D-line)	uncertainty
288.15	1.37126	0.00031
298.15	1.36537	0.00031
308.15	1.35954	0.00031

System: diisopropyl ether; phases: Liquid
Fixed: Pressure, kPa = 100.8
Property: Viscosity, Pa*s (Liquid); method: CAPTUB::UFactor:2
Temperature, K	Viscosity, Pa*s	uncertainty
288.15	0.000347	5e-06
298.15	0.000313	5e-06
308.15	0.000283	5e-06

System: diisopropyl ether; phases: Liquid
Fixed: Pressure, kPa = 100.8
Property: Mass density, kg/m3 (Liquid); method: VIBTUB::UFactor:2
Temperature, K	Mass density, kg/m3	uncertainty
288.15	729	0.3
298.15	718.6	0.3
308.15	707.9	0.3

System: ethanol; phases: Liquid
Fixed: Pressure, kPa = 101.325
Property: Refractive index (Na D-line) (Liquid); method: Standard Abbe refractometry
Temperature, K	Refractive index (Na D-line)	uncertainty
288.15	1.36351	0.00031
298.15	1.35935	0.00031
308.15	1.35504	0.00031

System: ethanol; phases: Liquid
Fixed: Pressure, kPa = 100.8
Property: Viscosity, Pa*s (Liquid); method: CAPTUB::UFactor:2
Temperature, K	Viscosity, Pa*s	uncertainty
288.15	0.00131	1.6e-05
298.15	0.001085	1.3e-05
308.15	0.000906	1.1e-05

System: ethanol; phases: Liquid
Fixed: Pressure, kPa = 100.8
Property: Mass density, kg/m3 (Liquid); method: VIBTUB::UFactor:2
Temperature, K	Mass density, kg/m3	uncertainty
288.15	793.6	0.2
298.15	785.2	0.3
308.15	776.5	0.3

System: methylcyclohexane; phases: Liquid
Fixed: Pressure, kPa = 101.325
Property: Refractive index (Na D-line) (Liquid); method: Standard Abbe refractometry
Temperature, K	Refractive index (Na D-line)	uncertainty
288.15	1.42578	0.00033
298.15	1.42053	0.00033
308.15	1.41537	0.00033

System: methylcyclohexane; phases: Liquid
Fixed: Pressure, kPa = 100.8
Property: Viscosity, Pa*s (Liquid); method: CAPTUB::UFactor:2
Temperature, K	Viscosity, Pa*s	uncertainty
288.15	0.000784	1e-05
298.15	0.000685	9e-06
308.15	0.0006	8e-06

System: methylcyclohexane; phases: Liquid
Fixed: Pressure, kPa = 100.8
Property: Mass density, kg/m3 (Liquid); method: VIBTUB:UFactor:2
Temperature, K	Mass density, kg/m3	uncertainty
288.15	773.4	0.3
298.15	765	0.3
308.15	756.3	0.3

System: ethanol + diisopropyl ether; phases: Liquid
Fixed: Pressure, kPa = 100.8
Property: Viscosity, Pa*s (Liquid); method: CAPTUB:UFactor:2
Temperature, K	Mole fraction of diisopropyl ether	Viscosity, Pa*s	uncertainty
288.15	0	0.00131	1.6e-05
288.15	0.05	0.001176	1.4e-05
288.15	0.1	0.001047	1.3e-05
288.15	0.15	0.000946	1.2e-05
288.15	0.2	0.000851	1.1e-05
288.15	0.25	0.000772	1e-05
288.15	0.3	0.000705	9e-06
288.15	0.35	0.000649	9e-06
288.15	0.4	0.0006	8e-06
288.15	0.45	0.000559	8e-06
288.15	0.5	0.000523	7e-06
288.15	0.55	0.000494	7e-06
288.15	0.6	0.000467	7e-06
288.15	0.65	0.000445	6e-06
288.15	0.7	0.000424	6e-06
288.15	0.75	0.000407	6e-06
288.15	0.8	0.000393	6e-06
288.15	0.85	0.000379	6e-06
288.15	0.9	0.000367	6e-06
288.15	0.95	0.000367	1.5e-05
288.15	1	0.000347	5e-06
298.15	0	0.001085	1.3e-05
298.15	0.05	0.000976	1.2e-05
298.15	0.1	0.000876	1.1e-05
298.15	0.15	0.000793	1e-05
298.15	0.2	0.000718	9e-06
298.15	0.25	0.000655	9e-06
298.15	0.3	0.000605	8e-06
298.15	0.35	0.000559	8e-06
298.15	0.4	0.000519	7e-06
298.15	0.45	0.000487	7e-06
298.15	0.5	0.000457	7e-06
298.15	0.55	0.000432	6e-06
298.15	0.6	0.000413	6e-06
298.15	0.65	0.000393	6e-06
298.15	0.7	0.000378	6e-06
298.15	0.75	0.000363	6e-06
298.15	0.8	0.000349	5e-06
298.15	0.85	0.000338	5e-06
298.15	0.9	0.00033	5e-06
298.15	0.95	0.000319	5e-06
298.15	1	0.000313	5e-06
308.15	0	0.000906	1.1e-05
308.15	0.05	0.000815	1e-05
308.15	0.1	0.000737	1e-05
308.15	0.15	0.000671	9e-06
308.15	0.2	0.000613	8e-06
308.15	0.25	0.000562	8e-06
308.15	0.3	0.00052	7e-06
308.15	0.35	0.000484	7e-06
308.15	0.4	0.000452	6e-06
308.15	0.45	0.000427	6e-06
308.15	0.5	0.000403	6e-06
308.15	0.55	0.000382	6e-06
308.15	0.6	0.000364	6e-06
308.15	0.65	0.000349	5e-06
308.15	0.7	0.000335	5e-06
308.15	0.75	0.000325	5e-06
308.15	0.8	0.000315	5e-06
308.15	0.85	0.000306	5e-06
308.15	0.9	0.000298	5e-06
308.15	0.95	0.00029	5e-06
308.15	1	0.000283	5e-06

System: ethanol + diisopropyl ether; phases: Liquid
Fixed: Pressure, kPa = 100.8
Property: Refractive index (Na D-line) (Liquid); method: Standard Abbe refractometry
Temperature, K	Mole fraction of diisopropyl ether	Refractive index (Na D-line)	uncertainty
288.15	0	1.36351	0.00031
288.15	0.05	1.3657	0.00031
288.15	0.1	1.36697	0.00031
288.15	0.15	1.368	0.00031
288.15	0.2	1.36883	0.00031
288.15	0.25	1.36952	0.00031
288.15	0.3	1.37013	0.00031
288.15	0.35	1.37062	0.00031
288.15	0.4	1.37102	0.00031
288.15	0.45	1.37134	0.00031
288.15	0.5	1.37158	0.00031
288.15	0.55	1.37175	0.00031
288.15	0.6	1.3719	0.00031
288.15	0.65	1.37197	0.00031
288.15	0.7	1.37196	0.00031
288.15	0.75	1.37192	0.00031
288.15	0.8	1.37188	0.00031
288.15	0.85	1.37178	0.00031
288.15	0.9	1.37162	0.00031
288.15	0.95	1.37141	0.00031
288.15	1	1.37126	0.00031
298.15	0	1.35935	0.00031
298.15	0.05	1.36097	0.00031
298.15	0.1	1.36212	0.00031
298.15	0.15	1.36316	0.00031
298.15	0.2	1.36395	0.00031
298.15	0.25	1.36457	0.00031
298.15	0.3	1.36509	0.00031
298.15	0.35	1.3655	0.00031
298.15	0.4	1.36587	0.00031
298.15	0.45	1.36612	0.00031
298.15	0.5	1.36632	0.00031
298.15	0.55	1.36644	0.00031
298.15	0.6	1.36651	0.00031
298.15	0.65	1.36652	0.00031
298.15	0.7	1.36651	0.00031
298.15	0.75	1.36645	0.00031
298.15	0.8	1.36635	0.00031
298.15	0.85	1.36621	0.00031
298.15	0.9	1.36597	0.00031
298.15	0.95	1.36566	0.00031
298.15	1	1.36537	0.00031
308.15	0	1.35504	0.00031
308.15	0.05	1.35649	0.00031
308.15	0.1	1.35757	0.00031
308.15	0.15	1.35852	0.00031
308.15	0.2	1.35926	0.00031
308.15	0.25	1.3598	0.00031
308.15	0.3	1.36021	0.00031
308.15	0.35	1.36057	0.00031
308.15	0.4	1.36083	0.00031
308.15	0.45	1.36102	0.00031
308.15	0.5	1.36113	0.00031
308.15	0.55	1.36119	0.00031
308.15	0.6	1.36118	0.00031
308.15	0.65	1.36116	0.00031
308.15	0.7	1.36112	0.00031
308.15	0.75	1.36103	0.00031
308.15	0.8	1.36089	0.00031
308.15	0.85	1.36071	0.00031
308.15	0.9	1.36042	0.00031
308.15	0.95	1.36	0.00031
308.15	1	1.35954	0.00031

System: ethanol + diisopropyl ether; phases: Liquid
Fixed: Pressure, kPa = 100.8
Property: Mass density, kg/m3 (Liquid); method: VIBTUB:UFactor:2
Temperature, K	Mole fraction of diisopropyl ether	Mass density, kg/m3	uncertainty
288.15	0	793.6	0.2
288.15	0.05	788.3	0.3
288.15	0.1	783.4	0.3
288.15	0.15	778.8	0.3
288.15	0.2	774.7	0.3
288.15	0.25	770.7	0.3
288.15	0.3	766.9	0.3
288.15	0.35	763.3	0.3
288.15	0.4	760	0.3
288.15	0.45	756.9	0.3
288.15	0.5	753.8	0.3
288.15	0.55	751	0.3
288.15	0.6	748.3	0.3
288.15	0.65	745.7	0.3
288.15	0.7	743.2	0.3
288.15	0.75	740.7	0.3
288.15	0.8	738.3	0.3
288.15	0.85	735.8	0.3
288.15	0.9	733.5	0.3
288.15	0.95	731.1	0.3
288.15	1	729	0.3
298.15	0	785.2	0.3
298.15	0.05	779.8	0.3
298.15	0.1	774.8	0.3
298.15	0.15	770	0.3
298.15	0.2	765.7	0.3
298.15	0.25	761.4	0.3
298.15	0.3	757.5	0.3
298.15	0.35	753.9	0.3
298.15	0.4	750.4	0.3
298.15	0.45	747.1	0.3
298.15	0.5	744.1	0.3
298.15	0.55	741.2	0.3
298.15	0.6	738.4	0.3
298.15	0.65	735.8	0.3
298.15	0.7	733.2	0.3
298.15	0.75	730.7	0.3
298.15	0.8	728.3	0.3
298.15	0.85	725.8	0.3
298.15	0.9	723.4	0.3
298.15	0.95	720.9	0.3
298.15	1	718.6	0.3
308.15	0	776.5	0.3
308.15	0.05	771	0.3
308.15	0.1	765.8	0.3
308.15	0.15	760.9	0.3
308.15	0.2	756.4	0.3
308.15	0.25	752	0.3
308.15	0.3	747.9	0.3
308.15	0.35	744.2	0.3
308.15	0.4	740.7	0.3
308.15	0.45	737.3	0.3
308.15	0.5	734.1	0.3
308.15	0.55	731.1	0.3
308.15	0.6	728.3	0.3
308.15	0.65	725.6	0.3
308.15	0.7	723	0.3
308.15	0.75	720.5	0.3
308.15	0.8	718	0.3
308.15	0.85	715.5	0.3
308.15	0.9	713.1	0.3
308.15	0.95	710.6	0.3
308.15	1	707.9	0.3

System: ethanol + methylcyclohexane; phases: Liquid
Fixed: Pressure, kPa = 100.8
Property: Viscosity, Pa*s (Liquid); method: CAPTUB:UFactor:2
Temperature, K	Mole fraction of ethanol	Viscosity, Pa*s	uncertainty
288.15	0	0.000784	1e-05
288.15	0.05	0.000771	1e-05
288.15	0.1	0.000769	1e-05
288.15	0.15	0.00077	1e-05
288.15	0.2	0.000779	1e-05
288.15	0.25	0.000793	1e-05
288.15	0.3	0.000811	1e-05
288.15	0.35	0.000831	1.1e-05
288.15	0.4	0.000853	1.1e-05
288.15	0.45	0.000877	1.1e-05
288.15	0.5	0.000902	1.1e-05
288.15	0.55	0.000928	1.2e-05
288.15	0.6	0.000955	1.2e-05
288.15	0.65	0.000983	1.2e-05
288.15	0.7	0.001012	1.3e-05
288.15	0.75	0.001043	1.3e-05
288.15	0.8	0.001077	1.3e-05
288.15	0.85	0.001114	1.4e-05
288.15	0.9	0.001164	1.4e-05
288.15	0.95	0.001225	1.5e-05
288.15	1	0.00131	1.6e-05
298.15	0	0.000685	9e-06
298.15	0.05	0.000674	9e-06
298.15	0.1	0.00067	9e-06
298.15	0.15	0.000667	9e-06
298.15	0.2	0.000673	9e-06
298.15	0.25	0.000681	9e-06
298.15	0.3	0.000694	9e-06
298.15	0.35	0.000707	9e-06
298.15	0.4	0.000722	9e-06
298.15	0.45	0.000739	1e-05
298.15	0.5	0.000757	1e-05
298.15	0.55	0.000778	1e-05
298.15	0.6	0.000799	1e-05
298.15	0.65	0.00082	1e-05
298.15	0.7	0.000843	1.1e-05
298.15	0.75	0.000867	1.1e-05
298.15	0.8	0.000894	1.1e-05
298.15	0.85	0.000926	1.2e-05
298.15	0.9	0.000971	1.2e-05
298.15	0.95	0.001021	1.3e-05
298.15	1	0.001085	1.3e-05
308.15	0	0.0006	8e-06
308.15	0.05	0.000589	8e-06
308.15	0.1	0.000588	8e-06
308.15	0.15	0.000585	8e-06
308.15	0.2	0.000588	8e-06
308.15	0.25	0.000593	8e-06
308.15	0.3	0.000602	8e-06
308.15	0.35	0.000612	8e-06
308.15	0.4	0.000623	8e-06
308.15	0.45	0.000635	9e-06
308.15	0.5	0.00065	9e-06
308.15	0.55	0.000666	9e-06
308.15	0.6	0.000683	9e-06
308.15	0.65	0.0007	9e-06
308.15	0.7	0.00072	9e-06
308.15	0.75	0.00074	1e-05
308.15	0.8	0.000762	1e-05
308.15	0.85	0.00079	1e-05
308.15	0.9	0.000828	1.1e-05
308.15	0.95	0.000867	1.1e-05
308.15	1	0.000906	1.1e-05

System: ethanol + methylcyclohexane; phases: Liquid
Fixed: Pressure, kPa = 100.8
Property: Refractive index (Na D-line) (Liquid); method: Standard Abbe refractometry
Temperature, K	Mole fraction of ethanol	Refractive index (Na D-line)	uncertainty
288.15	0	1.42578	0.00033
288.15	0.05	1.42405	0.00033
288.15	0.1	1.42223	0.00032
288.15	0.15	1.42037	0.00032
288.15	0.2	1.41843	0.00032
288.15	0.25	1.41639	0.00032
288.15	0.3	1.41426	0.00032
288.15	0.35	1.41199	0.00032
288.15	0.4	1.4096	0.00032
288.15	0.45	1.40706	0.00032
288.15	0.5	1.40437	0.00032
288.15	0.55	1.4015	0.00032
288.15	0.6	1.39844	0.00032
288.15	0.65	1.39516	0.00032
288.15	0.7	1.39166	0.00032
288.15	0.75	1.38785	0.00032
288.15	0.8	1.38377	0.00031
288.15	0.85	1.37933	0.00031
288.15	0.9	1.37449	0.00031
288.15	0.95	1.36921	0.00031
288.15	1	1.36351	0.00031
298.15	0	1.42053	0.00033
298.15	0.05	1.41871	0.00033
298.15	0.1	1.4169	0.00032
298.15	0.15	1.41505	0.00032
298.15	0.2	1.41313	0.00032
298.15	0.25	1.41112	0.00032
298.15	0.3	1.40902	0.00032
298.15	0.35	1.40679	0.00032
298.15	0.4	1.40442	0.00032
298.15	0.45	1.40192	0.00032
298.15	0.5	1.39927	0.00032
298.15	0.55	1.39644	0.00032
298.15	0.6	1.39343	0.00032
298.15	0.65	1.3902	0.00032
298.15	0.7	1.38674	0.00032
298.15	0.75	1.38298	0.00032
298.15	0.8	1.37896	0.00031
298.15	0.85	1.37459	0.00031
298.15	0.9	1.36985	0.00031
298.15	0.95	1.36474	0.00031
298.15	1	1.35935	0.00031
308.15	0	1.41537	0.00033
308.15	0.05	1.41358	0.00033
308.15	0.1	1.41176	0.00032
308.15	0.15	1.40993	0.00032
308.15	0.2	1.40802	0.00032
308.15	0.25	1.40603	0.00032
308.15	0.3	1.40396	0.00032
308.15	0.35	1.40175	0.00032
308.15	0.4	1.39942	0.00032
308.15	0.45	1.39695	0.00032
308.15	0.5	1.39433	0.00032
308.15	0.55	1.39153	0.00032
308.15	0.6	1.38856	0.00032
308.15	0.65	1.38538	0.00032
308.15	0.7	1.38197	0.00032
308.15	0.75	1.37827	0.00032
308.15	0.8	1.37432	0.00031
308.15	0.85	1.37001	0.00031
308.15	0.9	1.36536	0.00031
308.15	0.95	1.36042	0.00031
308.15	1	1.35504	0.00031

System: ethanol + methylcyclohexane; phases: Liquid
Fixed: Pressure, kPa = 100.8
Property: Mass density, kg/m3 (Liquid); method: VIBTUB:UFactor:2
Temperature, K	Mole fraction of ethanol	Mass density, kg/m3	uncertainty
288.15	0	773.4	0.3
288.15	0.05	773.4	0.3
288.15	0.1	773.4	0.3
288.15	0.15	773.7	0.3
288.15	0.2	774	0.3
288.15	0.25	774.3	0.3
288.15	0.3	774.7	0.3
288.15	0.35	775.1	0.3
288.15	0.4	775.7	0.3
288.15	0.45	776.3	0.3
288.15	0.5	777	0.3
288.15	0.55	777.8	0.3
288.15	0.6	778.7	0.3
288.15	0.65	779.6	0.3
288.15	0.7	780.8	0.3
288.15	0.75	782.1	0.3
288.15	0.8	783.6	0.3
288.15	0.85	785.4	0.3
288.15	0.9	787.7	0.3
288.15	0.95	790.4	0.3
288.15	1	793.6	0.2
298.15	0	765	0.3
298.15	0.05	764.6	0.3
298.15	0.1	764.7	0.3
298.15	0.15	764.8	0.3
298.15	0.2	765.1	0.3
298.15	0.25	765.4	0.3
298.15	0.3	765.8	0.3
298.15	0.35	766.2	0.3
298.15	0.4	766.8	0.3
298.15	0.45	767.4	0.3
298.15	0.5	768.1	0.3
298.15	0.55	768.9	0.3
298.15	0.6	769.8	0.3
298.15	0.65	770.8	0.3
298.15	0.7	772	0.3
298.15	0.75	773.4	0.3
298.15	0.8	774.9	0.3
298.15	0.85	776.7	0.3
298.15	0.9	779	0.3
298.15	0.95	781.8	0.3
298.15	1	785.2	0.3
308.15	0	756.3	0.3
308.15	0.05	755.8	0.3
308.15	0.1	755.7	0.3
308.15	0.15	755.8	0.3
308.15	0.2	756.1	0.3
308.15	0.25	756.4	0.3
308.15	0.3	756.8	0.3
308.15	0.35	757.2	0.3
308.15	0.4	757.8	0.3
308.15	0.45	758.4	0.3
308.15	0.5	759.1	0.3
308.15	0.55	759.9	0.3
308.15	0.6	760.8	0.3
308.15	0.65	761.8	0.3
308.15	0.7	763.1	0.3
308.15	0.75	764.5	0.3
308.15	0.8	766	0.3
308.15	0.85	767.9	0.3
308.15	0.9	770.2	0.3
308.15	0.95	773	0.3
308.15	1	776.5	0.3

System: diisopropyl ether + methylcyclohexane; phases: Liquid
Fixed: Pressure, kPa = 100.8
Property: Viscosity, Pa*s (Liquid); method: Capillary tube (Ostwald; Ubbelohde) method
Temperature, K	Mole fraction of diisopropyl ether	Viscosity, Pa*s	uncertainty
288.15	0	0.000784	
288.15	0.0502	0.000744	
288.15	0.1	0.000697	
288.15	0.15	0.00066	
288.15	0.2	0.000627	
288.15	0.25	0.000595	
288.15	0.3	0.000568	
288.15	0.35	0.000543	
288.15	0.4	0.000522	
288.15	0.45	0.000503	
288.15	0.5	0.000484	
288.15	0.55	0.000466	
288.15	0.6	0.000447	
288.15	0.65	0.000431	
288.15	0.7	0.000415	
288.15	0.75	0.000403	
288.15	0.8	0.000389	
288.15	0.85	0.000379	
288.15	0.9	0.000368	
288.15	0.95	0.000358	
288.15	1	0.000347	
298.15	0	0.000685	
298.15	0.0502	0.000653	
298.15	0.1	0.000612	
298.15	0.15	0.000579	
298.15	0.2	0.000551	
298.15	0.25	0.000524	
298.15	0.3	0.000502	
298.15	0.35	0.000481	
298.15	0.4	0.000464	
298.15	0.45	0.000447	
298.15	0.5	0.000431	
298.15	0.55	0.000415	
298.15	0.6	0.000399	
298.15	0.65	0.000385	
298.15	0.7	0.000372	
298.15	0.75	0.000361	
298.15	0.8	0.000349	
298.15	0.85	0.000341	
298.15	0.9	0.000331	
298.15	0.95	0.000321	
298.15	1	0.000313	
308.15	0	0.0006	
308.15	0.0502	0.000575	
308.15	0.1	0.000542	
308.15	0.15	0.000514	
308.15	0.2	0.000489	
308.15	0.25	0.000467	
308.15	0.3	0.000448	
308.15	0.35	0.00043	
308.15	0.4	0.000415	
308.15	0.45	0.000401	
308.15	0.5	0.000387	
308.15	0.55	0.000373	
308.15	0.6	0.00036	
308.15	0.65	0.000347	
308.15	0.7	0.000335	
308.15	0.75	0.000325	
308.15	0.8	0.000316	
308.15	0.85	0.000308	
308.15	0.9	0.000299	
308.15	0.95	0.000291	
308.15	1	0.000283	

System: diisopropyl ether + methylcyclohexane; phases: Liquid
Fixed: Pressure, kPa = 100.8
Property: Refractive index (Na D-line) (Liquid); method: Standard Abbe refractometry
Temperature, K	Mole fraction of diisopropyl ether	Refractive index (Na D-line)	uncertainty
288.15	0	1.42578	0.00033
288.15	0.0502	1.42321	0.00032
288.15	0.1	1.42014	0.00032
288.15	0.15	1.41715	0.00032
288.15	0.2	1.41419	0.00032
288.15	0.25	1.41129	0.00032
288.15	0.3	1.40842	0.00032
288.15	0.35	1.40558	0.00032
288.15	0.4	1.40277	0.00032
288.15	0.45	1.39999	0.00032
288.15	0.5	1.39721	0.00032
288.15	0.55	1.3945	0.00032
288.15	0.6	1.3918	0.00032
288.15	0.65	1.38914	0.00032
288.15	0.7	1.38652	0.00032
288.15	0.75	1.38392	0.00031
288.15	0.8	1.38136	0.00031
288.15	0.85	1.37883	0.00031
288.15	0.9	1.37629	0.00031
288.15	0.95	1.37377	0.00031
288.15	1	1.37126	0.00031
298.15	0	1.42053	0.00033
298.15	0.0502	1.41757	0.00032
298.15	0.1	1.4146	0.00032
298.15	0.15	1.41158	0.00032
298.15	0.2	1.40859	0.00032
298.15	0.25	1.40565	0.00032
298.15	0.3	1.40277	0.00032
298.15	0.35	1.3999	0.00032
298.15	0.4	1.39707	0.00032
298.15	0.45	1.39428	0.00032
298.15	0.5	1.3915	0.00032
298.15	0.55	1.38878	0.00032
298.15	0.6	1.3861	0.00032
298.15	0.65	1.38347	0.00032
298.15	0.7	1.38082	0.00032
298.15	0.75	1.37823	0.00031
298.15	0.8	1.37565	0.00031
298.15	0.85	1.37309	0.00031
298.15	0.9	1.37053	0.00031
298.15	0.95	1.36799	0.00031
298.15	1	1.36537	0.00031
308.15	0	1.41537	0.00033
308.15	0.0502	1.4125	0.00032
308.15	0.1	1.40957	0.00032
308.15	0.15	1.40663	0.00032
308.15	0.2	1.40365	0.00032
308.15	0.25	1.40068	0.00032
308.15	0.3	1.39775	0.00032
308.15	0.35	1.39484	0.00032
308.15	0.4	1.39197	0.00032
308.15	0.45	1.38912	0.00032
308.15	0.5	1.38631	0.00032
308.15	0.55	1.38356	0.00032
308.15	0.6	1.38083	0.00032
308.15	0.65	1.37818	0.00032
308.15	0.7	1.37552	0.00032
308.15	0.75	1.37286	0.00031
308.15	0.8	1.37025	0.00031
308.15	0.85	1.36765	0.00031
308.15	0.9	1.36503	0.00031
308.15	0.95	1.36243	0.00031
308.15	1	1.35954	0.00031

System: diisopropyl ether + methylcyclohexane; phases: Liquid
Fixed: Pressure, kPa = 100.8
Property: Mass density, kg/m3 (Liquid); method: VIBTUB:UFactor:2
Temperature, K	Mole fraction of diisopropyl ether	Mass density, kg/m3	uncertainty
288.15	0	773.4	0.3
288.15	0.0502	771.3	0.3
288.15	0.1	768.9	0.3
288.15	0.15	766.6	0.3
288.15	0.2	764.3	0.3
288.15	0.25	761.9	0.3
288.15	0.3	759.6	0.3
288.15	0.35	757.4	0.3
288.15	0.4	755.1	0.3
288.15	0.45	752.8	0.3
288.15	0.5	750.6	0.3
288.15	0.55	748.4	0.3
288.15	0.6	746.2	0.3
288.15	0.65	743.9	0.3
288.15	0.7	741.7	0.3
288.15	0.75	739.6	0.3
288.15	0.8	737.4	0.3
288.15	0.85	735.3	0.3
288.15	0.9	733.1	0.3
288.15	0.95	731	0.3
288.15	1	729	0.3
298.15	0	765	0.3
298.15	0.0502	762.5	0.3
298.15	0.1	760.1	0.3
298.15	0.15	757.7	0.3
298.15	0.2	755.3	0.3
298.15	0.25	752.9	0.3
298.15	0.3	750.5	0.3
298.15	0.35	748.1	0.3
298.15	0.4	745.8	0.3
298.15	0.45	743.4	0.3
298.15	0.5	741.1	0.3
298.15	0.55	738.8	0.3
298.15	0.6	736.5	0.3
298.15	0.65	734.2	0.3
298.15	0.7	731.9	0.3
298.15	0.75	729.6	0.3
298.15	0.8	727.3	0.3
298.15	0.85	725.1	0.3
298.15	0.9	722.9	0.3
298.15	0.95	720.6	0.3
298.15	1	718.6	0.3
308.15	0	756.3	0.3
308.15	0.0502	753.8	0.3
308.15	0.1	751.3	0.3
308.15	0.15	748.8	0.3
308.15	0.2	746.3	0.3
308.15	0.25	743.8	0.3
308.15	0.3	741.3	0.3
308.15	0.35	738.9	0.3
308.15	0.4	736.4	0.3
308.15	0.45	734	0.3
308.15	0.5	731.6	0.3
308.15	0.55	729.2	0.3
308.15	0.6	726.8	0.3
308.15	0.65	724.4	0.3
308.15	0.7	722	0.3
308.15	0.75	719.6	0.3
308.15	0.8	717.3	0.3
308.15	0.85	714.9	0.3
308.15	0.9	712.6	0.3
308.15	0.95	710.3	0.3
308.15	1	707.9	0.3

System: ethanol + diisopropyl ether + methylcyclohexane; phases: Liquid
Fixed: Temperature, K = 298.15
Fixed: Pressure, kPa = 100.8
Property: Viscosity, Pa*s (Liquid); method: CAPTUB:UFactor:2
Mole fraction of diisopropyl ether	Mole fraction of ethanol	Viscosity, Pa*s	uncertainty
0.05	0.0501	0.000639	9e-06
0.05	0.1	0.00064	9e-06
0.05	0.2	0.000643	9e-06
0.05	0.3	0.000656	9e-06
0.05	0.4	0.000682	9e-06
0.05	0.5	0.000709	9e-06
0.05	0.6	0.000746	1e-05
0.05	0.7	0.000793	1e-05
0.05	0.8	0.000843	1.1e-05
0.05	0.9	0.000914	1.1e-05
0.1	0.05	0.000609	8e-06
0.1	0.15	0.000605	8e-06
0.1	0.25	0.000612	8e-06
0.1	0.35	0.00063	8e-06
0.1	0.45	0.000654	9e-06
0.1	0.55	0.000689	9e-06
0.1	0.65	0.000725	9e-06
0.1	0.75	0.000772	1e-05
0.1	0.85	0.000831	1.1e-05
0.2	0.05	0.000549	8e-06
0.2	0.15	0.000552	8e-06
0.2	0.25	0.000559	8e-06
0.2	0.35	0.000572	8e-06
0.2	0.45	0.000593	8e-06
0.2	0.55	0.000613	8e-06
0.2	0.65	0.000644	9e-06
0.2	0.75	0.000687	9e-06
0.3	0.05	0.000502	7e-06
0.3	0.15	0.000503	7e-06
0.3	0.25	0.000508	7e-06
0.3	0.35	0.000517	7e-06
0.3	0.45	0.000541	7e-06
0.3	0.55	0.000555	8e-06
0.3	0.65	0.000582	8e-06
0.4	0.05	0.000461	7e-06
0.4	0.15	0.000459	7e-06
0.4	0.2599	0.000467	7e-06
0.4	0.35	0.000473	7e-06
0.4	0.45	0.000484	7e-06
0.4	0.55	0.000502	7e-06
0.5	0.05	0.000425	6e-06
0.5	0.15	0.000426	6e-06
0.5	0.25	0.000427	6e-06
0.5	0.35	0.000434	6e-06
0.5	0.45	0.000443	6e-06
0.5999	0.0501	0.000397	6e-06
0.6	0.1501	0.000397	6e-06
0.6	0.25	0.000399	6e-06
0.6	0.35	0.000404	6e-06
0.7	0.15	0.000371	6e-06
0.7	0.25	0.000372	6e-06
0.7004	0.05	0.00037	6e-06
0.8	0.05	0.000348	5e-06
0.8	0.15	0.000347	5e-06
0.9	0.05	0.000326	5e-06

System: ethanol + diisopropyl ether + methylcyclohexane; phases: Liquid
Fixed: Temperature, K = 298.15
Fixed: Pressure, kPa = 100.8
Property: Refractive index (Na D-line) (Liquid); method: Standard Abbe refractometry
Mole fraction of diisopropyl ether	Mole fraction of ethanol	Refractive index (Na D-line)	uncertainty
0.05	0.0501	1.41572	0.00032
0.05	0.1	1.41389	0.00032
0.05	0.2	1.41015	0.00032
0.05	0.3	1.40597	0.00032
0.05	0.4	1.40126	0.00032
0.05	0.5	1.39601	0.00032
0.05	0.6	1.39006	0.00032
0.05	0.7	1.38316	0.00031
0.05	0.8	1.37519	0.00031
0.05	0.9	1.366	0.00031
0.1	0.05	1.41273	0.00032
0.1	0.15	1.4091	0.00032
0.1	0.25	1.40497	0.00032
0.1	0.35	1.40043	0.00032
0.1	0.45	1.3954	0.00032
0.1	0.55	1.3897	0.00032
0.1	0.65	1.38313	0.00031
0.1	0.75	1.37565	0.00031
0.1	0.85	1.36686	0.00031
0.2	0.05	1.40691	0.00032
0.2	0.15	1.40309	0.00032
0.2	0.25	1.39881	0.00032
0.2	0.35	1.39409	0.00032
0.2	0.45	1.38887	0.00032
0.2	0.55	1.38282	0.00031
0.2	0.65	1.37597	0.00031
0.2	0.75	1.36825	0.00031
0.3	0.05	1.4013	0.00032
0.3	0.15	1.39721	0.00032
0.3	0.25	1.39267	0.00032
0.3	0.35	1.38787	0.00032
0.3	0.45	1.38221	0.00031
0.3	0.55	1.37604	0.00031
0.3	0.65	1.36899	0.00031
0.4	0.05	1.39537	0.00032
0.4	0.15	1.3913	0.00032
0.4	0.2599	1.38669	0.00032
0.4	0.35	1.38156	0.00031
0.4	0.45	1.37581	0.00031
0.4	0.55	1.36947	0.00031
0.5	0.05	1.3898	0.00032
0.5	0.15	1.38552	0.00032
0.5	0.25	1.38082	0.00031
0.5	0.35	1.37545	0.00031
0.5	0.45	1.36968	0.00031
0.5999	0.0501	1.38431	0.00032
0.6	0.1501	1.38001	0.00031
0.6	0.25	1.37499	0.00031
0.6	0.35	1.36951	0.00031
0.7	0.15	1.37437	0.00031
0.7	0.25	1.36926	0.00031
0.7004	0.05	1.37886	0.00031
0.8	0.05	1.37351	0.00031
0.8	0.15	1.36888	0.00031
0.9	0.05	1.36826	0.00031

System: ethanol + diisopropyl ether + methylcyclohexane; phases: Liquid
Fixed: Temperature, K = 298.15
Fixed: Pressure, kPa = 100.8
Property: Mass density, kg/m3 (Liquid); method: Vibrating tube method
Mole fraction of diisopropyl ether	Mole fraction of ethanol	Mass density, kg/m3	uncertainty
0.05	0.0501	762.3	
0.05	0.1	762.4	
0.05	0.2	762.8	
0.05	0.3	763.5	
0.05	0.4	764.6	
0.05	0.5	765.8	
0.05	0.6	767.5	
0.05	0.7	769.7	
0.05	0.8	772.7	
0.05	0.9	776.9	
0.1	0.05	760.1	
0.1	0.15	760.3	
0.1	0.25	760.9	
0.1	0.35	761.7	
0.1	0.45	762.8	
0.1	0.55	764.2	
0.1	0.65	766.1	
0.1	0.75	768.7	
0.1	0.85	772.3	
0.2	0.05	755.4	
0.2	0.15	755.7	
0.2	0.25	756.3	
0.2	0.35	757	
0.2	0.45	758	
0.2	0.55	759.4	
0.2	0.65	761.3	
0.2	0.75	763.8	
0.3	0.05	750.8	
0.3	0.15	751.1	
0.3	0.25	751.6	
0.3	0.35	752.3	
0.3	0.45	753.2	
0.3	0.55	754.5	
0.3	0.65	756.3	
0.4	0.05	746.1	
0.4	0.15	746.5	
0.4	0.2599	746.9	
0.4	0.35	747.5	
0.4	0.45	748.4	
0.4	0.55	749.6	
0.5	0.05	741.5	
0.5	0.15	741.9	
0.5	0.25	742.3	
0.5	0.35	742.7	
0.5	0.45	743.5	
0.5999	0.0501	736.8	
0.6	0.1501	737.2	
0.6	0.25	737.6	
0.6	0.35	738	
0.7	0.15	732.6	
0.7	0.25	732.9	
0.7004	0.05	732.3	
0.8	0.05	727.7	
0.8	0.15	728	
0.9	0.05	723.2	
