Measured thermophysical data. Measurement and Correlation of Vapor-Liquid Equilibria for Water + 2-Propanol, Water + 2-Butanol, and Water + 2-Pentanol Systems at High Temperatures and Pressures
Source: J. Chem. Eng. Data, 2006, 10.1021/je0501336
Compound 1: water, H2O, InChI=1S/H2O/h1H2, purity 99%
Compound 2: propan-2-ol, C3H8O, InChI=1S/C3H8O/c1-3(2)4/h3-4H,1-2H3
Compound 3: butan-2-ol, C4H10O, InChI=1S/C4H10O/c1-3-4(2)5/h4-5H,3H2,1-2H3
Compound 4: pentan-2-ol, C5H12O, InChI=1S/C5H12O/c1-3-4-5(2)6/h5-6H,3-4H2,1-2H3

System: propan-2-ol + water; phases: Liquid, Gas
Property: Vapor or sublimation pressure, kPa (Liquid); method: EBULLIO:UFactor:8
Mole fraction of water	Temperature, K	Vapor or sublimation pressure, kPa	uncertainty
0.854	573	11480	470
0.87	573	11280	460
0.915	573	10870	440
0.917	584	7990	170
0.932	573	10540	430
0.953	573	10130	410
0.956	584	7430	170
0.976	573	9560	390
0.986	584	6490	140

System: propan-2-ol + water; phases: Gas, Liquid
Property: Mole fraction of water (Gas); method: CHROM:UFactor:4
Mole fraction of water	Temperature, K	Mole fraction of water	uncertainty
0.854	573	0.758	0.012
0.87	573	0.759	0.012
0.915	573	0.803	0.01
0.917	584	0.764	0.012
0.932	573	0.812	0.009
0.953	573	0.862	0.007
0.956	584	0.813	0.009
0.976	573	0.912	0.005
0.986	584	0.927	0.004

System: butan-2-ol + water; phases: Liquid, Gas
Property: Vapor or sublimation pressure, kPa (Liquid); method: EBULLIO:UFactor:8
Mole fraction of water	Temperature, K	Vapor or sublimation pressure, kPa	uncertainty
0.273	523	4720	100
0.398	523	5080	50
0.543	523	5330	60
0.702	548	7890	100
0.813	573	11130	110
0.826	548	7700	90
0.84	573	10900	110
0.868	523	5230	50
0.877	573	10720	100
0.91	548	7390	80
0.934	573	10260	100
0.94	548	7220	80
0.965	573	9780	90
0.969	523	4800	50
0.969	548	6740	110
0.985	548	6380	70
0.987	523	4460	50
0.988	573	8990	90

System: butan-2-ol + water; phases: Gas, Liquid
Property: Mole fraction of water (Gas); method: CHROM:UFactor:4
Mole fraction of water	Temperature, K	Mole fraction of water	uncertainty
0.273	523	0.468	0.023
0.398	523	0.546	0.022
0.543	523	0.591	0.02
0.702	548	0.684	0.016
0.813	573	0.757	0.012
0.826	548	0.729	0.013
0.84	573	0.77	0.011
0.868	523	0.684	0.016
0.877	573	0.786	0.011
0.91	548	0.783	0.011
0.934	573	0.839	0.008
0.94	548	0.804	0.01
0.965	573	0.872	0.007
0.969	523	0.809	0.01
0.969	548	0.861	0.007
0.985	548	0.904	0.005
0.987	523	0.882	0.006
0.988	573	0.942	0.003

System: pentan-2-ol + water; phases: Liquid, Gas
Fixed: Temperature, K = 523
Property: Vapor or sublimation pressure, kPa (Liquid); method: EBULLIO:UFactor:8
Mole fraction of water	Vapor or sublimation pressure, kPa	uncertainty
0.241	3300	70
0.334	4000	90
0.416	4340	90
0.864	4940	110
0.971	4710	100
0.993	4340	90

System: pentan-2-ol + water; phases: Gas, Liquid
Fixed: Temperature, K = 523
Property: Mole fraction of water (Gas); method: CHROM:UFactor:4
Mole fraction of water	Mole fraction of water	uncertainty
0.241	0.431	0.021
0.334	0.581	0.02
0.416	0.639	0.018
0.864	0.764	0.012
0.971	0.823	0.009
0.993	0.901	0.005
