Measured thermophysical data. Excess Enthalpy, Excess Volume, and Speed of Sound Deviation for the Mixtures ss-Pinene + Ethanol and ss-Pinene + 1-propanol at (283.15, 298.15 and, 313.15) K
Source: J. Chem. Eng. Data, 2005, 10.1021/je050006+
Compound 1: .beta.-pinene, C10H16, InChI=1S/C10H16/c1-7-4-5-8-6-9(7)10(8,2)3/h8-9H,1,4-6H2,2-3H3, purity 99%
Compound 2: ethanol, C2H6O, InChI=1S/C2H6O/c1-2-3/h3H,2H2,1H3, purity 99.9%
Compound 3: propan-1-ol, C3H8O, InChI=1S/C3H8O/c1-2-3-4/h4H,2-3H2,1H3, purity 99%

System: .beta.-pinene; phases: Liquid
Fixed: Pressure, kPa = 101.325
Property: Speed of sound, m/s (Liquid); method: PULSEH:UFactor:4
Temperature, K	Speed of sound, m/s	uncertainty
283.15	1356.8	3.7
298.15	1298.7	3.5
313.15	1232.8	3.4

System: .beta.-pinene; phases: Liquid
Fixed: Pressure, kPa = 101.325
Property: Mass density, kg/m3 (Liquid); method: VIBTUB:UFactor:4
Temperature, K	Mass density, kg/m3	uncertainty
283.15	879.07	0.55
298.15	866.97	0.55
313.15	855.5	0.56

System: ethanol; phases: Liquid
Fixed: Pressure, kPa = 101.325
Property: Speed of sound, m/s (Liquid); method: PULSEH:UFactor:4
Temperature, K	Speed of sound, m/s	uncertainty
283.15	1195.2	3.2
298.15	1143.3	3.1
313.15	1093.8	3

System: ethanol; phases: Liquid
Fixed: Pressure, kPa = 101.325
Property: Mass density, kg/m3 (Liquid); method: VIBTUB:UFactor:4
Temperature, K	Mass density, kg/m3	uncertainty
283.15	797.94	0.45
298.15	785.12	0.47
313.15	772.53	0.49

System: propan-1-ol; phases: Liquid
Fixed: Pressure, kPa = 101.325
Property: Speed of sound, m/s (Liquid); method: PULSEH:UFactor:4
Temperature, K	Speed of sound, m/s	uncertainty
283.15	1257.9	3.5
298.15	1206	3.4
313.15	1155.1	3.3

System: propan-1-ol; phases: Liquid
Fixed: Pressure, kPa = 101.325
Property: Mass density, kg/m3 (Liquid); method: VIBTUB:UFactor:4
Temperature, K	Mass density, kg/m3	uncertainty
283.15	811.48	0.59
298.15	799.66	0.6
313.15	787.76	0.61

System: ethanol + .beta.-pinene; phases: Liquid
Fixed: Pressure, kPa = 101.3
Property: Excess molar enthalpy (molar enthalpy of mixing), kJ/mol (Liquid); method: FLOW:UFactor:2
Temperature, K	Mole fraction of .beta.-pinene	Excess molar enthalpy (molar enthalpy of mixing), kJ/mol	uncertainty
283.15	0.071	0.109	0.004
283.15	0.142	0.206	0.006
283.15	0.269	0.334	0.009
283.15	0.394	0.417	0.01
283.15	0.496	0.457	0.011
283.15	0.599	0.489	0.012
283.15	0.689	0.49	0.012
283.15	0.773	0.482	0.012
283.15	0.864	0.44	0.011
283.15	0.93	0.353	0.009
283.15	0.964	0.278	0.008
298.15	0.071	0.146	0.005
298.15	0.142	0.27	0.007
298.15	0.269	0.437	0.011
298.15	0.394	0.539	0.013
298.15	0.496	0.587	0.014
298.15	0.599	0.607	0.014
298.15	0.689	0.605	0.014
298.15	0.773	0.582	0.014
298.15	0.864	0.51	0.012
298.15	0.93	0.39	0.01
298.15	0.964	0.325	0.009
313.15	0.071	0.181	0.006
313.15	0.142	0.34	0.009
313.15	0.269	0.564	0.013
313.15	0.394	0.715	0.016
313.15	0.496	0.793	0.018
313.15	0.599	0.835	0.019
313.15	0.689	0.831	0.019
313.15	0.773	0.8	0.018
313.15	0.864	0.7	0.016
313.15	0.93	0.575	0.014
313.15	0.964	0.395	0.01

System: ethanol + .beta.-pinene; phases: Liquid
Fixed: Pressure, kPa = 101.3
Property: Speed of sound, m/s (Liquid); method: PULSEH:UFactor:4
Temperature, K	Mole fraction of .beta.-pinene	Speed of sound, m/s	uncertainty
283.15	0.0507	1209.5	3.6
283.15	0.1012	1222.5	3.5
283.15	0.2046	1246.3	3.3
283.15	0.3015	1265.4	3.2
283.15	0.4042	1282.4	3.1
283.15	0.5145	1298.8	3
283.15	0.6019	1309.4	3
283.15	0.6981	1320.5	3
283.15	0.7932	1330.4	3
283.15	0.8762	1339.3	3
283.15	0.9355	1345.8	3.2
283.15	0.9799	1353.4	3.4
298.15	0.0502	1156.2	3.4
298.15	0.1022	1168.9	3.3
298.15	0.1999	1189.9	3.2
298.15	0.3045	1209	3
298.15	0.4019	1224.1	2.9
298.15	0.5	1237.4	2.9
298.15	0.6017	1249.8	2.9
298.15	0.6999	1260.6	2.8
298.15	0.7626	1264.9	2.9
298.15	0.89	1280.4	3
298.15	0.9415	1286.3	3.2
298.15	0.98	1294.5	3.2
313.15	0.052	1104.8	3.3
313.15	0.1041	1116.6	3.1
313.15	0.2043	1135.7	3
313.15	0.3029	1151.7	2.9
313.15	0.4046	1167	2.8
313.15	0.4981	1178.5	2.8
313.15	0.6014	1189.8	2.7
313.15	0.6979	1198.7	2.7
313.15	0.809	1207	2.7
313.15	0.8844	1213.6	2.9
313.15	0.9356	1221.9	3.1
313.15	0.985	1228.9	3.1

System: ethanol + .beta.-pinene; phases: Liquid
Fixed: Pressure, kPa = 101.3
Property: Mass density, kg/m3 (Liquid); method: VIBTUB:UFactor:4
Temperature, K	Mole fraction of .beta.-pinene	Mass density, kg/m3	uncertainty
283.15	0.0507	807.27	1.71
283.15	0.1012	815.62	1.49
283.15	0.2046	829.52	1.28
283.15	0.3015	839.85	1.04
283.15	0.4042	848.66	0.88
283.15	0.5145	856.44	0.78
283.15	0.6019	861.6	0.7
283.15	0.6981	866.52	0.66
283.15	0.7932	870.77	0.65
283.15	0.8762	874.13	0.64
283.15	0.9355	876.41	0.65
283.15	0.9799	878.19	0.67
298.15	0.0502	794.53	1.69
298.15	0.1022	803.02	1.49
298.15	0.1999	816.23	1.28
298.15	0.3045	827.43	1.06
298.15	0.4019	835.85	0.9
298.15	0.5	842.91	0.79
298.15	0.6017	849.06	0.72
298.15	0.6999	854.18	0.69
298.15	0.7626	857.17	0.65
298.15	0.89	862.45	0.66
298.15	0.9415	864.49	0.67
298.15	0.98	866.07	0.71
313.15	0.052	782.17	1.71
313.15	0.1041	790.76	1.49
313.15	0.2043	804.04	1.28
313.15	0.3029	814.57	1.06
313.15	0.4046	823.44	0.92
313.15	0.4981	830.17	0.8
313.15	0.6014	836.54	0.74
313.15	0.6979	841.7	0.69
313.15	0.809	846.76	0.68
313.15	0.8844	850.12	0.68
313.15	0.9356	852.26	0.7
313.15	0.985	854.6	0.73

System: propan-1-ol + .beta.-pinene; phases: Liquid
Fixed: Pressure, kPa = 101.3
Property: Excess molar enthalpy (molar enthalpy of mixing), kJ/mol (Liquid); method: FLOW:UFactor:2
Temperature, K	Mole fraction of .beta.-pinene	Excess molar enthalpy (molar enthalpy of mixing), kJ/mol	uncertainty
283.15	0.067	0.061	0.003
283.15	0.135	0.127	0.005
283.15	0.263	0.236	0.007
283.15	0.38	0.316	0.008
283.15	0.488	0.373	0.009
283.15	0.585	0.403	0.01
283.15	0.677	0.416	0.01
283.15	0.764	0.406	0.01
283.15	0.855	0.36	0.009
283.15	0.926	0.282	0.008
283.15	0.97	0.198	0.006
298.15	0.067	0.089	0.004
298.15	0.135	0.177	0.006
298.15	0.263	0.336	0.009
298.15	0.38	0.456	0.011
298.15	0.488	0.539	0.013
298.15	0.585	0.586	0.014
298.15	0.677	0.613	0.014
298.15	0.764	0.587	0.014
298.15	0.855	0.533	0.013
298.15	0.926	0.409	0.01
298.15	0.97	0.262	0.007
313.15	0.067	0.116	0.004
313.15	0.135	0.243	0.007
313.15	0.263	0.462	0.011
313.15	0.38	0.626	0.015
313.15	0.488	0.742	0.017
313.15	0.585	0.802	0.018
313.15	0.677	0.822	0.018
313.15	0.764	0.788	0.018
313.15	0.855	0.682	0.016
313.15	0.926	0.519	0.012
313.15	0.97	0.331	0.009

System: propan-1-ol + .beta.-pinene; phases: Liquid
Fixed: Pressure, kPa = 101.3
Property: Speed of sound, m/s (Liquid); method: PULSEH:UFactor:4
Temperature, K	Mole fraction of .beta.-pinene	Speed of sound, m/s	uncertainty
283.15	0.0505	1265.6	3.1
283.15	0.1024	1272.7	3.1
283.15	0.2046	1285.3	3
283.15	0.3046	1296	3
283.15	0.405	1305.5	3
283.15	0.5035	1313.7	3
283.15	0.599	1321.2	2.9
283.15	0.7026	1328.8	3
283.15	0.8026	1336.3	3
283.15	0.8834	1342.6	3
283.15	0.9488	1348.5	3.1
283.15	0.9812	1352.9	3.2
298.15	0.053	1212.9	2.9
298.15	0.1036	1219	2.9
298.15	0.2039	1229.7	2.9
298.15	0.3038	1239.1	2.9
298.15	0.3966	1246.9	2.9
298.15	0.5122	1255.7	2.8
298.15	0.6005	1261.8	2.8
298.15	0.699	1268.6	2.9
298.15	0.793	1275.4	2.9
298.15	0.8937	1283.3	2.9
298.15	0.9426	1287.9	3
298.15	0.9834	1293.6	3
313.15	0.0514	1160.5	2.8
313.15	0.1021	1165.7	2.8
313.15	0.2032	1175	2.8
313.15	0.307	1183.4	2.8
313.15	0.405	1190.4	2.7
313.15	0.5007	1196.5	2.7
313.15	0.6004	1202	2.7
313.15	0.7051	1206.4	2.7
313.15	0.7928	1213.3	2.8
313.15	0.8931	1222.1	2.8
313.15	0.9407	1225.6	2.8
313.15	0.9786	1228.9	2.9

System: propan-1-ol + .beta.-pinene; phases: Liquid
Fixed: Pressure, kPa = 101.3
Property: Mass density, kg/m3 (Liquid); method: VIBTUB:UFactor:4
Temperature, K	Mole fraction of .beta.-pinene	Mass density, kg/m3	uncertainty
283.15	0.0505	818.13	1.31
283.15	0.1024	824.2	1.21
283.15	0.2046	834.58	1.09
283.15	0.3046	843.01	0.97
283.15	0.405	850.35	0.88
283.15	0.5035	856.46	0.81
283.15	0.599	861.68	0.75
283.15	0.7026	866.65	0.72
283.15	0.8026	871.06	0.69
283.15	0.8834	874.33	0.67
283.15	0.9489	876.85	0.68
283.15	0.9812	878.27	0.7
298.15	0.053	806.47	1.31
298.15	0.1036	812.35	1.2
298.15	0.2039	822.4	1.09
298.15	0.3038	830.81	0.97
298.15	0.3966	837.49	0.87
298.15	0.5122	844.67	0.81
298.15	0.6005	849.44	0.76
298.15	0.699	854.2	0.73
298.15	0.7931	858.43	0.7
298.15	0.8937	862.59	0.69
298.15	0.9426	864.54	0.69
298.15	0.9834	866.31	0.7
313.15	0.0514	794.24	1.29
313.15	0.1021	800.04	1.2
313.15	0.2032	810.14	1.08
313.15	0.307	818.69	0.96
313.15	0.405	825.65	0.88
313.15	0.5007	831.57	0.82
313.15	0.6004	837.06	0.77
313.15	0.7051	842.2	0.74
313.15	0.7928	846.14	0.71
313.15	0.8931	850.44	0.7
313.15	0.9407	852.42	0.7
313.15	0.9786	854.11	0.71
