Measured thermophysical data. Volumetric and Speed of Sound of Ionic Liquid, 1-Butyl-3-methylimidazolium Hexafluorophosphate with Acetonitrile and Methanol at T ) (298.15 to 318.15) K
Source: J. Chem. Eng. Data, 2005, 10.1021/je050165t
Compound 1: 1-butyl-3-methylimidazolium hexafluorophosphate, C8H15F6N2P, InChI=1S/C8H15N2.F6P/c1-3-4-5-10-7-6-9(2)8-10;1-7(2,3,4,5)6/h6-8H,3-5H2,1-2H3;/q+1;-1, purity 98%
Compound 2: acetonitrile, C2H3N, InChI=1S/C2H3N/c1-2-3/h1H3, purity 99.9%
Compound 3: methanol, CH4O, InChI=1S/CH4O/c1-2/h2H,1H3, purity 99.9%

System: 1-butyl-3-methylimidazolium hexafluorophosphate; phases: Liquid
Fixed: Pressure, kPa = 101
Property: Speed of sound, m/s (Liquid); method: LVPAI:UFactor:4
Temperature, K	Speed of sound, m/s	uncertainty
298.15	1442.41	6.34
303.15	1430.58	6.31
308.15	1418.95	6.27
313.15	1407.53	6.24
318.15	1396.27	6.21

System: 1-butyl-3-methylimidazolium hexafluorophosphate; phases: Liquid
Fixed: Pressure, kPa = 101
Property: Mass density, kg/m3 (Liquid); method: VIBTUB:UFactor:16
Temperature, K	Mass density, kg/m3	uncertainty
298.15	1366.657	3.12
303.15	1362.401	3.094
308.15	1358.304	3.069
313.15	1354.195	3.044
318.15	1350.081	3.02

System: acetonitrile; phases: Liquid
Fixed: Pressure, kPa = 101
Property: Speed of sound, m/s (Liquid); method: LVPAI:UFactor:4
Temperature, K	Speed of sound, m/s	uncertainty
298.15	1278.62	5.51
303.15	1258.73	5.45
308.15	1238.66	5.39
313.15	1218.52	5.33
318.15	1198.32	5.26

System: acetonitrile; phases: Liquid
Fixed: Pressure, kPa = 101
Property: Mass density, kg/m3 (Liquid); method: VIBTUB:UFactor:16
Temperature, K	Mass density, kg/m3	uncertainty
298.15	776.533	1.895
303.15	771.116	1.929
308.15	765.66	1.963
313.15	760.162	1.997
318.15	754.462	2.033

System: methanol; phases: Liquid
Fixed: Pressure, kPa = 101
Property: Speed of sound, m/s (Liquid); method: LVPAI:UFactor:4
Temperature, K	Speed of sound, m/s	uncertainty
298.15	1102.68	4.97
303.15	1086.37	4.92
308.15	1070.11	4.87
313.15	1053.96	4.82
318.15	1037.91	4.77

System: methanol; phases: Liquid
Fixed: Pressure, kPa = 101
Property: Mass density, kg/m3 (Liquid); method: VIBTUB:UFactor:16
Temperature, K	Mass density, kg/m3	uncertainty
298.15	786.531	1.832
303.15	781.808	1.862
308.15	777.066	1.892
313.15	772.283	1.922
318.15	767.474	1.952

System: acetonitrile + 1-butyl-3-methylimidazolium hexafluorophosphate; phases: Liquid
Fixed: Pressure, kPa = 101
Property: Speed of sound, m/s (Liquid); method: LVPAI:UFactor:4
Temperature, K	Mole fraction of 1-butyl-3-methylimidazolium hexafluorophosphate	Speed of sound, m/s	uncertainty
298.15	0	1278.62	5.51
298.15	0.0453	1293.53	5.56
298.15	0.0935	1308.88	5.61
298.15	0.2007	1341.88	5.73
298.15	0.2966	1366.45	5.82
298.15	0.4241	1388.99	5.92
298.15	0.514	1402	5.99
298.15	0.6186	1413.51	6.06
298.15	0.7285	1423.93	6.14
298.15	0.7886	1427.94	6.18
298.15	0.8925	1436.54	6.26
298.15	1	1442.41	6.34
303.15	0	1258.73	5.45
303.15	0.0453	1275.06	5.5
303.15	0.0935	1291.76	5.56
303.15	0.2007	1326.18	5.68
303.15	0.2966	1352.23	5.78
303.15	0.4241	1375.61	5.88
303.15	0.514	1389.19	5.95
303.15	0.6186	1401.05	6.03
303.15	0.7285	1411.85	6.11
303.15	0.7886	1415.92	6.15
303.15	0.8925	1424.49	6.23
303.15	1	1430.58	6.31
308.15	0	1238.66	5.39
308.15	0.0453	1256.66	5.45
308.15	0.0935	1274.6	5.51
308.15	0.2007	1310.91	5.63
308.15	0.2966	1338.1	5.73
308.15	0.4241	1362.34	5.84
308.15	0.514	1376.46	5.91
308.15	0.6186	1388.69	5.99
308.15	0.7285	1399.9	6.07
308.15	0.7886	1404.07	6.11
308.15	0.8925	1412.62	6.19
308.15	1	1418.95	6.27
313.15	0	1218.52	5.33
313.15	0.0453	1238.37	5.39
313.15	0.0935	1257.52	5.45
313.15	0.2007	1295.79	5.59
313.15	0.2966	1324.03	5.69
313.15	0.4241	1349.24	5.8
313.15	0.514	1363.79	5.87
313.15	0.6186	1376.5	5.95
313.15	0.7285	1388.01	6.04
313.15	0.7886	1392.36	6.08
313.15	0.8925	1401.01	6.16
313.15	1	1407.53	6.24
318.15	0	1198.32	5.26
318.15	0.0453	1220.16	5.33
318.15	0.0935	1240.52	5.4
318.15	0.2007	1280.89	5.54
318.15	0.2966	1310.05	5.65
318.15	0.4241	1336.27	5.76
318.15	0.514	1351.22	5.84
318.15	0.6186	1364.43	5.92
318.15	0.7285	1376.25	6
318.15	0.7886	1380.84	6.04
318.15	0.8925	1389.5	6.12
318.15	1	1396.27	6.21

System: acetonitrile + 1-butyl-3-methylimidazolium hexafluorophosphate; phases: Liquid
Fixed: Pressure, kPa = 101
Property: Mass density, kg/m3 (Liquid); method: VIBTUB:UFactor:16
Temperature, K	Mole fraction of 1-butyl-3-methylimidazolium hexafluorophosphate	Mass density, kg/m3	uncertainty
298.15	0	776.533	1.895
298.15	0.0453	878.471	1.262
298.15	0.0935	959.103	0.773
298.15	0.2007	1085.082	1.08
298.15	0.2966	1159.895	1.557
298.15	0.4241	1228.439	2.016
298.15	0.514	1263.518	2.259
298.15	0.6186	1294.947	2.489
298.15	0.7285	1320.819	2.695
298.15	0.7886	1332.552	2.796
298.15	0.8925	1350.778	2.961
298.15	1	1366.657	3.12
303.15	0	771.116	1.929
303.15	0.0453	873.235	1.295
303.15	0.0935	954.02	0.804
303.15	0.2007	1080.247	1.051
303.15	0.2966	1155.226	1.529
303.15	0.4241	1223.914	1.989
303.15	0.514	1258.712	2.229
303.15	0.6186	1290.953	2.465
303.15	0.7285	1316.586	2.669
303.15	0.7886	1328.297	2.77
303.15	0.8925	1346.331	2.934
303.15	1	1362.401	3.094
308.15	0	765.66	1.963
308.15	0.0453	866.821	1.335
308.15	0.0935	948.924	0.835
308.15	0.2007	1075.415	1.022
308.15	0.2966	1150.557	1.5
308.15	0.4241	1219.397	1.961
308.15	0.514	1254.638	2.205
308.15	0.6186	1286.592	2.438
308.15	0.7285	1312.315	2.643
308.15	0.7886	1324.054	2.744
308.15	0.8925	1342.199	2.909
308.15	1	1358.304	3.069
313.15	0	760.162	1.997
313.15	0.0453	862.713	1.36
313.15	0.0935	943.817	0.866
313.15	0.2007	1070.583	0.993
313.15	0.2966	1145.899	1.472
313.15	0.4241	1214.893	1.934
313.15	0.514	1250.219	2.178
313.15	0.6186	1282.249	2.411
313.15	0.7285	1308.063	2.617
313.15	0.7886	1319.812	2.718
313.15	0.8925	1338.047	2.884
313.15	1	1354.195	3.044
318.15	0	754.462	2.033
318.15	0.0453	857.428	1.393
318.15	0.0935	938.706	0.898
318.15	0.2007	1065.762	0.964
318.15	0.2966	1141.242	1.444
318.15	0.4241	1210.405	1.906
318.15	0.514	1245.806	2.151
318.15	0.6186	1277.921	2.385
318.15	0.7285	1303.82	2.592
318.15	0.7886	1315.594	2.693
318.15	0.8925	1333.888	2.859
318.15	1	1350.081	3.02

System: methanol + 1-butyl-3-methylimidazolium hexafluorophosphate; phases: Liquid
Fixed: Pressure, kPa = 101
Property: Speed of sound, m/s (Liquid); method: LVPAI:UFactor:4
Temperature, K	Mole fraction of 1-butyl-3-methylimidazolium hexafluorophosphate	Speed of sound, m/s	uncertainty
298.15	0	1102.68	4.97
298.15	0.0223	1132.08	5.06
298.15	0.0484	1155.52	5.13
298.15	0.0786	1180.74	5.21
298.15	0.1869	1261.62	5.48
298.15	0.2156	1280.66	5.54
298.15	0.3573	1340.69	5.76
298.15	0.4572	1366.68	5.87
298.15	0.6222	1400.51	6.03
298.15	0.7736	1421.1	6.16
298.15	0.9208	1435.22	6.27
298.15	1	1442.41	6.34
303.15	0	1086.37	4.92
303.15	0.0223	1116.93	5.01
303.15	0.0484	1141.54	5.09
303.15	0.0786	1167.69	5.17
303.15	0.1869	1249.8	5.44
303.15	0.2156	1268.92	5.51
303.15	0.3573	1329.07	5.72
303.15	0.4572	1355.14	5.83
303.15	0.6222	1388.86	5.99
303.15	0.7736	1409.46	6.12
303.15	0.9208	1423.47	6.24
303.15	1	1430.58	6.31
308.15	0	1070.11	4.87
308.15	0.0223	1101.8	4.97
308.15	0.0484	1127.55	5.05
308.15	0.0786	1154.62	5.13
308.15	0.1869	1237.97	5.41
308.15	0.2156	1257.18	5.47
308.15	0.3573	1317.49	5.69
308.15	0.4572	1343.61	5.79
308.15	0.6222	1377.38	5.96
308.15	0.7736	1397.95	6.09
308.15	0.9208	1411.94	6.21
308.15	1	1418.95	6.27
313.15	0	1053.96	4.82
313.15	0.0223	1086.69	4.92
313.15	0.0484	1113.58	5
313.15	0.0786	1141.58	5.09
313.15	0.1869	1226.13	5.37
313.15	0.2156	1245.49	5.43
313.15	0.3573	1305.95	5.65
313.15	0.4572	1332.11	5.76
313.15	0.6222	1365.94	5.92
313.15	0.7736	1386.56	6.05
313.15	0.9208	1400.58	6.17
313.15	1	1407.53	6.24
318.15	0	1037.91	4.77
318.15	0.0223	1071.68	4.87
318.15	0.0484	1099.67	4.96
318.15	0.0786	1128.58	5.05
318.15	0.1869	1214.27	5.33
318.15	0.2156	1233.85	5.4
318.15	0.3573	1294.5	5.62
318.15	0.4572	1320.7	5.72
318.15	0.6222	1354.65	5.89
318.15	0.7736	1375.31	6.02
318.15	0.9208	1389.38	6.14
318.15	1	1396.27	6.21

System: methanol + 1-butyl-3-methylimidazolium hexafluorophosphate; phases: Liquid
Fixed: Pressure, kPa = 101
Property: Mass density, kg/m3 (Liquid); method: VIBTUB:UFactor:16
Temperature, K	Mole fraction of 1-butyl-3-methylimidazolium hexafluorophosphate	Mass density, kg/m3	uncertainty
298.15	0	786.531	1.832
298.15	0.0223	852.499	1.422
298.15	0.0484	914.856	1.038
298.15	0.0786	972.943	0.685
298.15	0.1869	1111.366	1.241
298.15	0.2156	1136.5	1.394
298.15	0.3573	1223.908	1.966
298.15	0.4572	1263.599	2.238
298.15	0.6222	1308.958	2.576
298.15	0.7736	1337.498	2.818
298.15	0.9208	1357.705	3.019
298.15	1	1366.657	3.12
303.15	0	781.808	1.862
303.15	0.0223	847.778	1.451
303.15	0.0484	910.156	1.067
303.15	0.0786	968.272	0.713
303.15	0.1869	1106.761	1.213
303.15	0.2156	1131.894	1.366
303.15	0.3573	1219.386	1.939
303.15	0.4572	1259.044	2.21
303.15	0.6222	1304.585	2.549
303.15	0.7736	1333.239	2.792
303.15	0.9208	1353.548	2.994
303.15	1	1362.401	3.094
308.15	0	777.066	1.892
308.15	0.0223	843.039	1.481
308.15	0.0484	905.442	1.096
308.15	0.0786	963.583	0.741
308.15	0.1869	1102.148	1.185
308.15	0.2156	1127.297	1.338
308.15	0.3573	1214.871	1.911
308.15	0.4572	1254.805	2.184
308.15	0.6222	1300.243	2.522
308.15	0.7736	1328.992	2.766
308.15	0.9208	1349.387	2.969
308.15	1	1358.304	3.069
313.15	0	772.283	1.922
313.15	0.0223	838.277	1.51
313.15	0.0484	900.703	1.125
313.15	0.0786	958.877	0.77
313.15	0.1869	1097.528	1.158
313.15	0.2156	1122.699	1.31
313.15	0.3573	1210.364	1.884
313.15	0.4572	1250.504	2.157
313.15	0.6222	1295.964	2.496
313.15	0.7736	1324.76	2.74
313.15	0.9208	1345.226	2.944
313.15	1	1354.195	3.044
318.15	0	767.474	1.952
318.15	0.0223	833.49	1.54
318.15	0.0484	895.952	1.155
318.15	0.0786	954.071	0.8
318.15	0.1869	1092.914	1.129
318.15	0.2156	1118.121	1.282
318.15	0.3573	1205.873	1.856
318.15	0.4572	1246.033	2.13
318.15	0.6222	1291.779	2.471
318.15	0.7736	1320.543	2.715
318.15	0.9208	1341.078	2.918
318.15	1	1350.081	3.02
