Measured thermophysical data. Surface Tensions and Densities of Oxalic, Malonic, Succinic, Maleic, Malic, and cis-Pinonic Acids
Source: J. Chem. Eng. Data, 2006, 10.1021/je050366x
Compound 1: ethanedioic acid, C2H2O4, InChI=1S/C2H2O4/c3-1(4)2(5)6/h(H,3,4)(H,5,6), purity 99.5%
Compound 2: water, H2O, InChI=1S/H2O/h1H2
Compound 3: propanedioic acid, C3H4O4, InChI=1S/C3H4O4/c4-2(5)1-3(6)7/h1H2,(H,4,5)(H,6,7), purity 99%
Compound 4: butanedioic acid, C4H6O4, InChI=1S/C4H6O4/c5-3(6)1-2-4(7)8/h1-2H2,(H,5,6)(H,7,8)
Compound 5: cis-1,4-butenedioic acid, C4H4O4, InChI=1S/C4H4O4/c5-3(6)1-2-4(7)8/h1-2H,(H,5,6)(H,7,8)/b2-1-, purity 99%
Compound 6: hydroxybutanedioic acid, C4H6O5, InChI=1S/C4H6O5/c5-2(4(8)9)1-3(6)7/h2,5H,1H2,(H,6,7)(H,8,9), purity 99%
Compound 7: cis-pinonic acid, C10H16O3, InChI=1S/C10H16O3/c1-6(11)8-4-7(5-9(12)13)10(8,2)3/h7-8H,4-5H2,1-3H3,(H,12,13)/t7-,8+/m0/s1, purity 98%

System: ethanedioic acid + water; phases: Liquid, Air at 1 atmosphere
Fixed: Mole fraction of ethanedioic acid = 0.00716
Property: Surface tension liquid-gas, N/m (Liquid); method: Ring tensiometer
Temperature, K	Surface tension liquid-gas, N/m	uncertainty
280.2	0.0737	0.0012
280.5	0.0737	0.0012
281.1	0.0738	0.0012
281.2	0.0737	0.0012
283.9	0.0733	0.0012
284.5	0.0732	0.0012
285.1	0.0732	0.0012
285.7	0.073	0.0012
288.2	0.0727	0.0012
288.7	0.0724	0.0012
289.7	0.0726	0.0012
290.1	0.0724	0.0012
292.2	0.072	0.0012
293	0.0719	0.0012
293.7	0.0719	0.0012
294.3	0.0717	0.0012
296.2	0.0713	0.0012
297.5	0.0712	0.0012
298	0.0712	0.0012
298.5	0.0711	0.0012
301.2	0.0704	0.0012
302.1	0.0706	0.0012
302.8	0.0703	0.0012
304.7	0.07	0.0012

System: ethanedioic acid + water; phases: Liquid, Air at 1 atmosphere
Fixed: Pressure, kPa = 100
Property: Surface tension liquid-gas, N/m (Liquid); method: Ring tensiometer
Mole fraction of ethanedioic acid	Surface tension liquid-gas, N/m	uncertainty
0.0017	0.0716	0.0012
0.0034	0.0714	0.0012
0.005	0.0712	0.0012
0.0067	0.071	0.0012
0.0083	0.0707	0.0012
0.0098	0.0707	0.0012
0.0115	0.0705	0.0012
0.0121	0.0707	0.0012
0.0131	0.0703	0.0012
0.0146	0.0701	0.0012

System: ethanedioic acid + water; phases: Liquid
Fixed: Temperature, K = 298
Fixed: Pressure, kPa = 100
Property: Mass density, kg/m3 (Liquid); method: Pycnometric method
Mole fraction of ethanedioic acid	Mass density, kg/m3	uncertainty
0.002	996	1
0.003	1001	1
0.005	1008	1
0.007	1012	1
0.008	1016	1
0.01	1019	1
0.012	1026	1
0.013	1030	1
0.015	1034	1

System: propanedioic acid + water; phases: Liquid, Air at 1 atmosphere
Fixed: Temperature, K = 298
Property: Surface tension liquid-gas, N/m (Liquid); method: Ring tensiometer
Mole fraction of propanedioic acid	Surface tension liquid-gas, N/m	uncertainty
0.01	0.0692	0.0011
0.017	0.0685	0.0011
0.025	0.0667	0.0011
0.033	0.0667	0.0011
0.04	0.0656	0.0011
0.05	0.0656	0.0011
0.055	0.0655	0.0011
0.065	0.065	0.0011
0.07	0.0642	0.0011
0.08	0.0635	0.0011
0.088	0.0642	0.0011
0.094	0.0635	0.0011
0.107	0.0627	0.001
0.122	0.0623	0.001
0.137	0.0622	0.001
0.149	0.0626	0.001
0.158	0.0622	0.001

System: propanedioic acid + water; phases: Liquid, Air at 1 atmosphere
Fixed: Mole fraction of propanedioic acid = 0.06
Property: Surface tension liquid-gas, N/m (Liquid); method: Ring tensiometer
Temperature, K	Surface tension liquid-gas, N/m	uncertainty
278.1	0.0665	0.0011
279.3	0.066	0.0011
279.7	0.0659	0.0011
282.6	0.066	0.0011
285	0.0657	0.0011
286.5	0.0656	0.0011
287.8	0.0654	0.0011
288.7	0.0652	0.0011
289.6	0.0653	0.0011
290.9	0.0646	0.0011
291.1	0.065	0.0011
293	0.0646	0.0011
295.3	0.0647	0.0011
296.7	0.0641	0.0011
297.1	0.0641	0.0011
298.2	0.0638	0.0011
299	0.0636	0.0011
299.1	0.0639	0.0011
301.2	0.064	0.0011
303.3	0.063	0.0011

System: propanedioic acid + water; phases: Liquid
Fixed: Temperature, K = 298
Fixed: Pressure, kPa = 100
Property: Mass density, kg/m3 (Liquid); method: Pycnometric method
Mole fraction of propanedioic acid	Mass density, kg/m3	uncertainty
0.009	1016	1
0.03	1054	1
0.041	1068	1
0.055	1090	1
0.069	1108	1
0.085	1129	1
0.102	1152	1
0.147	1196	1

System: butanedioic acid + water; phases: Liquid, Air at 1 atmosphere
Fixed: Temperature, K = 298
Property: Surface tension liquid-gas, N/m (Liquid); method: Ring tensiometer
Mole fraction of butanedioic acid	Surface tension liquid-gas, N/m	uncertainty
0.0011	0.0709	0.0012
0.0022	0.07	0.0012
0.0028	0.0698	0.0011
0.0033	0.0694	0.0011
0.0045	0.0689	0.0011
0.0056	0.0685	0.0011
0.0067	0.0681	0.0011
0.0071	0.0677	0.0011
0.0078	0.0676	0.0011
0.0089	0.0673	0.0011
0.01	0.0666	0.0011
0.0107	0.0669	0.0011
0.0111	0.0664	0.0011
0.0117	0.0667	0.0011

System: butanedioic acid + water; phases: Liquid, Air at 1 atmosphere
Fixed: Mole fraction of butanedioic acid = 0.00716
Property: Surface tension liquid-gas, N/m (Liquid); method: Ring tensiometer
Temperature, K	Surface tension liquid-gas, N/m	uncertainty
279.9	0.07	
280.1	0.0692	
280.2	0.0703	
280.6	0.07	
284	0.069	
284.3	0.0697	
284.7	0.0693	
284.8	0.0695	
285	0.0696	
288.4	0.0686	
288.9	0.069	
288.9	0.069	
288.9	0.0688	
288.9	0.0687	
292.6	0.0678	
293.1	0.0685	
293.3	0.0682	
293.4	0.0682	
293.6	0.0684	
296.8	0.0672	
297.4	0.0677	
297.6	0.068	
297.8	0.0678	
297.8	0.0678	
297.9	0.0678	
301.7	0.0675	
301.8	0.0671	
302.3	0.0673	
302.9	0.0671	

System: butanedioic acid + water; phases: Liquid
Fixed: Temperature, K = 298
Fixed: Pressure, kPa = 100
Property: Mass density, kg/m3 (Liquid); method: PYCNOM:UFactor:4
Mole fraction of butanedioic acid	Mass density, kg/m3	uncertainty
0.0011	991	2
0.0012	997	2
0.0022	993	2
0.0022	1003	2
0.0028	996	2
0.0033	997	2
0.0037	1001	2
0.0045	998	2
0.0047	1002	2
0.0056	1001	2
0.0067	1002	2
0.0068	1008	2
0.0078	1005	2
0.0089	1007	2
0.01	1009	2
0.011	1010	2

System: cis-1,4-butenedioic acid + water; phases: Liquid, Air at 1 atmosphere
Fixed: Temperature, K = 298
Property: Surface tension liquid-gas, N/m (Liquid); method: Ring tensiometer
Mole fraction of cis-1,4-butenedioic acid	Surface tension liquid-gas, N/m	uncertainty
0.008	0.068	0.0011
0.0116	0.0676	0.0011
0.017	0.0659	0.0011
0.0267	0.0641	0.0011
0.0374	0.0614	0.001
0.0376	0.0614	0.001
0.0489	0.0622	0.001
0.0579	0.0612	0.001
0.06	0.0623	0.001
0.0627	0.0604	0.001
0.0764	0.0588	0.001
0.085	0.0603	0.001
0.0932	0.0597	0.001
0.1083	0.0595	0.001

System: cis-1,4-butenedioic acid + water; phases: Liquid
Fixed: Temperature, K = 298
Fixed: Pressure, kPa = 100
Property: Mass density, kg/m3 (Liquid); method: Pycnometric method
Mole fraction of cis-1,4-butenedioic acid	Mass density, kg/m3	uncertainty
0.008	1016	1
0.017	1031	1
0.027	1048	1
0.037	1063	1
0.049	1084	1
0.062	1103	1
0.077	1121	1
0.094	1135	1

System: cis-1,4-butenedioic acid + water; phases: Liquid, Air at 1 atmosphere
Property: Surface tension liquid-gas, N/m (Liquid); method: Ring tensiometer
Temperature, K	Mole fraction of cis-1,4-butenedioic acid	Surface tension liquid-gas, N/m	uncertainty
278.3	0.012	0.0699	0.0012
278.7	0.06	0.0643	0.0011
279.2	0.012	0.0698	0.0012
280.4	0.06	0.0644	0.0011
280.5	0.06	0.0644	0.0011
283.5	0.012	0.0692	0.0011
283.5	0.06	0.0637	0.0011
283.7	0.012	0.0694	0.0011
284.2	0.06	0.064	0.0011
284.7	0.06	0.0639	0.0011
284.9	0.06	0.0635	0.0011
287.4	0.012	0.0687	0.0011
287.9	0.012	0.0686	0.0011
288.4	0.06	0.0634	0.0011
288.6	0.06	0.0636	0.0011
288.8	0.06	0.0631	0.001
289.1	0.06	0.0632	0.0011
292.8	0.012	0.068	0.0011
292.8	0.06	0.0628	0.001
292.8	0.012	0.0682	0.0011
292.8	0.012	0.0682	0.0011
292.9	0.06	0.0626	0.001
293.4	0.06	0.0629	0.001
296.2	0.06	0.0621	0.001
297	0.012	0.0675	0.0011
297.1	0.06	0.0624	0.001
297.2	0.012	0.0677	0.0011
297.5	0.012	0.0676	0.0011
297.7	0.06	0.0623	0.001
300.9	0.06	0.0614	0.001
301.2	0.06	0.0615	0.001
301.6	0.06	0.0618	0.001
302	0.06	0.0618	0.001
302.3	0.012	0.0669	0.0011
302.7	0.012	0.0668	0.0011

System: hydroxybutanedioic acid + water; phases: Liquid, Air at 1 atmosphere
Fixed: Temperature, K = 298
Property: Surface tension liquid-gas, N/m (Liquid); method: Ring tensiometer
Mole fraction of hydroxybutanedioic acid	Surface tension liquid-gas, N/m	uncertainty
0.003	0.0703	0.0012
0.007	0.0701	0.0012
0.015	0.0698	0.0011
0.023	0.0693	0.0011
0.032	0.0693	0.0011
0.043	0.0684	0.0011
0.054	0.0684	0.0011
0.058	0.0681	0.0011
0.07	0.0678	0.0011
0.082	0.0673	0.0011
0.087	0.0668	0.0011

System: hydroxybutanedioic acid + water; phases: Liquid, Air at 1 atmosphere
Fixed: Mole fraction of hydroxybutanedioic acid = 0.06
Property: Surface tension liquid-gas, N/m (Liquid); method: Ring tensiometer
Temperature, K	Surface tension liquid-gas, N/m	uncertainty
279.3	0.071	
280.5	0.0708	
281.3	0.0706	
281.7	0.0706	
283.6	0.0703	
283.7	0.0701	
284.6	0.0703	
285	0.0702	
288.3	0.0697	
288.5	0.0695	
289.2	0.0697	
289.3	0.0695	
292.7	0.0687	
293.2	0.0687	
293.4	0.0691	
293.7	0.068	
297.1	0.0682	
297.2	0.0679	
297.6	0.0684	
297.7	0.068	
298.2	0.0678	
301.9	0.0675	
302.1	0.0681	
302.3	0.0679	

System: hydroxybutanedioic acid + water; phases: Liquid
Fixed: Temperature, K = 298
Fixed: Pressure, kPa = 100
Property: Mass density, kg/m3 (Liquid); method: PYCNOM:UFactor:4
Mole fraction of hydroxybutanedioic acid	Mass density, kg/m3	uncertainty
0.003	1006	2
0.015	1037	2
0.023	1051	2
0.032	1079	2
0.054	1115	2
0.075	1146	2
0.096	1182	2

System: water + cis-pinonic acid; phases: Liquid, Air at 1 atmosphere
Fixed: Mole fraction of cis-pinonic acid = 0.00035
Property: Surface tension liquid-gas, N/m (Liquid); method: Ring tensiometer
Temperature, K	Surface tension liquid-gas, N/m	uncertainty
280.7	0.0617	0.001
282.5	0.0616	0.001
283.6	0.0616	0.001
283.8	0.0614	0.001
284.4	0.0613	0.001
285.4	0.0615	0.001
287.5	0.0611	0.001
288	0.0608	0.001
288.8	0.0608	0.001
289.1	0.0609	0.001
291.9	0.0604	0.001
292.5	0.0607	0.001
292.9	0.0605	0.001
293.9	0.0602	0.001
296.8	0.0601	0.001
297.1	0.0602	0.001
298.1	0.0597	0.001
301.2	0.0594	0.001
301.7	0.0599	0.001
302.1	0.0591	0.001

System: water + cis-pinonic acid; phases: Liquid, Air at 1 atmosphere
Fixed: Temperature, K = 298
Property: Surface tension liquid-gas, N/m (Liquid); method: RINGTE:UFactor:2
Mole fraction of cis-pinonic acid	Surface tension liquid-gas, N/m	uncertainty
2e-05	0.0695	0.0023
4e-05	0.0668	0.0022
0.00011	0.0644	0.0021
0.00018	0.0614	0.002
0.00024	0.0612	0.002
0.00034	0.059	0.002
0.00041	0.0572	0.0019
0.0005	0.0563	0.0019
0.00058	0.0558	0.0019
0.00065	0.0562	0.0019
0.00083	0.0539	0.0018

System: water + cis-pinonic acid; phases: Liquid
Fixed: Temperature, K = 298
Fixed: Pressure, kPa = 100
Property: Mass density, kg/m3 (Liquid); method: Pycnometric method
Mole fraction of cis-pinonic acid	Mass density, kg/m3	uncertainty
0.00018	995	1
0.00025	993	1
0.00033	995	1
0.00041	997	1
0.0005	996	1
0.00058	994	1
0.00066	994	1
0.00083	997	1
