Measured thermophysical data. Diffusion Coefficients of Chromium Chloride in Aqueous Solutions at 298.15 K and 303.15 K
Source: J. Chem. Eng. Data, 2005, 10.1021/je050003x
Compound 1: water, H2O, InChI=1S/H2O/h1H2
Compound 2: chromium chloride, Cl3Cr, InChI=1S/3ClH.Cr/h3*1H;/q;;;+3/p-3

System: water + chromium chloride; phases: Liquid
Fixed: Pressure, kPa = 101.3
Property: Binary diffusion coefficient, m2/s (Liquid); method: Open capillary
Temperature, K	Amount concentration (molarity), mol/dm3 of chromium chloride	Binary diffusion coefficient, m2/s	uncertainty
298.15	0.005	1.326e-09	0.118
298.15	0.008	1.2e-09	0.055
298.15	0.01	1.17e-09	0.057
298.15	0.02	1.096e-09	0.055
298.15	0.03	1.06e-09	0.052
298.15	0.05	1.026e-09	0.052
303.15	0.005	1.847e-09	0.129
303.15	0.008	1.328e-09	0.076
303.15	0.01	1.31e-09	0.062
303.15	0.02	1.26e-09	0.062
303.15	0.03	1.2e-09	0.06
303.15	0.05	1.17e-09	0.057
