Measured thermophysical data. Recommended Vapor Pressure of Solid Naphthalene
Source: J. Chem. Eng. Data, 2005, 10.1021/je050216m
Compound 1: naphthalene, C10H8, InChI=1S/C10H8/c1-2-6-10-8-4-3-7-9(10)5-1/h1-8H

System: naphthalene; phases: Crystal, Gas
Property: Vapor or sublimation pressure, kPa (Crystal); method: Closed cell (Static) method
Temperature, K	Vapor or sublimation pressure, kPa	uncertainty
258.48	0.00011	0.0001
258.48	0.00011	0.0001
258.48	0.00011	0.0001
258.48	0.00011	0.0001
258.49	0.00011	0.0001
258.49	0.00011	0.0001
258.49	0.00011	0.0001
258.49	0.00011	0.0001
263.48	0.00022	0.0001
263.48	0.00022	0.0001
263.48	0.00022	0.0001
263.48	0.00022	0.0001
263.49	0.00023	0.0001
263.49	0.00023	0.0001
263.49	0.00023	0.0001
263.49	0.00023	0.0001
268.48	0.00042	0.0001
268.48	0.00041	0.0001
268.48	0.00043	0.0001
268.48	0.00042	0.0001
273.48	0.00078	0.0001
273.48	0.00077	0.0001
273.48	0.00078	0.0001
273.48	0.00078	0.0001
273.49	0.00078	0.0001
273.49	0.00077	0.0001
273.49	0.00078	0.0001
273.49	0.00078	0.0001
273.68	0.0008	0.0001
273.68	0.00081	0.0001
273.68	0.0008	0.0001
273.68	0.00081	0.0001
273.68	0.0008	0.0001
273.68	0.00081	0.0001
278.48	0.00137	0.00012
278.48	0.00138	0.00012
278.48	0.00137	0.00012
278.48	0.00137	0.00012
278.49	0.00138	0.00012
278.49	0.00138	0.00012
278.49	0.00138	0.00012
278.49	0.00139	0.00012
278.49	0.00139	0.00012
278.49	0.00138	0.00012
278.49	0.00136	0.00012
278.49	0.00137	0.00012
278.49	0.00138	0.00012
278.49	0.00137	0.00012
283.49	0.00241	0.00012
283.49	0.00241	0.00012
283.49	0.00241	0.00012
288.49	0.00411	0.00014
288.49	0.0041	0.00014
288.49	0.0041	0.00014
293.49	0.00688	0.00016
293.49	0.00688	0.00016
293.49	0.00688	0.00016
298.49	0.0114	0.00022
298.49	0.0114	0.00022
298.49	0.0113	0.00022
298.49	0.0114	0.00022
298.49	0.0113	0.00022
303.5	0.0183	0.00029
303.5	0.0183	0.00029
303.5	0.0182	0.00029
303.5	0.0183	0.00029
303.5	0.0182	0.00029
308.51	0.029	0.00041
308.51	0.029	0.00041
308.51	0.029	0.00041
308.51	0.029	0.00041
313.52	0.0454	0.00058
313.52	0.0454	0.00058
313.52	0.0454	0.00058
313.52	0.0455	0.00058
