Measured thermophysical data. Vapor-Liquid Equilibria for the Ternary Systems of Methyl tert-Butyl Ether + Methanol + Methylcyclohexane and Methyl tert-Butyl Ether + Methanol + n-Heptane and Constituent Binary Systems at 313.15 K
Source: J. Chem. Eng. Data, 2005, 10.1021/je050029o
Compound 1: 2-methoxy-2-methylpropane, C5H12O, InChI=1S/C5H12O/c1-5(2,3)6-4/h1-4H3, purity 99.9%
Compound 2: methanol, CH4O, InChI=1S/CH4O/c1-2/h2H,1H3, purity 99.8%
Compound 3: methylcyclohexane, C7H14, InChI=1S/C7H14/c1-7-5-3-2-4-6-7/h7H,2-6H2,1H3, purity 99.9%
Compound 4: heptane, C7H16, InChI=1S/C7H16/c1-3-5-7-6-4-2/h3-7H2,1-2H3, purity 99.9%

System: 2-methoxy-2-methylpropane; phases: Liquid
Property: Mass density, kg/m3 (Liquid); method: Pycnometric method
Temperature, K	Pressure, kPa	Mass density, kg/m3	uncertainty
298.15	101.325	740.6	1.7

System: methanol; phases: Liquid
Property: Mass density, kg/m3 (Liquid); method: Pycnometric method
Temperature, K	Pressure, kPa	Mass density, kg/m3	uncertainty
298.15	101.325	786.8	0.7

System: methylcyclohexane; phases: Liquid
Property: Mass density, kg/m3 (Liquid); method: Pycnometric method
Temperature, K	Pressure, kPa	Mass density, kg/m3	uncertainty
298.15	101.325	765.2	0.7

System: heptane; phases: Liquid
Property: Mass density, kg/m3 (Liquid); method: Pycnometric method
Temperature, K	Pressure, kPa	Mass density, kg/m3	uncertainty
298.15	101.325	679.5	0.6

System: methylcyclohexane + 2-methoxy-2-methylpropane; phases: Gas, Liquid
Fixed: Temperature, K = 313.15
Property: Mole fraction of 2-methoxy-2-methylpropane (Gas); method: CHROM:UFactor:8
Mole fraction of 2-methoxy-2-methylpropane	Mole fraction of 2-methoxy-2-methylpropane	uncertainty
0.0202	0.1326	0.0135
0.0504	0.2704	0.0209
0.0737	0.3556	0.0264
0.1	0.4227	0.0314
0.1492	0.5359	0.0345
0.1988	0.6193	0.0283
0.2487	0.6716	0.0244
0.2989	0.7148	0.0218
0.3496	0.7598	0.0191
0.3976	0.79	0.0174
0.4488	0.8138	0.0161
0.4986	0.8421	0.0147
0.5489	0.8574	0.0139
0.5992	0.8794	0.0129
0.6479	0.8912	0.0124
0.6976	0.9123	0.0116
0.7486	0.928	0.0111
0.8	0.9339	0.011
0.8504	0.9504	0.0106
0.9006	0.9648	0.0103
0.9239	0.9762	0.0101
0.9476	0.9802	0.0101
0.98	0.9916	0.0084

System: heptane + 2-methoxy-2-methylpropane; phases: Gas, Liquid
Fixed: Temperature, K = 313.15
Property: Mole fraction of 2-methoxy-2-methylpropane (Gas); method: CHROM:UFactor:8
Mole fraction of 2-methoxy-2-methylpropane	Mole fraction of 2-methoxy-2-methylpropane	uncertainty
0.0198	0.1038	0.0122
0.0497	0.2232	0.0182
0.0756	0.3096	0.0233
0.1007	0.3814	0.0284
0.1492	0.4858	0.0361
0.1993	0.5793	0.0313
0.2509	0.6251	0.0279
0.3002	0.693	0.0231
0.3492	0.731	0.0208
0.3986	0.7747	0.0183
0.45	0.8081	0.0164
0.4989	0.8324	0.0151
0.5487	0.8563	0.014
0.5992	0.8747	0.0131
0.6499	0.8976	0.0122
0.6998	0.9169	0.0115
0.7476	0.9303	0.0111
0.7988	0.947	0.0106
0.8493	0.9565	0.0104
0.8997	0.9723	0.0102
0.9221	0.9795	0.0101
0.9481	0.9864	0.01
0.9782	0.9945	0.0055

System: methanol + methylcyclohexane; phases: Gas, Liquid
Fixed: Temperature, K = 313.15
Property: Mole fraction of methanol (Gas); method: CHROM:UFactor:8
Mole fraction of methanol	Mole fraction of methanol	uncertainty
0.0166	0.5596	0.0328
0.0471	0.666	0.0248
0.0757	0.6866	0.0235
0.0976	0.6913	0.0232
0.1503	0.7158	0.0217
0.201	0.7363	0.0205
0.2474	0.7296	0.0209
0.2988	0.7324	0.0207
0.3493	0.7326	0.0207
0.4013	0.7306	0.0208
0.4501	0.742	0.0202
0.4992	0.7326	0.0207
0.5503	0.7299	0.0209
0.6021	0.7355	0.0206
0.6496	0.7391	0.0203
0.6997	0.7459	0.0199
0.7499	0.7382	0.0204
0.8001	0.747	0.0199
0.8498	0.761	0.0191
0.8996	0.782	0.0179
0.9251	0.8062	0.0165
0.9497	0.8389	0.0148
0.9799	0.9102	0.0117

System: methanol + heptane; phases: Gas, Liquid
Fixed: Temperature, K = 313.15
Property: Mole fraction of methanol (Gas); method: CHROM:UFactor:8
Mole fraction of methanol	Mole fraction of methanol	uncertainty
0.0258	0.5465	0.0337
0.0524	0.6714	0.0245
0.0716	0.6917	0.0232
0.0972	0.7067	0.0223
0.1493	0.7085	0.0222
0.2017	0.7207	0.0214
0.2595	0.7355	0.0206
0.2984	0.7318	0.0208
0.3479	0.7362	0.0205
0.3983	0.7401	0.0203
0.4531	0.7373	0.0205
0.5	0.7403	0.0203
0.5508	0.7275	0.021
0.6002	0.7423	0.0202
0.6498	0.7478	0.0198
0.7013	0.7515	0.0196
0.7504	0.7436	0.0201
0.8003	0.7486	0.0198
0.85	0.7556	0.0194
0.9002	0.7712	0.0185
0.9252	0.7878	0.0175
0.9499	0.8396	0.0148
0.9797	0.9087	0.0118

System: methanol + heptane + 2-methoxy-2-methylpropane; phases: Gas, Liquid
Fixed: Temperature, K = 313.15
Property: Mole fraction of methanol (Gas); method: Chromatography
Mole fraction of 2-methoxy-2-methylpropane	Mole fraction of methanol	Mole fraction of methanol	uncertainty
0.0304	0.2694	0.7019	0.0138
0.0432	0.3583	0.6956	0.0139
0.0496	0.451	0.6933	0.0139
0.0498	0.0477	0.5774	0.017
0.0602	0.2404	0.6724	0.0145
0.0604	0.5402	0.6781	0.0135
0.0618	0.1389	0.6491	0.0138
0.0699	0.6295	0.6692	0.0132
0.0802	0.7191	0.6662	0.013
0.0827	0.3197	0.6607	0.0136
0.0905	0.8091	0.6679	0.0129
0.0929	0.2104	0.6386	0.0131
0.1001	0.4003	0.6501	0.0132
0.1002	0.1142	0.5875	0.0143
0.1192	0.1816	0.5941	0.0127
0.1207	0.2806	0.6177	0.0145
0.124	0.4783	0.6213	0.013
0.1397	0.0636	0.5052	0.0171
0.1409	0.5602	0.6093	0.013
0.1492	0.1547	0.5691	0.0139
0.1508	0.3497	0.5939	0.0137
0.1592	0.6411	0.5991	0.0129
0.1604	0.2413	0.5732	0.0137
0.1786	0.1244	0.5205	0.0152
0.1789	0.4207	0.5871	0.0135
0.1789	0.7213	0.5911	0.0131
0.1981	0.2059	0.548	0.0144
0.1991	0.301	0.5561	0.013
0.2087	0.092	0.4759	0.0151
0.2103	0.4893	0.5545	0.0128
0.2386	0.0628	0.4009	0.0171
0.2408	0.5598	0.5339	0.0129
0.2414	0.1676	0.4866	0.0145
0.2416	0.3603	0.5271	0.0129
0.2496	0.2508	0.5113	0.0133
0.2696	0.63	0.5203	0.0129
0.2713	0.0287	0.2537	0.0221
0.2791	0.1243	0.4293	0.0239
0.2819	0.4191	0.5031	0.013
0.2992	0.201	0.4539	0.0194
0.2999	0.2998	0.4821	0.0136
0.3193	0.0817	0.3701	0.0132
0.3202	0.4806	0.4822	0.0126
0.3484	0.1544	0.42	0.017
0.3516	0.3484	0.454	0.0127
0.3595	0.2387	0.4241	0.0123
0.3597	0.0386	0.224	0.0189
0.3606	0.5399	0.4536	0.0127
0.3965	0.107	0.3359	0.0134
0.3985	0.403	0.4305	0.0123
0.4208	0.1782	0.3771	0.0128
0.4233	0.2778	0.4009	0.0125
0.4477	0.454	0.4096	0.012
0.4496	0.052	0.235	0.0179
0.4767	0.3238	0.3765	0.0121
0.4791	0.12	0.3089	0.0124
0.4817	0.2239	0.3655	0.0122
0.5393	0.3604	0.3576	0.0119
0.5397	0.0605	0.1978	0.0154
0.5596	0.2413	0.3221	0.0131
0.5602	0.1401	0.2762	0.0123
0.6271	0.0751	0.1776	0.0139
0.6286	0.2727	0.309	0.0118
0.6366	0.1625	0.2589	0.0122
0.7174	0.1836	0.2437	0.0134
0.7186	0.0819	0.1641	0.0129
0.8067	0.0937	0.1555	0.0129

System: methanol + heptane + 2-methoxy-2-methylpropane; phases: Gas, Liquid
Fixed: Temperature, K = 313.15
Property: Mole fraction of methanol (Gas); method: Chromatography
Mole fraction of 2-methoxy-2-methylpropane	Mole fraction of methanol	Mole fraction of methanol	uncertainty
0.0299	0.2696	0.7224	0.0133
0.0407	0.3587	0.7106	0.0131
0.0502	0.4506	0.7035	0.0131
0.0519	0.0539	0.6251	0.0172
0.0596	0.1433	0.6629	0.0133
0.0599	0.2391	0.6911	0.0146
0.0603	0.5403	0.6921	0.013
0.07	0.6298	0.6821	0.0133
0.0803	0.3224	0.6787	0.0128
0.0804	0.7211	0.6789	0.0133
0.09	0.8098	0.6761	0.0133
0.0907	0.2155	0.6595	0.0141
0.0999	0.3992	0.6655	0.0132
0.1007	0.1018	0.6223	0.0147
0.1193	0.1833	0.6294	0.0147
0.1198	0.4787	0.646	0.0126
0.12	0.2823	0.6417	0.014
0.1407	0.56	0.6291	0.0128
0.1439	0.0585	0.5126	0.0178
0.1493	0.3537	0.6242	0.0134
0.1532	0.1497	0.5905	0.0141
0.1543	0.2541	0.6028	0.0132
0.1602	0.6396	0.6089	0.013
0.1783	0.1224	0.5531	0.0134
0.1793	0.7209	0.5974	0.0134
0.1795	0.421	0.6022	0.0128
0.1996	0.3007	0.5856	0.0131
0.2	0.1992	0.5495	0.0139
0.2097	0.4903	0.5826	0.0129
0.2118	0.0892	0.4932	0.0151
0.2384	0.3637	0.5492	0.0127
0.2395	0.069	0.4286	0.0163
0.2402	0.1589	0.5252	0.0147
0.2408	0.5593	0.5544	0.013
0.25	0.2538	0.5437	0.013
0.2702	0.63	0.5285	0.0131
0.2722	0.0278	0.2753	0.024
0.2794	0.1225	0.4728	0.0254
0.2805	0.4194	0.5294	0.0127
0.2987	0.2036	0.4918	0.0156
0.3005	0.299	0.5066	0.0128
0.3204	0.0829	0.3964	0.0137
0.3207	0.48	0.4982	0.0133
0.3509	0.1488	0.4376	0.0184
0.3518	0.347	0.4859	0.0123
0.3596	0.5412	0.4693	0.0131
0.36	0.2405	0.4511	0.0136
0.3625	0.0373	0.2525	0.0193
0.3959	0.1065	0.3555	0.0132
0.3989	0.404	0.4535	0.0125
0.4176	0.1856	0.4058	0.0126
0.4197	0.2818	0.4335	0.0125
0.4506	0.4492	0.4243	0.012
0.4519	0.0503	0.2433	0.0187
0.477	0.1226	0.3403	0.0116
0.4801	0.3197	0.4002	0.0124
0.4902	0.21	0.3741	0.0127
0.5355	0.3645	0.3761	0.0118
0.5393	0.0604	0.2199	0.0163
0.5551	0.1464	0.3175	0.0119
0.56	0.2396	0.348	0.0122
0.6242	0.0795	0.2132	0.0144
0.6299	0.2696	0.322	0.0119
0.6391	0.1603	0.2835	0.0137
0.7103	0.1917	0.2644	0.0138
0.7152	0.0865	0.1855	0.0127
0.8076	0.0928	0.166	0.0128

System: methanol + methylcyclohexane + 2-methoxy-2-methylpropane; phases: Gas, Liquid
Fixed: Temperature, K = 313.15
Property: Mole fraction of methanol (Gas); method: Chromatography
Mole fraction of 2-methoxy-2-methylpropane	Mole fraction of methanol	Mole fraction of methanol	uncertainty
0.0304	0.2694	0.7019	0.0138
0.0432	0.3583	0.6956	0.0139
0.0496	0.451	0.6933	0.0139
0.0498	0.0477	0.5774	0.017
0.0602	0.2404	0.6724	0.0145
0.0604	0.5402	0.6781	0.0135
0.0618	0.1389	0.6491	0.0138
0.0699	0.6295	0.6692	0.0132
0.0802	0.7191	0.6662	0.013
0.0827	0.3197	0.6607	0.0136
0.0905	0.8091	0.6679	0.0129
0.0929	0.2104	0.6386	0.0131
0.1001	0.4003	0.6501	0.0132
0.1002	0.1142	0.5875	0.0143
0.1192	0.1816	0.5941	0.0127
0.1207	0.2806	0.6177	0.0145
0.124	0.4783	0.6213	0.013
0.1397	0.0636	0.5052	0.0171
0.1409	0.5602	0.6093	0.013
0.1492	0.1547	0.5691	0.0139
0.1508	0.3497	0.5939	0.0137
0.1592	0.6411	0.5991	0.0129
0.1604	0.2413	0.5732	0.0137
0.1786	0.1244	0.5205	0.0152
0.1789	0.4207	0.5871	0.0135
0.1789	0.7213	0.5911	0.0131
0.1981	0.2059	0.548	0.0144
0.1991	0.301	0.5561	0.013
0.2087	0.092	0.4759	0.0151
0.2103	0.4893	0.5545	0.0128
0.2386	0.0628	0.4009	0.0171
0.2408	0.5598	0.5339	0.0129
0.2414	0.1676	0.4866	0.0145
0.2416	0.3603	0.5271	0.0129
0.2496	0.2508	0.5113	0.0133
0.2696	0.63	0.5203	0.0129
0.2713	0.0287	0.2537	0.0221
0.2791	0.1243	0.4293	0.0239
0.2819	0.4191	0.5031	0.013
0.2992	0.201	0.4539	0.0194
0.2999	0.2998	0.4821	0.0136
0.3193	0.0817	0.3701	0.0132
0.3202	0.4806	0.4822	0.0126
0.3484	0.1544	0.42	0.017
0.3516	0.3484	0.454	0.0127
0.3595	0.2387	0.4241	0.0123
0.3597	0.0386	0.224	0.0189
0.3606	0.5399	0.4536	0.0127
0.3965	0.107	0.3359	0.0134
0.3985	0.403	0.4305	0.0123
0.4208	0.1782	0.3771	0.0128
0.4233	0.2778	0.4009	0.0125
0.4477	0.454	0.4096	0.012
0.4496	0.052	0.235	0.0179
0.4767	0.3238	0.3765	0.0121
0.4791	0.12	0.3089	0.0124
0.4817	0.2239	0.3655	0.0122
0.5393	0.3604	0.3576	0.0119
0.5397	0.0605	0.1978	0.0154
0.5596	0.2413	0.3221	0.0131
0.5602	0.1401	0.2762	0.0123
0.6271	0.0751	0.1776	0.0139
0.6286	0.2727	0.309	0.0118
0.6366	0.1625	0.2589	0.0122
0.7174	0.1836	0.2437	0.0134
0.7186	0.0819	0.1641	0.0129
0.8067	0.0937	0.1555	0.0129

System: methanol + methylcyclohexane + 2-methoxy-2-methylpropane; phases: Gas, Liquid
Fixed: Temperature, K = 313.15
Property: Mole fraction of 2-methoxy-2-methylpropane (Gas); method: Chromatography
Mole fraction of 2-methoxy-2-methylpropane	Mole fraction of methanol	Mole fraction of 2-methoxy-2-methylpropane	uncertainty
0.0304	0.2694	0.0368	0.0155
0.0432	0.3583	0.053	0.0156
0.0496	0.451	0.0617	0.0159
0.0498	0.0477	0.0835	0.0175
0.0602	0.2404	0.0725	0.0156
0.0604	0.5402	0.0806	0.0163
0.0618	0.1389	0.0821	0.0156
0.0699	0.6295	0.0999	0.017
0.0802	0.7191	0.1278	0.019
0.0827	0.3197	0.1004	0.0152
0.0905	0.8091	0.1769	0.0198
0.0929	0.2104	0.1134	0.0154
0.1001	0.4003	0.1242	0.0153
0.1002	0.1142	0.1314	0.0164
0.1192	0.1816	0.1487	0.0153
0.1207	0.2806	0.1457	0.0158
0.124	0.4783	0.1561	0.0156
0.1397	0.0636	0.2081	0.0173
0.1409	0.5602	0.1857	0.0167
0.1492	0.1547	0.1877	0.0149
0.1508	0.3497	0.181	0.0154
0.1592	0.6411	0.2258	0.0178
0.1604	0.2413	0.1921	0.0154
0.1786	0.1244	0.2319	0.0161
0.1789	0.4207	0.2163	0.0154
0.1789	0.7213	0.293	0.02
0.1981	0.2059	0.2389	0.0152
0.1991	0.301	0.2343	0.0148
0.2087	0.092	0.2806	0.0162
0.2103	0.4893	0.2616	0.0159
0.2386	0.0628	0.3425	0.0179
0.2408	0.5598	0.3177	0.017
0.2414	0.1676	0.291	0.0155
0.2416	0.3603	0.2834	0.0148
0.2496	0.2508	0.2918	0.0146
0.2696	0.63	0.3873	0.0187
0.2713	0.0287	0.464	0.0189
0.2791	0.1243	0.3505	0.02
0.2819	0.4191	0.3351	0.0151
0.2992	0.201	0.3433	0.0179
0.2999	0.2998	0.3423	0.0152
0.3193	0.0817	0.4194	0.0157
0.3202	0.4806	0.394	0.0164
0.3484	0.1544	0.4102	0.0169
0.3516	0.3484	0.3963	0.0148
0.3595	0.2387	0.4004	0.0142
0.3597	0.0386	0.531	0.0168
0.3606	0.5399	0.4724	0.0182
0.3965	0.107	0.4773	0.014
0.3985	0.403	0.4552	0.0151
0.4208	0.1782	0.4767	0.0147
0.4233	0.2778	0.46	0.0143
0.4477	0.454	0.5265	0.0159
0.4496	0.052	0.5952	0.017
0.4767	0.3238	0.5124	0.0143
0.4791	0.12	0.5425	0.0138
0.4817	0.2239	0.517	0.0144
0.5393	0.3604	0.5827	0.0145
0.5397	0.0605	0.6529	0.0148
0.5596	0.2413	0.5873	0.0142
0.5602	0.1401	0.6005	0.013
0.6271	0.0751	0.6972	0.0135
0.6286	0.2727	0.6437	0.0133
0.6366	0.1625	0.6511	0.012
0.7174	0.1836	0.7092	0.0138
0.7186	0.0819	0.7515	0.0126
0.8067	0.0937	0.7992	0.0125
