Measured thermophysical data. Viscosities, Densities, and Speed of Sound of the Cycloalkanes with Secondary Alcohols at T = (293.15, 298.15, and 303.15) K: New UNIFAC-VISCO Interaction Parameters
Source: J. Chem. Eng. Data, 2006, 10.1021/je050540h
Compound 1: cyclohexane, C6H12, InChI=1S/C6H12/c1-2-4-6-5-3-1/h1-6H2, purity 99.8%
Compound 2: cyclopentane, C5H10, InChI=1S/C5H10/c1-2-4-5-3-1/h1-5H2, purity 99%
Compound 3: propan-2-ol, C3H8O, InChI=1S/C3H8O/c1-3(2)4/h3-4H,1-2H3, purity 99.7%
Compound 4: butan-2-ol, C4H10O, InChI=1S/C4H10O/c1-3-4(2)5/h4-5H,3H2,1-2H3, purity 99.5%
Compound 5: pentan-2-ol, C5H12O, InChI=1S/C5H12O/c1-3-4-5(2)6/h5-6H,3-4H2,1-2H3, purity 99.5%

System: cyclohexane; phases: Liquid
Fixed: Pressure, kPa = 101
Property: Viscosity, Pa*s (Liquid); method: CAPTUB:UFactor:4
Temperature, K	Viscosity, Pa*s	uncertainty
293.15	0.000968	2.4e-05
298.15	0.000887	2.2e-05
303.15	0.000816	2.1e-05

System: cyclohexane; phases: Liquid
Property: Speed of sound, m/s (Liquid); method: FPINT:UFactor:4
Temperature, K	Pressure, kPa	Speed of sound, m/s	uncertainty
293.15	7	1279	3
293.15	101	1279	3
298.15	7	1254	3
298.15	101	1254	3
303.15	7	1230	3
303.15	101	1230	3

System: cyclohexane; phases: Liquid
Fixed: Pressure, kPa = 101
Property: Mass density, kg/m3 (Liquid); method: VIBTUB:UFactor:4
Temperature, K	Mass density, kg/m3	uncertainty
293.15	778.62	0.48
298.15	773.92	0.49
303.15	769.19	0.49

System: cyclopentane; phases: Liquid
Fixed: Pressure, kPa = 101
Property: Viscosity, Pa*s (Liquid); method: CAPTUB::UFactor:4
Temperature, K	Viscosity, Pa*s	uncertainty
293.15	0.000438	1.3e-05
293.15	0.000439	1.3e-05
298.15	0.000416	1.2e-05
303.15	0.000394	1.2e-05

System: cyclopentane; phases: Liquid
Fixed: Pressure, kPa = 101
Property: Speed of sound, m/s (Liquid); method: FPINT::UFactor:4
Temperature, K	Speed of sound, m/s	uncertainty
293.15	1232	3
298.15	1206	3
303.15	1180	3

System: cyclopentane; phases: Liquid
Fixed: Pressure, kPa = 101
Property: Mass density, kg/m3 (Liquid); method: VIBTUB::UFactor:4
Temperature, K	Mass density, kg/m3	uncertainty
293.15	744.52	0.65
298.15	739.55	0.65
303.15	734.54	0.66

System: propan-2-ol; phases: Liquid
Fixed: Pressure, kPa = 101
Property: Viscosity, Pa*s (Liquid); method: CAPTUB::UFactor:4
Temperature, K	Viscosity, Pa*s	uncertainty
293.15	0.002382	5.6e-05
298.15	0.002045	4.9e-05
303.15	0.001763	4.3e-05

System: propan-2-ol; phases: Liquid
Fixed: Pressure, kPa = 101
Property: Speed of sound, m/s (Liquid); method: FPINT::UFactor:4
Temperature, K	Speed of sound, m/s	uncertainty
293.15	1156	3
298.15	1139	2
303.15	1121	2

System: propan-2-ol; phases: Liquid
Fixed: Pressure, kPa = 101
Property: Mass density, kg/m3 (Liquid); method: VIBTUB::UFactor:4
Temperature, K	Mass density, kg/m3	uncertainty
293.15	785.07	0.48
298.15	780.87	0.48
303.15	776.6	0.49

System: butan-2-ol; phases: Liquid
Fixed: Pressure, kPa = 101
Property: Viscosity, Pa*s (Liquid); method: CAPTUB::UFactor:4
Temperature, K	Viscosity, Pa*s	uncertainty
293.15	0.003623	8.4e-05
298.15	0.002995	7.1e-05
303.15	0.002493	6e-05

System: butan-2-ol; phases: Liquid
Fixed: Pressure, kPa = 101
Property: Speed of sound, m/s (Liquid); method: FPINT::UFactor:4
Temperature, K	Speed of sound, m/s	uncertainty
293.15	1230	3
298.15	1212	3
303.15	1194	3

System: butan-2-ol; phases: Liquid
Fixed: Pressure, kPa = 101
Property: Mass density, kg/m3 (Liquid); method: VIBTUB::UFactor:4
Temperature, K	Mass density, kg/m3	uncertainty
293.15	806.84	0.47
298.15	802.72	0.48
303.15	798.51	0.48

System: pentan-2-ol; phases: Liquid
Fixed: Pressure, kPa = 101
Property: Viscosity, Pa*s (Liquid); method: CAPTUB::UFactor:4
Temperature, K	Viscosity, Pa*s	uncertainty
293.15	0.004001	9.3e-05
298.15	0.003273	7.7e-05
303.15	0.002774	6.6e-05

System: pentan-2-ol; phases: Liquid
Property: Speed of sound, m/s (Liquid); method: FPINT::UFactor:4
Temperature, K	Pressure, kPa	Speed of sound, m/s	uncertainty
293.15	7	1250	3
293.15	101	1250	3
298.15	7	1232	3
298.15	101	1232	3
303.15	7	1214	3
303.15	101	1214	3

System: pentan-2-ol; phases: Liquid
Fixed: Pressure, kPa = 101
Property: Mass density, kg/m3 (Liquid); method: VIBTUB::UFactor:4
Temperature, K	Mass density, kg/m3	uncertainty
293.15	809.04	0.47
298.15	805.01	0.48
303.15	800.9	0.48

System: propan-2-ol + cyclohexane; phases: Liquid
Fixed: Pressure, kPa = 101
Property: Viscosity, Pa*s (Liquid); method: CAPTUB:UFactor:4
Mole fraction of cyclohexane	Temperature, K	Viscosity, Pa*s	uncertainty
0	293.15	0.002382	5.6e-05
0	298.15	0.002045	4.9e-05
0	303.15	0.001763	4.3e-05
0.0484	293.15	0.002184	5.1e-05
0.0484	298.15	0.001883	4.5e-05
0.0484	303.15	0.001633	4e-05
0.097	293.15	0.001988	4.7e-05
0.097	298.15	0.001722	4.1e-05
0.097	303.15	0.001504	3.6e-05
0.2006	293.15	0.001651	4e-05
0.2006	298.15	0.001444	3.5e-05
0.2006	303.15	0.001267	3.1e-05
0.3002	293.15	0.001427	3.5e-05
0.3002	298.15	0.00126	3.1e-05
0.3002	303.15	0.001112	2.8e-05
0.3977	293.15	0.001264	3.1e-05
0.3977	298.15	0.001119	2.8e-05
0.3977	303.15	0.000996	2.5e-05
0.507	293.15	0.001128	2.8e-05
0.507	298.15	0.001008	2.5e-05
0.507	303.15	0.000908	2.3e-05
0.6046	293.15	0.001025	2.6e-05
0.6046	298.15	0.000926	2.3e-05
0.6046	303.15	0.000838	2.1e-05
0.7058	293.15	0.000969	2.4e-05
0.7058	298.15	0.000878	2.2e-05
0.7058	303.15	0.000798	2.1e-05
0.823	293.15	0.000944	2.4e-05
0.823	298.15	0.000856	2.2e-05
0.823	303.15	0.000786	2e-05
0.9016	293.15	0.00095	2.4e-05
0.9016	298.15	0.00087	2.2e-05
0.9016	303.15	0.000801	2.1e-05
0.9521	293.15	0.000962	2.4e-05
0.9521	298.15	0.000874	2.2e-05
0.9521	303.15	0.000802	2.1e-05
1	293.15	0.000968	2.4e-05
1	298.15	0.000887	2.2e-05
1	303.15	0.000816	2.1e-05

System: propan-2-ol + cyclohexane; phases: Liquid
Fixed: Pressure, kPa = 101
Property: Speed of sound, m/s (Liquid); method: FPINT:UFactor:4
Mole fraction of cyclohexane	Temperature, K	Speed of sound, m/s	uncertainty
0	293.15	1156	3
0	298.15	1139	2
0	303.15	1121	2
0.0484	293.15	1160	3
0.0484	298.15	1141	2
0.0484	303.15	1123	2
0.097	293.15	1163	3
0.097	298.15	1145	3
0.097	303.15	1126	2
0.2006	293.15	1171	3
0.2006	298.15	1152	3
0.2006	303.15	1132	2
0.3002	293.15	1180	3
0.3002	298.15	1159	3
0.3002	303.15	1139	2
0.3977	293.15	1189	3
0.3977	298.15	1167	3
0.3977	303.15	1146	3
0.507	293.15	1200	3
0.507	298.15	1178	3
0.507	303.15	1155	3
0.6046	293.15	1211	3
0.6046	298.15	1188	3
0.6046	303.15	1165	3
0.7058	293.15	1223	3
0.7058	298.15	1200	3
0.7058	303.15	1176	3
0.823	293.15	1240	3
0.823	298.15	1216	3
0.823	303.15	1192	3
0.9016	293.15	1254	3
0.9016	298.15	1230	3
0.9016	303.15	1206	3
0.9521	293.15	1265	3
0.9521	298.15	1240	3
0.9521	303.15	1216	3
1	293.15	1279	3
1	298.15	1254	3
1	303.15	1230	3

System: propan-2-ol + cyclohexane; phases: Liquid
Fixed: Pressure, kPa = 101
Property: Mass density, kg/m3 (Liquid); method: VIBTUB:UFactor:4
Mole fraction of cyclohexane	Temperature, K	Mass density, kg/m3	uncertainty
0	293.15	785.07	0.48
0	298.15	780.87	0.48
0	303.15	776.6	0.49
0.0484	293.15	783.76	0.48
0.0484	298.15	779.5	0.48
0.0484	303.15	775.15	0.49
0.097	293.15	782.63	0.48
0.097	298.15	778.29	0.49
0.097	303.15	773.87	0.49
0.2006	293.15	780.51	0.48
0.2006	298.15	776.05	0.49
0.2006	303.15	771.5	0.5
0.3002	293.15	778.87	0.48
0.3002	298.15	774.29	0.49
0.3002	303.15	769.62	0.5
0.3977	293.15	777.63	0.48
0.3977	298.15	772.95	0.49
0.3977	303.15	768.19	0.5
0.507	293.15	776.69	0.49
0.507	298.15	771.92	0.49
0.507	303.15	767.09	0.5
0.6046	293.15	776.15	0.49
0.6046	298.15	771.34	0.49
0.6046	303.15	766.47	0.5
0.7058	293.15	775.92	0.48
0.7058	298.15	771.11	0.49
0.7058	303.15	766.23	0.5
0.823	293.15	776.23	0.48
0.823	298.15	771.42	0.49
0.823	303.15	766.56	0.5
0.9016	293.15	776.88	0.48
0.9016	298.15	772.09	0.49
0.9016	303.15	767.24	0.5
0.9521	293.15	777.52	0.48
0.9521	298.15	772.74	0.49
0.9521	303.15	767.92	0.5
1	293.15	778.62	0.48
1	298.15	773.92	0.49
1	303.15	769.19	0.49

System: butan-2-ol + cyclohexane; phases: Liquid
Fixed: Pressure, kPa = 101
Property: Viscosity, Pa*s (Liquid); method: CAPTUB:UFactor:4
Mole fraction of cyclohexane	Temperature, K	Viscosity, Pa*s	uncertainty
0	293.15	0.003623	8.4e-05
0	298.15	0.002995	7.1e-05
0	303.15	0.002493	6e-05
0.0494	293.15	0.003231	7.6e-05
0.0494	298.15	0.002687	6.4e-05
0.0494	303.15	0.002251	5.4e-05
0.1003	293.15	0.002915	6.8e-05
0.1003	298.15	0.002444	5.8e-05
0.1003	303.15	0.002066	5e-05
0.1969	293.15	0.002227	5.4e-05
0.1969	298.15	0.001891	4.6e-05
0.1969	303.15	0.001623	3.9e-05
0.3052	293.15	0.001726	4.2e-05
0.3052	298.15	0.001489	3.6e-05
0.3052	303.15	0.001294	3.2e-05
0.4044	293.15	0.00148	3.6e-05
0.4044	298.15	0.001299	3.2e-05
0.4044	303.15	0.001142	2.8e-05
0.5004	293.15	0.001315	3.2e-05
0.5004	298.15	0.001166	2.9e-05
0.5004	303.15	0.001042	2.6e-05
0.6016	293.15	0.00116	2.9e-05
0.6016	298.15	0.001042	2.6e-05
0.6016	303.15	0.000942	2.4e-05
0.7145	293.15	0.001066	2.6e-05
0.7145	298.15	0.000968	2.4e-05
0.7145	303.15	0.000888	2.3e-05
0.8067	293.15	0.00098	2.5e-05
0.8067	298.15	0.000892	2.3e-05
0.8067	303.15	0.000817	2.1e-05
0.9046	293.15	0.000962	2.4e-05
0.9046	298.15	0.000879	2.2e-05
0.9046	303.15	0.000806	2.1e-05
0.9523	293.15	0.000993	2.5e-05
0.9523	298.15	0.000908	2.3e-05
0.9523	303.15	0.000833	2.1e-05
1	293.15	0.000968	2.4e-05
1	298.15	0.000887	2.2e-05
1	303.15	0.000816	2.1e-05

System: butan-2-ol + cyclohexane; phases: Liquid
Fixed: Pressure, kPa = 101
Property: Speed of sound, m/s (Liquid); method: FPINT:UFactor:4
Mole fraction of cyclohexane	Temperature, K	Speed of sound, m/s	uncertainty
0	293.15	1230	3
0	298.15	1212	3
0	303.15	1194	3
0.0494	293.15	1228	3
0.0494	298.15	1210	3
0.0494	303.15	1191	3
0.1003	293.15	1226	3
0.1003	298.15	1207	3
0.1003	303.15	1188	3
0.1969	293.15	1223	3
0.1969	298.15	1204	3
0.1969	303.15	1184	3
0.3052	293.15	1222	3
0.3052	298.15	1201	3
0.3052	303.15	1181	3
0.4044	293.15	1222	3
0.4044	298.15	1201	3
0.4044	303.15	1179	3
0.5004	293.15	1224	3
0.5004	298.15	1202	3
0.5004	303.15	1180	3
0.6016	293.15	1228	3
0.6016	298.15	1205	3
0.6016	303.15	1183	3
0.7145	293.15	1236	3
0.7145	298.15	1213	3
0.7145	303.15	1189	3
0.8067	293.15	1245	3
0.8067	298.15	1222	3
0.8067	303.15	1198	3
0.9046	293.15	1259	3
0.9046	298.15	1235	3
0.9046	303.15	1211	3
0.9523	293.15	1267	3
0.9523	298.15	1242	3
0.9523	303.15	1218	3
1	293.15	1279	3
1	298.15	1254	3
1	303.15	1230	3

System: butan-2-ol + cyclohexane; phases: Liquid
Fixed: Pressure, kPa = 101
Property: Mass density, kg/m3 (Liquid); method: VIBTUB:UFactor:4
Mole fraction of cyclohexane	Temperature, K	Mass density, kg/m3	uncertainty
0	293.15	806.84	0.47
0	298.15	802.72	0.48
0	303.15	798.51	0.48
0.0494	293.15	804.24	0.47
0.0494	298.15	800.04	0.48
0.0494	303.15	795.77	0.49
0.1003	293.15	801.95	0.47
0.1003	298.15	797.69	0.48
0.1003	303.15	793.34	0.49
0.1969	293.15	797.77	0.48
0.1969	298.15	793.37	0.48
0.1969	303.15	788.88	0.49
0.3052	293.15	793.48	0.48
0.3052	298.15	788.95	0.48
0.3052	303.15	784.34	0.49
0.4044	293.15	789.86	0.48
0.4044	298.15	785.24	0.49
0.4044	303.15	780.54	0.49
0.5004	293.15	786.73	0.48
0.5004	298.15	782.04	0.49
0.5004	303.15	777.29	0.49
0.6016	293.15	783.91	0.48
0.6016	298.15	779.18	0.49
0.6016	303.15	774.41	0.49
0.7145	293.15	781.42	0.48
0.7145	298.15	776.68	0.49
0.7145	303.15	772.02	0.5
0.8067	293.15	779.85	0.48
0.8067	298.15	775.08	0.49
0.8067	303.15	770.26	0.5
0.9046	293.15	778.86	0.48
0.9046	298.15	774.06	0.49
0.9046	303.15	769.22	0.49
0.9523	293.15	778.43	0.48
0.9523	298.15	773.65	0.49
0.9523	303.15	768.82	0.49
1	293.15	778.62	0.48
1	298.15	773.92	0.49
1	303.15	769.19	0.49

System: cyclohexane + pentan-2-ol; phases: Liquid
Fixed: Pressure, kPa = 101
Property: Viscosity, Pa*s (Liquid); method: CAPTUB:UFactor:4
Mole fraction of cyclohexane	Temperature, K	Viscosity, Pa*s	uncertainty
0	293.15	0.004001	9.3e-05
0	298.15	0.003273	7.7e-05
0	303.15	0.002774	6.6e-05
0.0495	293.15	0.003606	8.4e-05
0.0495	298.15	0.002969	7.1e-05
0.0495	303.15	0.002474	5.9e-05
0.1002	293.15	0.003195	7.5e-05
0.1002	298.15	0.002658	6.3e-05
0.1002	303.15	0.002237	5.4e-05
0.2019	293.15	0.002516	6e-05
0.2019	298.15	0.002125	5.1e-05
0.2019	303.15	0.00182	4.4e-05
0.3067	293.15	0.001922	4.6e-05
0.3067	298.15	0.001659	4e-05
0.3067	303.15	0.001441	3.5e-05
0.4011	293.15	0.001583	3.8e-05
0.4011	298.15	0.001385	3.4e-05
0.4011	303.15	0.001233	3e-05
0.5085	293.15	0.001317	3.2e-05
0.5085	298.15	0.001178	2.9e-05
0.5085	303.15	0.001058	2.6e-05
0.6066	293.15	0.00117	2.9e-05
0.6066	298.15	0.001056	2.6e-05
0.6066	303.15	0.000957	2.4e-05
0.7118	293.15	0.001067	2.7e-05
0.7118	298.15	0.00097	2.4e-05
0.7118	303.15	0.000885	2.2e-05
0.8096	293.15	0.001045	2.6e-05
0.8096	298.15	0.000952	2.4e-05
0.8096	303.15	0.000871	2.2e-05
0.9049	293.15	0.001009	2.5e-05
0.9049	298.15	0.000924	2.3e-05
0.9049	303.15	0.000845	2.2e-05
0.9557	293.15	0.000997	2.5e-05
0.9557	298.15	0.000912	2.3e-05
0.9557	303.15	0.000837	2.1e-05
1	293.15	0.000968	2.4e-05
1	298.15	0.000887	2.2e-05
1	303.15	0.000816	2.1e-05

System: cyclohexane + pentan-2-ol; phases: Liquid
Fixed: Pressure, kPa = 7
Property: Speed of sound, m/s (Liquid); method: FPINT:UFactor:4
Mole fraction of cyclohexane	Temperature, K	Speed of sound, m/s	uncertainty
0	293.15	1250	3
0	298.15	1232	3
0	303.15	1214	3
0.0495	293.15	1247	3
0.0495	298.15	1229	3
0.0495	303.15	1210	3
0.1002	293.15	1244	3
0.1002	298.15	1225	3
0.1002	303.15	1206	3
0.2019	293.15	1238	3
0.2019	298.15	1218	3
0.2019	303.15	1199	3
0.3067	293.15	1234	3
0.3067	298.15	1213	3
0.3067	303.15	1193	3
0.4011	293.15	1231	3
0.4011	298.15	1210	3
0.4011	303.15	1189	3
0.5085	293.15	1230	3
0.5085	298.15	1209	3
0.5085	303.15	1187	3
0.6066	293.15	1232	3
0.6066	298.15	1211	3
0.6066	303.15	1189	3
0.7118	293.15	1239	3
0.7118	298.15	1216	3
0.7118	303.15	1194	3
0.8096	293.15	1247	3
0.8096	298.15	1224	3
0.8096	303.15	1201	3
0.9049	293.15	1259	3
0.9049	298.15	1235	3
0.9049	303.15	1211	3
0.9557	293.15	1267	3
0.9557	298.15	1243	3
0.9557	303.15	1219	3
1	293.15	1279	3
1	298.15	1254	3
1	303.15	1230	3

System: cyclohexane + pentan-2-ol; phases: Liquid
Fixed: Pressure, kPa = 101
Property: Mass density, kg/m3 (Liquid); method: VIBTUB:UFactor:4
Mole fraction of cyclohexane	Temperature, K	Mass density, kg/m3	uncertainty
0	293.15	809.04	0.47
0	298.15	805.01	0.48
0	303.15	800.9	0.48
0.0495	293.15	806.87	0.47
0.0495	298.15	802.77	0.48
0.0495	303.15	798.6	0.48
0.1002	293.15	804.68	0.47
0.1002	298.15	800.52	0.48
0.1002	303.15	796.28	0.48
0.2019	293.15	800.29	0.47
0.2019	298.15	796	0.48
0.2019	303.15	791.65	0.48
0.3067	293.15	796.06	0.47
0.3067	298.15	791.67	0.48
0.3067	303.15	787.23	0.49
0.4011	293.15	792.42	0.48
0.4011	298.15	787.98	0.48
0.4011	303.15	783.48	0.49
0.5085	293.15	788.62	0.48
0.5085	298.15	784.11	0.48
0.5085	303.15	779.56	0.49
0.6066	293.15	785.63	0.48
0.6066	298.15	781.09	0.48
0.6066	303.15	776.49	0.49
0.7118	293.15	782.94	0.48
0.7118	298.15	778.32	0.49
0.7118	303.15	773.65	0.49
0.8096	293.15	780.86	0.48
0.8096	298.15	776.18	0.49
0.8096	303.15	771.44	0.49
0.9049	293.15	779.29	0.48
0.9049	298.15	774.54	0.49
0.9049	303.15	769.74	0.49
0.9557	293.15	778.62	0.48
0.9557	298.15	773.86	0.49
0.9557	303.15	769.07	0.49
1	293.15	778.62	0.48
1	298.15	773.92	0.49
1	303.15	769.19	0.49

System: propan-2-ol + cyclopentane; phases: Liquid
Fixed: Pressure, kPa = 101
Property: Viscosity, Pa*s (Liquid); method: CAPTUB:UFactor:4
Mole fraction of cyclopentane	Temperature, K	Viscosity, Pa*s	uncertainty
0	293.15	0.002382	5.6e-05
0	298.15	0.002045	4.9e-05
0	303.15	0.001763	4.3e-05
0.0486	293.15	0.002105	5e-05
0.0486	298.15	0.001823	4.4e-05
0.0486	303.15	0.001587	3.9e-05
0.091	293.15	0.001874	4.5e-05
0.091	298.15	0.001627	3.9e-05
0.091	303.15	0.001421	3.5e-05
0.2019	293.15	0.001425	3.5e-05
0.2019	298.15	0.001254	3.1e-05
0.2019	303.15	0.00111	2.8e-05
0.2958	293.15	0.001172	2.9e-05
0.2958	298.15	0.001038	2.6e-05
0.2958	303.15	0.000925	2.4e-05
0.3877	293.15	0.000954	2.4e-05
0.3877	298.15	0.000856	2.2e-05
0.3877	303.15	0.00077	2e-05
0.4823	293.15	0.000799	2.1e-05
0.4823	298.15	0.000724	1.9e-05
0.4823	303.15	0.000658	1.8e-05
0.5974	293.15	0.000641	1.7e-05
0.5974	298.15	0.000588	1.6e-05
0.5974	303.15	0.000542	1.5e-05
0.7206	293.15	0.000535	1.5e-05
0.7206	298.15	0.000499	1.4e-05
0.7206	303.15	0.000466	1.3e-05
0.8136	293.15	0.000484	1.4e-05
0.8136	298.15	0.000454	1.3e-05
0.8136	303.15	0.000427	1.3e-05
0.9219	293.15	0.000449	1.3e-05
0.9219	298.15	0.000424	1.2e-05
0.9219	303.15	0.000401	1.2e-05
0.9533	293.15	0.000443	1.3e-05
0.9533	298.15	0.000419	1.2e-05
0.9533	303.15	0.000398	1.2e-05
1	293.15	0.000438	1.3e-05
1	298.15	0.000416	1.2e-05
1	303.15	0.000394	1.2e-05

System: propan-2-ol + cyclopentane; phases: Liquid
Fixed: Pressure, kPa = 101
Property: Speed of sound, m/s (Liquid); method: FPINT:UFactor:4
Mole fraction of cyclopentane	Temperature, K	Speed of sound, m/s	uncertainty
0	293.15	1156	3
0	298.15	1139	2
0	303.15	1121	2
0.0486	293.15	1156	3
0.0486	298.15	1138	2
0.0486	303.15	1120	2
0.091	293.15	1155	3
0.091	298.15	1136	2
0.091	303.15	1118	2
0.2019	293.15	1156	3
0.2019	298.15	1136	3
0.2019	303.15	1116	2
0.2958	293.15	1156	3
0.2958	298.15	1135	3
0.2958	303.15	1114	2
0.3877	293.15	1158	3
0.3877	298.15	1136	3
0.3877	303.15	1114	3
0.4823	293.15	1162	3
0.4823	298.15	1139	3
0.4823	303.15	1116	3
0.5974	293.15	1168	3
0.5974	298.15	1145	3
0.5974	303.15	1121	3
0.7206	293.15	1179	3
0.7206	298.15	1154	3
0.7206	303.15	1130	3
0.8136	293.15	1190	3
0.8136	298.15	1165	3
0.8136	303.15	1140	3
0.9219	293.15	1208	3
0.9219	298.15	1183	3
0.9219	303.15	1157	3
0.9533	293.15	1215	3
0.9533	298.15	1189	3
0.9533	303.15	1164	3
1	293.15	1232	3
1	298.15	1206	3
1	303.15	1180	3

System: propan-2-ol + cyclopentane; phases: Liquid
Fixed: Pressure, kPa = 101
Property: Mass density, kg/m3 (Liquid); method: VIBTUB:UFactor:4
Mole fraction of cyclopentane	Temperature, K	Mass density, kg/m3	uncertainty
0	293.15	785.07	0.48
0	298.15	780.87	0.48
0	303.15	776.6	0.49
0.0486	293.15	782.53	0.48
0.0486	298.15	778.24	0.49
0.0486	303.15	773.87	0.5
0.091	293.15	779.96	0.49
0.091	298.15	775.6	0.5
0.091	303.15	771.15	0.5
0.2019	293.15	774.33	0.51
0.2019	298.15	769.77	0.52
0.2019	303.15	765.12	0.52
0.2958	293.15	769.22	0.53
0.2958	298.15	764.52	0.53
0.2958	303.15	759.73	0.54
0.3877	293.15	764.63	0.54
0.3877	298.15	759.81	0.55
0.3877	303.15	754.9	0.55
0.4823	293.15	760.38	0.56
0.4823	298.15	755.45	0.56
0.4823	303.15	750.44	0.57
0.5974	293.15	755.59	0.58
0.5974	298.15	750.58	0.58
0.5974	303.15	745.49	0.59
0.7206	293.15	750.97	0.6
0.7206	298.15	745.92	0.6
0.7206	303.15	740.79	0.61
0.8136	293.15	747.96	0.62
0.8136	298.15	742.89	0.62
0.8136	303.15	737.76	0.63
0.9219	293.15	745.39	0.63
0.9219	298.15	740.33	0.64
0.9219	303.15	735.2	0.64
0.9533	293.15	744.87	0.64
0.9533	298.15	739.86	0.64
0.9533	303.15	734.72	0.65
1	293.15	744.52	0.65
1	298.15	739.55	0.65
1	303.15	734.54	0.66

System: butan-2-ol + cyclopentane; phases: Liquid
Fixed: Pressure, kPa = 101
Property: Viscosity, Pa*s (Liquid); method: CAPTUB:UFactor:4
Mole fraction of cyclopentane	Temperature, K	Viscosity, Pa*s	uncertainty
0	293.15	0.003623	8.4e-05
0	298.15	0.002995	7.1e-05
0	303.15	0.002493	6e-05
0.0445	293.15	0.003152	7.4e-05
0.0445	298.15	0.002621	6.3e-05
0.0445	303.15	0.002194	5.3e-05
0.1036	293.15	0.002649	6.3e-05
0.1036	298.15	0.002231	5.3e-05
0.1036	303.15	0.001898	4.6e-05
0.1872	293.15	0.002121	5.1e-05
0.1872	298.15	0.001811	4.4e-05
0.1872	303.15	0.00156	3.8e-05
0.2856	293.15	0.001604	3.9e-05
0.2856	298.15	0.001393	3.4e-05
0.2856	303.15	0.001219	3e-05
0.3938	293.15	0.001194	3e-05
0.3938	298.15	0.001054	2.7e-05
0.3938	303.15	0.00094	2.4e-05
0.4873	293.15	0.000946	2.4e-05
0.4873	298.15	0.00085	2.2e-05
0.4873	303.15	0.00077	2e-05
0.6179	293.15	0.000692	1.9e-05
0.6179	298.15	0.000636	1.7e-05
0.6179	303.15	0.000588	1.6e-05
0.7034	293.15	0.00061	1.7e-05
0.7034	298.15	0.000569	1.6e-05
0.7034	303.15	0.000531	1.5e-05
0.8115	293.15	0.000517	1.5e-05
0.8115	298.15	0.000485	1.4e-05
0.8115	303.15	0.000455	1.3e-05
0.9113	293.15	0.000468	1.3e-05
0.9113	298.15	0.000441	1.3e-05
0.9113	303.15	0.000416	1.2e-05
0.9506	293.15	0.000451	1.3e-05
0.9506	298.15	0.000426	1.3e-05
0.9506	303.15	0.000403	1.2e-05
1	293.15	0.000438	1.3e-05
1	298.15	0.000416	1.2e-05
1	303.15	0.000394	1.2e-05

System: butan-2-ol + cyclopentane; phases: Liquid
Fixed: Pressure, kPa = 101
Property: Speed of sound, m/s (Liquid); method: FPINT:UFactor:4
Mole fraction of cyclopentane	Temperature, K	Speed of sound, m/s	uncertainty
0	293.15	1230	3
0	298.15	1212	3
0	303.15	1194	3
0.0445	293.15	1225	3
0.0445	298.15	1207	3
0.0445	303.15	1188	3
0.1036	293.15	1219	3
0.1036	298.15	1200	3
0.1036	303.15	1181	3
0.1872	293.15	1212	3
0.1872	298.15	1192	3
0.1872	303.15	1172	3
0.2856	293.15	1204	3
0.2856	298.15	1183	3
0.2856	303.15	1162	3
0.3938	293.15	1197	3
0.3938	298.15	1175	3
0.3938	303.15	1153	3
0.4873	293.15	1193	3
0.4873	298.15	1170	3
0.4873	303.15	1148	3
0.6179	293.15	1191	3
0.6179	298.15	1167	3
0.6179	303.15	1144	3
0.7034	293.15	1193	3
0.7034	298.15	1169	3
0.7034	303.15	1145	3
0.8115	293.15	1200	3
0.8115	298.15	1175	3
0.8115	303.15	1151	3
0.9113	293.15	1211	3
0.9113	298.15	1186	3
0.9113	303.15	1161	3
0.9506	293.15	1218	3
0.9506	298.15	1192	3
0.9506	303.15	1167	3
1	293.15	1232	3
1	298.15	1206	3
1	303.15	1180	3

System: butan-2-ol + cyclopentane; phases: Liquid
Fixed: Pressure, kPa = 101
Property: Mass density, kg/m3 (Liquid); method: VIBTUB:UFactor:4
Mole fraction of cyclopentane	Temperature, K	Mass density, kg/m3	uncertainty
0	293.15	806.84	0.47
0	298.15	802.72	0.48
0	303.15	798.51	0.48
0.0445	293.15	803.52	0.48
0.0445	298.15	799.33	0.49
0.0445	303.15	795.05	0.49
0.1036	293.15	799.5	0.49
0.1036	298.15	795.2	0.5
0.1036	303.15	790.81	0.5
0.1872	293.15	793.75	0.51
0.1872	298.15	789.32	0.51
0.1872	303.15	784.79	0.52
0.2856	293.15	787.01	0.53
0.2856	298.15	782.42	0.53
0.2856	303.15	777.74	0.54
0.3938	293.15	779.61	0.55
0.3938	298.15	774.87	0.55
0.3938	303.15	770.05	0.56
0.4873	293.15	773.26	0.56
0.4873	298.15	768.43	0.57
0.4873	303.15	763.52	0.57
0.6179	293.15	764.92	0.58
0.6179	298.15	760.01	0.59
0.6179	303.15	755.02	0.6
0.7034	293.15	759.79	0.6
0.7034	298.15	754.84	0.6
0.7034	303.15	749.82	0.61
0.8115	293.15	753.71	0.62
0.8115	298.15	748.71	0.62
0.8115	303.15	743.64	0.63
0.9113	293.15	748.61	0.63
0.9113	298.15	743.57	0.64
0.9113	303.15	738.46	0.64
0.9506	293.15	746.74	0.64
0.9506	298.15	741.7	0.64
0.9506	303.15	736.6	0.65
1	293.15	744.52	0.65
1	298.15	739.55	0.65
1	303.15	734.54	0.66

System: cyclopentane + pentan-2-ol; phases: Liquid
Fixed: Pressure, kPa = 101
Property: Viscosity, Pa*s (Liquid); method: CAPTUB:UFactor:4
Mole fraction of cyclopentane	Temperature, K	Viscosity, Pa*s	uncertainty
0	293.15	0.004001	9.3e-05
0	298.15	0.003273	7.7e-05
0	303.15	0.002774	6.6e-05
0.045	293.15	0.003573	8.3e-05
0.045	298.15	0.002948	7e-05
0.045	303.15	0.002459	5.9e-05
0.103	293.15	0.003005	7.1e-05
0.103	298.15	0.002509	6e-05
0.103	303.15	0.002118	5.1e-05
0.1878	293.15	0.002322	5.6e-05
0.1878	298.15	0.001969	4.7e-05
0.1878	303.15	0.001687	4.1e-05
0.2924	293.15	0.001723	4.2e-05
0.2924	298.15	0.001491	3.6e-05
0.2924	303.15	0.001304	3.2e-05
0.3906	293.15	0.001296	3.2e-05
0.3906	298.15	0.001148	2.9e-05
0.3906	303.15	0.001027	2.6e-05
0.5117	293.15	0.000957	2.5e-05
0.5117	298.15	0.00087	2.2e-05
0.5117	303.15	0.000794	2.1e-05
0.6242	293.15	0.000747	2e-05
0.6242	298.15	0.000694	1.8e-05
0.6242	303.15	0.000645	1.7e-05
0.721	293.15	0.000629	1.7e-05
0.721	298.15	0.000587	1.6e-05
0.721	303.15	0.000548	1.5e-05
0.8091	293.15	0.000552	1.5e-05
0.8091	298.15	0.000516	1.5e-05
0.8091	303.15	0.000487	1.4e-05
0.9094	293.15	0.000482	1.4e-05
0.9094	298.15	0.000453	1.3e-05
0.9094	303.15	0.000428	1.3e-05
0.9552	293.15	0.000455	1.3e-05
0.9552	298.15	0.00043	1.3e-05
0.9552	303.15	0.000407	1.2e-05
1	293.15	0.000439	1.3e-05
1	298.15	0.000416	1.2e-05
1	303.15	0.000394	1.2e-05

System: cyclopentane + pentan-2-ol; phases: Liquid
Fixed: Pressure, kPa = 101
Property: Speed of sound, m/s (Liquid); method: FPINT:UFactor:4
Mole fraction of cyclopentane	Temperature, K	Speed of sound, m/s	uncertainty
0	293.15	1250	3
0	298.15	1232	3
0	303.15	1214	3
0.045	293.15	1246	3
0.045	298.15	1227	3
0.045	303.15	1208	3
0.103	293.15	1239	3
0.103	298.15	1220	3
0.103	303.15	1200	3
0.1878	293.15	1229	3
0.1878	298.15	1209	3
0.1878	303.15	1189	3
0.2924	293.15	1218	3
0.2924	298.15	1198	3
0.2924	303.15	1177	3
0.3906	293.15	1209	3
0.3906	298.15	1188	3
0.3906	303.15	1167	3
0.5117	293.15	1201	3
0.5117	298.15	1179	3
0.5117	303.15	1157	3
0.6242	293.15	1197	3
0.6242	298.15	1175	3
0.6242	303.15	1152	3
0.721	293.15	1198	3
0.721	298.15	1175	3
0.721	303.15	1152	3
0.8091	293.15	1202	3
0.8091	298.15	1178	3
0.8091	303.15	1154	3
0.9094	293.15	1211	3
0.9094	298.15	1186	3
0.9094	303.15	1161	3
0.9552	293.15	1218	3
0.9552	298.15	1193	3
0.9552	303.15	1167	3
1	293.15	1232	3
1	298.15	1206	3
1	303.15	1180	3

System: cyclopentane + pentan-2-ol; phases: Liquid
Fixed: Pressure, kPa = 101
Property: Mass density, kg/m3 (Liquid); method: VIBTUB:UFactor:4
Mole fraction of cyclopentane	Temperature, K	Mass density, kg/m3	uncertainty
0	293.15	809.04	0.47
0	298.15	805.01	0.48
0	303.15	800.9	0.48
0.045	293.15	806.38	0.48
0.045	298.15	802.28	0.48
0.045	303.15	798.1	0.49
0.103	293.15	802.8	0.49
0.103	298.15	798.62	0.49
0.103	303.15	794.35	0.5
0.1878	293.15	797.38	0.5
0.1878	298.15	793.07	0.51
0.1878	303.15	788.68	0.51
0.2924	293.15	790.57	0.52
0.2924	298.15	786.12	0.53
0.2924	303.15	781.6	0.53
0.3906	293.15	783.89	0.54
0.3906	298.15	779.33	0.55
0.3906	303.15	774.71	0.55
0.5117	293.15	775.68	0.56
0.5117	298.15	771.03	0.57
0.5117	303.15	766.32	0.57
0.6242	293.15	768.16	0.58
0.6242	298.15	763.43	0.59
0.6242	303.15	758.63	0.59
0.721	293.15	761.81	0.6
0.721	298.15	756.98	0.6
0.721	303.15	752.09	0.61
0.8091	293.15	756.27	0.61
0.8091	298.15	751.36	0.62
0.8091	303.15	746.38	0.62
0.9094	293.15	749.82	0.63
0.9094	298.15	744.82	0.64
0.9094	303.15	739.76	0.64
0.9552	293.15	746.94	0.64
0.9552	298.15	741.92	0.64
0.9552	303.15	736.85	0.65
1	293.15	744.52	0.65
1	298.15	739.55	0.65
1	303.15	734.54	0.66
