Measured thermophysical data. Solubility of Ceftriaxone Disodium in Acetone, Methanol, Ethanol, N,N-Dimethylformamide, and Formamide between 278 and 318 K
Source: J. Chem. Eng. Data, 2005, 10.1021/je0501989
Compound 1: disodium ceftriaxone, C18H16N8Na2O7S3, InChI=1S/C18H18N8O7S3.2Na/c1-25-18(22-12(28)13(29)23-25)36-4-6-3-34-15-9(14(30)26(15)10(6)16(31)32)21-11(27)8(24-33-2)7-5-35-17(19)20-7;;/h5,9,15H,3-4H2,1-2H3,(H5,19,20,21,23,27,29,31,32);;/q;2*+1/p-2/b24-8-;;/t9-,15-;;/m1../s1
Compound 2: acetone, C3H6O, InChI=1S/C3H6O/c1-3(2)4/h1-2H3, purity 99.5%
Compound 3: methanol, CH4O, InChI=1S/CH4O/c1-2/h2H,1H3, purity 99.5%
Compound 4: ethanol, C2H6O, InChI=1S/C2H6O/c1-2-3/h3H,2H2,1H3, purity 99.5%
Compound 5: dimethylformamide, C3H7NO, InChI=1S/C3H7NO/c1-4(2)3-5/h3H,1-2H3, purity 99.5%
Compound 6: formamide, CH3NO, InChI=1S/CH3NO/c2-1-3/h1H,(H2,2,3), purity 99.5%

System: acetone + disodium ceftriaxone; phases: Liquid, Crystal
Fixed: Pressure, kPa = 101.3
Property: Mole fraction of disodium ceftriaxone (Liquid); method: Laser intensity
Temperature, K	Mole fraction of disodium ceftriaxone	uncertainty
277.95	1.799e-06	1.85e-07
282.5	2.079e-06	2.14e-07
285.7	2.36e-06	2.43e-07
289.5	2.52e-06	2.59e-07
294.3	3.047e-06	3.14e-07
298.75	3.532e-06	3.64e-07
305.25	3.985e-06	4.1e-07
309.35	4.613e-06	4.75e-07
313.15	5.058e-06	5.21e-07
318.45	5.553e-06	5.71e-07

System: methanol + disodium ceftriaxone; phases: Liquid, Crystal
Fixed: Pressure, kPa = 101.3
Property: Mole fraction of disodium ceftriaxone (Liquid); method: Laser intensity
Temperature, K	Mole fraction of disodium ceftriaxone	uncertainty
278.3	0.0004184	4.57e-05
283.2	0.0005129	5.61e-05
288	0.0006491	7.1e-05
293.25	0.0008052	8.8e-05
297.9	0.0009813	0.0001073
303.1	0.001216	0.000133
305.6	0.001345	0.000147
309.65	0.00154	0.000168
313.8	0.001855	0.000203
317.9	0.002166	0.000237

System: ethanol + disodium ceftriaxone; phases: Liquid, Crystal
Fixed: Pressure, kPa = 101.3
Property: Mole fraction of disodium ceftriaxone (Liquid); method: Laser intensity
Temperature, K	Mole fraction of disodium ceftriaxone	uncertainty
277.85	1.302e-05	2.64e-06
282.05	1.651e-05	3.34e-06
286.4	1.903e-05	3.85e-06
291.7	2.12e-05	4.29e-06
297.1	2.242e-05	4.54e-06
299.25	2.307e-05	4.67e-06
304.15	2.505e-05	5.07e-06
309.4	3.312e-05	6.7e-06
314.85	3.871e-05	7.83e-06
316.35	4.368e-05	8.84e-06

System: dimethylformamide + disodium ceftriaxone; phases: Liquid, Crystal
Fixed: Pressure, kPa = 101.3
Property: Mole fraction of disodium ceftriaxone (Liquid); method: Laser intensity
Temperature, K	Mole fraction of disodium ceftriaxone	uncertainty
278.2	5.677e-05	5.79e-06
282.65	6.704e-05	6.83e-06
289.55	9.076e-05	9.25e-06
294.45	0.000119	1.21e-05
300.35	0.000151	1.54e-05
303.2	0.0001764	1.8e-05
305.65	0.0001898	1.93e-05
310.65	0.0002229	2.27e-05
313.8	0.0002675	2.73e-05
317.6	0.0002863	2.92e-05

System: formamide + disodium ceftriaxone; phases: Liquid, Crystal
Fixed: Pressure, kPa = 101.3
Property: Mole fraction of disodium ceftriaxone (Liquid); method: Laser intensity
Temperature, K	Mole fraction of disodium ceftriaxone	uncertainty
278.4	0.006641	0.000697
282.25	0.008193	0.00086
287.75	0.01083	0.00114
294.05	0.01488	0.00156
299.65	0.01945	0.00204
305.1	0.02474	0.0026
307.7	0.02787	0.00293
311.8	0.0333	0.0035
315.25	0.03852	0.00405
