Measured thermophysical data. Solubility and Diffusivity of Difluoromethane in Room-Temperature Ionic Liquids
Source: J. Chem. Eng. Data, 2006, 10.1021/je050386z
Compound 1: 1-butyl-3-methylimidazolium 1,1,2,2-tetrafluoroethanesulfonate, C10H16F4N2O3S, InChI=1S/C8H15N2.C2H2F4O3S/c1-3-4-5-10-7-6-9(2)8-10;3-1(4)2(5,6)10(7,8)9/h6-8H,3-5H2,1-2H3;1H,(H,7,8,9)/q+1;/p-1
Compound 2: 1-ethyl-3-methyl-1H-imidazolium 1,1,2,2-tetrafluoroethane-1-sulfonate, C8H12F4N2O3S, InChI=1S/C6H11N2.C2H2F4O3S/c1-3-8-5-4-7(2)6-8;3-1(4)2(5,6)10(7,8)9/h4-6H,3H2,1-2H3;1H,(H,7,8,9)/q+1;/p-1
Compound 3: 1-heptyl-3-methylimidazolium 1,1,2,2-tetrafluoroethanesulfonate, C13H22F4N2O3S, InChI=1S/C11H21N2.C2H2F4O3S/c1-3-4-5-6-7-8-13-10-9-12(2)11-13;3-1(4)2(5,6)10(7,8)9/h9-11H,3-8H2,1-2H3;1H,(H,7,8,9)/q+1;/p-1
Compound 4: 1-dodecyl-3-methylimidazolium 1,1,2,2-tetrafluoroethanesulfonate, C18H32F4N2O3S, InChI=1S/C16H31N2.C2H2F4O3S/c1-3-4-5-6-7-8-9-10-11-12-13-18-15-14-17(2)16-18;3-1(4)2(5,6)10(7,8)9/h14-16H,3-13H2,1-2H3;1H,(H,7,8,9)/q+1;/p-1
Compound 5: 3-methyl-1-propylpyridinium bis(trifluoromethylsulfonyl)imide, C11H14F6N2O4S2, InChI=1S/C9H14N.C2F6NO4S2/c1-3-6-10-7-4-5-9(2)8-10;3-1(4,5)14(10,11)9-15(12,13)2(6,7)8/h4-5,7-8H,3,6H2,1-2H3;/q+1;-1, purity 97%
Compound 6: 1,2-dimethyl-3-propylimidazolium tris(trifluoromethylsulfonyl)methide, C12H15F9N2O6S3, InChI=1S/C8H15N2.C4F9O6S3/c1-4-5-10-7-6-9(3)8(10)2;5-2(6,7)20(14,15)1(21(16,17)3(8,9)10)22(18,19)4(11,12)13/h6-7H,4-5H2,1-3H3;/q+1;-1, purity 97%
Compound 7: 1,2-dimethyl-3-propylimidazolium bis[(trifluoromethyl)sulfonyl]imide, C10H15F6N3O4S2, InChI=1S/C8H15N2.C2F6NO4S2/c1-4-5-10-7-6-9(3)8(10)2;3-1(4,5)14(10,11)9-15(12,13)2(6,7)8/h6-7H,4-5H2,1-3H3;/q+1;-1, purity 97%
Compound 8: 1-ethyl-3-methylimidazolium 1,1,2,2,2-pentafluoro-N-[(pentafluoroethyl)sulfonyl]ethanesulfonamide, C10H11F10N3O4S2, InChI=1S/C6H11N2.C4F10NO4S2/c1-3-8-5-4-7(2)6-8;5-1(6,7)3(11,12)20(16,17)15-21(18,19)4(13,14)2(8,9)10/h4-6H,3H2,1-2H3;/q+1;-1, purity 97%
Compound 9: 1-butyl-3-methylpyridinium 1,1,1-trifluoro-N-[(trifluoromethyl)sulfonyl]methanesulfonamide, C12H16F6N2O4S2, InChI=1S/C10H16N.C2F6NO4S2/c1-3-4-7-11-8-5-6-10(2)9-11;3-1(4,5)14(10,11)9-15(12,13)2(6,7)8/h5-6,8-9H,3-4,7H2,1-2H3;/q+1;-1, purity 97%
Compound 10: 1-butyl-3-methylimidazolium acetate, C10H18N2O2, InChI=1S/C8H15N2.C2H4O2/c1-3-4-5-10-7-6-9(2)8-10;1-2(3)4/h6-8H,3-5H2,1-2H3;1H3,(H,3,4)/q+1;/p-1, purity 97%
Compound 11: 1-butyl-3-methylimidazolium thiocyanate, C9H15N3S, InChI=1S/C8H15N2.CHNS/c1-3-4-5-10-7-6-9(2)8-10;2-1-3/h6-8H,3-5H2,1-2H3;3H/q+1;/p-1, purity 97%
Compound 12: 1-butyl-3-methylimidazolium methyl sulfate, C9H18N2O4S, InChI=1S/C8H15N2.CH4O4S/c1-3-4-5-10-7-6-9(2)8-10;1-5-6(2,3)4/h6-8H,3-5H2,1-2H3;1H3,(H,2,3,4)/q+1;/p-1, purity 97%
Compound 13: 1H-Imidazolium, 3-butyl-1-methyl-, 1,1,2,3,3,3-hexafluoro-1-propanesulfonate (1:1), C11H16F6N2O3S, InChI=1S/C8H15N2.C3H2F6O3S/c1-3-4-5-10-7-6-9(2)8-10;4-1(2(5,6)7)3(8,9)13(10,11)12/h6-8H,3-5H2,1-2H3;1H,(H,10,11,12)/q+1;/p-1
Compound 14: 1-butyl-3-methylimidazolium 2-(1,2,2,2-tetrafluoroethoxy)-1,1,2,2-tetrafluoroethanesulfonate, C12H16F8N2O4S, InChI=1S/C8H15N2.C4H2F8O4S/c1-3-4-5-10-7-6-9(2)8-10;5-1(2(6,7)8)16-3(9,10)4(11,12)17(13,14)15/h6-8H,3-5H2,1-2H3;1H,(H,13,14,15)/q+1;/p-1
Compound 15: 1-butyl-3-methylimidazolium 1,1,2-trifluoro-2-(perfluoroethoxy)ethanesulfonate, C12H16F8N2O4S, InChI=1S/C8H15N2.C4H2F8O4S/c1-3-4-5-10-7-6-9(2)8-10;5-1(2(6,7)17(13,14)15)16-4(11,12)3(8,9)10/h6-8H,3-5H2,1-2H3;1H,(H,13,14,15)/q+1;/p-1
Compound 16: 1-butyl-3-methylimidazolium 1,1,2-trifluoro-2-(trifluoromethoxy)ethanesulfonate, C11H16F6N2O4S, InChI=1S/C8H15N2.C3H2F6O4S/c1-3-4-5-10-7-6-9(2)8-10;4-1(13-3(7,8)9)2(5,6)14(10,11)12/h6-8H,3-5H2,1-2H3;1H,(H,10,11,12)/q+1;/p-1
Compound 17: difluoromethane, CH2F2, InChI=1S/CH2F2/c2-1-3/h1H2, purity 99.9%
Compound 18: 1-ethyl-3-methylimidazolium bis((trifluoromethyl)sulfonyl)imide, C8H11F6N3O4S2, InChI=1S/C6H11N2.C2F6NO4S2/c1-3-8-5-4-7(2)6-8;3-1(4,5)14(10,11)9-15(12,13)2(6,7)8/h4-6H,3H2,1-2H3;/q+1;-1

System: 1-butyl-3-methylimidazolium 1,1,2,2-tetrafluoroethanesulfonate; phases: Liquid
Property: Mass density, kg/m3 (Liquid); method: Pycnometric method
Temperature, K	Pressure, kPa	Mass density, kg/m3	uncertainty
301.45	101.325	1324	4

System: 1-ethyl-3-methyl-1H-imidazolium 1,1,2,2-tetrafluoroethane-1-sulfonate; phases: Liquid
Property: Mass density, kg/m3 (Liquid); method: Pycnometric method
Temperature, K	Pressure, kPa	Mass density, kg/m3	uncertainty
301.45	101.325	1502	5

System: 1-heptyl-3-methylimidazolium 1,1,2,2-tetrafluoroethanesulfonate; phases: Liquid
Property: Mass density, kg/m3 (Liquid); method: Pycnometric method
Temperature, K	Pressure, kPa	Mass density, kg/m3	uncertainty
301.15	101.325	1274	4

System: 1-dodecyl-3-methylimidazolium 1,1,2,2-tetrafluoroethanesulfonate; phases: Liquid
Property: Mass density, kg/m3 (Liquid); method: Pycnometric method
Temperature, K	Pressure, kPa	Mass density, kg/m3	uncertainty
301.35	101.325	1136	4

System: 3-methyl-1-propylpyridinium bis(trifluoromethylsulfonyl)imide; phases: Liquid
Fixed: Pressure, kPa = 101.325
Property: Mass density, kg/m3 (Liquid); method: Vibrating tube method
Temperature, K	Mass density, kg/m3	uncertainty
283.15	1460	3
298.15	1444	3
323.15	1420	3
348.15	1397	3

System: 1,2-dimethyl-3-propylimidazolium tris(trifluoromethylsulfonyl)methide; phases: Liquid
Fixed: Pressure, kPa = 101.325
Property: Mass density, kg/m3 (Liquid); method: Vibrating tube method
Temperature, K	Mass density, kg/m3	uncertainty
283.15	1612	3
298.15	1597	3
323.15	1582	3
348.15	1567	3

System: 1,2-dimethyl-3-propylimidazolium bis[(trifluoromethyl)sulfonyl]imide; phases: Liquid
Property: Mass density, kg/m3 (Liquid); method: Pycnometric method
Temperature, K	Pressure, kPa	Mass density, kg/m3	uncertainty
299.15	101.325	1481	3

System: 1-ethyl-3-methylimidazolium 1,1,2,2,2-pentafluoro-N-[(pentafluoroethyl)sulfonyl]ethanesulfonamide; phases: Liquid
Fixed: Pressure, kPa = 101.325
Property: Mass density, kg/m3 (Liquid); method: Vibrating tube method
Temperature, K	Mass density, kg/m3	uncertainty
283.15	1608	3
298.15	1590	3
323.15	1562	3
348.15	1534	3

System: 1-butyl-3-methylpyridinium 1,1,1-trifluoro-N-[(trifluoromethyl)sulfonyl]methanesulfonamide; phases: Liquid
Fixed: Pressure, kPa = 101.325
Property: Mass density, kg/m3 (Liquid); method: Vibrating tube method
Temperature, K	Mass density, kg/m3	uncertainty
283.15	1428	3
298.15	1412	3
323.15	1389	3
348.15	1367	3

System: 1-butyl-3-methylimidazolium acetate; phases: Liquid
Property: Mass density, kg/m3 (Liquid); method: Pycnometric method
Temperature, K	Pressure, kPa	Mass density, kg/m3	uncertainty
298.15	101.325	1053	3

System: 1-butyl-3-methylimidazolium thiocyanate; phases: Liquid
Property: Mass density, kg/m3 (Liquid); method: Pycnometric method
Temperature, K	Pressure, kPa	Mass density, kg/m3	uncertainty
298.65	101.325	1067	3

System: 1-butyl-3-methylimidazolium methyl sulfate; phases: Liquid
Property: Mass density, kg/m3 (Liquid); method: Pycnometric method
Temperature, K	Pressure, kPa	Mass density, kg/m3	uncertainty
298.15	101.325	1214	3

System: 1H-Imidazolium, 3-butyl-1-methyl-, 1,1,2,3,3,3-hexafluoro-1-propanesulfonate (1:1); phases: Liquid
Fixed: Pressure, kPa = 101.325
Property: Mass density, kg/m3 (Liquid); method: Vibrating tube method
Temperature, K	Mass density, kg/m3	uncertainty
283.15	1422	4
298.15	1409	4
323.15	1385	4
348.15	1364	4

System: 1-butyl-3-methylimidazolium 2-(1,2,2,2-tetrafluoroethoxy)-1,1,2,2-tetrafluoroethanesulfonate; phases: Liquid
Fixed: Pressure, kPa = 101.325
Property: Mass density, kg/m3 (Liquid); method: Vibrating tube method
Temperature, K	Mass density, kg/m3	uncertainty
283.15	1464	4
298.15	1449	4
323.15	1425	4
348.15	1401	4

System: 1-butyl-3-methylimidazolium 1,1,2-trifluoro-2-(perfluoroethoxy)ethanesulfonate; phases: Liquid
Fixed: Pressure, kPa = 101.325
Property: Mass density, kg/m3 (Liquid); method: Vibrating tube method
Temperature, K	Mass density, kg/m3	uncertainty
283.15	1439	4
298.15	1423	4
323.15	1397	4
348.15	1372	4

System: 1-butyl-3-methylimidazolium 1,1,2-trifluoro-2-(trifluoromethoxy)ethanesulfonate; phases: Liquid
Fixed: Pressure, kPa = 101.325
Property: Mass density, kg/m3 (Liquid); method: Vibrating tube method
Temperature, K	Mass density, kg/m3	uncertainty
283.15	1409	4
298.15	1393	4
323.15	1369	4
348.15	1345	4

System: 1-ethyl-3-methylimidazolium bis((trifluoromethyl)sulfonyl)imide; phases: Liquid
Fixed: Pressure, kPa = 101.325
Property: Mass density, kg/m3 (Liquid); method: Vibrating tube method
Temperature, K	Mass density, kg/m3	uncertainty
283.15	1534	5
298.15	1517	5
323.15	1492	4
348.15	1467	4

System: difluoromethane + 1,2-dimethyl-3-propylimidazolium tris(trifluoromethylsulfonyl)methide; phases: Liquid, Gas
Property: Thermal diffusivity, m2/s (Liquid); method: time dependent absorption data
Temperature, K	Mole fraction of difluoromethane	Thermal diffusivity, m2/s	uncertainty
283.15	0.136	1.4e-11	1.4e-11
283.15	0.312	2.5e-11	2.5e-11
283.15	0.46	5e-11	5e-11
283.15	0.586	8.9e-11	8.9e-11
283.15	0.7	1.4e-10	1.4e-10
283.15	0.805	1.6e-10	1.6e-10
298.05	0.01	2.7e-11	2.7e-11
298.05	0.096	2.5e-11	2.5e-11
298.05	0.337	5.5e-11	5.5e-11
298.05	0.435	7.9e-11	7.9e-11
298.05	0.52	1.1e-10	1.1e-10
298.05	0.598	1.3e-10	1.3e-10
298.05	0.667	1.8e-10	1.8e-10
323.15	0.004	6.4e-11	6.4e-11
323.15	0.057	6.7e-11	6.7e-11
323.15	0.141	7.9e-11	7.9e-11
323.15	0.215	9.6e-11	9.6e-11
323.15	0.281	1.2e-10	1.2e-10
323.15	0.341	1.3e-10	1.3e-10
323.15	0.397	1.5e-10	1.5e-10
323.15	0.448	1.7e-10	1.7e-10
348.05	0.088	1.2e-10	1.2e-10
348.05	0.139	1.3e-10	1.3e-10
348.05	0.186	1.6e-10	1.6e-10
348.05	0.312	2.1e-10	2.1e-10

System: difluoromethane + 1,2-dimethyl-3-propylimidazolium tris(trifluoromethylsulfonyl)methide; phases: Liquid, Gas
Property: Mole fraction of difluoromethane (Liquid); method: gravimetric microbalance
Temperature, K	Pressure, kPa	Mole fraction of difluoromethane	uncertainty
283.15	10.1	0.012	0.006
283.15	99.6	0.136	0.006
283.15	249.7	0.312	0.006
283.15	399.7	0.46	0.007
283.15	549.5	0.586	0.007
283.15	699.7	0.7	0.006
283.15	849.6	0.805	0.006
298.05	10	0.01	0.006
298.05	100	0.096	0.006
298.05	249.6	0.226	0.006
298.05	399.6	0.337	0.006
298.05	549.3	0.435	0.007
298.05	699.5	0.52	0.007
298.05	849.5	0.598	0.006
298.05	1000	0.667	0.006
323.15	9.9	0.004	0.004
323.15	100	0.057	0.006
323.15	249.4	0.141	0.006
323.15	399.5	0.215	0.006
323.15	549.5	0.281	0.006
323.15	699.7	0.341	0.006
323.15	849.4	0.397	0.006
323.15	999.5	0.448	0.007
348.05	9.4	0	
348.15	100.2	0.031	0.006
348.05	250.4	0.088	0.006
348.05	399.6	0.139	0.006
348.05	549.4	0.186	0.006
348.05	700.5	0.231	0.006
348.05	849.5	0.272	0.006
348.05	1000.5	0.312	0.006

System: difluoromethane + 1-ethyl-3-methylimidazolium 1,1,2,2,2-pentafluoro-N-[(pentafluoroethyl)sulfonyl]ethanesulfonamide; phases: Liquid, Gas
Property: Thermal diffusivity, m2/s (Liquid); method: gravimetric microbalance
Temperature, K	Mole fraction of difluoromethane	Thermal diffusivity, m2/s	uncertainty
283.15	0.014	3.8e-11	3.8e-11
283.15	0.145	4.8e-11	4.8e-11
283.15	0.325	7.4e-11	7.4e-11
283.15	0.47	1.2e-10	1.2e-10
283.15	0.593	1.5e-10	1.5e-10
283.15	0.703	1.7e-10	1.7e-10
283.15	0.802	1.7e-10	1.7e-10
298.15	0.01	7.5e-11	7.5e-11
298.15	0.104	7.9e-11	7.9e-11
298.15	0.238	1.1e-10	1.1e-10
298.15	0.349	1.3e-10	1.3e-10
298.15	0.445	1.6e-10	1.6e-10
298.15	0.529	1.8e-10	1.8e-10
298.15	0.603	2.1e-10	2.1e-10
323.15	0.059	1.3e-10	1.3e-10
323.15	0.146	1.8e-10	1.8e-10
323.15	0.221	1.9e-10	1.9e-10
323.15	0.288	2.2e-10	2.2e-10
323.15	0.348	2.3e-10	2.3e-10
323.15	0.403	2.7e-10	2.7e-10
348.05	0.038	2.6e-10	2.6e-10
348.05	0.095	3.3e-10	3.3e-10
348.05	0.196	3.5e-10	3.5e-10
348.05	0.241	3.4e-10	3.4e-10
348.05	0.283	3.5e-10	3.5e-10

System: difluoromethane + 1-ethyl-3-methylimidazolium 1,1,2,2,2-pentafluoro-N-[(pentafluoroethyl)sulfonyl]ethanesulfonamide; phases: Liquid, Gas
Property: Mole fraction of difluoromethane (Liquid); method: gravimetric microbalance
Temperature, K	Pressure, kPa	Mole fraction of difluoromethane	uncertainty
283.15	10.1	0.014	0.0061
283.15	100	0.145	0.0061
283.15	249.5	0.325	0.0063
283.15	399.5	0.47	0.0066
283.15	549.6	0.593	0.0065
283.15	699.4	0.703	0.0063
283.15	850.5	0.802	0.0062
298.15	9.6	0.01	0.0061
298.15	99.7	0.104	0.0061
298.15	249.6	0.238	0.0061
298.15	399.6	0.349	0.0063
298.15	549.3	0.445	0.0065
298.15	699.3	0.529	0.0066
298.15	850.3	0.603	0.0064
298.15	1000.5	0.672	0.0063
323.15	10	0.004	0.004
323.15	99.7	0.059	0.006
323.15	249.7	0.146	0.006
323.15	399.6	0.221	0.0061
323.15	549.5	0.288	0.0062
323.15	699.5	0.348	0.0063
323.15	850.4	0.403	0.0064
323.15	999.3	0.454	0.0065
348.05	10.1	0.001	0.001
348.05	100	0.038	0.006
348.05	250.1	0.095	0.006
348.05	399.2	0.147	0.006
348.05	549.6	0.196	0.0061
348.05	699.6	0.241	0.0061
348.05	850.4	0.283	0.0061
348.05	999.4	0.321	0.0062

System: difluoromethane + 1-ethyl-3-methylimidazolium bis((trifluoromethyl)sulfonyl)imide; phases: Liquid, Gas
Property: Mole fraction of difluoromethane (Liquid); method: gravimetric microbalance
Temperature, K	Pressure, kPa	Mole fraction of difluoromethane	uncertainty
283.15	10.2	0.014	0.0061
283.15	100.1	0.136	0.0061
283.15	250.3	0.306	0.0065
283.15	399.3	0.448	0.0073
283.15	549.3	0.57	0.0072
283.15	700.4	0.672	0.0067
283.15	849.4	0.786	0.0063
298.15	9.6	0.01	0.006
298.15	99.8	0.095	0.006
298.15	250.2	0.218	0.0062
298.15	399.4	0.325	0.0066
298.15	549.4	0.417	0.0071
298.15	699.5	0.499	0.0076
298.15	849.5	0.57	0.0072
298.15	999.7	0.643	0.0068
323.15	10.2	0.005	0.005
323.15	100.3	0.055	0.006
323.15	249.7	0.133	0.006
323.15	400.1	0.2	0.0061
323.15	549.5	0.264	0.0063
323.15	700.3	0.32	0.0065
323.15	850.4	0.368	0.0068
323.15	1000.4	0.417	0.0071
348.05	10.3	0.002	0.002
348.05	99.8	0.034	0.006
348.05	249.7	0.084	0.006
348.05	399.5	0.131	0.006
348.05	550.3	0.175	0.0061
348.05	699.2	0.216	0.0062
348.05	850.4	0.254	0.0063
348.05	1000.5	0.288	0.0064

System: difluoromethane + 1-ethyl-3-methylimidazolium bis((trifluoromethyl)sulfonyl)imide; phases: Liquid, Gas
Property: Thermal diffusivity, m2/s (Liquid); method: time dependent absorption data
Temperature, K	Mole fraction of difluoromethane	Thermal diffusivity, m2/s	uncertainty
283.15	0.014	4.1e-11	4.1e-11
283.15	0.136	5.1e-11	5.1e-11
283.15	0.306	8.2e-11	8.2e-11
283.15	0.448	1.3e-10	1.3e-10
283.15	0.57	1.7e-10	1.7e-10
283.15	0.672	1.9e-10	1.9e-10
298.15	0.01	5.9e-11	5.9e-11
298.15	0.095	9.1e-11	9.1e-11
298.15	0.218	1.1e-10	1.1e-10
298.15	0.325	1.4e-10	1.4e-10
298.15	0.417	1.8e-10	1.8e-10
298.15	0.499	2e-10	2e-10
298.15	0.57	2.3e-10	2.3e-10
323.15	0.005	1.5e-10	1.5e-10
323.15	0.055	1.5e-10	1.5e-10
323.15	0.133	1.8e-10	1.8e-10
323.15	0.2	2e-10	2e-10
323.15	0.32	2.3e-10	2.3e-10
323.15	0.368	3e-10	3e-10
348.05	0.034	3e-10	3e-10
348.05	0.084	3.2e-10	3.2e-10
348.05	0.131	4.3e-10	4.3e-10
348.05	0.175	4.1e-10	4.1e-10
348.05	0.254	4.8e-10	4.8e-10

System: difluoromethane + 3-methyl-1-propylpyridinium bis(trifluoromethylsulfonyl)imide; phases: Liquid, Gas
Property: Mole fraction of difluoromethane (Liquid); method: gravimetric microbalance
Temperature, K	Pressure, kPa	Mole fraction of difluoromethane	uncertainty
283.15	10.2	0.015	0.0061
283.15	100	0.14	0.0061
283.15	249.4	0.313	0.0063
283.15	399.6	0.455	0.0066
283.15	549.3	0.573	0.0065
283.15	699.6	0.683	0.0063
283.15	849.5	0.782	0.0062
298.05	9.5	0.01	0.006
298.05	100.2	0.096	0.006
298.05	250.3	0.222	0.0061
298.05	399.6	0.33	0.0063
298.05	549.7	0.422	0.0065
298.05	699.2	0.507	0.0066
298.05	849.6	0.58	0.0065
298.05	1000.4	0.645	0.0063
323.15	10.3	0.007	0.006
323.15	100.3	0.058	0.006
323.15	249.8	0.138	0.006
323.15	400	0.208	0.0061
323.15	549.4	0.272	0.0061
323.15	699.4	0.33	0.0062
323.15	850.3	0.382	0.0063
323.15	999.4	0.433	0.0065
348.05	10.3	0.003	0.003
348.05	100.2	0.037	0.006
348.05	250.2	0.09	0.006
348.05	400.2	0.139	0.006
348.05	549.3	0.184	0.006
348.05	700.3	0.226	0.0061
348.05	849.3	0.265	0.0061
348.05	1000.2	0.304	0.0062

System: difluoromethane + 3-methyl-1-propylpyridinium bis(trifluoromethylsulfonyl)imide; phases: Liquid, Gas
Property: Thermal diffusivity, m2/s (Liquid); method: time dependent absorption data
Temperature, K	Mole fraction of difluoromethane	Thermal diffusivity, m2/s	uncertainty
283.15	0.015	5.7e-11	5.7e-11
283.15	0.14	5.7e-11	5.7e-11
283.15	0.313	1.1e-10	1.1e-10
283.15	0.455	1.3e-10	1.3e-10
283.15	0.683	2e-10	2e-10
283.15	0.782	2.7e-10	2.7e-10
298.05	0.01	9.9e-11	9.9e-11
298.05	0.096	1e-10	1e-10
298.05	0.222	1.2e-10	1.2e-10
298.05	0.33	1.5e-10	1.5e-10
298.05	0.422	1.9e-10	1.9e-10
298.05	0.507	2.2e-10	2.2e-10
298.05	0.58	2.4e-10	2.4e-10
323.15	0.058	1.9e-10	1.9e-10
323.15	0.138	2e-10	2e-10
323.15	0.272	2.4e-10	2.4e-10
323.15	0.33	3.5e-10	3.5e-10
323.15	0.382	4e-10	4e-10
348.05	0.003	3.9e-10	3.9e-10
348.05	0.037	3.9e-10	3.9e-10
348.05	0.09	4e-10	4e-10
348.05	0.139	4e-10	4e-10
348.05	0.226	4.6e-10	4.6e-10
348.05	0.265	4.8e-10	4.8e-10
348.05	0.304	5.5e-10	5.5e-10

System: difluoromethane + 1-butyl-3-methylimidazolium 1,1,2,2-tetrafluoroethanesulfonate; phases: Liquid, Gas
Fixed: Temperature, K = 298.15
Property: Mole fraction of difluoromethane (Liquid); method: gravimetric microbalance
Pressure, kPa	Mole fraction of difluoromethane	uncertainty
9.7	0.007	0.006
99.9	0.072	0.006
250	0.172	0.0061
397.2	0.263	0.0063
548.4	0.345	0.0066
699.5	0.42	0.007
848.1	0.49	0.0075
998.9	0.556	0.0072

System: difluoromethane + 1-butyl-3-methylimidazolium 1,1,2,2-tetrafluoroethanesulfonate; phases: Liquid, Gas
Fixed: Temperature, K = 298.15
Property: Thermal diffusivity, m2/s (Liquid); method: time dependent absorption data
Mole fraction of difluoromethane	Thermal diffusivity, m2/s	uncertainty
0.072	1.5e-11	1.5e-11
0.172	2.7e-11	2.7e-11
0.263	4e-11	4e-11
0.345	4.8e-11	4.8e-11
0.42	7.8e-11	7.8e-11
0.49	8.7e-11	8.7e-11
0.556	1.4e-10	1.4e-10

System: difluoromethane + 1-ethyl-3-methyl-1H-imidazolium 1,1,2,2-tetrafluoroethane-1-sulfonate; phases: Liquid, Gas
Property: Mole fraction of difluoromethane (Liquid); method: gravimetric microbalance
Temperature, K	Pressure, kPa	Mole fraction of difluoromethane	uncertainty
298.15	9.9	0.006	0.006
298.05	99.1	0.054	0.006
298.05	248.4	0.133	0.006
298.05	399.5	0.209	0.0061
298.05	549.6	0.279	0.0063
298.05	702.2	0.348	0.0066
298.05	848.3	0.413	0.007
298.05	1001.6	0.477	0.0074

System: difluoromethane + 1-ethyl-3-methyl-1H-imidazolium 1,1,2,2-tetrafluoroethane-1-sulfonate; phases: Liquid, Gas
Fixed: Temperature, K = 298.05
Property: Thermal diffusivity, m2/s (Liquid); method: time dependent absorption data
Mole fraction of difluoromethane	Thermal diffusivity, m2/s	uncertainty
0.133	2.9e-11	2.9e-11
0.209	4.9e-11	4.9e-11
0.279	5.9e-11	5.9e-11
0.348	1e-10	1e-10
0.413	1e-10	1e-10
0.477	1.2e-10	1.2e-10

System: difluoromethane + 1-heptyl-3-methylimidazolium 1,1,2,2-tetrafluoroethanesulfonate; phases: Liquid, Gas
Fixed: Temperature, K = 298.15
Property: Mole fraction of difluoromethane (Liquid); method: gravimetric microbalance
Pressure, kPa	Mole fraction of difluoromethane	uncertainty
9.9	0.008	0.006
100.2	0.081	0.006
251	0.191	0.0061
398.8	0.288	0.0064
549.7	0.374	0.0068
698.7	0.452	0.0072
847.9	0.523	0.0074
998	0.592	0.007

System: difluoromethane + 1-heptyl-3-methylimidazolium 1,1,2,2-tetrafluoroethanesulfonate; phases: Liquid, Gas
Fixed: Temperature, K = 298.15
Property: Thermal diffusivity, m2/s (Liquid); method: time dependent absorption data
Mole fraction of difluoromethane	Thermal diffusivity, m2/s	uncertainty
0.008	3.9e-11	3.9e-11
0.081	3.9e-11	3.9e-11
0.191	4.4e-11	4.4e-11
0.288	5.8e-11	5.8e-11
0.374	6.4e-11	6.4e-11
0.452	9e-11	9e-11
0.523	1.3e-10	1.3e-10
0.592	1.6e-10	1.6e-10

System: difluoromethane + 1-dodecyl-3-methylimidazolium 1,1,2,2-tetrafluoroethanesulfonate; phases: Liquid, Gas
Fixed: Temperature, K = 298.15
Property: Mole fraction of difluoromethane (Liquid); method: gravimetric microbalance
Pressure, kPa	Mole fraction of difluoromethane	uncertainty
9.6	0.006	0.006
99.5	0.074	0.006
251	0.179	0.0061
399.7	0.273	0.0063
548.1	0.357	0.0067
700.1	0.433	0.0071
850	0.503	0.0075
1001	0.569	0.0071

System: difluoromethane + 1-dodecyl-3-methylimidazolium 1,1,2,2-tetrafluoroethanesulfonate; phases: Liquid, Gas
Fixed: Temperature, K = 298.15
Property: Thermal diffusivity, m2/s (Liquid); method: time dependent absorption data
Mole fraction of difluoromethane	Thermal diffusivity, m2/s	uncertainty
0.074	4.7e-11	4.7e-11
0.179	5.1e-11	5.1e-11
0.273	3e-11	3e-11
0.357	4.7e-11	4.7e-11
0.433	6.8e-11	6.8e-11
0.503	8.2e-11	8.2e-11
0.569	1.3e-10	1.3e-10

System: difluoromethane + 1,2-dimethyl-3-propylimidazolium bis[(trifluoromethyl)sulfonyl]imide; phases: Liquid, Gas
Property: Mole fraction of difluoromethane (Liquid); method: gravimetric microbalance
Temperature, K	Pressure, kPa	Mole fraction of difluoromethane	uncertainty
298.05	9.9	0.008	0.006
298.15	99.5	0.09	0.006
298.15	249.5	0.213	0.0061
298.15	397.6	0.319	0.0062
298.15	550.1	0.415	0.0064
298.15	701.7	0.501	0.0066
298.15	851.3	0.578	0.0064
298.15	1001.1	0.651	0.0063

System: difluoromethane + 1,2-dimethyl-3-propylimidazolium bis[(trifluoromethyl)sulfonyl]imide; phases: Liquid, Gas
Property: Thermal diffusivity, m2/s (Liquid); method: time dependent absorption data
Temperature, K	Mole fraction of difluoromethane	Thermal diffusivity, m2/s	uncertainty
298.05	0.008	6.3e-11	6.3e-11
298.15	0.09	6.6e-11	6.7e-11
298.15	0.213	8.9e-11	9.1e-11
298.15	0.319	1.2e-10	1.3e-10
298.15	0.415	1.5e-10	1.6e-10
298.15	0.501	1.8e-10	2e-10
298.15	0.578	2.2e-10	2.2e-10
298.15	0.651	2.3e-10	2.4e-10

System: difluoromethane + 1-butyl-3-methylpyridinium 1,1,1-trifluoro-N-[(trifluoromethyl)sulfonyl]methanesulfonamide; phases: Liquid, Gas
Fixed: Temperature, K = 298.15
Property: Mole fraction of difluoromethane (Liquid); method: gravimetric microbalance
Pressure, kPa	Mole fraction of difluoromethane	uncertainty
9.6	0.01	0.0061
99.5	0.1	0.006
249.5	0.224	0.0061
399.5	0.331	0.0062
549.6	0.428	0.0064
700.5	0.51	0.0066
850.6	0.586	0.0064
1000	0.654	0.0063

System: difluoromethane + 1-butyl-3-methylpyridinium 1,1,1-trifluoro-N-[(trifluoromethyl)sulfonyl]methanesulfonamide; phases: Liquid, Gas
Fixed: Temperature, K = 298.15
Property: Thermal diffusivity, m2/s (Liquid); method: time dependent absorption data
Mole fraction of difluoromethane	Thermal diffusivity, m2/s	uncertainty
0.01	6.8e-11	6.8e-11
0.1	7.8e-11	7.8e-11
0.224	1.2e-10	1.2e-10
0.331	1.5e-10	1.5e-10
0.428	1.5e-10	1.5e-10
0.654	2.3e-10	2.3e-10

System: difluoromethane + 1-butyl-3-methylimidazolium acetate; phases: Liquid, Gas
Property: Mole fraction of difluoromethane (Liquid); method: gravimetric microbalance
Temperature, K	Pressure, kPa	Mole fraction of difluoromethane	uncertainty
298.25	9.9	0.01	0.006
298.15	99.7	0.077	0.006
298.15	249.8	0.174	0.006
298.15	400.4	0.26	0.0061
298.15	549.8	0.336	0.0062
298.15	699.7	0.401	0.0064
298.05	850.2	0.462	0.0065
298.15	1000.4	0.518	0.0066

System: difluoromethane + 1-butyl-3-methylimidazolium acetate; phases: Liquid, Gas
Property: Thermal diffusivity, m2/s (Liquid); method: time dependent absorption data
Temperature, K	Mole fraction of difluoromethane	Thermal diffusivity, m2/s	uncertainty
298.25	0.01	2.2e-11	2.2e-11
298.15	0.077	2.6e-11	2.7e-11
298.15	0.174	4.1e-11	4.2e-11
298.15	0.26	5.6e-11	6.9e-11
298.15	0.336	1e-10	1e-10
298.15	0.401	1.5e-10	1.5e-10
298.05	0.462	1.8e-10	1.8e-10
298.15	0.518	2.1e-10	2.1e-10

System: difluoromethane + 1-butyl-3-methylimidazolium thiocyanate; phases: Liquid, Gas
Fixed: Temperature, K = 298.15
Property: Mole fraction of difluoromethane (Liquid); method: gravimetric microbalance
Pressure, kPa	Mole fraction of difluoromethane	uncertainty
9.5	0.004	0.004
100.3	0.041	0.006
250.3	0.1	0.006
399.6	0.158	0.006
550	0.214	0.0061
699.7	0.27	0.0061
849.5	0.324	0.0062
999.2	0.379	0.0063

System: difluoromethane + 1-butyl-3-methylimidazolium thiocyanate; phases: Liquid, Gas
Fixed: Temperature, K = 298.15
Property: Thermal diffusivity, m2/s (Liquid); method: time dependent absorption data
Mole fraction of difluoromethane	Thermal diffusivity, m2/s	uncertainty
0.004	8.1e-11	8.1e-11
0.041	8.6e-11	8.6e-11
0.1	1e-10	1e-10
0.158	1.1e-10	1.1e-10
0.27	1.4e-10	1.4e-10
0.324	1.8e-10	1.8e-10
0.379	2.1e-10	2.1e-10

System: difluoromethane + 1-butyl-3-methylimidazolium methyl sulfate; phases: Liquid, Gas
Property: Mole fraction of difluoromethane (Liquid); method: gravimetric microbalance
Temperature, K	Pressure, kPa	Mole fraction of difluoromethane	uncertainty
298.15	9.9	0.012	0.006
298.15	100.1	0.068	0.006
298.15	249.8	0.156	0.006
298.15	399.5	0.234	0.0061
298.25	550.1	0.305	0.0062
298.15	699.5	0.374	0.0063
298.15	850	0.432	0.0064
298.15	1000.6	0.489	0.0066

System: difluoromethane + 1-butyl-3-methylimidazolium methyl sulfate; phases: Liquid, Gas
Property: Thermal diffusivity, m2/s (Liquid); method: time dependent absorption data
Temperature, K	Mole fraction of difluoromethane	Thermal diffusivity, m2/s	uncertainty
298.15	0.012	2.1e-11	2.1e-11
298.15	0.068	2.7e-11	2.7e-11
298.15	0.156	3e-11	3e-11
298.15	0.234	4.2e-11	4.2e-11
298.25	0.305	5.2e-11	6.1e-11
298.15	0.374	6.2e-11	6.2e-11
298.15	0.432	9.9e-11	9.9e-11
298.15	0.489	1.2e-10	1.2e-10

System: difluoromethane + 1H-Imidazolium, 3-butyl-1-methyl-, 1,1,2,3,3,3-hexafluoro-1-propanesulfonate (1:1); phases: Liquid, Gas
Fixed: Temperature, K = 298.15
Property: Mole fraction of difluoromethane (Liquid); method: gravimetric microbalance
Pressure, kPa	Mole fraction of difluoromethane	uncertainty
9.5	0.01	0.0061
100	0.104	0.0061
249.8	0.242	0.0062
399.5	0.35	0.0067
549.5	0.446	0.0072
699.8	0.527	0.0074
849.4	0.604	0.0069
1000.4	0.67	0.0066

System: difluoromethane + 1H-Imidazolium, 3-butyl-1-methyl-, 1,1,2,3,3,3-hexafluoro-1-propanesulfonate (1:1); phases: Liquid, Gas
Fixed: Temperature, K = 298.15
Property: Thermal diffusivity, m2/s (Liquid); method: time dependent absorption data
Mole fraction of difluoromethane	Thermal diffusivity, m2/s	uncertainty
0.01	3.3e-11	3.3e-11
0.104	3.2e-11	3.2e-11
0.242	3.9e-11	3.9e-11
0.35	7e-11	7e-11
0.446	7e-11	7e-11
0.527	1.1e-10	1.1e-10
0.604	1e-10	1e-10
0.67	1.7e-10	1.7e-10

System: difluoromethane + 1-butyl-3-methylimidazolium 2-(1,2,2,2-tetrafluoroethoxy)-1,1,2,2-tetrafluoroethanesulfonate; phases: Liquid, Gas
Fixed: Temperature, K = 298.15
Property: Mole fraction of difluoromethane (Liquid); method: gravimetric microbalance
Pressure, kPa	Mole fraction of difluoromethane	uncertainty
10	0.009	0.006
99.7	0.092	0.006
250.1	0.214	0.0062
400.4	0.319	0.0065
550	0.415	0.007
699.6	0.497	0.0075
849.4	0.571	0.0071
1000.5	0.638	0.0067

System: difluoromethane + 1-butyl-3-methylimidazolium 2-(1,2,2,2-tetrafluoroethoxy)-1,1,2,2-tetrafluoroethanesulfonate; phases: Liquid, Gas
Fixed: Temperature, K = 298.15
Property: Thermal diffusivity, m2/s (Liquid); method: time dependent absorption data
Mole fraction of difluoromethane	Thermal diffusivity, m2/s	uncertainty
0.009	4.3e-11	4.3e-11
0.092	4.3e-11	4.3e-11
0.214	5.4e-11	5.4e-11
0.319	9.1e-11	9.1e-11
0.415	1e-10	1e-10
0.497	1.5e-10	1.5e-10
0.638	2.8e-10	2.8e-10

System: difluoromethane + 1-butyl-3-methylimidazolium 1,1,2-trifluoro-2-(perfluoroethoxy)ethanesulfonate; phases: Liquid, Gas
Fixed: Temperature, K = 298.15
Property: Mole fraction of difluoromethane (Liquid); method: gravimetric microbalance
Pressure, kPa	Mole fraction of difluoromethane	uncertainty
9.5	0.01	0.0061
100.1	0.102	0.0061
249.6	0.237	0.0062
399.5	0.348	0.0067
549.4	0.445	0.0072
699.4	0.529	0.0074
849.5	0.605	0.0069
999.4	0.674	0.0066

System: difluoromethane + 1-butyl-3-methylimidazolium 1,1,2-trifluoro-2-(perfluoroethoxy)ethanesulfonate; phases: Liquid, Gas
Fixed: Temperature, K = 298.15
Property: Thermal diffusivity, m2/s (Liquid); method: time dependent absorption data
Mole fraction of difluoromethane	Thermal diffusivity, m2/s	uncertainty
0.01	4.5e-11	4.5e-11
0.102	5.3e-11	5.3e-11
0.237	6.7e-11	6.7e-11
0.348	9.6e-11	9.6e-11
0.445	1.2e-10	1.2e-10
0.529	1.5e-10	1.5e-10
0.605	1.8e-10	1.8e-10
0.674	2.1e-10	2.1e-10

System: difluoromethane + 1-butyl-3-methylimidazolium 1,1,2-trifluoro-2-(trifluoromethoxy)ethanesulfonate; phases: Liquid, Gas
Fixed: Temperature, K = 298.15
Property: Mole fraction of difluoromethane (Liquid); method: gravimetric microbalance
Pressure, kPa	Mole fraction of difluoromethane	uncertainty
9.5	0.01	0.006
100.3	0.096	0.006
250.3	0.223	0.0062
399.6	0.334	0.0066
550	0.428	0.0071
699.7	0.51	0.0075
849.5	0.583	0.0071
999.2	0.65	0.0067

System: difluoromethane + 1-butyl-3-methylimidazolium 1,1,2-trifluoro-2-(trifluoromethoxy)ethanesulfonate; phases: Liquid, Gas
Fixed: Temperature, K = 298.15
Property: Thermal diffusivity, m2/s (Liquid); method: time dependent absorption data
Mole fraction of difluoromethane	Thermal diffusivity, m2/s	uncertainty
0.01	4.3e-11	4.3e-11
0.096	4.5e-11	4.5e-11
0.223	5.8e-11	5.8e-11
0.334	7.1e-11	7.1e-11
0.428	1e-10	1e-10
0.51	1.2e-10	1.2e-10
0.583	1.6e-10	1.6e-10
0.65	2.5e-10	2.5e-10
