Measured thermophysical data. Thermodynamic Properties of Mixtures Containing Ionic Liquids. 8. Activity Coefficients at Infinite Dilution of Hydrocarbons, Alcohols, Esters, and Aldehydes in 1-Hexyl-3-methylimidazolium Bis(trifluoromethylsulfonyl) Imide Using Gas-Liquid Chromatography
Source: J. Chem. Eng. Data, 2006, 10.1021/je0503554
Compound 1: butylbenzene, C10H14, InChI=1S/C10H14/c1-2-3-7-10-8-5-4-6-9-10/h4-6,8-9H,2-3,7H2,1H3, purity 99.9%
Compound 2: pentylbenzene, C11H16, InChI=1S/C11H16/c1-2-3-5-8-11-9-6-4-7-10-11/h4,6-7,9-10H,2-3,5,8H2,1H3, purity 99.9%
Compound 3: propanal, C3H6O, InChI=1S/C3H6O/c1-2-3-4/h3H,2H2,1H3, purity 99.9%
Compound 4: butanal, C4H8O, InChI=1S/C4H8O/c1-2-3-4-5/h4H,2-3H2,1H3, purity 99.9%
Compound 5: pentanal, C5H10O, InChI=1S/C5H10O/c1-2-3-4-5-6/h5H,2-4H2,1H3, purity 99.9%
Compound 6: hexanal, C6H12O, InChI=1S/C6H12O/c1-2-3-4-5-6-7/h6H,2-5H2,1H3, purity 99.9%
Compound 7: heptanal, C7H14O, InChI=1S/C7H14O/c1-2-3-4-5-6-7-8/h7H,2-6H2,1H3, purity 99.9%
Compound 8: octanal, C8H16O, InChI=1S/C8H16O/c1-2-3-4-5-6-7-8-9/h8H,2-7H2,1H3, purity 99.9%
Compound 9: methyl propanoate, C4H8O2, InChI=1S/C4H8O2/c1-3-4(5)6-2/h3H2,1-2H3, purity 99.9%
Compound 10: methyl butanoate, C5H10O2, InChI=1S/C5H10O2/c1-3-4-5(6)7-2/h3-4H2,1-2H3, purity 99.9%
Compound 11: methyl pentanoate, C6H12O2, InChI=1S/C6H12O2/c1-3-4-5-6(7)8-2/h3-5H2,1-2H3, purity 99.9%
Compound 12: methyl hexanoate, C7H14O2, InChI=1S/C7H14O2/c1-3-4-5-6-7(8)9-2/h3-6H2,1-2H3, purity 99.9%
Compound 13: methyl heptanoate, C8H16O2, InChI=1S/C8H16O2/c1-3-4-5-6-7-8(9)10-2/h3-7H2,1-2H3, purity 99.9%
Compound 14: acetone, C3H6O, InChI=1S/C3H6O/c1-3(2)4/h1-2H3, purity 99.9%
Compound 15: acetonitrile, C2H3N, InChI=1S/C2H3N/c1-2-3/h1H3, purity 99.9%
Compound 16: 1,4-dioxane, C4H8O2, InChI=1S/C4H8O2/c1-2-6-4-3-5-1/h1-4H2, purity 99.9%
Compound 17: trichloromethane, CHCl3, InChI=1S/CHCl3/c2-1(3)4/h1H, purity 99.9%
Compound 18: pentane, C5H12, InChI=1S/C5H12/c1-3-5-4-2/h3-5H2,1-2H3, purity 99.9%
Compound 19: hexane, C6H14, InChI=1S/C6H14/c1-3-5-6-4-2/h3-6H2,1-2H3, purity 99.9%
Compound 20: heptane, C7H16, InChI=1S/C7H16/c1-3-5-7-6-4-2/h3-7H2,1-2H3, purity 99.9%
Compound 21: octane, C8H18, InChI=1S/C8H18/c1-3-5-7-8-6-4-2/h3-8H2,1-2H3, purity 99.9%
Compound 22: nonane, C9H20, InChI=1S/C9H20/c1-3-5-7-9-8-6-4-2/h3-9H2,1-2H3, purity 99.9%
Compound 23: decane, C10H22, InChI=1S/C10H22/c1-3-5-7-9-10-8-6-4-2/h3-10H2,1-2H3, purity 99.9%
Compound 24: undecane, C11H24, InChI=1S/C11H24/c1-3-5-7-9-11-10-8-6-4-2/h3-11H2,1-2H3, purity 99.9%
Compound 25: dodecane, C12H26, InChI=1S/C12H26/c1-3-5-7-9-11-12-10-8-6-4-2/h3-12H2,1-2H3, purity 99.9%
Compound 26: 1-pentene, C5H10, InChI=1S/C5H10/c1-3-5-4-2/h3H,1,4-5H2,2H3, purity 99.9%
Compound 27: hex-1-ene, C6H12, InChI=1S/C6H12/c1-3-5-6-4-2/h3H,1,4-6H2,2H3, purity 99.9%
Compound 28: 1-heptene, C7H14, InChI=1S/C7H14/c1-3-5-7-6-4-2/h3H,1,4-7H2,2H3, purity 99.9%
Compound 29: oct-1-ene, C8H16, InChI=1S/C8H16/c1-3-5-7-8-6-4-2/h3H,1,4-8H2,2H3, purity 99.9%
Compound 30: 1-nonene, C9H18, InChI=1S/C9H18/c1-3-5-7-9-8-6-4-2/h3H,1,4-9H2,2H3, purity 99.9%
Compound 31: 1-decene, C10H20, InChI=1S/C10H20/c1-3-5-7-9-10-8-6-4-2/h3H,1,4-10H2,2H3, purity 99.9%
Compound 32: 1-undecene, C11H22, InChI=1S/C11H22/c1-3-5-7-9-11-10-8-6-4-2/h3H,1,4-11H2,2H3, purity 99.9%
Compound 33: 1-dodecene, C12H24, InChI=1S/C12H24/c1-3-5-7-9-11-12-10-8-6-4-2/h3H,1,4-12H2,2H3, purity 99.9%
Compound 34: cyclohexane, C6H12, InChI=1S/C6H12/c1-2-4-6-5-3-1/h1-6H2, purity 99.9%
Compound 35: cyclohexene, C6H10, InChI=1S/C6H10/c1-2-4-6-5-3-1/h1-2H,3-6H2, purity 99.9%
Compound 36: 1,3-cyclohexadiene, C6H8, InChI=1S/C6H8/c1-2-4-6-5-3-1/h1-4H,5-6H2, purity 99.9%
Compound 37: 1-hexyl-3-methylimidazolium bis[(trifluoromethyl)sulfonyl]imide, C12H19F6N3O4S2, InChI=1S/C10H19N2.C2F6NO4S2/c1-3-4-5-6-7-12-9-8-11(2)10-12;3-1(4,5)14(10,11)9-15(12,13)2(6,7)8/h8-10H,3-7H2,1-2H3;/q+1;-1
Compound 38: methanol, CH4O, InChI=1S/CH4O/c1-2/h2H,1H3, purity 99.9%
Compound 39: ethanol, C2H6O, InChI=1S/C2H6O/c1-2-3/h3H,2H2,1H3, purity 99.9%
Compound 40: propan-1-ol, C3H8O, InChI=1S/C3H8O/c1-2-3-4/h4H,2-3H2,1H3, purity 99.9%
Compound 41: butan-1-ol, C4H10O, InChI=1S/C4H10O/c1-2-3-4-5/h5H,2-4H2,1H3, purity 99.9%
Compound 42: pentan-1-ol, C5H12O, InChI=1S/C5H12O/c1-2-3-4-5-6/h6H,2-5H2,1H3, purity 99.9%
Compound 43: hexan-1-ol, C6H14O, InChI=1S/C6H14O/c1-2-3-4-5-6-7/h7H,2-6H2,1H3, purity 99.9%
Compound 44: heptan-1-ol, C7H16O, InChI=1S/C7H16O/c1-2-3-4-5-6-7-8/h8H,2-7H2,1H3, purity 99.9%
Compound 45: propan-2-ol, C3H8O, InChI=1S/C3H8O/c1-3(2)4/h3-4H,1-2H3, purity 99.9%
Compound 46: 2-methyl-1-propanol, C4H10O, InChI=1S/C4H10O/c1-4(2)3-5/h4-5H,3H2,1-2H3, purity 99.9%
Compound 47: butan-2-ol, C4H10O, InChI=1S/C4H10O/c1-3-4(2)5/h4-5H,3H2,1-2H3, purity 99.9%
Compound 48: 2-methylpropan-2-ol, C4H10O, InChI=1S/C4H10O/c1-4(2,3)5/h5H,1-3H3, purity 99.9%
Compound 49: 2-methylbutan-2-ol, C5H12O, InChI=1S/C5H12O/c1-4-5(2,3)6/h6H,4H2,1-3H3, purity 99.9%
Compound 50: cyclohexanol, C6H12O, InChI=1S/C6H12O/c7-6-4-2-1-3-5-6/h6-7H,1-5H2, purity 99.9%
Compound 51: benzene, C6H6, InChI=1S/C6H6/c1-2-4-6-5-3-1/h1-6H, purity 99.9%
Compound 52: toluene, C7H8, InChI=1S/C7H8/c1-7-5-3-2-4-6-7/h2-6H,1H3, purity 99.9%
Compound 53: ethylbenzene, C8H10, InChI=1S/C8H10/c1-2-8-6-4-3-5-7-8/h3-7H,2H2,1H3, purity 99.9%
Compound 54: propylbenzene, C9H12, InChI=1S/C9H12/c1-2-6-9-7-4-3-5-8-9/h3-5,7-8H,2,6H2,1H3, purity 99.9%

System: methanol + 1-hexyl-3-methylimidazolium bis[(trifluoromethyl)sulfonyl]imide; phases: Liquid, Gas
Fixed: Mole fraction of methanol = 0
Property: Activity coefficient of methanol (Liquid); method: Chromatography
Temperature, K	Activity coefficient of methanol	uncertainty
301.95	1.46	0.1
312.45	1.34	0.09
323.05	1.22	0.08
333.45	1.1	0.07
343.95	0.99	0.06
354.45	0.93	0.06

System: ethanol + 1-hexyl-3-methylimidazolium bis[(trifluoromethyl)sulfonyl]imide; phases: Liquid, Gas
Fixed: Mole fraction of ethanol = 0
Property: Activity coefficient of ethanol (Liquid); method: Chromatography
Temperature, K	Activity coefficient of ethanol	uncertainty
301.95	1.95	0.13
312.45	1.71	0.11
323.05	1.51	0.1
333.45	1.35	0.09
343.95	1.2	0.08
354.45	1.08	0.07

System: propan-1-ol + 1-hexyl-3-methylimidazolium bis[(trifluoromethyl)sulfonyl]imide; phases: Liquid, Gas
Fixed: Mole fraction of propan-1-ol = 0
Property: Activity coefficient of propan-1-ol (Liquid); method: Chromatography
Temperature, K	Activity coefficient of propan-1-ol	uncertainty
312.45	2.15	0.15
323.05	1.86	0.13
333.45	1.63	0.11
343.95	1.43	0.09
354.45	1.27	0.08

System: butan-1-ol + 1-hexyl-3-methylimidazolium bis[(trifluoromethyl)sulfonyl]imide; phases: Liquid, Gas
Fixed: Mole fraction of butan-1-ol = 0
Property: Activity coefficient of butan-1-ol (Liquid); method: Chromatography
Temperature, K	Activity coefficient of butan-1-ol	uncertainty
322.65	2.06	0.14
333.15	1.83	0.12
343.65	1.67	0.11
354.15	1.53	0.1

System: pentan-1-ol + 1-hexyl-3-methylimidazolium bis[(trifluoromethyl)sulfonyl]imide; phases: Liquid, Gas
Fixed: Mole fraction of pentan-1-ol = 0
Property: Activity coefficient of pentan-1-ol (Liquid); method: Chromatography
Temperature, K	Activity coefficient of pentan-1-ol	uncertainty
333.25	2.18	0.15
343.75	2	0.14
354.05	1.8	0.12
364.55	1.63	0.11
374.95	1.51	0.1

System: hexan-1-ol + 1-hexyl-3-methylimidazolium bis[(trifluoromethyl)sulfonyl]imide; phases: Liquid, Gas
Fixed: Mole fraction of hexan-1-ol = 0
Property: Activity coefficient of hexan-1-ol (Liquid); method: Chromatography
Temperature, K	Activity coefficient of hexan-1-ol	uncertainty
354.05	2.18	0.15
364.55	1.97	0.13
374.95	1.82	0.12
385.45	1.67	0.11
395.95	1.56	0.1

System: heptan-1-ol + 1-hexyl-3-methylimidazolium bis[(trifluoromethyl)sulfonyl]imide; phases: Liquid, Gas
Fixed: Mole fraction of heptan-1-ol = 0
Property: Activity coefficient of heptan-1-ol (Liquid); method: Chromatography
Temperature, K	Activity coefficient of heptan-1-ol	uncertainty
354.05	4.61	0.31
364.63	4.13	0.28
375.05	3.73	0.25
385.6	3.42	0.23

System: propan-2-ol + 1-hexyl-3-methylimidazolium bis[(trifluoromethyl)sulfonyl]imide; phases: Liquid, Gas
Fixed: Mole fraction of propan-2-ol = 0
Property: Activity coefficient of propan-2-ol (Liquid); method: Chromatography
Temperature, K	Activity coefficient of propan-2-ol	uncertainty
301.65	1.93	0.13
312.25	1.68	0.11
322.75	1.49	0.1
333.25	1.33	0.09
343.75	1.21	0.08
354.05	1.09	0.07

System: 2-methyl-1-propanol + 1-hexyl-3-methylimidazolium bis[(trifluoromethyl)sulfonyl]imide; phases: Liquid, Gas
Fixed: Mole fraction of 2-methyl-1-propanol = 0
Property: Activity coefficient of 2-methyl-1-propanol (Liquid); method: Chromatography
Temperature, K	Activity coefficient of 2-methyl-1-propanol	uncertainty
301.65	2.46	0.17
312.15	2.19	0.15
322.85	1.9	0.13
333.35	1.68	0.11

System: butan-2-ol + 1-hexyl-3-methylimidazolium bis[(trifluoromethyl)sulfonyl]imide; phases: Liquid, Gas
Fixed: Mole fraction of butan-2-ol = 0
Property: Activity coefficient of butan-2-ol (Liquid); method: Chromatography
Temperature, K	Activity coefficient of butan-2-ol	uncertainty
301.65	2.14	0.15
312.15	1.9	0.13
322.85	1.66	0.11
333.35	1.47	0.1

System: 2-methylpropan-2-ol + 1-hexyl-3-methylimidazolium bis[(trifluoromethyl)sulfonyl]imide; phases: Liquid, Gas
Fixed: Mole fraction of 2-methylpropan-2-ol = 0
Property: Activity coefficient of 2-methylpropan-2-ol (Liquid); method: Chromatography
Temperature, K	Activity coefficient of 2-methylpropan-2-ol	uncertainty
301.65	1.7	0.11
312.15	1.51	0.1
322.85	1.34	0.09
333.35	1.21	0.08

System: 2-methylbutan-2-ol + 1-hexyl-3-methylimidazolium bis[(trifluoromethyl)sulfonyl]imide; phases: Liquid, Gas
Fixed: Mole fraction of 2-methylbutan-2-ol = 0
Property: Activity coefficient of 2-methylbutan-2-ol (Liquid); method: Chromatography
Temperature, K	Activity coefficient of 2-methylbutan-2-ol	uncertainty
301.65	1.7	0.11
312.25	1.53	0.1
322.75	1.4	0.09
333.25	1.3	0.08
343.75	1.22	0.08
354.05	1.14	0.07
364.55	1.06	0.07

System: cyclohexanol + 1-hexyl-3-methylimidazolium bis[(trifluoromethyl)sulfonyl]imide; phases: Liquid, Gas
Fixed: Mole fraction of cyclohexanol = 0
Property: Activity coefficient of cyclohexanol (Liquid); method: Chromatography
Temperature, K	Activity coefficient of cyclohexanol	uncertainty
354.05	1.87	0.13
364.55	1.6	0.11
374.95	1.43	0.09
385.45	1.29	0.08
395.95	1.2	0.08

System: benzene + 1-hexyl-3-methylimidazolium bis[(trifluoromethyl)sulfonyl]imide; phases: Liquid, Gas
Fixed: Mole fraction of benzene = 0
Property: Activity coefficient of benzene (Liquid); method: Chromatography
Temperature, K	Activity coefficient of benzene	uncertainty
301.65	0.779	0.051
301.65	0.778	0.051
306.95	0.776	0.051
312.25	0.776	0.051
322.75	0.777	0.051
322.85	0.773	0.051
333.25	0.777	0.051
333.25	0.774	0.051
343.75	0.769	0.05

System: toluene + 1-hexyl-3-methylimidazolium bis[(trifluoromethyl)sulfonyl]imide; phases: Liquid, Gas
Fixed: Mole fraction of toluene = 0
Property: Activity coefficient of toluene (Liquid); method: Chromatography
Temperature, K	Activity coefficient of toluene	uncertainty
307.05	1.04	0.07
312.35	1.04	0.07
322.85	1.06	0.07
333.35	1.06	0.07
343.85	1.08	0.07

System: ethylbenzene + 1-hexyl-3-methylimidazolium bis[(trifluoromethyl)sulfonyl]imide; phases: Liquid, Gas
Fixed: Mole fraction of ethylbenzene = 0
Property: Activity coefficient of ethylbenzene (Liquid); method: Chromatography
Temperature, K	Activity coefficient of ethylbenzene	uncertainty
322.85	1.55	0.102
333.35	1.55	0.102
343.85	1.54	0.102
354.25	1.53	0.101

System: propylbenzene + 1-hexyl-3-methylimidazolium bis[(trifluoromethyl)sulfonyl]imide; phases: Liquid, Gas
Fixed: Mole fraction of propylbenzene = 0
Property: Activity coefficient of propylbenzene (Liquid); method: Chromatography
Temperature, K	Activity coefficient of propylbenzene	uncertainty
333.35	2.1	0.14
343.85	2.08	0.14
354.25	2.03	0.14
364.65	2.02	0.14
375.15	2	0.14
385.65	1.96	0.13

System: butylbenzene + 1-hexyl-3-methylimidazolium bis[(trifluoromethyl)sulfonyl]imide; phases: Liquid, Gas
Fixed: Mole fraction of butylbenzene = 0
Property: Activity coefficient of butylbenzene (Liquid); method: Chromatography
Temperature, K	Activity coefficient of butylbenzene	uncertainty
354.25	2.72	0.19
364.65	2.69	0.18
375.15	2.66	0.18
385.65	2.62	0.18

System: pentylbenzene + 1-hexyl-3-methylimidazolium bis[(trifluoromethyl)sulfonyl]imide; phases: Liquid, Gas
Fixed: Mole fraction of pentylbenzene = 0
Property: Activity coefficient of pentylbenzene (Liquid); method: Chromatography
Temperature, K	Activity coefficient of pentylbenzene	uncertainty
364.65	3.38	0.23
375.15	3.37	0.23
385.65	3.37	0.23

System: propanal + 1-hexyl-3-methylimidazolium bis[(trifluoromethyl)sulfonyl]imide; phases: Liquid, Gas
Fixed: Mole fraction of propanal = 0
Property: Activity coefficient of propanal (Liquid); method: Chromatography
Temperature, K	Activity coefficient of propanal	uncertainty
301.75	0.453	0.036
312.25	0.45	0.036
322.85	0.444	0.036
333.35	0.439	0.035

System: butanal + 1-hexyl-3-methylimidazolium bis[(trifluoromethyl)sulfonyl]imide; phases: Liquid, Gas
Fixed: Mole fraction of butanal = 0
Property: Activity coefficient of butanal (Liquid); method: Chromatography
Temperature, K	Activity coefficient of butanal	uncertainty
301.75	0.578	0.041
312.25	0.576	0.041
322.85	0.574	0.041
333.35	0.572	0.041

System: pentanal + 1-hexyl-3-methylimidazolium bis[(trifluoromethyl)sulfonyl]imide; phases: Liquid, Gas
Fixed: Mole fraction of pentanal = 0
Property: Activity coefficient of pentanal (Liquid); method: Chromatography
Temperature, K	Activity coefficient of pentanal	uncertainty
301.75	1.11	0.07
312.25	1.1	0.07
322.85	1.08	0.068
333.35	1.06	0.067
343.55	1.05	0.066
354.05	1.03	0.065
364.45	1.01	0.063
374.95	0.99	0.062

System: hexanal + 1-hexyl-3-methylimidazolium bis[(trifluoromethyl)sulfonyl]imide; phases: Liquid, Gas
Fixed: Mole fraction of hexanal = 0
Property: Activity coefficient of hexanal (Liquid); method: Chromatography
Temperature, K	Activity coefficient of hexanal	uncertainty
333.15	1.2	0.077
343.55	1.21	0.078
354.05	1.23	0.079
364.45	1.24	0.08
374.95	1.26	0.081

System: heptanal + 1-hexyl-3-methylimidazolium bis[(trifluoromethyl)sulfonyl]imide; phases: Liquid, Gas
Fixed: Mole fraction of heptanal = 0
Property: Activity coefficient of heptanal (Liquid); method: Chromatography
Temperature, K	Activity coefficient of heptanal	uncertainty
343.55	1.11	0.07
354.05	1.07	0.068
364.45	1.02	0.064
374.95	0.97	0.061
385.35	0.92	0.058
395.95	0.9	0.057

System: octanal + 1-hexyl-3-methylimidazolium bis[(trifluoromethyl)sulfonyl]imide; phases: Liquid, Gas
Fixed: Mole fraction of octanal = 0
Property: Activity coefficient of octanal (Liquid); method: Chromatography
Temperature, K	Activity coefficient of octanal	uncertainty
354.05	1.9	0.13
364.45	1.92	0.13
374.95	1.94	0.13
385.45	1.96	0.13
395.95	1.97	0.13

System: methyl propanoate + 1-hexyl-3-methylimidazolium bis[(trifluoromethyl)sulfonyl]imide; phases: Liquid, Gas
Fixed: Mole fraction of methyl propanoate = 0
Property: Activity coefficient of methyl propanoate (Liquid); method: Chromatography
Temperature, K	Activity coefficient of methyl propanoate	uncertainty
322.75	0.681	0.046
333.25	0.683	0.046
343.65	0.685	0.046
354.15	0.688	0.046

System: methyl butanoate + 1-hexyl-3-methylimidazolium bis[(trifluoromethyl)sulfonyl]imide; phases: Liquid, Gas
Fixed: Mole fraction of methyl butanoate = 0
Property: Activity coefficient of methyl butanoate (Liquid); method: Chromatography
Temperature, K	Activity coefficient of methyl butanoate	uncertainty
322.75	0.868	0.055
333.25	0.874	0.056
343.65	0.877	0.056
354.15	0.884	0.056

System: methyl pentanoate + 1-hexyl-3-methylimidazolium bis[(trifluoromethyl)sulfonyl]imide; phases: Liquid, Gas
Fixed: Mole fraction of methyl pentanoate = 0
Property: Activity coefficient of methyl pentanoate (Liquid); method: Chromatography
Temperature, K	Activity coefficient of methyl pentanoate	uncertainty
322.75	1.04	0.07
333.25	1.03	0.06
343.65	1.01	0.06
354.15	0.99	0.06

System: methyl hexanoate + 1-hexyl-3-methylimidazolium bis[(trifluoromethyl)sulfonyl]imide; phases: Liquid, Gas
Fixed: Mole fraction of methyl hexanoate = 0
Property: Activity coefficient of methyl hexanoate (Liquid); method: Chromatography
Temperature, K	Activity coefficient of methyl hexanoate	uncertainty
343.65	1.39	0.09
354.15	1.35	0.09
364.65	1.29	0.08
375.15	1.25	0.08
385.65	1.2	0.08

System: methyl heptanoate + 1-hexyl-3-methylimidazolium bis[(trifluoromethyl)sulfonyl]imide; phases: Liquid, Gas
Fixed: Mole fraction of methyl heptanoate = 0
Property: Activity coefficient of methyl heptanoate (Liquid); method: Chromatography
Temperature, K	Activity coefficient of methyl heptanoate	uncertainty
354.15	1.6	0.11
364.65	1.52	0.1
375.15	1.44	0.09
385.65	1.38	0.09

System: acetone + 1-hexyl-3-methylimidazolium bis[(trifluoromethyl)sulfonyl]imide; phases: Liquid, Gas
Fixed: Mole fraction of acetone = 0
Property: Activity coefficient of acetone (Liquid); method: Chromatography
Temperature, K	Activity coefficient of acetone	uncertainty
301.75	0.352	0.032
302.25	0.352	0.032
312.25	0.357	0.033
322.85	0.362	0.033
333.35	0.366	0.033
343.85	0.371	0.033
354.25	0.375	0.033

System: acetonitrile + 1-hexyl-3-methylimidazolium bis[(trifluoromethyl)sulfonyl]imide; phases: Liquid, Gas
Fixed: Mole fraction of acetonitrile = 0
Property: Activity coefficient of acetonitrile (Liquid); method: Chromatography
Temperature, K	Activity coefficient of acetonitrile	uncertainty
312.25	0.456	0.036
322.85	0.446	0.036
333.35	0.434	0.035
343.85	0.426	0.035
354.25	0.413	0.034

System: 1,4-dioxane + 1-hexyl-3-methylimidazolium bis[(trifluoromethyl)sulfonyl]imide; phases: Liquid, Gas
Fixed: Mole fraction of 1,4-dioxane = 0
Property: Activity coefficient of 1,4-dioxane (Liquid); method: Chromatography
Temperature, K	Activity coefficient of 1,4-dioxane	uncertainty
375.15	0.04	0.031
396.15	0.047	0.03

System: trichloromethane + 1-hexyl-3-methylimidazolium bis[(trifluoromethyl)sulfonyl]imide; phases: Liquid, Gas
Fixed: Mole fraction of trichloromethane = 0
Property: Activity coefficient of trichloromethane (Liquid); method: Chromatography
Temperature, K	Activity coefficient of trichloromethane	uncertainty
301.75	0.67	0.045
301.85	0.67	0.045
312.25	0.68	0.046
312.45	0.68	0.046
322.85	0.69	0.046
323.05	0.7	0.047
333.45	0.71	0.047
343.95	0.72	0.048

System: pentane + 1-hexyl-3-methylimidazolium bis[(trifluoromethyl)sulfonyl]imide; phases: Liquid, Gas
Fixed: Mole fraction of pentane = 0
Property: Activity coefficient of pentane (Liquid); method: Chromatography
Temperature, K	Activity coefficient of pentane	uncertainty
301.95	6.26	0.43
312.45	5.44	0.37
323.05	5.33	0.36
333.45	4.72	0.32
343.95	4.09	0.28

System: hexane + 1-hexyl-3-methylimidazolium bis[(trifluoromethyl)sulfonyl]imide; phases: Liquid, Gas
Fixed: Mole fraction of hexane = 0
Property: Activity coefficient of hexane (Liquid); method: Chromatography
Temperature, K	Activity coefficient of hexane	uncertainty
301.85	8.03	0.55
312.25	7.65	0.52
322.85	7.41	0.51
333.25	6.94	0.47
343.75	6.74	0.46

System: heptane + 1-hexyl-3-methylimidazolium bis[(trifluoromethyl)sulfonyl]imide; phases: Liquid, Gas
Fixed: Mole fraction of heptane = 0
Property: Activity coefficient of heptane (Liquid); method: Chromatography
Temperature, K	Activity coefficient of heptane	uncertainty
300.95	11.15	0.76
312.25	10.42	0.71
322.85	9.69	0.66
333.25	9.09	0.62
343.75	8.65	0.59

System: octane + 1-hexyl-3-methylimidazolium bis[(trifluoromethyl)sulfonyl]imide; phases: Liquid, Gas
Fixed: Mole fraction of octane = 0
Property: Activity coefficient of octane (Liquid); method: Chromatography
Temperature, K	Activity coefficient of octane	uncertainty
300.95	15.15	1.03
312.25	14.3	0.98
322.85	13.22	0.9
333.25	12.24	0.84
343.75	11.5	0.78

System: nonane + 1-hexyl-3-methylimidazolium bis[(trifluoromethyl)sulfonyl]imide; phases: Liquid, Gas
Fixed: Mole fraction of nonane = 0
Property: Activity coefficient of nonane (Liquid); method: Chromatography
Temperature, K	Activity coefficient of nonane	uncertainty
307.05	21.45	1.47
312.35	20.51	1.4
312.35	20.33	1.39
322.85	18.89	1.29
322.85	18.65	1.27

System: decane + 1-hexyl-3-methylimidazolium bis[(trifluoromethyl)sulfonyl]imide; phases: Liquid, Gas
Fixed: Mole fraction of decane = 0
Property: Activity coefficient of decane (Liquid); method: Chromatography
Temperature, K	Activity coefficient of decane	uncertainty
307.05	28.54	1.95
312.35	27.45	1.88
322.85	25.56	1.75
333.35	22.91	1.57

System: undecane + 1-hexyl-3-methylimidazolium bis[(trifluoromethyl)sulfonyl]imide; phases: Liquid, Gas
Fixed: Mole fraction of undecane = 0
Property: Activity coefficient of undecane (Liquid); method: Chromatography
Temperature, K	Activity coefficient of undecane	uncertainty
312.35	37.29	2.55
322.85	34.09	2.33
333.35	29.98	2.05
343.75	27.73	1.9
354.25	25.98	1.78

System: dodecane + 1-hexyl-3-methylimidazolium bis[(trifluoromethyl)sulfonyl]imide; phases: Liquid, Gas
Fixed: Mole fraction of dodecane = 0
Property: Activity coefficient of dodecane (Liquid); method: Chromatography
Temperature, K	Activity coefficient of dodecane	uncertainty
333.35	39.56	2.71
343.75	36.43	2.49
354.25	34.23	2.34
364.75	30.29	2.07

System: 1-pentene + 1-hexyl-3-methylimidazolium bis[(trifluoromethyl)sulfonyl]imide; phases: Liquid, Gas
Fixed: Mole fraction of 1-pentene = 0
Property: Activity coefficient of 1-pentene (Liquid); method: Chromatography
Temperature, K	Activity coefficient of 1-pentene	uncertainty
301.95	3.63	0.23
312.45	3.54	0.23
322.95	3.43	0.24
333.45	3.39	0.25

System: hex-1-ene + 1-hexyl-3-methylimidazolium bis[(trifluoromethyl)sulfonyl]imide; phases: Liquid, Gas
Fixed: Mole fraction of hex-1-ene = 0
Property: Activity coefficient of hex-1-ene (Liquid); method: Chromatography
Temperature, K	Activity coefficient of hex-1-ene	uncertainty
301.95	4.55	0.31
312.45	4.41	0.3
322.95	4.27	0.29
333.45	4.1	0.28
343.95	3.95	0.27

System: 1-heptene + 1-hexyl-3-methylimidazolium bis[(trifluoromethyl)sulfonyl]imide; phases: Liquid, Gas
Fixed: Mole fraction of 1-heptene = 0
Property: Activity coefficient of 1-heptene (Liquid); method: Chromatography
Temperature, K	Activity coefficient of 1-heptene	uncertainty
301.95	6.36	0.43
312.45	6.18	0.42
322.95	5.96	0.41
333.45	5.69	0.39
343.95	5.44	0.37
354.35	5.26	0.36

System: oct-1-ene + 1-hexyl-3-methylimidazolium bis[(trifluoromethyl)sulfonyl]imide; phases: Liquid, Gas
Fixed: Mole fraction of oct-1-ene = 0
Property: Activity coefficient of oct-1-ene (Liquid); method: Chromatography
Temperature, K	Activity coefficient of oct-1-ene	uncertainty
301.95	8.83	0.6
312.45	8.43	0.58
322.95	8.08	0.55
333.45	7.66	0.52
343.95	7.37	0.5
354.35	7.16	0.49

System: 1-nonene + 1-hexyl-3-methylimidazolium bis[(trifluoromethyl)sulfonyl]imide; phases: Liquid, Gas
Fixed: Mole fraction of 1-nonene = 0
Property: Activity coefficient of 1-nonene (Liquid); method: Chromatography
Temperature, K	Activity coefficient of 1-nonene	uncertainty
312.25	12.47	0.85
322.75	11.84	0.81
333.15	11.16	0.76
333.35	11.05	0.75
343.75	10.46	0.71
354.15	9.99	0.68
364.55	9.54	0.65

System: 1-decene + 1-hexyl-3-methylimidazolium bis[(trifluoromethyl)sulfonyl]imide; phases: Liquid, Gas
Fixed: Mole fraction of 1-decene = 0
Property: Activity coefficient of 1-decene (Liquid); method: Chromatography
Temperature, K	Activity coefficient of 1-decene	uncertainty
312.25	16	1.09
322.85	15.17	1.04
333.15	14.09	0.96
333.25	14.41	0.98
343.75	13.54	0.92
343.75	13.35	0.91
354.15	13.1	0.89
364.55	11.93	0.81

System: 1-undecene + 1-hexyl-3-methylimidazolium bis[(trifluoromethyl)sulfonyl]imide; phases: Liquid, Gas
Fixed: Mole fraction of 1-undecene = 0
Property: Activity coefficient of 1-undecene (Liquid); method: Chromatography
Temperature, K	Activity coefficient of 1-undecene	uncertainty
322.65	21.01	1.44
333.15	19.17	1.31
343.75	17.41	1.19
359.4	15.45	1.06
369.85	14.27	0.97
375.05	14.07	0.96

System: 1-dodecene + 1-hexyl-3-methylimidazolium bis[(trifluoromethyl)sulfonyl]imide; phases: Liquid, Gas
Fixed: Mole fraction of 1-dodecene = 0
Property: Activity coefficient of 1-dodecene (Liquid); method: Chromatography
Temperature, K	Activity coefficient of 1-dodecene	uncertainty
333.15	25.57	1.75
343.75	23.1	1.58
343.75	22.74	1.55
354.15	21.06	1.44
354.15	20.54	1.4
364.55	19.29	1.32
364.65	18.68	1.28
374.95	16.88	1.15

System: cyclohexane + 1-hexyl-3-methylimidazolium bis[(trifluoromethyl)sulfonyl]imide; phases: Liquid, Gas
Fixed: Mole fraction of cyclohexane = 0
Property: Activity coefficient of cyclohexane (Liquid); method: Chromatography
Temperature, K	Activity coefficient of cyclohexane	uncertainty
300.95	5.65	0.39
312.25	5.23	0.36
322.85	4.9	0.33
333.25	4.59	0.31

System: cyclohexene + 1-hexyl-3-methylimidazolium bis[(trifluoromethyl)sulfonyl]imide; phases: Liquid, Gas
Fixed: Mole fraction of cyclohexene = 0
Property: Activity coefficient of cyclohexene (Liquid); method: Chromatography
Temperature, K	Activity coefficient of cyclohexene	uncertainty
301.85	3.41	0.23
312.25	3.24	0.22
322.85	3.08	0.21
333.25	2.94	0.2
343.75	2.83	0.19

System: 1,3-cyclohexadiene + 1-hexyl-3-methylimidazolium bis[(trifluoromethyl)sulfonyl]imide; phases: Liquid, Gas
Fixed: Mole fraction of 1,3-cyclohexadiene = 0
Property: Activity coefficient of 1,3-cyclohexadiene (Liquid); method: Chromatography
Temperature, K	Activity coefficient of 1,3-cyclohexadiene	uncertainty
312.05	1.8	0.12
322.65	1.76	0.12
333.15	1.72	0.12
343.65	1.67	0.11
354.25	1.62	0.11
