Measured thermophysical data. Excess Molar Enthalpies of Dimethyl Carbonate and (Methanol, Ethanol, 1-Propanol, and 2-Propanol) at T = (298.15, 313.15, and 328.15) K and p = (0.1, 1.0, and 10.0) MPa
Source: J. Chem. Eng. Data, 2005, 10.1021/je050052+
Compound 1: dimethyl carbonate, C3H6O3, InChI=1S/C3H6O3/c1-5-3(4)6-2/h1-2H3, purity 99.9%
Compound 2: methanol, CH4O, InChI=1S/CH4O/c1-2/h2H,1H3, purity 99%
Compound 3: ethanol, C2H6O, InChI=1S/C2H6O/c1-2-3/h3H,2H2,1H3, purity 99%
Compound 4: propan-1-ol, C3H8O, InChI=1S/C3H8O/c1-2-3-4/h4H,2-3H2,1H3, purity 99%
Compound 5: propan-2-ol, C3H8O, InChI=1S/C3H8O/c1-3(2)4/h3-4H,1-2H3, purity 99%

System: methanol + dimethyl carbonate; phases: Liquid
Property: Excess molar enthalpy (molar enthalpy of mixing), kJ/mol (Liquid); method: Flow calorimetry
Temperature, K	Pressure, kPa	Mole fraction of methanol	Excess molar enthalpy (molar enthalpy of mixing), kJ/mol	uncertainty
298.15	1000	0.25	1.14176	0.00962
298.15	1000	0.3	1.22702	0.01028
298.15	1000	0.35	1.28648	0.01074
298.15	1000	0.4	1.31803	0.01098
298.15	1000	0.45	1.32323	0.01102
298.15	1000	0.5	1.30973	0.01092
298.15	1000	0.55	1.26938	0.01061
298.15	1000	0.6	1.21359	0.01018
298.15	1000	0.65	1.14413	0.00964
298.15	1000	0.7	1.04923	0.0089
298.15	1000	0.75	0.9327	0.008
298.15	1000	0.8	0.80773	0.00703
313.15	100	0.048	0.31282	0.0032
313.15	100	0.1	0.64397	0.00576
313.15	100	0.1492	0.88643	0.00764
313.15	100	0.2014	1.09655	0.00927
313.15	100	0.2506	1.24523	0.01042
313.15	100	0.302	1.35497	0.01127
313.15	100	0.3503	1.42689	0.01183
313.15	100	0.4001	1.46707	0.01214
313.15	100	0.451	1.47916	0.01223
313.15	100	0.4985	1.45255	0.01203
313.15	100	0.5501	1.42653	0.01182
313.15	100	0.6014	1.36184	0.01132
313.15	100	0.6489	1.28586	0.01074
313.15	100	0.6987	1.18781	0.00998
313.15	100	0.7499	1.06261	0.00901
313.15	100	0.7992	0.90459	0.00778
313.15	100	0.851	0.71074	0.00628
313.15	100	0.95	0.23469	0.00259
313.15	1000	0.0477	0.35583	0.00353
313.15	1000	0.0994	0.66117	0.0059
313.15	1000	0.1484	0.90155	0.00776
313.15	1000	0.2003	1.10318	0.00932
313.15	1000	0.2493	1.2424	0.0104
313.15	1000	0.3006	1.35111	0.01124
313.15	1000	0.3487	1.42392	0.0118
313.15	1000	0.3985	1.47216	0.01218
313.15	1000	0.4493	1.4835	0.01227
313.15	1000	0.5006	1.46287	0.01211
313.15	1000	0.5485	1.4244	0.01181
313.15	1000	0.5998	1.35846	0.0113
313.15	1000	0.6504	1.27717	0.01067
313.15	1000	0.7001	1.17778	0.0099
313.15	1000	0.7512	1.04961	0.00891
313.15	1000	0.8005	0.89924	0.00774
313.15	1000	0.8501	0.70735	0.00625
313.15	1000	0.9497	0.22341	0.00251
313.15	10000	0.0477	0.36893	0.00363
313.15	10000	0.0994	0.6783	0.00603
313.15	10000	0.1484	0.91558	0.00787
313.15	10000	0.2003	1.11269	0.00939
313.15	10000	0.2493	1.25066	0.01046
313.15	10000	0.3006	1.36046	0.01131
313.15	10000	0.3487	1.42926	0.01185
313.15	10000	0.3985	1.46929	0.01216
313.15	10000	0.4493	1.47966	0.01224
313.15	10000	0.5006	1.46829	0.01215
313.15	10000	0.5485	1.43231	0.01187
313.15	10000	0.5998	1.3746	0.01142
313.15	10000	0.6504	1.29205	0.01078
313.15	10000	0.7001	1.18918	0.00999
313.15	10000	0.7512	1.0504	0.00891
313.15	10000	0.8005	0.9028	0.00777
313.15	10000	0.8501	0.7249	0.00639
313.15	10000	0.9497	0.23487	0.0026
328.15	1000	0.05	0.38373	0.00375
328.15	1000	0.1	0.72492	0.00639
328.15	1000	0.15	0.98279	0.00839
328.15	1000	0.2	1.19954	0.01007
328.15	1000	0.25	1.36547	0.01135
328.15	1000	0.3	1.48754	0.0123
328.15	1000	0.35	1.56902	0.01293
328.15	1000	0.4	1.6246	0.01336
328.15	1000	0.45	1.64605	0.01352
328.15	1000	0.5	1.62912	0.01339
328.15	1000	0.55	1.5882	0.01308
328.15	1000	0.6	1.522	0.01256
328.15	1000	0.65	1.42756	0.01183
328.15	1000	0.7	1.31343	0.01095
328.15	1000	0.75	1.16748	0.00982
328.15	1000	0.8	0.99717	0.0085
328.15	1000	0.8509	0.78905	0.00689
328.15	1000	0.95	0.26167	0.0028

System: ethanol + dimethyl carbonate; phases: Liquid
Property: Excess molar enthalpy (molar enthalpy of mixing), kJ/mol (Liquid); method: Flow calorimetry
Temperature, K	Pressure, kPa	Mole fraction of dimethyl carbonate	Excess molar enthalpy (molar enthalpy of mixing), kJ/mol	uncertainty
298.15	1000	0.05	0.4235	0.00406
298.15	1000	0.1	0.78682	0.00687
298.15	1000	0.15	1.05674	0.00896
298.15	1000	0.2	1.27532	0.01065
298.15	1000	0.25	1.44583	0.01197
298.15	1000	0.3	1.55966	0.01286
298.15	1000	0.35	1.64064	0.01348
298.15	1000	0.4	1.68303	0.01381
298.15	1000	0.45	1.70145	0.01395
298.15	1000	0.5	1.69332	0.01389
298.15	1000	0.55	1.65483	0.01359
298.15	1000	0.6	1.57978	0.01301
298.15	1000	0.65	1.49765	0.01238
298.15	1000	0.7	1.38535	0.01151
298.15	1000	0.75	1.23979	0.01038
298.15	1000	0.8	1.06369	0.00901
298.15	1000	0.85	0.84685	0.00733
313.15	100	0.0521	0.4117	0.00396
313.15	100	0.098	0.77579	0.00678
313.15	100	0.1514	1.11798	0.00943
313.15	100	0.1988	1.34558	0.0112
313.15	100	0.2488	1.54179	0.01272
313.15	100	0.3012	1.68724	0.01384
313.15	100	0.3519	1.78801	0.01462
313.15	100	0.4008	1.85399	0.01514
313.15	100	0.4516	1.8702	0.01526
313.15	100	0.5007	1.8681	0.01524
313.15	100	0.5515	1.83202	0.01497
313.15	100	0.6003	1.75598	0.01438
313.15	100	0.6506	1.6607	0.01364
313.15	100	0.699	1.54097	0.01271
313.15	100	0.7513	1.36102	0.01132
313.15	100	0.7987	1.18635	0.00996
313.15	100	0.8497	0.95697	0.00819
313.15	100	0.9012	0.6579	0.00587
313.15	100	0.9504	0.33797	0.00339
313.15	1000	0.052	0.43452	0.00414
313.15	1000	0.0979	0.79414	0.00693
313.15	1000	0.1513	1.12863	0.00952
313.15	1000	0.1986	1.36134	0.01132
313.15	1000	0.2487	1.55703	0.01284
313.15	1000	0.3011	1.70115	0.01395
313.15	1000	0.3517	1.79745	0.0147
313.15	1000	0.4006	1.85579	0.01515
313.15	1000	0.4515	1.88119	0.01535
313.15	1000	0.5006	1.87204	0.01528
313.15	1000	0.5513	1.82972	0.01495
313.15	1000	0.6002	1.76169	0.01442
313.15	1000	0.6504	1.66162	0.01365
313.15	1000	0.6988	1.53858	0.01269
313.15	1000	0.7511	1.36347	0.01134
313.15	1000	0.7986	1.18149	0.00993
313.15	1000	0.8496	0.95581	0.00818
313.15	1000	0.9011	0.64919	0.0058
313.15	1000	0.9504	0.32665	0.0033
313.15	10000	0.0517	0.40665	0.00393
313.15	10000	0.1019	0.79657	0.00695
313.15	10000	0.1505	1.0987	0.00929
313.15	10000	0.2019	1.35207	0.01125
313.15	10000	0.2517	1.53904	0.0127
313.15	10000	0.2998	1.67533	0.01375
313.15	10000	0.3503	1.77216	0.0145
313.15	10000	0.3992	1.83203	0.01497
313.15	10000	0.45	1.85794	0.01517
313.15	10000	0.4991	1.85065	0.01511
313.15	10000	0.5498	1.81215	0.01481
313.15	10000	0.5987	1.74622	0.0143
313.15	10000	0.6491	1.64837	0.01354
313.15	10000	0.7005	1.51672	0.01252
313.15	10000	0.75	1.36271	0.01133
313.15	10000	0.8004	1.16747	0.00982
313.15	10000	0.8489	0.94619	0.0081
313.15	10000	0.9006	0.65544	0.00585
313.15	10000	0.9501	0.32145	0.00326
328.15	1000	0.05	0.48246	0.00451
328.15	1000	0.1	0.89826	0.00773
328.15	1000	0.15	1.22109	0.01023
328.15	1000	0.2	1.49159	0.01233
328.15	1000	0.25	1.71182	0.01403
328.15	1000	0.3	1.86074	0.01519
328.15	1000	0.35	1.97127	0.01604
328.15	1000	0.4	2.043	0.0166
328.15	1000	0.45	2.07057	0.01681
328.15	1000	0.5	2.06782	0.01679
328.15	1000	0.55	2.03097	0.01651
328.15	1000	0.6	1.96658	0.01601
328.15	1000	0.65	1.86904	0.01525
328.15	1000	0.7	1.72105	0.01411
328.15	1000	0.75	1.52832	0.01261
328.15	1000	0.8	1.31225	0.01094
328.15	1000	0.85	1.04938	0.0089
328.15	1000	0.9	0.72885	0.00642
328.15	1000	0.95	0.36646	0.00361

System: propan-1-ol + dimethyl carbonate; phases: Liquid
Property: Excess molar enthalpy (molar enthalpy of mixing), kJ/mol (Liquid); method: Flow calorimetry
Temperature, K	Pressure, kPa	Mole fraction of dimethyl carbonate	Excess molar enthalpy (molar enthalpy of mixing), kJ/mol	uncertainty
298.15	1000	0.05	0.45174	0.00427
298.15	1000	0.1	0.84706	0.00734
298.15	1000	0.15	1.16411	0.00979
298.15	1000	0.2	1.42298	0.0118
298.15	1000	0.25	1.60362	0.0132
298.15	1000	0.3	1.75457	0.01437
298.15	1000	0.35	1.87034	0.01526
298.15	1000	0.4	1.92801	0.01571
298.15	1000	0.45	1.96302	0.01598
298.15	1000	0.5	1.95756	0.01594
298.15	1000	0.55	1.91972	0.01564
298.15	1000	0.6	1.85638	0.01515
298.15	1000	0.65	1.75707	0.01438
298.15	1000	0.7	1.6245	0.01336
298.15	1000	0.75	1.46098	0.01209
298.15	1000	0.8	1.25372	0.01049
298.15	1000	0.85	1.00251	0.00854
298.15	1000	0.9515	0.34753	0.00347
313.15	1000	0.0485	0.42481	0.00407
313.15	1000	0.1002	0.87911	0.00758
313.15	1000	0.1512	1.24503	0.01042
313.15	1000	0.2017	1.54035	0.01271
313.15	1000	0.2516	1.7707	0.01449
313.15	1000	0.3009	1.93884	0.01579
313.15	1000	0.3497	2.05896	0.01672
313.15	1000	0.4014	2.14804	0.01741
313.15	1000	0.449	2.18851	0.01773
313.15	1000	0.4995	2.18976	0.01774
313.15	1000	0.5494	2.14888	0.01742
313.15	1000	0.5987	2.07978	0.01688
313.15	1000	0.6506	1.96719	0.01601
313.15	1000	0.6988	1.83396	0.01498
313.15	1000	0.7495	1.6507	0.01356
313.15	1000	0.8491	1.13565	0.00957
313.15	1000	0.901	0.7944	0.00693
313.15	1000	0.9493	0.4004	0.00388
313.15	10000	0.0482	0.49016	0.00457
313.15	10000	0.0996	0.9343	0.00801
313.15	10000	0.1504	1.29763	0.01083
313.15	10000	0.2007	1.58767	0.01307
313.15	10000	0.2505	1.81086	0.0148
313.15	10000	0.2997	1.97956	0.01611
313.15	10000	0.3483	2.10032	0.01704
313.15	10000	0.3999	2.18334	0.01769
313.15	10000	0.4509	2.22364	0.018
313.15	10000	0.5013	2.22438	0.018
313.15	10000	0.5512	2.18747	0.01772
313.15	10000	0.6005	2.11187	0.01713
313.15	10000	0.6493	2.00762	0.01633
313.15	10000	0.7007	1.84635	0.01508
313.15	10000	0.7515	1.64921	0.01355
313.15	10000	0.8514	1.13749	0.00959
313.15	10000	0.9005	0.80899	0.00704
313.15	10000	0.949	0.4139	0.00398
328.15	1000	0.05	0.49302	0.00459
328.15	1000	0.1	0.95595	0.00818
328.15	1000	0.15	1.34188	0.01117
328.15	1000	0.2	1.64883	0.01355
328.15	1000	0.25	1.90043	0.0155
328.15	1000	0.3	2.086	0.01693
328.15	1000	0.35	2.21921	0.01796
328.15	1000	0.4	2.31375	0.0187
328.15	1000	0.45	2.37082	0.01914
328.15	1000	0.5	2.37256	0.01915
328.15	1000	0.55	2.34192	0.01892
328.15	1000	0.6	2.27271	0.01838
328.15	1000	0.65	2.16497	0.01754
328.15	1000	0.7	2.00467	0.0163
328.15	1000	0.75	1.7975	0.0147
328.15	1000	0.85	1.23681	0.01035
328.15	1000	0.9	0.88252	0.00761
328.15	1000	0.95	0.44574	0.00423

System: propan-2-ol + dimethyl carbonate; phases: Liquid
Property: Excess molar enthalpy (molar enthalpy of mixing), kJ/mol (Liquid); method: Flow calorimetry
Temperature, K	Pressure, kPa	Mole fraction of dimethyl carbonate	Excess molar enthalpy (molar enthalpy of mixing), kJ/mol	uncertainty
298.15	1000	0.05	0.50268	0.00467
298.15	1000	0.1	0.92877	0.00797
298.15	1000	0.15	1.26708	0.01059
298.15	1000	0.2	1.54583	0.01275
298.15	1000	0.25	1.76116	0.01442
298.15	1000	0.3	1.9244	0.01568
298.15	1000	0.35	2.04954	0.01665
298.15	1000	0.4	2.13253	0.01729
298.15	1000	0.45	2.18061	0.01767
298.15	1000	0.5	2.20256	0.01784
298.15	1000	0.55	2.17194	0.0176
298.15	1000	0.6	2.11217	0.01714
298.15	1000	0.65	2.0105	0.01635
298.15	1000	0.7	1.8657	0.01523
298.15	1000	0.75	1.67881	0.01378
298.15	1000	0.8	1.43318	0.01188
298.15	1000	0.95	0.44698	0.00424
313.15	100	0.0483	0.46715	0.00439
313.15	100	0.0998	0.93173	0.00799
313.15	100	0.1507	1.31639	0.01097
313.15	100	0.2011	1.62354	0.01335
313.15	100	0.2509	1.87134	0.01527
313.15	100	0.3002	2.06033	0.01673
313.15	100	0.3489	2.20774	0.01788
313.15	100	0.4005	2.31594	0.01871
313.15	100	0.4515	2.37601	0.01918
313.15	100	0.4986	2.39247	0.01931
313.15	100	0.5485	2.36438	0.01909
313.15	100	0.6011	2.30222	0.01861
313.15	100	0.6498	2.19406	0.01777
313.15	100	0.7012	2.04489	0.01661
313.15	100	0.7488	1.84892	0.0151
313.15	100	0.8486	1.31272	0.01094
313.15	100	0.9007	0.93515	0.00802
313.15	100	0.9492	0.48348	0.00452
313.15	1000	0.0483	0.46348	0.00437
313.15	1000	0.0998	0.93344	0.00801
313.15	1000	0.1507	1.3122	0.01094
313.15	1000	0.201	1.61955	0.01332
313.15	1000	0.2508	1.86804	0.01524
313.15	1000	0.3	2.06334	0.01676
313.15	1000	0.3487	2.21052	0.0179
313.15	1000	0.4003	2.31545	0.01871
313.15	1000	0.4513	2.36062	0.01906
313.15	1000	0.4984	2.37587	0.01918
313.15	1000	0.5516	2.3522	0.01899
313.15	1000	0.6009	2.29113	0.01852
313.15	1000	0.6497	2.18463	0.0177
313.15	1000	0.7011	2.03328	0.01652
313.15	1000	0.7487	1.8431	0.01505
313.15	1000	0.8486	1.30096	0.01085
313.15	1000	0.9007	0.92432	0.00793
313.15	1000	0.9491	0.49094	0.00458
313.15	10000	0.0517	0.45817	0.00432
313.15	10000	0.0992	0.88689	0.00764
313.15	10000	0.1499	1.2679	0.0106
313.15	10000	0.2	1.57649	0.01299
313.15	10000	0.2497	1.82202	0.01489
313.15	10000	0.2988	2.0139	0.01637
313.15	10000	0.3508	2.16589	0.01755
313.15	10000	0.3989	2.26219	0.0183
313.15	10000	0.4499	2.32501	0.01878
313.15	10000	0.5003	2.34203	0.01892
313.15	10000	0.5501	2.31684	0.01872
313.15	10000	0.5995	2.25624	0.01825
313.15	10000	0.6515	2.14699	0.01741
313.15	10000	0.6998	2.00833	0.01633
313.15	10000	0.7507	1.80956	0.01479
313.15	10000	0.8011	1.56004	0.01286
313.15	10000	0.8509	1.27772	0.01067
313.15	10000	0.9001	0.93226	0.008
313.15	10000	0.9488	0.52669	0.00485
328.15	1000	0.05	0.54117	0.00497
328.15	1000	0.1	0.97865	0.00836
328.15	1000	0.15	1.37197	0.0114
328.15	1000	0.2	1.69552	0.01391
328.15	1000	0.25	1.95562	0.01592
328.15	1000	0.3	2.15732	0.01749
328.15	1000	0.35	2.3251	0.01878
328.15	1000	0.4	2.43582	0.01964
328.15	1000	0.45	2.49447	0.0201
328.15	1000	0.5	2.52461	0.02033
328.15	1000	0.55	2.50691	0.02019
328.15	1000	0.6	2.44808	0.01974
328.15	1000	0.65	2.32568	0.01879
328.15	1000	0.7	2.14538	0.01739
328.15	1000	0.75	1.95752	0.01594
328.15	1000	0.8	1.68788	0.01385
328.15	1000	0.85	1.36255	0.01133
328.15	1000	0.9	0.96207	0.00823
328.15	1000	0.95	0.48654	0.00454
