Measured thermophysical data. Selected Physicochemical Properties of Hexamethylcyclotrisiloxane, Octamethylcyclotetrasiloxane, and Decamethylcyclopentasiloxane
Source: J. Chem. Eng. Data, 2005, 10.1021/je050173+
Compound 1: hexamethylcyclotrisiloxane, C6H18O3Si3, InChI=1S/C6H18O3Si3/c1-10(2)7-11(3,4)9-12(5,6)8-10/h1-6H3, purity 99%
Compound 2: octamethylcyclotetrasiloxane, C8H24O4Si4, InChI=1S/C8H24O4Si4/c1-13(2)9-14(3,4)11-16(7,8)12-15(5,6)10-13/h1-8H3, purity 99%
Compound 3: decamethylcyclopentasiloxane, C10H30O5Si5, InChI=1S/C10H30O5Si5/c1-16(2)11-17(3,4)13-19(7,8)15-20(9,10)14-18(5,6)12-16/h1-10H3, purity 99%

System: hexamethylcyclotrisiloxane; phases: Liquid
Fixed: Pressure, kPa = 101.325
Property: Molar heat capacity at constant pressure, J/K/mol (Liquid); method: SDSC:UFactor:0.5
Temperature, K	Molar heat capacity at constant pressure, J/K/mol	uncertainty
339.9	404.5	3.1
343.15	405.9	3.1
345.03	406.7	3.2
353.15	410.4	3.2
357.92	412.3	3.2
361.2	413.8	3.2
365.09	415.6	3.2
370.16	418.1	3.2
374.79	420.1	3.3
379.42	421.8	3.3
383.15	423.6	3.3
388.06	425.6	3.3
393.14	428.1	3.3
398.01	430	3.3
400	431	3.3
404.89	433.2	3.4

System: hexamethylcyclotrisiloxane; phases: Liquid, Gas
Property: Surface tension liquid-gas, N/m (Liquid); method: Maximal bubble pressure
Temperature, K	Surface tension liquid-gas, N/m	uncertainty
344.55	0.01354	0.00014
347.35	0.01332	0.00014
353.95	0.0129	0.00014
358.45	0.01268	0.00014
363.15	0.01233	0.00014
368.15	0.01202	0.00013
373.15	0.01171	0.00013
378.15	0.0114	0.00013
383.15	0.01109	0.00013

System: hexamethylcyclotrisiloxane; phases: Liquid
Property: Thermal conductivity, W/m/K (Liquid); method: Hot wire method
Temperature, K	Pressure, kPa	Thermal conductivity, W/m/K	uncertainty
343.15	101.325	0.1026	0.0005

System: hexamethylcyclotrisiloxane; phases: Liquid
Fixed: Pressure, kPa = 101.325
Property: Viscosity, Pa*s (Liquid); method: SPHERE:UFactor:4
Temperature, K	Viscosity, Pa*s	uncertainty
343.15	0.00048	2e-05
348.15	0.00046	2e-05
353.15	0.00044	2e-05
358.15	0.00042	2e-05
363.15	0.0004	2e-05
368.15	0.00039	2e-05
373.15	0.00037	2e-05
378.15	0.00035	2e-05
383.15	0.00034	2e-05
388.15	0.00033	1e-05
393.15	0.00032	1e-05

System: hexamethylcyclotrisiloxane; phases: Liquid, Gas
Property: Vapor or sublimation pressure, kPa (Liquid); method: TWINEBU:UFactor:8
Temperature, K	Vapor or sublimation pressure, kPa	uncertainty
347.64	13.849	0.086
350.13	15.277	0.087
351.45	16.191	0.088
355.59	19.006	0.089
360.17	22.549	0.09
361.61	23.754	0.091
362.4	24.47	0.092
365.71	27.619	0.093
368.81	30.711	0.095
372.34	34.633	0.096
372.68	35.009	0.097
381.37	46.626	0.102
383.78	50.313	0.105
387.95	57.217	0.11
397.75	76.516	0.119
407.63	100.848	0.13

System: hexamethylcyclotrisiloxane; phases: Liquid
Fixed: Pressure, kPa = 101.325
Property: Mass density, kg/m3 (Liquid); method: VIBTUB:UFactor:12
Temperature, K	Mass density, kg/m3	uncertainty
343.15	872.69	1.27
348.7	865.41	1.32
354.65	856.98	1.37
357.4	854.11	1.39
359.15	852.6	1.4
366.1	842.76	1.46
369.65	838	1.5
373.15	833.47	1.53
379.16	825.64	1.58
383.15	820.39	1.62
387.85	814.16	1.66

System: octamethylcyclotetrasiloxane; phases: Liquid
Fixed: Pressure, kPa = 101.325
Property: Molar heat capacity at constant pressure, J/K/mol (Liquid); method: SDSC:UFactor:0.5
Temperature, K	Molar heat capacity at constant pressure, J/K/mol	uncertainty
293.15	511.5	4
298	513.6	4
303.15	515.8	4
306.25	517.2	4
313.12	520.1	4
319	522.7	4
323.25	524.5	4.1
327.55	526.4	4.1
334.75	529.1	4.1
337.88	530.8	4.1
342.23	532.7	4.1
348.05	535.2	4.1
352.2	538.8	4.2
358.83	539.9	4.2
364.28	542.2	4.2
370.25	543	4.2
377.55	548	4.2
382.48	550.1	4.3
388.65	552.3	4.3
393.15	554.7	4.3
399.83	557.7	4.3
407.15	560.8	4.3
415.73	564.5	4.4
425.95	568.4	4.4

System: octamethylcyclotetrasiloxane; phases: Liquid, Gas
Property: Surface tension liquid-gas, N/m (Liquid); method: Maximal bubble pressure
Temperature, K	Surface tension liquid-gas, N/m	uncertainty
293.15	0.01793	0.00016
303.15	0.01728	0.00016
313.15	0.0166	0.00016
323.15	0.01595	0.00015
333.15	0.01516	0.00015
343.15	0.0145	0.00015
353.15	0.01377	0.00014
363.15	0.01305	0.00014
373.15	0.01238	0.00014
393.15	0.01098	0.00013
413.15	0.00958	0.00012
433.15	0.00818	0.00012

System: octamethylcyclotetrasiloxane; phases: Liquid
Fixed: Pressure, kPa = 101.325
Property: Thermal conductivity, W/m/K (Liquid); method: Hot wire method
Temperature, K	Thermal conductivity, W/m/K	uncertainty
298.15	0.1131	0.0005
343.15	0.1038	0.0005

System: octamethylcyclotetrasiloxane; phases: Liquid
Fixed: Pressure, kPa = 101.325
Property: Viscosity, Pa*s (Liquid); method: SPHERE:UFactor:4
Temperature, K	Viscosity, Pa*s	uncertainty
293.15	0.00245	8e-05
303.15	0.00206	6e-05
313.15	0.0017	5e-05
323.15	0.00144	5e-05
333.15	0.00123	4e-05
343.15	0.00106	3e-05
353.15	0.00092	3e-05
363.15	0.00081	3e-05
373.15	0.00071	2e-05
383.15	0.00063	2e-05
393.15	0.00056	2e-05
403.15	0.00051	2e-05
423.15	0.00041	2e-05

System: octamethylcyclotetrasiloxane; phases: Liquid, Gas
Property: Vapor or sublimation pressure, kPa (Liquid); method: TWINEBU:UFactor:8
Temperature, K	Vapor or sublimation pressure, kPa	uncertainty
311.8	0.355	0.08
317.63	0.535	0.08
318.25	0.548	0.08
328.59	0.988	0.08
328.78	0.996	0.08
332.94	1.295	0.081
336.67	1.642	0.081
339.58	1.926	0.081
343.99	2.426	0.081
349.86	3.277	0.081
360.26	5.47	0.082
376.51	10.955	0.085
379.31	12.228	0.085
381.23	13.172	0.086
383.17	14.237	0.086
383.58	14.443	0.086
388.92	17.674	0.088
389.73	18.202	0.088
390.88	18.904	0.088
396.28	22.946	0.091
407.56	33.457	0.096
413.82	40.803	0.1
423.24	54.111	0.108
446.26	100.82	0.127

System: octamethylcyclotetrasiloxane; phases: Liquid
Fixed: Pressure, kPa = 101.325
Property: Mass density, kg/m3 (Liquid); method: VIBTUB:UFactor:12
Temperature, K	Mass density, kg/m3	uncertainty
292	957.55	0.74
301.6	946.16	0.81
303.15	944.21	0.83
311.2	934.8	0.88
313.15	932.43	0.9
316	929.12	0.92
325.62	917.74	0.99
330.47	912.06	1.03
333.15	909.32	1.04
340.05	900.68	1.1
344.8	894.99	1.13
349.65	889.31	1.17
353.15	884.79	1.2
364.04	872.24	1.28
373.15	861.35	1.35
383.2	849.47	1.43
393.15	837.64	1.52
397.6	832.37	1.56
407.22	821	1.64
413.15	813.94	1.69
421.58	803.91	1.78
433.15	790.24	1.89

System: decamethylcyclopentasiloxane; phases: Liquid
Fixed: Pressure, kPa = 101.325
Property: Molar heat capacity at constant pressure, J/K/mol (Liquid); method: SDSC:UFactor:0.5
Temperature, K	Molar heat capacity at constant pressure, J/K/mol	uncertainty
288.78	636.3	4.9
293.13	638.5	4.9
297.95	640.6	5
303.18	643.1	5
308.95	644.5	5
313.15	647.7	5
319	650.4	5
323.15	652.4	5.1
329.05	655.1	5.1
334.74	657.9	5.1
338.5	659.5	5.1
342.08	661.2	5.1
349.25	664.5	5.1
352.2	667.1	5.2
356.83	668	5.2
361.28	670.1	5.2
366.35	672.4	5.2
370.25	674.2	5.2
375.43	676.6	5.2
380.95	679.1	5.3
388.65	682.5	5.3
391.43	684	5.3
399.84	687.9	5.3
401.55	688.6	5.3
407.15	691.2	5.4
412.77	693.8	5.4
419.95	697.1	5.4
425.95	698.5	5.4
433.28	703.2	5.4
439.98	706.3	5.5
444.9	709.2	5.5
452.4	711.9	5.5
463.15	716.9	5.6
469.05	719.5	5.6
473.15	721.5	5.6

System: decamethylcyclopentasiloxane; phases: Liquid, Gas
Property: Surface tension liquid-gas, N/m (Liquid); method: Maximal bubble pressure
Temperature, K	Surface tension liquid-gas, N/m	uncertainty
293.15	0.01804	0.00016
303.15	0.0174	0.00016
313.15	0.01671	0.00016
323.15	0.01599	0.00015
333.15	0.01542	0.00015
343.15	0.01467	0.00015
353.15	0.01398	0.00014
363.15	0.0133	0.00014
373.15	0.01264	0.00014
393.15	0.01128	0.00013
413.15	0.00993	0.00012
433.15	0.00857	0.00012

System: decamethylcyclopentasiloxane; phases: Liquid
Fixed: Pressure, kPa = 101.325
Property: Thermal conductivity, W/m/K (Liquid); method: Hot wire method
Temperature, K	Thermal conductivity, W/m/K	uncertainty
298.15	0.1255	0.0005
343.15	0.1186	0.0005

System: decamethylcyclopentasiloxane; phases: Liquid
Fixed: Pressure, kPa = 101.325
Property: Viscosity, Pa*s (Liquid); method: SPHERE:UFactor:4
Temperature, K	Viscosity, Pa*s	uncertainty
293.15	0.00428	0.00013
298.15	0.00387	0.00012
303.15	0.00348	0.00011
313.15	0.00282	9e-05
323.15	0.00238	7e-05
332.95	0.00202	6e-05
343.15	0.00171	5e-05
353.15	0.00148	5e-05
373.15	0.00111	4e-05
393.15	0.00086	3e-05
413.15	0.00069	2e-05
423.15	0.00057	5e-05
453.15	0.00046	2e-05
473.15	0.00039	2e-05
493.15	0.00033	1e-05

System: decamethylcyclopentasiloxane; phases: Liquid, Gas
Property: Vapor or sublimation pressure, kPa (Liquid); method: TWINEBU:UFactor:8
Temperature, K	Vapor or sublimation pressure, kPa	uncertainty
348.23	0.703	0.08
350.87	0.801	0.08
351.11	0.82	0.08
355.91	1.103	0.08
357.29	1.207	0.08
361.2	1.468	0.081
370.08	2.381	0.081
374.37	2.913	0.081
377.85	3.452	0.081
378.07	3.482	0.081
380.74	3.901	0.082
394.66	7.191	0.083
398.63	8.45	0.084
402.72	9.938	0.084
412.81	14.519	0.086
416.46	16.555	0.088
423.94	21.386	0.09
432.91	28.603	0.093
439.98	35.465	0.097
448.41	45.279	0.101
455.39	54.85	0.106
462.39	66.094	0.113
479.53	100.896	0.127

System: decamethylcyclopentasiloxane; phases: Liquid
Fixed: Pressure, kPa = 101.325
Property: Mass density, kg/m3 (Liquid); method: VIBTUB:UFactor:12
Temperature, K	Mass density, kg/m3	uncertainty
295.05	956.75	0.75
300.1	951.14	0.78
303.95	946.93	0.81
310.3	939.94	0.85
313.17	936.67	0.87
320.5	928.72	0.92
325.6	923.12	0.96
333.15	915.02	1.01
340.9	906.3	1.06
346.05	900.69	1.1
353.1	892.8	1.15
366.4	878.24	1.24
373.15	870.77	1.29
381.7	861.4	1.36
391.9	850.17	1.44
397	844.55	1.48
407.2	833.32	1.56
413.15	826.73	1.62
417.4	822.08	1.65
422.5	816.45	1.7
433.15	804.71	1.8
442.9	793.98	1.9
453.15	782.6	2.02
