Measured thermophysical data. Density, Viscosity, and Speed of Sound of Solutions of AOT Reverse Micelles in 2,2,4-Trimethylpentane
Source: J. Chem. Eng. Data, 2006, 10.1021/je050333h
Compound 1: 2,2,4-trimethylpentane, C8H18, InChI=1S/C8H18/c1-7(2)6-8(3,4)5/h7H,6H2,1-5H3, purity 99%
Compound 2: sodium bis(2-ethylhexyl) sulfosuccinate, C20H37NaO7S, InChI=1S/C20H38O7S.Na/c1-5-9-11-16(7-3)14-26-19(21)13-18(28(23,24)25)20(22)27-15-17(8-4)12-10-6-2;/h16-18H,5-15H2,1-4H3,(H,23,24,25);/q;+1/p-1, purity 99%

System: 2,2,4-trimethylpentane; phases: Liquid
Fixed: Pressure, kPa = 101
Property: Kinematic viscosity, m2/s (Liquid); method: CAPTUB:UFactor:2
Temperature, K	Kinematic viscosity, m2/s	uncertainty
293.15	7.328e-07	1.28e-08
298.15	6.974e-07	1.23e-08
303.15	6.635e-07	1.18e-08
313.15	6.022e-07	1.09e-08
323.15	5.494e-07	1.01e-08

System: 2,2,4-trimethylpentane; phases: Liquid
Fixed: Pressure, kPa = 101
Property: Speed of sound, m/s (Liquid); method: Sing-around technique in a fixed-path interferometer
Temperature, K	Speed of sound, m/s	uncertainty
293.15	1103.2	1.3
298.15	1082.2	1.3
303.15	1061.3	1.3
313.15	1020.1	1.3
323.15	979.5	1.3

System: 2,2,4-trimethylpentane; phases: Liquid
Fixed: Pressure, kPa = 101
Property: Mass density, kg/m3 (Liquid); method: VIBTUB:UFactor:32
Temperature, K	Mass density, kg/m3	uncertainty
293.15	690.6	6.29
298.15	686.3	6.36
303.15	680.84	6.45
313.15	673.37	6.57
323.15	664.65	6.71

System: 2,2,4-trimethylpentane + sodium bis(2-ethylhexyl) sulfosuccinate; phases: Liquid
Fixed: Pressure, kPa = 101
Property: Kinematic viscosity, m2/s (Liquid); method: CAPTUB:UFactor:2
Temperature, K	Amount concentration (molarity), mol/dm3 of sodium bis(2-ethylhexyl) sulfosuccinate	Kinematic viscosity, m2/s	uncertainty
293.15	0	7.328e-07	1.28e-08
293.15	0.0993	8.025e-07	1.4e-08
293.15	0.2006	9.049e-07	1.55e-08
293.15	0.302	1.038e-06	1.7e-08
293.15	0.4037	1.214e-06	2e-08
293.15	0.5242	1.516e-06	2.5e-08
293.15	0.6067	1.828e-06	3e-08
293.15	0.7046	2.282e-06	3.7e-08
293.15	0.8053	2.957e-06	4.7e-08
293.15	0.9065	4.07e-06	6.5e-08
293.15	1.0121	5.973e-06	8.9e-08
298.15	0	6.974e-07	1.23e-08
298.15	0.0987	7.581e-07	1.32e-08
298.15	0.1994	8.562e-07	1.47e-08
298.15	0.3003	9.87e-07	1.66e-08
298.15	0.4017	1.144e-06	1.9e-08
298.15	0.5213	1.419e-06	2.3e-08
298.15	0.6034	1.67e-06	2.7e-08
298.15	0.701	2.103e-06	3.3e-08
298.15	0.8013	2.759e-06	4.3e-08
298.15	0.902	3.728e-06	5.7e-08
298.15	1.0071	5.272e-06	8e-08
303.15	0	6.635e-07	1.18e-08
303.15	0.0981	7.23e-07	1.27e-08
303.15	0.1983	8.132e-07	1.4e-08
303.15	0.2986	9.267e-07	1.57e-08
303.15	0.3988	1.073e-06	1.8e-08
303.15	0.5185	1.323e-06	2.2e-08
303.15	0.6002	1.56e-06	2.5e-08
303.15	0.6974	1.931e-06	3.1e-08
303.15	0.7972	2.528e-06	4e-08
303.15	0.8975	3.426e-06	5.3e-08
303.15	1.0022	4.765e-06	7.3e-08
313.15	0	6.022e-07	1.09e-08
313.15	0.097	6.551e-07	1.17e-08
313.15	0.1956	7.342e-07	1.29e-08
313.15	0.2946	8.286e-07	1.43e-08
313.15	0.3949	9.534e-07	1.61e-08
313.15	0.5111	1.17e-06	1.9e-08
313.15	0.5932	1.35e-06	2.2e-08
313.15	0.6899	1.666e-06	2.7e-08
313.15	0.7889	2.117e-06	3.4e-08
313.15	0.8884	2.793e-06	4.4e-08
313.15	0.9921	3.885e-06	6e-08
323.15	0	5.494e-07	1.01e-08
323.15	0.0959	5.947e-07	1.08e-08
323.15	0.1937	6.658e-07	1.18e-08
323.15	0.2919	7.496e-07	1.31e-08
323.15	0.3904	8.585e-07	1.47e-08
323.15	0.505	1.043e-06	1.7e-08
323.15	0.5858	1.192e-06	2e-08
323.15	0.6822	1.467e-06	2.4e-08
323.15	0.7807	1.83e-06	2.9e-08
323.15	0.8792	2.349e-06	3.7e-08
323.15	0.982	3.09e-06	4.9e-08

System: 2,2,4-trimethylpentane + sodium bis(2-ethylhexyl) sulfosuccinate; phases: Liquid
Fixed: Pressure, kPa = 101
Property: Speed of sound, m/s (Liquid); method: Sing-around technique in a fixed-path interferometer
Temperature, K	Amount concentration (molarity), mol/dm3 of sodium bis(2-ethylhexyl) sulfosuccinate	Speed of sound, m/s	uncertainty
293.15	0	1103.2	1.3
293.15	0.0993	1103.5	1.3
293.15	0.2006	1104	1.3
293.15	0.302	1105.7	1.3
293.15	0.4037	1107.9	1.3
293.15	0.5242	1111.5	1.3
293.15	0.6067	1115.2	1.3
293.15	0.7046	1120.4	1.3
293.15	0.8053	1126.2	1.3
293.15	0.9065	1133.6	1.3
293.15	1.0121	1142.4	1.3
298.15	0	1082.2	1.3
298.15	0.0987	1082.4	1.3
298.15	0.1994	1083.1	1.3
298.15	0.3003	1085.1	1.3
298.15	0.4017	1087.3	1.3
298.15	0.5213	1091.2	1.3
298.15	0.6034	1095	1.3
298.15	0.701	1100.4	1.3
298.15	0.8013	1106.5	1.3
298.15	0.902	1113.8	1.3
298.15	1.0071	1123	1.3
303.15	0	1061.3	1.3
303.15	0.0981	1061.6	1.3
303.15	0.1983	1062.4	1.3
303.15	0.2986	1064.5	1.3
303.15	0.3988	1066.9	1.3
303.15	0.5185	1071.1	1.3
303.15	0.6002	1075	1.3
303.15	0.6974	1080.5	1.3
303.15	0.7972	1086.5	1.3
303.15	0.8975	1094.1	1.3
303.15	1.0022	1103.7	1.3
313.15	0	1020.1	1.3
313.15	0.097	1020.3	1.3
313.15	0.1956	1021.5	1.3
313.15	0.2946	1024	1.3
313.15	0.3949	1026.6	1.3
313.15	0.5111	1031.3	1.3
313.15	0.5932	1035.6	1.3
313.15	0.6899	1041.3	1.3
313.15	0.7889	1048.1	1.3
313.15	0.8884	1055.8	1.3
313.15	0.9921	1065.5	1.3
323.15	0	979.5	1.3
323.15	0.0959	979.8	1.3
323.15	0.1937	981.2	1.3
323.15	0.2919	984.1	1.3
323.15	0.3904	987.1	1.3
323.15	0.505	992.3	1.3
323.15	0.5858	996.8	1.3
323.15	0.6822	1002.8	1.3
323.15	0.7807	1009.9	1.3
323.15	0.8792	1018	1.3
323.15	0.982	1028	1.3

System: 2,2,4-trimethylpentane + sodium bis(2-ethylhexyl) sulfosuccinate; phases: Liquid
Fixed: Pressure, kPa = 101
Property: Mass density, kg/m3 (Liquid); method: VIBTUB:UFactor:32
Temperature, K	Amount concentration (molarity), mol/dm3 of sodium bis(2-ethylhexyl) sulfosuccinate	Mass density, kg/m3	uncertainty
293.15	0	690.6	6.29
293.15	0.0993	704.23	6.07
293.15	0.2006	718.92	5.84
293.15	0.302	736.65	5.55
293.15	0.4037	754.54	5.26
293.15	0.5242	775.5	4.93
293.15	0.6067	794.1	4.63
293.15	0.7046	812.69	4.33
293.15	0.8053	829.38	4.06
293.15	0.9065	847.23	3.78
293.15	1.0121	865.07	3.49
298.15	0	686.3	6.36
298.15	0.0987	700.09	6.14
298.15	0.1994	714.76	5.9
298.15	0.3003	732.48	5.62
298.15	0.4017	750.77	5.32
298.15	0.5213	771.2	5
298.15	0.6034	789.8	4.7
298.15	0.701	808.51	4.4
298.15	0.8013	825.19	4.13
298.15	0.902	843	3.85
298.15	1.0071	860.81	3.56
303.15	0	680.84	6.45
303.15	0.0981	695.93	6.21
303.15	0.1983	710.7	5.97
303.15	0.2986	728.39	5.68
303.15	0.3988	745.5	5.41
303.15	0.5185	767	5.06
303.15	0.6002	785.6	4.77
303.15	0.6974	804.41	4.46
303.15	0.7972	820.98	4.2
303.15	0.8975	838.76	3.91
303.15	1.0022	856.54	3.63
313.15	0	673.37	6.57
313.15	0.097	687.78	6.34
313.15	0.1956	700.9	6.13
313.15	0.2946	718.5	5.84
313.15	0.3949	738.2	5.53
313.15	0.5111	756.1	5.24
313.15	0.5932	776.5	4.91
313.15	0.6899	795.7	4.6
313.15	0.7889	812.51	4.33
313.15	0.8884	830.24	4.05
313.15	0.9921	847.98	3.77
323.15	0	664.65	6.71
323.15	0.0959	680.26	6.46
323.15	0.1937	694.2	6.23
323.15	0.2919	712	5.95
323.15	0.3904	729.7	5.66
323.15	0.505	747	5.39
323.15	0.5858	766.8	5.07
323.15	0.6822	786.9	4.75
323.15	0.7807	804.04	4.47
323.15	0.8792	821.7	4.19
323.15	0.982	839.35	3.9
