Measured thermophysical data. Solubilities of 2-(6-Oxido-6H-dibenz[c,e][1,2]oxaphosphorin-6-yl)-methanol in the Selected Solvents
Source: J. Chem. Eng. Data, 2006, 10.1021/je050488p
Compound 1: 6-(hydroxymethyl)dibenzo[c,e][1,2]oxaphosphinine 6-oxide, C13H11O3P, InChI=1S/C13H11O3P/c14-9-17(15)13-8-4-2-6-11(13)10-5-1-3-7-12(10)16-17/h1-8,14H,9H2
Compound 2: water, H2O, InChI=1S/H2O/h1H2, purity 99%
Compound 3: 1,4-dimethylbenzene, C8H10, InChI=1S/C8H10/c1-7-3-5-8(2)6-4-7/h3-6H,1-2H3
Compound 4: acetone, C3H6O, InChI=1S/C3H6O/c1-3(2)4/h1-2H3
Compound 5: ethyl acetate, C4H8O2, InChI=1S/C4H8O2/c1-3-6-4(2)5/h3H2,1-2H3
Compound 6: benzene, C6H6, InChI=1S/C6H6/c1-2-4-6-5-3-1/h1-6H
Compound 7: toluene, C7H8, InChI=1S/C7H8/c1-7-5-3-2-4-6-7/h2-6H,1H3

System: 6-(hydroxymethyl)dibenzo[c,e][1,2]oxaphosphinine 6-oxide; phases: Crystal, Liquid, Air at 1 atmosphere
Property: Normal melting temperature, K (Crystal); method: VISOBS
Normal melting temperature, K	uncertainty
431.65	1.5

System: water + 6-(hydroxymethyl)dibenzo[c,e][1,2]oxaphosphinine 6-oxide; phases: Liquid, Crystal
Fixed: Pressure, kPa = 101
Property: Mole fraction of 6-(hydroxymethyl)dibenzo[c,e][1,2]oxaphosphinine 6-oxide (Liquid); method: gravimetric method
Temperature, K	Mole fraction of 6-(hydroxymethyl)dibenzo[c,e][1,2]oxaphosphinine 6-oxide	uncertainty
303.57	6.7e-10	5.4e-11
307.89	7.53e-10	6.1e-11
311.24	9.03e-10	7.3e-11
315.31	1.122e-09	9.1e-11
320.13	1.407e-09	1.13e-10
324.62	1.698e-09	1.37e-10
328.33	2.118e-09	1.71e-10
331.96	2.555e-09	2.05e-10
337.65	3.016e-09	2.42e-10
342.34	3.751e-09	3.04e-10
346.85	5.262e-09	4.25e-10
351.35	6.238e-09	5.02e-10
357.6	7.956e-09	6.39e-10
361.63	8.712e-09	6.98e-10

System: 1,4-dimethylbenzene + 6-(hydroxymethyl)dibenzo[c,e][1,2]oxaphosphinine 6-oxide; phases: Liquid, Crystal
Fixed: Pressure, kPa = 101
Property: Mole fraction of 6-(hydroxymethyl)dibenzo[c,e][1,2]oxaphosphinine 6-oxide (Liquid); method: gravimetric method
Temperature, K	Mole fraction of 6-(hydroxymethyl)dibenzo[c,e][1,2]oxaphosphinine 6-oxide	uncertainty
302.94	4.9e-11	4e-12
307.55	5.8e-11	5e-12
312.35	6.2e-11	5e-12
316.26	8.3e-11	7e-12
320.95	9.1e-11	7e-12
325.85	1.12e-10	9e-12
331.73	1.38e-10	1.1e-11
337.25	1.78e-10	1.4e-11
342.54	2.17e-10	1.7e-11
347.95	2.82e-10	2.3e-11
351.65	3.39e-10	2.7e-11
356.23	3.39e-10	2.7e-11
360.65	3.57e-10	2.9e-11

System: acetone + 6-(hydroxymethyl)dibenzo[c,e][1,2]oxaphosphinine 6-oxide; phases: Liquid, Crystal
Fixed: Pressure, kPa = 101
Property: Mole fraction of 6-(hydroxymethyl)dibenzo[c,e][1,2]oxaphosphinine 6-oxide (Liquid); method: gravimetric method
Temperature, K	Mole fraction of 6-(hydroxymethyl)dibenzo[c,e][1,2]oxaphosphinine 6-oxide	uncertainty
302.25	2.928e-08	2.354e-09
308.85	3.671e-08	2.951e-09
314.33	4.598e-08	3.694e-09
319.36	5.35e-08	4.298e-09
322.65	6.184e-08	4.981e-09
327.78	7.6985e-08	6.189e-09

System: ethyl acetate + 6-(hydroxymethyl)dibenzo[c,e][1,2]oxaphosphinine 6-oxide; phases: Liquid, Crystal
Fixed: Pressure, kPa = 101
Property: Mole fraction of 6-(hydroxymethyl)dibenzo[c,e][1,2]oxaphosphinine 6-oxide (Liquid); method: gravimetric method
Temperature, K	Mole fraction of 6-(hydroxymethyl)dibenzo[c,e][1,2]oxaphosphinine 6-oxide	uncertainty
303.45	1.5329e-08	1.235e-09
309.15	1.951e-08	1.569e-09
315.15	2.4466e-08	1.969e-09
321.35	3.2386e-08	2.611e-09
327.43	4.4047e-08	3.542e-09
333.85	5.4316e-08	4.374e-09
338.24	7.0874e-08	5.728e-09
342.45	8.863e-08	7.135e-09
347.63	1.0713e-07	8.6e-09
350.26	1.1375e-07	9.12e-09

System: benzene + 6-(hydroxymethyl)dibenzo[c,e][1,2]oxaphosphinine 6-oxide; phases: Liquid, Crystal
Fixed: Pressure, kPa = 101
Property: Mole fraction of 6-(hydroxymethyl)dibenzo[c,e][1,2]oxaphosphinine 6-oxide (Liquid); method: gravimetric method
Temperature, K	Mole fraction of 6-(hydroxymethyl)dibenzo[c,e][1,2]oxaphosphinine 6-oxide	uncertainty
300.68	6.11e-09	4.91e-10
307.53	7.703e-09	6.2e-10
312.27	1.025e-08	8.29e-10
317.45	1.3525e-08	1.094e-09
322.1	1.7953e-08	1.448e-09
327.14	2.2098e-08	1.787e-09
332.76	3.1572e-08	2.549e-09
338.23	4.0806e-08	3.28e-09
343.02	4.739e-08	3.816e-09
347.82	6.123e-08	4.957e-09
352.65	8.34e-08	6.737e-09

System: toluene + 6-(hydroxymethyl)dibenzo[c,e][1,2]oxaphosphinine 6-oxide; phases: Liquid, Crystal
Fixed: Pressure, kPa = 101
Property: Mole fraction of 6-(hydroxymethyl)dibenzo[c,e][1,2]oxaphosphinine 6-oxide (Liquid); method: gravimetric method
Temperature, K	Mole fraction of 6-(hydroxymethyl)dibenzo[c,e][1,2]oxaphosphinine 6-oxide	uncertainty
300.95	5.902e-09	4.75e-10
306.25	7.31e-09	5.88e-10
312.03	9.31e-09	7.48e-10
317.16	1.0781e-08	8.66e-10
322.15	1.283e-08	1.032e-09
327.45	1.6192e-08	1.301e-09
332.25	1.849e-08	1.486e-09
337.75	2.3116e-08	1.857e-09
342.05	2.6597e-08	2.139e-09
347.25	3.3087e-08	2.655e-09
351.25	3.5425e-08	2.854e-09
357.35	4.9098e-08	3.955e-09
362.35	6.0497e-08	4.863e-09
