Measured thermophysical data. Liquid-Liquid Equilibria on Three Binary Systems: Methyl Cyclopropanecarboxalate + Water; Dimethyl Sulfide + Water; and Dimethyl Disulfide + Water
Source: J. Chem. Eng. Data, 2006, 10.1021/je050326t
Compound 1: cyclopropanecarboxylic acid, methyl ester, C5H8O2, InChI=1S/C5H8O2/c1-7-5(6)4-2-3-4/h4H,2-3H2,1H3
Compound 2: 2-thiapropane, C2H6S, InChI=1S/C2H6S/c1-3-2/h1-2H3
Compound 3: 2,3-dithiabutane, C2H6S2, InChI=1S/C2H6S2/c1-3-4-2/h1-2H3
Compound 4: water, H2O, InChI=1S/H2O/h1H2

System: cyclopropanecarboxylic acid, methyl ester + water; phases: Liquid mixture 1, Liquid mixture 2
Fixed: Pressure, kPa = 101.3
Property: Mass fraction of cyclopropanecarboxylic acid, methyl ester (Liquid mixture 1); method: Chromatography
Temperature, K	Mass fraction of cyclopropanecarboxylic acid, methyl ester	uncertainty
298.15	0.97584	0.00019
323.15	0.96708	0.00026
348.15	0.95553	0.00034

System: cyclopropanecarboxylic acid, methyl ester + water; phases: Liquid mixture 2, Liquid mixture 1
Fixed: Pressure, kPa = 101.3
Property: Mass fraction of cyclopropanecarboxylic acid, methyl ester (Liquid mixture 2); method: Chromatography
Temperature, K	Mass fraction of cyclopropanecarboxylic acid, methyl ester	uncertainty
298.15	0.03559	0.00028
323.15	0.03267	0.00025
348.15	0.03432	0.00027

System: 2-thiapropane + water; phases: Liquid mixture 1, Liquid mixture 2
Fixed: Pressure, kPa = 101.3
Property: Mass fraction of 2-thiapropane (Liquid mixture 1); method: Chromatography
Temperature, K	Mass fraction of 2-thiapropane	uncertainty
278.15	0.99728	2e-05
298.15	0.99566	3e-05
323.15	0.99258	6e-05

System: 2-thiapropane + water; phases: Liquid mixture 2, Liquid mixture 1
Fixed: Pressure, kPa = 101.3
Property: Mass fraction of 2-thiapropane (Liquid mixture 2); method: Chromatography
Temperature, K	Mass fraction of 2-thiapropane	uncertainty
278.15	0.02428	0.00029
298.15	0.02169	0.00024
323.15	0.02073	0.00018

System: 2,3-dithiabutane + water; phases: Liquid mixture 1, Liquid mixture 2
Fixed: Pressure, kPa = 101.3
Property: Mass fraction of 2,3-dithiabutane (Liquid mixture 1); method: Chromatography
Temperature, K	Mass fraction of 2,3-dithiabutane	uncertainty
298.15	0.0026	0.00015
323.15	0.00316	9e-05
348.15	0.00421	0.00028

System: 2,3-dithiabutane + water; phases: Liquid mixture 2, Liquid mixture 1
Fixed: Pressure, kPa = 101.3
Property: Mass fraction of 2,3-dithiabutane (Liquid mixture 2); method: Chromatography
Temperature, K	Mass fraction of 2,3-dithiabutane	uncertainty
298.15	0.9987	2e-05
323.15	0.99753	3e-05
348.15	0.99543	9e-05
