Measured thermophysical data. Thermodynamic Properties of Mixtures Containing Ionic Liquids. 5. Activity Coefficients at Infinite Dilution of Hydrocarbons, Alcohols, Esters, and Aldehydes in 1-Methyl-3-butyl-imidazolium Bis(trifluoromethyl-sulfonyl) Imide Using Gas-Liquid Chromatography
Source: J. Chem. Eng. Data, 2005, 10.1021/je050125p
Compound 1: 1-butyl-3-methylimidazolium bis(trifluoromethylsulfonyl)imide, C10H15F6N3O4S2, InChI=1S/C8H15N2.C2F6NO4S2/c1-3-4-5-10-7-6-9(2)8-10;3-1(4,5)14(10,11)9-15(12,13)2(6,7)8/h6-8H,3-5H2,1-2H3;/q+1;-1
Compound 2: pentane, C5H12, InChI=1S/C5H12/c1-3-5-4-2/h3-5H2,1-2H3, purity 99.9%
Compound 3: hexane, C6H14, InChI=1S/C6H14/c1-3-5-6-4-2/h3-6H2,1-2H3, purity 99.9%
Compound 4: heptane, C7H16, InChI=1S/C7H16/c1-3-5-7-6-4-2/h3-7H2,1-2H3, purity 99.9%
Compound 5: octane, C8H18, InChI=1S/C8H18/c1-3-5-7-8-6-4-2/h3-8H2,1-2H3, purity 99.9%
Compound 6: nonane, C9H20, InChI=1S/C9H20/c1-3-5-7-9-8-6-4-2/h3-9H2,1-2H3, purity 99.9%
Compound 7: decane, C10H22, InChI=1S/C10H22/c1-3-5-7-9-10-8-6-4-2/h3-10H2,1-2H3, purity 99.9%
Compound 8: undecane, C11H24, InChI=1S/C11H24/c1-3-5-7-9-11-10-8-6-4-2/h3-11H2,1-2H3, purity 99.9%
Compound 9: dodecane, C12H26, InChI=1S/C12H26/c1-3-5-7-9-11-12-10-8-6-4-2/h3-12H2,1-2H3, purity 99.9%
Compound 10: 1-pentene, C5H10, InChI=1S/C5H10/c1-3-5-4-2/h3H,1,4-5H2,2H3, purity 99.9%
Compound 11: hex-1-ene, C6H12, InChI=1S/C6H12/c1-3-5-6-4-2/h3H,1,4-6H2,2H3, purity 99.9%
Compound 12: 1-heptene, C7H14, InChI=1S/C7H14/c1-3-5-7-6-4-2/h3H,1,4-7H2,2H3, purity 99.9%
Compound 13: oct-1-ene, C8H16, InChI=1S/C8H16/c1-3-5-7-8-6-4-2/h3H,1,4-8H2,2H3, purity 99.9%
Compound 14: 1-nonene, C9H18, InChI=1S/C9H18/c1-3-5-7-9-8-6-4-2/h3H,1,4-9H2,2H3, purity 99.9%
Compound 15: 1-decene, C10H20, InChI=1S/C10H20/c1-3-5-7-9-10-8-6-4-2/h3H,1,4-10H2,2H3, purity 99.9%
Compound 16: 1-undecene, C11H22, InChI=1S/C11H22/c1-3-5-7-9-11-10-8-6-4-2/h3H,1,4-11H2,2H3, purity 99.9%
Compound 17: 1-dodecene, C12H24, InChI=1S/C12H24/c1-3-5-7-9-11-12-10-8-6-4-2/h3H,1,4-12H2,2H3, purity 99.9%
Compound 18: methanol, CH4O, InChI=1S/CH4O/c1-2/h2H,1H3, purity 99.9%
Compound 19: ethanol, C2H6O, InChI=1S/C2H6O/c1-2-3/h3H,2H2,1H3, purity 99.9%
Compound 20: propan-1-ol, C3H8O, InChI=1S/C3H8O/c1-2-3-4/h4H,2-3H2,1H3, purity 99.9%
Compound 21: butan-1-ol, C4H10O, InChI=1S/C4H10O/c1-2-3-4-5/h5H,2-4H2,1H3, purity 99.9%
Compound 22: pentan-1-ol, C5H12O, InChI=1S/C5H12O/c1-2-3-4-5-6/h6H,2-5H2,1H3, purity 99.9%
Compound 23: hexan-1-ol, C6H14O, InChI=1S/C6H14O/c1-2-3-4-5-6-7/h7H,2-6H2,1H3, purity 99.9%
Compound 24: heptan-1-ol, C7H16O, InChI=1S/C7H16O/c1-2-3-4-5-6-7-8/h8H,2-7H2,1H3, purity 99.9%

System: pentane + 1-butyl-3-methylimidazolium bis(trifluoromethylsulfonyl)imide; phases: Liquid
Property: Activity coefficient of pentane (Liquid); method: Chromatography
Temperature, K	Pressure, kPa	Mole fraction of pentane	Activity coefficient of pentane	uncertainty
298	101.3	0	10.1	0.7

System: hexane + 1-butyl-3-methylimidazolium bis(trifluoromethylsulfonyl)imide; phases: Liquid
Property: Activity coefficient of hexane (Liquid); method: Chromatography
Temperature, K	Pressure, kPa	Mole fraction of hexane	Activity coefficient of hexane	uncertainty
298	101.3	0	15.4	1.1

System: heptane + 1-butyl-3-methylimidazolium bis(trifluoromethylsulfonyl)imide; phases: Liquid
Property: Activity coefficient of heptane (Liquid); method: Chromatography
Temperature, K	Pressure, kPa	Mole fraction of heptane	Activity coefficient of heptane	uncertainty
298	101.3	0	23	1.6

System: octane + 1-butyl-3-methylimidazolium bis(trifluoromethylsulfonyl)imide; phases: Liquid
Property: Activity coefficient of octane (Liquid); method: Chromatography
Temperature, K	Pressure, kPa	Mole fraction of octane	Activity coefficient of octane	uncertainty
298	101.3	0	33.8	2.3

System: nonane + 1-butyl-3-methylimidazolium bis(trifluoromethylsulfonyl)imide; phases: Liquid
Property: Activity coefficient of nonane (Liquid); method: Chromatography
Temperature, K	Pressure, kPa	Mole fraction of nonane	Activity coefficient of nonane	uncertainty
298	101.3	0	49.6	3.4

System: decane + 1-butyl-3-methylimidazolium bis(trifluoromethylsulfonyl)imide; phases: Liquid
Property: Activity coefficient of decane (Liquid); method: Chromatography
Temperature, K	Pressure, kPa	Mole fraction of decane	Activity coefficient of decane	uncertainty
298	101.3	0	64.5	4.4

System: undecane + 1-butyl-3-methylimidazolium bis(trifluoromethylsulfonyl)imide; phases: Liquid
Property: Activity coefficient of undecane (Liquid); method: Chromatography
Temperature, K	Pressure, kPa	Mole fraction of undecane	Activity coefficient of undecane	uncertainty
298	101.3	0	92.6	6.3

System: dodecane + 1-butyl-3-methylimidazolium bis(trifluoromethylsulfonyl)imide; phases: Liquid
Property: Activity coefficient of dodecane (Liquid); method: Chromatography
Temperature, K	Pressure, kPa	Mole fraction of dodecane	Activity coefficient of dodecane	uncertainty
298	101.3	0	127.3	8.7

System: 1-pentene + 1-butyl-3-methylimidazolium bis(trifluoromethylsulfonyl)imide; phases: Liquid
Property: Activity coefficient of 1-pentene (Liquid); method: Chromatography
Temperature, K	Pressure, kPa	Mole fraction of 1-pentene	Activity coefficient of 1-pentene	uncertainty
298	101.3	0	5	0.34

System: hex-1-ene + 1-butyl-3-methylimidazolium bis(trifluoromethylsulfonyl)imide; phases: Liquid
Property: Activity coefficient of hex-1-ene (Liquid); method: Chromatography
Temperature, K	Pressure, kPa	Mole fraction of hex-1-ene	Activity coefficient of hex-1-ene	uncertainty
298	101.3	0	7.67	0.52

System: 1-heptene + 1-butyl-3-methylimidazolium bis(trifluoromethylsulfonyl)imide; phases: Liquid
Property: Activity coefficient of 1-heptene (Liquid); method: Chromatography
Temperature, K	Pressure, kPa	Mole fraction of 1-heptene	Activity coefficient of 1-heptene	uncertainty
298	101.3	0	11.4	0.8

System: oct-1-ene + 1-butyl-3-methylimidazolium bis(trifluoromethylsulfonyl)imide; phases: Liquid
Property: Activity coefficient of oct-1-ene (Liquid); method: Chromatography
Temperature, K	Pressure, kPa	Mole fraction of oct-1-ene	Activity coefficient of oct-1-ene	uncertainty
298	101.3	0	16.8	1.1

System: 1-nonene + 1-butyl-3-methylimidazolium bis(trifluoromethylsulfonyl)imide; phases: Liquid
Property: Activity coefficient of 1-nonene (Liquid); method: Chromatography
Temperature, K	Pressure, kPa	Mole fraction of 1-nonene	Activity coefficient of 1-nonene	uncertainty
298	101.3	0	24.7	1.7

System: 1-decene + 1-butyl-3-methylimidazolium bis(trifluoromethylsulfonyl)imide; phases: Liquid
Property: Activity coefficient of 1-decene (Liquid); method: Chromatography
Temperature, K	Pressure, kPa	Mole fraction of 1-decene	Activity coefficient of 1-decene	uncertainty
298	101.3	0	34.4	2.4

System: 1-undecene + 1-butyl-3-methylimidazolium bis(trifluoromethylsulfonyl)imide; phases: Liquid
Property: Activity coefficient of 1-undecene (Liquid); method: Chromatography
Temperature, K	Pressure, kPa	Mole fraction of 1-undecene	Activity coefficient of 1-undecene	uncertainty
298	101.3	0	50.6	3.5

System: 1-dodecene + 1-butyl-3-methylimidazolium bis(trifluoromethylsulfonyl)imide; phases: Liquid
Property: Activity coefficient of 1-dodecene (Liquid); method: Chromatography
Temperature, K	Pressure, kPa	Mole fraction of 1-dodecene	Activity coefficient of 1-dodecene	uncertainty
298	101.3	0	73.6	5

System: methanol + 1-butyl-3-methylimidazolium bis(trifluoromethylsulfonyl)imide; phases: Liquid
Property: Activity coefficient of methanol (Liquid); method: Chromatography
Temperature, K	Pressure, kPa	Mole fraction of methanol	Activity coefficient of methanol	uncertainty
298	101.3	0	1.3	0.08

System: ethanol + 1-butyl-3-methylimidazolium bis(trifluoromethylsulfonyl)imide; phases: Liquid
Property: Activity coefficient of ethanol (Liquid); method: Chromatography
Temperature, K	Pressure, kPa	Mole fraction of ethanol	Activity coefficient of ethanol	uncertainty
298	101.3	0	1.88	0.13

System: propan-1-ol + 1-butyl-3-methylimidazolium bis(trifluoromethylsulfonyl)imide; phases: Liquid
Property: Activity coefficient of propan-1-ol (Liquid); method: Chromatography
Temperature, K	Pressure, kPa	Mole fraction of propan-1-ol	Activity coefficient of propan-1-ol	uncertainty
298	101.3	0	2.68	0.18

System: butan-1-ol + 1-butyl-3-methylimidazolium bis(trifluoromethylsulfonyl)imide; phases: Liquid
Property: Activity coefficient of butan-1-ol (Liquid); method: Chromatography
Temperature, K	Pressure, kPa	Mole fraction of butan-1-ol	Activity coefficient of butan-1-ol	uncertainty
298	101.3	0	2.96	0.2

System: pentan-1-ol + 1-butyl-3-methylimidazolium bis(trifluoromethylsulfonyl)imide; phases: Liquid
Property: Activity coefficient of pentan-1-ol (Liquid); method: Chromatography
Temperature, K	Pressure, kPa	Mole fraction of pentan-1-ol	Activity coefficient of pentan-1-ol	uncertainty
298	101.3	0	3.15	0.21

System: hexan-1-ol + 1-butyl-3-methylimidazolium bis(trifluoromethylsulfonyl)imide; phases: Liquid
Property: Activity coefficient of hexan-1-ol (Liquid); method: Chromatography
Temperature, K	Pressure, kPa	Mole fraction of hexan-1-ol	Activity coefficient of hexan-1-ol	uncertainty
298	101.3	0	4	0.27

System: heptan-1-ol + 1-butyl-3-methylimidazolium bis(trifluoromethylsulfonyl)imide; phases: Liquid
Property: Activity coefficient of heptan-1-ol (Liquid); method: Chromatography
Temperature, K	Pressure, kPa	Mole fraction of heptan-1-ol	Activity coefficient of heptan-1-ol	uncertainty
298	101.3	0	5.33	0.36
