Measured thermophysical data. Experimental Determination of the Solubility of Thiophene in Carbon Dioxide and in Carbon Dioxide + Ethanol
Source: J. Chem. Eng. Data, 2005, 10.1021/je050097a
Compound 1: thiophene, C4H4S, InChI=1S/C4H4S/c1-2-4-5-3-1/h1-4H
Compound 2: carbon dioxide, CO2, InChI=1S/CO2/c2-1-3
Compound 3: ethanol, C2H6O, InChI=1S/C2H6O/c1-2-3/h3H,2H2,1H3

System: thiophene + carbon dioxide; phases: Gas, Liquid
Property: Mole fraction of thiophene (Gas); method: Chromatography
Temperature, K	Pressure, kPa	Mole fraction of thiophene	uncertainty
314.53	2049	0.0148	0.0003
314.53	3047	0.0098	0.0002
314.53	4058	0.0085	0.0002
314.53	4969	0.0085	0.0002
314.53	6013	0.0098	0.0002
314.53	6387	0.0102	0.0002
314.53	7142	0.0113	0.0003
314.53	7662	0.0122	0.0004
314.53	8112	0.0152	0.0005
334.12	3033	0.0192	0.0005
334.12	3998	0.0161	0.0004
334.12	5027	0.0155	0.0003
334.12	5964	0.016	0.0004
334.12	7289	0.0183	0.0004
334.12	8423	0.0225	0.0006
334.12	9584	0.0317	0.0013
334.12	10024	0.0493	0.0034
363.55	3055	0.0473	0.0011
363.55	4024	0.037	0.0008
363.55	5027	0.0343	0.0008
363.55	5993	0.0336	0.0007
363.55	7074	0.0346	0.0008
363.55	7996	0.0361	0.0008
363.55	8850	0.0385	0.0009
363.55	9357	0.0404	0.0009
363.55	9915	0.0431	0.0011
363.55	11050	0.0507	0.0013
363.55	11696	0.058	0.0019
363.55	12173	0.0672	0.0036
363.55	12732	0.0922	0.0067
363.55	12990	0.121	0.0119

System: ethanol + thiophene + carbon dioxide; phases: Gas, Liquid
Property: Mole fraction of thiophene (Gas); method: Chromatography
Temperature, K	Pressure, kPa	Mole fraction of carbon dioxide	Mole fraction of thiophene	uncertainty
333.9	2527	0.9714	0.0232	0.0005
333.9	3001	0.9748	0.0205	0.016
333.9	3899	0.9789	0.0173	0.0159
333.9	5035	0.9802	0.0164	0.0162
333.9	6048	0.9794	0.0173	0.0164
333.9	7081	0.9776	0.0191	0.0191
333.9	7744	0.9763	0.0211	0.0211
333.9	8392	0.9733	0.0234	0.0138
363.17	2450	0.89	0.1043	0.0023
363.17	3995	0.929	0.0645	0.0163
363.17	5455	0.9531	0.0397	0.0082
363.17	7002	0.9571	0.0353	0.0075
363.17	8105	0.9551	0.0365	0.023
363.17	9059	0.9531	0.0381	0.0381
363.17	10038	0.9458	0.0439	0.0114
363.17	11028	0.937	0.0507	0.0093
363.17	11385	0.9333	0.0536	0.0093
363.29	2034	0.9328	0.0667	0.017
363.29	3548	0.9506	0.0473	0.0163
363.29	5131	0.959	0.0399	0.0014
363.29	7039	0.9597	0.0372	0.0076
363.29	8027	0.9575	0.039	0.0214
363.29	8854	0.9554	0.0408	0.0306
363.29	9764	0.9515	0.0442	0.0109
363.29	10792	0.9441	0.0508	0.0073

System: ethanol + thiophene + carbon dioxide; phases: Liquid, Gas
Property: Mole fraction of carbon dioxide (Liquid); method: Chromatography
Property: Mole fraction of carbon dioxide (Gas); method: Chromatography
Property: Mole fraction of thiophene (Gas); method: Chromatography
Temperature, K	Pressure, kPa	Mole fraction of thiophene	Mole fraction of carbon dioxide	uncertainty	Mole fraction of carbon dioxide	uncertainty	Mole fraction of thiophene	uncertainty
333.84	2009	0.7432	0.1329	0.0028	0.9641	0.0193	0.0307	
333.84	3172	0.6709	0.2153	0.0046	0.9712	0.0194	0.0207	
333.84	4834	0.55	0.3465	0.0074	0.9751	0.0195	0.0175	
333.84	6090	0.4486	0.4645	0.0099	0.975	0.0195	0.0179	
333.84	7125	0.3591	0.571	0.0118	0.9734	0.0195	0.0194	
333.84	8147	0.2689	0.6785	0.0138	0.9712	0.0194	0.0215	
334.3	2056	0.7208	0.1392	0.003	0.9644	0.0193	0.0249	
334.3	3024	0.6523	0.2162	0.0046	0.9718	0.0194	0.02	
334.3	4037	0.584	0.2967	0.0063	0.9748	0.0195	0.0181	
334.3	5002	0.5084	0.3843	0.0082	0.9756	0.0195	0.0178	
334.3	5639	0.4976	0.4382	0.0093	0.9767	0.0195	0.0182	
334.3	6347	0.3861	0.5279	0.0111	0.9758	0.0195	0.0182	
334.3	6801	0.3605	0.5734	0.0119	0.9752	0.0195	0.0191	
334.3	7410	0.2941	0.6382	0.013	0.9639	0.0193	0.0285	
363.64	1852	0.8797	0.1092	0.0023	0.9206	0.0184	0.0754	
363.64	4795	0.7363	0.2388	0.0051	0.9528	0.0191	0.0419	
363.64	6238	0.6217	0.3458	0.0074	0.9559	0.0191	0.0383	
363.64	7700	0.509	0.4516	0.0096	0.9545	0.0191	0.0386	
363.64	9003	0.3926	0.553	0.0115	0.9474	0.019	0.0424	
