Measured thermophysical data. Solubility of N2O in and Density, Viscosity, and Surface Tension of Aqueous Piperazine Solutions
Source: J. Chem. Eng. Data, 2005, 10.1021/je050202g
Compound 1: nitrous oxide, N2O, InChI=1S/N2O/c1-2-3
Compound 2: water, H2O, InChI=1S/H2O/h1H2
Compound 3: piperazine, C4H10N2, InChI=1S/C4H10N2/c1-2-6-4-3-5-1/h5-6H,1-4H2

System: water; phases: Liquid, Air at 1 atmosphere
Property: Surface tension liquid-gas, N/m (Liquid); method: OTHER::sMethod:Wilhelmy Plate method
Temperature, K	Surface tension liquid-gas, N/m	uncertainty
293.15	0.0727	0.0022
313.15	0.0698	0.0021

System: water + nitrous oxide; phases: Liquid, Gas
Fixed: Mole fraction of nitrous oxide = 0
Property: Amount concentration (molarity), mol/dm3 of nitrous oxide (Liquid); method: Phase equilibration
Temperature, K	Amount concentration (molarity), mol/dm3 of nitrous oxide	uncertainty
293.15	0.674	0.067
298.15	0.592	0.059
303.15	0.524	0.052
313.15	0.428	0.043
323.15	0.366	0.037

System: piperazine + water; phases: Liquid, Air at 1 atmosphere
Property: Surface tension liquid-gas, N/m (Liquid); method: Wilhelmy Plate method
Temperature, K	Mass fraction of piperazine	Surface tension liquid-gas, N/m	uncertainty
293.15	0	0.0727	0.0022
293.15	0.043	0.0717	0.0021
293.15	0.086	0.0701	0.002
293.15	0.129	0.0693	0.0019
313.15	0	0.0698	0.0021
313.15	0.043	0.0685	0.002
313.15	0.086	0.0678	0.0019
313.15	0.129	0.0676	0.0019

System: piperazine + water; phases: Liquid
Fixed: Pressure, kPa = 101.3
Property: Viscosity, Pa*s (Liquid); method: Capillary tube (Ostwald; Ubbelohde) method
Temperature, K	Amount concentration (molarity), mol/dm3 of piperazine	Viscosity, Pa*s	uncertainty
293.15	0.623	0.00126	4e-05
293.15	1.006	0.00152	5e-05
293.15	1.49	0.00187	6e-05
298.15	0.623	0.00111	4e-05
298.15	1.006	0.00131	4e-05
298.15	1.49	0.00162	5e-05
298.15	1.686	0.0018	6e-05
303.15	0.623	0.00098	3e-05
303.15	1.006	0.00115	4e-05
303.15	1.49	0.0014	4e-05
303.15	1.686	0.00156	5e-05
313.15	0.623	0.00079	3e-05
313.15	1.006	0.00092	3e-05
313.15	1.49	0.00109	3e-05
313.15	1.686	0.0012	4e-05
323.15	0.623	0.00065	2e-05
323.15	1.006	0.00075	2e-05
323.15	1.49	0.00088	3e-05
323.15	1.686	0.00096	3e-05

System: piperazine + water; phases: Liquid
Fixed: Pressure, kPa = 101.3
Property: Mass density, kg/m3 (Liquid); method: VIBTUB:UFactor:6
Temperature, K	Amount concentration (molarity), mol/dm3 of piperazine	Mass density, kg/m3	uncertainty
293.15	0.623	1000.46	2.53
293.15	1.006	1002.49	2.48
293.15	1.49	1005.4	2.41
298.15	0.623	999.37	2.53
298.15	1.006	1001.3	2.47
298.15	1.49	1004.11	2.41
298.15	1.686	1005.39	2.38
303.15	0.623	997.94	2.53
303.15	1.006	999.79	2.47
303.15	1.49	1002.47	2.4
303.15	1.686	1003.66	2.38
313.15	0.623	994.25	2.52
313.15	1.006	996.03	2.46
313.15	1.49	998.49	2.39
313.15	1.686	999.49	2.37
323.15	0.623	989.76	2.51
323.15	1.006	991.53	2.45
323.15	1.49	993.86	2.38
323.15	1.686	994.74	2.36

System: piperazine + water + nitrous oxide; phases: Liquid, Gas
Fixed: Mole fraction of nitrous oxide = 0
Property: Mole fraction of nitrous oxide (Liquid); method: Phase equilibration
Temperature, K	Solvent: Amount concentration (molarity), mol/dm3 of piperazine	Mole fraction of nitrous oxide	uncertainty
293.15	0.219	0.678	0.068
293.15	0.589	0.669	0.067
293.15	0.835	0.674	0.067
293.15	0.97	0.662	0.066
293.15	1.365	0.637	0.064
293.15	1.472	0.637	0.064
298.15	0.219	0.59	0.059
298.15	0.589	0.588	0.059
298.15	0.835	0.591	0.059
298.15	0.97	0.584	0.059
298.15	1.365	0.565	0.057
298.15	1.472	0.564	0.057
298.15	1.799	0.55	0.055
303.15	0.219	0.529	0.053
303.15	0.589	0.522	0.052
303.15	0.835	0.525	0.053
303.15	0.97	0.52	0.052
303.15	1.365	0.501	0.05
303.15	1.472	0.505	0.051
303.15	1.799	0.492	0.049
313.15	0.219	0.423	0.042
313.15	0.589	0.424	0.042
313.15	0.835	0.425	0.043
313.15	0.97	0.424	0.042
313.15	1.365	0.41	0.041
313.15	1.472	0.417	0.042
313.15	1.799	0.409	0.041
323.15	0.219	0.354	0.035
323.15	0.589	0.358	0.036
323.15	0.835	0.355	0.036
323.15	0.97	0.358	0.036
323.15	1.365	0.35	0.035
323.15	1.472	0.355	0.036
323.15	1.799	0.351	0.035
