Measured thermophysical data. Phase Behavior of Binary and Ternary Systems Involving Carbon Dioxide, Propane, and Glycidyl Methacrylate at High Pressure
Source: J. Chem. Eng. Data, 2006, 10.1021/je050453p
Compound 1: carbon dioxide, CO2, InChI=1S/CO2/c2-1-3, purity 99.9%
Compound 2: propane, C3H8, InChI=1S/C3H8/c1-3-2/h3H2,1-2H3, purity 99.5%
Compound 3: methacrylic acid, 2,3-epoxypropyl ester, C7H10O3, InChI=1S/C7H10O3/c1-5(2)7(8)10-4-6-3-9-6/h6H,1,3-4H2,2H3, purity 97%

System: methacrylic acid, 2,3-epoxypropyl ester + carbon dioxide; phases: Gas, Liquid
Fixed: Mole fraction of carbon dioxide = 0.984
Property: Vapor or sublimation pressure, kPa (Gas); method: Closed cell (Static) method
Temperature, K	Vapor or sublimation pressure, kPa	uncertainty
323	9650	160
333	11170	150
343	12510	140

System: methacrylic acid, 2,3-epoxypropyl ester + carbon dioxide; phases: Liquid, Gas
Property: Vapor or sublimation pressure, kPa (Liquid); method: Closed cell (Static) method
Temperature, K	Mole fraction of carbon dioxide	Vapor or sublimation pressure, kPa	uncertainty
303	0.262	2020	90
303	0.519	4110	110
303	0.609	4660	120
303	0.764	5730	150
303	0.882	6330	160
303	0.948	6460	150
303	0.984	6740	170
313	0.262	2310	110
313	0.519	4810	120
313	0.609	5580	130
313	0.764	6940	160
313	0.882	7750	170
313	0.948	7990	170
313	0.984	8250	190
323	0.262	2610	120
323	0.519	5540	140
323	0.609	6580	160
323	0.764	8300	180
323	0.882	9360	190
323	0.948	9670	180
333	0.262	2930	140
333	0.519	6380	160
333	0.609	7630	180
333	0.764	9710	200
333	0.882	11090	210
333	0.948	11430	180
343	0.262	3260	160
343	0.519	7240	190
343	0.609	8730	200
343	0.764	11240	210
343	0.882	12900	190
343	0.948	13100	180

System: propane + methacrylic acid, 2,3-epoxypropyl ester; phases: Liquid, Gas
Property: Vapor or sublimation pressure, kPa (Liquid); method: Closed cell (Static) method
Temperature, K	Mole fraction of propane	Vapor or sublimation pressure, kPa	uncertainty
313	0.764	1320	40
313	0.829	1360	40
313	0.883	1280	40
313	0.928	1270	40
313	0.98	1320	40
323	0.764	1590	40
323	0.829	1670	40
323	0.883	1590	40
323	0.928	1570	40
323	0.98	1630	40
333	0.764	1920	40
333	0.829	1990	40
333	0.883	1920	40
333	0.928	1910	40
333	0.98	1970	50
343	0.764	2250	40
343	0.829	2340	40
343	0.883	2260	50
343	0.928	2290	50
343	0.98	2380	50

System: propane + methacrylic acid, 2,3-epoxypropyl ester + carbon dioxide; phases: Liquid, Gas
Property: Vapor or sublimation pressure, kPa (Liquid); method: Closed cell (Static) method
Temperature, K	Mole fraction of carbon dioxide	Mole fraction of propane	Vapor or sublimation pressure, kPa	uncertainty
303	0.136	0.136	1810	70
303	0.29	0.29	2690	80
303	0.381	0.381	3150	100
303	0.441	0.441	3580	110
303	0.46	0.46	3730	140
303	0.474	0.474	3900	240
303	0.483	0.483	4100	240
303	0.492	0.492	4190	130
303	0.495	0.495	4270	160
313	0.136	0.136	2000	90
313	0.29	0.29	3220	90
313	0.381	0.381	3800	110
313	0.441	0.441	4320	100
313	0.46	0.46	4440	150
313	0.474	0.474	4630	240
313	0.483	0.483	4860	280
313	0.492	0.492	4970	150
313	0.495	0.495	5050	170
323	0.136	0.136	2220	100
323	0.29	0.29	3740	110
323	0.381	0.381	4540	120
323	0.441	0.441	5090	90
323	0.46	0.46	5170	190
323	0.474	0.474	5440	260
323	0.483	0.483	5660	250
323	0.492	0.492	5760	130
323	0.495	0.495	5820	140
333	0.136	0.136	2420	130
333	0.29	0.29	4420	120
333	0.381	0.381	5310	130
333	0.441	0.441	5920	100
333	0.46	0.46	6010	180
333	0.474	0.474	6240	220
333	0.483	0.483	6440	240
333	0.492	0.492	6510	110
333	0.495	0.495	6490	90
343	0.136	0.136	2630	160
343	0.29	0.29	5080	140
343	0.381	0.381	6180	140
343	0.441	0.441	6800	110
343	0.46	0.46	6900	170
343	0.474	0.474	7100	170
343	0.483	0.483	7230	170

System: propane + methacrylic acid, 2,3-epoxypropyl ester + carbon dioxide; phases: Gas, Liquid
Property: Vapor or sublimation pressure, kPa (Gas); method: Closed cell (Static) method
Temperature, K	Mole fraction of carbon dioxide	Mole fraction of propane	Vapor or sublimation pressure, kPa	uncertainty
343	0.492	0.492	7100	360
