Measured thermophysical data. Thermal Conductivity of Gaseous Dimethyl Ether from (263 to 383) K
Source: J. Chem. Eng. Data, 2006, 10.1021/je050305z
Compound 1: dimethyl ether, C2H6O, InChI=1S/C2H6O/c1-3-2/h1-2H3, purity 99.95%
Compound 2: nitrogen, N2, InChI=1S/N2/c1-2, purity 99.9995%

System: dimethyl ether; phases: Gas
Property: Thermal conductivity, W/m/K (Gas); method: Hot wire method
Temperature, K	Pressure, kPa	Thermal conductivity, W/m/K	uncertainty
266.62	148.1	0.01348	0.00034
267.77	148.1	0.01359	0.00035
268.94	148.1	0.01363	0.00035
276.2	155.8	0.01468	0.00037
276.2	207.5	0.01475	0.00037
277.09	207.5	0.01483	0.00037
277.12	155.8	0.01476	0.00037
278.14	155.8	0.01482	0.00037
278.17	207.5	0.01489	0.00038
285.91	253.2	0.01594	0.0004
286.05	144.6	0.01592	0.0004
286.67	253.2	0.016	0.0004
286.89	144.6	0.01605	0.0004
287.68	253.2	0.01614	0.0004
287.99	144.6	0.01606	0.0004
295.96	253.2	0.01725	0.00043
296.02	352.9	0.01726	0.00043
296.03	154.5	0.01715	0.00043
296.69	352.9	0.01736	0.00043
296.76	253.2	0.01733	0.00043
296.8	154.5	0.01728	0.00043
297.39	352.9	0.0174	0.00043
297.64	253.2	0.01739	0.00043
297.76	154.5	0.01734	0.00043
305.64	155.2	0.01827	0.00045
305.64	502.4	0.01848	0.00046
305.8	352.8	0.01842	0.00045
306.69	155.2	0.01839	0.00045
306.69	502.4	0.01861	0.00046
306.8	352.8	0.01854	0.00046
307.53	155.2	0.01852	0.00046
307.53	502.4	0.01872	0.00046
307.82	352.8	0.01861	0.00046
315.68	496.3	0.01958	0.00048
315.77	348.9	0.01952	0.00048
316.05	153.9	0.01955	0.00048
316.35	700.4	0.02006	0.00049
316.55	496.3	0.01971	0.00048
316.56	700.4	0.01992	0.00049
316.75	348.9	0.01967	0.00048
317.06	153.9	0.01957	0.00048
317.2	700.4	0.01999	0.00049
317.63	496.3	0.01983	0.00049
317.81	348.9	0.01977	0.00049
318.26	153.9	0.01971	0.00048
325.16	1120.2	0.02135	0.00052
325.31	883.7	0.02119	0.00052
325.41	701.6	0.02104	0.00051
325.53	500.8	0.02091	0.00051
325.64	348	0.0208	0.00051
325.83	151.5	0.02082	0.00051
325.88	1120.2	0.02135	0.00052
326.11	883.7	0.02133	0.00052
326.2	701.6	0.02113	0.00052
326.36	500.8	0.021	0.00051
326.53	348	0.02093	0.00051
326.73	1120.2	0.02156	0.00053
326.79	151.5	0.02087	0.00051
326.99	883.7	0.02145	0.00052
327.16	701.6	0.02125	0.00052
327.38	500.8	0.02116	0.00052
327.53	348	0.02098	0.00051
327.88	151.5	0.02094	0.00051
335.18	1196.9	0.02256	0.00055
335.35	898.7	0.02238	0.00054
335.43	705.2	0.02212	0.00054
335.48	353.4	0.02197	0.00053
335.54	505.2	0.02204	0.00054
335.66	152.2	0.02198	0.00053
335.88	1196.9	0.02272	0.00055
336.11	898.7	0.02244	0.00055
336.23	705.2	0.02226	0.00054
336.32	353.4	0.02209	0.00054
336.37	505.2	0.02217	0.00054
336.45	1196.9	0.0228	0.00055
336.55	152.2	0.02211	0.00054
336.74	898.7	0.0225	0.00055
336.91	705.2	0.02231	0.00054
337.06	505.2	0.02229	0.00054
337.25	353.4	0.02223	0.00054
337.54	152.2	0.02207	0.00054
345.11	1503.9	0.02418	0.00059
345.23	1200.4	0.0239	0.00058
345.35	897.3	0.02352	0.00057
345.47	700	0.02344	0.00057
345.57	502.5	0.02341	0.00057
345.59	1503.9	0.02427	0.00059
345.67	352.7	0.02338	0.00057
345.74	1200.4	0.02399	0.00058
345.88	154.3	0.02322	0.00056
345.9	897.3	0.02363	0.00057
346.03	700	0.0235	0.00057
346.12	1503.9	0.0244	0.00059
346.15	502.5	0.02351	0.00057
346.26	352.7	0.0234	0.00057
346.29	1200.4	0.02408	0.00058
346.49	897.3	0.02372	0.00057
346.52	154.3	0.02324	0.00056
346.64	700	0.02364	0.00057
346.82	502.5	0.02361	0.00057
346.93	352.7	0.0235	0.00057
347.27	154.3	0.02327	0.00056
354.82	2226	0.02637	0.00064
355.11	1777.8	0.02567	0.00062
355.2	1497.3	0.02536	0.00061
355.22	2226	0.02653	0.00064
355.33	1194.9	0.02506	0.0006
355.47	872.5	0.02483	0.0006
355.55	701.6	0.02472	0.0006
355.58	1777.8	0.02592	0.00062
355.64	504.3	0.02468	0.0006
355.66	2226	0.02632	0.00063
355.69	1497.3	0.02553	0.00062
355.74	356.1	0.02462	0.00059
355.82	1194.9	0.02508	0.00061
355.89	156.1	0.02441	0.00059
355.97	872.5	0.02489	0.0006
356.09	1777.8	0.02597	0.00063
356.1	701.6	0.02489	0.0006
356.2	504.3	0.02488	0.0006
356.21	1497.3	0.02554	0.00062
356.31	356.1	0.02481	0.0006
356.38	1194.9	0.02516	0.00061
356.52	156.1	0.02447	0.00059
356.57	872.5	0.02502	0.0006
356.72	701.6	0.0249	0.0006
356.86	504.3	0.02485	0.0006
356.98	356.1	0.02475	0.0006
357.23	156.1	0.02456	0.00059
364.94	2198.1	0.02782	0.00067
365.09	1801.9	0.02689	0.00065
365.2	1500.1	0.0265	0.00064
365.3	1202	0.02622	0.00063
365.42	906.2	0.02606	0.00063
365.51	697.2	0.02598	0.00063
365.51	2198.1	0.02789	0.00067
365.59	481.6	0.026	0.00063
365.68	346.3	0.02589	0.00062
365.7	1801.9	0.0271	0.00065
365.81	1500.1	0.02669	0.00064
365.86	156.4	0.02596	0.00062
365.94	1202	0.02635	0.00063
365.99	2198.1	0.02796	0.00067
366.1	906.2	0.02615	0.00063
366.2	697.2	0.02609	0.00063
366.23	1801.9	0.02723	0.00065
366.31	481.6	0.02599	0.00063
366.35	1500.1	0.02675	0.00064
366.42	346.3	0.02597	0.00062
366.52	1202	0.02642	0.00064
366.66	156.4	0.02591	0.00062
366.7	906.2	0.02622	0.00063
366.82	697.2	0.02608	0.00063
366.96	481.6	0.02612	0.00063
367.09	346.3	0.02604	0.00063
367.38	156.4	0.02597	0.00062
374.95	2704.4	0.03029	0.00072
375.17	2197.8	0.02893	0.00069
375.29	1766.8	0.02826	0.00068
375.36	1499.6	0.02784	0.00067
375.46	892.8	0.02733	0.00066
375.49	1198.6	0.02756	0.00066
375.49	2704.4	0.03041	0.00073
375.54	707.6	0.02738	0.00066
375.63	507.4	0.02734	0.00066
375.72	354	0.02727	0.00065
375.76	2197.8	0.0291	0.0007
375.9	152.4	0.02713	0.00065
375.92	1766.8	0.02831	0.00068
375.95	2704.4	0.03051	0.00073
375.97	1499.6	0.02793	0.00067
376.14	892.8	0.02756	0.00066
376.17	1198.6	0.0277	0.00066
376.22	707.6	0.02749	0.00066
376.28	2197.8	0.02917	0.0007
376.35	507.4	0.02737	0.00066
376.45	354	0.02739	0.00066
376.46	1766.8	0.02837	0.00068
376.56	1499.6	0.02791	0.00067
376.68	152.4	0.02726	0.00065
376.72	892.8	0.02758	0.00066
376.75	1198.6	0.02773	0.00067
376.81	707.6	0.02751	0.00066
376.96	507.4	0.0274	0.00066
377.08	354	0.02742	0.00066
377.4	152.4	0.0273	0.00065
384.94	3297.7	0.03329	0.00079
385.16	2700.7	0.03115	0.00074
385.35	2197	0.02995	0.00072
385.44	3297.7	0.03354	0.0008
385.48	1805.7	0.02946	0.0007
385.56	1500.6	0.02919	0.0007
385.66	1201.3	0.02897	0.00069
385.74	2700.7	0.03126	0.00075
385.77	899.9	0.02885	0.00069
385.93	503.9	0.02857	0.00068
385.95	703	0.0288	0.00069
385.98	2197	0.0301	0.00072
386	3297.7	0.03358	0.0008
386.01	355.6	0.02861	0.00068
386.13	1805.7	0.02959	0.00071
386.2	156.6	0.02852	0.00068
386.22	1500.6	0.02926	0.0007
386.33	1201.3	0.02917	0.0007
386.38	2700.7	0.03136	0.00075
386.48	899.9	0.02895	0.00069
386.5	2197	0.03017	0.00072
386.6	703	0.02886	0.00069
386.65	503.9	0.02873	0.00069
386.65	1805.7	0.02964	0.00071
386.74	1500.6	0.02936	0.0007
386.79	355.6	0.02867	0.00069
386.93	1201.3	0.02916	0.0007
387.03	156.6	0.02858	0.00068
387.08	899.9	0.02903	0.00069
387.21	703	0.02901	0.00069
387.32	503.9	0.02881	0.00069
387.44	355.6	0.02881	0.00069
387.74	156.6	0.02859	0.00068

System: nitrogen; phases: Gas
Property: Thermal conductivity, W/m/K (Gas); method: Hot wire method
Temperature, K	Pressure, kPa	Thermal conductivity, W/m/K	uncertainty
235.41	3405.4	0.02334	0.00057
235.72	3405.4	0.02333	0.00057
255.55	5432.8	0.026	0.00063
255.7	1281.1	0.02332	0.00057
255.86	5432.8	0.02596	0.00063
256.26	1281.1	0.02323	0.00056
275.39	5057.3	0.02674	0.00065
275.41	1027.7	0.02441	0.00059
276.05	5057.3	0.0269	0.00065
276.11	1027.7	0.02435	0.00059
295.15	1844.1	0.02606	0.00063
295.25	4380.8	0.02731	0.00066
295.68	1844.1	0.02599	0.00063
295.92	4380.8	0.02738	0.00066
325.32	716	0.02758	0.00066
325.43	2042.9	0.02842	0.00068
326.2	2042.9	0.02845	0.00068
326.23	4941.8	0.02961	0.00071
326.39	716	0.02763	0.00066
