Measured thermophysical data. Determination and Study of the Solubility of Methane in Mixtures of Methanol plus Various Hydrocarbons at High Pressures
Source: J. Chem. Eng. Data, 2006, 10.1021/je050517w
Compound 1: methane, CH4, InChI=1S/CH4/h1H4, purity 99.9%
Compound 2: hexane, C6H14, InChI=1S/C6H14/c1-3-5-6-4-2/h3-6H2,1-2H3, purity 99.5%
Compound 3: methanol, CH4O, InChI=1S/CH4O/c1-2/h2H,1H3, purity 99.5%
Compound 4: heptane, C7H16, InChI=1S/C7H16/c1-3-5-7-6-4-2/h3-7H2,1-2H3, purity 99.5%
Compound 5: cyclohexane, C6H12, InChI=1S/C6H12/c1-2-4-6-5-3-1/h1-6H2, purity 99.5%
Compound 6: benzene, C6H6, InChI=1S/C6H6/c1-2-4-6-5-3-1/h1-6H, purity 99.5%
Compound 7: toluene, C7H8, InChI=1S/C7H8/c1-7-5-3-2-4-6-7/h2-6H,1H3, purity 99.5%

System: methanol + methane + hexane; phases: Liquid, Gas
Fixed: Temperature, K = 303.15
Property: Molar volume, m3/mol (Liquid); method: Piezometer
Mole fraction of methane	Mole fraction of methanol	Molar volume, m3/mol	uncertainty
0.0242	0.915	4.71e-05	1e-06
0.0589	0.883	4.72e-05	1e-06
0.0958	0.848	4.7e-05	1e-06
0.139	0.808	4.64e-05	1e-06

System: methanol + methane + hexane; phases: Liquid, Gas
Fixed: Temperature, K = 303.15
Property: Mole fraction of methane (Liquid); method: Liquid mass and gas volume for a depressurized sample
Pressure, kPa	Mole fraction of methanol	Mole fraction of methane	uncertainty
2000	0.915	0.0242	0.004
4990	0.883	0.0589	0.0042
8020	0.848	0.0958	0.0044
12020	0.808	0.139	0.004

System: methanol + methane + heptane; phases: Liquid, Gas
Fixed: Temperature, K = 303.15
Property: Molar volume, m3/mol (Liquid); method: Piezometer
Mole fraction of methane	Mole fraction of methanol	Molar volume, m3/mol	uncertainty
0.0225	0.926	4.73e-05	1e-06
0.0573	0.893	4.74e-05	1e-06
0.0911	0.861	4.71e-05	1e-06
0.135	0.819	4.72e-05	1e-06

System: methanol + methane + heptane; phases: Liquid, Gas
Fixed: Temperature, K = 303.15
Property: Mole fraction of methane (Liquid); method: Liquid mass and gas volume for a depressurized sample
Pressure, kPa	Mole fraction of methanol	Mole fraction of methane	uncertainty
1990	0.926	0.0225	0.004
5000	0.893	0.0573	0.0056
8000	0.861	0.0911	0.004
12000	0.819	0.135	0.004

System: methanol + methane + cyclohexane; phases: Liquid, Gas
Fixed: Temperature, K = 303.15
Property: Molar volume, m3/mol (Liquid); method: piezometer
Mole fraction of methane	Mole fraction of methanol	Molar volume, m3/mol	uncertainty
0.0212	0.917	4.57e-05	1e-06
0.0507	0.889	4.55e-05	1e-06
0.083	0.859	4.51e-05	1e-06
0.125	0.82	4.53e-05	1e-06

System: methanol + methane + cyclohexane; phases: Liquid, Gas
Fixed: Temperature, K = 303.15
Property: Mole fraction of methane (Liquid); method: Liquid mass and gas volume for a depressurized sample
Pressure, kPa	Mole fraction of methanol	Mole fraction of methane	uncertainty
2000	0.917	0.0212	0.004
4990	0.889	0.0507	0.0069
7990	0.859	0.083	0.004
11990	0.82	0.125	0.004

System: methanol + benzene + methane; phases: Liquid, Gas
Property: Molar volume, m3/mol (Liquid); method: piezometer
Temperature, K	Mole fraction of methane	Mole fraction of methanol	Molar volume, m3/mol	uncertainty
288.15	0.0207	0.913	4.59e-05	1e-06
288.15	0.0354	0.29	7.51e-05	1e-06
288.15	0.0491	0.886	4.53e-05	1e-06
288.15	0.0754	0.862	4.47e-05	1e-06
288.15	0.088	0.275	7.33e-05	1e-06
288.15	0.112	0.828	4.48e-05	1e-06
288.15	0.141	0.259	7.17e-05	1e-06
288.15	0.208	0.238	6.89e-05	1e-06
303.15	0.018	0.915	4.44e-05	1e-06
303.15	0.0339	0.291	7.51e-05	1e-06
303.15	0.0474	0.888	4.49e-05	1e-06
303.15	0.0741	0.863	4.49e-05	1e-06
303.15	0.0848	0.275	7.41e-05	1e-06
303.15	0.11	0.829	4.4e-05	1e-06
303.15	0.137	0.26	7.25e-05	1e-06
303.15	0.202	0.24	6.99e-05	1e-06

System: methanol + benzene + methane; phases: Liquid, Gas
Property: Mole fraction of methane (Liquid); method: Liquid mass and gas volume for a depressurized sample
Temperature, K	Pressure, kPa	Mole fraction of methanol	Mole fraction of methane	uncertainty
288.15	1990	0.29	0.0354	0.004
288.15	2010	0.913	0.0207	0.004
288.15	4990	0.275	0.088	0.004
288.15	5000	0.886	0.0491	0.004
288.15	7990	0.259	0.141	0.004
288.15	8000	0.862	0.0754	0.004
288.15	11990	0.238	0.208	0.004
288.15	12010	0.828	0.112	0.004
303.15	2000	0.291	0.0339	0.004
303.15	2010	0.915	0.018	0.004
303.15	5000	0.275	0.0848	0.004
303.15	5000	0.888	0.0474	0.004
303.15	7990	0.863	0.0741	0.004
303.15	8000	0.26	0.137	0.004
303.15	11990	0.829	0.11	0.004
303.15	12000	0.24	0.202	0.004

System: methanol + methane + toluene; phases: Liquid, Gas
Property: Molar volume, m3/mol (Liquid); method: piezometer
Temperature, K	Mole fraction of methane	Mole fraction of methanol	Molar volume, m3/mol	uncertainty
288.15	0.0198	0.923	4.48e-05	1e-06
288.15	0.0395	0.324	8.4e-05	1e-06
288.15	0.0464	0.898	4.51e-05	1e-06
288.15	0.0732	0.873	4.48e-05	1e-06
288.15	0.0913	0.306	8.17e-05	1e-06
288.15	0.108	0.84	4.47e-05	1e-06
288.15	0.142	0.289	7.93e-05	1e-06
288.15	0.213	0.265	7.65e-05	1e-06
303.15	0.0179	0.925	4.5e-05	1e-06
303.15	0.039	0.324	8.41e-05	1e-06
303.15	0.0449	0.9	4.48e-05	1e-06
303.15	0.071	0.875	4.48e-05	1e-06
303.15	0.0905	0.307	8.22e-05	1e-06
303.15	0.106	0.842	4.49e-05	1e-06
303.15	0.141	0.289	8.1e-05	1e-06
303.15	0.211	0.266	7.64e-05	1e-06

System: methanol + methane + toluene; phases: Liquid, Gas
Property: Mole fraction of methane (Liquid); method: Liquid mass and gas volume for a depressurized sample
Temperature, K	Pressure, kPa	Mole fraction of methanol	Mole fraction of methane	uncertainty
288.15	2000	0.324	0.0395	0.004
288.15	2010	0.923	0.0198	0.004
288.15	4990	0.306	0.0913	0.004
288.15	5010	0.898	0.0464	0.004
288.15	8000	0.289	0.142	0.004
288.15	8000	0.873	0.0732	0.004
288.15	12000	0.265	0.213	0.004
288.15	12000	0.84	0.108	0.004
303.15	2000	0.324	0.039	0.004
303.15	2000	0.925	0.0179	0.004
303.15	5000	0.307	0.0905	0.004
303.15	5010	0.9	0.0449	0.004
303.15	7990	0.875	0.071	0.004
303.15	8000	0.289	0.141	0.004
303.15	12000	0.842	0.106	0.004
303.15	12010	0.266	0.211	0.004
