Measured thermophysical data. Vapor-Liquid Equilibria and Excess Properties of the Binary System Vinyl Acetate + p-Xylene
Source: J. Chem. Eng. Data, 2005, 10.1021/je050162g
Compound 1: vinyl acetate, C4H6O2, InChI=1S/C4H6O2/c1-3-6-4(2)5/h3H,1H2,2H3
Compound 2: 1,4-dimethylbenzene, C8H10, InChI=1S/C8H10/c1-7-3-5-8(2)6-4-7/h3-6H,1-2H3

System: vinyl acetate; phases: Liquid, Gas
Property: Vapor or sublimation pressure, kPa (Liquid); method: EBULLIO:UFactor:16
Temperature, K	Vapor or sublimation pressure, kPa	uncertainty
344.68	97.3	3

System: vinyl acetate; phases: Liquid
Fixed: Pressure, kPa = 101.325
Property: Mass density, kg/m3 (Liquid); method: Pycnometric method
Temperature, K	Mass density, kg/m3	uncertainty
303.15	918	6.8
308.15	904.2	6.7
313.15	891.8	6.7

System: vinyl acetate; phases: Liquid
Fixed: Pressure, kPa = 101
Property: Viscosity, Pa*s (Liquid); method: Capillary tube (Ostwald; Ubbelohde) method
Temperature, K	Viscosity, Pa*s	uncertainty
303.15	0.000384	1.2e-05
308.15	0.000361	1.1e-05
313.15	0.000332	1.1e-05

System: vinyl acetate; phases: Liquid
Fixed: Pressure, kPa = 101
Property: Speed of sound, m/s (Liquid); method: Linear variable-path acoustic interferometer
Temperature, K	Speed of sound, m/s	uncertainty
303.15	1095.9	5.2
308.15	1072.5	5.1
313.15	1055.7	5.1

System: 1,4-dimethylbenzene; phases: Liquid, Gas
Property: Vapor or sublimation pressure, kPa (Liquid); method: EBULLIO:UFactor:16
Temperature, K	Vapor or sublimation pressure, kPa	uncertainty
410	97.3	3

System: 1,4-dimethylbenzene; phases: Liquid
Fixed: Pressure, kPa = 101.325
Property: Mass density, kg/m3 (Liquid); method: Pycnometric method
Temperature, K	Mass density, kg/m3	uncertainty
303.15	852.3	2.3
308.15	847.9	2.3
313.15	843.6	2.3

System: 1,4-dimethylbenzene; phases: Liquid
Fixed: Pressure, kPa = 101
Property: Viscosity, Pa*s (Liquid); method: Capillary tube (Ostwald; Ubbelohde) method
Temperature, K	Viscosity, Pa*s	uncertainty
303.15	0.000566	1.6e-05
308.15	0.000537	1.5e-05
313.15	0.000513	1.5e-05

System: 1,4-dimethylbenzene; phases: Liquid
Fixed: Pressure, kPa = 101
Property: Speed of sound, m/s (Liquid); method: Linear variable-path acoustic interferometer
Temperature, K	Speed of sound, m/s	uncertainty
303.15	1283.7	5.2
308.15	1271	5.2
313.15	1260	5.2

System: 1,4-dimethylbenzene + vinyl acetate; phases: Liquid, Gas
Fixed: Pressure, kPa = 97.3
Property: Boiling temperature at pressure P, K (Liquid); method: EBULLIO:UFactor:16
Mole fraction of vinyl acetate	Boiling temperature at pressure P, K	uncertainty
0	410	0.54
0.0496	391.55	0.55
0.0914	382.25	0.55
0.1096	379.05	0.54
0.1394	374.65	0.54
0.185	369.6	0.54
0.233	366.4	0.54
0.2954	362.85	0.54
0.312	361.95	0.54
0.439	357.75	0.54
0.5379	355.15	0.54
0.5948	354.2	0.54
0.6455	353.15	0.54
0.7635	351.35	0.54
0.845	349.8	0.54
0.9	348.7	0.54
0.925	347.8	0.54
0.955	346.9	0.54
0.985	345.6	0.54
1	344.68	0.54

System: 1,4-dimethylbenzene + vinyl acetate; phases: Gas, Liquid
Fixed: Pressure, kPa = 97.3
Property: Mole fraction of vinyl acetate (Gas); method: Index of refraction calibration data
Mole fraction of vinyl acetate	Mole fraction of vinyl acetate	uncertainty
0	0	0.0001
0.0496	0.4082	0.0135
0.0914	0.5688	0.0191
0.1096	0.6146	0.0184
0.1394	0.6741	0.017
0.185	0.7345	0.0151
0.233	0.7732	0.0138
0.2954	0.8112	0.0124
0.312	0.82	0.012
0.439	0.8694	0.01
0.5379	0.8977	0.0088
0.5948	0.9116	0.0083
0.6455	0.9228	0.0078
0.7635	0.9487	0.0069
0.845	0.9653	0.0065
0.9	0.9775	0.0062
0.925	0.9833	0.0061
0.955	0.9901	0.006
0.985	0.9967	0.0033
1	1	0.0001

System: 1,4-dimethylbenzene + vinyl acetate; phases: Liquid
Fixed: Pressure, kPa = 101
Property: Viscosity, Pa*s (Liquid); method: Capillary tube (Ostwald; Ubbelohde) method
Temperature, K	Mole fraction of 1,4-dimethylbenzene	Viscosity, Pa*s	uncertainty
303.15	0	0.000384	1.2e-05
303.15	0.0767	0.0004	1.2e-05
303.15	0.1577	0.000415	1.2e-05
303.15	0.2421	0.000428	1.3e-05
303.15	0.3332	0.00044	1.3e-05
303.15	0.43	0.000453	1.3e-05
303.15	0.5319	0.000469	1.4e-05
303.15	0.6371	0.000489	1.4e-05
303.15	0.7488	0.000512	1.5e-05
303.15	0.8654	0.000538	1.5e-05
303.15	1	0.000566	1.6e-05
308.15	0	0.000361	1.1e-05
308.15	0.0767	0.000367	1.1e-05
308.15	0.1577	0.000376	1.1e-05
308.15	0.2421	0.000387	1.2e-05
308.15	0.3332	0.000399	1.2e-05
308.15	0.43	0.000414	1.2e-05
308.15	0.5319	0.000432	1.3e-05
308.15	0.6371	0.000453	1.3e-05
308.15	0.7488	0.000478	1.4e-05
308.15	0.8654	0.000504	1.4e-05
308.15	1	0.000537	1.5e-05
313.15	0	0.000332	1.1e-05
313.15	0.0767	0.000333	1.1e-05
313.15	0.1577	0.000341	1.1e-05
313.15	0.2421	0.000352	1.1e-05
313.15	0.3332	0.000365	1.1e-05
313.15	0.43	0.00038	1.2e-05
313.15	0.5319	0.000399	1.2e-05
313.15	0.6371	0.000422	1.2e-05
313.15	0.7488	0.000447	1.3e-05
313.15	0.8654	0.000475	1.4e-05
313.15	1	0.000513	1.5e-05

System: 1,4-dimethylbenzene + vinyl acetate; phases: Liquid
Fixed: Pressure, kPa = 101
Property: Speed of sound, m/s (Liquid); method: Linear variable-path acoustic interferometer
Temperature, K	Mole fraction of 1,4-dimethylbenzene	Speed of sound, m/s	uncertainty
303.15	0	1095.9	5.2
303.15	0.0767	1108.1	5.2
303.15	0.1577	1122.6	5.2
303.15	0.2421	1138.8	5.2
303.15	0.3332	1156.6	5.2
303.15	0.43	1175.5	5.2
303.15	0.5319	1195.4	5.2
303.15	0.6371	1215.8	5.2
303.15	0.7488	1237.4	5.2
303.15	0.8654	1259.7	5.2
303.15	1	1283.7	5.2
308.15	0	1072.5	5.1
308.15	0.0767	1084.9	5.2
308.15	0.1577	1098.2	5.2
308.15	0.2421	1112.3	5.2
308.15	0.3332	1128	5.2
308.15	0.43	1145.6	5.2
308.15	0.5319	1165.3	5.2
308.15	0.6371	1187.3	5.2
308.15	0.7488	1211.9	5.2
308.15	0.8654	1238.6	5.2
308.15	1	1271	5.2
313.15	0	1055.7	5.1
313.15	0.0767	1067.7	5.1
313.15	0.1577	1080.6	5.2
313.15	0.2421	1094.7	5.2
313.15	0.3332	1110.6	5.2
313.15	0.43	1128.6	5.2
313.15	0.5319	1148.8	5.2
313.15	0.6371	1171	5.2
313.15	0.7488	1196.4	5.2
313.15	0.8654	1224.5	5.2
313.15	1	1260	5.2

System: 1,4-dimethylbenzene + vinyl acetate; phases: Liquid
Fixed: Pressure, kPa = 101
Property: Excess molar volume, m3/mol (Liquid); method: Direct dilatometry
Temperature, K	Mole fraction of 1,4-dimethylbenzene	Excess molar volume, m3/mol	uncertainty
303.15	0	0	6e-09
303.15	0.0767	-4.3e-08	6e-09
303.15	0.1577	-6.8e-08	6e-09
303.15	0.2421	-7.3e-08	6e-09
303.15	0.3332	-7.2e-08	7e-09
303.15	0.43	-6.1e-08	7e-09
303.15	0.5319	-5.1e-08	7e-09
303.15	0.6371	-2.7e-08	6e-09
303.15	0.7488	-4e-09	6e-09
303.15	0.8654	6e-09	6e-09
303.15	1	0	6e-09
308.15	0	0	6e-09
308.15	0.0767	2e-08	6e-09
308.15	0.1577	3.8e-08	6e-09
308.15	0.2421	5.7e-08	6e-09
308.15	0.3332	7.3e-08	6e-09
308.15	0.43	8.9e-08	6e-09
308.15	0.5319	9.6e-08	6e-09
308.15	0.6371	9.2e-08	6e-09
308.15	0.7488	7.6e-08	6e-09
308.15	0.8654	4.4e-08	6e-09
308.15	1	0	6e-09
313.15	0	0	6e-09
313.15	0.0767	4.2e-08	6e-09
313.15	0.1577	7.2e-08	6e-09
313.15	0.2421	9.8e-08	6e-09
313.15	0.3332	1.21e-07	6e-09
313.15	0.43	1.41e-07	6e-09
313.15	0.5319	1.48e-07	6e-09
313.15	0.6371	1.4e-07	6e-09
313.15	0.7488	1.13e-07	6e-09
313.15	0.8654	7.2e-08	6e-09
313.15	1	0	6e-09
