Measured thermophysical data. Vapor Pressure Characterization of Several Phenolics and Polyhydric Compounds by Knudsen Effusion Method
Source: J. Chem. Eng. Data, 2006, 10.1021/je050293h
Compound 1: anthracene, C14H10, InChI=1S/C14H10/c1-2-6-12-10-14-8-4-3-7-13(14)9-11(12)5-1/h1-10H, purity 99.6%
Compound 2: caffeic acid, C9H8O4, InChI=1S/C9H8O4/c10-7-3-1-6(5-8(7)11)2-4-9(12)13/h1-5,10-11H,(H,12,13), purity 99%
Compound 3: 1,2-benzenediol, C6H6O2, InChI=1S/C6H6O2/c7-5-3-1-2-4-6(5)8/h1-4,7-8H, purity 99.5%
Compound 4: 4-hydroxy-3-methoxycinnamic acid, C10H10O4, InChI=1S/C10H10O4/c1-14-9-6-7(2-4-8(9)11)3-5-10(12)13/h2-6,11H,1H3,(H,12,13), purity 99%
Compound 5: 2,5-dihydroxybenzoic acid, C7H6O4, InChI=1S/C7H6O4/c8-4-1-2-6(9)5(3-4)7(10)11/h1-3,8-9H,(H,10,11), purity 99.9%
Compound 6: 1,4-benzenediol, C6H6O2, InChI=1S/C6H6O2/c7-5-1-2-6(8)4-3-5/h1-4,7-8H, purity 99.5%
Compound 7: cis-1,2,3,5-trans-4,6-cyclohexanehexol, C6H12O6, InChI=1S/C6H12O6/c7-1-2(8)4(10)6(12)5(11)3(1)9/h1-12H/t1-,2-,3-,4+,5-,6-, purity 99.4%

System: anthracene; phases: Crystal, Gas
Property: Vapor or sublimation pressure, kPa (Crystal); method: KNUDSEN:UFactor:2
Temperature, K	Vapor or sublimation pressure, kPa	uncertainty
320.2	1.76e-05	1.8e-06
321.2	1.91e-05	2e-06
323	2.47e-05	2.5e-06
326.1	3.14e-05	3.4e-06
326.6	3.47e-05	3.7e-06
328.2	4.55e-05	4.7e-06
330.8	5.56e-05	5.6e-06
331.5	5.39e-05	5.6e-06
331.8	6.52e-05	1e-05
333.3	7.73e-05	7.8e-06
334.3	7.28e-05	7.3e-06
334.6	8.46e-05	1.16e-05
336	0.0001065	1.09e-05
337.2	0.000113	1.15e-05
338.5	0.0001327	1.35e-05
340.1	0.0001511	1.54e-05
340.1	0.0001327	1.35e-05
341.2	0.0001703	1.74e-05
342.7	0.0001959	2.32e-05
343	0.0001773	1.98e-05
343.7	0.0002322	2.38e-05
345.5	0.0002516	2.55e-05
345.6	0.0002322	2.35e-05
346.4	0.0002923	3.02e-05
347.8	0.0003198	3.21e-05
348.6	0.0003135	3.21e-05
350.8	0.0004148	4.2e-05
351.3	0.0003985	3.99e-05
351.6	0.0004107	4.19e-05
354.1	0.000522	5.3e-05

System: caffeic acid; phases: Crystal, Gas
Property: Vapor or sublimation pressure, kPa (Crystal); method: KNUDSEN:UFactor:2
Temperature, K	Vapor or sublimation pressure, kPa	uncertainty
409.3	7.4e-06	9e-07
409.9	8.9e-06	1e-06
411	9.9e-06	1e-06
411.5	1.05e-05	1.1e-06
412.1	9e-06	9e-07
413	1.1e-05	1.3e-06
413.4	1.32e-05	1.4e-06
413.9	1.27e-05	1.4e-06
415	1.66e-05	1.7e-06
415.5	1.53e-05	1.6e-06
416	1.61e-05	1.7e-06
417.1	2e-05	2.1e-06
417.6	2.09e-05	2.2e-06
418.1	2.24e-05	2.3e-06
419.1	2.35e-05	2.4e-06
419.7	2.55e-05	2.6e-06
420.1	2.55e-05	2.7e-06
421.3	3.08e-05	3.3e-06
421.4	3.37e-05	3.6e-06
422.2	3.8e-05	3.9e-06
423.3	4.29e-05	4.3e-06
423.7	4e-05	4e-06
424.2	4.16e-05	4.2e-06

System: 1,2-benzenediol; phases: Crystal, Gas
Property: Vapor or sublimation pressure, kPa (Crystal); method: KNUDSEN:UFactor:2
Temperature, K	Vapor or sublimation pressure, kPa	uncertainty
295.3	0.0002187	2.23e-05
295.9	0.0002322	2.36e-05
296.2	0.0002369	2.44e-05
296.2	0.0002417	2.49e-05
296.2	0.0002441	2.51e-05
297.3	0.0002725	2.8e-05
298.2	0.0003012	3.1e-05
298.3	0.0002982	3.07e-05
299.4	0.0003465	3.55e-05
300.2	0.0003716	3.8e-05
300.3	0.0003791	3.87e-05
301.4	0.0004232	4.33e-05
302.2	0.0004677	4.82e-05
302.3	0.000463	4.77e-05
303.5	0.0005434	5.57e-05
304.2	0.0005769	5.87e-05
304.4	0.0005827	5.93e-05
305.6	0.000657	6.75e-05
306.1	0.0007189	7.32e-05
306.2	0.0006977	7.13e-05
307.6	0.0008025	8.17e-05
308.2	0.0008521	8.63e-05
308.6	0.0008694	8.88e-05
309.8	0.00099	0.000101

System: 4-hydroxy-3-methoxycinnamic acid; phases: Crystal, Gas
Property: Vapor or sublimation pressure, kPa (Crystal); method: KNUDSEN:UFactor:2
Temperature, K	Vapor or sublimation pressure, kPa	uncertainty
368.7	2.47e-05	2.7e-06
369.1	2.26e-05	2.5e-06
369.2	2.73e-05	2.9e-06
373	3.88e-05	4.1e-06
373.2	3.84e-05	3.9e-06
373.3	4.08e-05	4.3e-06
375.2	4.83e-05	5e-06
375.3	5.23e-05	5.4e-06
377.2	6.46e-05	6.6e-06
377.2	5.96e-05	6.1e-06
377.4	6.46e-05	6.6e-06
379.3	7.97e-05	8.2e-06
379.4	8.13e-05	8.4e-06
381.3	0.0001044	1.08e-05
381.4	0.0001023	1.05e-05
381.6	0.0001003	1.04e-05
383.2	0.0001237	1.27e-05
383.4	0.00012	1.24e-05
383.6	0.00013	1.34e-05
385.4	0.0001557	1.61e-05
385.6	0.0001637	1.67e-05
385.7	0.000162	1.68e-05
387.5	0.0001959	2.01e-05
387.5	0.0001882	1.93e-05
387.7	0.0001959	2.01e-05
389.5	0.0002417	2.46e-05
389.8	0.0002346	2.4e-05
389.8	0.0002417	2.43e-05

System: 2,5-dihydroxybenzoic acid; phases: Crystal, Gas
Property: Vapor or sublimation pressure, kPa (Crystal); method: KNUDSEN:UFactor:2
Temperature, K	Vapor or sublimation pressure, kPa	uncertainty
361.8	5.23e-05	5.5e-06
362	5.5e-05	5.7e-06
362	5.61e-05	5.8e-06
363.9	6.93e-05	7.1e-06
364	7.14e-05	7.3e-06
364.1	6.86e-05	7.1e-06
365.7	8.54e-05	8.8e-06
366.1	8.63e-05	8.7e-06
366.2	8.54e-05	8.7e-06
368.2	0.0001044	1.08e-05
368.2	0.0001097	1.13e-05
368.2	0.0001097	1.13e-05
370	0.0001353	1.38e-05
370.2	0.000134	1.37e-05
370.3	0.0001395	1.42e-05
372.3	0.000162	1.67e-05
372.3	0.0001653	1.7e-05
372.4	0.0001588	1.64e-05
374.4	0.0002187	2.23e-05
374.5	0.0002187	2.23e-05
374.6	0.0002209	2.26e-05
376.4	0.0002466	2.47e-05
376.5	0.0002567	2.6e-05
376.7	0.0002491	2.5e-05
378.6	0.0002952	2.99e-05
378.6	0.0003073	3.14e-05
378.7	0.0002982	3.02e-05

System: 1,4-benzenediol; phases: Crystal, Gas
Property: Vapor or sublimation pressure, kPa (Crystal); method: KNUDSEN:UFactor:2
Temperature, K	Vapor or sublimation pressure, kPa	uncertainty
322.8	5.56e-05	5.7e-06
322.8	5.45e-05	5.6e-06
322.8	5.13e-05	5.4e-06
324.8	6.59e-05	6.9e-06
324.9	7.43e-05	7.7e-06
324.9	6.93e-05	7.2e-06
326.9	9.44e-05	9.7e-06
326.9	8.72e-05	9e-06
326.9	8.46e-05	8.7e-06
328.9	0.000113	1.15e-05
329	0.0001086	1.11e-05
329	0.0001054	1.08e-05
331	0.0001381	1.42e-05
331	0.0001381	1.42e-05
331.1	0.0001423	1.46e-05
333.1	0.0001773	1.83e-05
333.2	0.000172	1.78e-05
333.2	0.0001686	1.74e-05
335.2	0.0002322	2.37e-05
335.2	0.0002165	2.21e-05
335.2	0.0002122	2.17e-05
337.2	0.0002618	2.69e-05
337.3	0.0002753	2.82e-05
337.3	0.0002645	2.71e-05
339.2	0.0003535	3.63e-05
339.4	0.0003396	3.45e-05
339.4	0.0003329	3.38e-05

System: cis-1,2,3,5-trans-4,6-cyclohexanehexol; phases: Crystal, Gas
Property: Vapor or sublimation pressure, kPa (Crystal); method: KNUDSEN:UFactor:2
Temperature, K	Vapor or sublimation pressure, kPa	uncertainty
438.3	3.34e-05	3.4e-06
439.1	3.44e-05	3.6e-06
440.2	4.24e-05	4.3e-06
442.1	4.69e-05	4.8e-06
442.7	5.84e-05	6.1e-06
443.9	6.27e-05	6.4e-06
444.7	7.21e-05	7.3e-06
445.2	6.86e-05	7.1e-06
445.3	7.28e-05	7.5e-06
446.6	8.8e-05	8.9e-06
447.1	8.13e-05	8.4e-06
448.7	0.0001044	1.07e-05
448.9	0.0001023	1.05e-05
450.4	0.0001188	1.23e-05
450.4	0.0001237	1.28e-05
450.8	0.0001327	1.34e-05
452.2	0.0001381	1.4e-05
452.9	0.0001572	1.64e-05
453.9	0.0001773	1.83e-05
454.8	0.0001999	2.03e-05
455.4	0.0001999	2.02e-05
456.4	0.0002209	2.23e-05
456.5	0.0002369	2.39e-05
457.4	0.0002322	2.34e-05
458.1	0.0002618	2.75e-05
