Measured thermophysical data. Density and Surface Tension of Binary Mixtures of Acetonitrile + 1-Alkanol at 293.15 K
Source: J. Chem. Eng. Data, 2006, 10.1021/je050519g
Compound 1: acetonitrile, C2H3N, InChI=1S/C2H3N/c1-2-3/h1H3
Compound 2: methanol, CH4O, InChI=1S/CH4O/c1-2/h2H,1H3
Compound 3: ethanol, C2H6O, InChI=1S/C2H6O/c1-2-3/h3H,2H2,1H3
Compound 4: propan-1-ol, C3H8O, InChI=1S/C3H8O/c1-2-3-4/h4H,2-3H2,1H3
Compound 5: butan-1-ol, C4H10O, InChI=1S/C4H10O/c1-2-3-4-5/h5H,2-4H2,1H3
Compound 6: pentan-1-ol, C5H12O, InChI=1S/C5H12O/c1-2-3-4-5-6/h6H,2-5H2,1H3

System: acetonitrile; phases: Liquid, Air at 1 atmosphere
Property: Surface tension liquid-gas, N/m (Liquid); method: Pendant drop shape
Temperature, K	Surface tension liquid-gas, N/m	uncertainty
293.15	0.02925	0.00034

System: acetonitrile; phases: Liquid
Property: Mass density, kg/m3 (Liquid); method: VIBTUB:UFactor:2
Temperature, K	Pressure, kPa	Mass density, kg/m3	uncertainty
293.15	101.325	778.3	0.31

System: methanol; phases: Liquid, Air at 1 atmosphere
Property: Surface tension liquid-gas, N/m (Liquid); method: Pendant drop shape
Temperature, K	Surface tension liquid-gas, N/m	uncertainty
293.15	0.02278	0.00031

System: methanol; phases: Liquid
Property: Mass density, kg/m3 (Liquid); method: VIBTUB:UFactor:2
Temperature, K	Pressure, kPa	Mass density, kg/m3	uncertainty
293.15	101.325	787.83	0.36

System: ethanol; phases: Liquid, Air at 1 atmosphere
Property: Surface tension liquid-gas, N/m (Liquid); method: Pendant drop shape
Temperature, K	Surface tension liquid-gas, N/m	uncertainty
293.15	0.02231	0.0003

System: ethanol; phases: Liquid
Property: Mass density, kg/m3 (Liquid); method: VIBTUB:UFactor:2
Temperature, K	Pressure, kPa	Mass density, kg/m3	uncertainty
293.15	101.325	786.44	0.31

System: propan-1-ol; phases: Liquid, Air at 1 atmosphere
Property: Surface tension liquid-gas, N/m (Liquid); method: Pendant drop shape
Temperature, K	Surface tension liquid-gas, N/m	uncertainty
293.15	0.02378	0.00032

System: propan-1-ol; phases: Liquid
Property: Mass density, kg/m3 (Liquid); method: VIBTUB:UFactor:2
Temperature, K	Pressure, kPa	Mass density, kg/m3	uncertainty
293.15	101.325	801.3	0.4

System: butan-1-ol; phases: Liquid, Air at 1 atmosphere
Property: Surface tension liquid-gas, N/m (Liquid); method: Pendant drop shape
Temperature, K	Surface tension liquid-gas, N/m	uncertainty
293.15	0.024503	0.000321

System: butan-1-ol; phases: Liquid
Property: Mass density, kg/m3 (Liquid); method: VIBTUB:UFactor:2
Temperature, K	Pressure, kPa	Mass density, kg/m3	uncertainty
293.15	101.325	807.33	0.35

System: pentan-1-ol; phases: Liquid, Air at 1 atmosphere
Property: Surface tension liquid-gas, N/m (Liquid); method: Pendant drop shape
Temperature, K	Surface tension liquid-gas, N/m	uncertainty
293.15	0.025457	0.000345

System: pentan-1-ol; phases: Liquid
Property: Mass density, kg/m3 (Liquid); method: VIBTUB:UFactor:2
Temperature, K	Pressure, kPa	Mass density, kg/m3	uncertainty
293.15	101.325	815.11	0.5

System: methanol + acetonitrile; phases: Liquid, Air at 1 atmosphere
Fixed: Temperature, K = 293.15
Property: Surface tension liquid-gas, N/m (Liquid); method: Pendant drop shape
Mole fraction of acetonitrile	Surface tension liquid-gas, N/m	uncertainty
0.1001	0.0238	0.00032
0.2011	0.02473	0.00032
0.2996	0.02553	0.00032
0.4997	0.02685	0.00033
0.7012	0.02794	0.00034
0.8009	0.02842	0.00034
0.8956	0.02885	0.00034

System: methanol + acetonitrile; phases: Liquid
Fixed: Temperature, K = 293.15
Fixed: Pressure, kPa = 101
Property: Mass density, kg/m3 (Liquid); method: VIBTUB:UFactor:2
Mole fraction of acetonitrile	Mass density, kg/m3	uncertainty
0.1001	788.46	0.35
0.2011	788.04	0.34
0.2996	787.13	0.33
0.4997	784.82	0.32
0.7012	782.13	0.31
0.8009	780.75	0.31
0.8956	779.47	0.31

System: propan-1-ol + acetonitrile; phases: Liquid, Air at 1 atmosphere
Fixed: Temperature, K = 293.15
Property: Surface tension liquid-gas, N/m (Liquid); method: Pendant drop shape
Mole fraction of acetonitrile	Surface tension liquid-gas, N/m	uncertainty
0.1004	0.02402	0.00032
0.2018	0.02423	0.00032
0.3013	0.02452	0.00032
0.5004	0.02532	0.00032
0.7003	0.0265	0.00033
0.8002	0.02727	0.00033
0.8997	0.02819	0.00034

System: propan-1-ol + acetonitrile; phases: Liquid
Fixed: Temperature, K = 293.15
Fixed: Pressure, kPa = 101
Property: Mass density, kg/m3 (Liquid); method: VIBTUB:UFactor:2
Mole fraction of acetonitrile	Mass density, kg/m3	uncertainty
0.1004	799.54	0.34
0.2018	797.63	0.34
0.3013	795.62	0.33
0.5004	791.05	0.32
0.7003	785.97	0.31
0.8002	783.29	0.31
0.8997	780.68	0.3

System: butan-1-ol + acetonitrile; phases: Liquid, Air at 1 atmosphere
Fixed: Temperature, K = 293.15
Property: Surface tension liquid-gas, N/m (Liquid); method: Pendant drop shape
Mole fraction of acetonitrile	Surface tension liquid-gas, N/m	uncertainty
0.1026	0.02465	0.00032
0.2021	0.02478	0.00032
0.302	0.02494	0.00032
0.5024	0.02552	0.00032
0.7014	0.02653	0.00033
0.8007	0.02725	0.00033
0.8995	0.02814	0.00034

System: butan-1-ol + acetonitrile; phases: Liquid
Fixed: Temperature, K = 293.15
Fixed: Pressure, kPa = 101
Property: Mass density, kg/m3 (Liquid); method: VIBTUB:UFactor:2
Mole fraction of acetonitrile	Mass density, kg/m3	uncertainty
0.1026	805.36	0.34
0.2021	803.18	0.34
0.302	800.8	0.33
0.5024	795.42	0.32
0.7014	789.23	0.31
0.8007	785.7	0.31
0.8995	782.01	0.3

System: pentan-1-ol + acetonitrile; phases: Liquid, Air at 1 atmosphere
Fixed: Temperature, K = 293.15
Property: Surface tension liquid-gas, N/m (Liquid); method: Pendant drop shape
Mole fraction of acetonitrile	Surface tension liquid-gas, N/m	uncertainty
0.1003	0.02549	0.00034
0.2031	0.02554	0.00034
0.3014	0.02557	0.00033
0.5003	0.02582	0.00033
0.7	0.02664	0.00033
0.8001	0.02729	0.00033
0.8993	0.02811	0.00034

System: pentan-1-ol + acetonitrile; phases: Liquid
Fixed: Temperature, K = 293.15
Fixed: Pressure, kPa = 101
Property: Mass density, kg/m3 (Liquid); method: VIBTUB:UFactor:2
Mole fraction of acetonitrile	Mass density, kg/m3	uncertainty
0.1003	812.2	0.47
0.2031	809.06	0.44
0.3014	806.03	0.41
0.5003	799.64	0.37
0.7	792.42	0.33
0.8001	788.11	0.32
0.8993	783.38	0.31

System: ethanol + acetonitrile; phases: Liquid, Air at 1 atmosphere
Fixed: Temperature, K = 293.15
Property: Surface tension liquid-gas, N/m (Liquid); method: Pendant drop shape
Mole fraction of acetonitrile	Surface tension liquid-gas, N/m	uncertainty
0.0999	0.02281	0.00031
0.2007	0.0233	0.00031
0.3039	0.02385	0.00031
0.5001	0.02506	0.00032
0.6994	0.02651	0.00033
0.8013	0.02736	0.00033
0.8996	0.02826	0.00034

System: ethanol + acetonitrile; phases: Liquid
Fixed: Temperature, K = 293.15
Fixed: Pressure, kPa = 101
Property: Mass density, kg/m3 (Liquid); method: VIBTUB:UFactor:2
Mole fraction of acetonitrile	Mass density, kg/m3	uncertainty
0.0999	786.57	0.31
0.2007	785.99	0.31
0.3039	785.05	0.3
0.5001	783.08	0.3
0.6994	780.89	0.3
0.8013	779.8	0.3
0.8996	778.91	0.3
