Measured thermophysical data. Solubility of Carbon Dioxide in Butyl Methacrylate at Temperatures of (323 and 333) K
Source: J. Chem. Eng. Data, 2006, 10.1021/je0504820
Compound 1: butyl 2-methyl-2-propenoate, C8H14O2, InChI=1S/C8H14O2/c1-4-5-6-10-8(9)7(2)3/h2,4-6H2,1,3H3, purity 99%
Compound 2: carbon dioxide, CO2, InChI=1S/CO2/c2-1-3, purity 99.5%

System: butyl 2-methyl-2-propenoate + carbon dioxide; phases: Liquid, Gas
Property: Molar volume, m3/mol (Liquid); method: Pycnometric method
Temperature, K	Pressure, kPa	Molar volume, m3/mol	uncertainty
323.2	1990	0.1	0.01
323.2	3490	0.211	0.021
323.2	6000	0.58	0.058
323.2	6980	0.887	0.089
323.2	7980	1.52	0.15
323.2	8480	2.19	0.22
333.2	2000	0.081	0.008
333.2	3500	0.181	0.018
333.2	6010	0.452	0.047
333.2	7990	0.88	0.108
333.2	9000	1.36	0.23
333.2	9490	1.76	0.51
333.2	10000	2.5	0.7

System: butyl 2-methyl-2-propenoate + carbon dioxide; phases: Liquid, Gas
Property: Mole fraction of carbon dioxide (Liquid); method: gas volume and solvent mass after depressurization
Temperature, K	Pressure, kPa	Mole fraction of carbon dioxide	uncertainty
323.2	1990	0.2469	0.0212
323.2	3490	0.4109	0.0336
323.2	6000	0.6312	0.051
323.2	6980	0.7237	0.0583
323.2	7980	0.8151	0.0656
323.2	8480	0.8604	0.0692
333.2	2000	0.2201	0.019
333.2	3500	0.3727	0.0305
333.2	6010	0.5749	0.0464
333.2	7990	0.7186	0.0579
333.2	9000	0.7975	0.0642
333.2	9490	0.833	0.067
333.2	10000	0.8726	0.0701
