Measured thermophysical data. Liquid-Liquid Equilibria for the Ternary Systems Water + 3-Methyl-2-cyclopentenone with Ethyl Acetate or Methyl tert-Butyl Ether at 293.2 K
Source: J. Chem. Eng. Data, 2005, 10.1021/je0502492
Compound 1: ethyl acetate, C4H8O2, InChI=1S/C4H8O2/c1-3-6-4(2)5/h3H2,1-2H3
Compound 2: 2-methoxy-2-methylpropane, C5H12O, InChI=1S/C5H12O/c1-5(2,3)6-4/h1-4H3
Compound 3: 3-methyl-2-cyclopenten-1-one, C6H8O, InChI=1S/C6H8O/c1-5-2-3-6(7)4-5/h4H,2-3H2,1H3
Compound 4: water, H2O, InChI=1S/H2O/h1H2

System: ethyl acetate + water; phases: Liquid mixture 1, Liquid mixture 2
Property: Mole fraction of water (Liquid mixture 1); method: Titration method
Temperature, K	Pressure, kPa	Mole fraction of water	uncertainty
293.2	101.325	0.9819	0.0003

System: ethyl acetate + 3-methyl-2-cyclopenten-1-one + water; phases: Liquid mixture 1, Liquid mixture 2
Fixed: Pressure, kPa = 101.325
Fixed: Temperature, K = 293.2
Property: Mole fraction of 3-methyl-2-cyclopenten-1-one (Liquid mixture 1); method: Titration method
Mole fraction of water	Mole fraction of 3-methyl-2-cyclopenten-1-one	uncertainty
0.1948	0.0779	0.0024
0.2467	0.1123	0.0035
0.2579	0.1174	0.0036
0.2704	0.1222	0.0038
0.2711	0.1213	0.0038
0.3236	0.1469	0.0046
0.3949	0.1659	0.0051
0.4753	0.1646	0.0051
0.6843	0.1411	0.0044
0.8551	0.0753	0.0023
0.9232	0.0418	0.0013
0.9819	0	0.0001

System: ethyl acetate + 3-methyl-2-cyclopenten-1-one + water; phases: Liquid mixture 1, Liquid mixture 2
Fixed: Temperature, K = 293.2
Fixed: Pressure, kPa = 101.325
Property: Mole fraction of 3-methyl-2-cyclopenten-1-one (Liquid mixture 1); method: CHROM:UFactor:2
Property: Mole fraction of 3-methyl-2-cyclopenten-1-one (Liquid mixture 2); method: CHROM:UFactor:2
Property: Mole fraction of water (Liquid mixture 2); method: CHROM:UFactor:2
Mole fraction of water	Mole fraction of 3-methyl-2-cyclopenten-1-one	uncertainty	Mole fraction of 3-methyl-2-cyclopenten-1-one	uncertainty	Mole fraction of water	uncertainty
0.1955	0.0758	0.0012	0.0126	0.0003	0.9645	
0.2413	0.1129	0.0018	0.0234	0.0004	0.9498	
0.2963	0.1366	0.0021	0.033	0.0005	0.9354	
0.3355	0.1509	0.0023	0.0384	0.0006	0.9268	
0.3634	0.1584	0.0025	0.0451	0.0007	0.9157	

System: 2-methoxy-2-methylpropane + 3-methyl-2-cyclopenten-1-one + water; phases: Liquid mixture 1, Liquid mixture 2
Fixed: Pressure, kPa = 101.325
Fixed: Temperature, K = 293.2
Property: Mole fraction of 3-methyl-2-cyclopenten-1-one (Liquid mixture 1); method: Titration method
Mole fraction of water	Mole fraction of 3-methyl-2-cyclopenten-1-one	uncertainty
0.0709	0.0273	0.0009
0.1095	0.088	0.0027
0.1487	0.1489	0.0046
0.2002	0.1862	0.0058
0.3317	0.2484	0.0077
0.3663	0.2519	0.0078
0.567	0.2337	0.0072
0.5939	0.2284	0.0071
0.6893	0.1911	0.0059
0.748	0.1655	0.0051
0.8301	0.1209	0.0037
0.9349	0.0438	0.0014

System: 2-methoxy-2-methylpropane + 3-methyl-2-cyclopenten-1-one + water; phases: Liquid mixture 1, Liquid mixture 2
Fixed: Temperature, K = 293.2
Fixed: Pressure, kPa = 101.325
Property: Mole fraction of 3-methyl-2-cyclopenten-1-one (Liquid mixture 1); method: CHROM:UFactor:2
Property: Mole fraction of 3-methyl-2-cyclopenten-1-one (Liquid mixture 2); method: CHROM:UFactor:2
Property: Mole fraction of water (Liquid mixture 2); method: CHROM:UFactor:2
Mole fraction of water	Mole fraction of 3-methyl-2-cyclopenten-1-one	uncertainty	Mole fraction of 3-methyl-2-cyclopenten-1-one	uncertainty	Mole fraction of water	uncertainty
0.2298	0.2049	0.0032	0.1291	0.002	0.8128	
0.1734	0.163	0.0025	0.0969	0.0015	0.8628	
0.1175	0.1097	0.0017	0.0498	0.0008	0.9255	
0.0926	0.0755	0.0012	0.0245	0.0004	0.9589	
0.0712	0.0382	0.0007	0.0096	0.0003	0.9794	
