Measured thermophysical data. Experimental (Solid + Liquid) and (Liquid + Liquid) Equilibria and Excess Molar Volume of Alkanol + Acetonitrile, Propanenitrile, and Butanenitrile Mixtures
Source: J. Chem. Eng. Data, 2005, 10.1021/je050262m
Compound 1: octan-1-ol, C8H18O, InChI=1S/C8H18O/c1-2-3-4-5-6-7-8-9/h9H,2-8H2,1H3
Compound 2: nonan-1-ol, C9H20O, InChI=1S/C9H20O/c1-2-3-4-5-6-7-8-9-10/h10H,2-9H2,1H3
Compound 3: decan-1-ol, C10H22O, InChI=1S/C10H22O/c1-2-3-4-5-6-7-8-9-10-11/h11H,2-10H2,1H3
Compound 4: 1-undecanol, C11H24O, InChI=1S/C11H24O/c1-2-3-4-5-6-7-8-9-10-11-12/h12H,2-11H2,1H3
Compound 5: acetonitrile, C2H3N, InChI=1S/C2H3N/c1-2-3/h1H3
Compound 6: propanenitrile, C3H5N, InChI=1S/C3H5N/c1-2-3-4/h2H2,1H3
Compound 7: butanenitrile, C4H7N, InChI=1S/C4H7N/c1-2-3-4-5/h2-3H2,1H3

System: octan-1-ol; phases: Crystal, Liquid, Air at 1 atmosphere
Property: Normal melting temperature, K (Crystal); method: VISOBS
Normal melting temperature, K	uncertainty
258.03	0.2

System: nonan-1-ol; phases: Crystal, Liquid, Air at 1 atmosphere
Property: Normal melting temperature, K (Crystal); method: VISOBS
Normal melting temperature, K	uncertainty
268.1	0.2

System: decan-1-ol; phases: Crystal, Liquid, Air at 1 atmosphere
Property: Normal melting temperature, K (Crystal); method: VISOBS
Normal melting temperature, K	uncertainty
278.67	0.2

System: 1-undecanol; phases: Crystal, Liquid, Air at 1 atmosphere
Property: Normal melting temperature, K (Crystal); method: VISOBS
Normal melting temperature, K	uncertainty
289.63	0.2

System: acetonitrile; phases: Crystal, Liquid, Air at 1 atmosphere
Property: Normal melting temperature, K (Crystal); method: VISOBS
Normal melting temperature, K	uncertainty
230.42	0.2

System: acetonitrile + octan-1-ol; phases: Liquid mixture 1, Liquid mixture 2, Air at 1 atmosphere, Crystal
Property: Quadruple (quintuple) point temperature, K (Liquid mixture 1); method: OTHER::sMethod:phase diagram analysis
Quadruple (quintuple) point temperature, K	uncertainty
255.53	0.2

System: acetonitrile + octan-1-ol; phases: Liquid, Crystal
Fixed: Pressure, kPa = 101
Property: Solid-liquid equilibrium temperature, K (Liquid); method: VISOBS
Mole fraction of octan-1-ol	Solid-liquid equilibrium temperature, K	uncertainty
0.01	246.88	0.2
0.0226	253.45	0.2
0.0324	255.34	0.2
0.0454	255.53	0.2
0.0661	255.53	0.2
0.0847	255.53	0.2
0.1025	255.53	0.2
0.132	255.53	0.2
0.1586	255.53	0.2
0.1966	255.53	0.2
0.2315	255.53	0.2
0.2721	255.53	0.2
0.2953	255.53	0.2
0.3315	255.53	0.2
0.3611	255.53	0.2
0.3939	255.53	0.2
0.422	255.53	0.2
0.468	255.53	0.2
0.4842	255.53	0.2
0.5032	255.53	0.2
0.5242	255.53	0.2
0.5593	255.53	0.2
0.5848	255.53	0.2
0.6372	255.53	0.2
0.6752	255.53	0.2
0.6983	255.53	0.2
0.7357	255.53	0.2
0.7708	255.53	0.2
0.7948	255.53	0.2
0.8315	255.82	0.2
0.8733	256.02	0.2
0.9119	256.41	0.2
0.9458	256.93	0.2
0.9677	257.42	0.2
1	258.03	0.2

System: acetonitrile + octan-1-ol; phases: Liquid mixture 1, Liquid mixture 2
Fixed: Pressure, kPa = 101
Property: Liquid-liquid equilibrium temperature, K (Liquid mixture 1); method: VISOBS:UFactor:2
Mole fraction of octan-1-ol	Liquid-liquid equilibrium temperature, K	uncertainty
0.0454	262.13	0.4
0.0661	270.06	0.4
0.0847	273.89	0.4
0.1025	276.89	0.4
0.132	278.8	0.4
0.1586	280.25	0.4
0.1966	281.31	0.4
0.2315	281.93	0.4
0.2721	282.07	0.4
0.2953	282.03	0.4
0.3315	281.83	0.4
0.3611	281.56	0.4
0.3939	281.08	0.4
0.422	280.6	0.4
0.468	279.59	0.4
0.4842	279.12	0.4
0.5032	278.37	0.4
0.5242	277.69	0.4
0.5593	276.33	0.4
0.5848	274.81	0.4
0.6372	272.25	0.4
0.6752	269.33	0.4
0.6983	267.62	0.4
0.7357	264.93	0.4
0.7708	260.7	0.4
0.7948	257.4	0.4

System: acetonitrile + nonan-1-ol; phases: Liquid mixture 1, Liquid mixture 2, Air at 1 atmosphere, Crystal
Property: Quadruple (quintuple) point temperature, K (Liquid mixture 1); method: OTHER::sMethod:phase diagram analysis
Quadruple (quintuple) point temperature, K	uncertainty
264.27	0.2

System: acetonitrile + nonan-1-ol; phases: Liquid, Crystal
Fixed: Pressure, kPa = 101
Property: Solid-liquid equilibrium temperature, K (Liquid); method: VISOBS
Mole fraction of nonan-1-ol	Solid-liquid equilibrium temperature, K	uncertainty
0.0091	253.08	0.2
0.0161	260.48	0.2
0.0242	264.09	0.2
0.0388	264.27	0.2
0.0555	264.27	0.2
0.0678	264.27	0.2
0.0835	264.27	0.2
0.0986	264.27	0.2
0.1199	264.27	0.2
0.1572	264.27	0.2
0.2007	264.27	0.2
0.2298	264.27	0.2
0.2653	264.27	0.2
0.3021	264.27	0.2
0.3389	264.27	0.2
0.3703	264.27	0.2
0.4229	264.27	0.2
0.4607	264.27	0.2
0.4981	264.27	0.2
0.5371	264.27	0.2
0.5731	264.27	0.2
0.6008	264.27	0.2
0.627	264.27	0.2
0.67	264.27	0.2
0.7097	264.27	0.2
0.7427	264.27	0.2
0.769	264.43	0.2
0.7996	264.47	0.2
0.8395	264.72	0.2
0.8865	265.61	0.2
0.9164	266.04	0.2
0.9588	266.84	0.2
1	268.1	0.2

System: acetonitrile + nonan-1-ol; phases: Liquid mixture 1, Liquid mixture 2
Fixed: Pressure, kPa = 101
Property: Liquid-liquid equilibrium temperature, K (Liquid mixture 1); method: VISOBS:UFactor:2
Mole fraction of nonan-1-ol	Liquid-liquid equilibrium temperature, K	uncertainty
0.0388	267.51	0.4
0.0555	275.27	0.4
0.0678	280.74	0.4
0.0835	283.66	0.4
0.0986	285.33	0.4
0.1199	287.24	0.4
0.1572	289.08	0.4
0.2007	290	0.4
0.2298	290.27	0.4
0.2653	290.33	0.4
0.3021	290.18	0.4
0.3389	289.86	0.4
0.3703	289.36	0.4
0.4229	288.39	0.4
0.4607	287.49	0.4
0.4981	285.76	0.4
0.5371	284.28	0.4
0.5731	282.18	0.4
0.6008	280.19	0.4
0.627	278.66	0.4
0.67	276.18	0.4
0.7097	272.76	0.4
0.7427	270.09	0.4

System: acetonitrile + decan-1-ol; phases: Liquid mixture 1, Liquid mixture 2, Air at 1 atmosphere, Crystal
Property: Quadruple (quintuple) point temperature, K (Liquid mixture 1); method: OTHER::sMethod:phase diagram analysis
Quadruple (quintuple) point temperature, K	uncertainty
276.45	0.2

System: acetonitrile + decan-1-ol; phases: Liquid, Crystal
Fixed: Pressure, kPa = 101
Property: Solid-liquid equilibrium temperature, K (Liquid); method: VISOBS
Mole fraction of decan-1-ol	Solid-liquid equilibrium temperature, K	uncertainty
0.0063	264.74	0.2
0.013	270.55	0.2
0.0218	275.58	0.2
0.0371	276.45	0.2
0.0451	276.45	0.2
0.074	276.45	0.2
0.1077	276.45	0.2
0.1562	276.45	0.2
0.185	276.45	0.2
0.2143	276.45	0.2
0.244	276.45	0.2
0.2763	276.45	0.2
0.3152	276.45	0.2
0.3429	276.45	0.2
0.3769	276.45	0.2
0.417	276.45	0.2
0.486	276.45	0.2
0.5382	276.45	0.2
0.5719	276.45	0.2
0.625	276.45	0.2
0.6671	276.45	0.2
0.692	276.45	0.2
0.7465	276.64	0.2
0.8095	277.13	0.2
0.8605	277.61	0.2
0.9098	278.23	0.2
0.9513	278.36	0.2
1	278.67	0.2

System: acetonitrile + decan-1-ol; phases: Liquid mixture 1, Liquid mixture 2
Fixed: Pressure, kPa = 101
Property: Liquid-liquid equilibrium temperature, K (Liquid mixture 1); method: VISOBS:UFactor:2
Mole fraction of decan-1-ol	Liquid-liquid equilibrium temperature, K	uncertainty
0.0371	277.56	0.4
0.0451	283.77	0.4
0.074	290.99	0.4
0.1077	293.88	0.4
0.1562	296.24	0.4
0.185	296.71	0.4
0.2143	296.94	0.4
0.244	297.05	0.4
0.2763	297.01	0.4
0.3152	296.77	0.4
0.3429	296.53	0.4
0.3769	296.02	0.4
0.417	295.29	0.4
0.486	293.18	0.4
0.5382	291.38	0.4
0.5719	288.91	0.4
0.625	285.57	0.4
0.6671	282.88	0.4
0.692	278.8	0.4

System: acetonitrile + 1-undecanol; phases: Liquid mixture 1, Liquid mixture 2, Air at 1 atmosphere, Crystal
Property: Quadruple (quintuple) point temperature, K (Liquid mixture 1); method: OTHER::sMethod:phase diagram analysis
Quadruple (quintuple) point temperature, K	uncertainty
285.2	0.2

System: acetonitrile + 1-undecanol; phases: Liquid, Crystal
Fixed: Pressure, kPa = 101
Property: Solid-liquid equilibrium temperature, K (Liquid); method: VISOBS
Mole fraction of 1-undecanol	Solid-liquid equilibrium temperature, K	uncertainty
0.0072	274.93	0.2
0.0197	283.81	0.2
0.0401	285.2	0.2
0.0567	285.2	0.2
0.0838	285.2	0.2
0.1044	285.2	0.2
0.1366	285.2	0.2
0.1687	285.2	0.2
0.1871	285.2	0.2
0.2037	285.2	0.2
0.2707	285.2	0.2
0.321	285.2	0.2
0.3722	285.2	0.2
0.4162	285.2	0.2
0.4689	285.2	0.2
0.4999	285.2	0.2
0.5338	285.2	0.2
0.5597	285.2	0.2
0.5983	285.2	0.2
0.621	285.2	0.2
0.6527	285.2	0.2
0.6895	285.48	0.2
0.7186	285.89	0.2
0.7548	286.16	0.2
0.7891	286.78	0.2
0.8311	287.21	0.2
0.8678	287.62	0.2
0.8954	288.04	0.2
0.9298	288.7	0.2
0.9644	289.17	0.2
1	289.63	0.2

System: acetonitrile + 1-undecanol; phases: Liquid mixture 1, Liquid mixture 2
Fixed: Pressure, kPa = 101
Property: Liquid-liquid equilibrium temperature, K (Liquid mixture 1); method: VISOBS:UFactor:2
Mole fraction of 1-undecanol	Liquid-liquid equilibrium temperature, K	uncertainty
0.0401	290.07	0.4
0.0567	295.38	0.4
0.0838	300.32	0.4
0.1044	301.46	0.4
0.1366	302.59	0.4
0.1687	303.08	0.4
0.1871	303.21	0.4
0.2037	303.25	0.4
0.2707	302.89	0.4
0.321	302.19	0.4
0.3722	301.08	0.4
0.4162	300.06	0.4
0.4689	298.47	0.4
0.4999	297.2	0.4
0.5338	295.23	0.4
0.5597	294.28	0.4
0.5983	292.27	0.4
0.621	290.77	0.4
0.6527	288.18	0.4

System: propanenitrile + octan-1-ol; phases: Liquid, Crystal
Fixed: Pressure, kPa = 101
Property: Solid-liquid equilibrium temperature, K (Liquid); method: VISOBS
Mole fraction of octan-1-ol	Solid-liquid equilibrium temperature, K	uncertainty
0.0275	240.39	0.2
0.031	243.21	0.2
0.0449	246.37	0.2
0.0557	248.02	0.2
0.0866	250.15	0.2
0.104	251.44	0.2
0.139	252.64	0.2
0.1822	253.51	0.2
0.2239	253.63	0.2
0.2855	253.64	0.2
0.346	253.71	0.2
0.4082	253.76	0.2
0.4677	253.79	0.2
0.5573	253.88	0.2
0.6143	254.03	0.2
0.6558	254.1	0.2
0.7098	254.38	0.2
0.7722	254.76	0.2
0.808	254.94	0.2
0.8573	255.53	0.2
0.9187	256.67	0.2
0.9488	257.26	0.2
1	258.03	0.2

System: propanenitrile + nonan-1-ol; phases: Liquid, Crystal
Fixed: Pressure, kPa = 101
Property: Solid-liquid equilibrium temperature, K (Liquid); method: VISOBS
Mole fraction of nonan-1-ol	Solid-liquid equilibrium temperature, K	uncertainty
0.0143	246.22	0.2
0.02	250.68	0.2
0.0332	253.74	0.2
0.0454	255.81	0.2
0.0561	257.29	0.2
0.0679	258.69	0.2
0.0882	260.3	0.2
0.1104	261.05	0.2
0.1447	261.74	0.2
0.1964	262.37	0.2
0.2388	262.56	0.2
0.2956	262.61	0.2
0.3589	262.64	0.2
0.4137	262.66	0.2
0.4706	262.67	0.2
0.5372	262.77	0.2
0.5776	262.83	0.2
0.6363	262.99	0.2
0.69	263.31	0.2
0.7535	263.74	0.2
0.8028	264.15	0.2
0.8604	264.89	0.2
0.9047	265.57	0.2
0.9629	266.75	0.2
1	268.1	0.2

System: propanenitrile + decan-1-ol; phases: Liquid, Crystal
Fixed: Pressure, kPa = 101
Property: Solid-liquid equilibrium temperature, K (Liquid); method: VISOBS
Mole fraction of decan-1-ol	Solid-liquid equilibrium temperature, K	uncertainty
0.0119	259.84	0.2
0.0244	265.73	0.2
0.05	270.57	0.2
0.0977	272.82	0.2
0.136	273.79	0.2
0.1948	273.92	0.2
0.2576	273.99	0.2
0.3104	274.12	0.2
0.3668	274.28	0.2
0.4144	274.37	0.2
0.4794	274.53	0.2
0.5697	274.79	0.2
0.6489	275.05	0.2
0.7228	275.53	0.2
0.792	276.17	0.2
0.8648	277.29	0.2
0.9257	278	0.2
0.9619	278.32	0.2
1	278.67	0.2

System: propanenitrile + 1-undecanol; phases: Liquid, Crystal
Fixed: Pressure, kPa = 101
Property: Solid-liquid equilibrium temperature, K (Liquid); method: VISOBS
Mole fraction of 1-undecanol	Solid-liquid equilibrium temperature, K	uncertainty
0.0129	266.07	0.2
0.0265	272.28	0.2
0.0533	277.51	0.2
0.0803	279.63	0.2
0.1171	281.12	0.2
0.1528	281.73	0.2
0.1996	282.37	0.2
0.2662	282.76	0.2
0.3398	282.94	0.2
0.3946	283.11	0.2
0.4469	283.21	0.2
0.5103	283.46	0.2
0.574	283.72	0.2
0.6537	284.15	0.2
0.7071	284.69	0.2
0.7793	285.28	0.2
0.8544	286.46	0.2
0.9009	287.57	0.2
0.943	288.73	0.2
1	289.63	0.2

System: butanenitrile + octan-1-ol; phases: Liquid, Crystal
Fixed: Pressure, kPa = 101
Property: Solid-liquid equilibrium temperature, K (Liquid); method: VISOBS
Mole fraction of octan-1-ol	Solid-liquid equilibrium temperature, K	uncertainty
0.0172	230.58	0.2
0.0228	234.33	0.2
0.0318	237.67	0.2
0.0439	241	0.2
0.0529	242.88	0.2
0.074	244.96	0.2
0.1052	247.06	0.2
0.1309	248.27	0.2
0.1687	249.46	0.2
0.2035	250.14	0.2
0.245	250.83	0.2
0.2943	251.3	0.2
0.3464	251.73	0.2
0.3951	252.18	0.2
0.4329	252.36	0.2
0.4797	252.67	0.2
0.5338	252.86	0.2
0.5691	252.99	0.2
0.6164	253.19	0.2
0.6624	253.33	0.2
0.7186	253.8	0.2
0.754	254.01	0.2
0.789	254.47	0.2
0.8386	255.06	0.2
0.8757	255.52	0.2
0.8998	255.71	0.2
0.929	256.24	0.2
0.9677	257.27	0.2
1	258.03	0.2

System: butanenitrile + nonan-1-ol; phases: Liquid, Crystal
Fixed: Pressure, kPa = 101
Property: Solid-liquid equilibrium temperature, K (Liquid); method: VISOBS
Mole fraction of nonan-1-ol	Solid-liquid equilibrium temperature, K	uncertainty
0.0134	233.3	0.2
0.0201	237.15	0.2
0.025	242.88	0.2
0.0346	248	0.2
0.0479	251.24	0.2
0.0791	254.88	0.2
0.1145	256.64	0.2
0.1414	257.81	0.2
0.1819	258.9	0.2
0.2051	259.51	0.2
0.2325	259.91	0.2
0.2569	260.15	0.2
0.2888	260.31	0.2
0.3321	260.58	0.2
0.3695	260.89	0.2
0.4198	261.26	0.2
0.4672	261.5	0.2
0.5275	261.82	0.2
0.5669	262.06	0.2
0.6035	262.31	0.2
0.642	262.51	0.2
0.6755	262.79	0.2
0.7146	263.06	0.2
0.7607	263.47	0.2
0.7968	263.79	0.2
0.8292	264.15	0.2
0.8612	264.54	0.2
0.8752	264.91	0.2
0.9233	265.79	0.2
0.9631	266.97	0.2
1	268.1	0.2

System: butanenitrile + decan-1-ol; phases: Liquid, Crystal
Fixed: Pressure, kPa = 101
Property: Solid-liquid equilibrium temperature, K (Liquid); method: VISOBS
Mole fraction of decan-1-ol	Solid-liquid equilibrium temperature, K	uncertainty
0.0172	253.42	0.2
0.024	256.66	0.2
0.0354	260.02	0.2
0.0523	263.37	0.2
0.0669	265.36	0.2
0.082	266.77	0.2
0.1012	267.98	0.2
0.1328	269.39	0.2
0.171	270.59	0.2
0.2088	271.34	0.2
0.254	271.98	0.2
0.2967	272.43	0.2
0.3325	272.63	0.2
0.3895	273.16	0.2
0.4261	273.34	0.2
0.4672	273.57	0.2
0.5222	273.84	0.2
0.5607	274.05	0.2
0.6004	274.44	0.2
0.6513	275.19	0.2
0.7116	276.02	0.2
0.7518	276.36	0.2
0.7952	276.72	0.2
0.8447	277.19	0.2
0.8955	277.69	0.2
0.9395	278.3	0.2
0.964	278.5	0.2
1	278.67	0.2

System: butanenitrile + 1-undecanol; phases: Liquid, Crystal
Fixed: Pressure, kPa = 101
Property: Solid-liquid equilibrium temperature, K (Liquid); method: VISOBS
Mole fraction of 1-undecanol	Solid-liquid equilibrium temperature, K	uncertainty
0.0141	257.3	0.2
0.0246	265.44	0.2
0.0373	269.51	0.2
0.0501	271.77	0.2
0.0807	275	0.2
0.1094	276.73	0.2
0.1366	278.11	0.2
0.1814	279.42	0.2
0.2222	280.21	0.2
0.2668	281.07	0.2
0.3146	281.62	0.2
0.357	281.96	0.2
0.4061	282.37	0.2
0.4761	282.86	0.2
0.5242	283.3	0.2
0.5846	283.53	0.2
0.618	283.83	0.2
0.6534	284.42	0.2
0.6887	284.82	0.2
0.7188	285.15	0.2
0.7596	285.58	0.2
0.793	285.97	0.2
0.8319	286.57	0.2
0.864	287.15	0.2
0.8984	287.81	0.2
0.9335	288.39	0.2
0.9682	289.05	0.2
1	289.63	0.2
