Measured thermophysical data. Solubilities of 4-Phenyltoluene, Phenylboric Acid, Biphenyl, and Iodobenzene in Carbon Dioxide from Measurements of the Relative Permittivity
Source: J. Chem. Eng. Data, 2005, 10.1021/je050075o
Compound 1: 4-methylbiphenyl, C13H12, InChI=1S/C13H12/c1-11-7-9-13(10-8-11)12-5-3-2-4-6-12/h2-10H,1H3
Compound 2: benzeneboronic acid, C6H7BO2, InChI=1S/C6H7BO2/c8-7(9)6-4-2-1-3-5-6/h1-5,8-9H
Compound 3: biphenyl, C12H10, InChI=1S/C12H10/c1-3-7-11(8-4-1)12-9-5-2-6-10-12/h1-10H
Compound 4: iodobenzene, C6H5I, InChI=1S/C6H5I/c7-6-4-2-1-3-5-6/h1-5H
Compound 5: carbon dioxide, CO2, InChI=1S/CO2/c2-1-3

System: carbon dioxide + 4-methylbiphenyl; phases: Liquid, Gas
Property: Mole fraction of 4-methylbiphenyl (Liquid); method: calculated from relative permittivity
Temperature, K	Pressure, kPa	Mole fraction of 4-methylbiphenyl	uncertainty
353.15	10290	0.0022	0.0003
353.15	15100	0.0032	0.0004
353.15	20010	0.0086	0.0011
353.15	25010	0.0216	0.0027
353.15	29220	0.032	0.004
383.15	10510	0.0019	0.0002
383.15	15360	0.0035	0.0004
383.15	20130	0.0085	0.0011
383.15	25080	0.0156	0.0019
383.15	28740	0.0223	0.0028

System: benzeneboronic acid + carbon dioxide; phases: Liquid, Gas
Property: Mole fraction of carbon dioxide (Liquid); method: calculated from relative permittivity
Temperature, K	Pressure, kPa	Mole fraction of carbon dioxide	uncertainty
353.15	10020	0.0001	0.0001
353.15	14950	0.0001	0.0001
353.15	19980	0.0001	0.0001
353.15	25370	0.00011	0.00011
353.15	29720	0.00011	0.00011
383.15	9930	0.00021	0.00021
383.15	14630	0.0002	0.0002
383.15	20200	0.00021	0.00021
383.15	25140	0.00021	0.00021
383.15	30040	0.00022	0.00022

System: carbon dioxide + iodobenzene; phases: Liquid, Gas
Property: Mole fraction of carbon dioxide (Liquid); method: calculated from relative permittivity
Temperature, K	Pressure, kPa	Mole fraction of carbon dioxide	uncertainty
353.15	10130	0.0055	0.0007
353.15	15060	0.023	0.0029
353.15	17680	0.0369	0.0046
353.15	20060	0.0524	0.0065
353.15	22070	0.0731	0.0091
383.15	10230	0.009	0.0011
383.15	15080	0.0213	0.0026
383.15	20110	0.0374	0.0046
383.15	22030	0.0515	0.0064
383.15	24850	0.0788	0.0098

System: biphenyl + carbon dioxide; phases: Liquid, Gas
Property: Mole fraction of carbon dioxide (Liquid); method: calculated from relative permittivity
Temperature, K	Pressure, kPa	Mole fraction of carbon dioxide	uncertainty
353.15	10220	0.0012	0.0002
353.15	15070	0.0035	0.0004
353.15	20040	0.0117	0.0015
353.15	25110	0.0246	0.0031
353.15	29350	0.0364	0.0045
383.15	10180	0.0016	0.0002
383.15	15100	0.0039	0.0005
383.15	20060	0.0091	0.0011
383.15	25080	0.0172	0.0021
383.15	29540	0.0265	0.0033
