Measured thermophysical data. Vapor-Liquid Equilibria in the Systems Ethyl Lactate + Ethanol and Ethyl Lactate + Water
Source: J. Chem. Eng. Data, 2006, 10.1021/je050537y
Compound 1: (S)-(-)-ethyl lactate, C5H10O3, InChI=1S/C5H10O3/c1-3-8-5(7)4(2)6/h4,6H,3H2,1-2H3/t4-/m0/s1, purity 98%
Compound 2: ethanol, C2H6O, InChI=1S/C2H6O/c1-2-3/h3H,2H2,1H3, purity 99%
Compound 3: water, H2O, InChI=1S/H2O/h1H2, purity 99%

System: ethanol + water; phases: Liquid, Gas
Fixed: Temperature, K = 313.15
Property: Vapor or sublimation pressure, kPa (Liquid); method: ISOPVT
Mole fraction of ethanol	Vapor or sublimation pressure, kPa	uncertainty
0	7.41	0.78
0.005	7.83	0.78
0.007	8.08	0.78
0.01	8.27	0.78
0.014	8.55	0.78
0.02	8.97	0.78
0.026	9.32	0.78
0.035	9.85	0.78
0.05	10.64	0.78
0.075	11.72	0.78
0.085	12.17	0.78
0.108	13.01	0.78
0.111	13.12	0.78
0.136	13.77	0.78
0.158	14.25	0.78
0.201	14.93	0.78
0.256	15.51	0.78
0.319	15.79	0.78
0.418	16.37	0.78
0.448	16.57	0.78
0.518	16.96	0.78
0.583	17.21	0.78
0.682	17.51	0.78
0.748	17.71	0.78
0.828	17.81	0.78
0.892	17.95	0.78
0.943	18	0.78
1	18	0.78

System: ethanol + water; phases: Gas, Liquid
Fixed: Temperature, K = 313.15
Property: Mole fraction of ethanol (Gas); method: CHROM:UFactor:8
Mole fraction of ethanol	Mole fraction of ethanol	uncertainty
0	0	0.001
0.005	0.036	0.01
0.007	0.069	0.011
0.01	0.096	0.012
0.014	0.133	0.013
0.02	0.181	0.016
0.026	0.221	0.018
0.035	0.269	0.021
0.05	0.332	0.025
0.075	0.407	0.03
0.085	0.421	0.031
0.108	0.478	0.036
0.111	0.474	0.035
0.136	0.519	0.036
0.158	0.541	0.034
0.201	0.573	0.032
0.256	0.598	0.03
0.319	0.612	0.029
0.418	0.655	0.026
0.448	0.66	0.03
0.518	0.697	0.023
0.583	0.73	0.021
0.682	0.767	0.019
0.748	0.805	0.017
0.828	0.841	0.015
0.892	0.893	0.012
0.943	0.96	0.01
1	1	0.001

System: ethanol + (S)-(-)-ethyl lactate; phases: Liquid, Gas
Property: Vapor or sublimation pressure, kPa (Liquid); method: ISOPVT
Mole fraction of (S)-(-)-ethyl lactate	Temperature, K	Vapor or sublimation pressure, kPa	uncertainty
0	313.15	18.01	0.78
0	333.25	47.21	0.8
0	353.35	109.12	0.95
0.073	313.15	17.31	0.78
0.097	313.15	16.99	0.78
0.102	313.15	16.81	0.78
0.106	353.35	101.42	0.93
0.12	313.15	16.37	0.78
0.121	353.35	100.31	0.93
0.128	333.25	42.46	0.8
0.172	313.15	15.81	0.78
0.195	333.25	39.81	0.8
0.203	353.35	92.05	0.9
0.239	313.15	14.76	0.78
0.259	333.25	37.17	0.8
0.266	333.25	36.97	0.8
0.283	313.15	14.23	0.78
0.316	353.35	81.3	0.87
0.316	353.35	81.37	0.87
0.329	313.15	13.31	0.78
0.354	333.25	33.26	0.79
0.386	333.25	32.1	0.79
0.43	313.15	11.76	0.78
0.443	353.35	67.94	0.83
0.448	333.25	29.38	0.79
0.532	333.25	25.52	0.79
0.534	353.35	57.66	0.82
0.554	313.15	9.92	0.78
0.559	333.25	25.05	0.79
0.608	313.15	9.21	0.78
0.62	353.35	47.94	0.81
0.641	333.25	20.86	0.79
0.675	333.25	19.24	0.78
0.689	313.15	7.91	0.78
0.705	353.35	38.54	0.8
0.722	333.25	17.64	0.78
0.754	313.15	6.55	0.78
0.774	333.25	14.51	0.78
0.775	353.35	30.82	0.8
0.814	313.15	5.45	0.78
0.836	333.25	11.41	0.78
0.862	313.15	4.28	0.78
0.863	353.35	22.08	0.79
0.893	313.15	3.59	0.78
0.897	333.25	8.55	0.78
0.935	353.35	14.08	0.79
0.946	333.25	5.97	0.78
0.951	313.15	2.57	0.78
1	313.15	1.12	0.78
1	333.25	3.03	0.78
1	353.35	7.63	0.78

System: ethanol + (S)-(-)-ethyl lactate; phases: Gas, Liquid
Property: Mole fraction of (S)-(-)-ethyl lactate (Gas); method: CHROM:UFactor:8
Mole fraction of (S)-(-)-ethyl lactate	Temperature, K	Mole fraction of (S)-(-)-ethyl lactate	uncertainty
0	313.15	0	0.001
0	333.25	0	0.001
0	353.35	0	0.001
0.073	313.15	0.003	0.003
0.097	313.15	0.004	0.004
0.102	313.15	0.012	0.01
0.106	353.35	0.007	0.007
0.12	313.15	0.006	0.006
0.121	353.35	0.013	0.01
0.128	333.25	0.012	0.01
0.172	313.15	0.008	0.008
0.195	333.25	0.011	0.01
0.203	353.35	0.02	0.01
0.239	313.15	0.024	0.01
0.259	333.25	0.019	0.01
0.266	333.25	0.022	0.01
0.283	313.15	0.015	0.01
0.316	353.35	0.032	0.01
0.316	353.35	0.036	0.01
0.329	313.15	0.029	0.01
0.354	333.25	0.027	0.01
0.386	333.25	0.034	0.01
0.43	313.15	0.042	0.01
0.443	353.35	0.059	0.011
0.448	333.25	0.039	0.01
0.532	333.25	0.052	0.011
0.534	353.35	0.075	0.011
0.554	313.15	0.061	0.011
0.559	333.25	0.06	0.011
0.608	313.15	0.074	0.011
0.62	353.35	0.101	0.012
0.641	333.25	0.073	0.011
0.675	333.25	0.095	0.012
0.689	313.15	0.093	0.012
0.705	353.35	0.133	0.013
0.722	333.25	0.101	0.012
0.754	313.15	0.125	0.013
0.774	333.25	0.148	0.014
0.775	353.35	0.184	0.016
0.814	313.15	0.16	0.015
0.836	333.25	0.205	0.017
0.862	313.15	0.219	0.018
0.863	353.35	0.283	0.022
0.893	313.15	0.271	0.021
0.897	333.25	0.306	0.023
0.935	353.35	0.488	0.037
0.946	333.25	0.482	0.037
0.951	313.15	0.433	0.033
1	313.15	1	0.001
1	333.25	1	0.001
1	353.35	1	0.001

System: (S)-(-)-ethyl lactate + water; phases: Liquid, Gas
Property: Vapor or sublimation pressure, kPa (Liquid); method: ISOPVT
Mole fraction of (S)-(-)-ethyl lactate	Temperature, K	Vapor or sublimation pressure, kPa	uncertainty
0	313.15	7.47	0.78
0	333.15	20.01	0.78
0.005	333.15	20.15	0.78
0.012	333.15	20.33	0.78
0.022	333.15	20.56	0.78
0.023	333.15	20.48	0.78
0.025	313.15	7.49	0.78
0.027	333.15	20.41	0.78
0.042	333.15	20.68	0.78
0.07	333.15	20.69	0.78
0.073	313.15	7.61	0.78
0.106	333.15	20.72	0.78
0.124	313.15	7.65	0.78
0.137	313.15	7.61	0.78
0.146	333.15	20.7	0.78
0.171	313.15	7.67	0.78
0.187	333.15	20.7	0.78
0.197	333.15	20.61	0.78
0.225	313.15	7.64	0.78
0.248	333.15	20.4	0.78
0.248	333.15	20.57	0.78
0.252	313.15	7.48	0.78
0.3	313.15	7.56	0.78
0.328	333.15	20.01	0.78
0.367	313.15	7.48	0.78
0.374	313.15	7.47	0.78
0.399	333.15	19.55	0.78
0.433	313.15	7.27	0.78
0.446	333.15	19.04	0.78
0.488	333.15	18.4	0.78
0.502	313.15	7.01	0.78
0.518	333.15	18.01	0.78
0.568	333.15	16.97	0.78
0.62	313.15	6.07	0.78
0.638	333.15	16.03	0.78
0.694	333.15	14.72	0.78
0.699	313.15	5.2	0.78
0.763	333.15	13.21	0.78
0.77	313.15	4.56	0.78
0.808	333.15	11.56	0.78
0.834	313.15	3.93	0.78
0.856	333.15	10.44	0.78
0.874	313.15	3.25	0.78
0.891	333.15	8.53	0.9
0.892	333.15	9.04	0.9
0.903	313.15	3.05	0.78
0.912	333.15	7.83	0.78
0.935	313.15	2.44	0.78
0.938	333.15	7.04	0.78
0.945	313.15	2.28	0.78
0.949	333.15	6.01	0.78
0.952	313.15	2.12	0.78
0.958	313.15	2	0.78
0.964	313.15	1.87	0.78
0.97	313.15	1.76	0.78
0.973	333.15	4.91	0.78
0.975	313.15	1.63	0.78
0.985	313.15	1.44	0.78
0.994	313.15	1.23	0.78
1	313.15	1.12	0.78
1	333.15	3.03	0.78

System: (S)-(-)-ethyl lactate + water; phases: Gas, Liquid
Property: Mole fraction of (S)-(-)-ethyl lactate (Gas); method: CHROM:UFactor:8
Mole fraction of (S)-(-)-ethyl lactate	Temperature, K	Mole fraction of (S)-(-)-ethyl lactate	uncertainty
0	313.15	0	0.001
0	333.15	0	0.001
0.005	333.15	0.005	0.005
0.012	333.15	0.012	0.012
0.022	333.15	0.027	0.016
0.023	333.15	0.032	0.016
0.025	313.15	0.015	0.015
0.027	333.15	0.033	0.016
0.042	333.15	0.044	0.016
0.07	333.15	0.049	0.016
0.073	313.15	0.039	0.016
0.106	333.15	0.052	0.016
0.124	313.15	0.046	0.016
0.137	313.15	0.085	0.017
0.146	333.15	0.055	0.016
0.171	313.15	0.05	0.016
0.187	333.15	0.059	0.017
0.197	333.15	0.059	0.017
0.225	313.15	0.061	0.017
0.248	333.15	0.071	0.017
0.248	333.15	0.066	0.017
0.252	313.15	0.087	0.017
0.3	313.15	0.068	0.017
0.328	333.15	0.078	0.017
0.367	313.15	0.094	0.017
0.374	313.15	0.073	0.017
0.399	333.15	0.078	0.017
0.433	313.15	0.103	0.017
0.446	333.15	0.092	0.017
0.488	333.15	0.094	0.017
0.502	313.15	0.111	0.018
0.518	333.15	0.089	0.017
0.568	333.15	0.115	0.018
0.62	313.15	0.153	0.019
0.638	333.15	0.135	0.018
0.694	333.15	0.152	0.019
0.699	313.15	0.197	0.021
0.763	333.15	0.198	0.021
0.77	313.15	0.24	0.023
0.808	333.15	0.222	0.022
0.834	313.15	0.272	0.025
0.856	333.15	0.28	0.025
0.874	313.15	0.361	0.03
0.891	333.15	0.315	0.027
0.892	333.15	0.319	0.027
0.903	313.15	0.388	0.031
0.912	333.15	0.351	0.029
0.935	313.15	0.474	0.037
0.938	333.15	0.405	0.032
0.945	313.15	0.5	0.039
0.949	333.15	0.457	0.036
0.952	313.15	0.56	0.035
0.958	313.15	0.584	0.034
0.964	313.15	0.626	0.032
0.97	313.15	0.661	0.03
0.973	333.15	0.594	0.034
0.975	313.15	0.722	0.027
0.985	313.15	0.811	0.024
0.994	313.15	0.941	0.021
1	313.15	1	0.001
1	333.15	1	0.001
