Measured thermophysical data. Solubility of Erythromycin A Dihydrate in Different Pure Solvents and Acetone + Water Binary Mixtures between 293 K and 323 K
Source: J. Chem. Eng. Data, 2006, 10.1021/je0505265
Compound 1: erythromycin A dihydrate, C37H71NO15, InChI=1S/C37H67NO13.2H2O/c1-14-25-37(10,45)30(41)20(4)27(39)18(2)16-35(8,44)32(51-34-28(40)24(38(11)12)15-19(3)47-34)21(5)29(22(6)33(43)49-25)50-26-17-36(9,46-13)31(42)23(7)48-26;;/h18-26,28-32,34,40-42,44-45H,14-17H2,1-13H3;2*1H2/t18-,19-,20+,21+,22-,23+,24+,25-,26+,28-,29+,30-,31+,32-,34+,35-,36-,37-;;/m1../s1, purity 99.4%
Compound 2: ethanol, C2H6O, InChI=1S/C2H6O/c1-2-3/h3H,2H2,1H3
Compound 3: propan-2-ol, C3H8O, InChI=1S/C3H8O/c1-3(2)4/h3-4H,1-2H3
Compound 4: methanol, CH4O, InChI=1S/CH4O/c1-2/h2H,1H3
Compound 5: acetone, C3H6O, InChI=1S/C3H6O/c1-3(2)4/h1-2H3, purity 99%
Compound 6: trichloromethane, CHCl3, InChI=1S/CHCl3/c2-1(3)4/h1H
Compound 7: water, H2O, InChI=1S/H2O/h1H2, purity 99%

System: erythromycin A dihydrate; phases: Crystal, Liquid, Air at 1 atmosphere
Property: Normal melting temperature, K (Crystal); method: DTA
Normal melting temperature, K	uncertainty
410.8	0.5

System: ethanol + erythromycin A dihydrate; phases: Liquid, Crystal
Fixed: Pressure, kPa = 101
Property: Mole fraction of erythromycin A dihydrate (Liquid); method: Last crystal disappearance monitored with laser intensity
Temperature, K	Mole fraction of erythromycin A dihydrate	uncertainty
293.2	0.01483	0.00059
298	0.01919	0.00077
303.15	0.02544	0.00102
308	0.03383	0.00138
313.1	0.046	0.00189
318	0.062	0.00259
323	0.081	0.00344

System: propan-2-ol + erythromycin A dihydrate; phases: Liquid, Crystal
Fixed: Pressure, kPa = 101
Property: Mole fraction of erythromycin A dihydrate (Liquid); method: Last crystal disappearance monitored with laser intensity
Temperature, K	Mole fraction of erythromycin A dihydrate	uncertainty
293.2	0.003	9.2e-05
298	0.004012	0.000123
303.15	0.00556	0.00017
308	0.007542	0.000231
313.1	0.009953	0.000307
318	0.0143	0.00044
323	0.0194	0.0006

System: methanol + erythromycin A dihydrate; phases: Liquid, Crystal
Fixed: Pressure, kPa = 101
Property: Mole fraction of erythromycin A dihydrate (Liquid); method: Last crystal disappearance monitored with laser intensity
Temperature, K	Mole fraction of erythromycin A dihydrate	uncertainty
293.2	0.01162	0.00066
298	0.01432	0.00081
303.15	0.01789	0.00102
308	0.02154	0.00123
313.1	0.02534	0.00145
318	0.0305	0.00176
323	0.0373	0.00217

System: acetone + erythromycin A dihydrate; phases: Liquid, Crystal
Fixed: Pressure, kPa = 101
Property: Mole fraction of erythromycin A dihydrate (Liquid); method: Last crystal disappearance monitored with laser intensity
Temperature, K	Mole fraction of erythromycin A dihydrate	uncertainty
293.2	0.00914	0.000296
298	0.0131	0.00043
303.15	0.0217	0.0007
308	0.0293	0.00096
313.1	0.0433	0.00142
318	0.0542	0.0018
323	0.0804	0.00274

System: trichloromethane + erythromycin A dihydrate; phases: Liquid, Crystal
Fixed: Pressure, kPa = 101
Property: Mole fraction of erythromycin A dihydrate (Liquid); method: Last crystal disappearance monitored with laser intensity
Temperature, K	Mole fraction of erythromycin A dihydrate	uncertainty
293.2	0.003914	7.3e-05
298	0.005399	0.000104
303.15	0.008749	0.000169
308	0.01341	0.00026
313.1	0.02159	0.00041
318	0.03129	0.0006
323	0.04734	0.00089

System: water + erythromycin A dihydrate; phases: Liquid, Crystal
Fixed: Pressure, kPa = 101
Property: Mole fraction of erythromycin A dihydrate (Liquid); method: Last crystal disappearance monitored with laser intensity
Temperature, K	Mole fraction of erythromycin A dihydrate	uncertainty
293.2	5.4e-05	5e-06
298	4.7e-05	5e-06
303.15	4.2e-05	4e-06
308	4e-05	4e-06
313.1	3.8e-05	4e-06
318	3.5e-05	4e-06
323	3.4e-05	3e-06

System: acetone + water + erythromycin A dihydrate; phases: Liquid, Crystal
Fixed: Pressure, kPa = 101
Property: Mole fraction of acetone (Liquid); method: Last crystal disappearance monitored with laser intensity
Temperature, K	Solvent: Mole fraction of water	Mole fraction of acetone	uncertainty
293.2	0.2649	0.006	0.0006
293.2	0.4465	0.00341	0.000341
293.2	0.5935	0.00181	0.000181
293.2	0.6827	0.000824	8.24e-05
293.2	0.7636	0.0003621	3.62e-05
293.2	0.8273	0.0002501	2.5e-05
293.2	0.8826	0.0001914	1.91e-05
293.2	0.929	0.0001434	1.43e-05
293.2	0.9668	5.854e-05	5.85e-06
298	0.2649	0.0082	0.00082
298	0.4465	0.00471	0.000471
298	0.5935	0.002389	0.000239
298	0.6827	0.001177	0.0001177
298	0.7636	0.0005021	5.02e-05
298	0.8273	0.0003312	3.31e-05
298	0.8826	0.0002166	2.17e-05
298	0.929	0.0001409	1.41e-05
298	0.9668	5.098e-05	5.1e-06
303.15	0.2649	0.01264	0.00126
303.15	0.4465	0.00632	0.000632
303.15	0.5935	0.00349	0.000349
303.15	0.6827	0.001721	0.0001721
303.15	0.7636	0.000732	7.32e-05
303.15	0.8273	0.0004298	4.3e-05
303.15	0.8826	0.0002323	2.32e-05
303.15	0.929	0.0001407	1.41e-05
303.15	0.9668	4.667e-05	4.67e-06
308	0.2649	0.017	0.0017
308	0.4465	0.00828	0.000828
308	0.5935	0.00492	0.000492
308	0.6827	0.00243	0.000243
308	0.7636	0.0009612	9.61e-05
308	0.8273	0.0005359	5.36e-05
308	0.8826	0.0002483	2.48e-05
308	0.929	0.00014	1.4e-05
308	0.9668	4.186e-05	4.19e-06
313.1	0.2649	0.02464	0.00246
313.1	0.4465	0.01183	0.00118
313.1	0.5935	0.00638	0.000638
313.1	0.6827	0.00301	0.000301
313.1	0.7636	0.00119	0.000119
313.1	0.8273	0.0006182	6.18e-05
313.1	0.8826	0.0002718	2.72e-05
313.1	0.929	0.0001388	1.39e-05
313.1	0.9668	3.857e-05	3.86e-06
318	0.2649	0.03097	0.0031
318	0.4465	0.01489	0.00149
318	0.5935	0.00827	0.000827
318	0.6827	0.00389	0.000389
318	0.7636	0.00158	0.000158
318	0.8273	0.0007386	7.39e-05
318	0.8826	0.0002899	2.9e-05
318	0.929	0.000138	1.38e-05
318	0.9668	3.623e-05	3.62e-06
323	0.2649	0.04536	0.00454
323	0.4465	0.02155	0.00216
323	0.5935	0.01069	0.00107
323	0.6827	0.00511	0.000511
323	0.7636	0.00201	0.000201
323	0.8273	0.0008953	8.95e-05
323	0.8826	0.0003205	3.21e-05
323	0.929	0.0001376	1.38e-05
323	0.9668	3.267e-05	3.27e-06
