Measured thermophysical data. Thermal Properties of Tristearin by Adiabatic and Differential Scanning Calorimetry
Source: J. Chem. Eng. Data, 2005, 10.1021/je050092d
Compound 1: glycerol trioctadecanoate, C57H110O6, InChI=1S/C57H110O6/c1-4-7-10-13-16-19-22-25-28-31-34-37-40-43-46-49-55(58)61-52-54(63-57(60)51-48-45-42-39-36-33-30-27-24-21-18-15-12-9-6-3)53-62-56(59)50-47-44-41-38-35-32-29-26-23-20-17-14-11-8-5-2/h54H,4-53H2,1-3H3, purity 99%

System: glycerol trioctadecanoate; phases: Crystal, Liquid, Gas
Property: Molar enthalpy of transition or fusion, kJ/mol (Crystal); method: Adiabatic calorimetry
Molar enthalpy of transition or fusion, kJ/mol	uncertainty
197.55190152	1.7829594

System: glycerol trioctadecanoate; phases: Metastable crystal, Liquid, Gas
Property: Molar enthalpy of transition or fusion, kJ/mol (Metastable crystal); method: Adiabatic calorimetry
Molar enthalpy of transition or fusion, kJ/mol	uncertainty
129.08626056	1.7829594

System: glycerol trioctadecanoate; phases: Crystal, Liquid, Gas
Property: Triple point temperature, K (Crystal); method: Adiabatic calorimetry
Triple point temperature, K	uncertainty
345.94	0.04

System: glycerol trioctadecanoate; phases: Metastable crystal, Liquid, Air at 1 atmosphere
Property: Normal melting temperature, K (Metastable crystal); method: Adiabatic calorimetry
Normal melting temperature, K	uncertainty
327.3	0.1

System: glycerol trioctadecanoate; phases: Crystal
Fixed: Pressure, kPa = 101.325
Property: Molar heat capacity at constant pressure, J/K/mol (Crystal); method: Vacuum adiabatic calorimetry
Temperature, K	Molar heat capacity at constant pressure, J/K/mol	uncertainty
9.6	10.6977564	17.829594
9.65	8.0233173	17.829594
9.71	12.4807158	17.829594
10.85	22.2869925	17.829594
11.58	22.2869925	17.829594
12.51	26.744391	17.829594
13.59	30.3103098	17.829594
13.96	32.9847489	17.829594
15.41	39.2251068	17.829594
15.56	43.6825053	17.829594
17.3	62.403579	17.829594
17.41	50.8143429	17.829594
19.33	69.5354166	17.829594
19.45	65.9694978	17.829594
21.54	79.3416933	17.829594
21.58	82.0161324	17.829594
23.71	98.062767	17.829594
23.86	100.7372061	17.829594
25.95	115.0008813	17.829594
26.19	116.7838407	17.829594
28.25	135.5049144	17.829594
28.56	137.2878738	17.829594
30.62	156.9004272	17.829594
30.93	149.7685896	17.829594
30.99	158.6833866	17.829594
33.29	184.5362979	17.829594
35.42	205.040331	17.829594
37.51	215.7380874	17.829594
39.73	224.6528844	17.829594
41.97	239.8080393	17.829594
44.25	262.9865115	17.829594
46.55	273.6842679	17.829594
48.96	294.188301	17.829594
51.41	312.017895	17.829594
53.88	332.5219281	17.829594
56.39	354.8089206	17.829594
58.93	372.6385146	17.829594
61.51	394.0340274	17.829594
64.13	415.4295402	17.829594
66.78	434.1506139	17.829594
69.45	451.9802079	17.829594
72.14	468.0268425	17.829594
74.85	484.0734771	17.829594
77.59	501.0115914	17.829594
80.34	514.3837869	17.829594
83.1	530.4304215	17.829594
85.71	540.2366982	17.829594
85.88	545.5855764	17.829594
88.61	554.5003734	17.829594
88.67	558.0662922	17.829594
91.44	566.0896095	17.829594
91.47	572.3299674	17.829594
94.27	578.5703253	17.829594
97.11	585.7021629	17.829594
99.95	597.291399	17.829594
102.8	610.6635945	17.829594
105.65	612.4465539	17.829594
108.5	616.0124727	17.829594
111.36	627.6017088	17.829594
114.22	640.0824246	17.829594
117.09	651.6716607	17.829594
119.95	661.4779374	17.829594
122.82	671.2842141	17.829594
125.7	680.1990111	17.829594
128.58	690.8967675	17.829594
131.46	729.2303946	17.829594
134.35	729.2303946	17.829594
137.23	716.7496788	17.829594
140.13	728.3389149	17.829594
143.02	739.928151	17.829594
145.92	759.5407044	17.829594
148.83	769.3469811	17.829594
151.73	778.2617781	17.829594
154.64	790.7424939	17.829594
157.55	793.416933	17.829594
160.46	818.3783646	17.829594
163.37	826.4016819	17.829594
166.29	837.990918	17.829594
169.2	848.6886744	17.829594
172.12	856.7119917	17.829594
175.04	870.0841872	17.829594
177.95	878.1075045	17.829594
180.87	890.5882203	17.829594
183.79	901.2859767	17.829594
186.7	921.7900098	17.829594
189.62	938.7281241	17.829594
192.54	957.4491978	17.829594
195.45	972.6043527	17.829594
198.37	976.1702715	17.829594
201.29	997.5657843	17.829594
204.21	1008.2635407	17.829594
207.13	1014.5038986	17.829594
210.05	1023.4186956	17.829594
212.96	1029.6590535	17.829594
215.88	1037.6823708	17.829594
218.8	1044.8142084	17.829594
221.72	1048.3801272	17.829594
224.64	1057.2949242	17.829594
227.55	1067.1012009	17.829594
230.47	1080.4733964	17.829594
233.39	1094.7370716	17.829594
236.3	1107.2177874	17.829594
239.22	1121.4814626	17.829594
242.14	1133.9621784	17.829594
245.06	1149.1173333	17.829594
247.98	1165.1639679	17.829594
250.9	1177.6446837	17.829594
253.82	1192.7998386	17.829594
256.74	1207.9549935	17.829594
259.67	1222.2186687	17.829594
262.6	1238.2653033	17.829594
265.53	1254.3119379	17.829594
268.46	1271.2500522	17.829594
271.39	1285.5137274	17.829594
274.33	1301.560362	17.829594
277.27	1327.4132733	17.829594
280.21	1339.0025094	17.829594
283.16	1355.049144	17.829594
286.11	1371.0957786	17.829594
289.07	1387.1424132	17.829594
292.03	1412.1038448	17.829594
294.99	1428.1504794	17.829594
297.32	1434.3908373	17.829594
297.96	1448.6545125	17.829594
298.4	1436.1737967	17.829594
299.84	1454.8948704	17.829594
300.94	1466.4841065	17.829594
301.82	1473.6159441	17.829594
303.79	1492.3370178	17.829594
304.05	1488.771099	17.829594
305.75	1508.3836524	17.829594
306.72	1514.6240103	17.829594
307.7	1523.5388073	17.829594
308.94	1529.7791652	17.829594
309.65	1536.0195231	17.829594
311.17	1544.0428404	17.829594
311.6	1552.0661577	17.829594
313.39	1560.9809547	17.829594
313.55	1569.8957517	17.829594
315.49	1579.7020284	17.829594
315.61	1576.1361096	17.829594
317.43	1598.4231021	17.829594
317.83	1598.4231021	17.829594
319.37	1627.8419322	17.829594
320.05	1624.2760134	17.829594
321.32	1642.1056074	17.829594
322.28	1645.6715262	17.829594
323.27	1659.9352014	17.829594
324.5	1666.1755593	17.829594
325.23	1682.2221939	17.829594
326.72	1692.9199503	17.829594
327.2	1700.0517879	17.829594
328.95	1713.4239834	17.829594
329.17	1721.4473007	17.829594

System: glycerol trioctadecanoate; phases: Liquid
Fixed: Pressure, kPa = 101.325
Property: Molar heat capacity at constant pressure, J/K/mol (Liquid); method: Vacuum adiabatic calorimetry
Temperature, K	Molar heat capacity at constant pressure, J/K/mol	uncertainty
351.37	1971.0616167	19.6125534
353.63	1975.5190152	19.6125534
355.89	1981.7593731	19.6125534
358.16	1986.2167716	19.6125534
360.45	1992.4571295	19.6125534
362.74	1997.8060077	19.6125534
365.05	2004.9378453	20.5040331
367.37	2007.6122844	20.5040331
369.71	2015.6356017	20.5040331

System: glycerol trioctadecanoate; phases: Metastable crystal
Fixed: Pressure, kPa = 101.325
Property: Molar heat capacity at constant pressure, J/K/mol (Metastable crystal); method: Vacuum adiabatic calorimetry
Temperature, K	Molar heat capacity at constant pressure, J/K/mol	uncertainty
178.91	900.394497	17.829594
181.6	918.224091	17.829594
184.26	942.2940429	17.829594
186.88	974.3873121	17.829594
189.48	985.9765482	17.829594
192.06	995.7828249	17.829594
194.63	998.457264	17.829594
197.18	1005.5891016	17.829594
199.71	1029.6590535	17.829594
202.23	1053.7290054	17.829594
204.74	1074.2330385	17.829594
207.23	1089.3881934	17.829594
209.71	1083.1478355	17.829594
212.17	1091.1711528	17.829594
214.62	1110.7837062	17.829594
217.06	1127.7218205	17.829594
219.48	1147.3343739	17.829594
221.9	1157.1406506	17.829594
224.3	1170.5128461	17.829594
226.69	1185.668001	17.829594
229.06	1200.8231559	17.829594
231.43	1217.7612702	17.829594
233.79	1238.2653033	17.829594
236.13	1256.0948973	17.829594
238.46	1271.2500522	17.829594
240.79	1288.1881665	17.829594
243.1	1307.8007199	17.829594
245.41	1327.4132733	17.829594
247.71	1339.8939891	17.829594
250	1358.6150628	17.829594
252.28	1376.4446568	17.829594
254.56	1397.8401696	17.829594
256.83	1412.9953245	17.829594
259.09	1426.36752	17.829594
261.34	1444.197114	17.829594
263.59	1461.1352283	17.829594
265.83	1478.9648223	17.829594
268.07	1495.0114569	17.829594
270.3	1515.51549	17.829594
272.53	1532.4536043	17.829594
274.75	1552.9576374	17.829594
276.96	1577.919069	17.829594
279.18	1590.3997848	17.829594
281.39	1610.0123382	17.829594
283.59	1629.6248916	17.829594
285.8	1647.4544856	17.829594
288	1670.6329578	17.829594
290.2	1689.3540315	17.829594
292.39	1716.0984225	17.829594
294.59	1733.0365368	17.829594
296.78	1763.3468466	17.829594
298.97	1787.4167985	17.829594
301.16	1815.9441489	17.829594

System: glycerol trioctadecanoate; phases: Crystal
Fixed: Pressure, kPa = 101.325
Property: Molar enthalpy, kJ/mol (Crystal); method: Vacuum adiabatic calorimetry
Temperature, K	Molar enthalpy, kJ/mol	uncertainty
10	0.035659188	0.008914797
20	0.44573985	0.008914797
30	1.533345084	0.017829594
40	3.485685627	0.035659188
50	6.133380336	0.062403579
60	9.547747587	0.098062767
70	13.755531771	0.142636752
80	18.605181339	0.187210737
90	23.98080393	0.240699519
100	29.766507183	0.303103098
110	35.882057925	0.3663981567
120	42.309626562	0.427910256
130	49.102701876	0.490313835
140	56.350431837	0.5714384877
150	63.865605708	0.641865384
160	71.76411585	0.722098557
170	80.090536248	0.80233173
180	88.773548526	0.8914797
190	97.88447106	0.98062767
200	107.60159979	1.06977564
210	117.6753204	1.15892361
220	128.01648492	1.24807158
230	138.62509335	1.42636752
240	149.59029366	1.5164069697
250	161.09038179	1.60466346
260	173.12535774	1.7829594
270	185.60607354	1.87210737
280	198.71082513	1.96125534
290	212.35046454	2.13955128
298.15	223.93970064	2.22869925
300	226.61413974	2.31784722
310	241.5909987	2.40699519
320	257.37018939	2.58529113
330	274.13000775	2.76358707

System: glycerol trioctadecanoate; phases: Crystal
Fixed: Pressure, kPa = 101.325
Property: Molar entropy, J/K/mol (Crystal); method: Vacuum adiabatic calorimetry
Temperature, K	Molar entropy, J/K/mol	uncertainty
10	5.3488782	0.8914797
20	32.0932692	0.8914797
30	74.8842948	0.8914797
40	130.1560362	1.7829594
50	188.9936964	2.6744391
60	251.3972754	3.5659188
70	315.5838138	4.4573985
80	380.6618319	6.2403579
90	443.9568906	7.1318376
100	504.5775102	8.0233173
110	562.5236907	8.914797
120	618.6869118	8.914797
130	673.0671735	9.8062767
140	726.5559555	10.6977564
150	778.2617781	11.5892361
160	829.9676007	12.4807158
170	879.8904639	13.3721955
180	929.8133271	14.2636752
190	978.8447106	15.164069697
200	1028.7675738	15.164069697
210	1077.7989573	16.0466346
220	1125.9388611	16.9381143
230	1173.1872852	17.829594
240	1219.5442296	18.7210737
250	1266.7926537	18.7210737
260	1314.0410778	19.6125534
270	1361.2895019	20.5040331
280	1408.537926	17.829594
290	1456.6778298	22.2869925
298.15	1495.9029366	22.2869925
300	1504.8177336	22.2869925
310	1553.8491171	23.1784722
320	1603.7719803	24.0699519
330	1655.4778029	24.9614316
