Measured thermophysical data. Ternary and Quaternary Liquid-Liquid Equilibria of Water + Methanol + Diisopropyl Ether and Water + Methanol + Diisopropyl Ether + Toluene Mixtures
Source: J. Chem. Eng. Data, 2005, 10.1021/je050258a
Compound 1: diisopropyl ether, C6H14O, InChI=1S/C6H14O/c1-5(2)7-6(3)4/h5-6H,1-4H3, purity 99%
Compound 2: heptane, C7H16, InChI=1S/C7H16/c1-3-5-7-6-4-2/h3-7H2,1-2H3, purity 99.7%
Compound 3: water, H2O, InChI=1S/H2O/h1H2
Compound 4: methanol, CH4O, InChI=1S/CH4O/c1-2/h2H,1H3, purity 99.7%

System: diisopropyl ether + heptane + water; phases: Liquid mixture 2, Liquid mixture 1
Fixed: Temperature, K = 298.15
Fixed: Pressure, kPa = 0
Property: Mole fraction of diisopropyl ether (Liquid mixture 2); method: Chromatography
Property: Mole fraction of water (Liquid mixture 1); method: Chromatography
Property: Mole fraction of diisopropyl ether (Liquid mixture 1); method: Chromatography
Mole fraction of water	Mole fraction of diisopropyl ether	uncertainty	Mole fraction of water	uncertainty	Mole fraction of diisopropyl ether	uncertainty
0.994	0.006	0.002	0.0383	0.002	0.9617	
0.9954	0.0046	0.002	0.0314	0.002	0.8583	
0.9979	0.0021	0.002	0.0307	0.002	0.8177	
0.9987	0.0013	0.0013	0.0295	0.002	0.7239	
0.9969	0.0031	0.002	0.0214	0.002	0.6445	
0.9989	0.0011	0.0011	0.0225	0.002	0.5347	
0.9993	0.0007	0.0007	0.0141	0.002	0.4476	
0.9991	0.0009	0.0009	0.0182	0.002	0.3435	
0.9996	0.0004	0.0004	0.01	0.002	0.2315	
0.9998	0.0002	0.0002	0.0055	0.002	0.135	
1	0	0.0001	0.0007	0.0007	0	

System: methanol + diisopropyl ether + water; phases: Liquid mixture 2, Liquid mixture 1
Fixed: Temperature, K = 298.15
Fixed: Pressure, kPa = 101
Property: Mole fraction of methanol (Liquid mixture 2); method: Chromatography
Property: Mole fraction of methanol (Liquid mixture 1); method: Chromatography
Property: Mole fraction of water (Liquid mixture 1); method: Chromatography
Mole fraction of water	Mole fraction of methanol	uncertainty	Mole fraction of methanol	uncertainty	Mole fraction of water	uncertainty
0.998	0	0.0001	0	0.0001	0.0289	
0.9085	0.0906	0.0029	0.0233	0.0035	0.0516	
0.8335	0.1642	0.003	0.0861	0.0038	0.0907	
0.774	0.2231	0.0032	0.1546	0.0033	0.1344	
0.7368	0.26	0.0033	0.2051	0.0031	0.1878	
0.6801	0.3094	0.0034	0.2329	0.0033	0.2144	
0.634	0.3473	0.0036	0.2929	0.0035	0.2741	

System: diisopropyl ether + water; phases: Liquid mixture 2, Liquid mixture 1
Fixed: Temperature, K = 298.15
Fixed: Pressure, kPa = 0
Property: Mole fraction of diisopropyl ether (Liquid mixture 2); method: Chromatography
Mole fraction of diisopropyl ether	uncertainty
0.006	0.002
0.0002	0.0002
0.0046	0.002
0.0021	0.002
0.0013	0.0013
0.0031	0.002
0.0011	0.0011
0.0007	0.0007
0.0009	0.0009
0.0004	0.0004

System: diisopropyl ether + water; phases: Liquid mixture 1, Liquid mixture 2
Fixed: Pressure, kPa = 101
Fixed: Temperature, K = 298.15
Property: Mole fraction of water (Liquid mixture 1); method: Chromatography
Mole fraction of water	uncertainty
0.0383	0.002
0.0289	

System: diisopropyl ether + water; phases: Liquid mixture 2, Liquid mixture 1
Property: Mole fraction of water (Liquid mixture 2); method: Chromatography
Temperature, K	Pressure, kPa	Mole fraction of water	uncertainty
298.15	101	0.998	

System: heptane + water; phases: Liquid mixture 1, Liquid mixture 2
Property: Mole fraction of water (Liquid mixture 1); method: Chromatography
Pressure, kPa	Temperature, K	Mole fraction of water	uncertainty
101	298.15	0.0007	0.0007
