Measured thermophysical data. Liquid-Liquid Equilibria for Binary and Ternary Systems Containing Glycols, Aromatic Hydrocarbons, and Water: Experimental Measurements and Modeling with the CPA EoS
Source: J. Chem. Eng. Data, 2006, 10.1021/je050485c
Compound 1: benzene, C6H6, InChI=1S/C6H6/c1-2-4-6-5-3-1/h1-6H, purity 99.7%
Compound 2: toluene, C7H8, InChI=1S/C7H8/c1-7-5-3-2-4-6-7/h2-6H,1H3, purity 99.9%
Compound 3: 1,2-ethanediol, C2H6O2, InChI=1S/C2H6O2/c3-1-2-4/h3-4H,1-2H2, purity 99.5%
Compound 4: triethylene glycol, C6H14O4, InChI=1S/C6H14O4/c7-1-3-9-5-6-10-4-2-8/h7-8H,1-6H2, purity 99%
Compound 5: water, H2O, InChI=1S/H2O/h1H2, purity 99%

System: benzene + 1,2-ethanediol; phases: Liquid mixture 1, Liquid mixture 2
Fixed: Pressure, kPa = 101
Property: Mole fraction of benzene (Liquid mixture 1); method: Chromatography
Temperature, K	Mole fraction of benzene	uncertainty
279.2	0.04664	0.0019
288.5	0.04878	0.00198
303.3	0.05005	0.00203
318.1	0.05105	0.00207
332.6	0.0553	0.00225
342.1	0.05569	0.00226

System: benzene + 1,2-ethanediol; phases: Liquid mixture 2, Liquid mixture 1
Fixed: Pressure, kPa = 101
Property: Mole fraction of 1,2-ethanediol (Liquid mixture 2); method: Chromatography
Temperature, K	Mole fraction of 1,2-ethanediol	uncertainty
279.2	0.00106	4e-05
288.5	0.00155	7e-05
303.3	0.00299	0.00012
318.1	0.00463	0.00019
332.6	0.00753	0.00031
342.1	0.00982	0.0004

System: 1,2-ethanediol + toluene; phases: Liquid mixture 2, Liquid mixture 1
Fixed: Pressure, kPa = 101
Property: Mole fraction of 1,2-ethanediol (Liquid mixture 2); method: Chromatography
Temperature, K	Mole fraction of 1,2-ethanediol	uncertainty
279.1	0.00104	4e-05
297.9	0.00211	9e-05
302.1	0.00254	0.0001
312.1	0.0032	0.00013
316.3	0.00379	0.00016
323.2	0.0047	0.00019
331.2	0.00603	0.00025
345.1	0.00957	0.00039
357.1	0.01471	0.0006
361	0.01671	0.00069

System: 1,2-ethanediol + toluene; phases: Liquid mixture 1, Liquid mixture 2
Fixed: Pressure, kPa = 101
Property: Mole fraction of toluene (Liquid mixture 1); method: Chromatography
Temperature, K	Mole fraction of toluene	uncertainty
279.1	0.01879	0.00076
297.9	0.02014	0.00082
302.1	0.02085	0.00085
312.1	0.02188	0.00089
316.3	0.02265	0.00092
323.2	0.02382	0.00097
331.2	0.02547	0.00104
345.1	0.02808	0.00114
357.1	0.03052	0.00124
361	0.0317	0.00129

System: benzene + triethylene glycol; phases: Liquid mixture 1, Liquid mixture 2
Fixed: Pressure, kPa = 101
Property: Mole fraction of benzene (Liquid mixture 1); method: Chromatography
Temperature, K	Mole fraction of benzene	uncertainty
279.6	0.63422	0.02552
281.6	0.64375	0.02589
283	0.64881	0.0261
284.3	0.65926	0.0265
287.6	0.67324	0.02704

System: benzene + triethylene glycol; phases: Liquid mixture 2, Liquid mixture 1
Fixed: Pressure, kPa = 101
Property: Mole fraction of triethylene glycol (Liquid mixture 2); method: Chromatography
Temperature, K	Mole fraction of triethylene glycol	uncertainty
279.6	0.07062	0.00287
281.6	0.07222	0.00296
283	0.07703	0.00319
284.3	0.08045	0.00359
287.6	0.10952	0.00478

System: toluene + triethylene glycol; phases: Liquid mixture 1, Liquid mixture 2
Fixed: Pressure, kPa = 101
Property: Mole fraction of toluene (Liquid mixture 1); method: Chromatography
Temperature, K	Mole fraction of toluene	uncertainty
279	0.30839	0.01253
293	0.3296	0.01339
302	0.3478	0.01413
312.8	0.35893	0.01458
321.2	0.38138	0.01551
331.5	0.41952	0.01706
344.2	0.46375	0.01917
345.4	0.48498	0.02002

System: toluene + triethylene glycol; phases: Liquid mixture 2, Liquid mixture 1
Fixed: Pressure, kPa = 101
Property: Mole fraction of triethylene glycol (Liquid mixture 2); method: Chromatography
Temperature, K	Mole fraction of triethylene glycol	uncertainty
279	0.01074	0.00045
293	0.01858	0.00076
302	0.02265	0.00093
312.8	0.03162	0.0013
321.2	0.04159	0.00171
331.5	0.05662	0.00233
344.2	0.08366	0.00343
345.4	0.08661	0.00355

System: benzene + 1,2-ethanediol + water; phases: Liquid mixture 1, Liquid mixture 2
Fixed: Pressure, kPa = 101
Property: Mole fraction of water (Liquid mixture 1); method: Chromatography
Property: Mole fraction of water (Liquid mixture 2); method: Chromatography
Property: Mole fraction of 1,2-ethanediol (Liquid mixture 2); method: Chromatography
Temperature, K	Mole fraction of 1,2-ethanediol	Mole fraction of water	uncertainty	Mole fraction of water	uncertainty	Mole fraction of 1,2-ethanediol	uncertainty
298.2	0.16615	0.83223	0.03397	0.00263	0.00011	0.00033	
298.2	0.23125	0.76673	0.0321	0.0024	0.00011	0.00046	
298.2	0.30397	0.69318	0.03042	0.00217	0.0001	0.0006	
298.2	0.3927	0.60314	0.02922	0.0019	9e-05	0.00078	
298.2	0.70065	0.2836	0.03128	0.00096	0.0001	0.00143	
323.2	0.16416	0.83423	0.03404	0.00514	0.00021	0.00076	
323.2	0.22487	0.77279	0.03226	0.00478	0.0002	0.00106	
323.2	0.2947	0.70211	0.0306	0.00457	0.0002	0.00142	
323.2	0.39293	0.60208	0.02921	0.00392	0.00019	0.00191	
323.2	0.70572	0.27666	0.03145	0.00187	0.0002	0.00352	

System: 1,2-ethanediol + toluene + water; phases: Liquid mixture 1, Liquid mixture 2
Fixed: Pressure, kPa = 101
Property: Mole fraction of water (Liquid mixture 1); method: Chromatography
Property: Mole fraction of water (Liquid mixture 2); method: Chromatography
Property: Mole fraction of 1,2-ethanediol (Liquid mixture 2); method: Chromatography
Temperature, K	Mole fraction of 1,2-ethanediol	Mole fraction of water	uncertainty	Mole fraction of water	uncertainty	Mole fraction of 1,2-ethanediol	uncertainty
298.2	0.64746	0.34555	0.02991	0.00094	8e-05	0.00134	
298.2	0.41494	0.58272	0.02892	0.00159	8e-05	0.0008	
298.2	0.22455	0.77494	0.03233	0.0022	0.0001	0.00038	
298.2	0.15167	0.84807	0.03448	0.00245	0.0001	0.00023	
323.2	0.64438	0.34696	0.02997	0.00197	0.00016	0.0033	
323.2	0.42687	0.57013	0.02884	0.0032	0.00016	0.00214	
323.2	0.21672	0.78255	0.03254	0.00438	0.00019	0.00105	
323.2	0.15942	0.84019	0.03423	0.00472	0.0002	0.00069	

System: toluene + triethylene glycol + water; phases: Liquid mixture 1, Liquid mixture 2
Fixed: Pressure, kPa = 101
Property: Mole fraction of water (Liquid mixture 1); method: Chromatography
Property: Mole fraction of water (Liquid mixture 2); method: Chromatography
Property: Mole fraction of triethylene glycol (Liquid mixture 2); method: Chromatography
Temperature, K	Mole fraction of triethylene glycol	Mole fraction of water	uncertainty	Mole fraction of water	uncertainty	Mole fraction of triethylene glycol	uncertainty
298.2	0.48877	0.4249	0.03154	0.00208	9e-05	0.0067	
298.2	0.28549	0.69939	0.0314	0.00237	0.0001	0.00212	
298.2	0.12033	0.87825	0.03548	0.00283	0.00012	0.00048	
298.2	0.08047	0.91886	0.0369	0.00308	0.00013	0.00024	
323.2	0.47967	0.42055	0.03167	0.00458	0.00019	0.01162	
323.2	0.26942	0.71271	0.0317	0.00488	0.0002	0.00395	
323.2	0.11123	0.88688	0.03578	0.00543	0.00022	0.00107	
323.2	0.07256	0.92657	0.03719	0.00579	0.00024	0.00056	
