Measured thermophysical data. Ternary Diffusion Coefficients of Glycerol + Acetone + Water by Taylor Dispersion Measurements at 298.15 K
Source: J. Chem. Eng. Data, 2005, 10.1021/je050082c
Compound 1: glycerol, C3H8O3, InChI=1S/C3H8O3/c4-1-3(6)2-5/h3-6H,1-2H2, purity 99.5%
Compound 2: water, H2O, InChI=1S/H2O/h1H2
Compound 3: acetone, C3H6O, InChI=1S/C3H6O/c1-3(2)4/h1-2H3, purity 99.9%

System: glycerol + water; phases: Liquid
Fixed: Temperature, K = 298.15
Fixed: Pressure, kPa = 101.3
Property: Binary diffusion coefficient, m2/s (Liquid); method: Taylor dispersion method
Mole fraction of glycerol	Binary diffusion coefficient, m2/s	uncertainty
0.0005	8.684e-10	0.0556
0.0007	8.648e-10	0.0554
0.0493	6.501e-10	0.0423
0.0509	6.499e-10	0.0422
0.0986	5.129e-10	0.0339
0.1012	4.964e-10	0.0329
0.1974	2.981e-10	0.0211
0.2018	2.982e-10	0.0212
0.293	1.602e-10	0.0134
0.293	1.602e-10	0.0134
0.3046	1.509e-10	0.0129
0.3894	9.66e-11	0.0102
0.3894	9.59e-11	0.0102

System: acetone + water; phases: Liquid
Fixed: Temperature, K = 298.15
Fixed: Pressure, kPa = 101.3
Property: Binary diffusion coefficient, m2/s (Liquid); method: Taylor dispersion method
Mole fraction of acetone	Binary diffusion coefficient, m2/s	uncertainty
0.0018	1.294e-09	0.1573
0.0018	1.2384e-09	0.1506
0.0041	1.206e-09	0.1467
0.0043	1.2259e-09	0.1491
0.0045	1.2132e-09	0.1476
0.0979	7.544e-10	0.0922
0.1061	7.566e-10	0.0925
0.2916	5.956e-10	0.0731
0.3068	5.956e-10	0.0731
0.4818	6.152e-10	0.0755
0.5161	8.943e-10	0.1091
0.5234	9.048e-10	0.1104
0.5375	9.38e-10	0.1144
0.6695	1.5651e-09	0.1901
0.6698	1.6316e-09	0.1981
0.7099	1.753e-09	0.2128
0.8547	3.4159e-09	0.4136
0.9774	4.6505e-09	0.5628

System: glycerol + acetone; phases: Liquid
Fixed: Temperature, K = 298.15
Fixed: Pressure, kPa = 101.3
Property: Binary diffusion coefficient, m2/s (Liquid); method: Taylor dispersion method
Mole fraction of acetone	Binary diffusion coefficient, m2/s	uncertainty
0.0039	2.3726e-09	0.148
0.0107	2.1833e-09	0.1364
0.0198	1.9229e-09	0.1204
0.0286	1.5458e-09	0.0972
