Measured thermophysical data. Speed of Sound of 2-Methylpentane, 2,3-Dimethylpentane, and 2,2,4-Trimethylpentane from (293.15 to 373.15) K and up to 150 MPa
Source: J. Chem. Eng. Data, 2005, 10.1021/je0502849
Compound 1: 2-methylpentane, C6H14, InChI=1S/C6H14/c1-4-5-6(2)3/h6H,4-5H2,1-3H3, purity 99%
Compound 2: 2,3-dimethylpentane, C7H16, InChI=1S/C7H16/c1-5-7(4)6(2)3/h6-7H,5H2,1-4H3, purity 99%
Compound 3: 2,2,4-trimethylpentane, C8H18, InChI=1S/C8H18/c1-7(2)6-8(3,4)5/h7H,6H2,1-5H3, purity 99%

System: 2-methylpentane; phases: Liquid
Property: Speed of sound, m/s (Liquid); method: Pulse-echo method
Pressure, kPa	Temperature, K	Speed of sound, m/s	uncertainty
100	293.15	1064.6	1.6
100	303.15	1016.5	1.5
100	313.15	971.8	1.5
100	323.15	927.3	1.5
10000	293.15	1145.5	1.5
10000	303.15	1102.8	1.5
10000	313.15	1061.7	1.5
10000	323.15	1022	1.5
10000	333.15	982.1	1.5
10000	343.15	943.2	1.4
10000	353.15	905	1.4
10000	363.15	867.4	1.4
10000	373.15	830.7	1.4
20000	293.15	1215.4	1.5
20000	303.15	1176	1.5
20000	313.15	1138.5	1.5
20000	323.15	1101.2	1.5
20000	333.15	1065.4	1.4
20000	343.15	1030.2	1.4
20000	353.15	996.4	1.4
20000	363.15	962.8	1.4
20000	373.15	931.1	1.4
30000	293.15	1277.6	1.5
30000	303.15	1240.8	1.5
30000	313.15	1205.5	1.5
30000	323.15	1170.8	1.4
30000	333.15	1137.2	1.4
30000	343.15	1104.8	1.4
30000	353.15	1073.6	1.4
30000	363.15	1042.9	1.4
30000	373.15	1013	1.4
40000	293.15	1334.9	1.5
40000	303.15	1299.5	1.5
40000	313.15	1265.9	1.5
40000	323.15	1233.9	1.4
40000	333.15	1201.3	1.4
40000	343.15	1170.9	1.4
40000	353.15	1141	1.4
40000	363.15	1112.8	1.4
40000	373.15	1084.6	1.4
50000	293.15	1386.9	1.5
50000	303.15	1352.6	1.5
50000	313.15	1321.2	1.5
50000	323.15	1289.9	1.4
50000	333.15	1260.2	1.4
50000	343.15	1230.4	1.4
50000	353.15	1201.8	1.4
50000	363.15	1174.7	1.4
50000	373.15	1148.2	1.4
60000	293.15	1434.8	1.5
60000	303.15	1403	1.5
60000	313.15	1372.2	1.5
60000	323.15	1342.1	1.5
60000	333.15	1313.1	1.4
60000	343.15	1284.6	1.4
60000	353.15	1257.8	1.4
60000	363.15	1231.7	1.4
60000	373.15	1206.3	1.4
70000	293.15	1480.4	1.5
70000	303.15	1449.6	1.5
70000	313.15	1419.4	1.5
70000	323.15	1391.6	1.5
70000	333.15	1363.4	1.5
70000	343.15	1335.3	1.4
70000	353.15	1309.7	1.4
70000	363.15	1284.1	1.4
70000	373.15	1259.6	1.4
80000	293.15	1523.4	1.5
80000	303.15	1492.9	1.5
80000	313.15	1464	1.5
80000	323.15	1436	1.5
80000	333.15	1408.6	1.5
80000	343.15	1381.8	1.4
80000	353.15	1356.7	1.4
80000	363.15	1332.7	1.4
80000	373.15	1309	1.4
90000	293.15	1564	1.5
90000	303.15	1534.6	1.5
90000	313.15	1506.3	1.5
90000	323.15	1478.4	1.5
90000	333.15	1452.5	1.5
90000	343.15	1426.6	1.5
90000	353.15	1402.3	1.4
90000	363.15	1378.4	1.4
90000	373.15	1354.6	1.4
100000	293.15	1602.3	1.5
100000	303.15	1573.5	1.5
100000	313.15	1546.3	1.5
100000	323.15	1519.2	1.5
100000	333.15	1493.6	1.5
100000	343.15	1468.3	1.5
100000	353.15	1444.8	1.4
100000	363.15	1421.9	1.4
100000	373.15	1399	1.4
110000	293.15	1638.5	1.5
110000	303.15	1610.7	1.5
110000	313.15	1584.2	1.5
110000	323.15	1558.7	1.5
110000	333.15	1532.6	1.5
110000	343.15	1508.4	1.5
110000	353.15	1485.1	1.5
110000	363.15	1462.6	1.4
110000	373.15	1440.8	1.4
120000	293.15	1674.4	1.5
120000	303.15	1646.9	1.5
120000	313.15	1620.7	1.5
120000	323.15	1595.2	1.5
120000	333.15	1570	1.5
120000	343.15	1546.2	1.5
120000	353.15	1523.3	1.5
120000	363.15	1501.1	1.5
120000	373.15	1479.6	1.5
130000	293.15	1708.1	1.6
130000	303.15	1681.6	1.5
130000	313.15	1655.7	1.5
130000	323.15	1630.8	1.5
130000	333.15	1605.9	1.5
130000	343.15	1582.5	1.5
130000	353.15	1560	1.5
130000	363.15	1538.3	1.5
130000	373.15	1517.1	1.5
140000	293.15	1740.8	1.6
140000	303.15	1714.3	1.6
140000	313.15	1689.6	1.5
140000	323.15	1664.2	1.5
140000	333.15	1640.4	1.5
140000	343.15	1617.2	1.5
140000	353.15	1595.2	1.5
140000	363.15	1573.9	1.5
140000	373.15	1553	1.5
150000	293.15	1771.8	1.6
150000	303.15	1746.6	1.6
150000	313.15	1721.4	1.6
150000	323.15	1696.8	1.5
150000	333.15	1673	1.5
150000	343.15	1650.2	1.5
150000	353.15	1628.8	1.5
150000	363.15	1607.8	1.5
150000	373.15	1587.5	1.5

System: 2,3-dimethylpentane; phases: Liquid
Property: Speed of sound, m/s (Liquid); method: Pulse-echo method
Pressure, kPa	Temperature, K	Speed of sound, m/s	uncertainty
100	293.15	1149.5	1.6
100	303.15	1103.2	1.5
100	313.15	1061.2	1.5
100	323.15	1017.4	1.5
100	333.15	973.7	1.5
100	343.15	931	1.5
100	353.15	889.5	1.4
100	363.15	849.4	1.4
100	373.15	808.9	1.4
10000	293.15	1220.2	1.5
10000	303.15	1178.6	1.5
10000	313.15	1138	1.5
10000	323.15	1099.7	1.5
10000	333.15	1061.7	1.5
10000	343.15	1022.5	1.4
10000	353.15	986.1	1.4
10000	363.15	950.4	1.4
10000	373.15	914.8	1.5
20000	293.15	1284.8	1.5
20000	303.15	1245.9	1.5
20000	313.15	1207.8	1.5
20000	323.15	1171.8	1.5
20000	333.15	1136.5	1.4
20000	343.15	1101.8	1.4
20000	353.15	1067.4	1.4
20000	363.15	1035.4	1.4
20000	373.15	1003.1	1.4
30000	293.15	1342.3	1.5
30000	303.15	1306.5	1.5
30000	313.15	1270.7	1.5
30000	323.15	1236.2	1.5
30000	333.15	1203.1	1.4
30000	343.15	1170.5	1.4
30000	353.15	1138.8	1.4
30000	363.15	1108.4	1.4
30000	373.15	1079	1.4
40000	293.15	1396.2	1.5
40000	303.15	1361.5	1.5
40000	313.15	1327.2	1.5
40000	323.15	1294.8	1.5
40000	333.15	1263.1	1.4
40000	343.15	1232	1.4
40000	353.15	1201.8	1.4
40000	363.15	1173.6	1.4
40000	373.15	1145.4	1.4
50000	293.15	1445.3	1.5
50000	303.15	1411.9	1.5
50000	313.15	1379.5	1.5
50000	323.15	1348.2	1.5
50000	333.15	1317.7	1.5
50000	343.15	1287.5	1.4
50000	353.15	1259.9	1.4
50000	363.15	1232.3	1.4
50000	373.15	1205.1	1.4
60000	293.15	1491.9	1.5
60000	303.15	1458.5	1.5
60000	313.15	1428.2	1.5
60000	323.15	1397.8	1.5
60000	333.15	1368.8	1.5
60000	343.15	1339.8	1.4
60000	353.15	1312.3	1.4
60000	363.15	1286.2	1.4
60000	373.15	1260.3	1.4
70000	293.15	1535.2	1.5
70000	303.15	1503.4	1.5
70000	313.15	1473.4	1.5
70000	323.15	1444.3	1.5
70000	333.15	1416	1.5
70000	343.15	1388.3	1.5
70000	353.15	1361.7	1.4
70000	363.15	1336.7	1.4
70000	373.15	1311.6	1.4
80000	293.15	1576.5	1.5
80000	303.15	1545.5	1.5
80000	313.15	1516.6	1.5
80000	323.15	1488.2	1.5
80000	333.15	1460.6	1.5
80000	343.15	1433.1	1.5
80000	353.15	1407.9	1.4
80000	363.15	1383.4	1.4
80000	373.15	1358.8	1.4
90000	293.15	1616.1	1.5
90000	303.15	1585.9	1.5
90000	313.15	1557.2	1.5
90000	323.15	1529.5	1.5
90000	333.15	1502.6	1.5
90000	343.15	1476.4	1.5
90000	353.15	1451	1.5
90000	363.15	1427.8	1.4
90000	373.15	1403.8	1.4
100000	293.15	1653	1.6
100000	303.15	1623.9	1.5
100000	313.15	1595.8	1.5
100000	323.15	1569.1	1.5
100000	333.15	1542.8	1.5
100000	343.15	1516.8	1.5
100000	353.15	1492.5	1.5
100000	363.15	1469.5	1.5
100000	373.15	1446.4	1.5
110000	293.15	1688.6	1.6
110000	303.15	1660	1.5
110000	313.15	1632.9	1.5
110000	323.15	1606.4	1.5
110000	333.15	1580.5	1.5
110000	343.15	1555.6	1.5
110000	353.15	1531.5	1.5
110000	363.15	1508.7	1.5
110000	373.15	1486.3	1.5
120000	293.15	1723.2	1.6
120000	303.15	1694.7	1.6
120000	313.15	1668.4	1.5
120000	323.15	1642.2	1.5
120000	333.15	1617.1	1.5
120000	343.15	1592.3	1.5
120000	353.15	1569.2	1.5
120000	363.15	1546.8	1.5
120000	373.15	1524.6	1.5
130000	293.15	1756.3	1.6
130000	303.15	1728.8	1.6
130000	313.15	1702.5	1.6
130000	323.15	1676.9	1.5
130000	333.15	1652.2	1.5
130000	343.15	1627.9	1.5
130000	353.15	1604.7	1.5
130000	363.15	1583	1.5
130000	373.15	1561.1	1.5
140000	293.15	1788	1.6
140000	303.15	1760.4	1.6
140000	313.15	1735.5	1.5
140000	323.15	1713.3	1.5
140000	333.15	1685.7	1.5
140000	343.15	1661.8	1.5
140000	353.15	1639.3	1.5
140000	363.15	1617.8	1.5
140000	373.15	1596.4	1.5
150000	293.15	1818.6	1.6
150000	303.15	1792.3	1.6
150000	313.15	1766.7	1.6
150000	323.15	1742.2	1.6
150000	333.15	1718.3	1.5
150000	343.15	1694.8	1.5
150000	353.15	1672.8	1.5
150000	363.15	1650.9	1.5
150000	373.15	1630.2	1.5

System: 2,2,4-trimethylpentane; phases: Liquid
Property: Speed of sound, m/s (Liquid); method: Pulse-echo method
Pressure, kPa	Temperature, K	Speed of sound, m/s	uncertainty
100	293.15	1104.6	1.5
100	303.15	1061.7	1.5
100	313.15	1019.1	1.5
100	323.15	977.9	1.5
100	333.15	935.8	1.4
100	343.15	897.3	1.4
100	353.15	858.2	1.4
100	363.15	817.2	1.4
100	373.15	780.4	1.4
10000	293.15	1178.5	1.5
10000	303.15	1139.3	1.5
10000	313.15	1100.9	1.5
10000	323.15	1063.5	1.4
10000	333.15	1026.6	1.4
10000	343.15	992.6	1.4
10000	353.15	958	1.4
10000	363.15	924.3	1.4
10000	373.15	891	1.4
20000	293.15	1244.6	1.5
20000	303.15	1208.6	1.5
20000	313.15	1173	1.5
20000	323.15	1138.8	1.4
20000	333.15	1105.2	1.4
20000	343.15	1071.6	1.4
20000	353.15	1041.7	1.4
20000	363.15	1011.1	1.4
20000	373.15	980.7	1.4
30000	293.15	1304.8	1.5
30000	303.15	1270.2	1.5
30000	313.15	1237	1.5
30000	323.15	1204.7	1.4
30000	333.15	1173	1.4
30000	343.15	1142.7	1.4
30000	353.15	1114.1	1.4
30000	363.15	1085.5	1.4
30000	373.15	1057.5	1.4
40000	293.15	1358.5	1.5
40000	303.15	1326.8	1.5
40000	313.15	1295.2	1.5
40000	323.15	1264.6	1.4
40000	333.15	1234.2	1.4
40000	343.15	1205.7	1.4
40000	353.15	1178.7	1.4
40000	363.15	1151.4	1.4
40000	373.15	1125.2	1.4
50000	293.15	1410.3	1.5
50000	303.15	1378.5	1.5
50000	313.15	1349.3	1.5
50000	323.15	1319	1.4
50000	333.15	1290.2	1.4
50000	343.15	1262.9	1.4
50000	353.15	1236.1	1.4
50000	363.15	1211.3	1.4
50000	373.15	1185.9	1.4
60000	293.15	1458.1	1.5
60000	303.15	1427	1.5
60000	313.15	1397.6	1.5
60000	323.15	1369.8	1.5
60000	333.15	1341.8	1.4
60000	343.15	1315.4	1.4
60000	353.15	1290.4	1.4
60000	363.15	1265.7	1.4
60000	373.15	1242.1	1.4
70000	293.15	1502.5	1.5
70000	303.15	1472.6	1.5
70000	313.15	1443.4	1.5
70000	323.15	1416.6	1.5
70000	333.15	1390	1.5
70000	343.15	1363.5	1.4
70000	353.15	1339.5	1.4
70000	363.15	1316.6	1.4
70000	373.15	1293.1	1.4
80000	293.15	1544.7	1.5
80000	303.15	1515.6	1.5
80000	313.15	1487.6	1.5
80000	323.15	1461.2	1.5
80000	333.15	1434.9	1.5
80000	343.15	1410.8	1.4
80000	353.15	1386.8	1.4
80000	363.15	1364.4	1.4
80000	373.15	1341.5	1.4
90000	293.15	1584.5	1.5
90000	303.15	1556.4	1.5
90000	313.15	1529	1.5
90000	323.15	1503.4	1.5
90000	333.15	1479	1.5
90000	343.15	1453.6	1.5
90000	353.15	1431	1.4
90000	363.15	1408.2	1.4
90000	373.15	1386	1.4
100000	293.15	1622.6	1.5
100000	303.15	1594.5	1.5
100000	313.15	1568.7	1.5
100000	323.15	1543.4	1.5
100000	333.15	1519	1.5
100000	343.15	1495.3	1.5
100000	353.15	1472.5	1.5
100000	363.15	1449.9	1.4
100000	373.15	1428.5	1.4
110000	293.15	1658.9	1.5
110000	303.15	1632.1	1.5
110000	313.15	1605.9	1.5
110000	323.15	1581.4	1.5
110000	333.15	1557.7	1.5
110000	343.15	1534	1.5
110000	353.15	1512.1	1.5
110000	363.15	1490.6	1.5
110000	373.15	1469.2	1.4
120000	293.15	1694	1.5
120000	303.15	1667.5	1.5
120000	313.15	1641.7	1.5
120000	323.15	1617.8	1.5
120000	333.15	1594.1	1.5
120000	343.15	1571.7	1.5
120000	353.15	1549.6	1.5
120000	363.15	1529	1.5
120000	373.15	1508.2	1.5
130000	293.15	1727.5	1.6
130000	303.15	1701.6	1.5
130000	313.15	1676.3	1.5
130000	323.15	1653.1	1.5
130000	333.15	1629.5	1.5
130000	343.15	1607.2	1.5
130000	353.15	1585.9	1.5
130000	363.15	1565.5	1.5
130000	373.15	1545.1	1.5
140000	293.15	1760.1	1.6
140000	303.15	1734.3	1.6
140000	313.15	1709.4	1.5
140000	323.15	1686.4	1.5
140000	333.15	1663.5	1.5
140000	343.15	1641.7	1.5
140000	353.15	1620.5	1.5
140000	363.15	1600.8	1.5
140000	373.15	1580.3	1.5
150000	293.15	1791.1	1.6
150000	303.15	1766.4	1.6
150000	313.15	1741.7	1.6
150000	323.15	1718.6	1.5
150000	333.15	1696.2	1.5
150000	343.15	1675	1.5
150000	353.15	1654.1	1.5
150000	363.15	1634.2	1.5
150000	373.15	1614	1.5
