Measured thermophysical data. Liquid-Liquid(-Liquid) Equilibria in Ternary Systems of Water + Cyclohexylamine + Aromatic Hydrocarbon (Toluene or Propylbenzene) or Aliphatic Hydrocarbon (Heptane or Octane)
Source: J. Chem. Eng. Data, 2006, 10.1021/je050520f
Compound 1: water, H2O, InChI=1S/H2O/h1H2
Compound 2: cyclohexylamine, C6H13N, InChI=1S/C6H13N/c7-6-4-2-1-3-5-6/h6H,1-5,7H2, purity 99.9%
Compound 3: toluene, C7H8, InChI=1S/C7H8/c1-7-5-3-2-4-6-7/h2-6H,1H3, purity 99.8%
Compound 4: propylbenzene, C9H12, InChI=1S/C9H12/c1-2-6-9-7-4-3-5-8-9/h3-5,7-8H,2,6H2,1H3, purity 99.5%
Compound 5: heptane, C7H16, InChI=1S/C7H16/c1-3-5-7-6-4-2/h3-7H2,1-2H3, purity 99.5%
Compound 6: octane, C8H18, InChI=1S/C8H18/c1-3-5-7-8-6-4-2/h3-8H2,1-2H3, purity 99.8%

System: water; phases: Liquid
Property: Refractive index (Na D-line) (Liquid); method: ABBE:monoch
Temperature, K	Pressure, kPa	Refractive index (Na D-line)	uncertainty
293.15	101.325	1.3336	0.0005

System: cyclohexylamine; phases: Liquid
Property: Refractive index (Na D-line) (Liquid); method: ABBE:monoch
Temperature, K	Pressure, kPa	Refractive index (Na D-line)	uncertainty
288.15	101.325	1.4624	0.0005

System: cyclohexylamine; phases: Liquid
Property: Mass density, kg/m3 (Liquid); method: VIBTUB:UFactor:2
Temperature, K	Pressure, kPa	Mass density, kg/m3	uncertainty
303.15	101.325	858.2	0.2

System: toluene; phases: Liquid
Property: Refractive index (Na D-line) (Liquid); method: ABBE:monoch
Temperature, K	Pressure, kPa	Refractive index (Na D-line)	uncertainty
293.15	101.325	1.496	0.0006

System: toluene; phases: Liquid
Property: Mass density, kg/m3 (Liquid); method: VIBTUB:UFactor:2
Temperature, K	Pressure, kPa	Mass density, kg/m3	uncertainty
293.15	101.325	866.78	0.19

System: propylbenzene; phases: Liquid
Property: Refractive index (Na D-line) (Liquid); method: ABBE:monoch
Temperature, K	Pressure, kPa	Refractive index (Na D-line)	uncertainty
298.15	101.325	1.4901	0.0006

System: propylbenzene; phases: Liquid
Property: Mass density, kg/m3 (Liquid); method: VIBTUB:UFactor:2
Temperature, K	Pressure, kPa	Mass density, kg/m3	uncertainty
298.15	101.325	860.79	0.28

System: heptane; phases: Liquid
Property: Refractive index (Na D-line) (Liquid); method: ABBE:monoch
Temperature, K	Pressure, kPa	Refractive index (Na D-line)	uncertainty
298.15	101.325	1.3853	0.0003

System: heptane; phases: Liquid
Property: Mass density, kg/m3 (Liquid); method: VIBTUB:UFactor:2
Temperature, K	Pressure, kPa	Mass density, kg/m3	uncertainty
298.15	101.325	679.43	0.36

System: octane; phases: Liquid
Property: Refractive index (Na D-line) (Liquid); method: ABBE:monoch:UFactor:2
Temperature, K	Pressure, kPa	Refractive index (Na D-line)	uncertainty
298.15	101.325	1.3946	0.0007

System: octane; phases: Liquid
Property: Mass density, kg/m3 (Liquid); method: VIBTUB:UFactor:2
Temperature, K	Pressure, kPa	Mass density, kg/m3	uncertainty
298.15	101.325	698.49	0.31

System: cyclohexylamine + heptane + water; phases: Liquid mixture 1, Liquid mixture 2, Liquid mixture 3
Fixed: Pressure, kPa = 101
Property: Mole fraction of heptane (Liquid mixture 1); method: Chromatography
Property: Mole fraction of heptane (Liquid mixture 2); method: Chromatography
Property: Mole fraction of heptane (Liquid mixture 3); method: Chromatography
Property: Mole fraction of water (Liquid mixture 1); method: Chromatography
Property: Mole fraction of water (Liquid mixture 2); method: Chromatography
Property: Mole fraction of water (Liquid mixture 3); method: Chromatography
Temperature, K	Mole fraction of heptane	uncertainty	Mole fraction of heptane	uncertainty	Mole fraction of heptane	uncertainty	Mole fraction of water	uncertainty	Mole fraction of water	uncertainty	Mole fraction of water	uncertainty
323.15	0.0083	0.005	0.7894	0.0053	0.0139	0.005	0.9833	0.005	0.0332	0.005	0.8895	0.0051
333.15	0.0006	0.0006	0.7047	0.0056	0.0296	0.005	0.9958	0.0042	0.0782	0.0051	0.8435	0.0052
343.15	0.0008	0.0008	0.4924	0.0065	0.0768	0.0051	0.9929	0.005	0.2342	0.0055	0.719	0.0055

System: cyclohexylamine + heptane + water; phases: Liquid mixture 2, Liquid mixture 1
Fixed: Pressure, kPa = 101
Property: Mole fraction of heptane (Liquid mixture 2); method: Chromatography
Property: Mole fraction of water (Liquid mixture 1); method: Chromatography
Property: Mole fraction of heptane (Liquid mixture 1); method: Chromatography
Temperature, K	Mole fraction of water	Mole fraction of heptane	uncertainty	Mole fraction of water	uncertainty	Mole fraction of heptane	uncertainty
298.15	0.9808	0.0001	0.0001	0.0053	0.0052	0.8982	
298.15	0.7844	0.0355	0.0051	0.0116	0.0054	0.873	
298.15	0.8826	0.0135	0.0051	0.0075	0.0051	0.895	
298.15	0.7409	0.0526	0.0055	0.0129	0.0054	0.87	
298.15	0.6285	0.1079	0.0053	0.0408	0.0054	0.808	
333.15	0.7249	0.0722	0.0052	0.1114	0.0055	0.65	
333.15	0.9965	0	0.0001	0.0058	0.0055	0.8852	

System: cyclohexylamine + heptane + water; phases: Liquid mixture 1, Liquid mixture 2
Fixed: Pressure, kPa = 101
Property: Mole fraction of heptane (Liquid mixture 1); method: Titration method
Mole fraction of water	Temperature, K	Mole fraction of heptane	uncertainty
0.0049	333.15	0.9548	0.0236
0.0169	293.15	0.8672	0.0086
0.0193	333.15	0.8426	0.0182
0.0354	333.15	0.7767	0.0101
0.0391	293.15	0.8142	0.0085
0.0556	293.15	0.7914	0.0079
0.0651	293.15	0.7772	0.0083
0.0705	293.15	0.769	0.0084
0.0717	333.15	0.7087	0.01
0.118	293.15	0.7013	0.0102
0.1453	333.15	0.6153	0.0125
0.1547	293.15	0.6522	0.0115
0.1806	293.15	0.618	0.0125
0.2072	333.15	0.5459	0.0144
0.2142	293.15	0.575	0.0137
0.2417	293.15	0.5398	0.0148
0.2599	333.15	0.4899	0.0155
0.2672	293.15	0.5078	0.0157
0.2903	293.15	0.479	0.0153
0.3142	293.15	0.4497	0.0144
0.3342	333.15	0.4134	0.0132
0.3363	293.15	0.4224	0.0137
0.3541	293.15	0.3976	0.013
0.3723	293.15	0.3737	0.0121
0.3969	293.15	0.3456	0.0113
0.4244	333.15	0.3208	0.0104
0.443	293.15	0.2884	0.0095
0.5177	333.15	0.232	0.0077
0.5462	293.15	0.1796	0.0065
0.6223	333.15	0.1413	0.0055
0.6597	293.15	0.0915	0.0045
0.6883	333.15	0.098	0.0045
0.706	293.15	0.066	0.0037
0.7555	333.15	0.0625	0.0037
0.8197	293.15	0.0278	0.0032
0.8459	333.15	0.0256	0.0033
0.8502	293.15	0.0211	0.0031
0.8795	293.15	0.0157	0.0031
0.9177	333.15	0.0055	0.0031
0.9211	293.15	0.0086	0.0031
0.9377	293.15	0.0062	0.003
0.9458	333.15	0.0018	0.0018
0.9479	293.15	0.0047	0.003
0.9674	293.15	0.0024	0.0024

System: cyclohexylamine + octane + water; phases: Liquid mixture 1, Liquid mixture 3, Liquid mixture 2
Fixed: Pressure, kPa = 101
Property: Mole fraction of octane (Liquid mixture 1); method: Titration method
Property: Mole fraction of octane (Liquid mixture 2); method: Titration method
Property: Mole fraction of octane (Liquid mixture 3); method: Titration method
Property: Mole fraction of water (Liquid mixture 1); method: Titration method
Property: Mole fraction of water (Liquid mixture 2); method: Titration method
Property: Mole fraction of water (Liquid mixture 3); method: Titration method
Temperature, K	Mole fraction of octane	uncertainty	Mole fraction of octane	uncertainty	Mole fraction of octane	uncertainty	Mole fraction of water	uncertainty	Mole fraction of water	uncertainty	Mole fraction of water	uncertainty
323.15	0.715	0.0095	0.0075	0.005	0.001	0.001	0.0578	0.0053	0.9252	0.0055	0.9829	0.005
333.15	0.6638	0.0108	0.016	0.005	0.001	0.001	0.0842	0.0055	0.8646	0.0063	0.99	0.005
343.15	0.6022	0.0139	0.0372	0.0053	0.001	0.001	0.1209	0.0083	0.7906	0.0082	0.9928	0.005
345.35	0.4601	0.0157	0.0659	0.0055	0.0021	0.0021	0.2473	0.0103	0.7312	0.0095	0.99	0.005

System: cyclohexylamine + octane + water; phases: Liquid mixture 1, Liquid mixture 2
Fixed: Pressure, kPa = 101
Property: Mole fraction of octane (Liquid mixture 1); method: Titration method
Temperature, K	Mole fraction of water	Mole fraction of octane	uncertainty
298.15	0.0274	0.845	0.0146
298.15	0.0578	0.7659	0.012
298.15	0.1493	0.6265	0.0138
298.15	0.177	0.5938	0.014
298.15	0.2063	0.5562	0.0151
298.15	0.2335	0.5232	0.0161
298.15	0.2559	0.4932	0.0166
298.15	0.2755	0.4694	0.0158
298.15	0.2952	0.4447	0.0151
298.15	0.315	0.4205	0.0144
298.15	0.3325	0.3985	0.0135
298.15	0.3608	0.3696	0.0128
298.15	0.3749	0.352	0.0127
298.15	0.3929	0.3299	0.0121
298.15	0.4171	0.3032	0.0114
298.15	0.4376	0.2789	0.011
298.15	0.4525	0.2615	0.0106
298.15	0.4684	0.2434	0.0102
298.15	0.5403	0.1654	0.0083
298.15	0.6296	0.0935	0.0067
298.15	0.6991	0.0546	0.0057
298.15	0.7584	0.0369	0.0053
298.15	0.8184	0.0224	0.0051
298.15	0.884	0.0116	0.0051
298.15	0.9116	0.0076	0.0051
298.15	0.9498	0.0023	0.0023
298.15	0.994	0.0001	0.0001
333.15	0.0046	0.9265	0.0277
333.15	0.0163	0.8575	0.0267
333.15	0.0306	0.7913	0.0206
333.15	0.0503	0.7263	0.0137
333.15	0.0902	0.6653	0.0126
333.15	0.0977	0.655	0.0129
333.15	0.153	0.5873	0.0141
333.15	0.1588	0.5807	0.0143
333.15	0.1981	0.5364	0.0154
333.15	0.2578	0.4724	0.0155
333.15	0.3236	0.4062	0.0136
333.15	0.3954	0.3333	0.0118
333.15	0.4606	0.2706	0.0103
333.15	0.5109	0.2248	0.0093
333.15	0.5614	0.1788	0.0083
333.15	0.6167	0.1327	0.0074
333.15	0.6429	0.1136	0.0068
333.15	0.6922	0.0821	0.0062
333.15	0.755	0.052	0.0055
333.15	0.837	0.0266	0.0053
333.15	0.9025	0.008	0.0051
333.15	0.952	0.002	0.002
333.15	0.9938	0.0004	0.0004

System: cyclohexylamine + octane + water; phases: Liquid mixture 2, Liquid mixture 1
Fixed: Pressure, kPa = 101
Property: Mole fraction of octane (Liquid mixture 2); method: Titration method
Property: Mole fraction of water (Liquid mixture 1); method: Titration method
Property: Mole fraction of octane (Liquid mixture 1); method: Titration method
Temperature, K	Mole fraction of water	Mole fraction of octane	uncertainty	Mole fraction of water	uncertainty	Mole fraction of octane	uncertainty
298.15	0.6452	0.073	0.0055	0.0254	0.0052	0.8257	
298.15	0.7849	0.0391	0.0053	0.0317	0.0053	0.853	
298.15	0.9023	0.01	0.0051	0.0068	0.006	0.8913	
298.15	0.9835	0.0016	0.0016	0.0061	0.0058	0.8962	
333.15	0.996	0.0002	0.0002	0.0055	0.0052	0.8855	

System: toluene + cyclohexylamine + water; phases: Liquid mixture 1, Liquid mixture 2
Fixed: Pressure, kPa = 101
Property: Mole fraction of toluene (Liquid mixture 1); method: Titration method
Property: Mole fraction of water (Liquid mixture 2); method: Titration method
Property: Mole fraction of toluene (Liquid mixture 2); method: Titration method
Temperature, K	Mole fraction of water	Mole fraction of toluene	uncertainty	Mole fraction of water	uncertainty	Mole fraction of toluene	uncertainty
298.15	0.9954	0.0018	0.0018	0.0028	0.0028	0.0163	
298.15	0.9947	0.0024	0.0024	0.0029	0.0029	0.0421	
298.15	0.9939	0.0008	0.0008	0.0053	0.003	0.0689	
298.15	0.9909	0.0025	0.0025	0.0066	0.003	0.2805	
298.15	0.9929	0.0021	0.0021	0.005	0.003	0.3904	
298.15	0.9901	0.0024	0.0024	0.0075	0.003	0.691	
333.15	0.9979	0.0007	0.0007	0.0014	0.0014	0.0233	
333.15	0.998	0.0008	0.0008	0.0012	0.0012	0.0492	
333.15	0.9946	0.0019	0.0019	0.0036	0.003	0.1117	
333.15	0.9937	0.0018	0.0018	0.0045	0.003	0.2337	
333.15	0.9936	0.0009	0.0009	0.0055	0.003	0.562	
333.15	0.9935	0.0021	0.0021	0.0044	0.003	0.6309	

System: toluene + cyclohexylamine + water; phases: Liquid mixture 1, Liquid mixture 2
Fixed: Pressure, kPa = 101.325
Property: Mole fraction of toluene (Liquid mixture 1); method: Titration method
Mole fraction of water	Temperature, K	Mole fraction of toluene	uncertainty
0.018	333.15	0.9307	0.0103
0.0213	298.15	0.9116	0.0048
0.0223	298.15	0.8929	0.005
0.0232	298.15	0.8746	0.0053
0.0292	298.15	0.8532	0.0058
0.0381	298.15	0.8293	0.0088
0.0383	333.15	0.8653	0.0101
0.0567	298.15	0.7913	0.0081
0.059	333.15	0.8089	0.0101
0.0773	333.15	0.761	0.0096
0.0931	298.15	0.7433	0.0083
0.1268	333.15	0.6691	0.0114
0.1306	298.15	0.7007	0.0096
0.1581	298.15	0.666	0.0106
0.173	333.15	0.5993	0.0131
0.1912	298.15	0.6273	0.0118
0.224	298.15	0.589	0.0129
0.253	298.15	0.5552	0.014
0.2711	333.15	0.4717	0.0151
0.2795	298.15	0.5265	0.0148
0.3141	298.15	0.4885	0.0153
0.3457	298.15	0.4543	0.0142
0.3598	333.15	0.3676	0.0119
0.3783	298.15	0.4207	0.0132
0.4082	298.15	0.3904	0.0123
0.4267	333.15	0.2977	0.0096
0.4377	298.15	0.3612	0.0114
0.4652	298.15	0.334	0.0105
0.4898	298.15	0.31	0.01
0.4924	333.15	0.244	0.008
0.5224	298.15	0.2793	0.0088
0.5579	298.15	0.2469	0.0078
0.585	298.15	0.2229	0.0072
0.5888	333.15	0.1599	0.0059
0.6031	298.15	0.2059	0.0067
0.653	298.15	0.1639	0.0057
0.66	333.15	0.116	0.0048
0.7132	298.15	0.1169	0.0047
0.75	333.15	0.0611	0.0038
0.7649	298.15	0.0808	0.0043
0.7653	333.15	0.053	0.0036
0.7909	298.15	0.0646	0.0036
0.8045	333.15	0.0348	0.0034
0.8105	298.15	0.0532	0.0035
0.8443	333.15	0.0201	0.0032
0.8582	298.15	0.0303	0.0032
0.8825	333.15	0.0101	0.0031
0.901	298.15	0.0154	0.0031
0.9187	333.15	0.0046	0.003
0.9408	298.15	0.0069	0.003
0.9553	333.15	0.0017	0.0017
0.978	298.15	0.0018	0.0018
0.9784	333.15	0.0008	0.0008
0.9978	298.15	0.0003	0.0003
0.9984	333.15	0.0006	0.0006

System: propylbenzene + cyclohexylamine + water; phases: Liquid mixture 2, Liquid mixture 1
Fixed: Pressure, kPa = 101
Property: Mole fraction of propylbenzene (Liquid mixture 2); method: Chromatography
Property: Mole fraction of propylbenzene (Liquid mixture 1); method: Chromatography
Property: Mole fraction of water (Liquid mixture 1); method: Chromatography
Temperature, K	Mole fraction of water	Mole fraction of propylbenzene	uncertainty	Mole fraction of propylbenzene	uncertainty	Mole fraction of water	uncertainty
303.15	0.2339	0.5434	0.0157	0.0006	0.0006	0.9907	
303.15	0.2413	0.5219	0.0157	0.0011	0.0011	0.9876	
333.15	0.1676	0.5879	0.0088	0.0008	0.0008	0.9933	
333.15	0.072	0.7144	0.0085	0.0006	0.0006	0.9941	

System: propylbenzene + cyclohexylamine + water; phases: Liquid mixture 1, Liquid mixture 2
Fixed: Pressure, kPa = 101
Property: Mole fraction of propylbenzene (Liquid mixture 1); method: Titration method
Mole fraction of water	Temperature, K	Mole fraction of propylbenzene	uncertainty
0.0792	333.15	0.7129	0.0101
0.0908	303.15	0.7163	0.0095
0.147	333.15	0.605	0.0129
0.2073	303.15	0.5788	0.0136
0.2338	333.15	0.5028	0.0158
0.3074	333.15	0.4218	0.0135
0.3316	303.15	0.4239	0.0135
0.3661	333.15	0.3612	0.0116
0.4216	333.15	0.3099	0.0099
0.4796	303.15	0.2992	0.0096
0.4876	333.15	0.2583	0.0083
0.5345	333.15	0.2216	0.0074
0.5913	333.15	0.1751	0.0063
0.6001	303.15	0.2082	0.007
0.6326	333.15	0.1433	0.0055
0.6677	303.15	0.1553	0.0058
