Measured thermophysical data. Liquid-Liquid Equilibria for Cyclohexane + Ethylbenzene + Sulfolane at (303.15, 313.15, and 323.15) K
Source: J. Chem. Eng. Data, 2006, 10.1021/je050227f
Compound 1: cyclohexane, C6H12, InChI=1S/C6H12/c1-2-4-6-5-3-1/h1-6H2, purity 99.5%
Compound 2: ethylbenzene, C8H10, InChI=1S/C8H10/c1-2-8-6-4-3-5-7-8/h3-7H,2H2,1H3
Compound 3: sulfolane, C4H8O2S, InChI=1S/C4H8O2S/c5-7(6)3-1-2-4-7/h1-4H2, purity 99%

System: cyclohexane + sulfolane; phases: Liquid mixture 1, Liquid mixture 2
Fixed: Pressure, kPa = 101.3
Property: Mass fraction of cyclohexane (Liquid mixture 1); method: CHROM:UFactor:8
Temperature, K	Mass fraction of cyclohexane	uncertainty
303.15	0.9978	0.002
313.15	0.9947	0.002
323.15	0.9946	0.002

System: cyclohexane + sulfolane; phases: Liquid mixture 2, Liquid mixture 1
Fixed: Pressure, kPa = 101.3
Property: Mass fraction of cyclohexane (Liquid mixture 2); method: CHROM:UFactor:8
Temperature, K	Mass fraction of cyclohexane	uncertainty
303.15	0.029	0.0026
313.15	0.0269	0.0025
323.15	0.0314	0.0027

System: ethylbenzene + cyclohexane + sulfolane; phases: Liquid mixture 1, Liquid mixture 2
Fixed: Pressure, kPa = 101.3
Property: Mass fraction of ethylbenzene (Liquid mixture 1); method: CHROM:UFactor:8
Property: Mass fraction of cyclohexane (Liquid mixture 2); method: CHROM:UFactor:8
Property: Mass fraction of ethylbenzene (Liquid mixture 2); method: CHROM:UFactor:8
Temperature, K	Mass fraction of cyclohexane	Mass fraction of ethylbenzene	uncertainty	Mass fraction of cyclohexane	uncertainty	Mass fraction of ethylbenzene	uncertainty
303.15	0.9978	0	0.0001	0.029	0.0026	0	
303.15	0.9186	0.0757	0.0051	0.0292	0.0026	0.0169	
303.15	0.8425	0.1489	0.0094	0.0315	0.0027	0.0334	
303.15	0.7286	0.2574	0.0161	0.0304	0.0026	0.0606	
303.15	0.6238	0.3533	0.022	0.0332	0.0027	0.0869	
303.15	0.5494	0.4167	0.0259	0.0326	0.0027	0.1044	
303.15	0.4856	0.4766	0.0296	0.0308	0.0027	0.1335	
313.15	0.9947	0	0.0001	0.0269	0.0025	0	
313.15	0.909	0.0834	0.0055	0.0308	0.0027	0.0186	
313.15	0.8369	0.1528	0.0097	0.0321	0.0027	0.0347	
313.15	0.7214	0.2604	0.0162	0.0324	0.0027	0.0638	
313.15	0.6661	0.3122	0.0194	0.0327	0.0027	0.078	
313.15	0.6237	0.3488	0.0217	0.0346	0.0028	0.0901	
313.15	0.5466	0.4139	0.0257	0.0355	0.0028	0.1152	
313.15	0.4747	0.4786	0.0297	0.0321	0.0027	0.1386	
323.15	0.9946	0	0.0001	0.0314	0.0027	0	
323.15	0.9069	0.0837	0.0055	0.0332	0.0028	0.0186	
323.15	0.8318	0.1526	0.0096	0.0371	0.0029	0.036	
323.15	0.7106	0.261	0.0163	0.0408	0.0031	0.0683	
323.15	0.662	0.3095	0.0193	0.0365	0.0029	0.0786	
323.15	0.6162	0.3441	0.0214	0.0403	0.003	0.0944	
323.15	0.5319	0.4093	0.0254	0.043	0.0032	0.1236	
323.15	0.4774	0.4605	0.0286	0.0349	0.003	0.1382	
