Measured thermophysical data. Vapor-Liquid Equilibrium Measurements for the Ethane + Hexafluoroethane System over a Temperature Range from (199.64 to 242.93) K
Source: J. Chem. Eng. Data, 2005, 10.1021/je050281w
Compound 1: ethane, C2H6, InChI=1S/C2H6/c1-2/h1-2H3, purity 99.95%
Compound 2: hexafluoroethane, C2F6, InChI=1S/C2F6/c3-1(4,5)2(6,7)8, purity 99.99%

System: hexafluoroethane; phases: Liquid, Gas
Property: Vapor or sublimation pressure, kPa (Liquid); method: Ebulliometric method (Recirculating still)
Temperature, K	Vapor or sublimation pressure, kPa	uncertainty
199.64	128.7	4
213.06	243.4	4
228.28	453.1	4
242.93	765.1	4.1

System: ethane + hexafluoroethane; phases: Liquid, Gas
Property: Azeotropic pressure, kPa (Liquid); method: By X=Y
Temperature, K	Azeotropic pressure, kPa	uncertainty
199.64	266.7	4.2
213.06	469.1	4.5
228.28	808.8	5.4
242.93	1280.6	6.9

System: ethane + hexafluoroethane; phases: Liquid, Gas
Property: Azeotropic temperature, K (Liquid); method: By X=Y
Mole fraction of ethane	Azeotropic temperature, K	uncertainty
0.6675	242.93	3.23
0.6766	228.28	3.67
0.6837	213.06	3.66
0.6922	199.64	3.17

System: ethane + hexafluoroethane; phases: Gas, Liquid
Property: Vapor or sublimation pressure, kPa (Gas); method: Ebulliometric method (Recirculating still)
Mole fraction of ethane	Temperature, K	Vapor or sublimation pressure, kPa	uncertainty
0	199.64	128.7	4
0	213.06	243.4	4.1
0	228.28	453.1	4.3
0	242.93	765.1	4.9
0.1633	199.64	205.6	4.2
0.1731	242.93	1015.4	6
0.1782	228.28	641.1	4.9
0.1827	213.06	372.7	4.4
0.2636	199.64	239.2	4.1
0.2805	242.93	1136.7	6
0.3257	213.06	427	4.3
0.382	242.93	1203.7	6
0.3971	228.28	765.4	5
0.4567	242.93	1239.4	6
0.4662	199.64	261.3	4.1
0.4822	213.06	458.1	4.4
0.554	228.28	800.6	5
0.5732	199.64	265.5	4.1
0.6071	213.06	466.5	4.4
0.617	242.93	1279	6.1
0.6408	242.93	1280.6	6.1
0.6444	199.64	266.7	4.1
0.6471	228.28	808.8	5
0.6499	213.06	469.1	4.4
0.6875	199.64	267.1	4.1
0.6958	242.93	1280.1	6.1
0.696	213.06	468.2	4.4
0.7098	228.28	807.7	5
0.7354	199.64	266.4	4.1
0.7412	242.93	1274.2	6.1
0.7569	228.28	803.7	5
0.7582	213.06	466.4	4.4
0.7977	242.93	1260.4	6.1
0.804	228.28	796.7	5

System: ethane + hexafluoroethane; phases: Gas, Liquid
Property: Mole fraction of ethane (Gas); method: Chromatography
Mole fraction of ethane	Temperature, K	Mole fraction of ethane	uncertainty
0	199.64	0	
0	213.06	0	
0	228.28	0	
0	242.93	0	
0.1633	199.64	0.4167	0.0058
0.1731	242.93	0.3181	0.0046
0.1782	228.28	0.3661	0.0046
0.1827	213.06	0.4198	0.0053
0.2636	199.64	0.541	0.0046
0.2805	242.93	0.4314	0.0046
0.3257	213.06	0.5321	0.0046
0.382	242.93	0.5103	0.0048
0.3971	228.28	0.5462	0.0046
0.4567	242.93	0.5564	0.0044
0.4662	199.64	0.6311	0.0038
0.4822	213.06	0.614	0.0039
0.554	228.28	0.6245	0.0039
0.5732	199.64	0.6595	0.0036
0.6071	213.06	0.6587	0.0036
0.617	242.93	0.6418	0.0038
0.6408	242.93	0.654	0.0037
0.6444	199.64	0.6791	0.0034
0.6471	228.28	0.6608	0.0036
0.6499	213.06	0.6724	0.0035
0.6875	199.64	0.6906	0.0034
0.6958	242.93	0.6818	0.0035
0.696	213.06	0.6878	0.0034
0.7098	228.28	0.6881	0.0035
0.7354	199.64	0.7051	0.0033
0.7412	242.93	0.7076	0.0034
0.7569	228.28	0.7141	0.0033
0.7582	213.06	0.7195	0.0033
0.7977	242.93	0.7439	0.0032
0.804	228.28	0.7421	0.0032
