Measured thermophysical data. Enthalpy of Solution of 1-Octyl-3-methylimidazolium Tetrafluoroborate in Water and in Aqueous Sodium Fluoride
Source: J. Chem. Eng. Data, 2005, 10.1021/je050136i
Compound 1: 1-methyl-3-octylimidazolium tetrafluoroborate, C12H23BF4N2, InChI=1S/C12H23N2.BF4/c1-3-4-5-6-7-8-9-14-11-10-13(2)12-14;2-1(3,4)5/h10-12H,3-9H2,1-2H3;/q+1;-1, purity 99.5%
Compound 2: 1-butyl-3-methylimidazolium tetrafluoroborate, C8H15BF4N2, InChI=1S/C8H15N2.BF4/c1-3-4-5-10-7-6-9(2)8-10;2-1(3,4)5/h6-8H,3-5H2,1-2H3;/q+1;-1
Compound 3: sodium fluoride, FNa, InChI=1S/FH.Na/h1H;/q;+1/p-1
Compound 4: water, H2O, InChI=1S/H2O/h1H2

System: sodium fluoride + water + 1-methyl-3-octylimidazolium tetrafluoroborate; phases: Liquid
Fixed: Pressure, kPa = 101
Property: Molar enthalpy of solution, kJ/mol (Liquid); method: adiabatic solution calorimeter
Temperature, K	Molality, mol/kg of 1-methyl-3-octylimidazolium tetrafluoroborate	Solvent: Molality, mol/kg of sodium fluoride	Molar enthalpy of solution, kJ/mol	uncertainty
298.1665	0.006299	0	18.984	0.366
298.0039	0.006865	0	19.197	0.366
298.1145	0.006116	0	19.195	0.366
298.1187	0.008176	0	19.306	0.366
313.1184	0.007541	0	24.465	0.381
306.3284	0.007579	0	22.094	0.374
313.1934	0.006719	0	24.543	0.382
305.6972	0.007651	0.0994	22.087	0.374
313.1846	0.007351	0.4	24.871	0.383
298.1202	0.008066	0.4	19.064	0.366
306.6591	0.007688	0.4	22.58	0.376
298.1329	0.007836	0.25	19.48	0.367
305.7345	0.007881	0.25	21.848	0.373
313.1866	0.007827	0.25	25.203	0.384
298.6747	0.00738	0.0997	19.124	0.366
313.1784	0.007416	0.0997	24.975	0.383
298.1356	0.007627	0.0997	19.332	0.366
298.1653	0.007533	0.428	19.012	0.366
313.1897	0.007502	0.428	24.988	0.383
298.1428	0.020143	0	19.677	0.367
313.1041	0.013047	0	24.289	0.381
298.1556	0.013073	0	19.61	0.367
298.1537	0.009834	0	19.476	0.367
313.148	0.006089	0	24.767	0.382
313.1497	0.004742	0	24.969	0.383
313.1484	0.004139	0	25.148	0.384
313.1236	0.003378	0	25.116	0.384
313.1483	0.004706	0	25.173	0.384
313.1452	0.005341	0	24.823	0.383
298.1583	0.003953	0	19.089	0.366
313.1501	0.016696	0	24.148	0.38

System: water + 1-butyl-3-methylimidazolium tetrafluoroborate; phases: Liquid
Fixed: Pressure, kPa = 101
Property: Molar enthalpy of solution, kJ/mol (Liquid); method: adiabatic solution calorimeter
Temperature, K	Molality, mol/kg of 1-butyl-3-methylimidazolium tetrafluoroborate	Molar enthalpy of solution, kJ/mol	uncertainty
571.2996	0.01257	15.325	0.357
571.3076	0.01349	15.136	0.356

System: water + 1-methyl-3-octylimidazolium tetrafluoroborate; phases: Liquid
Fixed: Pressure, kPa = 101
Property: Molar enthalpy of solution, kJ/mol (Liquid); method: adiabatic solution calorimeter
Temperature, K	Molality, mol/kg of 1-methyl-3-octylimidazolium tetrafluoroborate	Molar enthalpy of solution, kJ/mol	uncertainty
298.1665	0.006299	18.984	0.366
298.0039	0.006865	19.197	0.366
298.1145	0.006116	19.195	0.366
298.1187	0.008176	19.306	0.366
313.1184	0.007541	24.465	0.381
306.3284	0.007579	22.094	0.374
313.1934	0.006719	24.543	0.382
298.1428	0.020143	19.677	0.367
313.1041	0.013047	24.289	0.381
298.1556	0.013073	19.61	0.367
298.1537	0.009834	19.476	0.367
313.148	0.006089	24.767	0.382
313.1497	0.004742	24.969	0.383
313.1484	0.004139	25.148	0.384
313.1236	0.003378	25.116	0.384
313.1483	0.004706	25.173	0.384
313.1452	0.005341	24.823	0.383
298.1583	0.003953	19.089	0.366
313.1501	0.016696	24.148	0.38
