Measured thermophysical data. New Experimental Results for the Vapor-Liquid Equilibrium of the Binary System (Trioxane + Water) and the Ternary System (Formaldehyde + Trioxane + Water)
Source: J. Chem. Eng. Data, 2005, 10.1021/je050015i
Compound 1: water, H2O, InChI=1S/H2O/h1H2
Compound 2: 1,3,5-trioxane, C3H6O3, InChI=1S/C3H6O3/c1-4-2-6-3-5-1/h1-3H2
Compound 3: methanal, CH2O, InChI=1S/CH2O/c1-2/h1H2

System: 1,3,5-trioxane + water; phases: Liquid, Gas
Property: Vapor or sublimation pressure, kPa (Liquid); method: thin film evaporator
Temperature, K	Mole fraction of 1,3,5-trioxane	Vapor or sublimation pressure, kPa	uncertainty
393	0.4983	252.3	2.8
393.1	0.0953	246.2	4
393.2	0.0345	226.8	2.8
393.2	0.0396	226.9	2.8
412.2	0.004	363.9	5.3
412.5	0.0071	371.2	4.8
413	0.1212	445.9	5.2
413	0.436	450.1	4.9
413.1	0.0192	394.6	5.4
413.1	0.0319	409	6.2
413.1	0.1007	441.9	5
413.1	0.7619	385.2	12.9
413.2	0.011	383.4	4.7
413.2	0.0132	390	4.9
413.2	0.0211	399.6	22.9
413.2	0.0546	432.1	5
413.2	0.1009	441.1	5

System: 1,3,5-trioxane + water; phases: Gas, Liquid
Property: Mole fraction of 1,3,5-trioxane (Gas); method: Chromatography
Temperature, K	Mole fraction of 1,3,5-trioxane	Mole fraction of 1,3,5-trioxane	uncertainty
393	0.4983	0.3482	0.0287
393.1	0.0953	0.2353	0.0192
393.2	0.0345	0.1396	0.0113
393.2	0.0396	0.1511	0.0122
412.2	0.004	0.0199	0.0016
412.5	0.0071	0.0308	0.0025
413	0.1212	0.2303	0.0188
413	0.436	0.3266	0.0269
413.1	0.0192	0.0732	0.0059
413.1	0.0319	0.1134	0.0092
413.1	0.1007	0.2098	0.0171
413.1	0.5267	0.3437	0.0283
413.1	0.7619	0.4757	0.0395
413.2	0.011	0.0435	0.0035
413.2	0.0211	0.0827	0.0067
413.2	0.0546	0.1624	0.0132
413.2	0.1009	0.1933	0.0157
413.2	0.321	0.3516	0.029
413.2	0.4342	0.3629	0.0299

System: methanal + 1,3,5-trioxane + water; phases: Liquid, Gas
Property: Mole fraction of methanal (Liquid); method: Chromatography
Property: Mole fraction of methanal (Gas); method: Chromatography
Property: Mole fraction of 1,3,5-trioxane (Gas); method: Chromatography
Temperature, K	Pressure, kPa	Mole fraction of 1,3,5-trioxane	Mole fraction of methanal	uncertainty	Mole fraction of methanal	uncertainty	Mole fraction of 1,3,5-trioxane	uncertainty
413.1	427.9	0.011	0.1091	0.0088	0.1865	0.0152	0.0378	
413.2	462.9	0.0478	0.1056	0.0085	0.1711	0.0139	0.1364	
413.2	478.8	0.0587	0.1368	0.011	0.1994	0.0162	0.1466	
413.1	461	0.0925	0.04	0.0032	0.0789	0.0064	0.1953	
413.1	470.1	0.0933	0.0609	0.0049	0.107	0.0086	0.2013	
413.1	478.9	0.0953	0.0854	0.0069	0.1385	0.0112	0.1939	
413.1	478.8	0.2084	0.0468	0.0038	0.0856	0.0069	0.2509	
413.1	471.9	0.3206	0.0241	0.0019	0.0563	0.0045	0.2812	
413.2	474	0.4691	0.0357	0.0029	0.0943	0.0076	0.3196	
413.2	465	0.528	0.0308	0.0025	0.0901	0.0073	0.303	
413.2	462.2	0.6541	0.0306	0.0025	0.0936	0.0075	0.3766	
413.3	364.5	0.8975	0.0224	0.0018	0.1673	0.0135	0.5711	
