Measured thermophysical data. Isobaric Vapor-Liquid Equilibria of the Ternary System Methylbutyl Ketone + 1-Pentanol + Nonane
Source: J. Chem. Eng. Data, 2006, 10.1021/je0502905
Compound 1: 2-hexanone, C6H12O, InChI=1S/C6H12O/c1-3-4-5-6(2)7/h3-5H2,1-2H3
Compound 2: nonane, C9H20, InChI=1S/C9H20/c1-3-5-7-9-8-6-4-2/h3-9H2,1-2H3
Compound 3: pentan-1-ol, C5H12O, InChI=1S/C5H12O/c1-2-3-4-5-6/h6H,2-5H2,1H3, purity 99.5%

System: 2-hexanone; phases: Liquid
Property: Refractive index (Na D-line) (Liquid); method: Standard Abbe refractometry
Temperature, K	Pressure, kPa	Refractive index (Na D-line)	uncertainty
293.15	101.325	1.4008	0.0007

System: 2-hexanone; phases: Liquid
Property: Mass density, kg/m3 (Liquid); method: PYCNOM:UFactor:2
Temperature, K	Pressure, kPa	Mass density, kg/m3	uncertainty
293.15	101.325	811.2	0.8

System: 2-hexanone; phases: Liquid, Gas
Property: Vapor or sublimation pressure, kPa (Liquid); method: OTHER:UFactor:4:sMethod:Semi-microebulliometer as described in J. Chem. Eng. Data 2001, 46, 147-150
Temperature, K	Vapor or sublimation pressure, kPa	uncertainty
359.51	26.66	0.27
379.52	53.33	0.32
392.57	79.99	0.45
400.69	101.32	0.53

System: nonane; phases: Liquid
Property: Refractive index (Na D-line) (Liquid); method: Standard Abbe refractometry
Temperature, K	Pressure, kPa	Refractive index (Na D-line)	uncertainty
293.15	101.325	1.4055	0.0007

System: nonane; phases: Liquid
Property: Mass density, kg/m3 (Liquid); method: PYCNOM:UFactor:2
Temperature, K	Pressure, kPa	Mass density, kg/m3	uncertainty
293.15	101.325	717.6	0.7

System: nonane; phases: Liquid, Gas
Property: Vapor or sublimation pressure, kPa (Liquid); method: OTHER:UFactor:4:sMethod:Semi-microebulliometer as described in J. Chem. Eng. Data 2001, 46, 147-150
Temperature, K	Vapor or sublimation pressure, kPa	uncertainty
379.88	26.66	0.25
401.28	53.33	0.3
415.26	79.99	0.42
423.97	101.32	0.49

System: pentan-1-ol; phases: Liquid
Property: Refractive index (Na D-line) (Liquid); method: Standard Abbe refractometry
Temperature, K	Pressure, kPa	Refractive index (Na D-line)	uncertainty
293.15	101.325	1.4098	0.0007

System: pentan-1-ol; phases: Liquid
Property: Mass density, kg/m3 (Liquid); method: PYCNOM:UFactor:2
Temperature, K	Pressure, kPa	Mass density, kg/m3	uncertainty
293.15	101.325	814.5	0.8

System: pentan-1-ol; phases: Liquid, Gas
Property: Vapor or sublimation pressure, kPa (Liquid); method: OTHER:UFactor:4:sMethod:Semi-microebulliometer as described in J. Chem. Eng. Data 2001, 46, 147-150
Temperature, K	Vapor or sublimation pressure, kPa	uncertainty
375.63	26.66	0.31
392.7	53.33	0.37
403.8	79.99	0.53
410.79	101.32	0.61

System: pentan-1-ol + 2-hexanone; phases: Liquid, Gas
Property: Boiling temperature at pressure P, K (Liquid); method: OTHER:UFactor:4:sMethod:Semi-microebulliometer as described in J. Chem. Eng. Data 2001, 46, 147-150
Mole fraction of 2-hexanone	Pressure, kPa	Boiling temperature at pressure P, K	uncertainty
0	26.66	375.63	0.25
0	53.33	392.7	0.25
0	79.99	403.8	0.23
0.179	26.66	370.46	0.27
0.179	53.33	388.78	0.27
0.179	79.99	400.55	0.25
0.284	26.66	368.18	0.28
0.284	53.33	387.02	0.28
0.284	79.99	398.97	0.25
0.394	26.66	366.13	0.28
0.394	53.33	385.17	0.28
0.394	79.99	397.37	0.26
0.531	26.66	364.11	0.28
0.531	53.33	383.4	0.28
0.531	79.99	395.85	0.27
0.669	26.66	362.37	0.29
0.669	53.33	381.99	0.29
0.669	79.99	394.78	0.27
0.803	26.66	361.02	0.29
0.803	53.33	380.76	0.29
0.803	79.99	393.64	0.27
0.9	26.66	360.11	0.29
0.9	53.33	380.01	0.29
0.9	79.99	392.98	0.28
1	26.66	359.51	0.3
1	53.33	379.52	0.3
1	79.99	392.57	0.28

System: pentan-1-ol + nonane; phases: Liquid, Gas
Property: Azeotropic pressure, kPa (Liquid); method: By X=Y
Mole fraction of pentan-1-ol	Azeotropic pressure, kPa	uncertainty
0.505	26.66	0.36
0.563	53.33	0.52
0.605	79.99	0.68

System: pentan-1-ol + nonane; phases: Liquid, Gas
Property: Azeotropic temperature, K (Liquid); method: By X=Y
Mole fraction of pentan-1-ol	Azeotropic temperature, K	uncertainty
0.505	368.5	0.3
0.563	386.9	0.3
0.605	398.8	0.3

System: pentan-1-ol + nonane; phases: Liquid, Gas
Property: Boiling temperature at pressure P, K (Liquid); method: OTHER:UFactor:4:sMethod:Semi-microebulliometer as described in J. Chem. Eng. Data 2001, 46, 147-150
Mole fraction of pentan-1-ol	Pressure, kPa	Boiling temperature at pressure P, K	uncertainty
0	26.66	379.88	0.32
0	53.33	401.28	0.32
0	79.99	415.26	0.29
0.1	79.99	406.2	0.26
0.174	26.66	370.44	0.27
0.174	53.33	390.3	0.29
0.174	79.99	403.2	0.28
0.258	26.66	369.43	0.28
0.258	53.33	388.66	0.29
0.258	79.99	401.37	0.27
0.367	26.66	368.81	0.27
0.367	53.33	387.6	0.28
0.367	79.99	399.87	0.26
0.493	26.66	368.52	0.27
0.493	53.33	387.01	0.27
0.493	79.99	399.01	0.26
0.672	26.66	368.97	0.26
0.672	53.33	387.17	0.27
0.672	79.99	398.83	0.25
0.79	26.66	369.93	0.26
0.79	53.33	388.02	0.27
0.79	79.99	399.73	0.25
0.894	26.66	372.03	0.26
0.894	53.33	389.82	0.26
0.894	79.99	401.24	0.25
1	26.66	375.63	0.25
1	53.33	392.7	0.25
1	79.99	403.8	0.23

System: pentan-1-ol + nonane + 2-hexanone; phases: Liquid, Gas
Property: Boiling temperature at pressure P, K (Liquid); method: OTHER:UFactor:4:sMethod:Semi-microebulliometer as described in J. Chem. Eng. Data 2001, 46, 147-150
Mole fraction of 2-hexanone	Mole fraction of pentan-1-ol	Pressure, kPa	Boiling temperature at pressure P, K	uncertainty
0.129	0.438	53.33	383.72	0.23
0.135	0.271	26.66	365.76	0.29
0.135	0.271	53.33	385.28	0.29
0.135	0.271	79.99	398.06	0.27
0.173	0.346	26.66	364.94	0.28
0.173	0.346	53.33	384.29	0.28
0.173	0.346	79.99	396.83	0.27
0.201	0.533	26.66	365.17	0.28
0.201	0.533	53.33	384.26	0.28
0.201	0.533	79.99	396.55	0.26
0.219	0.438	26.66	364.52	0.27
0.219	0.438	79.99	396.22	0.27
0.252	0.252	26.66	364.09	0.29
0.252	0.252	53.33	383.74	0.29
0.252	0.252	79.99	396.62	0.27
0.274	0.548	26.66	364.63	0.28
0.274	0.548	53.33	383.77	0.28
0.274	0.548	79.99	396.11	0.26
0.321	0.225	26.66	363.36	0.29
0.321	0.225	53.33	383.16	0.29
0.321	0.225	79.99	396.1	0.27
0.333	0.333	26.66	363.19	0.28
0.333	0.333	53.33	382.7	0.29
0.333	0.333	79.99	395.4	0.27
0.397	0.398	26.66	363.02	0.29
0.397	0.398	53.33	382.48	0.29
0.397	0.398	79.99	395.11	0.27
0.411	0.206	26.66	362.26	0.29
0.411	0.206	53.33	382.09	0.29
0.411	0.206	79.99	395.04	0.28
0.504	0.331	26.66	362.3	0.29
0.504	0.331	53.33	381.89	0.29
0.504	0.331	79.99	394.54	0.27
0.573	0.287	26.66	361.58	0.29
0.573	0.287	53.33	381.26	0.29
0.573	0.287	79.99	394.02	0.27
0.604	0.132	26.66	360.93	0.29
0.604	0.132	53.33	380.81	0.29
0.604	0.132	79.99	393.77	0.27
0.702	0.199	26.66	360.88	0.29
0.702	0.199	53.33	380.66	0.29
0.702	0.199	79.99	393.49	0.27
0.766	0.078	26.66	360.09	0.29
0.766	0.078	53.33	380	0.29
0.766	0.078	79.99	392.98	0.27
