Measured thermophysical data. Densities and Viscosities of Binary Mixtures of Ethyl Acetoacetate, Ethyl Isovalerate, Methyl Benzoate, Benzyl Acetate, Ethyl Salicylate, and Benzyl Propionate with Ethanol at T ) (288.15, 298.15, 308.15, and 318.15) K
Source: J. Chem. Eng. Data, 2006, 10.1021/je050402s
Compound 1: ethyl 3-oxobutanoate, C6H10O3, InChI=1S/C6H10O3/c1-3-9-6(8)4-5(2)7/h3-4H2,1-2H3, purity 99.2%
Compound 2: ethyl 3-methylbutanoate, C7H14O2, InChI=1S/C7H14O2/c1-4-9-7(8)5-6(2)3/h6H,4-5H2,1-3H3, purity 99%
Compound 3: methyl benzoate, C8H8O2, InChI=1S/C8H8O2/c1-10-8(9)7-5-3-2-4-6-7/h2-6H,1H3, purity 99.2%
Compound 4: benzyl ethanoate, C9H10O2, InChI=1S/C9H10O2/c1-8(10)11-7-9-5-3-2-4-6-9/h2-6H,7H2,1H3, purity 99.6%
Compound 5: ethyl 2-hydroxybenzoate, C9H10O3, InChI=1S/C9H10O3/c1-2-12-9(11)7-5-3-4-6-8(7)10/h3-6,10H,2H2,1H3, purity 99.6%
Compound 6: benzyl propanoate, C10H12O2, InChI=1S/C10H12O2/c1-2-10(11)12-8-9-6-4-3-5-7-9/h3-7H,2,8H2,1H3, purity 99.4%
Compound 7: ethanol, C2H6O, InChI=1S/C2H6O/c1-2-3/h3H,2H2,1H3, purity 99.9%

System: ethyl 3-oxobutanoate; phases: Liquid
Fixed: Pressure, kPa = 100.5
Property: Viscosity, Pa*s (Liquid); method: Capillary tube (Ostwald; Ubbelohde) method
Temperature, K	Viscosity, Pa*s	uncertainty
288.15	0.001902	1.7e-05
298.15	0.001581	1.6e-05
308.15	0.001344	1.5e-05
318.15	0.001144	1.4e-05

System: ethyl 3-oxobutanoate; phases: Liquid
Fixed: Pressure, kPa = 100.5
Property: Mass density, kg/m3 (Liquid); method: VIBTUB:UFactor:4
Temperature, K	Mass density, kg/m3	uncertainty
288.15	1033.92	0.45
298.15	1023.45	0.44
308.15	1013	0.43
318.15	1002.54	0.43

System: ethyl 3-methylbutanoate; phases: Liquid
Fixed: Pressure, kPa = 100.5
Property: Viscosity, Pa*s (Liquid); method: Capillary tube (Ostwald; Ubbelohde) method
Temperature, K	Viscosity, Pa*s	uncertainty
288.15	0.000853	1.4e-05
298.15	0.000739	1.3e-05
308.15	0.000642	1.3e-05
318.15	0.000566	1.3e-05

System: ethyl 3-methylbutanoate; phases: Liquid
Fixed: Pressure, kPa = 100.5
Property: Mass density, kg/m3 (Liquid); method: VIBTUB:UFactor:4
Temperature, K	Mass density, kg/m3	uncertainty
288.15	869.66	0.55
298.15	859.78	0.55
308.15	849.83	0.56
318.15	839.81	0.57

System: methyl benzoate; phases: Liquid
Fixed: Pressure, kPa = 100.5
Property: Viscosity, Pa*s (Liquid); method: Capillary tube (Ostwald; Ubbelohde) method
Temperature, K	Viscosity, Pa*s	uncertainty
288.15	0.002297	1.9e-05
298.15	0.001851	1.7e-05
308.15	0.001531	1.6e-05
318.15	0.001297	1.5e-05

System: methyl benzoate; phases: Liquid
Fixed: Pressure, kPa = 100.5
Property: Mass density, kg/m3 (Liquid); method: VIBTUB:UFactor:4
Temperature, K	Mass density, kg/m3	uncertainty
288.15	1093.23	0.52
298.15	1083.92	0.51
308.15	1074.34	0.5
318.15	1064.62	0.49

System: benzyl ethanoate; phases: Liquid
Fixed: Pressure, kPa = 100.5
Property: Viscosity, Pa*s (Liquid); method: Capillary tube (Ostwald; Ubbelohde) method
Temperature, K	Viscosity, Pa*s	uncertainty
288.15	0.00253	1.8e-05
298.15	0.002056	1.7e-05
308.15	0.001703	1.5e-05
318.15	0.001432	1.5e-05

System: benzyl ethanoate; phases: Liquid
Fixed: Pressure, kPa = 100.5
Property: Mass density, kg/m3 (Liquid); method: VIBTUB:UFactor:4
Temperature, K	Mass density, kg/m3	uncertainty
288.15	1060.11	0.31
298.15	1050.75	0.29
308.15	1041.39	0.28
318.15	1032.03	0.27

System: ethyl 2-hydroxybenzoate; phases: Liquid
Fixed: Pressure, kPa = 100.5
Property: Viscosity, Pa*s (Liquid); method: CAPTUB::UFactor:2
Temperature, K	Viscosity, Pa*s	uncertainty
288.15	0.003694	4.1e-05
298.15	0.002831	3.2e-05
308.15	0.002253	2.7e-05
318.15	0.001842	2.3e-05

System: ethyl 2-hydroxybenzoate; phases: Liquid
Fixed: Pressure, kPa = 100.5
Property: Mass density, kg/m3 (Liquid); method: VIBTUB::UFactor:4
Temperature, K	Mass density, kg/m3	uncertainty
288.15	1134.72	0.41
298.15	1125	0.39
308.15	1115.29	0.38
318.15	1105.6	0.37

System: benzyl propanoate; phases: Liquid
Fixed: Pressure, kPa = 100.5
Property: Viscosity, Pa*s (Liquid); method: Capillary tube (Ostwald; Ubbelohde) method
Temperature, K	Viscosity, Pa*s	uncertainty
288.15	0.00255	1.9e-05
298.15	0.002123	1.8e-05
308.15	0.001787	1.6e-05
318.15	0.001515	1.5e-05

System: benzyl propanoate; phases: Liquid
Fixed: Pressure, kPa = 100.5
Property: Mass density, kg/m3 (Liquid); method: VIBTUB::UFactor:4
Temperature, K	Mass density, kg/m3	uncertainty
288.15	1036.86	0.36
298.15	1027.6	0.35
308.15	1018.38	0.34
318.15	1009.15	0.34

System: ethanol; phases: Liquid
Fixed: Pressure, kPa = 100.5
Property: Viscosity, Pa*s (Liquid); method: Capillary tube (Ostwald; Ubbelohde) method
Temperature, K	Viscosity, Pa*s	uncertainty
288.15	0.001337	1.4e-05
298.15	0.001105	1.4e-05
308.15	0.000921	1.3e-05
318.15	0.000771	1.3e-05

System: ethanol; phases: Liquid
Fixed: Pressure, kPa = 100.5
Property: Mass density, kg/m3 (Liquid); method: VIBTUB:UFactor:4
Temperature, K	Mass density, kg/m3	uncertainty
288.15	793.6	0.45
298.15	785	0.46
308.15	776.31	0.48
318.15	767.44	0.49

System: ethanol + ethyl 3-oxobutanoate; phases: Liquid
Fixed: Pressure, kPa = 100.5
Property: Viscosity, Pa*s (Liquid); method: Capillary tube (Ostwald; Ubbelohde) method
Temperature, K	Mole fraction of ethyl 3-oxobutanoate	Viscosity, Pa*s	uncertainty
288.15	0	0.001337	1.4e-05
288.15	0.05	0.001266	1.4e-05
288.15	0.1	0.001204	1.4e-05
288.15	0.15	0.00119	1.4e-05
288.15	0.2	0.001194	1.4e-05
288.15	0.25	0.001206	1.4e-05
288.15	0.3	0.001226	1.4e-05
288.15	0.35	0.00125	1.4e-05
288.15	0.4	0.00128	1.4e-05
288.15	0.45	0.001312	1.4e-05
288.15	0.5	0.001349	1.4e-05
288.15	0.55	0.00139	1.5e-05
288.15	0.6	0.001435	1.5e-05
288.15	0.65	0.001484	1.5e-05
288.15	0.7	0.001536	1.5e-05
288.15	0.75	0.001591	1.6e-05
288.15	0.8	0.00165	1.6e-05
288.15	0.85	0.001709	1.6e-05
288.15	0.9	0.001773	1.7e-05
288.15	0.95	0.001834	1.7e-05
288.15	1	0.001902	1.7e-05
298.15	0	0.001105	1.4e-05
298.15	0.05	0.001042	1.3e-05
298.15	0.1	0.001001	1.3e-05
298.15	0.15	0.00099	1.3e-05
298.15	0.2	0.000994	1.3e-05
298.15	0.25	0.001003	1.3e-05
298.15	0.3	0.001019	1.3e-05
298.15	0.35	0.001038	1.3e-05
298.15	0.4	0.001061	1.4e-05
298.15	0.45	0.001087	1.4e-05
298.15	0.5	0.001117	1.4e-05
298.15	0.55	0.001151	1.4e-05
298.15	0.6	0.001189	1.4e-05
298.15	0.65	0.001227	1.4e-05
298.15	0.7	0.00127	1.4e-05
298.15	0.75	0.001316	1.5e-05
298.15	0.8	0.001366	1.5e-05
298.15	0.85	0.001415	1.5e-05
298.15	0.9	0.001471	1.5e-05
298.15	0.95	0.001524	1.6e-05
298.15	1	0.001581	1.6e-05
308.15	0	0.000921	1.3e-05
308.15	0.05	0.000869	1.3e-05
308.15	0.1	0.000841	1.3e-05
308.15	0.15	0.000832	1.3e-05
308.15	0.2	0.000837	1.3e-05
308.15	0.25	0.000846	1.3e-05
308.15	0.3	0.00086	1.3e-05
308.15	0.35	0.000878	1.3e-05
308.15	0.4	0.000898	1.3e-05
308.15	0.45	0.000921	1.3e-05
308.15	0.5	0.000947	1.3e-05
308.15	0.55	0.000974	1.3e-05
308.15	0.6	0.001004	1.4e-05
308.15	0.65	0.001036	1.4e-05
308.15	0.7	0.001073	1.4e-05
308.15	0.75	0.001112	1.4e-05
308.15	0.8	0.001154	1.4e-05
308.15	0.85	0.001199	1.4e-05
308.15	0.9	0.001247	1.5e-05
308.15	0.95	0.001295	1.5e-05
308.15	1	0.001344	1.5e-05
318.15	0	0.000771	1.3e-05
318.15	0.05	0.000731	1.3e-05
318.15	0.1	0.000713	1.3e-05
318.15	0.15	0.000709	1.3e-05
318.15	0.2	0.000712	1.3e-05
318.15	0.25	0.000721	1.3e-05
318.15	0.3	0.000735	1.3e-05
318.15	0.35	0.000751	1.3e-05
318.15	0.4	0.000768	1.3e-05
318.15	0.45	0.000789	1.3e-05
318.15	0.5	0.000812	1.3e-05
318.15	0.55	0.000836	1.3e-05
318.15	0.6	0.000861	1.3e-05
318.15	0.65	0.000888	1.3e-05
318.15	0.7	0.000917	1.3e-05
318.15	0.75	0.000948	1.3e-05
318.15	0.8	0.000983	1.4e-05
318.15	0.85	0.001018	1.4e-05
318.15	0.9	0.001059	1.4e-05
318.15	0.95	0.001103	1.4e-05
318.15	1	0.001144	1.4e-05

System: ethanol + ethyl 3-oxobutanoate; phases: Liquid
Fixed: Pressure, kPa = 100.5
Property: Mass density, kg/m3 (Liquid); method: VIBTUB:UFactor:4
Temperature, K	Mole fraction of ethyl 3-oxobutanoate	Mass density, kg/m3	uncertainty
288.15	0	793.6	0.45
288.15	0.05	818.78	0.41
288.15	0.1	841	0.38
288.15	0.15	860.94	0.36
288.15	0.2	878.93	0.34
288.15	0.25	895.25	0.32
288.15	0.3	910.15	0.31
288.15	0.35	923.79	0.31
288.15	0.4	936.31	0.3
288.15	0.45	947.86	0.3
288.15	0.5	958.56	0.31
288.15	0.55	968.53	0.31
288.15	0.6	977.79	0.31
288.15	0.65	986.4	0.32
288.15	0.7	994.51	0.33
288.15	0.75	1002.07	0.34
288.15	0.8	1009.18	0.36
288.15	0.85	1015.85	0.39
288.15	0.9	1022.16	0.41
288.15	0.95	1028.15	0.43
288.15	1	1033.92	0.45
298.15	0	785	0.46
298.15	0.05	809.91	0.43
298.15	0.1	831.89	0.4
298.15	0.15	851.63	0.37
298.15	0.2	869.45	0.35
298.15	0.25	885.63	0.34
298.15	0.3	900.41	0.32
298.15	0.35	913.94	0.32
298.15	0.4	926.37	0.31
298.15	0.45	937.83	0.31
298.15	0.5	948.47	0.31
298.15	0.55	958.37	0.31
298.15	0.6	967.55	0.32
298.15	0.65	976.13	0.32
298.15	0.7	984.17	0.33
298.15	0.75	991.71	0.34
298.15	0.8	998.79	0.36
298.15	0.85	1005.46	0.38
298.15	0.9	1011.74	0.4
298.15	0.95	1017.72	0.42
298.15	1	1023.45	0.44
308.15	0	776.31	0.48
308.15	0.05	800.94	0.44
308.15	0.1	822.68	0.41
308.15	0.15	842.22	0.39
308.15	0.2	859.89	0.37
308.15	0.25	875.91	0.35
308.15	0.3	890.57	0.34
308.15	0.35	903.99	0.33
308.15	0.4	916.34	0.32
308.15	0.45	927.73	0.32
308.15	0.5	938.29	0.32
308.15	0.55	948.11	0.32
308.15	0.6	957.24	0.32
308.15	0.65	965.77	0.33
308.15	0.7	973.79	0.34
308.15	0.75	981.29	0.35
308.15	0.8	988.36	0.36
308.15	0.85	995.02	0.37
308.15	0.9	1001.3	0.39
308.15	0.95	1007.29	0.41
308.15	1	1013	0.43
318.15	0	767.44	0.49
318.15	0.05	791.8	0.45
318.15	0.1	813.32	0.42
318.15	0.15	832.67	0.4
318.15	0.2	850.17	0.38
318.15	0.25	866.05	0.36
318.15	0.3	880.6	0.35
318.15	0.35	893.92	0.34
318.15	0.4	906.18	0.34
318.15	0.45	917.49	0.33
318.15	0.5	927.99	0.33
318.15	0.55	937.75	0.33
318.15	0.6	946.84	0.33
318.15	0.65	955.36	0.34
318.15	0.7	963.33	0.34
318.15	0.75	970.82	0.35
318.15	0.8	977.88	0.36
318.15	0.85	984.54	0.38
318.15	0.9	990.84	0.39
318.15	0.95	996.82	0.41
318.15	1	1002.54	0.43

System: ethanol + ethyl 3-methylbutanoate; phases: Liquid
Fixed: Pressure, kPa = 100.5
Property: Viscosity, Pa*s (Liquid); method: Capillary tube (Ostwald; Ubbelohde) method
Temperature, K	Mole fraction of ethyl 3-methylbutanoate	Viscosity, Pa*s	uncertainty
288.15	0	0.001337	1.4e-05
288.15	0.05	0.001229	1.4e-05
288.15	0.1	0.001125	1.4e-05
288.15	0.15	0.001057	1.3e-05
288.15	0.2	0.001002	1.3e-05
288.15	0.25	0.000966	1.3e-05
288.15	0.3	0.000935	1.3e-05
288.15	0.35	0.000908	1.3e-05
288.15	0.4	0.000886	1.3e-05
288.15	0.45	0.000867	1.3e-05
288.15	0.5	0.000855	1.3e-05
288.15	0.55	0.000847	1.3e-05
288.15	0.6	0.00084	1.3e-05
288.15	0.65	0.000835	1.3e-05
288.15	0.7	0.00083	1.3e-05
288.15	0.75	0.000827	1.3e-05
288.15	0.8	0.00083	1.3e-05
288.15	0.85	0.000833	1.3e-05
288.15	0.9	0.000839	1.4e-05
288.15	0.95	0.000845	1.4e-05
288.15	1	0.000853	1.4e-05
298.15	0	0.001105	1.4e-05
298.15	0.05	0.00102	1.3e-05
298.15	0.1	0.000945	1.3e-05
298.15	0.15	0.000891	1.3e-05
298.15	0.2	0.000848	1.3e-05
298.15	0.25	0.000815	1.3e-05
298.15	0.3	0.000791	1.3e-05
298.15	0.35	0.000771	1.3e-05
298.15	0.4	0.000754	1.3e-05
298.15	0.45	0.000742	1.3e-05
298.15	0.5	0.000733	1.3e-05
298.15	0.55	0.000724	1.3e-05
298.15	0.6	0.000719	1.3e-05
298.15	0.65	0.000713	1.3e-05
298.15	0.7	0.000713	1.3e-05
298.15	0.75	0.000714	1.3e-05
298.15	0.8	0.000716	1.3e-05
298.15	0.85	0.000722	1.3e-05
298.15	0.9	0.000727	1.3e-05
298.15	0.95	0.000729	1.3e-05
298.15	1	0.000739	1.3e-05
308.15	0	0.000921	1.3e-05
308.15	0.05	0.000852	1.3e-05
308.15	0.1	0.000793	1.3e-05
308.15	0.15	0.00075	1.3e-05
308.15	0.2	0.000718	1.3e-05
308.15	0.25	0.000695	1.3e-05
308.15	0.3	0.000677	1.3e-05
308.15	0.35	0.000663	1.3e-05
308.15	0.4	0.000653	1.3e-05
308.15	0.45	0.000645	1.3e-05
308.15	0.5	0.000638	1.3e-05
308.15	0.55	0.000631	1.3e-05
308.15	0.6	0.000624	1.3e-05
308.15	0.65	0.00062	1.3e-05
308.15	0.7	0.000618	1.3e-05
308.15	0.75	0.000619	1.3e-05
308.15	0.8	0.000621	1.3e-05
308.15	0.85	0.000625	1.3e-05
308.15	0.9	0.000631	1.3e-05
308.15	0.95	0.000634	1.3e-05
308.15	1	0.000642	1.3e-05
318.15	0	0.000771	1.3e-05
318.15	0.05	0.000715	1.3e-05
318.15	0.1	0.000668	1.3e-05
318.15	0.15	0.000638	1.3e-05
318.15	0.2	0.000618	1.3e-05
318.15	0.25	0.0006	1.3e-05
318.15	0.3	0.000587	1.3e-05
318.15	0.35	0.000579	1.3e-05
318.15	0.4	0.000571	1.3e-05
318.15	0.45	0.000565	1.3e-05
318.15	0.5	0.000559	1.3e-05
318.15	0.55	0.000554	1.3e-05
318.15	0.6	0.00055	1.3e-05
318.15	0.65	0.000548	1.3e-05
318.15	0.7	0.000547	1.3e-05
318.15	0.75	0.000546	1.3e-05
318.15	0.8	0.000549	1.3e-05
318.15	0.85	0.000552	1.3e-05
318.15	0.9	0.000556	1.3e-05
318.15	0.95	0.00056	1.3e-05
318.15	1	0.000566	1.3e-05

System: ethanol + ethyl 3-methylbutanoate; phases: Liquid
Fixed: Pressure, kPa = 100.5
Property: Mass density, kg/m3 (Liquid); method: VIBTUB:UFactor:4
Temperature, K	Mole fraction of ethyl 3-methylbutanoate	Mass density, kg/m3	uncertainty
288.15	0	793.6	0.45
288.15	0.05	802.64	0.44
288.15	0.1	810.36	0.43
288.15	0.15	817.13	0.42
288.15	0.2	823.05	0.42
288.15	0.25	828.3	0.42
288.15	0.3	833.01	0.42
288.15	0.35	837.23	0.42
288.15	0.4	841.07	0.42
288.15	0.45	844.57	0.43
288.15	0.5	847.78	0.43
288.15	0.55	850.72	0.44
288.15	0.6	853.42	0.45
288.15	0.65	855.93	0.46
288.15	0.7	858.27	0.47
288.15	0.75	860.46	0.48
288.15	0.8	862.52	0.49
288.15	0.85	864.44	0.51
288.15	0.9	866.27	0.52
288.15	0.95	868.03	0.53
288.15	1	869.66	0.55
298.15	0	785	0.46
298.15	0.05	793.85	0.45
298.15	0.1	801.39	0.44
298.15	0.15	807.99	0.44
298.15	0.2	813.77	0.43
298.15	0.25	818.9	0.43
298.15	0.3	823.53	0.43
298.15	0.35	827.65	0.43
298.15	0.4	831.42	0.43
298.15	0.45	834.87	0.44
298.15	0.5	838.02	0.44
298.15	0.55	840.93	0.45
298.15	0.6	843.59	0.46
298.15	0.65	846.06	0.47
298.15	0.7	848.38	0.48
298.15	0.75	850.55	0.49
298.15	0.8	852.6	0.5
298.15	0.85	854.52	0.51
298.15	0.9	856.34	0.53
298.15	0.95	858.12	0.54
298.15	1	859.78	0.55
308.15	0	776.31	0.48
308.15	0.05	784.95	0.46
308.15	0.1	792.29	0.46
308.15	0.15	798.73	0.45
308.15	0.2	804.39	0.45
308.15	0.25	809.39	0.44
308.15	0.3	813.92	0.44
308.15	0.35	817.96	0.44
308.15	0.4	821.66	0.45
308.15	0.45	825.05	0.45
308.15	0.5	828.15	0.46
308.15	0.55	831.01	0.46
308.15	0.6	833.64	0.47
308.15	0.65	836.09	0.48
308.15	0.7	838.38	0.49
308.15	0.75	840.55	0.5
308.15	0.8	842.6	0.51
308.15	0.85	844.51	0.52
308.15	0.9	846.34	0.53
308.15	0.95	848.15	0.55
308.15	1	849.83	0.56
318.15	0	767.44	0.49
318.15	0.05	775.9	0.48
318.15	0.1	783.04	0.47
318.15	0.15	789.31	0.46
318.15	0.2	794.81	0.46
318.15	0.25	799.73	0.46
318.15	0.3	804.15	0.46
318.15	0.35	808.12	0.46
318.15	0.4	811.75	0.46
318.15	0.45	815.07	0.46
318.15	0.5	818.12	0.47
318.15	0.55	820.95	0.47
318.15	0.6	823.56	0.48
318.15	0.65	826	0.49
318.15	0.7	828.28	0.5
318.15	0.75	830.44	0.51
318.15	0.8	832.48	0.52
318.15	0.85	834.44	0.53
318.15	0.9	836.27	0.54
318.15	0.95	838.1	0.55
318.15	1	839.81	0.57

System: ethanol + methyl benzoate; phases: Liquid
Fixed: Pressure, kPa = 100.5
Property: Viscosity, Pa*s (Liquid); method: Capillary tube (Ostwald; Ubbelohde) method
Temperature, K	Mole fraction of methyl benzoate	Viscosity, Pa*s	uncertainty
288.15	0	0.001337	1.4e-05
288.15	0.05	0.001324	1.4e-05
288.15	0.1	0.001323	1.4e-05
288.15	0.15	0.001338	1.4e-05
288.15	0.2	0.001359	1.4e-05
288.15	0.25	0.001383	1.4e-05
288.15	0.3	0.001417	1.4e-05
288.15	0.35	0.001455	1.5e-05
288.15	0.4	0.001496	1.5e-05
288.15	0.45	0.001541	1.5e-05
288.15	0.5	0.001589	1.5e-05
288.15	0.55	0.00164	1.5e-05
288.15	0.6	0.001692	1.6e-05
288.15	0.65	0.001746	1.6e-05
288.15	0.7	0.001807	1.6e-05
288.15	0.75	0.00187	1.7e-05
288.15	0.8	0.001942	1.7e-05
288.15	0.85	0.00203	1.8e-05
288.15	0.9	0.002118	1.8e-05
288.15	0.95	0.002207	1.9e-05
288.15	1	0.002297	1.9e-05
298.15	0	0.001105	1.4e-05
298.15	0.05	0.001092	1.3e-05
298.15	0.1	0.001094	1.4e-05
298.15	0.15	0.001107	1.4e-05
298.15	0.2	0.001122	1.4e-05
298.15	0.25	0.001144	1.4e-05
298.15	0.3	0.001171	1.4e-05
298.15	0.35	0.001199	1.4e-05
298.15	0.4	0.001232	1.4e-05
298.15	0.45	0.001266	1.4e-05
298.15	0.5	0.001303	1.4e-05
298.15	0.55	0.001341	1.4e-05
298.15	0.6	0.001384	1.5e-05
298.15	0.65	0.001429	1.5e-05
298.15	0.7	0.001475	1.5e-05
298.15	0.75	0.001526	1.5e-05
298.15	0.8	0.001581	1.6e-05
298.15	0.85	0.001645	1.6e-05
298.15	0.9	0.001712	1.6e-05
298.15	0.95	0.001784	1.7e-05
298.15	1	0.001851	1.7e-05
308.15	0	0.000921	1.3e-05
308.15	0.05	0.000911	1.3e-05
308.15	0.1	0.000915	1.3e-05
308.15	0.15	0.000924	1.3e-05
308.15	0.2	0.00094	1.3e-05
308.15	0.25	0.000958	1.3e-05
308.15	0.3	0.000981	1.3e-05
308.15	0.35	0.001006	1.3e-05
308.15	0.4	0.001031	1.3e-05
308.15	0.45	0.001061	1.4e-05
308.15	0.5	0.001091	1.4e-05
308.15	0.55	0.001123	1.4e-05
308.15	0.6	0.001158	1.4e-05
308.15	0.65	0.001193	1.4e-05
308.15	0.7	0.001231	1.4e-05
308.15	0.75	0.001275	1.4e-05
308.15	0.8	0.001318	1.5e-05
308.15	0.85	0.001369	1.5e-05
308.15	0.9	0.001421	1.5e-05
308.15	0.95	0.00148	1.5e-05
308.15	1	0.001531	1.6e-05
318.15	0	0.000771	1.3e-05
318.15	0.05	0.000766	1.3e-05
318.15	0.1	0.00077	1.3e-05
318.15	0.15	0.000782	1.3e-05
318.15	0.2	0.000797	1.3e-05
318.15	0.25	0.000814	1.3e-05
318.15	0.3	0.000834	1.3e-05
318.15	0.35	0.000855	1.3e-05
318.15	0.4	0.000877	1.3e-05
318.15	0.45	0.000902	1.3e-05
318.15	0.5	0.000928	1.3e-05
318.15	0.55	0.000954	1.3e-05
318.15	0.6	0.000982	1.3e-05
318.15	0.65	0.001014	1.4e-05
318.15	0.7	0.001047	1.4e-05
318.15	0.75	0.001083	1.4e-05
318.15	0.8	0.001122	1.4e-05
318.15	0.85	0.001166	1.4e-05
318.15	0.9	0.001208	1.4e-05
318.15	0.95	0.001255	1.5e-05
318.15	1	0.001297	1.5e-05

System: ethanol + methyl benzoate; phases: Liquid
Fixed: Pressure, kPa = 100.5
Property: Mass density, kg/m3 (Liquid); method: VIBTUB:UFactor:4
Temperature, K	Mole fraction of methyl benzoate	Mass density, kg/m3	uncertainty
288.15	0	793.6	0.45
288.15	0.05	825.66	0.4
288.15	0.1	853.88	0.36
288.15	0.15	879.1	0.33
288.15	0.2	901.63	0.31
288.15	0.25	922.04	0.29
288.15	0.3	940.62	0.28
288.15	0.35	957.58	0.28
288.15	0.4	973.15	0.28
288.15	0.45	987.48	0.28
288.15	0.5	1000.69	0.29
288.15	0.55	1012.94	0.31
288.15	0.6	1024.33	0.33
288.15	0.65	1034.94	0.35
288.15	0.7	1044.83	0.37
288.15	0.75	1054.13	0.39
288.15	0.8	1062.88	0.42
288.15	0.85	1071.11	0.44
288.15	0.9	1078.93	0.47
288.15	0.95	1086.31	0.49
288.15	1	1093.23	0.52
298.15	0	785	0.46
298.15	0.05	816.86	0.42
298.15	0.1	844.92	0.38
298.15	0.15	869.96	0.35
298.15	0.2	892.4	0.32
298.15	0.25	912.73	0.31
298.15	0.3	931.27	0.29
298.15	0.35	948.19	0.29
298.15	0.4	963.7	0.28
298.15	0.45	978.01	0.29
298.15	0.5	991.23	0.29
298.15	0.55	1003.42	0.3
298.15	0.6	1014.81	0.32
298.15	0.65	1025.44	0.34
298.15	0.7	1035.36	0.36
298.15	0.75	1044.67	0.38
298.15	0.8	1053.41	0.41
298.15	0.85	1061.7	0.43
298.15	0.9	1069.53	0.46
298.15	0.95	1076.94	0.48
298.15	1	1083.92	0.51
308.15	0	776.31	0.48
308.15	0.05	807.97	0.43
308.15	0.1	835.86	0.39
308.15	0.15	860.69	0.36
308.15	0.2	883.02	0.34
308.15	0.25	903.27	0.32
308.15	0.3	921.76	0.3
308.15	0.35	938.63	0.3
308.15	0.4	954.11	0.29
308.15	0.45	968.36	0.29
308.15	0.5	981.53	0.3
308.15	0.55	993.75	0.3
308.15	0.6	1005.11	0.31
308.15	0.65	1015.73	0.33
308.15	0.7	1025.64	0.35
308.15	0.75	1034.95	0.37
308.15	0.8	1043.73	0.4
308.15	0.85	1052.04	0.42
308.15	0.9	1059.87	0.45
308.15	0.95	1067.3	0.47
308.15	1	1074.34	0.5
318.15	0	767.44	0.49
318.15	0.05	798.9	0.44
318.15	0.1	826.58	0.41
318.15	0.15	851.28	0.37
318.15	0.2	873.48	0.35
318.15	0.25	893.66	0.33
318.15	0.3	912.06	0.32
318.15	0.35	928.88	0.31
318.15	0.4	944.3	0.3
318.15	0.45	958.52	0.3
318.15	0.5	971.68	0.31
318.15	0.55	983.88	0.3
318.15	0.6	995.26	0.31
318.15	0.65	1005.87	0.32
318.15	0.7	1015.8	0.34
318.15	0.75	1025.13	0.36
318.15	0.8	1033.93	0.39
318.15	0.85	1042.24	0.41
318.15	0.9	1050.1	0.44
318.15	0.95	1057.55	0.46
318.15	1	1064.62	0.49

System: ethanol + benzyl ethanoate; phases: Liquid
Fixed: Pressure, kPa = 100.5
Property: Viscosity, Pa*s (Liquid); method: Capillary tube (Ostwald; Ubbelohde) method
Temperature, K	Mole fraction of benzyl ethanoate	Viscosity, Pa*s	uncertainty
288.15	0	0.001337	1.4e-05
288.15	0.05	0.001317	1.4e-05
288.15	0.1	0.001328	1.4e-05
288.15	0.15	0.001357	1.4e-05
288.15	0.2	0.001393	1.4e-05
288.15	0.25	0.001439	1.4e-05
288.15	0.3	0.001489	1.5e-05
288.15	0.35	0.001543	1.5e-05
288.15	0.4	0.001601	1.5e-05
288.15	0.45	0.001661	1.5e-05
288.15	0.5	0.001724	1.5e-05
288.15	0.55	0.001789	1.6e-05
288.15	0.6	0.001859	1.6e-05
288.15	0.65	0.001929	1.6e-05
288.15	0.7	0.002003	1.6e-05
288.15	0.75	0.002081	1.7e-05
288.15	0.8	0.002163	1.7e-05
288.15	0.85	0.002249	1.7e-05
288.15	0.9	0.002339	1.8e-05
288.15	0.95	0.00244	1.8e-05
288.15	1	0.00253	1.8e-05
298.15	0	0.001105	1.4e-05
298.15	0.05	0.001089	1.3e-05
298.15	0.1	0.001098	1.4e-05
298.15	0.15	0.001123	1.4e-05
298.15	0.2	0.001154	1.4e-05
298.15	0.25	0.001191	1.4e-05
298.15	0.3	0.001231	1.4e-05
298.15	0.35	0.001274	1.4e-05
298.15	0.4	0.001319	1.4e-05
298.15	0.45	0.001365	1.4e-05
298.15	0.5	0.001413	1.4e-05
298.15	0.55	0.001465	1.5e-05
298.15	0.6	0.001518	1.5e-05
298.15	0.65	0.001571	1.5e-05
298.15	0.7	0.001629	1.5e-05
298.15	0.75	0.001691	1.5e-05
298.15	0.8	0.00176	1.6e-05
298.15	0.85	0.00183	1.6e-05
298.15	0.9	0.001906	1.6e-05
298.15	0.95	0.001987	1.6e-05
298.15	1	0.002056	1.7e-05
308.15	0	0.000921	1.3e-05
308.15	0.05	0.00091	1.3e-05
308.15	0.1	0.00092	1.3e-05
308.15	0.15	0.000942	1.3e-05
308.15	0.2	0.000967	1.3e-05
308.15	0.25	0.000998	1.3e-05
308.15	0.3	0.001031	1.3e-05
308.15	0.35	0.001067	1.3e-05
308.15	0.4	0.001104	1.4e-05
308.15	0.45	0.001142	1.4e-05
308.15	0.5	0.001182	1.4e-05
308.15	0.55	0.001223	1.4e-05
308.15	0.6	0.001268	1.4e-05
308.15	0.65	0.001312	1.4e-05
308.15	0.7	0.00136	1.4e-05
308.15	0.75	0.001409	1.4e-05
308.15	0.8	0.001463	1.5e-05
308.15	0.85	0.001524	1.5e-05
308.15	0.9	0.001588	1.5e-05
308.15	0.95	0.001652	1.5e-05
308.15	1	0.001703	1.5e-05
318.15	0	0.000771	1.3e-05
318.15	0.05	0.000766	1.3e-05
318.15	0.1	0.000779	1.3e-05
318.15	0.15	0.000796	1.3e-05
318.15	0.2	0.000821	1.3e-05
318.15	0.25	0.000846	1.3e-05
318.15	0.3	0.000875	1.3e-05
318.15	0.35	0.000906	1.3e-05
318.15	0.4	0.000937	1.3e-05
318.15	0.45	0.000971	1.3e-05
318.15	0.5	0.001005	1.3e-05
318.15	0.55	0.00104	1.3e-05
318.15	0.6	0.001077	1.4e-05
318.15	0.65	0.001116	1.4e-05
318.15	0.7	0.001156	1.4e-05
318.15	0.75	0.001197	1.4e-05
318.15	0.8	0.001241	1.4e-05
318.15	0.85	0.001289	1.4e-05
318.15	0.9	0.001341	1.4e-05
318.15	0.95	0.001392	1.4e-05
318.15	1	0.001432	1.5e-05

System: ethanol + benzyl ethanoate; phases: Liquid
Fixed: Pressure, kPa = 100.5
Property: Mass density, kg/m3 (Liquid); method: VIBTUB:UFactor:4
Temperature, K	Mole fraction of benzyl ethanoate	Mass density, kg/m3	uncertainty
288.15	0	793.6	0.45
288.15	0.05	825.52	0.4
288.15	0.1	852.86	0.36
288.15	0.15	876.56	0.33
288.15	0.2	897.58	0.3
288.15	0.25	916.18	0.28
288.15	0.3	932.86	0.26
288.15	0.35	947.82	0.25
288.15	0.4	961.41	0.24
288.15	0.45	973.74	0.23
288.15	0.5	984.92	0.22
288.15	0.55	995.2	0.21
288.15	0.6	1004.68	0.21
288.15	0.65	1013.4	0.22
288.15	0.7	1021.55	0.23
288.15	0.75	1029.05	0.24
288.15	0.8	1036.05	0.25
288.15	0.85	1042.59	0.27
288.15	0.9	1048.78	0.28
288.15	0.95	1054.57	0.29
288.15	1	1060.11	0.31
298.15	0	785	0.46
298.15	0.05	816.73	0.41
298.15	0.1	843.91	0.38
298.15	0.15	867.47	0.34
298.15	0.2	888.4	0.32
298.15	0.25	906.92	0.3
298.15	0.3	923.54	0.28
298.15	0.35	938.44	0.26
298.15	0.4	952	0.25
298.15	0.45	964.29	0.24
298.15	0.5	975.44	0.23
298.15	0.55	985.72	0.22
298.15	0.6	995.21	0.21
298.15	0.65	1003.92	0.21
298.15	0.7	1012.1	0.22
298.15	0.75	1019.58	0.23
298.15	0.8	1026.61	0.24
298.15	0.85	1033.16	0.26
298.15	0.9	1039.39	0.27
298.15	0.95	1045.21	0.28
298.15	1	1050.75	0.29
308.15	0	776.31	0.48
308.15	0.05	807.83	0.43
308.15	0.1	834.85	0.39
308.15	0.15	858.28	0.36
308.15	0.2	879.1	0.33
308.15	0.25	897.57	0.31
308.15	0.3	914.12	0.29
308.15	0.35	928.98	0.27
308.15	0.4	942.5	0.26
308.15	0.45	954.76	0.25
308.15	0.5	965.91	0.24
308.15	0.55	976.17	0.23
308.15	0.6	985.66	0.22
308.15	0.65	994.38	0.21
308.15	0.7	1002.56	0.21
308.15	0.75	1010.07	0.22
308.15	0.8	1017.13	0.23
308.15	0.85	1023.71	0.24
308.15	0.9	1029.98	0.26
308.15	0.95	1035.84	0.27
308.15	1	1041.39	0.28
318.15	0	767.44	0.49
318.15	0.05	798.78	0.44
318.15	0.1	825.63	0.4
318.15	0.15	848.94	0.37
318.15	0.2	869.66	0.34
318.15	0.25	888.07	0.32
318.15	0.3	904.56	0.3
318.15	0.35	919.38	0.29
318.15	0.4	932.88	0.27
318.15	0.45	945.12	0.26
318.15	0.5	956.27	0.25
318.15	0.55	966.52	0.24
318.15	0.6	976.03	0.22
318.15	0.65	984.76	0.22
318.15	0.7	992.96	0.21
318.15	0.75	1000.51	0.21
318.15	0.8	1007.6	0.22
318.15	0.85	1014.22	0.23
318.15	0.9	1020.53	0.25
318.15	0.95	1026.44	0.26
318.15	1	1032.03	0.27

System: ethanol + ethyl 2-hydroxybenzoate; phases: Liquid
Fixed: Pressure, kPa = 100.5
Property: Viscosity, Pa*s (Liquid); method: CAPTUB:UFactor:2
Temperature, K	Mole fraction of ethyl 2-hydroxybenzoate	Viscosity, Pa*s	uncertainty
288.15	0	0.001337	1.9e-05
288.15	0.05	0.001398	1.9e-05
288.15	0.1	0.001467	2e-05
288.15	0.15	0.001533	2e-05
288.15	0.2	0.001615	2.1e-05
288.15	0.25	0.001708	2.2e-05
288.15	0.3	0.0018	2.3e-05
288.15	0.35	0.001902	2.3e-05
288.15	0.4	0.002001	2.4e-05
288.15	0.45	0.002104	2.5e-05
288.15	0.5	0.002209	2.6e-05
288.15	0.55	0.002317	2.7e-05
288.15	0.6	0.002428	2.8e-05
288.15	0.65	0.002543	2.9e-05
288.15	0.7	0.002664	3e-05
288.15	0.75	0.0028	3.2e-05
288.15	0.8	0.002943	3.3e-05
288.15	0.85	0.0031	3.5e-05
288.15	0.9	0.003268	3.7e-05
288.15	0.95	0.003503	3.9e-05
288.15	1	0.003694	4.1e-05
298.15	0	0.001105	1.7e-05
298.15	0.05	0.001145	1.7e-05
298.15	0.1	0.001197	1.8e-05
298.15	0.15	0.001258	1.8e-05
298.15	0.2	0.001322	1.9e-05
298.15	0.25	0.001388	1.9e-05
298.15	0.3	0.001455	2e-05
298.15	0.35	0.001526	2e-05
298.15	0.4	0.001598	2.1e-05
298.15	0.45	0.001677	2.2e-05
298.15	0.5	0.001757	2.2e-05
298.15	0.55	0.001838	2.3e-05
298.15	0.6	0.001921	2.4e-05
298.15	0.65	0.002006	2.4e-05
298.15	0.7	0.002096	2.5e-05
298.15	0.75	0.002187	2.6e-05
298.15	0.8	0.002288	2.7e-05
298.15	0.85	0.002398	2.8e-05
298.15	0.9	0.002522	2.9e-05
298.15	0.95	0.002706	3.1e-05
298.15	1	0.002831	3.2e-05
308.15	0	0.000921	1.6e-05
308.15	0.05	0.000953	1.6e-05
308.15	0.1	0.000998	1.6e-05
308.15	0.15	0.001043	1.7e-05
308.15	0.2	0.001094	1.7e-05
308.15	0.25	0.001147	1.8e-05
308.15	0.3	0.001198	1.8e-05
308.15	0.35	0.001254	1.8e-05
308.15	0.4	0.001313	1.9e-05
308.15	0.45	0.001373	1.9e-05
308.15	0.5	0.001435	2e-05
308.15	0.55	0.001498	2e-05
308.15	0.6	0.001561	2.1e-05
308.15	0.65	0.001627	2.1e-05
308.15	0.7	0.001695	2.2e-05
308.15	0.75	0.001766	2.2e-05
308.15	0.8	0.001846	2.3e-05
308.15	0.85	0.001932	2.4e-05
308.15	0.9	0.00203	2.5e-05
308.15	0.95	0.002163	2.6e-05
308.15	1	0.002253	2.7e-05
318.15	0	0.000771	1.5e-05
318.15	0.05	0.000802	1.5e-05
318.15	0.1	0.000836	1.5e-05
318.15	0.15	0.000877	1.6e-05
318.15	0.2	0.000915	1.6e-05
318.15	0.25	0.000957	1.6e-05
318.15	0.3	0.000999	1.6e-05
318.15	0.35	0.001045	1.7e-05
318.15	0.4	0.001093	1.7e-05
318.15	0.45	0.001141	1.7e-05
318.15	0.5	0.001192	1.8e-05
318.15	0.55	0.001242	1.8e-05
318.15	0.6	0.001294	1.9e-05
318.15	0.65	0.001347	1.9e-05
318.15	0.7	0.001403	2e-05
318.15	0.75	0.001463	2e-05
318.15	0.8	0.001527	2.1e-05
318.15	0.85	0.001596	2.1e-05
318.15	0.9	0.001678	2.2e-05
318.15	0.95	0.001781	2.3e-05
318.15	1	0.001842	2.3e-05

System: ethanol + ethyl 2-hydroxybenzoate; phases: Liquid
Fixed: Pressure, kPa = 100.5
Property: Mass density, kg/m3 (Liquid); method: VIBTUB:UFactor:4
Temperature, K	Mole fraction of ethyl 2-hydroxybenzoate	Mass density, kg/m3	uncertainty
288.15	0	793.6	0.45
288.15	0.05	835.47	0.39
288.15	0.1	871.02	0.34
288.15	0.15	901.89	0.3
288.15	0.2	928.98	0.27
288.15	0.25	952.87	0.24
288.15	0.3	974.13	0.22
288.15	0.35	993.22	0.21
288.15	0.4	1010.45	0.22
288.15	0.45	1026.08	0.25
288.15	0.5	1040.36	0.27
288.15	0.55	1053.4	0.28
288.15	0.6	1065.37	0.29
288.15	0.65	1076.35	0.3
288.15	0.7	1086.51	0.32
288.15	0.75	1095.97	0.33
288.15	0.8	1104.72	0.35
288.15	0.85	1112.93	0.36
288.15	0.9	1120.61	0.38
288.15	0.95	1127.85	0.39
288.15	1	1134.72	0.41
298.15	0	785	0.46
298.15	0.05	826.63	0.4
298.15	0.1	862	0.35
298.15	0.15	892.7	0.31
298.15	0.2	919.64	0.28
298.15	0.25	943.42	0.25
298.15	0.3	964.62	0.24
298.15	0.35	983.64	0.22
298.15	0.4	1000.81	0.22
298.15	0.45	1016.38	0.23
298.15	0.5	1030.63	0.26
298.15	0.55	1043.63	0.26
298.15	0.6	1055.57	0.27
298.15	0.65	1066.53	0.29
298.15	0.7	1076.67	0.3
298.15	0.75	1086.12	0.32
298.15	0.8	1094.88	0.33
298.15	0.85	1103.09	0.35
298.15	0.9	1110.81	0.36
298.15	0.95	1118.07	0.38
298.15	1	1125	0.39
308.15	0	776.31	0.48
308.15	0.05	817.7	0.41
308.15	0.1	852.86	0.36
308.15	0.15	883.41	0.33
308.15	0.2	910.21	0.29
308.15	0.25	933.9	0.27
308.15	0.3	955.01	0.25
308.15	0.35	973.96	0.23
308.15	0.4	991.08	0.22
308.15	0.45	1006.61	0.23
308.15	0.5	1020.8	0.24
308.15	0.55	1033.79	0.25
308.15	0.6	1045.7	0.26
308.15	0.65	1056.65	0.27
308.15	0.7	1066.79	0.29
308.15	0.75	1076.24	0.3
308.15	0.8	1085.02	0.32
308.15	0.85	1093.24	0.33
308.15	0.9	1101	0.35
308.15	0.95	1108.31	0.36
308.15	1	1115.29	0.38
318.15	0	767.44	0.49
318.15	0.05	808.61	0.43
318.15	0.1	843.56	0.38
318.15	0.15	873.95	0.34
318.15	0.2	900.63	0.31
318.15	0.25	924.22	0.28
318.15	0.3	945.25	0.26
318.15	0.35	964.15	0.24
318.15	0.4	981.22	0.23
318.15	0.45	996.72	0.22
318.15	0.5	1010.88	0.23
318.15	0.55	1023.85	0.24
318.15	0.6	1035.76	0.25
318.15	0.65	1046.7	0.26
318.15	0.7	1056.85	0.28
318.15	0.75	1066.31	0.29
318.15	0.8	1075.11	0.31
318.15	0.85	1083.37	0.32
318.15	0.9	1091.17	0.34
318.15	0.95	1098.55	0.35
318.15	1	1105.6	0.37

System: ethanol + benzyl propanoate; phases: Liquid
Fixed: Pressure, kPa = 100.5
Property: Viscosity, Pa*s (Liquid); method: Capillary tube (Ostwald; Ubbelohde) method
Temperature, K	Mole fraction of benzyl propanoate	Viscosity, Pa*s	uncertainty
288.15	0	0.001337	1.4e-05
288.15	0.05	0.001352	1.4e-05
288.15	0.1	0.001379	1.4e-05
288.15	0.15	0.00142	1.4e-05
288.15	0.2	0.001466	1.4e-05
288.15	0.25	0.001516	1.5e-05
288.15	0.3	0.001571	1.5e-05
288.15	0.35	0.001631	1.5e-05
288.15	0.4	0.001694	1.5e-05
288.15	0.45	0.001757	1.5e-05
288.15	0.5	0.001821	1.6e-05
288.15	0.55	0.001886	1.6e-05
288.15	0.6	0.001952	1.6e-05
288.15	0.65	0.002019	1.7e-05
288.15	0.7	0.002088	1.7e-05
288.15	0.75	0.002158	1.7e-05
288.15	0.8	0.00223	1.8e-05
288.15	0.85	0.002305	1.8e-05
288.15	0.9	0.002383	1.8e-05
288.15	0.95	0.002463	1.9e-05
288.15	1	0.00255	1.9e-05
298.15	0	0.001105	1.4e-05
298.15	0.05	0.001115	1.4e-05
298.15	0.1	0.00114	1.4e-05
298.15	0.15	0.001173	1.4e-05
298.15	0.2	0.001211	1.4e-05
298.15	0.25	0.001253	1.4e-05
298.15	0.3	0.001298	1.4e-05
298.15	0.35	0.001348	1.4e-05
298.15	0.4	0.001401	1.4e-05
298.15	0.45	0.001454	1.5e-05
298.15	0.5	0.001509	1.5e-05
298.15	0.55	0.001564	1.5e-05
298.15	0.6	0.001621	1.5e-05
298.15	0.65	0.001678	1.5e-05
298.15	0.7	0.001737	1.6e-05
298.15	0.75	0.001797	1.6e-05
298.15	0.8	0.001858	1.6e-05
298.15	0.85	0.001921	1.7e-05
298.15	0.9	0.001986	1.7e-05
298.15	0.95	0.002053	1.7e-05
298.15	1	0.002123	1.8e-05
308.15	0	0.000921	1.3e-05
308.15	0.05	0.000929	1.3e-05
308.15	0.1	0.000949	1.3e-05
308.15	0.15	0.000976	1.3e-05
308.15	0.2	0.001009	1.3e-05
308.15	0.25	0.001044	1.3e-05
308.15	0.3	0.001084	1.4e-05
308.15	0.35	0.001127	1.4e-05
308.15	0.4	0.001171	1.4e-05
308.15	0.45	0.001217	1.4e-05
308.15	0.5	0.001263	1.4e-05
308.15	0.55	0.00131	1.4e-05
308.15	0.6	0.001358	1.4e-05
308.15	0.65	0.001407	1.5e-05
308.15	0.7	0.001457	1.5e-05
308.15	0.75	0.001509	1.5e-05
308.15	0.8	0.001562	1.5e-05
308.15	0.85	0.001617	1.5e-05
308.15	0.9	0.001674	1.6e-05
308.15	0.95	0.001729	1.6e-05
308.15	1	0.001787	1.6e-05
318.15	0	0.000771	1.3e-05
318.15	0.05	0.000777	1.3e-05
318.15	0.1	0.000795	1.3e-05
318.15	0.15	0.000819	1.3e-05
318.15	0.2	0.000848	1.3e-05
318.15	0.25	0.000879	1.3e-05
318.15	0.3	0.000913	1.3e-05
318.15	0.35	0.00095	1.3e-05
318.15	0.4	0.000988	1.3e-05
318.15	0.45	0.001027	1.3e-05
318.15	0.5	0.001067	1.4e-05
318.15	0.55	0.001107	1.4e-05
318.15	0.6	0.001148	1.4e-05
318.15	0.65	0.00119	1.4e-05
318.15	0.7	0.001233	1.4e-05
318.15	0.75	0.001278	1.4e-05
318.15	0.8	0.001323	1.4e-05
318.15	0.85	0.00137	1.5e-05
318.15	0.9	0.001419	1.5e-05
318.15	0.95	0.001468	1.5e-05
318.15	1	0.001515	1.5e-05

System: ethanol + benzyl propanoate; phases: Liquid
Fixed: Pressure, kPa = 100.5
Property: Mass density, kg/m3 (Liquid); method: VIBTUB:UFactor:4
Temperature, K	Mole fraction of benzyl propanoate	Mass density, kg/m3	uncertainty
288.15	0	793.6	0.45
288.15	0.05	825.63	0.4
288.15	0.1	852.43	0.36
288.15	0.15	875.21	0.33
288.15	0.2	894.95	0.31
288.15	0.25	912.16	0.29
288.15	0.3	927.38	0.28
288.15	0.35	940.83	0.27
288.15	0.4	952.87	0.26
288.15	0.45	963.72	0.26
288.15	0.5	973.57	0.26
288.15	0.55	982.43	0.25
288.15	0.6	990.54	0.25
288.15	0.65	997.98	0.26
288.15	0.7	1004.81	0.27
288.15	0.75	1011.09	0.28
288.15	0.8	1016.98	0.3
288.15	0.85	1022.5	0.31
288.15	0.9	1027.59	0.33
288.15	0.95	1032.37	0.35
288.15	1	1036.86	0.36
298.15	0	785	0.46
298.15	0.05	816.86	0.42
298.15	0.1	843.5	0.38
298.15	0.15	866.17	0.35
298.15	0.2	885.82	0.32
298.15	0.25	902.96	0.31
298.15	0.3	918.13	0.29
298.15	0.35	931.54	0.28
298.15	0.4	943.55	0.27
298.15	0.45	954.39	0.27
298.15	0.5	964.22	0.26
298.15	0.55	973.07	0.26
298.15	0.6	981.17	0.26
298.15	0.65	988.61	0.26
298.15	0.7	995.44	0.27
298.15	0.75	1001.73	0.27
298.15	0.8	1007.63	0.29
298.15	0.85	1013.15	0.31
298.15	0.9	1018.25	0.32
298.15	0.95	1023.06	0.34
298.15	1	1027.6	0.35
308.15	0	776.31	0.48
308.15	0.05	807.99	0.43
308.15	0.1	834.48	0.39
308.15	0.15	857.03	0.36
308.15	0.2	876.6	0.34
308.15	0.25	893.68	0.32
308.15	0.3	908.8	0.3
308.15	0.35	922.17	0.29
308.15	0.4	934.16	0.28
308.15	0.45	944.97	0.28
308.15	0.5	954.79	0.27
308.15	0.55	963.63	0.27
308.15	0.6	971.74	0.27
308.15	0.65	979.19	0.27
308.15	0.7	986.04	0.27
308.15	0.75	992.35	0.28
308.15	0.8	998.28	0.28
308.15	0.85	1003.82	0.3
308.15	0.9	1008.96	0.31
308.15	0.95	1013.8	0.33
308.15	1	1018.38	0.34
318.15	0	767.44	0.49
318.15	0.05	798.97	0.44
318.15	0.1	825.3	0.41
318.15	0.15	847.75	0.38
318.15	0.2	867.25	0.35
318.15	0.25	884.27	0.33
318.15	0.3	899.34	0.32
318.15	0.35	912.69	0.3
318.15	0.4	924.65	0.29
318.15	0.45	935.46	0.29
318.15	0.5	945.28	0.28
318.15	0.55	954.12	0.28
318.15	0.6	962.24	0.27
318.15	0.65	969.71	0.27
318.15	0.7	976.58	0.28
318.15	0.75	982.93	0.28
318.15	0.8	988.88	0.29
318.15	0.85	994.46	0.3
318.15	0.9	999.64	0.31
318.15	0.95	1004.53	0.32
318.15	1	1009.15	0.34
