Measured thermophysical data. New Static Apparatus and Vapor Pressure of Reference Materials: Naphthalene, Benzoic Acid, Benzophenone, and Ferrocene
Source: J. Chem. Eng. Data, 2006, 10.1021/je050502y
Compound 1: naphthalene, C10H8, InChI=1S/C10H8/c1-2-6-10-8-4-3-7-9(10)5-1/h1-8H, purity 99%
Compound 2: benzoic acid, C7H6O2, InChI=1S/C7H6O2/c8-7(9)6-4-2-1-3-5-6/h1-5H,(H,8,9), purity 99.997%
Compound 3: benzophenone, C13H10O, InChI=1S/C13H10O/c14-13(11-7-3-1-4-8-11)12-9-5-2-6-10-12/h1-10H, purity 99%
Compound 4: ferrocene, C10H10Fe, InChI=1S/2C5H5.Fe/c2*1-2-4-5-3-1;/h2*1-5H;, purity 99%

System: naphthalene; phases: Crystal, Gas
Property: Vapor or sublimation pressure, kPa (Crystal); method: Diaphragm manometer
Temperature, K	Vapor or sublimation pressure, kPa	uncertainty
262.24	0.000182	2.3e-05
262.25	0.000181	2.2e-05
263.24	0.000213	2.3e-05
263.24	0.000213	2.3e-05
264.23	0.000241	2.3e-05
264.23	0.000244	2.3e-05
264.24	0.000244	2.3e-05
265.22	0.000279	2.3e-05
265.22	0.000277	2.3e-05
266.21	0.000315	2.4e-05
266.21	0.000314	2.4e-05
266.21	0.000313	2.4e-05
267.16	0.000359	2.4e-05
267.16	0.000355	2.4e-05
268.15	0.000407	2.5e-05
268.17	0.000407	2.5e-05
269.18	0.000464	2.5e-05
269.18	0.000462	2.5e-05
270.16	0.000517	2.6e-05
270.16	0.000519	2.6e-05
270.17	0.000525	2.6e-05
271.2	0.000591	2.7e-05
271.2	0.000592	2.7e-05
272.17	0.000663	2.7e-05
272.2	0.000667	2.8e-05
273.17	0.000751	2.9e-05
273.17	0.000748	2.9e-05
273.17	0.000746	2.9e-05
274.18	0.000843	3e-05
274.19	0.000842	3e-05
275.19	0.000959	3.1e-05
276.14	0.001061	3.3e-05
276.15	0.001059	3.3e-05
277.17	0.001191	3.5e-05
277.19	0.0012	3.5e-05
278.14	0.001331	3.7e-05
278.15	0.001338	3.7e-05
278.17	0.001334	3.7e-05
278.19	0.001331	3.7e-05
279.19	0.00149	3.9e-05
279.19	0.00149	3.9e-05
280.19	0.001671	4.2e-05
280.19	0.001668	4.2e-05
281.19	0.00186	4.5e-05
281.2	0.001862	4.5e-05
281.21	0.00186	4.5e-05
282.17	0.002078	4.8e-05
282.19	0.002083	4.9e-05
283.18	0.002367	5.4e-05
283.19	0.002342	5.3e-05
283.19	0.002318	5.3e-05
283.19	0.00236	5.4e-05
283.2	0.002323	5.3e-05
288.14	0.003968	8.5e-05
288.15	0.003972	8.5e-05
288.15	0.00401	8.6e-05
288.17	0.00398	8.5e-05
288.19	0.003992	8.6e-05
293.18	0.006699	0.000138
293.2	0.006768	0.00014
293.2	0.006757	0.000139
298.18	0.0111	0.000224
298.19	0.01116	0.000225
298.19	0.01109	0.000224
298.2	0.0112	0.000226
303.15	0.01794	0.000357
303.15	0.01797	0.000357
303.16	0.01798	0.000358
303.18	0.01797	0.000357
308.14	0.02868	0.000564
308.15	0.02864	0.000564
308.27	0.0289	0.000568
313.15	0.04503	0.000884
313.15	0.04508	0.000885
313.18	0.04501	0.000883
318.21	0.0697	0.001363
318.22	0.06962	0.001361
318.25	0.06975	0.001364
323.19	0.1058	0.002062
323.24	0.1059	0.002064

System: benzoic acid; phases: Crystal, Gas
Property: Vapor or sublimation pressure, kPa (Crystal); method: Diaphragm manometer
Temperature, K	Vapor or sublimation pressure, kPa	uncertainty
310.19	0.000449	2.5e-05
310.2	0.000448	2.5e-05
311.65	0.00055	2.6e-05
311.66	0.000535	2.6e-05
311.67	0.000541	2.6e-05
313.1	0.000621	2.7e-05
313.12	0.00065	2.7e-05
313.13	0.00065	2.7e-05
315.6	0.000852	3e-05
315.62	0.000852	3e-05
318.1	0.001123	3.4e-05
318.11	0.00112	3.4e-05
318.12	0.001102	3.3e-05
320.1	0.001363	3.7e-05
320.13	0.001368	3.7e-05
321.59	0.001618	4.1e-05
321.62	0.001612	4.1e-05
323.12	0.001911	4.6e-05
323.13	0.001861	4.5e-05
323.14	0.001856	4.5e-05
323.15	0.001855	4.5e-05
323.16	0.001865	4.5e-05
325.12	0.002333	5.3e-05
325.13	0.002286	5.2e-05
325.15	0.002295	5.2e-05
326.59	0.002706	6e-05
326.6	0.002681	6e-05
326.63	0.002726	6.1e-05
328.08	0.003115	6.8e-05
328.08	0.003145	6.9e-05
328.1	0.003159	6.9e-05
330.13	0.003801	8.2e-05
330.13	0.003807	8.2e-05
333.06	0.005193	0.000109
333.07	0.005088	0.000109
333.07	0.00511	0.000108
333.13	0.005159	0.000108
338.09	0.008217	0.000168
338.1	0.008222	0.000168
343.07	0.01308	0.000262
343.09	0.01301	0.000261
343.11	0.01319	0.000264
348.06	0.02057	0.000408
348.06	0.02066	0.00041
348.07	0.02062	0.000409
348.08	0.02092	0.000415
353.04	0.03208	0.000631
353.05	0.03214	0.000633
353.06	0.03206	0.000631
358.04	0.04894	0.000959
358.07	0.04903	0.000961
362.03	0.06814	0.001331
362.03	0.06811	0.00133

System: benzophenone; phases: Crystal, Gas
Property: Vapor or sublimation pressure, kPa (Crystal); method: Diaphragm manometer
Temperature, K	Vapor or sublimation pressure, kPa	uncertainty
310.09	0.000394	2.4e-05
310.09	0.000395	2.4e-05
310.1	0.000396	2.4e-05
311.09	0.000444	2.5e-05
311.1	0.000441	2.5e-05
311.12	0.000442	2.5e-05
312.09	0.0005	2.6e-05
312.09	0.000495	2.6e-05
312.09	0.000495	2.6e-05
312.1	0.000497	2.6e-05
313.09	0.000559	2.6e-05
313.09	0.000561	2.6e-05
313.1	0.000563	2.6e-05
314.08	0.000636	2.7e-05
314.08	0.000634	2.7e-05
314.08	0.000632	2.7e-05
315.07	0.000709	2.8e-05
315.07	0.000708	2.8e-05
315.07	0.000708	2.8e-05
316.07	0.000799	2.9e-05
316.07	0.000797	2.9e-05
316.07	0.000795	2.9e-05
317.05	0.000886	3e-05
317.06	0.000885	3e-05
317.06	0.000886	3e-05
318.02	0.000987	3.2e-05
318.03	0.000987	3.2e-05
318.04	0.000987	3.2e-05
319.04	0.001108	3.3e-05
319.05	0.001109	3.3e-05
319.06	0.00111	3.3e-05
319.54	0.001171	3.4e-05
319.55	0.001172	3.4e-05
319.55	0.001173	3.4e-05
320.04	0.001239	3.5e-05
320.05	0.001239	3.5e-05
320.06	0.001241	3.5e-05
320.54	0.00131	3.6e-05
320.54	0.00131	3.6e-05
320.54	0.001308	3.6e-05

System: benzophenone; phases: Metastable liquid, Gas
Property: Vapor or sublimation pressure, kPa (Metastable liquid); method: Diaphragm manometer
Temperature, K	Vapor or sublimation pressure, kPa	uncertainty
308.18	0.000414	2.5e-05
308.18	0.000418	2.5e-05
313.42	0.000699	2.8e-05
313.43	0.000689	2.8e-05
318.15	0.001076	3.3e-05
318.15	0.001076	3.3e-05
321.14	0.001387	3.7e-05
321.14	0.001391	3.8e-05
321.15	0.001393	3.8e-05
321.15	0.001396	3.8e-05
322.14	0.00152	3.9e-05
322.15	0.001525	4e-05
323.13	0.001664	4.2e-05
323.13	0.001661	4.2e-05
323.15	0.001664	4.2e-05
323.21	0.001676	4.2e-05
328.06	0.002546	5.7e-05
328.07	0.002551	5.7e-05
328.21	0.002573	5.8e-05
333.03	0.003844	8.3e-05
333.11	0.003886	8.4e-05
338.03	0.005697	0.000118
338.03	0.005691	0.000118
343.02	0.008481	0.000172
343.03	0.008433	0.000172
348.01	0.01225	0.000246
348.09	0.01233	0.000247
352.99	0.01742	0.000346
352.99	0.01741	0.000346
357.95	0.02455	0.000484
357.96	0.02453	0.000484
362.97	0.03445	0.000676
362.97	0.03446	0.000677
362.98	0.03449	0.000677
367.85	0.04726	0.000923
367.95	0.04742	0.000927
367.96	0.04738	0.000926
373.07	0.06515	0.001272
373.07	0.06513	0.001271
378.04	0.08758	0.001707
378.04	0.08768	0.001709
383.32	0.1191	0.002317
383.32	0.1191	0.002317
384.8	0.1294	0.002517
384.8	0.1293	0.002515
384.81	0.1294	0.002517

System: ferrocene; phases: Crystal, Gas
Property: Vapor or sublimation pressure, kPa (Crystal); method: Diaphragm manometer
Temperature, K	Vapor or sublimation pressure, kPa	uncertainty
288.16	0.000357	2.4e-05
288.17	0.000341	2.4e-05
288.18	0.000356	2.4e-05
290.67	0.00045	2.5e-05
290.67	0.000454	2.5e-05
290.68	0.000456	2.5e-05
293.18	0.000597	2.7e-05
293.2	0.000595	2.7e-05
295.68	0.000779	2.9e-05
295.69	0.000774	2.9e-05
298.17	0.000991	3.2e-05
298.17	0.000991	3.2e-05
298.2	0.001006	3.2e-05
300.71	0.001296	3.6e-05
303.14	0.001613	4.1e-05
303.15	0.001661	4.2e-05
303.15	0.001616	4.1e-05
305.16	0.001951	4.6e-05
305.19	0.001968	4.7e-05
308.15	0.002613	5.9e-05
308.16	0.002641	5.9e-05
308.16	0.002614	5.9e-05
313.15	0.004171	8.9e-05
313.17	0.004156	8.9e-05
318.09	0.006401	0.000132
318.15	0.006504	0.000134
323.07	0.009955	0.000201
323.08	0.009948	0.000201
323.08	0.009948	0.000201
328.05	0.01501	0.000299
328.05	0.01519	0.000303
328.05	0.01495	0.000298
328.06	0.01489	0.000297
328.06	0.01485	0.000296
333.03	0.02228	0.000441
333.04	0.02234	0.000442
333.04	0.02227	0.000441
338.02	0.03325	0.000654
338.02	0.03327	0.000654
343.01	0.04785	0.000937
343.01	0.04786	0.000937
343.01	0.04768	0.000934
348.08	0.06942	0.001356
348.09	0.06943	0.001356
353.06	0.09748	0.0019
353.07	0.09819	0.001914
353.08	0.09808	0.001911
355.93	0.1208	0.002348
356.05	0.1212	0.002356
356.06	0.1212	0.002356
