Measured thermophysical data. Henry s Law Constants and Infinite Dilution Activity Coefficients of Propane, Propene, Butane, 2-Methylpropane, 1-Butene, 2-Methylpropene, trans-2-Butene, cis-2-Butene, 1,3-Butadiene, Dimethyl Ether, Chloroethane, and 1,1-Difluoroethane in 2-Methyl-3-buten-2-ol and 3-Methyl-3-buten-1-ol
Source: J. Chem. Eng. Data, 2005, 10.1021/je050343i
Compound 1: butane, C4H10, InChI=1S/C4H10/c1-3-4-2/h3-4H2,1-2H3, purity 99.8%
Compound 2: 2-methylpropane, C4H10, InChI=1S/C4H10/c1-4(2)3/h4H,1-3H3, purity 99%
Compound 3: 1-butene, C4H8, InChI=1S/C4H8/c1-3-4-2/h3H,1,4H2,2H3, purity 99%
Compound 4: 2-methylpropene, C4H8, InChI=1S/C4H8/c1-4(2)3/h1H2,2-3H3, purity 99%
Compound 5: propane, C3H8, InChI=1S/C3H8/c1-3-2/h3H2,1-2H3, purity 99.5%
Compound 6: propene, C3H6, InChI=1S/C3H6/c1-3-2/h3H,1H2,2H3, purity 99.5%
Compound 7: (Z)-2-butene, C4H8, InChI=1S/C4H8/c1-3-4-2/h3-4H,1-2H3/b4-3-
Compound 8: (E)-2-butene, C4H8, InChI=1S/C4H8/c1-3-4-2/h3-4H,1-2H3/b4-3+
Compound 9: chloroethane, C2H5Cl, InChI=1S/C2H5Cl/c1-2-3/h2H2,1H3
Compound 10: 1,1-difluoroethane, C2H4F2, InChI=1S/C2H4F2/c1-2(3)4/h2H,1H3
Compound 11: 1,3-butadiene, C4H6, InChI=1S/C4H6/c1-3-4-2/h3-4H,1-2H2
Compound 12: 2-methyl-3-buten-2-ol, C5H10O, InChI=1S/C5H10O/c1-4-5(2,3)6/h4,6H,1H2,2-3H3
Compound 13: 3-methyl-3-buten-1-ol, C5H10O, InChI=1S/C5H10O/c1-5(2)3-4-6/h6H,1,3-4H2,2H3
Compound 14: dimethyl ether, C2H6O, InChI=1S/C2H6O/c1-3-2/h1-2H3

System: propane + 2-methyl-3-buten-2-ol; phases: Liquid, Gas
Fixed: Mole fraction of propane = 0
Property: Activity coefficient of propane (Liquid); method: Chromatography
Temperature, K	Activity coefficient of propane	uncertainty
249.98	3.08	0.21
269.95	2.97	0.2
289.99	2.86	0.19
309.99	2.7	0.18
330	2.54	0.17

System: propane + 2-methyl-3-buten-2-ol; phases: Liquid, Gas
Fixed: Mole fraction of propane = 0
Property: Henry's Law constant (mole fraction scale), kPa of propane (Liquid); method: Chromatography
Temperature, K	Henry's Law constant (mole fraction scale), kPa of propane	uncertainty
249.98	630	25
269.95	1160	47
289.99	1900	76
309.99	2810	113
330	3840	154

System: propene + 2-methyl-3-buten-2-ol; phases: Liquid, Gas
Fixed: Mole fraction of propene = 0
Property: Activity coefficient of propene (Liquid); method: Chromatography
Temperature, K	Activity coefficient of propene	uncertainty
249.98	2.46	0.17
269.95	2.38	0.16
289.99	2.3	0.16
309.99	2.17	0.15
330	2.05	0.14

System: propene + 2-methyl-3-buten-2-ol; phases: Liquid, Gas
Fixed: Mole fraction of propene = 0
Property: Henry's Law constant (mole fraction scale), kPa of propene (Liquid); method: Chromatography
Temperature, K	Henry's Law constant (mole fraction scale), kPa of propene	uncertainty
249.98	630	25
269.95	1130	45
289.99	1820	73
309.99	2650	106
330	3600	145

System: butane + 2-methyl-3-buten-2-ol; phases: Liquid, Gas
Fixed: Mole fraction of butane = 0
Property: Activity coefficient of butane (Liquid); method: Chromatography
Temperature, K	Activity coefficient of butane	uncertainty
249.98	3.3	0.22
269.95	3.22	0.22
289.99	3.08	0.21
309.99	2.87	0.2
330	2.65	0.18

System: butane + 2-methyl-3-buten-2-ol; phases: Liquid, Gas
Fixed: Mole fraction of butane = 0
Property: Henry's Law constant (mole fraction scale), kPa of butane (Liquid); method: Chromatography
Temperature, K	Henry's Law constant (mole fraction scale), kPa of butane	uncertainty
249.98	127	5
269.95	285	11
289.99	540	22
309.99	900	36
330	1370	55

System: 2-methylpropane + 2-methyl-3-buten-2-ol; phases: Liquid, Gas
Fixed: Mole fraction of 2-methylpropane = 0
Property: Activity coefficient of 2-methylpropane (Liquid); method: Chromatography
Temperature, K	Activity coefficient of 2-methylpropane	uncertainty
249.98	3.56	0.24
269.95	3.42	0.23
289.99	3.27	0.22
309.99	3.06	0.21
330	2.83	0.19

System: 2-methylpropane + 2-methyl-3-buten-2-ol; phases: Liquid, Gas
Fixed: Mole fraction of 2-methylpropane = 0
Property: Henry's Law constant (mole fraction scale), kPa of 2-methylpropane (Liquid); method: Chromatography
Temperature, K	Henry's Law constant (mole fraction scale), kPa of 2-methylpropane	uncertainty
249.98	218	9
269.95	452	18
289.99	820	33
309.99	1310	53
330	1920	77

System: 1-butene + 2-methyl-3-buten-2-ol; phases: Liquid, Gas
Fixed: Mole fraction of 1-butene = 0
Property: Activity coefficient of 1-butene (Liquid); method: Chromatography
Temperature, K	Activity coefficient of 1-butene	uncertainty
249.98	2.74	0.19
269.95	2.65	0.18
289.99	2.52	0.17
309.99	2.37	0.16
330	2.2	0.15

System: 1-butene + 2-methyl-3-buten-2-ol; phases: Liquid, Gas
Fixed: Mole fraction of 1-butene = 0
Property: Henry's Law constant (mole fraction scale), kPa of 1-butene (Liquid); method: Chromatography
Temperature, K	Henry's Law constant (mole fraction scale), kPa of 1-butene	uncertainty
249.98	133	5
269.95	290	12
289.99	540	22
309.99	890	36
330	1340	54

System: 2-methylpropene + 2-methyl-3-buten-2-ol; phases: Liquid, Gas
Fixed: Mole fraction of 2-methylpropene = 0
Property: Activity coefficient of 2-methylpropene (Liquid); method: Chromatography
Temperature, K	Activity coefficient of 2-methylpropene	uncertainty
249.98	2.72	0.19
269.95	2.61	0.18
289.99	2.47	0.17
309.99	2.31	0.16
330	2.15	0.15

System: 2-methylpropene + 2-methyl-3-buten-2-ol; phases: Liquid, Gas
Fixed: Mole fraction of 2-methylpropene = 0
Property: Henry's Law constant (mole fraction scale), kPa of 2-methylpropene (Liquid); method: Chromatography
Temperature, K	Henry's Law constant (mole fraction scale), kPa of 2-methylpropene	uncertainty
249.98	135	5
269.95	289	12
289.99	540	22
309.99	890	36
330	1330	53

System: 2-methyl-3-buten-2-ol + (E)-2-butene; phases: Liquid, Gas
Fixed: Mole fraction of (E)-2-butene = 0
Property: Activity coefficient of (E)-2-butene (Liquid); method: Chromatography
Temperature, K	Activity coefficient of (E)-2-butene	uncertainty
249.98	2.73	0.19
269.95	2.62	0.18
289.99	2.51	0.17
309.99	2.35	0.16
330	2.2	0.15

System: 2-methyl-3-buten-2-ol + (E)-2-butene; phases: Liquid, Gas
Fixed: Mole fraction of (E)-2-butene = 0
Property: Henry's Law constant (mole fraction scale), kPa of (E)-2-butene (Liquid); method: Chromatography
Temperature, K	Henry's Law constant (mole fraction scale), kPa of (E)-2-butene	uncertainty
249.98	98	4
269.95	219	9
289.99	424	17
309.99	720	29
330	1100	44

System: 2-methyl-3-buten-2-ol + (Z)-2-butene; phases: Liquid, Gas
Fixed: Mole fraction of (Z)-2-butene = 0
Property: Activity coefficient of (Z)-2-butene (Liquid); method: Chromatography
Temperature, K	Activity coefficient of (Z)-2-butene	uncertainty
250	2.55	0.17
269.96	2.48	0.17
289.99	2.36	0.16
309.99	2.23	0.15
330	2.05	0.14

System: 2-methyl-3-buten-2-ol + (Z)-2-butene; phases: Liquid, Gas
Fixed: Mole fraction of (Z)-2-butene = 0
Property: Henry's Law constant (mole fraction scale), kPa of (Z)-2-butene (Liquid); method: Chromatography
Temperature, K	Henry's Law constant (mole fraction scale), kPa of (Z)-2-butene	uncertainty
250	80	3
269.96	186	7
289.99	364	15
309.99	630	25
330	970	39

System: 1,3-butadiene + 2-methyl-3-buten-2-ol; phases: Liquid, Gas
Fixed: Mole fraction of 1,3-butadiene = 0
Property: Activity coefficient of 1,3-butadiene (Liquid); method: Chromatography
Temperature, K	Activity coefficient of 1,3-butadiene	uncertainty
249.98	2.43	0.17
269.95	2.36	0.16
289.99	2.22	0.15
309.99	2.05	0.14
330	1.88	0.13

System: 1,3-butadiene + 2-methyl-3-buten-2-ol; phases: Liquid, Gas
Fixed: Mole fraction of 1,3-butadiene = 0
Property: Henry's Law constant (mole fraction scale), kPa of 1,3-butadiene (Liquid); method: Chromatography
Temperature, K	Henry's Law constant (mole fraction scale), kPa of 1,3-butadiene	uncertainty
249.98	110	4
269.95	243	10
289.99	454	18
309.99	740	30
330	1110	45

System: dimethyl ether + 2-methyl-3-buten-2-ol; phases: Liquid, Gas
Fixed: Mole fraction of dimethyl ether = 0
Property: Activity coefficient of dimethyl ether (Liquid); method: Chromatography
Temperature, K	Activity coefficient of dimethyl ether	uncertainty
250.01	0.62	0.04
269.96	0.67	0.05
289.99	0.7	0.05
309.99	0.72	0.05
330	0.74	0.05

System: dimethyl ether + 2-methyl-3-buten-2-ol; phases: Liquid, Gas
Fixed: Mole fraction of dimethyl ether = 0
Property: Henry's Law constant (mole fraction scale), kPa of dimethyl ether (Liquid); method: Chromatography
Temperature, K	Henry's Law constant (mole fraction scale), kPa of dimethyl ether	uncertainty
250.01	65	3
269.96	151	6
289.99	294	12
309.99	500	20
330	810	33

System: chloroethane + 2-methyl-3-buten-2-ol; phases: Liquid, Gas
Fixed: Mole fraction of chloroethane = 0
Property: Activity coefficient of chloroethane (Liquid); method: Chromatography
Temperature, K	Activity coefficient of chloroethane	uncertainty
250.01	2.28	0.16
269.96	2.16	0.15
289.99	1.96	0.13
309.99	1.69	0.11
330	1.56	0.1

System: chloroethane + 2-methyl-3-buten-2-ol; phases: Liquid, Gas
Fixed: Mole fraction of chloroethane = 0
Property: Henry's Law constant (mole fraction scale), kPa of chloroethane (Liquid); method: Chromatography
Temperature, K	Henry's Law constant (mole fraction scale), kPa of chloroethane	uncertainty
250.01	48	2
269.96	115	5
289.99	227	9
309.99	375	15
330	600	24

System: 1,1-difluoroethane + 2-methyl-3-buten-2-ol; phases: Liquid, Gas
Fixed: Mole fraction of 1,1-difluoroethane = 0
Property: Activity coefficient of 1,1-difluoroethane (Liquid); method: Chromatography
Temperature, K	Activity coefficient of 1,1-difluoroethane	uncertainty
250	4.68	0.32
269.96	3.99	0.27
289.99	3.39	0.23
309.99	2.89	0.2
330	2.47	0.17

System: 1,1-difluoroethane + 2-methyl-3-buten-2-ol; phases: Liquid, Gas
Fixed: Mole fraction of 1,1-difluoroethane = 0
Property: Henry's Law constant (mole fraction scale), kPa of 1,1-difluoroethane (Liquid); method: Chromatography
Temperature, K	Henry's Law constant (mole fraction scale), kPa of 1,1-difluoroethane	uncertainty
250	495	20
269.96	910	37
289.99	1450	58
309.99	2100	84
330	2800	112

System: propane + 3-methyl-3-buten-1-ol; phases: Liquid, Gas
Fixed: Mole fraction of propane = 0
Property: Activity coefficient of propane (Liquid); method: Chromatography
Temperature, K	Activity coefficient of propane	uncertainty
249.92	4.36	0.3
270.04	4.19	0.29
289.99	4.1	0.28
309.99	3.86	0.26
330	3.7	0.25

System: propane + 3-methyl-3-buten-1-ol; phases: Liquid, Gas
Fixed: Mole fraction of propane = 0
Property: Henry's Law constant (mole fraction scale), kPa of propane (Liquid); method: Chromatography
Temperature, K	Henry's Law constant (mole fraction scale), kPa of propane	uncertainty
249.92	890	36
270.04	1640	66
289.99	2730	110
309.99	4020	161
330	5590	225

System: propene + 3-methyl-3-buten-1-ol; phases: Liquid, Gas
Fixed: Mole fraction of propene = 0
Property: Activity coefficient of propene (Liquid); method: Chromatography
Temperature, K	Activity coefficient of propene	uncertainty
249.92	3.07	0.21
270.04	3.04	0.21
289.99	2.99	0.2
309.99	2.92	0.2
330	2.8	0.19

System: propene + 3-methyl-3-buten-1-ol; phases: Liquid, Gas
Fixed: Mole fraction of propene = 0
Property: Henry's Law constant (mole fraction scale), kPa of propene (Liquid); method: Chromatography
Temperature, K	Henry's Law constant (mole fraction scale), kPa of propene	uncertainty
249.92	780	31
270.04	1440	58
289.99	2370	95
309.99	3560	143
330	4920	198

System: butane + 3-methyl-3-buten-1-ol; phases: Liquid, Gas
Fixed: Mole fraction of butane = 0
Property: Activity coefficient of butane (Liquid); method: Chromatography
Temperature, K	Activity coefficient of butane	uncertainty
249.92	4.89	0.33
270.04	4.61	0.31
289.99	4.41	0.3
309.99	4.18	0.28
330	3.99	0.27

System: butane + 3-methyl-3-buten-1-ol; phases: Liquid, Gas
Fixed: Mole fraction of butane = 0
Property: Henry's Law constant (mole fraction scale), kPa of butane (Liquid); method: Chromatography
Temperature, K	Henry's Law constant (mole fraction scale), kPa of butane	uncertainty
249.92	188	8
270.04	408	16
289.99	780	31
309.99	1320	53
330	2060	83

System: 2-methylpropane + 3-methyl-3-buten-1-ol; phases: Liquid, Gas
Fixed: Mole fraction of 2-methylpropane = 0
Property: Activity coefficient of 2-methylpropane (Liquid); method: Chromatography
Temperature, K	Activity coefficient of 2-methylpropane	uncertainty
249.92	5.27	0.36
270.04	4.98	0.34
289.99	4.73	0.32
309.99	4.54	0.31
330	4.29	0.29

System: 2-methylpropane + 3-methyl-3-buten-1-ol; phases: Liquid, Gas
Fixed: Mole fraction of 2-methylpropane = 0
Property: Henry's Law constant (mole fraction scale), kPa of 2-methylpropane (Liquid); method: Chromatography
Temperature, K	Henry's Law constant (mole fraction scale), kPa of 2-methylpropane	uncertainty
249.92	322	13
270.04	660	27
289.99	1190	48
309.99	1950	78
330	2900	116

System: 1-butene + 3-methyl-3-buten-1-ol; phases: Liquid, Gas
Fixed: Mole fraction of 1-butene = 0
Property: Activity coefficient of 1-butene (Liquid); method: Chromatography
Temperature, K	Activity coefficient of 1-butene	uncertainty
249.92	3.57	0.24
270.04	3.47	0.24
289.99	3.4	0.23
309.99	3.28	0.22
330	3.13	0.21

System: 1-butene + 3-methyl-3-buten-1-ol; phases: Liquid, Gas
Fixed: Mole fraction of 1-butene = 0
Property: Henry's Law constant (mole fraction scale), kPa of 1-butene (Liquid); method: Chromatography
Temperature, K	Henry's Law constant (mole fraction scale), kPa of 1-butene	uncertainty
249.92	174	7
270.04	381	15
289.99	730	29
309.99	1240	50
330	1910	77

System: 2-methylpropene + 3-methyl-3-buten-1-ol; phases: Liquid, Gas
Fixed: Mole fraction of 2-methylpropene = 0
Property: Activity coefficient of 2-methylpropene (Liquid); method: Chromatography
Temperature, K	Activity coefficient of 2-methylpropene	uncertainty
249.92	3.49	0.24
270.04	3.41	0.23
289.99	3.32	0.23
309.99	3.21	0.22
330	3.04	0.21

System: 2-methylpropene + 3-methyl-3-buten-1-ol; phases: Liquid, Gas
Fixed: Mole fraction of 2-methylpropene = 0
Property: Henry's Law constant (mole fraction scale), kPa of 2-methylpropene (Liquid); method: Chromatography
Temperature, K	Henry's Law constant (mole fraction scale), kPa of 2-methylpropene	uncertainty
249.92	172	7
270.04	380	15
289.99	720	29
309.99	1230	49
330	1880	76

System: (E)-2-butene + 3-methyl-3-buten-1-ol; phases: Liquid, Gas
Fixed: Mole fraction of (E)-2-butene = 0
Property: Activity coefficient of (E)-2-butene (Liquid); method: Chromatography
Temperature, K	Activity coefficient of (E)-2-butene	uncertainty
249.92	3.55	0.24
270.04	3.42	0.23
289.99	3.35	0.23
309.99	3.27	0.22
330	3.12	0.21

System: (E)-2-butene + 3-methyl-3-buten-1-ol; phases: Liquid, Gas
Fixed: Mole fraction of (E)-2-butene = 0
Property: Henry's Law constant (mole fraction scale), kPa of (E)-2-butene (Liquid); method: Chromatography
Temperature, K	Henry's Law constant (mole fraction scale), kPa of (E)-2-butene	uncertainty
249.92	128	5
270.04	287	12
289.99	570	23
309.99	1000	40
330	1560	63

System: (Z)-2-butene + 3-methyl-3-buten-1-ol; phases: Liquid, Gas
Fixed: Mole fraction of (Z)-2-butene = 0
Property: Activity coefficient of (Z)-2-butene (Liquid); method: Chromatography
Temperature, K	Activity coefficient of (Z)-2-butene	uncertainty
249.95	3.26	0.22
269.95	3.2	0.22
289.9	3.08	0.21
309.99	2.9	0.2
330	2.77	0.19

System: (Z)-2-butene + 3-methyl-3-buten-1-ol; phases: Liquid, Gas
Fixed: Mole fraction of (Z)-2-butene = 0
Property: Henry's Law constant (mole fraction scale), kPa of (Z)-2-butene (Liquid); method: Chromatography
Temperature, K	Henry's Law constant (mole fraction scale), kPa of (Z)-2-butene	uncertainty
249.95	103	4
269.95	240	10
289.9	473	19
309.99	820	33
330	1310	53

System: 1,3-butadiene + 3-methyl-3-buten-1-ol; phases: Liquid, Gas
Fixed: Mole fraction of 1,3-butadiene = 0
Property: Activity coefficient of 1,3-butadiene (Liquid); method: Chromatography
Temperature, K	Activity coefficient of 1,3-butadiene	uncertainty
249.92	2.76	0.19
270.04	2.69	0.18
289.99	2.65	0.18
309.99	2.56	0.17
330	2.45	0.17

System: 1,3-butadiene + 3-methyl-3-buten-1-ol; phases: Liquid, Gas
Fixed: Mole fraction of 1,3-butadiene = 0
Property: Henry's Law constant (mole fraction scale), kPa of 1,3-butadiene (Liquid); method: Chromatography
Temperature, K	Henry's Law constant (mole fraction scale), kPa of 1,3-butadiene	uncertainty
249.92	124	5
270.04	277	11
289.99	540	22
309.99	930	37
330	1450	58

System: dimethyl ether + 3-methyl-3-buten-1-ol; phases: Liquid, Gas
Fixed: Mole fraction of dimethyl ether = 0
Property: Activity coefficient of dimethyl ether (Liquid); method: Chromatography
Temperature, K	Activity coefficient of dimethyl ether	uncertainty
249.95	1.28	0.08
269.95	1.23	0.08
289.9	1.2	0.08
309.99	1.17	0.07
330	1.15	0.07

System: dimethyl ether + 3-methyl-3-buten-1-ol; phases: Liquid, Gas
Fixed: Mole fraction of dimethyl ether = 0
Property: Henry's Law constant (mole fraction scale), kPa of dimethyl ether (Liquid); method: Chromatography
Temperature, K	Henry's Law constant (mole fraction scale), kPa of dimethyl ether	uncertainty
249.95	135	5
269.95	276	11
289.9	500	20
309.99	830	33
330	1260	51

System: chloroethane + 3-methyl-3-buten-1-ol; phases: Liquid, Gas
Fixed: Mole fraction of chloroethane = 0
Property: Activity coefficient of chloroethane (Liquid); method: Chromatography
Temperature, K	Activity coefficient of chloroethane	uncertainty
249.94	2.49	0.17
269.95	2.35	0.16
289.9	2.32	0.16
309.99	2.23	0.15
330	1.99	0.14

System: chloroethane + 3-methyl-3-buten-1-ol; phases: Liquid, Gas
Fixed: Mole fraction of chloroethane = 0
Property: Henry's Law constant (mole fraction scale), kPa of chloroethane (Liquid); method: Chromatography
Temperature, K	Henry's Law constant (mole fraction scale), kPa of chloroethane	uncertainty
249.94	53	2
269.95	125	5
289.9	268	11
309.99	495	20
330	770	31

System: 1,1-difluoroethane + 3-methyl-3-buten-1-ol; phases: Liquid, Gas
Fixed: Mole fraction of 1,1-difluoroethane = 0
Property: Activity coefficient of 1,1-difluoroethane (Liquid); method: Chromatography
Temperature, K	Activity coefficient of 1,1-difluoroethane	uncertainty
249.95	4.94	0.34
269.95	4.53	0.31
289.9	4.12	0.28
309.99	3.74	0.25
330	3.5	0.24

System: 1,1-difluoroethane + 3-methyl-3-buten-1-ol; phases: Liquid, Gas
Fixed: Mole fraction of 1,1-difluoroethane = 0
Property: Henry's Law constant (mole fraction scale), kPa of 1,1-difluoroethane (Liquid); method: Chromatography
Temperature, K	Henry's Law constant (mole fraction scale), kPa of 1,1-difluoroethane	uncertainty
249.95	520	21
269.95	1030	41
289.9	1760	71
309.99	2720	109
330	3980	160
