Measured thermophysical data. Density, Refractive Index, Speed of Sound at 298.15 K, and Vapor-Liquid Equilibria at 101.3 kPa for Binary Mixtures of Propanol + 2-Methyl-1-butanol and Propanol + 3-Methyl-1-butanol
Source: J. Chem. Eng. Data, 2006, 10.1021/je0502142
Compound 1: propan-1-ol, C3H8O, InChI=1S/C3H8O/c1-2-3-4/h4H,2-3H2,1H3, purity 99.5%
Compound 2: 2-methyl-1-butanol, C5H12O, InChI=1S/C5H12O/c1-3-5(2)4-6/h5-6H,3-4H2,1-2H3, purity 99%
Compound 3: 3-methylbutan-1-ol, C5H12O, InChI=1S/C5H12O/c1-5(2)3-4-6/h5-6H,3-4H2,1-2H3, purity 99%

System: propan-1-ol; phases: Liquid
Property: Refractive index (Na D-line) (Liquid); method: Standard Abbe refractometry
Temperature, K	Pressure, kPa	Refractive index (Na D-line)	uncertainty
298.15	101.325	1.38304	0.00032

System: propan-1-ol; phases: Liquid
Property: Mass density, kg/m3 (Liquid); method: Vibrating tube method
Temperature, K	Pressure, kPa	Mass density, kg/m3	uncertainty
298.15	101.325	799.75	0.23

System: propan-1-ol; phases: Liquid, Gas
Property: Vapor or sublimation pressure, kPa (Liquid); method: EBULLIO:UFactor:8
Temperature, K	Vapor or sublimation pressure, kPa	uncertainty
370.29	101.3	1

System: propan-1-ol; phases: Liquid, Air at 1 atmosphere
Property: Speed of sound, m/s (Liquid); method: Sing-around technique in a fixed-path interferometer
Temperature, K	Speed of sound, m/s	uncertainty
298.15	1205.69	1.28

System: 2-methyl-1-butanol; phases: Liquid
Property: Refractive index (Na D-line) (Liquid); method: Standard Abbe refractometry
Temperature, K	Pressure, kPa	Refractive index (Na D-line)	uncertainty
298.15	101.325	1.40872	0.00032

System: 2-methyl-1-butanol; phases: Liquid
Property: Mass density, kg/m3 (Liquid); method: Vibrating tube method
Temperature, K	Pressure, kPa	Mass density, kg/m3	uncertainty
298.15	101.325	814.87	0.2

System: 2-methyl-1-butanol; phases: Liquid, Gas
Property: Vapor or sublimation pressure, kPa (Liquid); method: EBULLIO:UFactor:8
Temperature, K	Vapor or sublimation pressure, kPa	uncertainty
401.93	101.3	1

System: 2-methyl-1-butanol; phases: Liquid, Air at 1 atmosphere
Property: Speed of sound, m/s (Liquid); method: Sing-around technique in a fixed-path interferometer
Temperature, K	Speed of sound, m/s	uncertainty
298.15	1253.29	1.25

System: 3-methylbutan-1-ol; phases: Liquid
Property: Refractive index (Na D-line) (Liquid); method: Standard Abbe refractometry
Temperature, K	Pressure, kPa	Refractive index (Na D-line)	uncertainty
298.15	101.325	1.40515	0.00032

System: 3-methylbutan-1-ol; phases: Liquid
Property: Mass density, kg/m3 (Liquid); method: Vibrating tube method
Temperature, K	Pressure, kPa	Mass density, kg/m3	uncertainty
298.15	101.325	806.78	0.2

System: 3-methylbutan-1-ol; phases: Liquid, Gas
Property: Vapor or sublimation pressure, kPa (Liquid); method: EBULLIO:UFactor:12
Temperature, K	Vapor or sublimation pressure, kPa	uncertainty
404.27	101.3	1

System: 3-methylbutan-1-ol; phases: Liquid, Air at 1 atmosphere
Property: Speed of sound, m/s (Liquid); method: Sing-around technique in a fixed-path interferometer
Temperature, K	Speed of sound, m/s	uncertainty
298.15	1238.8	1.3

System: propan-1-ol + 2-methyl-1-butanol; phases: Liquid
Fixed: Temperature, K = 298.15
Fixed: Pressure, kPa = 101.3
Property: Refractive index (Na D-line) (Liquid); method: Standard Abbe refractometry
Mole fraction of propan-1-ol	Refractive index (Na D-line)	uncertainty
0.051	1.40768	0.00032
0.1	1.40677	0.00032
0.151	1.40573	0.00032
0.2	1.40478	0.00032
0.251	1.4038	0.00032
0.3	1.40272	0.00032
0.351	1.40164	0.00032
0.408	1.40039	0.00033
0.45	1.39934	0.00033
0.501	1.39815	0.00033
0.55	1.39697	0.00033
0.6	1.39556	0.00033
0.65	1.39422	0.00033
0.7	1.39279	0.00033
0.75	1.39133	0.00033
0.801	1.38982	0.00033
0.85	1.38815	0.00033
0.899	1.38658	0.00033
0.949	1.38483	0.00033

System: propan-1-ol + 2-methyl-1-butanol; phases: Liquid
Fixed: Temperature, K = 298.15
Fixed: Pressure, kPa = 101.3
Property: Speed of sound, m/s (Liquid); method: Sing-around technique in a fixed-path interferometer
Mole fraction of propan-1-ol	Speed of sound, m/s	uncertainty
0.051	1252.4	1.3
0.1	1250.6	1.3
0.151	1248.7	1.3
0.2	1246.8	1.3
0.251	1244.7	1.3
0.3	1242.8	1.3
0.351	1240.5	1.3
0.408	1238	1.3
0.45	1236.1	1.3
0.501	1233.7	1.3
0.55	1231.3	1.3
0.6	1228.8	1.3
0.65	1226.2	1.3
0.7	1223.2	1.3
0.75	1220.7	1.3
0.801	1217.6	1.3
0.85	1214.8	1.3
0.899	1211.8	1.3
0.949	1208.7	1.3

System: propan-1-ol + 2-methyl-1-butanol; phases: Liquid, Gas
Fixed: Pressure, kPa = 101.3
Property: Boiling temperature at pressure P, K (Liquid); method: EBULLIO:UFactor:8
Mole fraction of propan-1-ol	Boiling temperature at pressure P, K	uncertainty
0	401.93	0.25
0.039	399.59	0.27
0.071	397.83	0.27
0.124	395.18	0.26
0.177	392.97	0.26
0.22	391.16	0.26
0.277	388.9	0.26
0.345	386.49	0.26
0.373	385.52	0.26
0.405	384.51	0.25
0.442	383.52	0.25
0.474	382.52	0.25
0.524	381.04	0.25
0.625	378.43	0.25
0.685	376.83	0.25
0.741	375.53	0.25
0.803	374.13	0.25
0.856	373.08	0.25
0.898	372.16	0.25
0.935	371.43	0.25
0.962	370.87	0.25
0.98	370.57	0.25
1	370.29	0.25

System: propan-1-ol + 2-methyl-1-butanol; phases: Liquid
Fixed: Temperature, K = 298.15
Fixed: Pressure, kPa = 101.3
Property: Mass density, kg/m3 (Liquid); method: VIBTUB:UFactor:3
Mole fraction of propan-1-ol	Mass density, kg/m3	uncertainty
0.051	814.37	0.35
0.1	813.84	0.35
0.151	813.28	0.36
0.2	812.71	0.36
0.251	812.09	0.36
0.3	811.46	0.36
0.351	810.8	0.36
0.408	810.04	0.36
0.45	809.44	0.37
0.501	808.69	0.37
0.55	807.94	0.37
0.6	807.14	0.37
0.65	806.3	0.37
0.7	805.38	0.38
0.75	804.5	0.38
0.801	803.53	0.38
0.85	802.6	0.38
0.899	801.61	0.38
0.949	800.64	0.39

System: propan-1-ol + 2-methyl-1-butanol; phases: Gas, Liquid
Fixed: Pressure, kPa = 101.3
Property: Mole fraction of propan-1-ol (Gas); method: density, speed of sound, refractive index calibrations
Mole fraction of propan-1-ol	Mole fraction of propan-1-ol	uncertainty
0	0	0.001
0.039	0.115	0.011
0.071	0.198	0.011
0.124	0.312	0.011
0.177	0.396	0.011
0.22	0.467	0.011
0.277	0.541	0.01
0.345	0.622	0.01
0.373	0.652	0.01
0.405	0.679	0.01
0.442	0.709	0.01
0.474	0.736	0.01
0.524	0.776	0.01
0.625	0.836	0.01
0.685	0.873	0.01
0.741	0.898	0.01
0.803	0.928	0.01
0.856	0.951	0.01
0.898	0.965	0.01
0.935	0.98	0.01
0.962	0.988	0.01
0.98	0.994	0.006
1	1	0.001

System: propan-1-ol + 3-methylbutan-1-ol; phases: Liquid
Fixed: Temperature, K = 298.15
Fixed: Pressure, kPa = 101.3
Property: Refractive index (Na D-line) (Liquid); method: Standard Abbe refractometry
Mole fraction of propan-1-ol	Refractive index (Na D-line)	uncertainty
0.05	1.40447	0.00032
0.1	1.40366	0.00032
0.15	1.40281	0.00032
0.201	1.402	0.00032
0.251	1.40115	0.00032
0.3	1.4002	0.00032
0.351	1.39919	0.00032
0.4	1.3983	0.00032
0.45	1.39734	0.00033
0.5	1.39621	0.00033
0.551	1.39507	0.00033
0.6	1.39396	0.00033
0.65	1.39278	0.00033
0.7	1.39148	0.00033
0.749	1.39035	0.00033
0.799	1.38898	0.00033
0.85	1.38757	0.00033
0.9	1.3861	0.00033
0.95	1.38458	0.00033

System: propan-1-ol + 3-methylbutan-1-ol; phases: Liquid
Fixed: Temperature, K = 298.15
Fixed: Pressure, kPa = 101.3
Property: Speed of sound, m/s (Liquid); method: Sing-around technique in a fixed-path interferometer
Mole fraction of propan-1-ol	Speed of sound, m/s	uncertainty
0.05	1234.4	1.3
0.1	1233.5	1.3
0.15	1232.3	1.3
0.201	1231.1	1.3
0.251	1230	1.3
0.3	1228.8	1.3
0.351	1227.5	1.3
0.4	1226.2	1.3
0.45	1224.9	1.3
0.5	1223.4	1.3
0.551	1222	1.3
0.6	1220	1.3
0.65	1218.5	1.3
0.7	1217	1.3
0.749	1215.3	1.3
0.799	1213.6	1.3
0.85	1211.8	1.3
0.9	1210	1.3
0.95	1208.2	1.3

System: propan-1-ol + 3-methylbutan-1-ol; phases: Liquid, Gas
Fixed: Pressure, kPa = 101.3
Property: Boiling temperature at pressure P, K (Liquid); method: EBULLIO:UFactor:12
Mole fraction of propan-1-ol	Boiling temperature at pressure P, K	uncertainty
0	404.27	0.37
0.04	401.44	0.39
0.08	399.36	0.38
0.13	396.92	0.38
0.181	394.48	0.38
0.239	391.49	0.38
0.293	389.35	0.38
0.329	388.11	0.38
0.404	385.33	0.38
0.441	383.99	0.38
0.511	381.93	0.37
0.559	380.62	0.37
0.597	379.47	0.37
0.62	378.94	0.37
0.67	377.55	0.37
0.739	375.76	0.37
0.809	374.2	0.37
0.864	373.05	0.37
0.9	372.3	0.37
0.935	371.6	0.37
0.961	371.08	0.37
0.978	370.75	0.37
1	370.29	0.37

System: propan-1-ol + 3-methylbutan-1-ol; phases: Liquid
Fixed: Temperature, K = 298.15
Fixed: Pressure, kPa = 101.3
Property: Mass density, kg/m3 (Liquid); method: VIBTUB:UFactor:3
Mole fraction of propan-1-ol	Mass density, kg/m3	uncertainty
0.05	806.4	0.36
0.1	806.12	0.36
0.15	805.83	0.36
0.201	805.54	0.36
0.251	805.25	0.37
0.3	804.97	0.37
0.351	804.66	0.37
0.4	804.37	0.37
0.45	804.07	0.37
0.5	803.75	0.37
0.551	803.41	0.37
0.6	803.08	0.37
0.65	802.72	0.38
0.7	802.34	0.38
0.749	801.96	0.38
0.799	801.55	0.38
0.85	801.13	0.38
0.9	800.69	0.38
0.95	800.22	0.38

System: propan-1-ol + 3-methylbutan-1-ol; phases: Gas, Liquid
Fixed: Pressure, kPa = 101.3
Property: Mole fraction of propan-1-ol (Gas); method: OTHER
Mole fraction of propan-1-ol	Mole fraction of propan-1-ol	uncertainty
0	0	0.001
0.04	0.102	0.011
0.08	0.192	0.011
0.13	0.293	0.011
0.181	0.395	0.011
0.239	0.489	0.011
0.293	0.563	0.01
0.329	0.61	0.01
0.404	0.692	0.01
0.441	0.725	0.01
0.511	0.778	0.01
0.559	0.81	0.01
0.597	0.836	0.01
0.62	0.851	0.01
0.67	0.868	0.01
0.739	0.901	0.01
0.809	0.932	0.01
0.864	0.951	0.01
0.9	0.966	0.01
0.935	0.981	0.01
0.961	0.989	0.01
0.978	0.994	0.006
1	1	0.001
