Measured thermophysical data. Vapor-Liquid Equilibria in the Binary and Ternary Systems Composed of 2-Methylpentane, 3-Methyl-2-butanone and 3-Methyl-2-butanol
Source: J. Chem. Eng. Data, 2005, 10.1021/je050062a
Compound 1: 2-methylpentane, C6H14, InChI=1S/C6H14/c1-4-5-6(2)3/h6H,4-5H2,1-3H3
Compound 2: 3-methyl-2-butanone, C5H10O, InChI=1S/C5H10O/c1-4(2)5(3)6/h4H,1-3H3
Compound 3: 3-methyl-2-butanol, C5H12O, InChI=1S/C5H12O/c1-4(2)5(3)6/h4-6H,1-3H3

System: 2-methylpentane; phases: Liquid
Property: Refractive index (Na D-line) (Liquid); method: Standard Abbe refractometry
Temperature, K	Pressure, kPa	Refractive index (Na D-line)	uncertainty
298.15	101.325	1.36877	0.00072

System: 2-methylpentane; phases: Liquid
Property: Mass density, kg/m3 (Liquid); method: VIBTUB:UFactor:4
Temperature, K	Pressure, kPa	Mass density, kg/m3	uncertainty
298.15	101.325	648.46	0.59

System: 2-methylpentane; phases: Liquid, Gas
Property: Vapor or sublimation pressure, kPa (Liquid); method: EBULLIO::UFactor:8
Temperature, K	Vapor or sublimation pressure, kPa	uncertainty
330	90.76	1.2

System: 3-methyl-2-butanone; phases: Liquid
Property: Refractive index (Na D-line) (Liquid); method: Standard Abbe refractometry
Temperature, K	Pressure, kPa	Refractive index (Na D-line)	uncertainty
298.15	101.325	1.3862	0.00074

System: 3-methyl-2-butanone; phases: Liquid
Property: Mass density, kg/m3 (Liquid); method: VIBTUB:UFactor:4
Temperature, K	Pressure, kPa	Mass density, kg/m3	uncertainty
298.15	101.325	799.55	0.65

System: 3-methyl-2-butanone; phases: Liquid, Gas
Property: Vapor or sublimation pressure, kPa (Liquid); method: EBULLIO:UFactor:12
Temperature, K	Vapor or sublimation pressure, kPa	uncertainty
310.446	12.099	0.107
318.084	16.984	0.113
324.323	22.058	0.119
328.847	26.459	0.127
330	27.69	0.79
333.485	31.699	0.137
337.184	36.453	0.147
340	40.45	0.87
340.264	40.837	0.158
346.23	50.544	0.177
348.872	55.399	0.19
353.57	64.947	0.211
357.905	74.899	0.233
361.862	84.971	0.256
365.36	94.785	0.277

System: 3-methyl-2-butanol; phases: Liquid
Property: Refractive index (Na D-line) (Liquid); method: Standard Abbe refractometry
Temperature, K	Pressure, kPa	Refractive index (Na D-line)	uncertainty
298.15	101.325	1.407	0.00074

System: 3-methyl-2-butanol; phases: Liquid
Property: Mass density, kg/m3 (Liquid); method: VIBTUB:UFactor:4
Temperature, K	Pressure, kPa	Mass density, kg/m3	uncertainty
298.15	101.325	813.42	0.65

System: 3-methyl-2-butanol; phases: Liquid, Gas
Property: Vapor or sublimation pressure, kPa (Liquid); method: EBULLIO:UFactor:12
Temperature, K	Vapor or sublimation pressure, kPa	uncertainty
323.609	6.527	0.101
329.8	9.28	0.104
330	9.35	0.68
333.309	11.164	0.106
336.517	13.194	0.109
340	15.7	0.72
340.668	16.23	0.114
346.128	21.094	0.122
354.076	30.238	0.139
360.745	40.248	0.162
365.975	49.794	0.185
370.472	59.385	0.208
374.441	69.016	0.234
380.988	87.649	0.278
382.587	92.609	0.288

System: 2-methylpentane + 3-methyl-2-butanone; phases: Liquid, Gas
Property: Vapor or sublimation pressure, kPa (Liquid); method: EBULLIO:UFactor:8
Mole fraction of 2-methylpentane	Temperature, K	Vapor or sublimation pressure, kPa	uncertainty
0	330	27.69	0.79
0	340	40.45	0.87
0.0041	330	28.6	0.89
0.0047	340	41.8	1.02
0.0132	330	30.24	0.89
0.0145	340	44.26	1.02
0.0268	330	32.83	0.9
0.0297	340	47.88	1.02
0.0476	330	36.44	0.91
0.0541	340	52.97	1.03
0.0758	330	40.73	0.94
0.0827	340	58.64	1.06
0.102	330	45.59	0.94
0.1186	340	65.16	1.08
0.1505	330	50.63	0.96
0.1581	340	71.44	1.1
0.1977	330	55.91	0.99
0.2212	340	78.32	1.13
0.2603	330	61.79	1.02
0.2896	340	86.05	1.18
0.3541	330	67.29	1.05
0.3575	340	93.4	1.22
0.4294	340	100.09	1.26
0.4331	330	72.56	1.08
0.4788	340	103.71	1.28
0.4898	330	75.2	1.1
0.5556	340	108.33	1.3
0.5672	330	78.65	1.12
0.6072	330	81.94	1.14
0.6169	340	111.65	1.32
0.6764	340	114.92	1.34
0.6984	330	85.28	1.16
1	330	90.76	1.2

System: 2-methylpentane + 3-methyl-2-butanone; phases: Gas, Liquid
Property: Mole fraction of 2-methylpentane (Gas); method: CHROM:UFactor:6
Mole fraction of 2-methylpentane	Temperature, K	Mole fraction of 2-methylpentane	uncertainty
0	330	0	0.0001
0	340	0	0.0001
0.0041	330	0.0313	0.01
0.0047	340	0.0322	0.0131
0.0132	330	0.0665	0.0129
0.0145	340	0.0938	0.012
0.0268	330	0.1678	0.0147
0.0297	340	0.1687	0.0127
0.0476	330	0.2651	0.0167
0.0541	340	0.2647	0.0163
0.0758	330	0.3578	0.021
0.0827	340	0.3536	0.0204
0.102	330	0.4433	0.0251
0.1186	340	0.4287	0.0243
0.1505	330	0.5215	0.0268
0.1581	340	0.5041	0.0278
0.1977	330	0.5753	0.0238
0.2212	340	0.5641	0.0244
0.2603	330	0.6395	0.0202
0.2896	340	0.6247	0.021
0.3541	330	0.6885	0.0174
0.3575	340	0.6764	0.0181
0.4294	340	0.7175	0.0158
0.4331	330	0.7322	0.015
0.4788	340	0.7453	0.0142
0.4898	330	0.7559	0.0137
0.5556	340	0.7759	0.0125
0.5672	330	0.7861	0.012
0.6072	330	0.8104	0.0106
0.6169	340	0.786	0.012
0.6764	340	0.8157	0.0103
0.6984	330	0.8394	0.009
1	330	1	0.0001

System: 2-methylpentane + 3-methyl-2-butanol; phases: Liquid, Gas
Property: Vapor or sublimation pressure, kPa (Liquid); method: EBULLIO:UFactor:8
Mole fraction of 2-methylpentane	Temperature, K	Vapor or sublimation pressure, kPa	uncertainty
0	330	9.35	0.68
0	340	15.7	0.72
0.0345	340	27.31	1
0.0675	330	25.86	0.89
0.0863	340	42.12	1.02
0.1504	330	41.15	0.93
0.1673	340	61.08	1.06
0.2756	330	57.91	1
0.3177	340	81.46	1.16
0.4325	330	68.93	1.06
0.4562	340	95.23	1.23
0.5664	340	104.78	1.29
0.571	330	76.25	1.1
0.6631	340	111.62	1.33
0.6976	330	81.32	1.14
0.7945	330	84.99	1.18
0.8767	330	87.53	1.19
0.937	330	89.38	1.2
0.9791	330	90.52	1.21
1	330	90.76	1.2

System: 2-methylpentane + 3-methyl-2-butanol; phases: Gas, Liquid
Property: Mole fraction of 2-methylpentane (Gas); method: CHROM:UFactor:4
Mole fraction of 2-methylpentane	Temperature, K	Mole fraction of 2-methylpentane	uncertainty
0	330	0	0.0001
0	340	0	0.0001
0.0345	340	0.4463	0.0222
0.0675	330	0.6607	0.0164
0.0863	340	0.6564	0.0137
0.1504	330	0.7954	0.0079
0.1673	340	0.7744	0.0086
0.2756	330	0.8698	0.0049
0.3177	340	0.8476	0.0057
0.4325	330	0.9032	0.0039
0.4562	340	0.8827	0.0045
0.5664	340	0.9055	0.0038
0.571	330	0.9209	0.0034
0.6631	340	0.9206	0.0034
0.6976	330	0.9339	0.003
0.7945	330	0.9454	0.0036
0.8767	330	0.9567	0.0033
0.937	330	0.9694	0.0031
0.9791	330	0.9855	0.0029
1	330	1	0.0001

System: 3-methyl-2-butanone + 3-methyl-2-butanol; phases: Liquid, Gas
Property: Vapor or sublimation pressure, kPa (Liquid); method: EBULLIO:UFactor:4
Mole fraction of 3-methyl-2-butanone	Temperature, K	Vapor or sublimation pressure, kPa	uncertainty
0	330	9.35	0.34
0	340	15.7	0.36
0.0107	330	9.67	0.35
0.0117	340	16.16	0.37
0.0283	330	10.11	0.35
0.0315	340	16.81	0.37
0.0538	330	10.76	0.35
0.0603	340	17.74	0.37
0.0881	330	11.59	0.35
0.0974	340	18.96	0.38
0.1307	330	12.61	0.35
0.1424	340	20.35	0.38
0.1818	330	13.77	0.36
0.1921	340	21.87	0.38
0.2366	330	14.96	0.36
0.2514	340	23.49	0.39
0.2953	330	16.17	0.36
0.3112	340	25.11	0.39
0.3716	330	17.66	0.37
0.3852	340	26.99	0.4
0.4287	330	18.61	0.37
0.4381	340	28.35	0.4
0.508	330	20	0.38
0.5198	340	30.23	0.41
0.5826	330	21.28	0.38
0.5935	340	31.87	0.41
0.6507	330	22.36	0.38
0.658	340	33.29	0.42
0.7112	330	23.28	0.39
0.7158	340	34.52	0.42
0.7616	330	24.06	0.39
0.7666	340	35.58	0.43
0.8085	330	24.79	0.39
0.8119	340	36.53	0.43
0.8482	330	25.34	0.39
0.8508	340	37.3	0.43
0.8828	330	25.87	0.39
0.884	340	38	0.43
0.9111	330	26.31	0.4
0.9128	340	38.58	0.44
0.9498	330	26.92	0.4
0.9506	340	39.44	0.44
1	330	27.69	0.4
1	340	40.45	0.44

System: 3-methyl-2-butanone + 3-methyl-2-butanol; phases: Gas, Liquid
Property: Mole fraction of 3-methyl-2-butanone (Gas); method: CHROM:UFactor:4
Mole fraction of 3-methyl-2-butanone	Temperature, K	Mole fraction of 3-methyl-2-butanone	uncertainty
0	330	0	0.0001
0	340	0	0.0001
0.0107	330	0.0387	0.0073
0.0117	340	0.0367	0.0063
0.0283	330	0.0983	0.0074
0.0315	340	0.093	0.0065
0.0538	330	0.176	0.0085
0.0603	340	0.1668	0.0078
0.0881	330	0.2622	0.0108
0.0974	340	0.2496	0.0101
0.1307	330	0.3525	0.0137
0.1424	340	0.3325	0.0129
0.1818	330	0.4381	0.0167
0.1921	340	0.4163	0.0158
0.2366	330	0.5159	0.0183
0.2514	340	0.4924	0.0186
0.2953	330	0.5833	0.0158
0.3112	340	0.5584	0.0167
0.3716	330	0.6521	0.0132
0.3852	340	0.6249	0.0142
0.4287	330	0.6956	0.0115
0.4381	340	0.6754	0.0123
0.508	330	0.7511	0.0094
0.5198	340	0.7325	0.0101
0.5826	330	0.7965	0.0077
0.5935	340	0.7804	0.0083
0.6507	330	0.8334	0.0063
0.658	340	0.8191	0.0069
0.7112	330	0.8636	0.0052
0.7158	340	0.8532	0.0056
0.7616	330	0.8892	0.0044
0.7666	340	0.8802	0.0047
0.8085	330	0.9117	0.0037
0.8119	340	0.9043	0.004
0.8482	330	0.9299	0.0033
0.8508	340	0.924	0.0034
0.8828	330	0.9459	0.0029
0.884	340	0.9418	0.003
0.9111	330	0.9591	0.0026
0.9128	340	0.9561	0.0027
0.9498	330	0.9769	0.0023
0.9506	340	0.9752	0.0024
1	330	1	0.0001
1	340	1	0.0001

System: 2-methylpentane + 3-methyl-2-butanone + 3-methyl-2-butanol; phases: Liquid, Gas
Property: Mole fraction of 3-methyl-2-butanone (Liquid); method: CHROM:UFactor:4
Property: Mole fraction of 3-methyl-2-butanone (Gas); method: CHROM:UFactor:4
Property: Mole fraction of 2-methylpentane (Gas); method: CHROM:UFactor:4
Temperature, K	Pressure, kPa	Mole fraction of 2-methylpentane	Mole fraction of 3-methyl-2-butanone	uncertainty	Mole fraction of 3-methyl-2-butanone	uncertainty	Mole fraction of 2-methylpentane	uncertainty
330	67.36	0.3533	0.5866	0.0128	0.2788	0.0104	0.7077	
330	64.05	0.2748	0.5981	0.0125	0.2771	0.0103	0.697	
330	59.36	0.2574	0.547	0.0141	0.28	0.0104	0.6776	
330	53.01	0.1865	0.5186	0.0149	0.2868	0.0107	0.6505	
330	44.68	0.1347	0.4678	0.0145	0.3102	0.0115	0.5956	
330	35.15	0.08	0.4079	0.0127	0.3591	0.0134	0.49	
330	25.44	0.0369	0.3321	0.0103	0.4119	0.0154	0.3441	
330	19.4	0.0118	0.2495	0.0077	0.428	0.016	0.2105	
330	14.91	0.0047	0.1832	0.0057	0.4096	0.0153	0.0752	
330	12.79	0.0011	0.1267	0.0041	0.3362	0.0126	0.0179	
330	79.74	0.5997	0.339	0.0105	0.1684	0.0063	0.8161	
330	77.18	0.5508	0.3291	0.0102	0.161	0.006	0.8108	
330	73.7	0.4792	0.3194	0.0099	0.1514	0.0056	0.8075	
330	68.92	0.4028	0.3011	0.0093	0.1505	0.0056	0.7906	
330	62.05	0.3098	0.2802	0.0087	0.148	0.0055	0.7748	
330	52.2	0.1898	0.2573	0.008	0.1566	0.0058	0.7363	
330	40.08	0.121	0.2175	0.0067	0.176	0.0065	0.6621	
330	26.22	0.0534	0.1717	0.0053	0.2301	0.0086	0.4671	
330	13.29	0.0043	0.1132	0.0038	0.2933	0.0109	0.0798	
330	47.85	0.1242	0.8551	0.0046	0.4975	0.0185	0.497	
330	45.34	0.1156	0.8268	0.0054	0.5119	0.0182	0.4714	
330	42.37	0.0897	0.7956	0.0064	0.5217	0.0178	0.4463	
330	41.29	0.0914	0.7944	0.0064	0.5366	0.0173	0.4301	
330	36.27	0.066	0.73	0.0084	0.5664	0.0162	0.3693	
330	30.9	0.0417	0.6501	0.0109	0.5966	0.0151	0.2962	
330	25.84	0.0225	0.5542	0.0139	0.6232	0.0141	0.2087	
330	21.78	0.0125	0.4492	0.014	0.6197	0.0142	0.1351	
330	18.29	0.0056	0.3432	0.0107	0.5852	0.0155	0.0712	
330	16.01	0.003	0.2585	0.008	0.5174	0.0181	0.046	
330	14.18	0.0012	0.1846	0.0057	0.4394	0.0164	0.0245	
330	49.57	0.2183	0.0972	0.0034	0.0676	0.003	0.7895	
330	32.1	0.1062	0.0799	0.003	0.0815	0.0034	0.6844	
330	21.84	0.0477	0.0587	0.0026	0.0967	0.0038	0.4682	
330	10.46	0.0025	0.033	0.0022	0.1043	0.0041	0.0435	
340	93.33	0.3643	0.5771	0.0131	0.2907	0.0108	0.6938	
340	88.95	0.3299	0.5553	0.0138	0.2865	0.0107	0.6841	
340	82.89	0.2699	0.5392	0.0143	0.288	0.0107	0.6636	
340	74.78	0.2089	0.5074	0.0153	0.2942	0.0109	0.6331	
340	64.33	0.1475	0.4641	0.0144	0.3079	0.0115	0.5865	
340	51.85	0.0906	0.408	0.0127	0.3404	0.0127	0.4982	
340	39.51	0.0438	0.338	0.0105	0.3825	0.0143	0.3625	
340	31.06	0.0233	0.2666	0.0083	0.3933	0.0147	0.2416	
340	25.32	0.0109	0.199	0.0062	0.3696	0.0138	0.138	
340	21.08	0.0027	0.1407	0.0045	0.3175	0.0118	0.0429	
340	106.27	0.54	0.3359	0.0104	0.1669	0.0062	0.8009	
340	101.5	0.4831	0.3177	0.0098	0.1572	0.0058	0.7949	
340	94.96	0.4124	0.2973	0.0092	0.1525	0.0057	0.7802	
340	86.08	0.3397	0.272	0.0084	0.1505	0.0056	0.759	
340	73.85	0.2218	0.2515	0.0078	0.155	0.0058	0.7225	
340	58.4	0.1351	0.2186	0.0068	0.171	0.0064	0.6475	
340	40.51	0.0632	0.1761	0.0055	0.2042	0.0076	0.4965	
340	30.17	0.0321	0.1343	0.0043	0.2119	0.0079	0.3548	
340	67.75	0.1369	0.8429	0.0049	0.5131	0.0181	0.4795	
340	64.62	0.1218	0.8209	0.0056	0.513	0.0181	0.4695	
340	61.04	0.1038	0.7848	0.0067	0.5303	0.0175	0.4339	
340	59.28	0.0983	0.7895	0.0065	0.5437	0.017	0.4195	
340	52.62	0.0721	0.7278	0.0085	0.5642	0.0162	0.3654	
340	45.49	0.0475	0.6508	0.0109	0.5865	0.0154	0.2972	
340	38.74	0.0278	0.5594	0.0137	0.6038	0.0148	0.2165	
340	33.07	0.0152	0.4579	0.0142	0.595	0.0151	0.143	
340	28.09	0.007	0.3564	0.0111	0.5579	0.0166	0.0779	
340	25.02	0.0038	0.2711	0.0084	0.4915	0.0184	0.0501	
340	22.49	0.002	0.1991	0.0062	0.413	0.0154	0.0297	
340	71.86	0.2245	0.0971	0.0034	0.0658	0.003	0.7768	
