Measured thermophysical data. Excess Volumes, Speeds of Sound, Isentropic Compressibilities, and Viscosities of Binary Mixtures of Acetophenone with Chlorotoluenes and Nitrotoluenes at 303.15 K
Source: J. Chem. Eng. Data, 2006, 10.1021/je050413l
Compound 1: acetophenone, C8H8O, InChI=1S/C8H8O/c1-7(9)8-5-3-2-4-6-8/h2-6H,1H3
Compound 2: 2-chlorotoluene, C7H7Cl, InChI=1S/C7H7Cl/c1-6-4-2-3-5-7(6)8/h2-5H,1H3
Compound 3: 3-chlorotoluene, C7H7Cl, InChI=1S/C7H7Cl/c1-6-3-2-4-7(8)5-6/h2-5H,1H3
Compound 4: 4-chlorotoluene, C7H7Cl, InChI=1S/C7H7Cl/c1-6-2-4-7(8)5-3-6/h2-5H,1H3
Compound 5: 2-nitrotoluene, C7H7NO2, InChI=1S/C7H7NO2/c1-6-4-2-3-5-7(6)8(9)10/h2-5H,1H3
Compound 6: 3-nitrotoluene, C7H7NO2, InChI=1S/C7H7NO2/c1-6-3-2-4-7(5-6)8(9)10/h2-5H,1H3

System: acetophenone; phases: Liquid
Property: Mass density, kg/m3 (Liquid); method: Pycnometric method
Temperature, K	Pressure, kPa	Mass density, kg/m3	uncertainty
303.15	101.325	1019.43	2.7

System: acetophenone; phases: Liquid
Property: Viscosity, Pa*s (Liquid); method: CAPTUB:UFactor:4
Temperature, K	Pressure, kPa	Viscosity, Pa*s	uncertainty
303.15	101	0.001511	5.2e-05

System: acetophenone; phases: Liquid
Fixed: Temperature, K = 303.15
Fixed: Pressure, kPa = 101
Property: Speed of sound, m/s (Liquid); method: FPINT:UFactor:8
Speed of sound, m/s	uncertainty
1460	8
1466	8

System: 2-chlorotoluene; phases: Liquid
Property: Mass density, kg/m3 (Liquid); method: Pycnometric method
Temperature, K	Pressure, kPa	Mass density, kg/m3	uncertainty
303.15	101.325	1072.77	2.84

System: 2-chlorotoluene; phases: Liquid
Property: Viscosity, Pa*s (Liquid); method: CAPTUB::UFactor:4
Temperature, K	Pressure, kPa	Viscosity, Pa*s	uncertainty
303.15	101	0.000887	3.1e-05

System: 2-chlorotoluene; phases: Liquid
Property: Speed of sound, m/s (Liquid); method: FPINT::UFactor:8
Temperature, K	Pressure, kPa	Speed of sound, m/s	uncertainty
303.15	101	1284	7

System: 3-chlorotoluene; phases: Liquid
Property: Mass density, kg/m3 (Liquid); method: Pycnometric method
Temperature, K	Pressure, kPa	Mass density, kg/m3	uncertainty
303.15	101.325	1065.22	2.82

System: 3-chlorotoluene; phases: Liquid
Property: Viscosity, Pa*s (Liquid); method: CAPTUB::UFactor:4
Temperature, K	Pressure, kPa	Viscosity, Pa*s	uncertainty
303.15	101	0.000782	2.8e-05

System: 3-chlorotoluene; phases: Liquid
Property: Speed of sound, m/s (Liquid); method: FPINT::UFactor:8
Temperature, K	Pressure, kPa	Speed of sound, m/s	uncertainty
303.15	101	1280	7

System: 4-chlorotoluene; phases: Liquid
Property: Mass density, kg/m3 (Liquid); method: Pycnometric method
Temperature, K	Pressure, kPa	Mass density, kg/m3	uncertainty
303.15	101.325	1060.54	2.81

System: 4-chlorotoluene; phases: Liquid
Property: Viscosity, Pa*s (Liquid); method: CAPTUB::UFactor:4
Temperature, K	Pressure, kPa	Viscosity, Pa*s	uncertainty
303.15	101	0.0009	3.2e-05

System: 4-chlorotoluene; phases: Liquid
Property: Speed of sound, m/s (Liquid); method: FPINT::UFactor:16
Temperature, K	Pressure, kPa	Speed of sound, m/s	uncertainty
303.15	101	1271	12

System: 2-nitrotoluene; phases: Liquid
Property: Mass density, kg/m3 (Liquid); method: Pycnometric method
Temperature, K	Pressure, kPa	Mass density, kg/m3	uncertainty
303.15	101.325	1153.26	3.05

System: 2-nitrotoluene; phases: Liquid
Property: Viscosity, Pa*s (Liquid); method: CAPTUB::UFactor:4
Temperature, K	Pressure, kPa	Viscosity, Pa*s	uncertainty
303.15	101	0.001911	6.5e-05

System: 3-nitrotoluene; phases: Liquid
Property: Mass density, kg/m3 (Liquid); method: Pycnometric method
Temperature, K	Pressure, kPa	Mass density, kg/m3	uncertainty
303.15	101.325	1147.62	3.04

System: 3-nitrotoluene; phases: Liquid
Property: Viscosity, Pa*s (Liquid); method: CAPTUB::UFactor:4
Temperature, K	Pressure, kPa	Viscosity, Pa*s	uncertainty
303.15	101	0.001775	6.1e-05

System: 2-chlorotoluene + acetophenone; phases: Liquid
Fixed: Temperature, K = 303.15
Fixed: Pressure, kPa = 101
Property: Viscosity, Pa*s (Liquid); method: CAPTUB:UFactor:4
Volume fraction of acetophenone	Viscosity, Pa*s	uncertainty
0	0.000887	3.1e-05
0.09	0.000901	3.2e-05
0.1508	0.000949	3.3e-05
0.2269	0.000999	3.5e-05
0.3202	0.001066	3.7e-05
0.4018	0.001123	3.9e-05
0.5216	0.001225	4.3e-05
0.6221	0.001305	4.5e-05
0.7017	0.00141	4.9e-05
0.8192	0.001465	5e-05
0.9004	0.001502	5.2e-05
1	0.001511	5.2e-05

System: 2-chlorotoluene + acetophenone; phases: Liquid
Fixed: Temperature, K = 303.15
Fixed: Pressure, kPa = 101
Property: Speed of sound, m/s (Liquid); method: FPINT:UFactor:8
Volume fraction of acetophenone	Speed of sound, m/s	uncertainty
0	1284	7
0.09	1310	7
0.1508	1326	7
0.2269	1345	8
0.3202	1368	8
0.4018	1387	8
0.5216	1409	8
0.6221	1423	8
0.7017	1432	8
0.8192	1448	8
0.9004	1451	8
1	1460	8

System: 2-chlorotoluene + acetophenone; phases: Liquid
Fixed: Temperature, K = 303.15
Fixed: Pressure, kPa = 101
Property: Excess molar volume, m3/mol (Liquid); method: Direct dilatometry
Mole fraction of acetophenone	Excess molar volume, m3/mol	uncertainty
0.0901	6e-09	6e-09
0.151	9e-09	6e-09
0.2271	1.3e-08	6e-09
0.3205	1.6e-08	6e-09
0.4021	1.8e-08	6e-09
0.5219	2e-08	6e-09
0.6224	2e-08	6e-09
0.702	1.8e-08	6e-09
0.8194	1.5e-08	6e-09
0.9005	9e-09	6e-09

System: acetophenone + 3-chlorotoluene; phases: Liquid
Fixed: Temperature, K = 303.15
Fixed: Pressure, kPa = 101
Property: Viscosity, Pa*s (Liquid); method: CAPTUB:UFactor:4
Volume fraction of acetophenone	Viscosity, Pa*s	uncertainty
0	0.000782	2.8e-05
0.052	0.000891	3.2e-05
0.1022	0.000901	3.2e-05
0.2127	0.001002	3.5e-05
0.3101	0.001073	3.8e-05
0.4246	0.00116	4e-05
0.4988	0.001222	4.2e-05
0.6154	0.00131	4.5e-05
0.7033	0.00137	4.7e-05
0.8508	0.001458	5e-05
0.9516	0.001503	5.2e-05
1	0.001511	5.2e-05

System: acetophenone + 3-chlorotoluene; phases: Liquid
Fixed: Temperature, K = 303.15
Fixed: Pressure, kPa = 101
Property: Speed of sound, m/s (Liquid); method: FPINT:UFactor:8
Volume fraction of acetophenone	Speed of sound, m/s	uncertainty
0	1280	7
0.052	1297	7
0.1022	1315	7
0.2127	1346	8
0.3101	1370	8
0.4246	1395	8
0.4988	1412	8
0.6154	1431	8
0.7033	1438	8
0.8508	1449	8
0.9516	1455	8
1	1460	8

System: acetophenone + 3-chlorotoluene; phases: Liquid
Fixed: Temperature, K = 303.15
Fixed: Pressure, kPa = 101
Property: Excess molar volume, m3/mol (Liquid); method: Direct dilatometry
Mole fraction of acetophenone	Excess molar volume, m3/mol	uncertainty
0.0524	1e-08	6e-09
0.103	1.5e-08	6e-09
0.2141	2.3e-08	6e-09
0.3119	2.9e-08	6e-09
0.4266	3.3e-08	6e-09
0.5009	3.4e-08	6e-09
0.6174	3.2e-08	6e-09
0.705	2.8e-08	6e-09
0.8519	1.5e-08	6e-09
0.952	6e-09	6e-09

System: acetophenone + 4-chlorotoluene; phases: Liquid
Fixed: Temperature, K = 303.15
Fixed: Pressure, kPa = 101
Property: Viscosity, Pa*s (Liquid); method: CAPTUB:UFactor:4
Volume fraction of acetophenone	Viscosity, Pa*s	uncertainty
0	0.0009	3.2e-05
0.0807	0.000903	3.2e-05
0.1193	0.001011	3.5e-05
0.2153	0.001058	3.7e-05
0.2982	0.001118	3.9e-05
0.3986	0.001198	4.2e-05
0.5192	0.001286	4.5e-05
0.6181	0.001352	4.7e-05
0.6998	0.0014	4.8e-05
0.8195	0.001469	5.1e-05
0.876	0.001496	5.1e-05
1	0.001511	5.2e-05

System: acetophenone + 4-chlorotoluene; phases: Liquid
Fixed: Temperature, K = 303.15
Fixed: Pressure, kPa = 101
Property: Speed of sound, m/s (Liquid); method: FPINT:UFactor:16
Volume fraction of acetophenone	Speed of sound, m/s	uncertainty
0	1271	12
0.0807	1304	12
0.1193	1314	12
0.2153	1343	12
0.2982	1371	12
0.3986	1406	12
0.5192	1419	12
0.6181	1430	12
0.6998	1440	12
0.8195	1448	13
0.876	1453	13
1	1460	13

System: acetophenone + 4-chlorotoluene; phases: Liquid
Fixed: Temperature, K = 303.15
Fixed: Pressure, kPa = 101
Property: Excess molar volume, m3/mol (Liquid); method: Direct dilatometry
Mole fraction of acetophenone	Excess molar volume, m3/mol	uncertainty
0.087	1.6e-08	6e-09
0.1206	2e-08	6e-09
0.2175	2.7e-08	6e-09
0.3009	3.4e-08	6e-09
0.4017	4.1e-08	6e-09
0.5224	4.4e-08	6e-09
0.6211	3.9e-08	6e-09
0.7025	3.2e-08	6e-09
0.8214	2.1e-08	6e-09
0.8774	1.6e-08	6e-09

System: 2-nitrotoluene + acetophenone; phases: Liquid
Fixed: Temperature, K = 303.15
Fixed: Pressure, kPa = 101
Property: Viscosity, Pa*s (Liquid); method: CAPTUB:UFactor:4
Volume fraction of acetophenone	Viscosity, Pa*s	uncertainty
0	0.001911	6.5e-05
0.0805	0.00191	6.5e-05
0.1011	0.001903	6.5e-05
0.2132	0.001857	6.3e-05
0.3245	0.001817	6.2e-05
0.4197	0.001781	6.1e-05
0.5086	0.001747	6e-05
0.6196	0.001701	5.8e-05
0.7297	0.001652	5.7e-05
0.7911	0.001624	5.6e-05
0.8704	0.001582	5.4e-05
1	0.001511	5.2e-05

System: 2-nitrotoluene + acetophenone; phases: Liquid
Fixed: Temperature, K = 303.15
Fixed: Pressure, kPa = 101
Property: Speed of sound, m/s (Liquid); method: FPINT:UFactor:8
Volume fraction of acetophenone	Speed of sound, m/s	uncertainty
0.0805	2017	11
0.1011	1997	11
0.2132	1889	10
0.3245	1803	10
0.4197	1737	10
0.5086	1681	10
0.6196	1622	10
0.7297	1568	9
0.7911	1541	9
0.8704	1508	9
1	1460	9

System: 2-nitrotoluene + acetophenone; phases: Liquid
Fixed: Temperature, K = 303.15
Fixed: Pressure, kPa = 101
Property: Excess molar volume, m3/mol (Liquid); method: Direct dilatometry
Mole fraction of acetophenone	Excess molar volume, m3/mol	uncertainty
0.0812	1.1e-08	6e-09
0.1019	1.5e-08	6e-09
0.2147	2.4e-08	6e-09
0.3265	3.3e-08	6e-09
0.4219	3.9e-08	6e-09
0.5109	4.2e-08	6e-09
0.6217	3.7e-08	6e-09
0.7315	2.6e-08	6e-09
0.7926	2e-08	6e-09
0.8714	1.1e-08	6e-09

System: acetophenone + 3-nitrotoluene; phases: Liquid
Fixed: Temperature, K = 303.15
Fixed: Pressure, kPa = 101
Property: Viscosity, Pa*s (Liquid); method: CAPTUB:UFactor:4
Volume fraction of acetophenone	Viscosity, Pa*s	uncertainty
0	0.001775	6.1e-05
0.0972	0.001748	6e-05
0.116	0.001745	6e-05
0.2051	0.001731	5.9e-05
0.3085	0.001713	5.9e-05
0.4191	0.001694	5.8e-05
0.5383	0.001666	5.7e-05
0.6446	0.00164	5.6e-05
0.7076	0.001623	5.6e-05
0.7994	0.001594	5.5e-05
0.886	0.001564	5.4e-05
1	0.001511	5.2e-05

System: acetophenone + 3-nitrotoluene; phases: Liquid
Fixed: Temperature, K = 303.15
Fixed: Pressure, kPa = 101
Property: Speed of sound, m/s (Liquid); method: FPINT:UFactor:8
Volume fraction of acetophenone	Speed of sound, m/s	uncertainty
0.0972	1987	11
0.116	1972	11
0.2051	1892	10
0.3085	1808	10
0.4191	1737	10
0.5383	1666	10
0.6446	1608	9
0.7076	1580	9
0.7994	1539	9
0.886	1503	9
1	1466	9

System: acetophenone + 3-nitrotoluene; phases: Liquid
Fixed: Temperature, K = 303.15
Fixed: Pressure, kPa = 101
Property: Excess molar volume, m3/mol (Liquid); method: Direct dilatometry
Mole fraction of acetophenone	Excess molar volume, m3/mol	uncertainty
0.0984	1.8e-08	6e-09
0.1174	2.1e-08	6e-09
0.2074	3e-08	6e-09
0.3115	3.9e-08	6e-09
0.4225	4.7e-08	6e-09
0.5417	5e-08	6e-09
0.6478	4.3e-08	6e-09
0.7105	3.5e-08	6e-09
0.8016	2.5e-08	6e-09
0.8874	1.4e-08	6e-09
