Measured thermophysical data. Evaluation of the Vaporization, Fusion, and Sublimation Enthalpies of the 1-Alkanols: The Vaporization Enthalpy of 1-, 6-, 7-, and 9-Heptadecanol, 1-Octadecanol, 1-Eicosanol, 1-Docosanol, 1-Hexacosanol, and Cholesterol at T ) 298.15 K by Correlation Gas Chromatography
Source: J. Chem. Eng. Data, 2006, 10.1021/je0503857
Compound 1: dodecan-1-ol, C12H26O, InChI=1S/C12H26O/c1-2-3-4-5-6-7-8-9-10-11-12-13/h13H,2-12H2,1H3
Compound 2: 1-tridecanol, C13H28O, InChI=1S/C13H28O/c1-2-3-4-5-6-7-8-9-10-11-12-13-14/h14H,2-13H2,1H3
Compound 3: 1-tetradecanol, C14H30O, InChI=1S/C14H30O/c1-2-3-4-5-6-7-8-9-10-11-12-13-14-15/h15H,2-14H2,1H3
Compound 4: 1-pentadecanol, C15H32O, InChI=1S/C15H32O/c1-2-3-4-5-6-7-8-9-10-11-12-13-14-15-16/h16H,2-15H2,1H3
Compound 5: 1-hexadecanol, C16H34O, InChI=1S/C16H34O/c1-2-3-4-5-6-7-8-9-10-11-12-13-14-15-16-17/h17H,2-16H2,1H3
Compound 6: 1-heptadecanol, C17H36O, InChI=1S/C17H36O/c1-2-3-4-5-6-7-8-9-10-11-12-13-14-15-16-17-18/h18H,2-17H2,1H3
Compound 7: 6-heptadecanol, C17H36O, InChI=1S/C17H36O/c1-3-5-7-8-9-10-11-12-14-16-17(18)15-13-6-4-2/h17-18H,3-16H2,1-2H3
Compound 8: 7-heptadecanol, C17H36O, InChI=1S/C17H36O/c1-3-5-7-9-10-11-12-14-16-17(18)15-13-8-6-4-2/h17-18H,3-16H2,1-2H3
Compound 9: 9-heptadecanol, C17H36O, InChI=1S/C17H36O/c1-3-5-7-9-11-13-15-17(18)16-14-12-10-8-6-4-2/h17-18H,3-16H2,1-2H3
Compound 10: 1-octadecanol, C18H38O, InChI=1S/C18H38O/c1-2-3-4-5-6-7-8-9-10-11-12-13-14-15-16-17-18-19/h19H,2-18H2,1H3
Compound 11: 1-eicosanol, C20H42O, InChI=1S/C20H42O/c1-2-3-4-5-6-7-8-9-10-11-12-13-14-15-16-17-18-19-20-21/h21H,2-20H2,1H3
Compound 12: 1-docosanol, C22H46O, InChI=1S/C22H46O/c1-2-3-4-5-6-7-8-9-10-11-12-13-14-15-16-17-18-19-20-21-22-23/h23H,2-22H2,1H3
Compound 13: .DELTA.5-cholesten-3.beta.-ol, C27H46O, InChI=1S/C27H46O/c1-18(2)7-6-8-19(3)23-11-12-24-22-10-9-20-17-21(28)13-15-26(20,4)25(22)14-16-27(23,24)5/h9,18-19,21-25,28H,6-8,10-17H2,1-5H3/t19-,21+,22+,23-,24+,25+,26+,27-/m1/s1
Compound 14: 1-hexacosanol, C26H54O, InChI=1S/C26H54O/c1-2-3-4-5-6-7-8-9-10-11-12-13-14-15-16-17-18-19-20-21-22-23-24-25-26-27/h27H,2-26H2,1H3
Compound 15: 4-heptadecanol, C17H36O, InChI=1S/C17H36O/c1-3-5-6-7-8-9-10-11-12-13-14-16-17(18)15-4-2/h17-18H,3-16H2,1-2H3

System: dodecan-1-ol; phases: Liquid, Gas
Property: Molar enthalpy of transition or fusion, kJ/mol (Liquid); method: correlation gas chromatography
Temperature, K	Molar enthalpy of transition or fusion, kJ/mol	uncertainty
298	90.8	3.9

System: 1-tridecanol; phases: Liquid, Gas
Property: Molar enthalpy of transition or fusion, kJ/mol (Liquid); method: correlation gas chromatography
Temperature, K	Molar enthalpy of transition or fusion, kJ/mol	uncertainty
298	94.7	1.4

System: 1-tetradecanol; phases: Liquid, Gas
Property: Molar enthalpy of transition or fusion, kJ/mol (Liquid); method: correlation gas chromatography
Temperature, K	Molar enthalpy of transition or fusion, kJ/mol	uncertainty
298	98.9	8

System: 1-pentadecanol; phases: Liquid, Gas
Property: Molar enthalpy of transition or fusion, kJ/mol (Liquid); method: correlation gas chromatography
Temperature, K	Molar enthalpy of transition or fusion, kJ/mol	uncertainty
298	103.5	10.5

System: 1-hexadecanol; phases: Liquid, Gas
Property: Molar enthalpy of transition or fusion, kJ/mol (Liquid); method: correlation gas chromatography
Temperature, K	Molar enthalpy of transition or fusion, kJ/mol	uncertainty
298	107.7	3.9

System: 1-heptadecanol; phases: Crystal, Liquid, Air at 1 atmosphere
Property: Normal melting temperature, K (Crystal); method: DTA
Normal melting temperature, K	uncertainty
325.3	0.5

System: 1-heptadecanol; phases: Crystal 2, Liquid, Air at 1 atmosphere
Property: Molar enthalpy of transition or fusion, kJ/mol (Crystal 2); method: DSC
Molar enthalpy of transition or fusion, kJ/mol	uncertainty
63.4	1.7

System: 1-heptadecanol; phases: Crystal
Property: Molar heat capacity at constant pressure, J/K/mol (Crystal); method: Small sample (50 mg) DSC
Temperature, K	Pressure, kPa	Molar heat capacity at constant pressure, J/K/mol	uncertainty
298.15	101.325	490.5	9.8

System: 1-heptadecanol; phases: Liquid, Gas
Property: Molar enthalpy of transition or fusion, kJ/mol (Liquid); method: correlation gas chromatography
Temperature, K	Molar enthalpy of transition or fusion, kJ/mol	uncertainty
298	112.5	1.7

System: 1-heptadecanol; phases: Liquid, Gas
Property: Vapor or sublimation pressure, kPa (Liquid); method: Gas chromatography
Temperature, K	Vapor or sublimation pressure, kPa	uncertainty
298.15	6.86e-07	7.87e-08
300	9.02e-07	1.003e-07
330	4.724e-05	4.75e-06
360	0.001125	0.000113
390	0.01426	0.00143
420	0.1098	0.011
450	0.571	0.0572
480	2.174	0.218
510	6.457	0.647

System: 6-heptadecanol; phases: Crystal, Liquid, Air at 1 atmosphere
Property: Normal melting temperature, K (Crystal); method: DTA
Normal melting temperature, K	uncertainty
315.8	0.5

System: 6-heptadecanol; phases: Crystal, Liquid, Air at 1 atmosphere
Property: Molar enthalpy of transition or fusion, kJ/mol (Crystal); method: DSC
Molar enthalpy of transition or fusion, kJ/mol	uncertainty
49	1.3

System: 6-heptadecanol; phases: Crystal
Property: Molar heat capacity at constant pressure, J/K/mol (Crystal); method: Small sample (50 mg) DSC
Temperature, K	Pressure, kPa	Molar heat capacity at constant pressure, J/K/mol	uncertainty
298.15	101.325	472.6	9.5

System: 6-heptadecanol; phases: Liquid, Gas
Property: Molar enthalpy of transition or fusion, kJ/mol (Liquid); method: correlation gas chromatography
Temperature, K	Molar enthalpy of transition or fusion, kJ/mol	uncertainty
298	108.6	3.2

System: 6-heptadecanol; phases: Liquid, Gas
Property: Vapor or sublimation pressure, kPa (Liquid); method: Gas chromatography
Temperature, K	Vapor or sublimation pressure, kPa	uncertainty
298.15	1.813e-06	1.92e-07
300	2.363e-06	2.47e-07
330	0.0001082	1.09e-05
360	0.002283	0.000229
390	0.02614	0.00262
420	0.1853	0.0186
450	0.901	0.0902
480	3.255	0.326
510	9.287	0.93

System: 7-heptadecanol; phases: Crystal, Liquid, Air at 1 atmosphere
Property: Normal melting temperature, K (Crystal); method: DTA
Normal melting temperature, K	uncertainty
314.4	0.5

System: 7-heptadecanol; phases: Crystal, Liquid, Air at 1 atmosphere
Property: Molar enthalpy of transition or fusion, kJ/mol (Crystal); method: DSC
Molar enthalpy of transition or fusion, kJ/mol	uncertainty
28.8	0.9

System: 7-heptadecanol; phases: Crystal
Property: Molar heat capacity at constant pressure, J/K/mol (Crystal); method: Small sample (50 mg) DSC
Temperature, K	Pressure, kPa	Molar heat capacity at constant pressure, J/K/mol	uncertainty
298.15	101.325	472.6	9.5

System: 7-heptadecanol; phases: Liquid, Gas
Property: Molar enthalpy of transition or fusion, kJ/mol (Liquid); method: correlation gas chromatography
Temperature, K	Molar enthalpy of transition or fusion, kJ/mol	uncertainty
298	108.2	2.6

System: 7-heptadecanol; phases: Liquid, Gas
Property: Vapor or sublimation pressure, kPa (Liquid); method: Gas chromatography
Temperature, K	Vapor or sublimation pressure, kPa	uncertainty
298.15	1.959e-06	2.06e-07
300	2.552e-06	2.66e-07
330	0.0001153	1.16e-05
360	0.002406	0.000241
390	0.0273	0.00273
420	0.192	0.0192
450	0.9282	0.0929
480	3.337	0.334
510	9.481	0.949

System: 9-heptadecanol; phases: Crystal, Liquid, Air at 1 atmosphere
Property: Normal melting temperature, K (Crystal); method: DTA
Normal melting temperature, K	uncertainty
330.2	0.5

System: 9-heptadecanol; phases: Crystal, Liquid, Air at 1 atmosphere
Property: Molar enthalpy of transition or fusion, kJ/mol (Crystal); method: DSC
Molar enthalpy of transition or fusion, kJ/mol	uncertainty
43.2	1.2

System: 9-heptadecanol; phases: Crystal
Property: Molar heat capacity at constant pressure, J/K/mol (Crystal); method: Small sample (50 mg) DSC
Temperature, K	Pressure, kPa	Molar heat capacity at constant pressure, J/K/mol	uncertainty
298.15	101.325	472.6	9.5

System: 9-heptadecanol; phases: Liquid, Gas
Property: Molar enthalpy of transition or fusion, kJ/mol (Liquid); method: correlation gas chromatography
Temperature, K	Molar enthalpy of transition or fusion, kJ/mol	uncertainty
298	108.5	1.4

System: 9-heptadecanol; phases: Liquid, Gas
Property: Vapor or sublimation pressure, kPa (Liquid); method: Gas chromatography
Temperature, K	Vapor or sublimation pressure, kPa	uncertainty
298.15	1.895e-06	2e-07
300	2.471e-06	2.57e-07
330	0.0001127	1.13e-05
360	0.002368	0.000237
390	0.02704	0.00271
420	0.1913	0.0192
450	0.929	0.093
480	3.354	0.336
510	9.568	0.958

System: 1-octadecanol; phases: Crystal, Liquid, Air at 1 atmosphere
Property: Normal melting temperature, K (Crystal); method: DTA
Normal melting temperature, K	uncertainty
325.6	5

System: 1-octadecanol; phases: Crystal 2, Liquid, Air at 1 atmosphere
Property: Molar enthalpy of transition or fusion, kJ/mol (Crystal 2); method: DSC
Molar enthalpy of transition or fusion, kJ/mol	uncertainty
69.6	1.8

System: 1-octadecanol; phases: Crystal
Property: Molar heat capacity at constant pressure, J/K/mol (Crystal); method: Small sample (50 mg) DSC
Temperature, K	Pressure, kPa	Molar heat capacity at constant pressure, J/K/mol	uncertainty
298.15	101.325	517.4	10.3

System: 1-octadecanol; phases: Liquid, Gas
Property: Molar enthalpy of transition or fusion, kJ/mol (Liquid); method: correlation gas chromatography
Temperature, K	Molar enthalpy of transition or fusion, kJ/mol	uncertainty
298	116.8	3.8

System: 1-eicosanol; phases: Crystal, Liquid, Air at 1 atmosphere
Property: Normal melting temperature, K (Crystal); method: DTA
Normal melting temperature, K	uncertainty
337	1

System: 1-eicosanol; phases: Crystal 2, Liquid, Air at 1 atmosphere
Property: Molar enthalpy of transition or fusion, kJ/mol (Crystal 2); method: DSC
Molar enthalpy of transition or fusion, kJ/mol	uncertainty
78.4	2.1

System: 1-eicosanol; phases: Crystal
Property: Molar heat capacity at constant pressure, J/K/mol (Crystal); method: Small sample (50 mg) DSC
Temperature, K	Pressure, kPa	Molar heat capacity at constant pressure, J/K/mol	uncertainty
298.15	101.325	571.2	11.4

System: 1-eicosanol; phases: Liquid, Gas
Property: Molar enthalpy of transition or fusion, kJ/mol (Liquid); method: correlation gas chromatography
Temperature, K	Molar enthalpy of transition or fusion, kJ/mol	uncertainty
298	125.9	2.6

System: 1-eicosanol; phases: Liquid, Gas
Property: Vapor or sublimation pressure, kPa (Liquid); method: Gas chromatography
Temperature, K	Vapor or sublimation pressure, kPa	uncertainty
298.15	3.215e-08	1.322e-08
300	4.345e-08	1.435e-08
330	3.509e-06	3.63e-07
360	0.0001228	1.23e-05
390	0.002151	0.000215
420	0.02156	0.00216
450	0.1382	0.0138
480	0.6201	0.062
510	2.091	0.209

System: 1-docosanol; phases: Crystal, Liquid, Air at 1 atmosphere
Property: Normal melting temperature, K (Crystal); method: DTA
Normal melting temperature, K	uncertainty
344.5	0.5

System: 1-docosanol; phases: Crystal, Liquid, Air at 1 atmosphere
Property: Molar enthalpy of transition or fusion, kJ/mol (Crystal); method: DSC
Molar enthalpy of transition or fusion, kJ/mol	uncertainty
82.8	2.2

System: 1-docosanol; phases: Crystal
Property: Molar heat capacity at constant pressure, J/K/mol (Crystal); method: Small sample (50 mg) DSC
Temperature, K	Pressure, kPa	Molar heat capacity at constant pressure, J/K/mol	uncertainty
298.15	101.325	625	13

System: 1-docosanol; phases: Crystal, Gas
Property: Molar enthalpy of transition or fusion, kJ/mol (Crystal); method: correlation gas chromatography
Temperature, K	Molar enthalpy of transition or fusion, kJ/mol	uncertainty
298	135.9	2.6

System: 1-docosanol; phases: Liquid, Gas
Property: Vapor or sublimation pressure, kPa (Liquid); method: Gas chromatography
Temperature, K	Vapor or sublimation pressure, kPa	uncertainty
330	5.89e-07	7.11e-08
360	2.687e-05	2.7e-06
390	0.000588	5.89e-05
420	0.007063	0.000707
450	0.0523	0.00523
480	0.2627	0.0263
510	0.9664	0.0967

System: .DELTA.5-cholesten-3.beta.-ol; phases: Crystal, Gas
Property: Molar enthalpy of transition or fusion, kJ/mol (Crystal); method: correlation gas chromatography
Temperature, K	Molar enthalpy of transition or fusion, kJ/mol	uncertainty
298	148	3

System: .DELTA.5-cholesten-3.beta.-ol; phases: Liquid, Gas
Property: Vapor or sublimation pressure, kPa (Liquid); method: Gas chromatography
Temperature, K	Vapor or sublimation pressure, kPa	uncertainty
298.15	7.557e-11	1.000756e-08
300	1.065e-10	1.00107e-08
330	1.71e-08	1.172e-08
360	1.132e-06	1.24e-07
390	3.397e-05	3.42e-06
420	0.0005237	5.25e-05
450	0.004678	0.000468
480	0.02685	0.00269
510	0.1078	0.0108

System: 1-hexacosanol; phases: Crystal, Liquid, Air at 1 atmosphere
Property: Normal melting temperature, K (Crystal); method: DTA
Normal melting temperature, K	uncertainty
353.1	0.5

System: 1-hexacosanol; phases: Crystal, Liquid, Air at 1 atmosphere
Property: Molar enthalpy of transition or fusion, kJ/mol (Crystal); method: DSC
Molar enthalpy of transition or fusion, kJ/mol	uncertainty
103.8	2.7

System: 1-hexacosanol; phases: Crystal
Property: Molar heat capacity at constant pressure, J/K/mol (Crystal); method: Small sample (50 mg) DSC
Temperature, K	Pressure, kPa	Molar heat capacity at constant pressure, J/K/mol	uncertainty
298.15	101.325	732.6	14.7

System: 1-hexacosanol; phases: Crystal, Gas
Property: Molar enthalpy of transition or fusion, kJ/mol (Crystal); method: correlation gas chromatography
Temperature, K	Molar enthalpy of transition or fusion, kJ/mol	uncertainty
298	153.7	2.6

System: 1-hexacosanol; phases: Liquid, Gas
Property: Vapor or sublimation pressure, kPa (Liquid); method: Gas chromatography
Temperature, K	Vapor or sublimation pressure, kPa	uncertainty
298.15	6.401e-11	1.00064e-08
300	9.145e-11	1.000915e-08
330	1.78e-08	1.179e-08
360	1.364e-06	1.47e-07
390	4.614e-05	4.63e-06
420	0.0007898	7.9e-05
450	0.007756	0.000776
480	0.0486	0.00486
510	0.212	0.0212

System: 4-heptadecanol; phases: Crystal, Liquid, Air at 1 atmosphere
Property: Normal melting temperature, K (Crystal); method: DTA
Normal melting temperature, K	uncertainty
311.5	0.5

System: 4-heptadecanol; phases: Crystal, Liquid, Air at 1 atmosphere
Property: Molar enthalpy of transition or fusion, kJ/mol (Crystal); method: DSC
Molar enthalpy of transition or fusion, kJ/mol	uncertainty
35.7	1

System: 4-heptadecanol; phases: Crystal
Property: Molar heat capacity at constant pressure, J/K/mol (Crystal); method: Small sample (50 mg) DSC
Temperature, K	Pressure, kPa	Molar heat capacity at constant pressure, J/K/mol	uncertainty
298.15	101.325	472.6	9.5
