Measured thermophysical data. Solubilities at High Dilution of Toluene, Ethylbenzene, 1,2,4-Trimethylbenzene, and Hexane in Di-2-ethylhexyl, Diisoheptyl, and Diisononyl Phthalates
Source: J. Chem. Eng. Data, 2006, 10.1021/je050529h
Compound 1: hexane, C6H14, InChI=1S/C6H14/c1-3-5-6-4-2/h3-6H2,1-2H3, purity 99%
Compound 2: toluene, C7H8, InChI=1S/C7H8/c1-7-5-3-2-4-6-7/h2-6H,1H3, purity 99.5%
Compound 3: ethylbenzene, C8H10, InChI=1S/C8H10/c1-2-8-6-4-3-5-7-8/h3-7H,2H2,1H3, purity 99.8%
Compound 4: 1,2,4-trimethylbenzene, C9H12, InChI=1S/C9H12/c1-7-4-5-8(2)9(3)6-7/h4-6H,1-3H3, purity 98%
Compound 5: diisoheptyl phthalate, C22H34O4, InChI=1S/C22H34O4/c1-17(2)11-7-9-15-25-21(23)19-13-5-6-14-20(19)22(24)26-16-10-8-12-18(3)4/h5-6,13-14,17-18H,7-12,15-16H2,1-4H3, purity 98%
Compound 6: bis(2-ethylhexyl) 1,2-benzenedicarboxylate, C24H38O4, InChI=1S/C24H38O4/c1-5-9-13-19(7-3)17-27-23(25)21-15-11-12-16-22(21)24(26)28-18-20(8-4)14-10-6-2/h11-12,15-16,19-20H,5-10,13-14,17-18H2,1-4H3, purity 98%
Compound 7: bis(7-methyloctyl) phthalate, C26H42O4, InChI=1S/C26H42O4/c1-21(2)15-9-5-7-13-19-29-25(27)23-17-11-12-18-24(23)26(28)30-20-14-8-6-10-16-22(3)4/h11-12,17-18,21-22H,5-10,13-16,19-20H2,1-4H3, purity 98%

System: hexane + diisoheptyl phthalate; phases: Liquid, Gas
Fixed: Mole fraction of hexane = 0
Property: Henry's Law constant (mole fraction scale), kPa of hexane (Liquid); method: Chromatography
Temperature, K	Henry's Law constant (mole fraction scale), kPa of hexane	uncertainty
291.65	26.32	3.63
308.15	52.61	7.26
323.15	89.38	12.34
348.15	184.1	25.4
373.15	477.6	65.9

System: hexane + bis(2-ethylhexyl) 1,2-benzenedicarboxylate; phases: Liquid, Gas
Fixed: Mole fraction of hexane = 0
Property: Henry's Law constant (mole fraction scale), kPa of hexane (Liquid); method: Chromatography
Temperature, K	Henry's Law constant (mole fraction scale), kPa of hexane	uncertainty
292.15	29.99	4.14
308.15	48.74	6.73
323.15	87.02	12.01
348.15	185.5	25.6
373.15	408	56.3

System: hexane + bis(7-methyloctyl) phthalate; phases: Liquid, Gas
Fixed: Mole fraction of hexane = 0
Property: Henry's Law constant (mole fraction scale), kPa of hexane (Liquid); method: Chromatography
Temperature, K	Henry's Law constant (mole fraction scale), kPa of hexane	uncertainty
291.65	24.19	3.34
308.15	41.74	5.76
323.15	62.87	8.68
348.15	200.5	27.7
373.15	408.2	56.4

System: toluene + diisoheptyl phthalate; phases: Liquid, Gas
Fixed: Mole fraction of toluene = 0
Property: Henry's Law constant (mole fraction scale), kPa of toluene (Liquid); method: Chromatography
Temperature, K	Henry's Law constant (mole fraction scale), kPa of toluene	uncertainty
291.65	1.814	0.25
305.15	4.874	0.673
323.15	9.666	1.334
348.15	25	3.45
373.15	55.6	7.68

System: toluene + bis(2-ethylhexyl) 1,2-benzenedicarboxylate; phases: Liquid, Gas
Fixed: Mole fraction of toluene = 0
Property: Henry's Law constant (mole fraction scale), kPa of toluene (Liquid); method: Chromatography
Temperature, K	Henry's Law constant (mole fraction scale), kPa of toluene	uncertainty
291.65	1.672	0.231
308.15	4.499	0.621
323.15	8.977	1.239
348.15	23.71	3.27
363.15	40.18	5.55
373.15	57.96	8

System: toluene + bis(7-methyloctyl) phthalate; phases: Liquid, Gas
Fixed: Mole fraction of toluene = 0
Property: Henry's Law constant (mole fraction scale), kPa of toluene (Liquid); method: Chromatography
Temperature, K	Henry's Law constant (mole fraction scale), kPa of toluene	uncertainty
291.65	1.753	0.242
308.15	4.104	0.567
323.15	7.893	1.09
348.15	22.25	3.07
373.15	50.32	6.95

System: ethylbenzene + diisoheptyl phthalate; phases: Liquid, Gas
Fixed: Mole fraction of ethylbenzene = 0
Property: Henry's Law constant (mole fraction scale), kPa of ethylbenzene (Liquid); method: Chromatography
Temperature, K	Henry's Law constant (mole fraction scale), kPa of ethylbenzene	uncertainty
293.15	0.689	0.095
308.15	1.895	0.262
323.15	3.931	0.543
348.15	12.4	1.71
373.15	30.52	4.21

System: ethylbenzene + bis(2-ethylhexyl) 1,2-benzenedicarboxylate; phases: Liquid, Gas
Fixed: Mole fraction of ethylbenzene = 0
Property: Henry's Law constant (mole fraction scale), kPa of ethylbenzene (Liquid); method: Chromatography
Temperature, K	Henry's Law constant (mole fraction scale), kPa of ethylbenzene	uncertainty
291.65	0.74	0.102
308.15	2.027	0.28
323.15	3.253	0.449
348.15	11.88	1.64
373.15	27.94	3.86

System: ethylbenzene + bis(7-methyloctyl) phthalate; phases: Liquid, Gas
Fixed: Mole fraction of ethylbenzene = 0
Property: Henry's Law constant (mole fraction scale), kPa of ethylbenzene (Liquid); method: Chromatography
Temperature, K	Henry's Law constant (mole fraction scale), kPa of ethylbenzene	uncertainty
308.15	1.5	0.207
323.15	3.09	0.427
348.15	9.342	1.29
373.15	27.8	3.84

System: 1,2,4-trimethylbenzene + diisoheptyl phthalate; phases: Liquid, Gas
Fixed: Mole fraction of 1,2,4-trimethylbenzene = 0
Property: Henry's Law constant (mole fraction scale), kPa of 1,2,4-trimethylbenzene (Liquid); method: Chromatography
Temperature, K	Henry's Law constant (mole fraction scale), kPa of 1,2,4-trimethylbenzene	uncertainty
323.15	1.135	0.157
373.15	9.231	1.274

System: 1,2,4-trimethylbenzene + bis(2-ethylhexyl) 1,2-benzenedicarboxylate; phases: Liquid, Gas
Fixed: Mole fraction of 1,2,4-trimethylbenzene = 0
Property: Henry's Law constant (mole fraction scale), kPa of 1,2,4-trimethylbenzene (Liquid); method: Chromatography
Temperature, K	Henry's Law constant (mole fraction scale), kPa of 1,2,4-trimethylbenzene	uncertainty
293.15	0.193	0.027
323.15	1.094	0.151
348.15	3.627	0.501
373.15	10.34	1.43
