Measured thermophysical data. Vapor Pressure of Dimethoxymethane and 1,1,1,3,3-Pentafluoropropane
Source: J. Chem. Eng. Data, 2006, 10.1021/je0503251
Compound 1: dimethoxymethane, C3H8O2, InChI=1S/C3H8O2/c1-4-3-5-2/h3H2,1-2H3, purity 95%
Compound 2: 1,1,1,3,3-pentafluoropropane, C3H3F5, InChI=1S/C3H3F5/c4-2(5)1-3(6,7)8/h2H,1H2, purity 99.8%

System: dimethoxymethane; phases: Liquid, Gas
Property: Vapor or sublimation pressure, kPa (Liquid); method: Closed cell (Static) method
Temperature, K	Vapor or sublimation pressure, kPa	uncertainty
283.133	27.73	1.4
285.126	30.39	1.4
288.112	34.73	1.4
293.075	43.08	1.4
295.075	46.83	1.4
298.067	52.94	1.4
300.069	57.14	1.4
303.051	64.26	1.4
305.046	69.42	1.4
308.046	77.74	1.41
310.075	83.8	1.41
313.164	93.85	1.41
318.133	111.95	1.41
323.168	132.98	1.41
325.175	142.06	1.42
328.168	156.44	1.42
330.167	166.67	1.42
333.167	182.96	1.43
335.166	194.47	1.43
338.164	212.79	1.43
340.161	225.73	1.44
343.158	246.24	1.45
345.161	260.68	1.45
348.16	283.65	1.46
353.16	325.16	1.48
358.158	371.53	1.5
363.159	421.82	1.53
368.156	477.61	1.56
373.15	538.51	1.6
378.158	605.33	1.65
383.133	677.68	1.71
388.154	757.05	1.77
393.158	842.82	1.85
398.152	935.48	1.94

System: 1,1,1,3,3-pentafluoropropane; phases: Liquid, Gas
Property: Vapor or sublimation pressure, kPa (Liquid); method: Closed cell (Static) method
Temperature, K	Vapor or sublimation pressure, kPa	uncertainty
253.125	19.34	0.7
258.159	25.37	0.7
263.129	32.79	0.7
268.12	41.88	0.7
273.125	52.91	0.71
278.118	66.17	0.71
283.149	82.07	0.71
285.144	89.11	0.71
288.124	100.56	0.72
293.092	122.2	0.72
295.077	131.93	0.73
298.058	147.46	0.73
303.062	177.01	0.75
305.051	190.2	0.76
308.051	210.95	0.77
310.091	225.91	0.78
313.101	249.94	0.79
315.078	266.801	0.803
318.119	294.26	0.82
320.166	312.44	0.84
323.164	343.03	0.86
325.164	364.63	0.88
328.16	398.98	0.91
330.162	423.22	0.93
333.162	461.65	0.97
338.164	531.78	1.04
343.162	609.29	1.13
345.161	642.58	1.17
348.161	695.02	1.23
353.16	789.45	1.34
358.161	893.28	1.47
363.158	1007.01	1.61
368.132	1130.31	1.78
373.132	1265.73	1.99
378.157	1413.62	2.22
383.152	1573.34	2.47
388.142	1745.43	2.74
393.136	1932.23	3.03
398.123	2133.2	3.34
403.075	2348.19	3.67
