Measured thermophysical data. Vapor Pressures and Phase Changes Enthalpy and Gibbs Energy of Three Crystalline Monomethyl Benzenedicarboxylates
Source: J. Chem. Eng. Data, 2005, 10.1021/je0503305
Compound 1: phthalic acid, monomethyl ester, C9H8O4, InChI=1S/C9H8O4/c1-13-9(12)7-5-3-2-4-6(7)8(10)11/h2-5H,1H3,(H,10,11)
Compound 2: 1,3-benzenedicarboxylic acid, monomethyl ester, C9H8O4, InChI=1S/C9H8O4/c1-13-9(12)7-4-2-3-6(5-7)8(10)11/h2-5H,1H3,(H,10,11)
Compound 3: 1,4-benzenedicarboxylic acid, monomethyl ester, C9H8O4, InChI=1S/C9H8O4/c1-13-9(12)7-4-2-6(3-5-7)8(10)11/h2-5H,1H3,(H,10,11)

System: phthalic acid, monomethyl ester; phases: Crystal, Liquid, Air at 1 atmosphere
Property: Molar enthalpy of transition or fusion, kJ/mol (Crystal); method: DSC
Molar enthalpy of transition or fusion, kJ/mol	uncertainty
21.63	1.12

System: phthalic acid, monomethyl ester; phases: Crystal, Liquid, Air at 1 atmosphere
Property: Normal melting temperature, K (Crystal); method: DTA
Normal melting temperature, K	uncertainty
357.5	0.48

System: phthalic acid, monomethyl ester; phases: Crystal, Gas
Property: Vapor or sublimation pressure, kPa (Crystal); method: Calculated from knudsen effusion weight loss
Temperature, K	Vapor or sublimation pressure, kPa	uncertainty
335.28	0.000112	2e-05
335.28	0.000118	2e-05
335.28	0.000115	2e-05
337.26	0.000154	2.1e-05
337.26	0.000148	2.1e-05
337.26	0.000149	2.1e-05
339.2	0.000184	2.1e-05
339.2	0.000187	2.1e-05
339.2	0.00019	2.1e-05
341.24	0.000243	2.2e-05
341.24	0.000239	2.2e-05
341.24	0.000243	2.2e-05
343.11	0.000298	2.3e-05
343.11	0.000306	2.3e-05
343.11	0.000301	2.3e-05
345.27	0.000388	2.4e-05
345.27	0.000386	2.4e-05
345.27	0.000388	2.4e-05
347.24	0.000471	2.6e-05
347.24	0.00048	2.6e-05
347.24	0.000468	2.6e-05
349.12	0.000579	2.9e-05
349.12	0.000575	2.9e-05
349.12	0.000593	2.9e-05
351.06	0.000743	3.3e-05
351.06	0.000733	3.3e-05
351.06	0.000751	3.3e-05
353.23	0.000981	4e-05
353.23	0.000964	4e-05
353.23	0.000948	3.9e-05
355.28	0.001233	0.0001
355.28	0.001242	0.000101
355.28	0.001242	0.000101

System: 1,3-benzenedicarboxylic acid, monomethyl ester; phases: Crystal, Liquid, Air at 1 atmosphere
Property: Molar enthalpy of transition or fusion, kJ/mol (Crystal); method: DSC:FP
Molar enthalpy of transition or fusion, kJ/mol	uncertainty
36.5	0.79

System: 1,3-benzenedicarboxylic acid, monomethyl ester; phases: Crystal, Liquid, Air at 1 atmosphere
Property: Normal melting temperature, K (Crystal); method: DTA
Normal melting temperature, K	uncertainty
466.68	0.39

System: 1,3-benzenedicarboxylic acid, monomethyl ester; phases: Crystal, Gas
Property: Vapor or sublimation pressure, kPa (Crystal); method: Calculated from knudsen effusion weight loss
Temperature, K	Vapor or sublimation pressure, kPa	uncertainty
359.26	0.000134	2.1e-05
359.26	0.000136	2.1e-05
359.26	0.000134	2.1e-05
361.24	0.000172	2.1e-05
361.24	0.000169	2.1e-05
361.24	0.000169	2.1e-05
363.28	0.000211	2.1e-05
363.28	0.00021	2.1e-05
363.28	0.000202	2.1e-05
365.26	0.000264	2.2e-05
365.26	0.000256	2.2e-05
365.26	0.000252	2.2e-05
367.13	0.000313	2.3e-05
367.13	0.000311	2.3e-05
369.28	0.000397	2.4e-05
369.28	0.000399	2.4e-05
369.28	0.000382	2.4e-05
371.24	0.000499	2.7e-05
371.24	0.000487	2.6e-05
371.24	0.000474	2.6e-05
373.12	0.000588	2.9e-05
373.12	0.000586	2.9e-05
373.12	0.000569	2.8e-05
375.27	0.000773	3.4e-05
375.27	0.000759	3.3e-05
375.27	0.000741	3.3e-05
377.24	0.000953	3.9e-05
377.24	0.000928	3.8e-05
377.24	0.000917	3.8e-05
379.12	0.001122	8.9e-05
379.12	0.001111	8.8e-05

System: 1,4-benzenedicarboxylic acid, monomethyl ester; phases: Crystal, Liquid, Air at 1 atmosphere
Property: Molar enthalpy of transition or fusion, kJ/mol (Crystal); method: DSC
Molar enthalpy of transition or fusion, kJ/mol	uncertainty
37.68	0.9

System: 1,4-benzenedicarboxylic acid, monomethyl ester; phases: Crystal, Liquid, Air at 1 atmosphere
Property: Normal melting temperature, K (Crystal); method: DTA
Normal melting temperature, K	uncertainty
492.54	0.39

System: 1,4-benzenedicarboxylic acid, monomethyl ester; phases: Crystal, Gas
Property: Vapor or sublimation pressure, kPa (Crystal); method: Calculated from knudsen effusion weight loss
Temperature, K	Vapor or sublimation pressure, kPa	uncertainty
363.16	0.000139	2.1e-05
363.16	0.00014	2.1e-05
365.15	0.000169	2.1e-05
365.15	0.000171	2.1e-05
365.15	0.000167	2.1e-05
367.19	0.000212	2.1e-05
367.19	0.000209	2.1e-05
367.19	0.000209	2.1e-05
370.18	0.000294	2.3e-05
370.18	0.000286	2.2e-05
370.18	0.000289	2.2e-05
372.17	0.000361	2.4e-05
372.17	0.000363	2.4e-05
372.17	0.000354	2.4e-05
374.2	0.000452	2.6e-05
374.2	0.000449	2.6e-05
374.2	0.000439	2.5e-05
377.37	0.00063	3e-05
377.37	0.000621	3e-05
377.37	0.00062	3e-05
379.26	0.000768	3.4e-05
379.26	0.000743	3.3e-05
379.26	0.000739	3.3e-05
381.51	0.00094	3.9e-05
381.51	0.000931	3.9e-05
381.51	0.000926	3.8e-05
