Measured thermophysical data. Measurement and Correlation of Isothermal Vapor-Liquid Equilibrium Data for the System Methanol + Water + Ammonium Bromide
Source: J. Chem. Eng. Data, 2005, 10.1021/je0503002
Compound 1: methanol, CH4O, InChI=1S/CH4O/c1-2/h2H,1H3, purity 99.9%
Compound 2: water, H2O, InChI=1S/H2O/h1H2
Compound 3: ammonium bromide, BrH4N, InChI=1S/BrH.H3N/h1H;1H3, purity 99.5%

System: methanol + water + ammonium bromide; phases: Gas, Liquid
Property: Mole fraction of methanol (Gas); method: CHROM:UFactor:8
Temperature, K	Solvent: Mole fraction of methanol	Molality, mol/kg of ammonium bromide	Mole fraction of methanol	uncertainty
298.15	0.15	0	0.598	0.031
298.15	0.15	0.5	0.609	0.03
298.15	0.15	1	0.618	0.029
298.15	0.15	2	0.633	0.028
298.15	0.15	4	0.682	0.025
298.15	0.301	0	0.732	0.022
298.15	0.301	0.5	0.738	0.021
298.15	0.301	1	0.746	0.021
298.15	0.301	2	0.772	0.019
298.15	0.301	4	0.801	0.018
298.15	0.5	0	0.82	0.017
298.15	0.5	0.5	0.834	0.016
298.15	0.5	1	0.862	0.015
298.15	0.5	2	0.871	0.014
298.15	0.5	4	0.887	0.013
298.15	0.701	0	0.912	0.013
298.15	0.701	0.5	0.918	0.013
298.15	0.701	1	0.929	0.012
298.15	0.701	2	0.935	0.012
298.15	0.701	4	0.95	0.011
298.15	0.901	0	0.974	0.012
298.15	0.901	0.5	0.976	0.011
298.15	0.901	1	0.978	0.011
298.15	0.901	2	0.983	0.011
298.15	0.901	4	0.991	0.009
313.15	0.15	0	0.573	0.033
313.15	0.15	0.5	0.588	0.032
313.15	0.15	1	0.593	0.031
313.15	0.15	2	0.603	0.03
313.15	0.15	4	0.622	0.029
313.15	0.301	0	0.714	0.023
313.15	0.301	0.5	0.727	0.022
313.15	0.301	1	0.734	0.022
313.15	0.301	2	0.75	0.021
313.15	0.301	4	0.781	0.019
313.15	0.5	0	0.828	0.017
313.15	0.5	0.5	0.841	0.016
313.15	0.5	1	0.848	0.016
313.15	0.5	2	0.855	0.015
313.15	0.5	4	0.888	0.014
313.15	0.701	0	0.903	0.013
313.15	0.701	0.5	0.917	0.013
313.15	0.701	1	0.921	0.012
313.15	0.701	2	0.929	0.012
313.15	0.701	4	0.946	0.011
313.15	0.901	0	0.97	0.012
313.15	0.901	0.5	0.979	0.011
313.15	0.901	1	0.982	0.011
313.15	0.901	2	0.985	0.011
313.15	0.901	4	0.998	0.002
