Measured thermophysical data. Densities, Viscosities, and Speeds of Sound of the Nitromethane + 1-Pentanol System near the Critical Demixing Temperature: Effect of Deuterium Substitution
Source: J. Chem. Eng. Data, 2005, 10.1021/je0500734
Compound 1: nitromethane, CH3NO2, InChI=1S/CH3NO2/c1-2(3)4/h1H3
Compound 2: deuteronitromethane, CD3NO2, InChI=1S/CH3NO2/c1-2(3)4/h1H3/i1D3
Compound 3: pentan-1-ol, C5H12O, InChI=1S/C5H12O/c1-2-3-4-5-6/h6H,2-5H2,1H3
Compound 4: pentan-1-ol-d, C5H11DO, InChI=1S/C5H12O/c1-2-3-4-5-6/h6H,2-5H2,1H3/i6D

System: nitromethane; phases: Liquid
Fixed: Pressure, kPa = 101.325
Property: Kinematic viscosity, m2/s (Liquid); method: CAPTUB:UFactor:4
Temperature, K	Kinematic viscosity, m2/s	uncertainty
293.15	6.01e-07	1.6e-08
295.15	5.77e-07	1.6e-08
298.15	5.62e-07	1.5e-08
300.15	5.47e-07	1.5e-08
303.15	5.25e-07	1.5e-08
305.15	5.1e-07	1.4e-08
308.15	4.89e-07	1.4e-08

System: nitromethane; phases: Liquid
Fixed: Pressure, kPa = 101.325
Property: Speed of sound, m/s (Liquid); method: acoustic time of flight gauge
Temperature, K	Speed of sound, m/s	uncertainty
293.15	1337.6	2
295.15	1329.5	2
298.15	1317.4	2
300.15	1309.4	2
303.15	1297.3	2
305.15	1289.2	2
308.15	1277.1	2

System: nitromethane; phases: Liquid
Fixed: Pressure, kPa = 101.325
Property: Mass density, kg/m3 (Liquid); method: VIBTUB:UFactor:16
Temperature, K	Mass density, kg/m3	uncertainty
293.15	1137.21	1.37
295.15	1133.14	1.35
298.15	1130.42	1.33
300.15	1127.55	1.31
301.15	1126.24	1.66
301.3	1126.04	1.66
303.15	1123.49	1.29
305.15	1120.82	1.27
306.15	1119.36	1.61
306.3	1119.15	1.61
308.15	1116.54	1.24

System: nitromethane; phases: Liquid
Fixed: Pressure, kPa = 101.325
Property: Viscosity, Pa*s (Liquid); method: CAPTUB:UFactor:8
Temperature, K	Viscosity, Pa*s	uncertainty
301.15	0.0006091	4.2e-05
301.3	0.0006074	4.19e-05
306.15	0.0005636	3.95e-05
306.3	0.0005623	3.94e-05

System: nitromethane; phases: Liquid
Fixed: Pressure, kPa = 101.325
Property: Speed of sound, m/s (Liquid); method: OTHER::sMethod:acoustic time of flight gauge
Temperature, K	Speed of sound, m/s	uncertainty
301.15	1305.35	2
306.15	1285.19	2

System: deuteronitromethane; phases: Liquid
Fixed: Pressure, kPa = 101.325
Property: Kinematic viscosity, m2/s (Liquid); method: CAPTUB:UFactor:4
Temperature, K	Kinematic viscosity, m2/s	uncertainty
293.15	6.05e-07	1.6e-08
295.15	5.81e-07	1.6e-08
298.15	5.7e-07	1.5e-08
300.15	5.49e-07	1.5e-08
303.15	5.26e-07	1.5e-08
303.5	6.274e-07	4.31e-08
305.15	5.13e-07	1.4e-08
307.5	5.819e-07	4.05e-08
308.15	4.92e-07	1.4e-08

System: deuteronitromethane; phases: Liquid
Fixed: Pressure, kPa = 101.325
Property: Speed of sound, m/s (Liquid); method: acoustic time of flight gauge
Temperature, K	Speed of sound, m/s	uncertainty
293.15	1291.1	2
295.15	1283.2	2
298.15	1271.3	2
300.15	1263.3	2
303.15	1251.4	2
305.15	1243.5	2
308.15	1231.6	2

System: deuteronitromethane; phases: Liquid
Fixed: Pressure, kPa = 101.325
Property: Mass density, kg/m3 (Liquid); method: VIBTUB:UFactor:16
Temperature, K	Mass density, kg/m3	uncertainty
293.15	1194.74	1.74
295.15	1190.43	1.71
298.15	1187.71	1.69
300.15	1184.73	1.68
303.15	1181.86	1.66
303.5	1180.03	2.1
305.15	1178.3	1.64
307.5	1172.08	2.03
308.15	1173.28	1.6

System: deuteronitromethane; phases: Liquid
Fixed: Pressure, kPa = 101.325
Property: Viscosity, Pa*s (Liquid); method: CAPTUB::UFactor:8
Temperature, K	Viscosity, Pa*s	uncertainty
303.5	0.0006274	4.31e-05
307.5	0.0005819	4.05e-05

System: pentan-1-ol; phases: Liquid
Fixed: Pressure, kPa = 101.325
Property: Kinematic viscosity, m2/s (Liquid); method: Capillary tube (Ostwald; Ubbelohde) method
Temperature, K	Kinematic viscosity, m2/s	uncertainty
293.15	4.964e-06	5.9e-08
295.15	4.444e-06	3.7e-08
298.15	4.223e-06	3e-08
300.15	3.942e-06	3.2e-08
303.15	3.635e-06	2.8e-08
305.15	3.45e-06	2.8e-08
308.15	3.129e-06	2.8e-08

System: pentan-1-ol; phases: Liquid
Fixed: Pressure, kPa = 101.325
Property: Speed of sound, m/s (Liquid); method: acoustic time of flight gauge
Temperature, K	Speed of sound, m/s	uncertainty
293.15	1290.7	2
295.15	1282.1	2
298.15	1273.6	2
300.15	1266.7	2
301.15	1263.31	2
303.15	1256.4	2
305.15	1249.4	2
306.15	1246.17	2
308.15	1239.3	2

System: pentan-1-ol; phases: Liquid
Fixed: Pressure, kPa = 101.325
Property: Mass density, kg/m3 (Liquid); method: VIBTUB:UFactor:16
Temperature, K	Mass density, kg/m3	uncertainty
293.15	815.09	1.68
295.15	812.74	1.69
298.15	811.4	1.7
300.15	809.72	1.71
301.15	808.96	2.18
303.15	807.41	1.73
303.5	807.33	2.2
305.15	805.78	1.74
306.15	805.17	2.22
307.5	803.76	2.23
308.15	803.71	1.75

System: pentan-1-ol; phases: Liquid
Fixed: Pressure, kPa = 101.325
Property: Viscosity, Pa*s (Liquid); method: CAPTUB::UFactor:8
Temperature, K	Viscosity, Pa*s	uncertainty
301.15	0.0031133	0.0001801
303.5	0.0029969	0.0001743
306.15	0.0026863	0.0001571
307.5	0.0025703	0.0001513

System: pentan-1-ol-d; phases: Liquid
Fixed: Pressure, kPa = 101.325
Property: Kinematic viscosity, m2/s (Liquid); method: Capillary tube (Ostwald; Ubbelohde) method
Temperature, K	Kinematic viscosity, m2/s	uncertainty
293.15	4.992e-06	6e-08
295.15	4.458e-06	3.8e-08
298.15	4.238e-06	3e-08
300.15	3.969e-06	3.1e-08
303.15	3.685e-06	2.9e-08
305.15	3.456e-06	2.9e-08
308.15	3.148e-06	2.7e-08

System: pentan-1-ol-d; phases: Liquid
Fixed: Pressure, kPa = 101.325
Property: Speed of sound, m/s (Liquid); method: acoustic time of flight gauge
Temperature, K	Speed of sound, m/s	uncertainty
293.15	1282.3	2
295.15	1273.7	2
298.15	1265.1	2
300.15	1258.3	2
303.15	1248.5	2
305.15	1241.1	2
308.15	1230.8	2

System: pentan-1-ol-d; phases: Liquid
Fixed: Pressure, kPa = 101.325
Property: Mass density, kg/m3 (Liquid); method: VIBTUB:UFactor:16
Temperature, K	Mass density, kg/m3	uncertainty
293.15	821.69	1.63
295.15	819.5	1.65
298.15	818.04	1.66
300.15	816.42	1.67
301.3	815.63	2.13
303.15	814.24	1.68
305.15	813.1	1.69
306.3	811.88	2.16
308.15	810.47	1.71

System: pentan-1-ol-d; phases: Liquid
Fixed: Pressure, kPa = 101.325
Property: Viscosity, Pa*s (Liquid); method: CAPTUB::UFactor:8
Temperature, K	Viscosity, Pa*s	uncertainty
301.3	0.0031177	0.0001803
306.3	0.0026851	0.000157

System: pentan-1-ol + nitromethane; phases: Liquid
Fixed: Pressure, kPa = 101.325
Property: Viscosity, Pa*s (Liquid); method: CAPTUB:UFactor:8
Temperature, K	Mole fraction of nitromethane	Viscosity, Pa*s	uncertainty
301.15	0	0.0031133	0.0001801
301.15	0.113	0.002379	0.0001408
301.15	0.203	0.0021194	0.0001261
301.15	0.314	0.0017431	0.0001053
301.15	0.398	0.0014874	9.09e-05
301.15	0.469	0.0012312	7.67e-05
301.15	0.516	0.0011112	7.02e-05
301.15	0.62	0.0009425	6.09e-05
301.15	0.752	0.0007812	5.17e-05
301.15	0.801	0.0007348	4.9e-05
301.15	0.824	0.000679	4.6e-05
301.15	0.849	0.000673	4.56e-05
301.15	0.934	0.0006149	4.24e-05
301.15	1	0.0006091	4.2e-05
306.15	0	0.0026863	0.0001571
306.15	0.113	0.0020093	0.0001197
306.15	0.203	0.0017439	0.0001057
306.15	0.314	0.0014731	9.04e-05
306.15	0.398	0.0012818	7.97e-05
306.15	0.469	0.0010929	6.91e-05
306.15	0.516	0.0009447	6.09e-05
306.15	0.62	0.0007854	5.2e-05
306.15	0.752	0.0006945	4.69e-05
306.15	0.801	0.0006634	4.51e-05
306.15	0.824	0.0006288	4.31e-05
306.15	0.849	0.0006161	4.24e-05
306.15	0.934	0.0005661	3.96e-05
306.15	1	0.0005636	3.95e-05

System: pentan-1-ol + nitromethane; phases: Liquid
Fixed: Pressure, kPa = 101.325
Property: Speed of sound, m/s (Liquid); method: acoustic time of flight gauge
Temperature, K	Mole fraction of nitromethane	Speed of sound, m/s	uncertainty
301.15	0	1263.31	2
301.15	0.099	1258.09	2
301.15	0.202	1252.12	2
301.15	0.302	1248.35	2
301.15	0.401	1245.43	2
301.15	0.502	1242.71	2
301.15	0.619	1243.9	2
301.15	0.701	1247.05	2
301.15	0.802	1258.87	2
301.15	0.902	1281.18	2
301.15	1	1305.35	2
306.15	0	1246.17	2
306.15	0.099	1240.61	2
306.15	0.202	1234.6	2
306.15	0.302	1230.61	2
306.15	0.401	1227.73	2
306.15	0.502	1225.51	2
306.15	0.619	1226.62	2
306.15	0.701	1230.23	2
306.15	0.802	1241.71	2
306.15	0.902	1262.13	2
306.15	1	1285.19	2

System: pentan-1-ol + nitromethane; phases: Liquid
Fixed: Pressure, kPa = 101.325
Property: Mass density, kg/m3 (Liquid); method: VIBTUB:UFactor:16
Temperature, K	Mole fraction of nitromethane	Mass density, kg/m3	uncertainty
301.15	0	808.96	2.18
301.15	0.065	818.89	2.1
301.15	0.127	828.49	2.03
301.15	0.186	838.83	1.94
301.15	0.26	852.95	1.83
301.15	0.31	863.38	1.75
301.15	0.398	883.3	1.59
301.15	0.503	910.3	1.37
301.15	0.54	920.98	1.29
301.15	0.616	944.27	1.1
301.15	0.699	973.7	0.86
301.15	0.753	994.05	0.7
301.15	0.802	1016.76	0.79
301.15	0.911	1070.91	1.22
301.15	1	1126.24	1.66
306.15	0	805.17	2.22
306.15	0.065	815.14	2.13
306.15	0.127	824.47	2.06
306.15	0.186	834.67	1.98
306.15	0.26	848.61	1.86
306.15	0.31	858.74	1.78
306.15	0.398	878.5	1.63
306.15	0.503	905.13	1.41
306.15	0.54	915.83	1.33
306.15	0.616	939	1.14
306.15	0.699	967.99	0.91
306.15	0.753	987.94	0.75
306.15	0.802	1010.21	0.73
306.15	0.911	1064.52	1.16
306.15	1	1119.36	1.61

System: pentan-1-ol + deuteronitromethane; phases: Liquid
Fixed: Pressure, kPa = 101.325
Property: Viscosity, Pa*s (Liquid); method: CAPTUB:UFactor:8
Temperature, K	Mole fraction of deuteronitromethane	Viscosity, Pa*s	uncertainty
303.5	0	0.0029969	0.0001743
303.5	0.103	0.0024598	0.0001453
303.5	0.206	0.0021598	0.0001286
303.5	0.302	0.0017957	0.0001088
303.5	0.418	0.0014471	8.92e-05
303.5	0.502	0.0012404	7.76e-05
303.5	0.598	0.0010691	6.81e-05
303.5	0.615	0.001033	6.6e-05
303.5	0.644	0.0010264	6.56e-05
303.5	0.758	0.0007821	5.21e-05
303.5	0.801	0.0007859	5.2e-05
303.5	0.904	0.0006496	4.45e-05
303.5	1	0.0006274	4.31e-05
307.5	0	0.0025703	0.0001513
307.5	0.103	0.002158	0.0001283
307.5	0.206	0.0018198	0.0001103
307.5	0.302	0.0015169	9.32e-05
307.5	0.418	0.0012512	7.83e-05
307.5	0.502	0.001077	6.85e-05
307.5	0.598	0.0009159	5.96e-05
307.5	0.615	0.0008939	5.83e-05
307.5	0.644	0.0008578	5.65e-05
307.5	0.758	0.0007064	4.75e-05
307.5	0.801	0.0006878	4.67e-05
307.5	0.904	0.0005971	4.14e-05
307.5	1	0.0005819	4.05e-05

System: pentan-1-ol + deuteronitromethane; phases: Liquid
Fixed: Pressure, kPa = 101.325
Property: Mass density, kg/m3 (Liquid); method: VIBTUB:UFactor:16
Temperature, K	Mole fraction of deuteronitromethane	Mass density, kg/m3	uncertainty
303.5	0	807.33	2.2
303.5	0.08	823.07	2.07
303.5	0.178	843.08	1.91
303.5	0.245	858.21	1.79
303.5	0.351	883.03	1.59
303.5	0.401	896.26	1.48
303.5	0.49	922.6	1.28
303.5	0.615	966.2	0.93
303.5	0.669	988.3	0.75
303.5	0.749	1024.62	0.86
303.5	0.86	1084.42	1.33
303.5	0.959	1149.88	1.85
303.5	1	1180.03	2.1
307.5	0	803.76	2.23
307.5	0.08	819.05	2.1
307.5	0.178	838.92	1.94
307.5	0.245	853.8	1.82
307.5	0.351	878.4	1.63
307.5	0.401	891.53	1.52
307.5	0.49	917.6	1.32
307.5	0.615	960.5	0.97
307.5	0.669	982.16	0.8
307.5	0.749	1018.46	0.8
307.5	0.86	1077.9	1.27
307.5	0.959	1142.39	1.79
307.5	1	1172.08	2.03

System: nitromethane + pentan-1-ol-d; phases: Liquid
Fixed: Pressure, kPa = 101.325
Property: Viscosity, Pa*s (Liquid); method: CAPTUB:UFactor:8
Temperature, K	Mole fraction of nitromethane	Viscosity, Pa*s	uncertainty
301.3	0	0.0031177	0.0001803
301.3	0.106	0.0024654	0.0001449
301.3	0.245	0.0019365	0.0001158
301.3	0.386	0.0014966	9.14e-05
301.3	0.508	0.0011606	7.27e-05
301.3	0.555	0.0010973	6.92e-05
301.3	0.623	0.0010036	6.41e-05
301.3	0.679	0.0009207	5.95e-05
301.3	0.718	0.0008419	5.51e-05
301.3	0.749	0.0007878	5.2e-05
301.3	0.774	0.0007451	4.96e-05
301.3	1	0.0006074	4.19e-05
306.3	0	0.0026851	0.000157
306.3	0.106	0.0021864	0.0001293
306.3	0.245	0.0016784	0.0001014
306.3	0.386	0.0013186	8.15e-05
306.3	0.508	0.0010663	6.74e-05
306.3	0.555	0.0009975	6.37e-05
306.3	0.623	0.0008782	5.71e-05
306.3	0.679	0.0007937	5.25e-05
306.3	0.718	0.000729	4.88e-05
306.3	0.749	0.0006974	4.7e-05
306.3	0.774	0.0006734	4.57e-05
306.3	1	0.0005623	3.94e-05

System: nitromethane + pentan-1-ol-d; phases: Liquid
Fixed: Pressure, kPa = 101.325
Property: Mass density, kg/m3 (Liquid); method: VIBTUB:UFactor:16
Temperature, K	Mole fraction of nitromethane	Mass density, kg/m3	uncertainty
301.3	0	815.63	2.13
301.3	0.07	825.73	2.05
301.3	0.154	839.37	1.94
301.3	0.231	852.09	1.84
301.3	0.298	862.5	1.75
301.3	0.385	879.49	1.62
301.3	0.503	906.93	1.4
301.3	0.551	920.64	1.29
301.3	0.651	954.06	1.02
301.3	0.74	989.43	0.74
301.3	0.847	1037.27	0.95
301.3	0.946	1090.5	1.38
301.3	1	1126.04	1.66
306.3	0	811.88	2.16
306.3	0.07	821.85	2.08
306.3	0.154	835.21	1.97
306.3	0.231	847.81	1.87
306.3	0.298	858.1	1.79
306.3	0.385	873.8	1.66
306.3	0.503	904.01	1.42
306.3	0.551	917.49	1.31
306.3	0.651	950.15	1.05
306.3	0.74	983.56	0.78
306.3	0.847	1031.12	0.9
306.3	0.946	1083.88	1.32
306.3	1	1119.15	1.61
