Measured thermophysical data. Vaporization study of SmI3 and SmI2
Source: J. Chem. Eng. Data, 2005, 10.1021/je050112b
Compound 1: samarium diiodide, I2Sm, InChI=1S/2HI.Sm/h2*1H;/q;;+2/p-2, purity 99.8%
Compound 2: samarium triiodide, I3Sm, InChI=1S/3HI.Sm/h3*1H;/q;;;+3/p-3, purity 99.8%

System: samarium diiodide; phases: Liquid, Gas
Property: Vapor or sublimation pressure, kPa (Liquid); method: TOREFF:UFactor:2
Temperature, K	Vapor or sublimation pressure, kPa	uncertainty
1048	0.00013	2e-05
1051	0.00016	2e-05
1064	0.00021	2e-05
1065	0.00019	2e-05
1068	0.00024	3e-05
1069	0.00024	3e-05
1072	0.00021	3e-05
1074	0.00027	4e-05
1076	0.00027	3e-05
1076	0.00024	3e-05
1078	0.00029	4e-05
1080	0.0004	4e-05
1082	0.00032	5e-05
1085	0.00035	4e-05
1086	0.00035	4e-05
1088	0.00048	5e-05
1089	0.00035	4e-05
1092	0.00043	5e-05
1092	0.00035	4e-05
1093	0.00043	4e-05
1094	0.00043	5e-05
1096	0.00048	6e-05
1098	0.00045	5e-05
1100	0.00045	5e-05
1100	0.00045	5e-05
1101	0.00053	6e-05
1102	0.00075	8e-05
1103	0.00056	7e-05
1104	0.00059	6e-05
1106	0.00056	6e-05
1108	0.00064	7e-05
1108	0.00051	5e-05
1110	0.00061	6e-05
1111	0.00064	7e-05
1113	0.00064	7e-05
1114	0.00077	8e-05
1114	0.00077	8e-05
1118	0.00069	9e-05
1118	0.00075	9e-05
1118	0.00064	8e-05
1120	0.0008	8e-05
1121	0.00117	0.00024
1124	0.00093	0.00012
1124	0.00096	0.00012
1124	0.00085	0.00011
1125	0.00085	0.00011
1126	0.00091	9e-05
1128	0.00139	0.0003
1128	0.00085	9e-05
1129	0.00107	0.00022
1129	0.00096	0.0001
1133	0.00123	0.00026
1133	0.00104	0.00022
1134	0.00107	0.00022
1135	0.00115	0.00027
1136	0.00134	0.00029
1138	0.00112	0.00023
1139	0.00123	0.00027
1140	0.00176	0.00041
1141	0.00128	0.00027
1142	0.00155	0.00034
1142	0.00128	0.00027
1144	0.00144	0.00032
1145	0.0016	0.00035
1145	0.00166	0.00037
1148	0.00144	0.00031
1150	0.0016	0.00037
1150	0.0016	0.00037
1151	0.0016	0.00036
1152	0.00198	0.00046
1153	0.00182	0.00043
1154	0.00203	0.00052
1155	0.00214	0.00052
1158	0.00198	0.00048
1158	0.00192	0.00046
1158	0.00187	0.00045
1159	0.00262	0.00064
1159	0.00203	0.00048
1160	0.0023	0.00055
1161	0.0024	0.00057
1161	0.00219	0.00052
1162	0.00208	0.00048
1162	0.00203	0.00047
1164	0.00262	0.00063
1167	0.00246	0.00062
1168	0.0024	0.0006
1169	0.00278	0.0007
1169	0.00288	0.00073
1170	0.00272	0.00069
1171	0.00347	0.0009
1171	0.00251	0.00063
1171	0.00246	0.00061
1173	0.0031	0.00079
1177	0.00379	0.00099
1177	0.00331	0.00085
1177	0.00288	0.00073
1177	0.00299	0.00076
1178	0.00326	0.00087
1179	0.00358	0.00092
1179	0.00294	0.00073
1179	0.00288	0.00071
1181	0.00368	0.00095
1183	0.00449	0.00121
1185	0.00363	0.00094
1186	0.00401	0.00105
1186	0.00368	0.00095
1186	0.00411	0.00108
1186	0.00326	0.00083
1186	0.0032	0.00081
1187	0.00401	0.00105
1188	0.00427	0.00112
1189	0.00336	0.00085
1189	0.00331	0.00083
1195	0.00443	0.00123
1196	0.00507	0.00146

System: samarium triiodide; phases: Crystal, Gas
Property: Vapor or sublimation pressure, kPa (Crystal); method: TOREFF:UFactor:2
Temperature, K	Vapor or sublimation pressure, kPa	uncertainty
789	0.00017	3e-05
797	0.00024	3e-05
799	0.0002	3e-05
801	0.0002	2e-05
805	0.00034	5e-05
807	0.00029	6e-05
808	0.00025	5e-05
814	0.00051	7e-05
815	0.00034	7e-05
819	0.00051	6e-05
823	0.00071	8e-05
823	0.00047	6e-05
824	0.00064	7e-05
832	0.00067	9e-05
833	0.00088	0.00011
833	0.00101	0.00021
840	0.00111	0.00024
840	0.00098	0.00012
843	0.00145	0.00032
849	0.00148	0.00033
849	0.00135	0.0003
852	0.00212	0.0005
856	0.00189	0.00045
857	0.00168	0.00038
863	0.00236	0.00059
867	0.00236	0.00058
868	0.00276	0.00068
876	0.00307	0.00077
