Measured thermophysical data. Viscosity Measurements on Water Vapor and Their Evaluation
Source: J. Chem. Eng. Data, 2005, 10.1021/je050288d
Compound 1: water, H2O, InChI=1S/H2O/h1H2

System: water; phases: Gas
Property: Viscosity, Pa*s (Gas); method: OSDISK:UFactor:0.25
Mass density, kg/m3	Temperature, K	Viscosity, Pa*s	uncertainty
0.0186	298.3	9.7e-06	9.5e-08
0.0186	310.8	1.0129e-05	9.8e-08
0.0186	331.18	1.0833e-05	1.02e-07
0.0186	338.83	1.1105e-05	1.03e-07
0.0186	352.75	1.1602e-05	1.06e-07
0.0186	367.84	1.2157e-05	1.1e-07
0.0186	380.8	1.2627e-05	1.12e-07
0.0186	394.39	1.3135e-05	1.15e-07
0.0186	408.87	1.3688e-05	1.19e-07
0.0186	423.26	1.4243e-05	1.22e-07
0.0186	438.77	1.4852e-05	1.25e-07
0.0247	298.02	9.675e-06	9.5e-08
0.0247	311.77	1.0151e-05	9.8e-08
0.0247	324.54	1.0597e-05	1.01e-07
0.0247	338.47	1.1084e-05	1.03e-07
0.0247	352.91	1.16e-05	1.06e-07
0.0247	366.37	1.2087e-05	1.09e-07
0.0247	380.42	1.2601e-05	1.12e-07
0.0247	394.72	1.3128e-05	1.15e-07
0.0247	409.76	1.3709e-05	1.19e-07
0.0247	422.75	1.4215e-05	1.22e-07
0.0247	440.41	1.4919e-05	1.26e-07
0.0368	298.08	9.683e-06	9.5e-08
0.0368	310.87	1.0126e-05	9.8e-08
0.0368	325.96	1.0651e-05	1.01e-07
0.0368	338.71	1.1097e-05	1.03e-07
0.0368	353.6	1.1627e-05	1.07e-07
0.0368	368.22	1.2164e-05	1.1e-07
0.0368	382.14	1.2677e-05	1.13e-07
0.0368	396.61	1.3223e-05	1.16e-07
0.0368	411.18	1.3788e-05	1.19e-07
0.0368	423.8	1.4285e-05	1.22e-07
0.0368	438.48	1.4869e-05	1.25e-07
0.0402	297.39	9.665e-06	9.5e-08
0.0402	311.45	1.0146e-05	9.8e-08
0.0402	325	1.0616e-05	1.01e-07
0.0402	339.39	1.1124e-05	1.04e-07
0.0402	352.77	1.1603e-05	1.06e-07
0.0402	367.03	1.2119e-05	1.09e-07
0.0402	381.09	1.2633e-05	1.12e-07
0.0402	395.38	1.316e-05	1.15e-07
0.0402	409.46	1.3693e-05	1.19e-07
0.0402	423.7	1.4257e-05	1.22e-07
0.0402	438.99	1.4857e-05	1.25e-07
0.0668	297.88	9.654e-06	9.5e-08
0.0668	310.96	1.0112e-05	9.8e-08
0.0668	324.45	1.0591e-05	1.01e-07
0.0668	341.28	1.1169e-05	1.04e-07
0.0668	352.17	1.1561e-05	1.06e-07
0.0668	367.1	1.2099e-05	1.09e-07
0.0668	380.59	1.259e-05	1.12e-07
0.0668	394.29	1.3101e-05	1.15e-07
0.0668	408.32	1.3635e-05	1.18e-07
0.0668	422.72	1.4199e-05	1.21e-07
0.0668	438.04	1.4807e-05	1.25e-07
0.0793	299.06	9.709e-06	9.5e-08
0.0793	311.3	1.0127e-05	9.8e-08
0.0793	331.47	1.0837e-05	1.02e-07
0.0793	338.79	1.1079e-05	1.03e-07
0.0793	352.79	1.1588e-05	1.06e-07
0.0793	366.96	1.2106e-05	1.09e-07
0.0793	381.09	1.2628e-05	1.12e-07
0.0793	395.87	1.3189e-05	1.16e-07
0.0793	409.39	1.3704e-05	1.19e-07
0.0793	423.44	1.4251e-05	1.22e-07
0.0793	438.71	1.4858e-05	1.25e-07
0.1081	298.38	9.686e-06	9.5e-08
0.1081	311.39	1.0128e-05	9.8e-08
0.1081	325.42	1.0616e-05	1.01e-07
0.1081	340.17	1.1131e-05	1.04e-07
0.1081	353.16	1.1596e-05	1.06e-07
0.1081	366.77	1.2094e-05	1.09e-07
0.1081	381.33	1.2629e-05	1.12e-07
0.1081	395	1.3144e-05	1.15e-07
0.1081	409.37	1.369e-05	1.19e-07
0.1081	423.62	1.4247e-05	1.22e-07
0.1081	438.05	1.4834e-05	1.25e-07
0.1654	298.17	9.693e-06	9.5e-08
0.1654	311.24	1.0138e-05	9.8e-08
0.1654	324.54	1.0596e-05	1.01e-07
0.1654	352.05	1.1537e-05	1.06e-07
0.1654	366.48	1.2068e-05	1.09e-07
0.1654	380.6	1.2581e-05	1.12e-07
0.1654	393.95	1.3086e-05	1.15e-07
0.1654	408.3	1.365e-05	1.18e-07
0.1654	422.69	1.4215e-05	1.22e-07
0.1654	437.71	1.4827e-05	1.25e-07
0.1973	298.57	9.684e-06	9.5e-08
0.1973	313.01	1.0167e-05	9.8e-08
0.1973	325.15	1.0593e-05	1.01e-07
0.1973	338.02	1.1032e-05	1.03e-07
0.1973	352.03	1.1527e-05	1.06e-07
0.1973	366.29	1.2046e-05	1.09e-07
0.1973	380.43	1.257e-05	1.12e-07
0.1973	394.43	1.3102e-05	1.15e-07
0.1973	408.76	1.3663e-05	1.18e-07
0.1973	422.94	1.4224e-05	1.22e-07
0.1973	437.84	1.4838e-05	1.25e-07
0.2351	300.07	9.725e-06	9.5e-08
0.2351	312.25	1.0145e-05	9.8e-08
0.2351	324.74	1.058e-05	1e-07
0.2351	338.38	1.1048e-05	1.03e-07
0.2351	352.37	1.1543e-05	1.06e-07
0.2351	365.86	1.2029e-05	1.09e-07
0.2351	381.7	1.2619e-05	1.12e-07
0.2351	394.48	1.3107e-05	1.15e-07
0.2351	408.34	1.3647e-05	1.18e-07
0.2351	422.56	1.4213e-05	1.22e-07
0.2351	437.27	1.4825e-05	1.25e-07
