Measured thermophysical data. Surface Tension of Dilute Solutions of Linear Alcohols in Benzyl Alcohol
Source: J. Chem. Eng. Data, 2005, 10.1021/je0500431
Compound 1: propan-1-ol, C3H8O, InChI=1S/C3H8O/c1-2-3-4/h4H,2-3H2,1H3, purity 99%
Compound 2: propan-2-ol, C3H8O, InChI=1S/C3H8O/c1-3(2)4/h3-4H,1-2H3, purity 99%
Compound 3: butan-1-ol, C4H10O, InChI=1S/C4H10O/c1-2-3-4-5/h5H,2-4H2,1H3, purity 99.5%
Compound 4: butan-2-ol, C4H10O, InChI=1S/C4H10O/c1-3-4(2)5/h4-5H,3H2,1-2H3, purity 99.7%
Compound 5: pentan-1-ol, C5H12O, InChI=1S/C5H12O/c1-2-3-4-5-6/h6H,2-5H2,1H3, purity 98%
Compound 6: benzenemethanol, C7H8O, InChI=1S/C7H8O/c8-6-7-4-2-1-3-5-7/h1-5,8H,6H2, purity 99%
Compound 7: pentan-2-ol, C5H12O, InChI=1S/C5H12O/c1-3-4-5(2)6/h5-6H,3-4H2,1-2H3, purity 98%

System: propan-1-ol; phases: Liquid, Gas
Property: Surface tension liquid-gas, N/m (Liquid); method: Ring tensiometer
Temperature, K	Surface tension liquid-gas, N/m	uncertainty
293.15	0.02373	0.00037
298.15	0.0233	0.00037
303.15	0.0229	0.00036
308.15	0.02252	0.00036
313.15	0.0221	0.00035
318.15	0.02168	0.00035
323.15	0.02127	0.00034

System: propan-1-ol; phases: Liquid
Fixed: Pressure, kPa = 101.325
Property: Mass density, kg/m3 (Liquid); method: VIBTUB:UFactor:4
Temperature, K	Mass density, kg/m3	uncertainty
293.15	803.1	0.7
298.15	799.3	0.7
318.15	783.2	0.7

System: propan-2-ol; phases: Liquid, Gas
Property: Surface tension liquid-gas, N/m (Liquid); method: Ring tensiometer
Temperature, K	Surface tension liquid-gas, N/m	uncertainty
293.15	0.0213	0.00034
298.15	0.02095	0.00034
303.15	0.02055	0.00033
308.15	0.0202	0.00033
313.15	0.01983	0.00032
318.15	0.01947	0.00032
323.15	0.01909	0.00031

System: propan-2-ol; phases: Liquid
Fixed: Pressure, kPa = 101.325
Property: Mass density, kg/m3 (Liquid); method: VIBTUB:UFactor:4
Temperature, K	Mass density, kg/m3	uncertainty
293.15	785.1	0.7
298.15	780.9	0.8
318.15	763.3	0.8

System: butan-1-ol; phases: Liquid, Gas
Property: Surface tension liquid-gas, N/m (Liquid); method: Ring tensiometer
Temperature, K	Surface tension liquid-gas, N/m	uncertainty
293.15	0.02416	0.00036
298.15	0.0237	0.00036
303.15	0.02326	0.00035
308.15	0.02278	0.00035
313.15	0.02239	0.00034
318.15	0.02199	0.00034
323.15	0.02153	0.00033

System: butan-1-ol; phases: Liquid
Fixed: Pressure, kPa = 101.325
Property: Mass density, kg/m3 (Liquid); method: VIBTUB:UFactor:4
Temperature, K	Mass density, kg/m3	uncertainty
293.15	810.4	0.6
298.15	806.5	0.6
318.15	790.9	0.6

System: butan-2-ol; phases: Liquid, Gas
Property: Surface tension liquid-gas, N/m (Liquid); method: Ring tensiometer
Temperature, K	Surface tension liquid-gas, N/m	uncertainty
293.15	0.02318	0.00035
298.15	0.02274	0.00034
303.15	0.02238	0.00034
308.15	0.02194	0.00033
313.15	0.02156	0.00033
318.15	0.02111	0.00032
323.15	0.02076	0.00032

System: butan-2-ol; phases: Liquid
Fixed: Pressure, kPa = 101.325
Property: Mass density, kg/m3 (Liquid); method: VIBTUB:UFactor:4
Temperature, K	Mass density, kg/m3	uncertainty
293.15	807.1	0.6
298.15	802.9	0.6
318.15	785.5	0.6

System: pentan-1-ol; phases: Liquid, Gas
Property: Surface tension liquid-gas, N/m (Liquid); method: Ring tensiometer
Temperature, K	Surface tension liquid-gas, N/m	uncertainty
293.15	0.02569	0.00046
298.15	0.02529	0.00045
303.15	0.02486	0.00044
308.15	0.02449	0.00044
313.15	0.02406	0.00043
318.15	0.02367	0.00042
323.15	0.0233	0.00042

System: pentan-1-ol; phases: Liquid
Fixed: Pressure, kPa = 101.325
Property: Mass density, kg/m3 (Liquid); method: VIBTUB:UFactor:4
Temperature, K	Mass density, kg/m3	uncertainty
293.15	815.3	1
298.15	811.6	1
318.15	796.6	1

System: benzenemethanol; phases: Liquid, Gas
Property: Surface tension liquid-gas, N/m (Liquid); method: Ring tensiometer
Temperature, K	Surface tension liquid-gas, N/m	uncertainty
293.15	0.03905	0.00057
298.15	0.03858	0.00056
303.15	0.03812	0.00055
308.15	0.03763	0.00055
313.15	0.03716	0.00054
318.15	0.03663	0.00054
323.15	0.03618	0.00053

System: benzenemethanol; phases: Liquid
Fixed: Pressure, kPa = 101.325
Property: Mass density, kg/m3 (Liquid); method: VIBTUB:UFactor:4
Temperature, K	Mass density, kg/m3	uncertainty
293.15	1045.2	0.6
298.15	1041.4	0.6
318.15	1025.8	0.6

System: pentan-2-ol; phases: Liquid, Gas
Property: Surface tension liquid-gas, N/m (Liquid); method: Ring tensiometer
Temperature, K	Surface tension liquid-gas, N/m	uncertainty
293.15	0.0237	0.00043
298.15	0.02328	0.00042
303.15	0.02287	0.00041
308.15	0.02243	0.00041
313.15	0.02204	0.0004
318.15	0.0216	0.00039
323.15	0.02116	0.00039

System: pentan-2-ol; phases: Liquid
Fixed: Pressure, kPa = 101.325
Property: Mass density, kg/m3 (Liquid); method: VIBTUB:UFactor:4
Temperature, K	Mass density, kg/m3	uncertainty
293.15	809.8	1
298.15	805.7	1
318.15	788.8	1

System: propan-1-ol + benzenemethanol; phases: Liquid, Gas
Property: Surface tension liquid-gas, N/m (Liquid); method: Ring tensiometer
Temperature, K	Mole fraction of propan-1-ol	Surface tension liquid-gas, N/m	uncertainty
293.15	0	0.03905	0.00057
293.15	0.003	0.03757	0.00055
293.15	0.0062	0.03701	0.00054
293.15	0.0077	0.03688	0.00054
293.15	0.0116	0.03675	0.00054
293.15	0.0212	0.03635	0.00053
293.15	0.0326	0.03595	0.00053
293.15	0.0498	0.03562	0.00052
293.15	1	0.02373	0.00037
298.15	0	0.03858	0.00056
298.15	0.003	0.03707	0.00054
298.15	0.0062	0.03662	0.00054
298.15	0.0077	0.03648	0.00053
298.15	0.0116	0.03636	0.00053
298.15	0.0212	0.03598	0.00053
298.15	0.0326	0.0356	0.00052
298.15	0.0498	0.03522	0.00052
298.15	1	0.0233	0.00037
303.15	0	0.03812	0.00055
303.15	0.003	0.0366	0.00054
303.15	0.0062	0.03623	0.00053
303.15	0.0077	0.03612	0.00053
303.15	0.0116	0.036	0.00053
303.15	0.0212	0.03562	0.00052
303.15	0.0326	0.0353	0.00052
303.15	0.0498	0.03486	0.00051
303.15	1	0.0229	0.00036
308.15	0	0.03763	0.00055
308.15	0.003	0.03615	0.00053
308.15	0.0062	0.03584	0.00053
308.15	0.0077	0.03574	0.00052
308.15	0.0116	0.03563	0.00052
308.15	0.0212	0.03523	0.00052
308.15	0.0326	0.03498	0.00051
308.15	0.0498	0.03448	0.00051
308.15	1	0.02252	0.00036
313.15	0	0.03716	0.00054
313.15	0.003	0.03564	0.00052
313.15	0.0062	0.03544	0.00052
313.15	0.0077	0.03536	0.00052
313.15	0.0116	0.0352	0.00052
313.15	0.0212	0.03483	0.00051
313.15	0.0326	0.03467	0.00051
313.15	0.0498	0.03414	0.0005
313.15	1	0.0221	0.00035
318.15	0	0.03663	0.00054
318.15	0.003	0.03519	0.00052
318.15	0.0062	0.03507	0.00052
318.15	0.0077	0.035	0.00052
318.15	0.0116	0.03485	0.00051
318.15	0.0212	0.0345	0.00051
318.15	0.0326	0.03438	0.00051
318.15	0.0498	0.03376	0.0005
318.15	1	0.02168	0.00035
323.15	0	0.03618	0.00053
323.15	0.003	0.03473	0.00051
323.15	0.0062	0.03468	0.00051
323.15	0.0077	0.03464	0.00051
323.15	0.0116	0.03444	0.00051
323.15	0.0212	0.03413	0.0005
323.15	0.0326	0.03403	0.0005
323.15	0.0498	0.03341	0.00049
323.15	1	0.02127	0.00034

System: propan-2-ol + benzenemethanol; phases: Liquid, Gas
Property: Surface tension liquid-gas, N/m (Liquid); method: Ring tensiometer
Temperature, K	Mole fraction of propan-2-ol	Surface tension liquid-gas, N/m	uncertainty
293.15	0	0.03905	0.00057
293.15	0.0029	0.03769	0.00055
293.15	0.005	0.03753	0.00055
293.15	0.0076	0.03721	0.00054
293.15	0.0117	0.03695	0.00054
293.15	0.0207	0.03679	0.00054
293.15	0.0329	0.03656	0.00053
293.15	0.0494	0.03606	0.00053
293.15	1	0.0213	0.00034
298.15	0	0.03858	0.00056
298.15	0.0029	0.0373	0.00054
298.15	0.005	0.03709	0.00054
298.15	0.0076	0.0368	0.00054
298.15	0.0117	0.03653	0.00053
298.15	0.0207	0.03637	0.00053
298.15	0.0329	0.03615	0.00053
298.15	0.0494	0.03553	0.00052
298.15	1	0.02095	0.00034
303.15	0	0.03812	0.00055
303.15	0.0029	0.03695	0.00054
303.15	0.005	0.03668	0.00054
303.15	0.0076	0.03643	0.00053
303.15	0.0117	0.03613	0.00053
303.15	0.0207	0.03597	0.00053
303.15	0.0329	0.03578	0.00052
303.15	0.0494	0.03509	0.00052
303.15	1	0.02055	0.00033
308.15	0	0.03763	0.00055
308.15	0.0029	0.03662	0.00054
308.15	0.005	0.03632	0.00053
308.15	0.0076	0.03605	0.00053
308.15	0.0117	0.03575	0.00052
308.15	0.0207	0.03555	0.00052
308.15	0.0329	0.03541	0.00052
308.15	0.0494	0.03461	0.00051
308.15	1	0.0202	0.00033
313.15	0	0.03716	0.00054
313.15	0.0029	0.03629	0.00053
313.15	0.005	0.03592	0.00053
313.15	0.0076	0.03568	0.00052
313.15	0.0117	0.03539	0.00052
313.15	0.0207	0.03514	0.00052
313.15	0.0329	0.03504	0.00052
313.15	0.0494	0.03411	0.0005
313.15	1	0.01983	0.00032
318.15	0	0.03663	0.00054
318.15	0.0029	0.03589	0.00053
318.15	0.005	0.03548	0.00052
318.15	0.0076	0.03527	0.00052
318.15	0.0117	0.03504	0.00052
318.15	0.0207	0.03473	0.00051
318.15	0.0329	0.03462	0.00051
318.15	0.0494	0.03363	0.0005
318.15	1	0.01947	0.00032
323.15	0	0.03618	0.00053
323.15	0.0029	0.03555	0.00052
323.15	0.005	0.03504	0.00052
323.15	0.0076	0.03492	0.00051
323.15	0.0117	0.03464	0.00051
323.15	0.0207	0.03429	0.00051
323.15	0.0329	0.03422	0.00051
323.15	0.0494	0.03322	0.00049
323.15	1	0.01909	0.00031

System: butan-1-ol + benzenemethanol; phases: Liquid, Gas
Property: Surface tension liquid-gas, N/m (Liquid); method: Ring tensiometer
Temperature, K	Mole fraction of butan-1-ol	Surface tension liquid-gas, N/m	uncertainty
293.15	0	0.03905	0.00057
293.15	0.0034	0.03789	0.00055
293.15	0.0044	0.03767	0.00055
293.15	0.0071	0.03712	0.00054
293.15	0.0117	0.03688	0.00054
293.15	0.0213	0.03662	0.00053
293.15	0.0303	0.03646	0.00053
293.15	0.0492	0.03594	0.00053
293.15	1	0.02416	0.00036
298.15	0	0.03858	0.00056
298.15	0.0034	0.03743	0.00055
298.15	0.0044	0.03723	0.00054
298.15	0.0071	0.03667	0.00054
298.15	0.0117	0.03648	0.00053
298.15	0.0213	0.03617	0.00053
298.15	0.0303	0.03599	0.00053
298.15	0.0492	0.03549	0.00052
298.15	1	0.0237	0.00036
303.15	0	0.03812	0.00055
303.15	0.0034	0.03695	0.00054
303.15	0.0044	0.03679	0.00054
303.15	0.0071	0.03622	0.00053
303.15	0.0117	0.03603	0.00053
303.15	0.0213	0.03568	0.00052
303.15	0.0303	0.03552	0.00052
303.15	0.0492	0.03506	0.00051
303.15	1	0.02326	0.00035
308.15	0	0.03763	0.00055
308.15	0.0034	0.0365	0.00053
308.15	0.0044	0.03636	0.00053
308.15	0.0071	0.03577	0.00052
308.15	0.0117	0.0356	0.00052
308.15	0.0213	0.03518	0.00052
308.15	0.0303	0.03502	0.00051
308.15	0.0492	0.03464	0.00051
308.15	1	0.02278	0.00035
313.15	0	0.03716	0.00054
313.15	0.0034	0.03606	0.00053
313.15	0.0044	0.03593	0.00053
313.15	0.0071	0.03533	0.00052
313.15	0.0117	0.0351	0.00052
313.15	0.0213	0.03474	0.00051
313.15	0.0303	0.03457	0.00051
313.15	0.0492	0.03416	0.0005
313.15	1	0.02239	0.00034
318.15	0	0.03663	0.00054
318.15	0.0034	0.03563	0.00052
318.15	0.0044	0.03551	0.00052
318.15	0.0071	0.03484	0.00051
318.15	0.0117	0.03466	0.00051
318.15	0.0213	0.03427	0.00051
318.15	0.0303	0.03402	0.0005
318.15	0.0492	0.03374	0.0005
318.15	1	0.02199	0.00034
323.15	0	0.03618	0.00053
323.15	0.0034	0.03524	0.00052
323.15	0.0044	0.03508	0.00052
323.15	0.0071	0.03444	0.00051
323.15	0.0117	0.03418	0.0005
323.15	0.0213	0.03384	0.0005
323.15	0.0303	0.03359	0.0005
323.15	0.0492	0.03335	0.00049
323.15	1	0.02153	0.00033

System: butan-2-ol + benzenemethanol; phases: Liquid, Gas
Property: Surface tension liquid-gas, N/m (Liquid); method: Ring tensiometer
Temperature, K	Mole fraction of butan-2-ol	Surface tension liquid-gas, N/m	uncertainty
293.15	0	0.03905	0.00057
293.15	0.0026	0.0375	0.00055
293.15	0.0056	0.03714	0.00054
293.15	0.0078	0.03695	0.00054
293.15	0.0107	0.0364	0.00053
293.15	0.0246	0.03607	0.00053
293.15	0.0366	0.03565	0.00052
293.15	0.0512	0.03532	0.00052
293.15	1	0.02318	0.00035
298.15	0	0.03858	0.00056
298.15	0.0026	0.03708	0.00054
298.15	0.0056	0.03675	0.00054
298.15	0.0078	0.03652	0.00053
298.15	0.0107	0.03605	0.00053
298.15	0.0246	0.03564	0.00052
298.15	0.0366	0.03525	0.00052
298.15	0.0512	0.03488	0.00051
298.15	1	0.02274	0.00034
303.15	0	0.03812	0.00055
303.15	0.0026	0.03663	0.00054
303.15	0.0056	0.03631	0.00053
303.15	0.0078	0.03612	0.00053
303.15	0.0107	0.03572	0.00052
303.15	0.0246	0.03518	0.00052
303.15	0.0366	0.03483	0.00051
303.15	0.0512	0.0344	0.00051
303.15	1	0.02238	0.00034
308.15	0	0.03763	0.00055
308.15	0.0026	0.0362	0.00053
308.15	0.0056	0.03597	0.00053
308.15	0.0078	0.03571	0.00052
308.15	0.0107	0.03539	0.00052
308.15	0.0246	0.03477	0.00051
308.15	0.0366	0.03446	0.00051
308.15	0.0512	0.034	0.0005
308.15	1	0.02194	0.00033
313.15	0	0.03716	0.00054
313.15	0.0026	0.03575	0.00052
313.15	0.0056	0.03555	0.00052
313.15	0.0078	0.03531	0.00052
313.15	0.0107	0.03503	0.00051
313.15	0.0246	0.03437	0.00051
313.15	0.0366	0.03403	0.0005
313.15	0.0512	0.03354	0.00049
313.15	1	0.02156	0.00033
318.15	0	0.03663	0.00054
318.15	0.0026	0.03535	0.00052
318.15	0.0056	0.03517	0.00052
318.15	0.0078	0.0349	0.00051
318.15	0.0107	0.03467	0.00051
318.15	0.0246	0.03395	0.0005
318.15	0.0366	0.03362	0.0005
318.15	0.0512	0.03307	0.00049
318.15	1	0.02111	0.00032
323.15	0	0.03618	0.00053
323.15	0.0026	0.03495	0.00051
323.15	0.0056	0.0348	0.00051
323.15	0.0078	0.03449	0.00051
323.15	0.0107	0.03434	0.00051
323.15	0.0246	0.0335	0.0005
323.15	0.0366	0.03324	0.00049
323.15	0.0512	0.0327	0.00048
323.15	1	0.02076	0.00032

System: pentan-1-ol + benzenemethanol; phases: Liquid, Gas
Property: Surface tension liquid-gas, N/m (Liquid); method: Ring tensiometer
Temperature, K	Mole fraction of pentan-1-ol	Surface tension liquid-gas, N/m	uncertainty
293.15	0	0.03905	0.00057
293.15	0.0037	0.03688	0.00054
293.15	0.0052	0.03673	0.00054
293.15	0.0083	0.03656	0.00054
293.15	0.0117	0.03635	0.00053
293.15	0.0213	0.03593	0.00053
293.15	0.0336	0.03563	0.00053
293.15	0.0536	0.03522	0.00052
293.15	1	0.02569	0.00046
298.15	0	0.03858	0.00056
298.15	0.0037	0.03641	0.00053
298.15	0.0052	0.03634	0.00053
298.15	0.0083	0.03612	0.00053
298.15	0.0117	0.03593	0.00053
298.15	0.0213	0.0355	0.00052
298.15	0.0336	0.03521	0.00052
298.15	0.0536	0.03476	0.00052
298.15	1	0.02529	0.00045
303.15	0	0.03812	0.00055
303.15	0.0037	0.03605	0.00053
303.15	0.0052	0.03592	0.00053
303.15	0.0083	0.03573	0.00052
303.15	0.0117	0.0355	0.00052
303.15	0.0213	0.03505	0.00052
303.15	0.0336	0.03479	0.00051
303.15	0.0536	0.03431	0.00051
303.15	1	0.02486	0.00044
308.15	0	0.03763	0.00055
308.15	0.0037	0.03564	0.00052
308.15	0.0052	0.03551	0.00052
308.15	0.0083	0.03528	0.00052
308.15	0.0117	0.0351	0.00052
308.15	0.0213	0.03464	0.00051
308.15	0.0336	0.03435	0.00051
308.15	0.0536	0.0338	0.0005
308.15	1	0.02449	0.00044
313.15	0	0.03716	0.00054
313.15	0.0037	0.03526	0.00052
313.15	0.0052	0.0351	0.00052
313.15	0.0083	0.03486	0.00051
313.15	0.0117	0.03469	0.00051
313.15	0.0213	0.03424	0.00051
313.15	0.0336	0.03395	0.0005
313.15	0.0536	0.03334	0.0005
313.15	1	0.02406	0.00043
318.15	0	0.03663	0.00054
318.15	0.0037	0.03486	0.00051
318.15	0.0052	0.0347	0.00051
318.15	0.0083	0.03447	0.00051
318.15	0.0117	0.03429	0.00051
318.15	0.0213	0.03382	0.0005
318.15	0.0336	0.03352	0.0005
318.15	0.0536	0.03295	0.00049
318.15	1	0.02367	0.00042
323.15	0	0.03618	0.00053
323.15	0.0037	0.03447	0.00051
323.15	0.0052	0.03431	0.00051
323.15	0.0083	0.03403	0.0005
323.15	0.0117	0.03389	0.0005
323.15	0.0213	0.0334	0.0005
323.15	0.0336	0.03308	0.00049
323.15	0.0536	0.03243	0.00049
323.15	1	0.0233	0.00042

System: benzenemethanol + pentan-2-ol; phases: Liquid, Gas
Property: Surface tension liquid-gas, N/m (Liquid); method: Ring tensiometer
Temperature, K	Mole fraction of pentan-2-ol	Surface tension liquid-gas, N/m	uncertainty
293.15	0	0.03905	0.00057
293.15	0.0026	0.03698	0.00054
293.15	0.0055	0.03671	0.00054
293.15	0.0093	0.03643	0.00053
293.15	0.0129	0.03599	0.00053
293.15	0.0238	0.03572	0.00053
293.15	0.0344	0.03549	0.00052
293.15	0.0542	0.03508	0.00052
293.15	1	0.0237	0.00043
298.15	0	0.03858	0.00056
298.15	0.0026	0.03648	0.00053
298.15	0.0055	0.03622	0.00053
298.15	0.0093	0.03595	0.00053
298.15	0.0129	0.03554	0.00052
298.15	0.0238	0.03532	0.00052
298.15	0.0344	0.03508	0.00052
298.15	0.0542	0.03461	0.00051
298.15	1	0.02328	0.00042
303.15	0	0.03812	0.00055
303.15	0.0026	0.03595	0.00053
303.15	0.0055	0.0357	0.00052
303.15	0.0093	0.03553	0.00052
303.15	0.0129	0.03515	0.00052
303.15	0.0238	0.0349	0.00052
303.15	0.0344	0.03471	0.00051
303.15	0.0542	0.0341	0.00051
303.15	1	0.02287	0.00041
308.15	0	0.03763	0.00055
308.15	0.0026	0.03546	0.00052
308.15	0.0055	0.03518	0.00052
308.15	0.0093	0.035	0.00052
308.15	0.0129	0.03473	0.00051
308.15	0.0238	0.03449	0.00051
308.15	0.0344	0.03432	0.00051
308.15	0.0542	0.03361	0.0005
308.15	1	0.02243	0.00041
313.15	0	0.03716	0.00054
313.15	0.0026	0.03497	0.00051
313.15	0.0055	0.03473	0.00051
313.15	0.0093	0.03454	0.00051
313.15	0.0129	0.03433	0.00051
313.15	0.0238	0.03405	0.0005
313.15	0.0344	0.03393	0.0005
313.15	0.0542	0.0331	0.00049
313.15	1	0.02204	0.0004
318.15	0	0.03663	0.00054
318.15	0.0026	0.03444	0.00051
318.15	0.0055	0.03418	0.00051
318.15	0.0093	0.03407	0.0005
318.15	0.0129	0.03391	0.0005
318.15	0.0238	0.03363	0.0005
318.15	0.0344	0.03349	0.0005
318.15	0.0542	0.03269	0.00049
318.15	1	0.0216	0.00039
323.15	0	0.03618	0.00053
323.15	0.0026	0.03391	0.0005
323.15	0.0055	0.03365	0.0005
323.15	0.0093	0.03356	0.0005
323.15	0.0129	0.03355	0.0005
323.15	0.0238	0.03328	0.00049
323.15	0.0344	0.03311	0.00049
323.15	0.0542	0.03219	0.00048
323.15	1	0.02116	0.00039
