Measured thermophysical data. Measurement of Henry s Law Constants and Infinite Dilution Activity Coefficients of Propyl Mercaptan, Butyl Mercaptan, and Dimethyl Sulfide in Methyldiethanolamine (1) + Water (2) with w1 ) 0.50 Using a Gas Stripping Technique
Source: J. Chem. Eng. Data, 2005, 10.1021/je050268b
Compound 1: N-methyldiethanolamine, C5H13NO2, InChI=1S/C5H13NO2/c1-6(2-4-7)3-5-8/h7-8H,2-5H2,1H3
Compound 2: 1-butanethiol, C4H10S, InChI=1S/C4H10S/c1-2-3-4-5/h5H,2-4H2,1H3
Compound 3: 1-propanethiol, C3H8S, InChI=1S/C3H8S/c1-2-3-4/h4H,2-3H2,1H3
Compound 4: 2-thiapropane, C2H6S, InChI=1S/C2H6S/c1-3-2/h1-2H3
Compound 5: water, H2O, InChI=1S/H2O/h1H2

System: 1-propanethiol + water; phases: Liquid, Gas
Fixed: Mole fraction of 1-propanethiol = 0
Property: Henry's Law constant (mole fraction scale), kPa of 1-propanethiol (Liquid); method: Chromatography
Temperature, K	Henry's Law constant (mole fraction scale), kPa of 1-propanethiol	uncertainty
293.2	23900	2400
303.1	46800	4700
333.1	93900	9400

System: 1-butanethiol + water; phases: Liquid, Gas
Fixed: Mole fraction of 1-butanethiol = 0
Property: Henry's Law constant (mole fraction scale), kPa of 1-butanethiol (Liquid); method: Chromatography
Temperature, K	Henry's Law constant (mole fraction scale), kPa of 1-butanethiol	uncertainty
292.8	29300	2900
312.8	70100	7000
332.8	125700	12600

System: 2-thiapropane + water; phases: Liquid, Gas
Fixed: Mole fraction of 2-thiapropane = 0
Property: Henry's Law constant (mole fraction scale), kPa of 2-thiapropane (Liquid); method: Chromatography
Temperature, K	Henry's Law constant (mole fraction scale), kPa of 2-thiapropane	uncertainty
292.6	8400	2000
302.7	13000	2000
312.5	18800	2000
332.8	37100	3700

System: N-methyldiethanolamine + 1-propanethiol + water; phases: Liquid, Gas
Fixed: Mole fraction of 1-propanethiol = 0
Fixed: Solvent: Mole fraction of N-methyldiethanolamine = 0.5
Property: Henry's Law constant (mole fraction scale), kPa of 1-propanethiol (Liquid); method: Chromatography
Temperature, K	Henry's Law constant (mole fraction scale), kPa of 1-propanethiol	uncertainty
293.1	3100	2000
298	3900	2000
303.1	4300	2000
312.9	4900	2000
323.1	5600	2000
333.1	8300	2000
343.1	10200	2000
353.1	13100	2000

System: N-methyldiethanolamine + 1-butanethiol + water; phases: Liquid, Gas
Fixed: Mole fraction of 1-butanethiol = 0
Fixed: Solvent: Mole fraction of N-methyldiethanolamine = 0.5
Property: Henry's Law constant (mole fraction scale), kPa of 1-butanethiol (Liquid); method: Chromatography
Temperature, K	Henry's Law constant (mole fraction scale), kPa of 1-butanethiol	uncertainty
292.8	1800	2000
302.6	3200	2000
312.7	3100	2000
322.9	4700	2000
332.4	7200	2000
342.8	9300	2000

System: 2-thiapropane + N-methyldiethanolamine + water; phases: Liquid, Gas
Fixed: Mole fraction of 2-thiapropane = 0
Fixed: Solvent: Mole fraction of N-methyldiethanolamine = 0.5
Property: Henry's Law constant (mole fraction scale), kPa of 2-thiapropane (Liquid); method: Chromatography
Temperature, K	Henry's Law constant (mole fraction scale), kPa of 2-thiapropane	uncertainty
293.2	4600	2000
302.7	5600	2000
312.7	7100	2000
322.7	9400	2000
332.6	11600	2000
342.7	14800	2000
