Measured thermophysical data. Densities and Derived Thermodynamic Properties of Ionic Liquids. 3. Phosphonium-Based Ionic Liquids over an Extended Pressure Range
Source: J. Chem. Eng. Data, 2006, 10.1021/je050358g
Compound 1: trihexyl(tetradecyl)phosphonium chloride, C32H68ClP, InChI=1S/C32H68P.ClH/c1-5-9-13-17-18-19-20-21-22-23-24-28-32-33(29-25-14-10-6-2,30-26-15-11-7-3)31-27-16-12-8-4;/h5-32H2,1-4H3;1H/q+1;/p-1
Compound 2: trihexyl(tetradecyl)phosphonium acetate, C34H71O2P, InChI=1S/C32H68P.C2H4O2/c1-5-9-13-17-18-19-20-21-22-23-24-28-32-33(29-25-14-10-6-2,30-26-15-11-7-3)31-27-16-12-8-4;1-2(3)4/h5-32H2,1-4H3;1H3,(H,3,4)/q+1;/p-1
Compound 3: trihexyl(tetradecyl)phosphonium bis[(trifluoromethyl)sulfonyl]imide, C34H68F6NO4PS2, InChI=1S/C32H68P.C2F6NO4S2/c1-5-9-13-17-18-19-20-21-22-23-24-28-32-33(29-25-14-10-6-2,30-26-15-11-7-3)31-27-16-12-8-4;3-1(4,5)14(10,11)9-15(12,13)2(6,7)8/h5-32H2,1-4H3;/q+1;-1

System: trihexyl(tetradecyl)phosphonium chloride; phases: Liquid
Property: Mass density, kg/m3 (Liquid); method: VIBTUB:mpoint
Temperature, K	Pressure, kPa	Mass density, kg/m3	uncertainty
298.13	190	891.62	2.35
298.13	1000	892.02	2.35
298.13	3000	893.07	2.35
298.13	5010	894.09	2.35
298.13	7500	895.36	2.36
298.13	10000	896.59	2.36
298.13	15010	899.02	2.37
298.13	19990	901.33	2.37
298.13	25010	903.6	2.38
298.13	29990	905.77	2.39
298.13	35010	907.93	2.39
298.13	39990	910.01	2.4
298.13	45010	912.05	2.41
298.13	50000	914.03	2.41
298.13	55000	915.93	2.42
298.13	59990	917.83	2.43
298.13	65000	919.63	2.43
303.15	190	888.51	2.34
303.15	1000	888.97	2.34
303.15	3000	890.03	2.34
303.15	5010	891.06	2.35
303.15	7500	892.35	2.35
303.15	10000	893.6	2.35
303.15	15010	896.1	2.36
303.15	19990	898.48	2.37
303.15	25010	900.78	2.37
303.15	29990	903.01	2.38
303.15	35010	905.17	2.39
303.15	39990	907.28	2.39
303.15	45010	909.34	2.4
303.15	50000	911.34	2.41
303.15	55000	913.27	2.41
303.15	59990	915.17	2.42
303.15	65000	916.99	2.42
308.13	190	885.65	2.33
308.13	1000	886.07	2.33
308.13	3000	887.18	2.34
308.13	5010	888.26	2.34
308.13	7500	889.57	2.34
308.13	10000	890.87	2.35
308.13	15010	893.38	2.35
308.13	19990	895.82	2.36
308.13	25010	898.17	2.37
308.13	29990	900.42	2.37
308.13	35010	902.63	2.38
308.13	39990	904.75	2.39
308.13	45010	906.82	2.39
308.13	50000	908.83	2.4
308.13	55000	910.78	2.41
308.13	59990	912.67	2.41
308.13	65000	914.51	2.42
313.15	190	882.72	2.32
313.15	1000	883.19	2.33
313.15	3000	884.3	2.33
313.15	5010	885.4	2.33
313.15	7500	886.75	2.34
313.15	10000	888.06	2.34
313.15	15010	890.63	2.35
313.15	19990	893.11	2.35
313.15	25010	895.49	2.36
313.15	29990	897.81	2.37
313.15	35010	900.04	2.37
313.15	39990	902.21	2.38
313.15	45010	904.32	2.39
313.15	50000	906.35	2.39
313.15	55000	908.34	2.4
318.15	190	879.82	2.32
318.15	1000	880.27	2.32
318.15	3000	881.41	2.32
318.15	5010	882.52	2.32
318.15	7500	883.89	2.33
318.15	10000	885.24	2.33
318.15	15010	887.86	2.34
318.15	19990	890.37	2.35
318.15	25010	892.81	2.35
318.15	29990	895.15	2.36
318.15	35010	897.43	2.37
318.15	39990	899.63	2.37
318.15	45010	901.78	2.38
318.15	50000	903.87	2.39
318.15	55000	905.9	2.39
318.15	59990	907.87	2.4
318.15	65000	909.78	2.41
323.14	190	876.69	2.31
323.14	1000	877.16	2.31
323.14	3000	878.29	2.31
323.14	5010	879.43	2.32
323.14	7500	880.82	2.32
323.14	10000	882.18	2.32
323.14	15010	884.84	2.33
323.14	19990	887.38	2.34
323.14	25010	889.86	2.35
323.14	29990	892.24	2.35
323.14	35010	894.57	2.36
323.14	39990	896.82	2.37
323.14	45010	899.01	2.37
323.14	50000	901.13	2.38
323.14	55000	903.19	2.39
323.14	59990	905.21	2.39
323.14	65000	907.16	2.4
328.16	190	873.88	2.3
328.16	1000	874.33	2.3
328.16	3000	875.5	2.31
328.16	5010	876.64	2.31
328.16	7500	878.05	2.31
328.16	10000	879.42	2.32
328.16	15010	882.11	2.32
328.16	19990	884.69	2.33
328.16	25010	887.2	2.34
328.16	29990	889.62	2.35
328.16	35010	891.98	2.35
328.16	39990	894.24	2.36
328.16	45010	896.49	2.37
328.16	50000	898.62	2.37
328.16	55000	900.74	2.38
328.16	59990	902.79	2.39
328.16	65000	904.8	2.39
333.14	190	870.88	2.29
333.14	1000	871.36	2.29
333.14	3000	872.51	2.3
333.14	5010	873.64	2.3
333.14	7500	875.05	2.3
333.14	10000	876.42	2.31
333.14	15010	879.11	2.32
333.14	19990	881.72	2.32
333.14	25010	884.25	2.33
333.14	29990	886.71	2.34
333.14	35010	889.11	2.34
333.14	39990	891.46	2.35
333.14	45010	893.73	2.36
333.14	50000	895.96	2.37
333.14	55000	898.14	2.37
333.14	59990	900.26	2.38
333.14	65000	902.35	2.39

System: trihexyl(tetradecyl)phosphonium acetate; phases: Liquid
Property: Mass density, kg/m3 (Liquid); method: VIBTUB:mpoint
Temperature, K	Pressure, kPa	Mass density, kg/m3	uncertainty
298.15	210	890.6	2.34
298.15	540	890.77	2.35
298.15	1000	891.01	2.35
298.15	3000	892.04	2.35
298.15	5010	893.09	2.35
298.15	7500	894.35	2.36
298.15	9990	895.56	2.36
298.15	15010	897.96	2.37
298.15	19990	900.29	2.37
298.15	25010	902.57	2.38
298.15	29990	904.74	2.39
298.15	35010	906.9	2.39
298.15	40020	908.99	2.4
298.15	45010	911.02	2.4
298.15	49990	912.98	2.41
298.15	55000	914.91	2.42
298.15	59990	916.81	2.42
298.15	65010	918.66	2.43
303.15	210	887.54	2.34
303.15	540	887.71	2.34
303.15	1000	887.96	2.34
303.15	3000	889.03	2.34
303.15	5010	890.08	2.34
303.15	7500	891.38	2.35
303.15	9990	892.64	2.35
303.15	15010	895.15	2.36
303.15	19990	897.52	2.36
303.15	25010	899.86	2.37
303.15	29990	902.08	2.38
303.15	35010	904.28	2.38
303.15	40020	906.41	2.39
303.15	45010	908.45	2.4
303.15	49990	910.44	2.4
303.15	55000	912.4	2.41
303.15	59990	914.31	2.42
303.15	65010	916.16	2.42
307.97	210	884.7	2.33
307.97	540	884.86	2.33
307.97	1000	885.13	2.33
307.97	3000	886.22	2.33
307.97	5010	887.29	2.34
307.97	7500	888.6	2.34
307.97	9990	889.9	2.34
307.97	15010	892.45	2.35
307.97	19990	894.88	2.36
307.97	25010	897.23	2.36
307.97	29990	899.51	2.37
307.97	35010	901.72	2.38
307.97	40020	903.88	2.38
307.97	45010	905.95	2.39
307.97	49990	907.95	2.4
307.97	55000	909.92	2.4
307.97	59990	911.84	2.41
307.97	65010	913.69	2.42
313.07	210	881.57	2.32
313.07	540	881.77	2.32
313.07	1000	882.02	2.32
313.07	3000	883.14	2.33
313.07	5010	884.26	2.33
313.07	7500	885.61	2.33
313.07	9990	886.96	2.34
313.07	15010	889.57	2.34
313.07	19990	892.06	2.35
313.07	25010	894.49	2.36
313.07	29990	896.77	2.36
313.07	35010	899.05	2.37
313.07	40020	901.21	2.38
313.07	45010	903.32	2.38
313.07	49990	905.38	2.39
313.07	55000	907.36	2.4
313.07	59990	909.27	2.4
313.07	65010	911.16	2.41
317.74	210	878.87	2.31
317.74	540	879.06	2.31
317.74	1000	879.32	2.31
317.74	3000	880.46	2.32
317.74	5010	881.6	2.32
317.74	7500	882.99	2.33
317.74	9990	884.32	2.33
317.74	15010	886.95	2.34
317.74	19990	889.47	2.34
317.74	25010	891.91	2.35
317.74	29990	894.26	2.36
317.74	35010	896.54	2.36
317.74	40020	898.76	2.37
317.74	45010	900.88	2.38
317.74	49990	902.96	2.38
317.74	55000	904.98	2.39
317.74	59990	906.93	2.4
317.74	65010	908.84	2.4
323.96	210	875.25	2.3
323.96	540	875.43	2.3
323.96	1000	875.7	2.31
323.96	3000	876.87	2.31
323.96	5010	878	2.31
323.96	7500	879.4	2.32
323.96	9990	880.77	2.32
323.96	15010	883.42	2.33
323.96	19990	885.99	2.33
323.96	25010	888.48	2.34
323.96	29990	890.86	2.35
323.96	35010	893.19	2.36
323.96	40020	895.47	2.36
323.96	45010	897.65	2.37
323.96	49990	899.78	2.38
323.96	55000	901.85	2.38
323.96	59990	903.86	2.39
323.96	65010	905.84	2.39
329.14	210	872.15	2.3
329.14	540	872.35	2.3
329.14	1000	872.61	2.3
329.14	3000	873.78	2.3
329.14	5010	874.92	2.3
329.14	7500	876.33	2.31
329.14	9990	877.71	2.31
329.14	15010	880.41	2.32
329.14	19990	883	2.33
329.14	25010	885.53	2.33
329.14	29990	887.95	2.34
329.14	35010	890.32	2.35
329.14	40020	892.64	2.35
329.14	45010	894.88	2.36
329.14	49990	897.06	2.37
329.14	55000	899.19	2.37
329.14	59990	901.27	2.38
329.14	65010	903.3	2.39
334.11	210	869.21	2.29
334.11	540	869.41	2.29
334.11	1000	869.67	2.29
334.11	3000	870.81	2.29
334.11	5010	871.98	2.3
334.11	7500	873.42	2.3
334.11	9990	874.78	2.3
334.11	15010	877.5	2.31
334.11	19990	880.11	2.32
334.11	25010	882.67	2.33
334.11	29990	885.12	2.33
334.11	35010	887.57	2.34
334.11	40020	889.93	2.35
334.11	45010	892.22	2.35
334.11	49990	894.45	2.36
334.11	55000	896.66	2.37
334.11	59990	898.81	2.38
334.11	65010	900.91	2.38

System: trihexyl(tetradecyl)phosphonium bis[(trifluoromethyl)sulfonyl]imide; phases: Liquid
Property: Mass density, kg/m3 (Liquid); method: VIBTUB:mpoint
Temperature, K	Pressure, kPa	Mass density, kg/m3	uncertainty
298.15	210	1066.62	2.81
298.15	540	1066.84	2.81
298.15	1000	1067.13	2.81
298.15	3000	1068.44	2.81
298.15	5010	1069.7	2.82
298.15	7500	1071.3	2.82
298.15	9990	1072.85	2.82
298.15	15010	1075.88	2.83
298.15	19990	1078.82	2.84
298.15	25010	1081.69	2.85
298.15	29990	1084.45	2.86
298.15	35010	1087.15	2.87
298.15	40000	1089.79	2.87
298.15	45010	1092.36	2.88
298.15	50000	1094.88	2.89
298.15	55010	1097.34	2.89
298.15	59990	1099.74	2.9
298.15	65010	1102.11	2.91
303.25	210	1062.61	2.8
303.25	540	1062.85	2.8
303.25	1000	1063.14	2.8
303.25	3000	1064.47	2.8
303.25	5010	1065.77	2.81
303.25	7500	1067.39	2.81
303.25	9990	1068.97	2.81
303.25	15010	1072.09	2.82
303.25	19990	1075.07	2.83
303.25	25010	1078	2.84
303.25	29990	1080.84	2.85
303.25	35010	1083.56	2.86
303.25	40000	1086.26	2.86
303.25	45010	1088.87	2.87
303.25	50000	1091.44	2.88
303.25	55010	1093.95	2.89
303.25	59990	1096.39	2.89
303.25	65010	1098.81	2.9
308.15	210	1058.87	2.79
308.15	540	1059.07	2.79
308.15	1000	1059.37	2.79
308.15	3000	1060.76	2.79
308.15	5010	1062.11	2.8
308.15	7500	1063.74	2.8
308.15	9990	1065.36	2.81
308.15	15010	1068.53	2.81
308.15	19990	1071.57	2.82
308.15	25010	1074.54	2.83
308.15	29990	1077.42	2.84
308.15	35010	1080.23	2.85
308.15	40000	1082.95	2.85
308.15	45010	1085.64	2.86
308.15	50000	1088.25	2.87
308.15	55010	1090.8	2.88
308.15	59990	1093.3	2.89
308.15	65010	1095.75	2.89
318.27	210	1051.54	2.77
318.27	540	1051.79	2.77
318.27	1000	1052.1	2.77
318.27	3000	1053.49	2.77
318.27	5010	1054.88	2.78
318.27	7500	1056.54	2.78
318.27	9990	1058.2	2.79
318.27	15010	1061.47	2.8
318.27	19990	1064.6	2.8
318.27	25010	1067.62	2.81
318.27	29990	1070.51	2.82
318.27	35010	1073.32	2.83
318.27	40000	1076.09	2.84
318.27	45010	1078.77	2.84
318.27	50000	1081.37	2.85
318.27	55010	1084	2.86
318.27	59990	1086.5	2.87
318.27	65010	1088.91	2.87
323.33	210	1047.84	2.76
323.33	540	1048.07	2.76
323.33	1000	1048.38	2.76
323.33	3000	1049.81	2.76
323.33	5010	1051.24	2.77
323.33	7500	1052.94	2.77
323.33	9990	1054.64	2.78
323.33	15010	1057.95	2.79
323.33	19990	1061.14	2.79
323.33	25010	1064.22	2.8
323.33	29990	1067.21	2.81
323.33	35010	1070.14	2.82
323.33	40000	1072.99	2.83
323.33	45010	1075.75	2.84
323.33	50000	1078.47	2.84
323.33	55010	1081.14	2.85
323.33	59990	1083.74	2.86
323.33	65010	1086.3	2.87
328.39	210	1044.49	2.75
328.39	540	1044.74	2.75
328.39	1000	1045.08	2.75
328.39	3000	1046.53	2.75
328.39	5010	1047.96	2.76
328.39	7500	1049.68	2.76
328.39	9990	1051.4	2.77
328.39	15010	1054.74	2.78
328.39	19990	1057.9	2.79
328.39	25010	1061.01	2.8
328.39	29990	1064.03	2.8
328.39	35010	1066.99	2.81
328.39	40000	1069.88	2.82
328.39	45010	1072.64	2.83
328.39	50000	1075.39	2.84
328.39	55010	1078.08	2.84
328.39	59990	1080.67	2.85
328.39	65010	1083.24	2.86
333.43	210	1041.15	2.74
333.43	540	1041.43	2.74
333.43	1000	1041.76	2.74
333.43	3000	1043.19	2.75
333.43	5010	1044.61	2.75
333.43	7500	1046.4	2.75
333.43	9990	1048.13	2.76
333.43	15010	1051.51	2.77
333.43	19990	1054.8	2.78
333.43	25010	1057.94	2.79
333.43	29990	1060.97	2.8
333.43	35010	1063.96	2.8
333.43	40000	1066.84	2.81
333.43	45010	1069.67	2.82
333.43	50000	1072.43	2.83
333.43	55010	1075.17	2.84
333.43	59990	1077.73	2.84
333.43	65010	1080.29	2.85
