Measured thermophysical data. Viscosities and Excess Molar Volumes of the Ternary System Toluene (1) + Cyclohexane (2) + Pentane (3) at 298.15 K
Source: J. Chem. Eng. Data, 2005, 10.1021/je0501944
Compound 1: toluene, C7H8, InChI=1S/C7H8/c1-7-5-3-2-4-6-7/h2-6H,1H3
Compound 2: cyclohexane, C6H12, InChI=1S/C6H12/c1-2-4-6-5-3-1/h1-6H2
Compound 3: pentane, C5H12, InChI=1S/C5H12/c1-3-5-4-2/h3-5H2,1-2H3

System: toluene; phases: Liquid
Property: Mass density, kg/m3 (Liquid); method: VIBTUB:UFactor:4
Temperature, K	Pressure, kPa	Mass density, kg/m3	uncertainty
298.15	101.325	862.19	0.62

System: toluene; phases: Liquid
Property: Viscosity, Pa*s (Liquid); method: Capillary tube (Ostwald; Ubbelohde) method
Temperature, K	Pressure, kPa	Viscosity, Pa*s	uncertainty
298.15	101.325	0.000552	6e-06

System: cyclohexane; phases: Liquid
Property: Mass density, kg/m3 (Liquid); method: VIBTUB:UFactor:2
Temperature, K	Pressure, kPa	Mass density, kg/m3	uncertainty
298.15	101.325	773.93	0.37

System: cyclohexane; phases: Liquid
Property: Viscosity, Pa*s (Liquid); method: Capillary tube (Ostwald; Ubbelohde) method
Temperature, K	Pressure, kPa	Viscosity, Pa*s	uncertainty
298.15	101.325	0.000894	7e-06

System: pentane; phases: Liquid
Property: Mass density, kg/m3 (Liquid); method: VIBTUB:UFactor:4
Temperature, K	Pressure, kPa	Mass density, kg/m3	uncertainty
298.15	101.325	621.32	0.99

System: pentane; phases: Liquid
Property: Viscosity, Pa*s (Liquid); method: Capillary tube (Ostwald; Ubbelohde) method
Temperature, K	Pressure, kPa	Viscosity, Pa*s	uncertainty
298.15	101.325	0.000219	5e-06

System: toluene + cyclohexane; phases: Liquid
Fixed: Temperature, K = 298.15
Fixed: Pressure, kPa = 101
Property: Viscosity, Pa*s (Liquid); method: Capillary tube (Ostwald; Ubbelohde) method
Mole fraction of toluene	Viscosity, Pa*s	uncertainty
0.0407	0.0008158	7.3e-06
0.2018	0.0007133	6.6e-06
0.2798	0.0006687	6.3e-06
0.3613	0.0006305	6e-06
0.4416	0.0006081	5.8e-06
0.6003	0.000566	5.6e-06
0.6784	0.0005534	5.5e-06
0.7615	0.0005429	5.5e-06
0.8396	0.0005395	5.5e-06
0.9202	0.0005393	5.5e-06

System: toluene + cyclohexane; phases: Liquid
Fixed: Temperature, K = 298.15
Fixed: Pressure, kPa = 101
Property: Mass density, kg/m3 (Liquid); method: VIBTUB:UFactor:2
Mole fraction of toluene	Mass density, kg/m3	uncertainty
0.0407	776.48	0.37
0.2018	788.44	0.38
0.2798	794.63	0.39
0.3613	801.33	0.4
0.4416	808.17	0.41
0.6003	822.4	0.42
0.6784	829.75	0.44
0.7615	837.82	0.45
0.8396	845.63	0.46
0.9202	853.94	0.47

System: toluene + pentane; phases: Liquid
Fixed: Temperature, K = 298.15
Fixed: Pressure, kPa = 101
Property: Viscosity, Pa*s (Liquid); method: Capillary tube (Ostwald; Ubbelohde) method
Mole fraction of toluene	Viscosity, Pa*s	uncertainty
0.0415	0.0002029	2.6e-06
0.2011	0.0002231	2.8e-06
0.2799	0.0002386	2.9e-06
0.3647	0.0002592	3.1e-06
0.4341	0.0002786	3.3e-06
0.6011	0.0003367	3.8e-06
0.6821	0.0003688	4.1e-06
0.7502	0.0003999	4.4e-06
0.8213	0.0004371	4.7e-06
0.9137	0.0004891	5.1e-06

System: toluene + pentane; phases: Liquid
Fixed: Temperature, K = 298.15
Fixed: Pressure, kPa = 101
Property: Mass density, kg/m3 (Liquid); method: VIBTUB:UFactor:2
Mole fraction of toluene	Mass density, kg/m3	uncertainty
0.0415	630.69	0.55
0.2011	668.27	0.54
0.2799	687.21	0.53
0.3647	707.61	0.53
0.4341	724.3	0.52
0.6011	764.45	0.51
0.6821	783.95	0.5
0.7502	800.32	0.5
0.8213	817.43	0.49
0.9137	840.19	0.49

System: pentane + cyclohexane; phases: Liquid
Fixed: Temperature, K = 298.15
Fixed: Pressure, kPa = 101
Property: Viscosity, Pa*s (Liquid); method: Capillary tube (Ostwald; Ubbelohde) method
Mole fraction of cyclohexane	Viscosity, Pa*s	uncertainty
0.0437	0.0002065	2.5e-06
0.2145	0.0002555	2.9e-06
0.2955	0.0002828	3.1e-06
0.3753	0.0003128	3.4e-06
0.4595	0.0003503	3.7e-06
0.6125	0.0004425	4.6e-06
0.7048	0.0005146	5.2e-06
0.7791	0.0005847	5.9e-06
0.8514	0.0006591	6.6e-06
0.9254	0.0007641	7.6e-06

System: pentane + cyclohexane; phases: Liquid
Fixed: Temperature, K = 298.15
Fixed: Pressure, kPa = 101
Property: Mass density, kg/m3 (Liquid); method: VIBTUB:UFactor:2
Mole fraction of cyclohexane	Mass density, kg/m3	uncertainty
0.0437	627.56	0.49
0.2145	653.09	0.48
0.2955	665.44	0.47
0.3753	677.59	0.47
0.4595	690.43	0.47
0.6125	713.75	0.47
0.7048	727.81	0.48
0.7791	739.14	0.48
0.8514	750.15	0.49
0.9254	761.85	0.49

System: toluene + pentane + cyclohexane; phases: Liquid
Fixed: Temperature, K = 298.15
Fixed: Pressure, kPa = 101
Property: Viscosity, Pa*s (Liquid); method: CAPTUB:UFactor:2
Mole fraction of toluene	Mole fraction of cyclohexane	Viscosity, Pa*s	uncertainty
0.0102	0.0318	0.0002068	5e-06
0.0197	0.0211	0.0002173	5.2e-06
0.0301	0.0325	0.0002045	5e-06
0.0397	0.1309	0.0002403	5.5e-06
0.0662	0.2187	0.0002763	6e-06
0.0859	0.2812	0.0002965	6.3e-06
0.098	0.1075	0.0002391	5.5e-06
0.1053	0.3445	0.000342	7e-06
0.1365	0.1497	0.0002663	5.9e-06
0.1426	0.4665	0.0004271	8.2e-06
0.1607	0.5257	0.0004834	9e-06
0.1759	0.1929	0.0002926	6.2e-06
0.1793	0.5866	0.0005421	9.8e-06
0.1962	0.0693	0.0002379	5.5e-06
0.199	0.6509	0.0006164	1.09e-05
0.2138	0.2288	0.0003098	6.5e-06
0.216	0.7067	0.000667	1.16e-05
0.2732	0.0965	0.0002746	6e-06
0.291	0.3114	0.0003906	7.7e-06
0.3284	0.1159	0.0003001	6.4e-06
0.3297	0.3528	0.0004351	8.3e-06
0.3693	0.3952	0.0004912	9.1e-06
0.399	0.1409	0.000333	6.9e-06
0.4066	0.4352	0.0005527	1e-05
0.4455	0.4768	0.0006006	1.07e-05
0.4494	0.1587	0.0003624	7.3e-06
0.5442	0.1921	0.0004296	8.3e-06
0.6154	0.2173	0.000479	9e-06
0.6683	0.236	0.0005181	9.6e-06
0.6943	0.2451	0.0005357	9.8e-06

System: toluene + pentane + cyclohexane; phases: Liquid
Fixed: Temperature, K = 298.15
Fixed: Pressure, kPa = 101
Property: Mass density, kg/m3 (Liquid); method: VIBTUB:UFactor:2
Mole fraction of toluene	Mole fraction of cyclohexane	Mass density, kg/m3	uncertainty
0.0102	0.0318	628.21	0.55
0.0197	0.0211	628.78	0.55
0.0301	0.0325	633.2	0.55
0.0397	0.1309	649.71	0.53
0.0662	0.2187	669.29	0.51
0.0859	0.2812	683.24	0.5
0.098	0.1075	659.75	0.53
0.1053	0.3445	697.27	0.49
0.1365	0.1497	675.2	0.52
0.1426	0.4665	724.4	0.46
0.1607	0.5257	737.45	0.45
0.1759	0.1929	691.04	0.51
0.1793	0.5866	750.96	0.43
0.1962	0.0693	677.23	0.53
0.199	0.6509	765.21	0.42
0.2138	0.2288	705.11	0.5
0.216	0.7067	777.59	0.4
0.2732	0.0965	699.76	0.52
0.291	0.3114	735.59	0.48
0.3284	0.1159	715.85	0.51
0.3297	0.3528	750.86	0.47
0.3693	0.3952	766.49	0.46
0.399	0.1409	736.44	0.5
0.4066	0.4352	781.24	0.45
0.4455	0.4768	796.58	0.44
0.4494	0.1587	751.2	0.5
0.5442	0.1921	778.77	0.48
0.6154	0.2173	799.55	0.47
0.6683	0.236	814.98	0.46
0.6943	0.2451	822.54	0.46
