Measured thermophysical data. Experimental Measurement and Correlation of Solubility of Pentachloropyridine and Tetrachloropyridine in Methanol, Ethanol, and 2-Propanol
Source: J. Chem. Eng. Data, 2006, 10.1021/je0502804
Compound 1: pentachloropyridine, C5Cl5N, InChI=1S/C5Cl5N/c6-1-2(7)4(9)11-5(10)3(1)8, purity 90%
Compound 2: 2,3,5,6-tetrachloropyridine, C5HCl4N, InChI=1S/C5HCl4N/c6-2-1-3(7)5(9)10-4(2)8/h1H, purity 95%
Compound 3: methanol, CH4O, InChI=1S/CH4O/c1-2/h2H,1H3, purity 99.5%
Compound 4: ethanol, C2H6O, InChI=1S/C2H6O/c1-2-3/h3H,2H2,1H3, purity 99.5%
Compound 5: propan-2-ol, C3H8O, InChI=1S/C3H8O/c1-3(2)4/h3-4H,1-2H3, purity 99.5%

System: pentachloropyridine; phases: Crystal, Liquid, Air at 1 atmosphere
Property: Normal melting temperature, K (Crystal); method: VISOBS:FP
Normal melting temperature, K	uncertainty
397.15	0.5

System: 2,3,5,6-tetrachloropyridine; phases: Crystal, Liquid, Air at 1 atmosphere
Property: Normal melting temperature, K (Crystal); method: VISOBS:FP
Normal melting temperature, K	uncertainty
363.15	0.5

System: methanol + pentachloropyridine; phases: Liquid, Crystal
Fixed: Pressure, kPa = 101.3
Property: Mole fraction of pentachloropyridine (Liquid); method: Chromatography
Temperature, K	Mole fraction of pentachloropyridine	uncertainty
299.35	0.000488	5e-05
302.05	0.000566	5.7e-05
305.25	0.000661	6.7e-05
308.05	0.000704	7.1e-05
311.05	0.00076	7.7e-05
314.15	0.000876	8.9e-05
317.15	0.001029	0.000104
320.35	0.001184	0.00012
322.95	0.0013	0.000132
326.55	0.001602	0.000163
329.55	0.001825	0.000185
332.15	0.00204	0.000207

System: ethanol + pentachloropyridine; phases: Liquid, Crystal
Fixed: Pressure, kPa = 101.3
Property: Mole fraction of pentachloropyridine (Liquid); method: Chromatography
Temperature, K	Mole fraction of pentachloropyridine	uncertainty
297.15	0.000811	8.2e-05
302.95	0.001016	0.000102
308.35	0.001333	0.000134
313.35	0.001829	0.000184
318.15	0.002232	0.000225
323.05	0.002942	0.000297
328.05	0.003647	0.000367
332.95	0.004153	0.000418
338.35	0.005175	0.000521
343.35	0.006379	0.000643
346.15	0.008016	0.000808
351.45	0.009771	0.000984

System: propan-2-ol + pentachloropyridine; phases: Liquid, Crystal
Fixed: Pressure, kPa = 101.3
Property: Mole fraction of pentachloropyridine (Liquid); method: Chromatography
Temperature, K	Mole fraction of pentachloropyridine	uncertainty
298.15	0.001481	0.000149
303.25	0.001998	0.000201
308.05	0.002721	0.000273
313.25	0.003347	0.000336
318.15	0.004125	0.000414
328.35	0.006744	0.000677
333.25	0.007832	0.000786
338.15	0.009659	0.00097
343.55	0.01312	0.001318
348.05	0.015679	0.001575
351.95	0.018662	0.001875
355.55	0.023826	0.002393

System: methanol + 2,3,5,6-tetrachloropyridine; phases: Liquid, Crystal
Fixed: Pressure, kPa = 101.3
Property: Mole fraction of 2,3,5,6-tetrachloropyridine (Liquid); method: Chromatography
Temperature, K	Mole fraction of 2,3,5,6-tetrachloropyridine	uncertainty
299.15	0.009184	0.000929
302.25	0.010514	0.001063
308.15	0.012103	0.001224
311.05	0.013669	0.001382
314.05	0.014748	0.001491
317.05	0.016988	0.001719
320.35	0.019849	0.002008
323.45	0.02204	0.002228
326.35	0.023337	0.00236
329.15	0.027143	0.002746
331.95	0.029543	0.002988
335.15	0.032999	0.003338

System: ethanol + 2,3,5,6-tetrachloropyridine; phases: Liquid, Crystal
Fixed: Pressure, kPa = 101.3
Property: Mole fraction of 2,3,5,6-tetrachloropyridine (Liquid); method: Chromatography
Temperature, K	Mole fraction of 2,3,5,6-tetrachloropyridine	uncertainty
293.35	0.019677	0.001978
297.95	0.021507	0.002164
303.05	0.029805	0.003001
307.95	0.039124	0.003935
313.15	0.042024	0.004228
318.05	0.054611	0.0055
328.15	0.086855	0.008744
333.25	0.106511	0.010727
336.15	0.124075	0.012519
339.15	0.158834	0.016034
342.15	0.190782	0.019264
345.35	0.236942	0.02394

System: propan-2-ol + 2,3,5,6-tetrachloropyridine; phases: Liquid, Crystal
Fixed: Pressure, kPa = 101.3
Property: Mole fraction of 2,3,5,6-tetrachloropyridine (Liquid); method: Chromatography
Temperature, K	Mole fraction of 2,3,5,6-tetrachloropyridine	uncertainty
293.55	0.022515	0.002262
298.05	0.028447	0.002856
303.25	0.034535	0.003468
307.95	0.043943	0.004414
313.15	0.056007	0.005629
318.15	0.07805	0.007846
328.35	0.127244	0.012783
333.25	0.153882	0.015468
335.95	0.184603	0.018592
339.25	0.235927	0.023775
342.15	0.293402	0.029569
345.15	0.344052	0.03468
