Measured thermophysical data. Vapor-Liquid Equilibria on Four Binary Systems: 2-Phenylpropionaldehyde + Phenol, Propylene Glycol Monomethyl Ether + Nitroethane, Dimethyl Ether + Propylene, and N-Butyric Acid + Propionic Acid
Source: J. Chem. Eng. Data, 2006, 10.1021/je050327l
Compound 1: 2-phenylpropanal, C9H10O, InChI=1S/C9H10O/c1-8(7-10)9-5-3-2-4-6-9/h2-8H,1H3, purity 99.4%
Compound 2: phenol, C6H6O, InChI=1S/C6H6O/c7-6-4-2-1-3-5-6/h1-5,7H, purity 99.9%
Compound 3: 1-methoxy-2-propanol, C4H10O2, InChI=1S/C4H10O2/c1-4(5)3-6-2/h4-5H,3H2,1-2H3, purity 99.7%
Compound 4: nitroethane, C2H5NO2, InChI=1S/C2H5NO2/c1-2-3(4)5/h2H2,1H3, purity 99.8%
Compound 5: dimethyl ether, C2H6O, InChI=1S/C2H6O/c1-3-2/h1-2H3, purity 99.9%
Compound 6: propene, C3H6, InChI=1S/C3H6/c1-3-2/h3H,1H2,2H3, purity 99.5%
Compound 7: butanoic acid, C4H8O2, InChI=1S/C4H8O2/c1-2-3-4(5)6/h2-3H2,1H3,(H,5,6), purity 99.9%
Compound 8: propanoic acid, C3H6O2, InChI=1S/C3H6O2/c1-2-3(4)5/h2H2,1H3,(H,4,5), purity 99.9%

System: 2-phenylpropanal; phases: Liquid, Gas
Property: Vapor or sublimation pressure, kPa (Liquid); method: Ebulliometric method (Recirculating still)
Temperature, K	Vapor or sublimation pressure, kPa	uncertainty
373.1	3.056	0.084
423.15	20.972	0.141

System: phenol; phases: Liquid, Gas
Property: Vapor or sublimation pressure, kPa (Liquid); method: Ebulliometric method (Recirculating still)
Temperature, K	Vapor or sublimation pressure, kPa	uncertainty
373.1	5.529	0.106
423.15	39.182	0.202

System: 1-methoxy-2-propanol; phases: Liquid, Gas
Property: Vapor or sublimation pressure, kPa (Liquid); method: Ebulliometric method (Recirculating still)
Temperature, K	Vapor or sublimation pressure, kPa	uncertainty
313.15	3.614	0.093
353.15	24.179	0.148

System: nitroethane; phases: Liquid, Gas
Property: Vapor or sublimation pressure, kPa (Liquid); method: Ebulliometric method (Recirculating still)
Temperature, K	Vapor or sublimation pressure, kPa	uncertainty
313.15	6.097	0.107
353.15	33.113	0.181

System: dimethyl ether; phases: Liquid, Gas
Property: Vapor or sublimation pressure, kPa (Liquid); method: Ebulliometric method (Recirculating still)
Temperature, K	Vapor or sublimation pressure, kPa	uncertainty
253.05	125	1.1
293.15	508.1	2.2

System: propene; phases: Liquid, Gas
Property: Vapor or sublimation pressure, kPa (Liquid); method: Ebulliometric method (Recirculating still)
Temperature, K	Vapor or sublimation pressure, kPa	uncertainty
253.05	307.2	2.2
293.15	1015.9	4.4

System: butanoic acid; phases: Liquid, Gas
Property: Vapor or sublimation pressure, kPa (Liquid); method: Ebulliometric method (Recirculating still)
Temperature, K	Vapor or sublimation pressure, kPa	uncertainty
373.1	9.38	0.13
413.15	45.85	0.23

System: propanoic acid; phases: Liquid, Gas
Property: Vapor or sublimation pressure, kPa (Liquid); method: Ebulliometric method (Recirculating still)
Temperature, K	Vapor or sublimation pressure, kPa	uncertainty
373.1	23.38	0.23
413.15	96.29	0.45

System: 2-phenylpropanal + phenol; phases: Liquid, Gas
Property: Vapor or sublimation pressure, kPa (Liquid); method: Ebulliometric method (Recirculating still)
Temperature, K	Mole fraction of 2-phenylpropanal	Vapor or sublimation pressure, kPa	uncertainty
373.1	0	5.529	0.106
373.1	0.0525	5.329	0.104
373.1	0.1044	5.133	0.102
373.1	0.212	4.709	0.099
373.1	0.3122	4.329	0.098
373.1	0.4183	3.942	0.096
373.1	0.4382	3.877	0.095
373.1	0.4904	3.721	0.093
373.1	0.5618	3.545	0.093
373.1	0.5966	3.456	0.091
373.1	0.694	3.288	0.089
373.1	0.7987	3.16	0.087
373.1	0.9006	3.097	0.085
373.1	0.9434	3.081	0.085
373.1	1	3.056	0.084
423.15	0	39.182	0.202
423.15	0.0556	37.616	0.198
423.15	0.1044	36.312	0.198
423.15	0.2168	33.361	0.211
423.15	0.3201	30.779	0.233
423.15	0.4287	28.068	0.249
423.15	0.5315	26.069	0.252
423.15	0.5854	25.118	0.242
423.15	0.6457	24.214	0.237
423.15	0.6973	23.509	0.218
423.15	0.6982	23.491	0.218
423.15	0.7992	22.409	0.211
423.15	0.8994	21.546	0.2
423.15	0.9503	21.244	0.179
423.15	0.9906	21.014	0.147
423.15	1	20.972	0.141

System: nitroethane + 1-methoxy-2-propanol; phases: Liquid, Gas
Property: Vapor or sublimation pressure, kPa (Liquid); method: Ebulliometric method (Recirculating still)
Temperature, K	Mole fraction of 1-methoxy-2-propanol	Vapor or sublimation pressure, kPa	uncertainty
313.15	0	6.097	0.107
313.15	0.0254	6.186	0.108
313.15	0.0498	6.241	0.108
313.15	0.1005	6.306	0.109
313.15	0.151	6.335	0.109
313.15	0.202	6.339	0.11
313.15	0.3031	6.27	0.109
313.15	0.3995	6.147	0.109
313.15	0.4478	6.065	0.109
313.15	0.4984	5.965	0.116
313.15	0.5038	5.942	0.116
313.15	0.566	5.789	0.11
313.15	0.6011	5.708	0.113
313.15	0.7016	5.36	0.117
313.15	0.8002	4.921	0.13
313.15	0.9013	4.336	0.147
313.15	0.9503	3.998	0.168
313.15	1	3.614	0.093
353.15	0	33.113	0.181
353.15	0.0503	33.859	0.184
353.15	0.1012	34.307	0.187
353.15	0.1526	34.614	0.188
353.15	0.204	34.746	0.189
353.15	0.2583	34.79	0.189
353.15	0.3113	34.585	0.19
353.15	0.4047	34.224	0.191
353.15	0.4386	33.972	0.197
353.15	0.491	33.601	0.2
353.15	0.5255	33.295	0.211
353.15	0.5815	32.715	0.215
353.15	0.5956	32.613	0.201
353.15	0.7041	31.077	0.284
353.15	0.8009	29.352	0.366
353.15	0.9019	27.066	0.46
353.15	0.9502	25.746	0.58
353.15	1	24.179	0.148

System: propene + dimethyl ether; phases: Liquid, Gas
Property: Vapor or sublimation pressure, kPa (Liquid); method: Ebulliometric method (Recirculating still)
Temperature, K	Mole fraction of dimethyl ether	Vapor or sublimation pressure, kPa	uncertainty
253.05	0	307.2	2.2
253.05	0.0527	299.5	2.1
253.05	0.1317	287.6	2.1
253.05	0.2501	269.8	2.1
253.05	0.3571	252.8	2.2
253.05	0.4134	243	2.3
253.05	0.4638	234.8	2.5
253.05	0.4683	233.9	2.5
253.05	0.562	218.4	8.4
253.05	0.5639	217	8.5
253.05	0.6165	208	2.8
253.05	0.6766	195.5	3.1
253.05	0.7735	176.3	3.5
253.05	0.8522	159.5	4
253.05	0.9366	140.5	4.5
253.05	1	125	1.1
293.15	0	1015.9	4.4
293.15	0.0533	993.9	4.3
293.15	0.133	960.5	4.3
293.15	0.252	909.8	4.5
293.15	0.3589	861.2	5
293.15	0.4136	834.9	5.3
293.15	0.4653	811.3	5.6
293.15	0.4689	809.6	5.6
293.15	0.5629	763.2	8.9
293.15	0.5652	761.5	9
293.15	0.6171	735.8	7.2
293.15	0.6786	702.2	8.1
293.15	0.7756	648.1	9.3
293.15	0.854	601.6	10.8
293.15	0.9376	549.2	12.2
293.15	1	508.1	2.2

System: propanoic acid + butanoic acid; phases: Liquid, Gas
Property: Vapor or sublimation pressure, kPa (Liquid); method: Ebulliometric method (Recirculating still)
Temperature, K	Mole fraction of butanoic acid	Vapor or sublimation pressure, kPa	uncertainty
373.1	0	23.38	0.23
373.1	0.0507	22.63	0.22
373.1	0.101	21.84	0.22
373.1	0.2016	20.4	0.21
373.1	0.3095	18.72	0.21
373.1	0.4166	17.31	0.22
373.1	0.4453	16.72	0.23
373.1	0.4995	15.98	0.22
373.1	0.522	15.76	0.24
373.1	0.6022	14.43	0.24
373.1	0.7065	13.03	0.25
373.1	0.8068	11.66	0.25
373.1	0.9005	10.55	0.26
373.1	0.95	9.91	0.26
373.1	1	9.38	0.13
413.15	0	96.29	0.45
413.15	0.0523	93.58	0.44
413.15	0.1037	90.87	0.44
413.15	0.2067	85.28	0.46
413.15	0.3181	79.66	0.5
413.15	0.424	74.41	1.16
413.15	0.4304	73.58	1.17
413.15	0.4844	70.86	0.55
413.15	0.5265	69.33	0.59
413.15	0.58	66.52	1.18
413.15	0.5901	65.53	1.2
413.15	0.6939	60.25	0.76
413.15	0.796	55.21	0.81
413.15	0.8991	50.37	0.89
413.15	0.9502	47.88	0.89
413.15	1	45.85	0.23

System: propanoic acid + butanoic acid; phases: Gas, Liquid
Property: Mole fraction of butanoic acid (Gas); method: Chromatography
Temperature, K	Mole fraction of butanoic acid	Mole fraction of butanoic acid	uncertainty
373.1	0.5658	0.413	0.009
413.15	0.5588	0.4298	0.0093
