Measured thermophysical data. Liquid-Liquid Equilibria for the Ternary System Water + Acetic Acid + Propyl Acetate
Source: J. Chem. Eng. Data, 2006, 10.1021/je050409+
Compound 1: acetic acid, C2H4O2, InChI=1S/C2H4O2/c1-2(3)4/h1H3,(H,3,4)
Compound 2: propyl ethanoate, C5H10O2, InChI=1S/C5H10O2/c1-3-4-7-5(2)6/h3-4H2,1-2H3
Compound 3: water, H2O, InChI=1S/H2O/h1H2, purity 99%

System: acetic acid + propyl ethanoate + water; phases: Liquid mixture 2, Liquid mixture 1
Fixed: Pressure, kPa = 101.325
Property: Mole fraction of acetic acid (Liquid mixture 2); method: CHROM:UFactor:8
Property: Mole fraction of acetic acid (Liquid mixture 1); method: CHROM:UFactor:8
Property: Mole fraction of water (Liquid mixture 1); method: CHROM:UFactor:8
Temperature, K	Mole fraction of water	Mole fraction of acetic acid	uncertainty	Mole fraction of acetic acid	uncertainty	Mole fraction of water	uncertainty
298.15	0.2135	0.1034	0.0083	0.0343	0.0027	0.9581	
298.15	0.3472	0.1833	0.0147	0.0776	0.0062	0.9085	
298.15	0.4476	0.2168	0.0173	0.1113	0.0089	0.8669	
298.15	0.5501	0.2211	0.0177	0.1415	0.0113	0.8201	
298.15	0.6072	0.2151	0.0172	0.1578	0.0126	0.7814	
313.15	0.2385	0.1289	0.0103	0.0453	0.0036	0.9478	
313.15	0.3401	0.1989	0.0159	0.0851	0.0068	0.9015	
313.15	0.4111	0.22	0.0176	0.0987	0.0079	0.8871	
313.15	0.3007	0.1921	0.0154	0.0531	0.0042	0.9357	
313.15	0.3801	0.2034	0.0163	0.0864	0.0069	0.9016	
363.65	0.6619	0.1684	0.0135	0.1206	0.0096	0.836	
363.65	0.5699	0.1866	0.0149	0.1071	0.0086	0.8529	
363.65	0.4733	0.1793	0.0143	0.083	0.0066	0.8979	
363.65	0.3534	0.174	0.0139	0.0617	0.0049	0.9274	
363.65	0.2968	0.1584	0.0127	0.0458	0.0037	0.9452	
363.65	0.2274	0.1212	0.0097	0.0368	0.0029	0.9557	
363.65	0.1943	0.0988	0.0079	0.0281	0.0022	0.9665	
363.65	0.1529	0.044	0.0035	0.0089	0.0007	0.9873	
363.65	0.1374	0	0.0001	0	0.0001	0.9969	

System: propyl ethanoate + water; phases: Liquid mixture 2, Liquid mixture 1
Property: Mole fraction of water (Liquid mixture 2); method: CHROM:UFactor:8
Temperature, K	Pressure, kPa	Mole fraction of water	uncertainty
363.65	101.325	0.1374	

System: propyl ethanoate + water; phases: Liquid mixture 1, Liquid mixture 2
Property: Mole fraction of water (Liquid mixture 1); method: CHROM:UFactor:8
Temperature, K	Pressure, kPa	Mole fraction of water	uncertainty
363.65	101.325	0.9969	
