Measured thermophysical data. Densities and Viscosities of Aqueous Ternary Mixtures of 2-(Methylamino)ethanol and 2-(Ethylamino)ethanol with Diethanolamine, Triethanolamine, N-Methyldiethanolamine, or 2-Amino-1-methyl-1-propanol from 298.15 to 323.15 K
Source: J. Chem. Eng. Data, 2006, 10.1021/je050463q
Compound 1: water, H2O, InChI=1S/H2O/h1H2
Compound 2: ethanol, C2H6O, InChI=1S/C2H6O/c1-2-3/h3H,2H2,1H3
Compound 3: diethanolamine, C4H11NO2, InChI=1S/C4H11NO2/c6-3-1-5-2-4-7/h5-7H,1-4H2
Compound 4: triethanolamine, C6H15NO3, InChI=1S/C6H15NO3/c8-4-1-7(2-5-9)3-6-10/h8-10H,1-6H2
Compound 5: 2-amino-2-methylpropan-1-ol, C4H11NO, InChI=1S/C4H11NO/c1-4(2,5)3-6/h6H,3,5H2,1-2H3
Compound 6: N-methyldiethanolamine, C5H13NO2, InChI=1S/C5H13NO2/c1-6(2-4-7)3-5-8/h7-8H,2-5H2,1H3
Compound 7: 2-(ethylamino)ethanol, C4H11NO, InChI=1S/C4H11NO/c1-2-5-3-4-6/h5-6H,2-4H2,1H3
Compound 8: 2-(methylamino)ethanol, C3H9NO, InChI=1S/C3H9NO/c1-4-2-3-5/h4-5H,2-3H2,1H3

System: ethanol; phases: Liquid
Fixed: Pressure, kPa = 101.325
Property: Viscosity, Pa*s (Liquid); method: CAPTUB:UFactor:4
Temperature, K	Viscosity, Pa*s	uncertainty
298.15	0.0010912	2.68e-05
303.15	0.0009575	2.39e-05
308.15	0.0008758	2.21e-05
313.15	0.0007915	2.03e-05
318.15	0.0007218	1.88e-05
323.15	0.0006323	1.68e-05

System: ethanol; phases: Liquid
Fixed: Pressure, kPa = 101.325
Property: Mass density, kg/m3 (Liquid); method: VIBTUB:UFactor:4
Temperature, K	Mass density, kg/m3	uncertainty
298.15	785.26	0.508
303.15	780.756	0.514
308.15	776.452	0.52
313.15	772.339	0.526
318.15	767.85	0.533
323.15	763.486	0.539

System: diethanolamine; phases: Liquid
Fixed: Pressure, kPa = 101.325
Property: Mass density, kg/m3 (Liquid); method: VIBTUB:UFactor:8
Temperature, K	Mass density, kg/m3	uncertainty
298.15	1094.019	1.244
303.15	1090.788	1.236
308.15	1087.508	1.229
313.15	1084.199	1.222
318.15	1080.862	1.214
323.15	1077.491	1.207

System: triethanolamine; phases: Liquid
Fixed: Pressure, kPa = 101.325
Property: Mass density, kg/m3 (Liquid); method: VIBTUB:UFactor:4
Temperature, K	Mass density, kg/m3	uncertainty
298.15	1120.993	0.649
303.15	1118.209	0.646
308.15	1115.384	0.643
313.15	1112.57	0.639
318.15	1109.783	0.636
323.15	1106.929	0.633

System: 2-amino-2-methylpropan-1-ol; phases: Liquid
Fixed: Pressure, kPa = 101.325
Property: Mass density, kg/m3 (Liquid); method: VIBTUB:UFactor:8
Temperature, K	Mass density, kg/m3	uncertainty
298.15	930.516	1.06
303.15	926.403	1.062
308.15	922.259	1.065
313.15	918.079	1.067
318.15	913.866	1.07
323.15	909.622	1.073

System: N-methyldiethanolamine; phases: Liquid
Fixed: Pressure, kPa = 101.325
Property: Mass density, kg/m3 (Liquid); method: VIBTUB:UFactor:8
Temperature, K	Mass density, kg/m3	uncertainty
298.15	1036.832	1.12
303.15	1033.056	1.112
308.15	1029.261	1.105
313.15	1025.447	1.098
318.15	1021.622	1.09
323.15	1017.781	1.083

System: 2-(ethylamino)ethanol; phases: Liquid
Fixed: Pressure, kPa = 101.325
Property: Mass density, kg/m3 (Liquid); method: VIBTUB:UFactor:8
Temperature, K	Mass density, kg/m3	uncertainty
298.15	913.386	1.07
303.15	909.401	1.073
308.15	905.405	1.076
313.15	901.388	1.079
318.15	897.344	1.082
323.15	893.275	1.086

System: 2-(methylamino)ethanol; phases: Liquid
Fixed: Pressure, kPa = 101.325
Property: Mass density, kg/m3 (Liquid); method: VIBTUB:UFactor:8
Temperature, K	Mass density, kg/m3	uncertainty
298.15	937.683	1.057
303.15	933.789	1.058
308.15	929.88	1.06
313.15	925.948	1.062
318.15	921.996	1.065
323.15	918.024	1.067

System: diethanolamine + water; phases: Liquid
Fixed: Mass fraction of diethanolamine = 0.5005
Fixed: Pressure, kPa = 101.3
Property: Kinematic viscosity, m2/s (Liquid); method: CAPTUB::UFactor:4
Temperature, K	Kinematic viscosity, m2/s	uncertainty
298.15	9.5728e-06	2.001e-07
303.15	7.7416e-06	1.69e-07
308.15	6.3597e-06	1.423e-07
313.15	5.3135e-06	1.223e-07
318.15	4.5366e-06	1.056e-07
323.15	3.9129e-06	9.19e-08

System: diethanolamine + water; phases: Liquid
Fixed: Mass fraction of diethanolamine = 0.5005
Fixed: Pressure, kPa = 101.3
Property: Mass density, kg/m3 (Liquid); method: VIBTUB::UFactor:4
Temperature, K	Mass density, kg/m3	uncertainty
298.15	1058.259	0.606
303.15	1055.607	0.604
308.15	1052.879	0.601
313.15	1050.068	0.599
318.15	1047.178	0.596
323.15	1044.2	0.593

System: 2-(methylamino)ethanol + water; phases: Liquid
Fixed: Mass fraction of 2-(methylamino)ethanol = 0.5
Fixed: Pressure, kPa = 101.3
Property: Kinematic viscosity, m2/s (Liquid); method: CAPTUB::UFactor:4
Temperature, K	Kinematic viscosity, m2/s	uncertainty
298.15	8.1909e-06	1.754e-07
303.15	6.6142e-06	1.487e-07
308.15	5.4077e-06	1.253e-07
313.15	4.544e-06	1.067e-07
318.15	3.8338e-06	9.07e-08
323.15	3.236e-06	7.77e-08

System: 2-(methylamino)ethanol + water; phases: Liquid
Fixed: Mass fraction of 2-(methylamino)ethanol = 0.5
Fixed: Pressure, kPa = 101.3
Property: Mass density, kg/m3 (Liquid); method: VIBTUB::UFactor:4
Temperature, K	Mass density, kg/m3	uncertainty
298.15	1000.225	0.554
303.15	996.84	0.554
308.15	993.406	0.553
313.15	989.916	0.553
318.15	986.394	0.552
323.15	982.806	0.552

System: triethanolamine + water; phases: Liquid
Fixed: Mass fraction of triethanolamine = 0.5001
Fixed: Pressure, kPa = 101.3
Property: Kinematic viscosity, m2/s (Liquid); method: CAPTUB::UFactor:4
Temperature, K	Kinematic viscosity, m2/s	uncertainty
298.15	6.4977e-06	1.39e-07
303.15	5.4776e-06	1.23e-07
308.15	4.5673e-06	1.054e-07
313.15	3.8746e-06	8.93e-08
318.15	3.3566e-06	7.75e-08
323.15	2.9119e-06	6.81e-08

System: triethanolamine + water; phases: Liquid
Fixed: Mass fraction of triethanolamine = 0.5001
Fixed: Pressure, kPa = 101.3
Property: Mass density, kg/m3 (Liquid); method: VIBTUB::UFactor:4
Temperature, K	Mass density, kg/m3	uncertainty
298.15	1074.721	0.388
303.15	1071.838	0.385
308.15	1069.172	0.382
313.15	1066.505	0.379
318.15	1063.347	0.376
323.15	1060.2	0.373

System: 2-amino-2-methylpropan-1-ol + water; phases: Liquid
Fixed: Pressure, kPa = 101.3
Property: Kinematic viscosity, m2/s (Liquid); method: CAPTUB::UFactor:4
Temperature, K	Mass fraction of 2-amino-2-methylpropan-1-ol	Kinematic viscosity, m2/s	uncertainty
298.15	0.4961	1.10092e-05	2.317e-07
298.15	0.5	1.10091e-05	2.318e-07
303.15	0.4961	8.5399e-06	1.89e-07
303.15	0.5	8.5399e-06	1.891e-07
308.15	0.4961	6.8043e-06	1.539e-07
308.15	0.5	6.8043e-06	1.54e-07
313.15	0.4961	5.4428e-06	1.274e-07
313.15	0.5	5.4428e-06	1.275e-07
318.15	0.4961	4.4903e-06	1.06e-07
318.15	0.5	4.4903e-06	1.06e-07
323.15	0.4961	3.7998e-06	9.04e-08
323.15	0.5	3.7998e-06	9.04e-08

System: 2-amino-2-methylpropan-1-ol + water; phases: Liquid
Fixed: Pressure, kPa = 101.3
Property: Mass density, kg/m3 (Liquid); method: VIBTUB::UFactor:4
Temperature, K	Mass fraction of 2-amino-2-methylpropan-1-ol	Mass density, kg/m3	uncertainty
298.15	0.4961	992.713	0.55
298.15	0.5	992.713	0.553
303.15	0.4961	988.942	0.549
303.15	0.5	988.942	0.553
308.15	0.4961	985.138	0.549
308.15	0.5	985.138	0.552
313.15	0.4961	981.292	0.548
313.15	0.5	981.292	0.552
318.15	0.4961	977.398	0.548
318.15	0.5	977.398	0.551
323.15	0.4961	973.46	0.547
323.15	0.5	973.46	0.551

System: N-methyldiethanolamine + water; phases: Liquid
Fixed: Pressure, kPa = 101.3
Property: Kinematic viscosity, m2/s (Liquid); method: CAPTUB::UFactor:4
Temperature, K	Mass fraction of N-methyldiethanolamine	Kinematic viscosity, m2/s	uncertainty
298.15	0.4998	9.3827e-06	1.964e-07
298.15	0.5	9.3827e-06	1.964e-07
303.15	0.4998	7.6064e-06	1.667e-07
303.15	0.5	7.6064e-06	1.667e-07
308.15	0.4998	6.197e-06	1.398e-07
308.15	0.5	6.197e-06	1.398e-07
313.15	0.4998	5.1733e-06	1.198e-07
313.15	0.5	5.1733e-06	1.198e-07
318.15	0.4998	4.4222e-06	1.031e-07
318.15	0.5	4.4222e-06	1.031e-07
323.15	0.4998	3.7893e-06	8.95e-08
323.15	0.5	3.7893e-06	8.95e-08

System: N-methyldiethanolamine + water; phases: Liquid
Fixed: Pressure, kPa = 101.3
Property: Mass density, kg/m3 (Liquid); method: VIBTUB::UFactor:4
Temperature, K	Mass fraction of N-methyldiethanolamine	Mass density, kg/m3	uncertainty
298.15	0.4998	1042.463	0.591
298.15	0.5	1042.463	0.591
303.15	0.4998	1039.311	0.588
303.15	0.5	1039.311	0.588
308.15	0.4998	1036.077	0.585
308.15	0.5	1036.077	0.586
313.15	0.4998	1032.745	0.582
313.15	0.5	1032.745	0.583
318.15	0.4998	1029.233	0.579
318.15	0.5	1029.233	0.58
323.15	0.4998	1025.854	0.576
323.15	0.5	1025.854	0.577

System: 2-(ethylamino)ethanol + water; phases: Liquid
Fixed: Pressure, kPa = 101.3
Property: Kinematic viscosity, m2/s (Liquid); method: CAPTUB::UFactor:4
Temperature, K	Mass fraction of 2-(ethylamino)ethanol	Kinematic viscosity, m2/s	uncertainty
298.15	0.5	8.9763e-06	1.906e-07
298.15	0.5004	8.9763e-06	1.905e-07
298.15	0.5	8.1909e-06	1.754e-07
303.15	0.5	7.1788e-06	1.604e-07
303.15	0.5004	7.1788e-06	1.604e-07
303.15	0.5	7.1783e-06	1.604e-07
303.15	0.5	6.6143e-06	1.487e-07
308.15	0.5	5.778e-06	1.335e-07
308.15	0.5004	5.778e-06	1.335e-07
308.15	0.5	5.4076e-06	1.253e-07
313.15	0.5	4.7394e-06	1.121e-07
313.15	0.5004	4.7394e-06	1.121e-07
313.15	0.5	4.5443e-06	1.067e-07
318.15	0.5	3.9686e-06	9.39e-08
318.15	0.5004	3.9686e-06	9.39e-08
318.15	0.5	3.8338e-06	9.07e-08
323.15	0.5	3.3436e-06	8.03e-08
323.15	0.5004	3.3436e-06	8.03e-08
323.15	0.5	3.236e-06	7.77e-08

System: 2-(ethylamino)ethanol + water; phases: Liquid
Fixed: Pressure, kPa = 101.3
Property: Mass density, kg/m3 (Liquid); method: VIBTUB:UFactor:4
Temperature, K	Mass fraction of 2-(ethylamino)ethanol	Mass density, kg/m3	uncertainty
298.15	0.5	984.792	0.557
298.15	0.5004	984.792	0.555
298.15	0.5	1000.225	0.553
303.15	0.5	981.056	0.557
303.15	0.5004	981.056	0.555
303.15	0.5	996.84	0.553
308.15	0.5	977.274	0.556
308.15	0.5004	977.274	0.555
308.15	0.5	993.406	0.552
313.15	0.5	973.445	0.556
313.15	0.5004	973.445	0.554
313.15	0.5	989.916	0.552
318.15	0.5	969.563	0.556
318.15	0.5004	969.563	0.554
318.15	0.5	986.394	0.551
323.15	0.5	965.63	0.556
323.15	0.5004	965.63	0.554
323.15	0.5	982.806	0.551

System: 2-(methylamino)ethanol + diethanolamine + water; phases: Liquid
Fixed: Pressure, kPa = 101.3
Property: Kinematic viscosity, m2/s (Liquid); method: CAPTUB:UFactor:4
Temperature, K	Mass fraction of 2-(methylamino)ethanol	Mass fraction of diethanolamine	Kinematic viscosity, m2/s	uncertainty
298.15	0	0.5005	9.5728e-06	2.001e-07
298.15	0.1002	0.3997	9.3022e-06	1.953e-07
298.15	0.2001	0.2996	9.0319e-06	1.909e-07
298.15	0.2997	0.2004	8.7457e-06	1.854e-07
298.15	0.4	0.1005	8.461e-06	1.803e-07
298.15	0.5	0	8.1909e-06	1.754e-07
303.15	0	0.5005	7.7416e-06	1.69e-07
303.15	0.1002	0.3997	7.5174e-06	3.514e-07
303.15	0.2001	0.2996	7.2887e-06	2.373e-07
303.15	0.2997	0.2004	7.0614e-06	1.568e-07
303.15	0.4	0.1005	6.8362e-06	1.96e-07
303.15	0.5	0	6.6142e-06	1.487e-07
308.15	0	0.5005	6.3597e-06	1.423e-07
308.15	0.1002	0.3997	6.1751e-06	2.725e-07
308.15	0.2001	0.2996	5.9819e-06	1.909e-07
308.15	0.2997	0.2004	5.7867e-06	1.32e-07
308.15	0.4	0.1005	5.6211e-06	1.712e-07
308.15	0.5	0	5.4077e-06	1.253e-07
313.15	0	0.5005	5.3135e-06	1.223e-07
313.15	0.1002	0.3997	5.1591e-06	2.121e-07
313.15	0.2001	0.2996	5.0069e-06	1.442e-07
313.15	0.2997	0.2004	4.8558e-06	1.136e-07
313.15	0.4	0.1005	4.7041e-06	1.273e-07
313.15	0.5	0	4.544e-06	1.067e-07
318.15	0	0.5005	4.5366e-06	1.056e-07
318.15	0.1002	0.3997	4.3999e-06	1.405e-07
318.15	0.2001	0.2996	4.2434e-06	1.113e-07
318.15	0.2997	0.2004	4.1055e-06	9.64e-08
318.15	0.4	0.1005	3.9838e-06	1.06e-07
318.15	0.5	0	3.8338e-06	9.07e-08
323.15	0	0.5005	3.9129e-06	9.19e-08
323.15	0.1002	0.3997	3.7493e-06	1.006e-07
323.15	0.2001	0.2996	3.6317e-06	8.61e-08
323.15	0.2997	0.2004	3.5105e-06	8.33e-08
323.15	0.4	0.1005	3.3835e-06	8.13e-08
323.15	0.5	0	3.236e-06	7.77e-08

System: 2-(methylamino)ethanol + diethanolamine + water; phases: Liquid
Fixed: Pressure, kPa = 101.3
Property: Mass density, kg/m3 (Liquid); method: VIBTUB:UFactor:4
Temperature, K	Mass fraction of 2-(methylamino)ethanol	Mass fraction of diethanolamine	Mass density, kg/m3	uncertainty
298.15	0	0.5005	1058.259	0.606
298.15	0.1002	0.3997	1044.52	1.386
298.15	0.2001	0.2996	1032.037	0.753
298.15	0.2997	0.2004	1020.413	0.571
298.15	0.4	0.1005	1009.206	1.186
298.15	0.5	0	1000.225	0.554
303.15	0	0.5005	1055.607	0.604
303.15	0.1002	0.3997	1041.638	1.51
303.15	0.2001	0.2996	1029.069	0.713
303.15	0.2997	0.2004	1017.208	0.568
303.15	0.4	0.1005	1005.89	1.219
303.15	0.5	0	996.84	0.554
308.15	0	0.5005	1052.879	0.601
308.15	0.1002	0.3997	1038.773	1.662
308.15	0.2001	0.2996	1026.028	0.777
308.15	0.2997	0.2004	1014.035	0.566
308.15	0.4	0.1005	1002.513	1.278
308.15	0.5	0	993.406	0.553
313.15	0	0.5005	1050.068	0.599
313.15	0.1002	0.3997	1035.627	1.631
313.15	0.2001	0.2996	1022.717	0.723
313.15	0.2997	0.2004	1010.695	0.563
313.15	0.4	0.1005	999.075	1.298
313.15	0.5	0	989.916	0.553
318.15	0	0.5005	1047.178	0.596
318.15	0.1002	0.3997	1032.5	1.617
318.15	0.2001	0.2996	1019.538	0.671
318.15	0.2997	0.2004	1007.293	0.56
318.15	0.4	0.1005	995.572	1.277
318.15	0.5	0	986.394	0.552
323.15	0	0.5005	1044.2	0.593
323.15	0.1002	0.3997	1029.69	1.394
323.15	0.2001	0.2996	1016.453	0.717
323.15	0.2997	0.2004	1004.012	0.557
323.15	0.4	0.1005	992.203	1.259
323.15	0.5	0	982.806	0.552

System: triethanolamine + 2-(methylamino)ethanol + water; phases: Liquid
Fixed: Pressure, kPa = 101.3
Property: Kinematic viscosity, m2/s (Liquid); method: CAPTUB:UFactor:4
Temperature, K	Mass fraction of 2-(methylamino)ethanol	Mass fraction of triethanolamine	Kinematic viscosity, m2/s	uncertainty
298.15	0	0.5001	6.4977e-06	1.39e-07
298.15	0.1012	0.4002	6.8851e-06	1.469e-07
298.15	0.1994	0.2994	7.1915e-06	1.531e-07
298.15	0.2951	0.1971	7.4924e-06	1.592e-07
298.15	0.3994	0.1002	7.867e-06	1.675e-07
298.15	0.5	0	8.1909e-06	1.754e-07
303.15	0	0.5001	5.4776e-06	1.23e-07
303.15	0.1012	0.4002	5.7466e-06	1.298e-07
303.15	0.1994	0.2994	5.9603e-06	1.336e-07
303.15	0.2951	0.1971	6.1828e-06	1.377e-07
303.15	0.3994	0.1002	6.4327e-06	1.446e-07
303.15	0.5	0	6.6142e-06	1.487e-07
308.15	0	0.5001	4.5673e-06	1.054e-07
308.15	0.1012	0.4002	4.8108e-06	1.127e-07
308.15	0.1994	0.2994	4.9919e-06	1.16e-07
308.15	0.2951	0.1971	5.1516e-06	1.19e-07
308.15	0.3994	0.1002	5.2909e-06	1.231e-07
308.15	0.5	0	5.4077e-06	1.253e-07
313.15	0	0.5001	3.8746e-06	8.93e-08
313.15	0.1012	0.4002	4.073e-06	9.58e-08
313.15	0.1994	0.2994	4.1953e-06	9.8e-08
313.15	0.2951	0.1971	4.314e-06	1.006e-07
313.15	0.3994	0.1002	4.4242e-06	1.038e-07
313.15	0.5	0	4.544e-06	1.067e-07
318.15	0	0.5001	3.3566e-06	7.75e-08
318.15	0.1012	0.4002	3.4794e-06	8.16e-08
318.15	0.1994	0.2994	3.5749e-06	8.36e-08
318.15	0.2951	0.1971	3.6688e-06	8.57e-08
318.15	0.3994	0.1002	3.7628e-06	8.85e-08
318.15	0.5	0	3.8338e-06	9.07e-08
323.15	0	0.5001	2.9119e-06	6.81e-08
323.15	0.1012	0.4002	3.0195e-06	7.07e-08
323.15	0.1994	0.2994	3.0992e-06	7.27e-08
323.15	0.2951	0.1971	3.1526e-06	7.44e-08
323.15	0.3994	0.1002	3.1946e-06	7.62e-08
323.15	0.5	0	3.236e-06	7.77e-08

System: triethanolamine + 2-(methylamino)ethanol + water; phases: Liquid
Fixed: Pressure, kPa = 101.3
Property: Mass density, kg/m3 (Liquid); method: VIBTUB:UFactor:4
Temperature, K	Mass fraction of 2-(methylamino)ethanol	Mass fraction of triethanolamine	Mass density, kg/m3	uncertainty
298.15	0	0.5001	1074.721	0.388
298.15	0.1012	0.4002	1058.612	0.414
298.15	0.1994	0.2994	1042.724	0.443
298.15	0.2951	0.1971	1027.019	0.474
298.15	0.3994	0.1002	1013.273	0.518
298.15	0.5	0	1000.225	0.556
303.15	0	0.5001	1071.838	0.385
303.15	0.1012	0.4002	1055.723	0.411
303.15	0.1994	0.2994	1039.688	0.441
303.15	0.2951	0.1971	1023.927	0.472
303.15	0.3994	0.1002	1010.037	0.515
303.15	0.5	0	996.84	0.556
308.15	0	0.5001	1069.172	0.382
308.15	0.1012	0.4002	1052.748	0.408
308.15	0.1994	0.2994	1036.565	0.438
308.15	0.2951	0.1971	1020.742	0.469
308.15	0.3994	0.1002	1006.734	0.513
308.15	0.5	0	993.406	0.555
313.15	0	0.5001	1066.505	0.379
313.15	0.1012	0.4002	1049.689	0.405
313.15	0.1994	0.2994	1033.359	0.436
313.15	0.2951	0.1971	1017.459	0.466
313.15	0.3994	0.1002	1003.36	0.51
313.15	0.5	0	989.916	0.555
318.15	0	0.5001	1063.347	0.376
318.15	0.1012	0.4002	1046.538	0.402
318.15	0.1994	0.2994	1030.073	0.434
318.15	0.2951	0.1971	1014.226	0.463
318.15	0.3994	0.1002	999.91	0.508
318.15	0.5	0	986.394	0.554
323.15	0	0.5001	1060.2	0.373
323.15	0.1012	0.4002	1043.303	0.399
323.15	0.1994	0.2994	1026.706	0.431
323.15	0.2951	0.1971	1010.756	0.461
323.15	0.3994	0.1002	996.453	0.507
323.15	0.5	0	982.806	0.554

System: 2-(methylamino)ethanol + 2-amino-2-methylpropan-1-ol + water; phases: Liquid
Fixed: Pressure, kPa = 101.3
Property: Kinematic viscosity, m2/s (Liquid); method: CAPTUB:UFactor:4
Temperature, K	Mass fraction of 2-(methylamino)ethanol	Mass fraction of 2-amino-2-methylpropan-1-ol	Kinematic viscosity, m2/s	uncertainty
298.15	0	0.4961	1.10092e-05	2.317e-07
298.15	0.1	0.4007	1.04098e-05	2.192e-07
298.15	0.1958	0.2962	9.9351e-06	2.104e-07
298.15	0.3026	0.2018	9.4715e-06	2.028e-07
298.15	0.3995	0.1015	8.7901e-06	1.867e-07
298.15	0.5	0	8.1909e-06	1.754e-07
303.15	0	0.4961	8.5399e-06	1.89e-07
303.15	0.1	0.4007	8.1594e-06	1.811e-07
303.15	0.1958	0.2962	7.7788e-06	1.73e-07
303.15	0.3026	0.2018	7.3768e-06	1.657e-07
303.15	0.3995	0.1015	7.103e-06	1.724e-07
303.15	0.5	0	6.6142e-06	1.487e-07
308.15	0	0.4961	6.8043e-06	1.539e-07
308.15	0.1	0.4007	6.5288e-06	1.482e-07
308.15	0.1958	0.2962	6.2934e-06	1.432e-07
308.15	0.3026	0.2018	6.0235e-06	1.377e-07
308.15	0.3995	0.1015	5.7031e-06	1.367e-07
308.15	0.5	0	5.4077e-06	1.253e-07
313.15	0	0.4961	5.4428e-06	1.274e-07
313.15	0.1	0.4007	5.3022e-06	1.246e-07
313.15	0.1958	0.2962	5.0753e-06	1.2e-07
313.15	0.3026	0.2018	4.8967e-06	1.164e-07
313.15	0.3995	0.1015	4.6446e-06	1.106e-07
313.15	0.5	0	4.544e-06	1.067e-07
318.15	0	0.4961	4.4903e-06	1.06e-07
318.15	0.1	0.4007	4.3722e-06	1.038e-07
318.15	0.1958	0.2962	4.2437e-06	1.001e-07
318.15	0.3026	0.2018	4.0593e-06	9.62e-08
318.15	0.3995	0.1015	3.9142e-06	9.25e-08
318.15	0.5	0	3.8338e-06	9.06e-08
323.15	0	0.4961	3.7998e-06	9.04e-08
323.15	0.1	0.4007	3.6548e-06	8.78e-08
323.15	0.1958	0.2962	3.5752e-06	8.55e-08
323.15	0.3026	0.2018	3.4409e-06	8.22e-08
323.15	0.3995	0.1015	3.324e-06	7.96e-08
323.15	0.5	0	3.236e-06	7.77e-08

System: 2-(methylamino)ethanol + 2-amino-2-methylpropan-1-ol + water; phases: Liquid
Fixed: Pressure, kPa = 101.3
Property: Mass density, kg/m3 (Liquid); method: VIBTUB:UFactor:4
Temperature, K	Mass fraction of 2-(methylamino)ethanol	Mass fraction of 2-amino-2-methylpropan-1-ol	Mass density, kg/m3	uncertainty
298.15	0	0.4961	992.713	0.55
298.15	0.1	0.4007	993.268	0.552
298.15	0.1958	0.2962	994.258	0.544
298.15	0.3026	0.2018	995.113	0.556
298.15	0.3995	0.1015	996.919	0.606
298.15	0.5	0	1000.225	0.553
303.15	0	0.4961	988.942	0.549
303.15	0.1	0.4007	989.589	0.551
303.15	0.1958	0.2962	990.607	0.543
303.15	0.3026	0.2018	991.484	0.556
303.15	0.3995	0.1015	993.408	0.608
303.15	0.5	0	996.84	0.552
308.15	0	0.4961	985.138	0.549
308.15	0.1	0.4007	985.865	0.551
308.15	0.1958	0.2962	986.906	0.543
308.15	0.3026	0.2018	987.808	0.555
308.15	0.3995	0.1015	989.845	0.609
308.15	0.5	0	993.406	0.551
313.15	0	0.4961	981.292	0.548
313.15	0.1	0.4007	982.098	0.55
313.15	0.1958	0.2962	983.16	0.542
313.15	0.3026	0.2018	984.079	0.555
313.15	0.3995	0.1015	986.227	0.61
313.15	0.5	0	989.916	0.551
318.15	0	0.4961	977.398	0.548
318.15	0.1	0.4007	978.275	0.55
318.15	0.1958	0.2962	979.36	0.542
318.15	0.3026	0.2018	980.3	0.554
318.15	0.3995	0.1015	982.551	0.612
318.15	0.5	0	986.394	0.55
323.15	0	0.4961	973.46	0.547
323.15	0.1	0.4007	974.403	0.549
323.15	0.1958	0.2962	975.507	0.542
323.15	0.3026	0.2018	976.465	0.554
323.15	0.3995	0.1015	978.846	0.609
323.15	0.5	0	982.806	0.55

System: N-methyldiethanolamine + 2-(methylamino)ethanol + water; phases: Liquid
Fixed: Pressure, kPa = 101.3
Property: Kinematic viscosity, m2/s (Liquid); method: CAPTUB:UFactor:4
Temperature, K	Mass fraction of 2-(methylamino)ethanol	Mass fraction of N-methyldiethanolamine	Kinematic viscosity, m2/s	uncertainty
298.15	0	0.5	9.3827e-06	1.964e-07
298.15	0.1	0.4001	9.1276e-06	1.918e-07
298.15	0.1999	0.3001	8.8864e-06	1.875e-07
298.15	0.2999	0.2002	8.6525e-06	1.834e-07
298.15	0.3998	0.1002	8.4202e-06	1.793e-07
298.15	0.5	0	8.1909e-06	1.754e-07
303.15	0	0.5	7.6064e-06	1.667e-07
303.15	0.1	0.4001	7.4066e-06	1.63e-07
303.15	0.1999	0.3001	7.2078e-06	1.594e-07
303.15	0.2999	0.2002	7.0084e-06	1.558e-07
303.15	0.3998	0.1002	6.8109e-06	1.522e-07
303.15	0.5	0	6.6142e-06	1.487e-07
308.15	0	0.5	6.197e-06	1.398e-07
308.15	0.1	0.4001	6.0371e-06	1.369e-07
308.15	0.1999	0.3001	5.879e-06	1.339e-07
308.15	0.2999	0.2002	5.7241e-06	1.311e-07
308.15	0.3998	0.1002	5.5635e-06	1.281e-07
308.15	0.5	0	5.4077e-06	1.253e-07
313.15	0	0.5	5.1733e-06	1.198e-07
313.15	0.1	0.4001	5.0486e-06	1.176e-07
313.15	0.1999	0.3001	4.9243e-06	1.151e-07
313.15	0.2999	0.2002	4.7977e-06	1.123e-07
313.15	0.3998	0.1002	4.6721e-06	1.095e-07
313.15	0.5	0	4.544e-06	1.067e-07
318.15	0	0.5	4.4222e-06	1.031e-07
318.15	0.1	0.4001	4.3029e-06	1.006e-07
318.15	0.1999	0.3001	4.1837e-06	9.81e-08
318.15	0.2999	0.2002	4.0661e-06	9.56e-08
318.15	0.3998	0.1002	3.9498e-06	9.31e-08
318.15	0.5	0	3.8338e-06	9.07e-08
323.15	0	0.5	3.7893e-06	8.95e-08
323.15	0.1	0.4001	3.6758e-06	8.71e-08
323.15	0.1999	0.3001	3.5624e-06	8.47e-08
323.15	0.2999	0.2002	3.4491e-06	8.23e-08
323.15	0.3998	0.1002	3.3454e-06	8.01e-08
323.15	0.5	0	3.236e-06	7.77e-08

System: N-methyldiethanolamine + 2-(methylamino)ethanol + water; phases: Liquid
Fixed: Pressure, kPa = 101.3
Property: Mass density, kg/m3 (Liquid); method: VIBTUB:UFactor:4
Temperature, K	Mass fraction of 2-(methylamino)ethanol	Mass fraction of N-methyldiethanolamine	Mass density, kg/m3	uncertainty
298.15	0	0.5	1042.463	0.591
298.15	0.1	0.4001	1032.756	0.582
298.15	0.1999	0.3001	1023.518	0.573
298.15	0.2999	0.2002	1014.218	0.565
298.15	0.3998	0.1002	1006.604	0.559
298.15	0.5	0	1000.225	0.554
303.15	0	0.5	1039.311	0.588
303.15	0.1	0.4001	1029.548	0.579
303.15	0.1999	0.3001	1020.219	0.57
303.15	0.2999	0.2002	1010.947	0.562
303.15	0.3998	0.1002	1003.12	0.556
303.15	0.5	0	996.84	0.553
308.15	0	0.5	1036.077	0.586
308.15	0.1	0.4001	1026.259	0.576
308.15	0.1999	0.3001	1016.851	0.568
308.15	0.2999	0.2002	1007.632	0.56
308.15	0.3998	0.1002	999.863	0.553
308.15	0.5	0	993.406	0.552
313.15	0	0.5	1032.745	0.583
313.15	0.1	0.4001	1022.893	0.573
313.15	0.1999	0.3001	1013.405	0.565
313.15	0.2999	0.2002	1004.191	0.557
313.15	0.3998	0.1002	996.505	0.553
313.15	0.5	0	989.916	0.552
318.15	0	0.5	1029.233	0.58
318.15	0.1	0.4001	1019.444	0.57
318.15	0.1999	0.3001	1009.888	0.562
318.15	0.2999	0.2002	1000.71	0.554
318.15	0.3998	0.1002	992.93	0.552
318.15	0.5	0	986.394	0.551
323.15	0	0.5	1025.854	0.577
323.15	0.1	0.4001	1015.915	0.567
323.15	0.1999	0.3001	1006.279	0.559
323.15	0.2999	0.2002	997.19	0.553
323.15	0.3998	0.1002	989.364	0.551
323.15	0.5	0	982.806	0.551

System: 2-(ethylamino)ethanol + diethanolamine + water; phases: Liquid
Fixed: Pressure, kPa = 101.3
Property: Kinematic viscosity, m2/s (Liquid); method: CAPTUB:UFactor:4
Temperature, K	Mass fraction of 2-(ethylamino)ethanol	Mass fraction of diethanolamine	Kinematic viscosity, m2/s	uncertainty
298.15	0	0.5005	9.5728e-06	2.001e-07
298.15	0.1001	0.3999	9.4538e-06	1.982e-07
298.15	0.2	0.3002	9.3342e-06	1.962e-07
298.15	0.2997	0.2001	9.2152e-06	1.944e-07
298.15	0.3996	0.1	9.0958e-06	2.038e-07
298.15	0.5004	0	8.9763e-06	1.905e-07
303.15	0	0.5005	7.7416e-06	1.69e-07
303.15	0.1001	0.3999	7.6292e-06	1.673e-07
303.15	0.2	0.3002	7.5187e-06	2.394e-07
303.15	0.2997	0.2001	7.403e-06	1.638e-07
303.15	0.3996	0.1	7.2905e-06	1.707e-07
303.15	0.5004	0	7.1788e-06	1.604e-07
308.15	0	0.5005	6.3597e-06	1.423e-07
308.15	0.1001	0.3999	6.2422e-06	1.405e-07
308.15	0.2	0.3002	6.1269e-06	1.957e-07
308.15	0.2997	0.2001	6.0148e-06	1.37e-07
308.15	0.3996	0.1	5.8969e-06	1.421e-07
308.15	0.5004	0	5.778e-06	1.335e-07
313.15	0	0.5005	5.3135e-06	1.223e-07
313.15	0.1001	0.3999	5.1979e-06	1.204e-07
313.15	0.2	0.3002	5.084e-06	1.59e-07
313.15	0.2997	0.2001	4.9725e-06	1.168e-07
313.15	0.3996	0.1	4.8552e-06	1.199e-07
313.15	0.5004	0	4.7394e-06	1.121e-07
318.15	0	0.5005	4.5366e-06	1.056e-07
318.15	0.1001	0.3999	4.4245e-06	1.033e-07
318.15	0.2	0.3002	4.3087e-06	1.171e-07
318.15	0.2997	0.2001	4.195e-06	9.86e-08
318.15	0.3996	0.1	4.0832e-06	1.008e-07
318.15	0.5004	0	3.9686e-06	9.39e-08
323.15	0	0.5005	3.9129e-06	9.19e-08
323.15	0.1001	0.3999	3.7974e-06	8.96e-08
323.15	0.2	0.3002	3.6849e-06	8.73e-08
323.15	0.2997	0.2001	3.57e-06	8.49e-08
323.15	0.3996	0.1	3.4578e-06	8.64e-08
323.15	0.5004	0	3.3436e-06	8.03e-08

System: 2-(ethylamino)ethanol + diethanolamine + water; phases: Liquid
Fixed: Pressure, kPa = 101.3
Property: Mass density, kg/m3 (Liquid); method: VIBTUB:UFactor:4
Temperature, K	Mass fraction of 2-(ethylamino)ethanol	Mass fraction of diethanolamine	Mass density, kg/m3	uncertainty
298.15	0	0.5005	1058.259	0.604
298.15	0.1001	0.3999	1043.678	0.59
298.15	0.2	0.3002	1028.699	1.008
298.15	0.2997	0.2001	1015.096	0.566
298.15	0.3996	0.1	1000.513	0.935
298.15	0.5004	0	984.792	0.555
303.15	0	0.5005	1055.607	0.602
303.15	0.1001	0.3999	1040.795	0.588
303.15	0.2	0.3002	1025.575	1.041
303.15	0.2997	0.2001	1011.756	0.563
303.15	0.3996	0.1	997.278	0.933
303.15	0.5004	0	981.056	0.555
308.15	0	0.5005	1052.879	0.599
308.15	0.1001	0.3999	1037.856	0.585
308.15	0.2	0.3002	1022.383	1.065
308.15	0.2997	0.2001	1008.359	0.561
308.15	0.3996	0.1	993.492	0.93
308.15	0.5004	0	977.274	0.555
313.15	0	0.5005	1050.068	0.596
313.15	0.1001	0.3999	1034.844	0.582
313.15	0.2	0.3002	1019.12	1.091
313.15	0.2997	0.2001	1004.899	0.558
313.15	0.3996	0.1	989.53	0.928
313.15	0.5004	0	973.445	0.554
318.15	0	0.5005	1047.178	0.594
318.15	0.1001	0.3999	1031.771	0.58
318.15	0.2	0.3002	1015.786	1.125
318.15	0.2997	0.2001	1001.375	0.555
318.15	0.3996	0.1	986.242	0.925
318.15	0.5004	0	969.563	0.554
323.15	0	0.5005	1044.2	0.591
323.15	0.1001	0.3999	1028.583	0.577
323.15	0.2	0.3002	1012.385	1.103
323.15	0.2997	0.2001	997.766	0.554
323.15	0.3996	0.1	982.179	0.923
323.15	0.5004	0	965.63	0.554

System: triethanolamine + 2-(ethylamino)ethanol + water; phases: Liquid
Fixed: Pressure, kPa = 101.3
Property: Kinematic viscosity, m2/s (Liquid); method: CAPTUB:UFactor:4
Temperature, K	Mass fraction of 2-(ethylamino)ethanol	Mass fraction of triethanolamine	Kinematic viscosity, m2/s	uncertainty
298.15	0	0.5001	6.4977e-06	1.39e-07
298.15	0.1	0.4002	6.9889e-06	1.491e-07
298.15	0.199	0.2981	7.4902e-06	1.592e-07
298.15	0.2992	0.2032	7.9899e-06	1.697e-07
298.15	0.3965	0.0999	8.4844e-06	1.798e-07
298.15	0.5	0	8.9763e-06	1.906e-07
303.15	0	0.5001	5.4776e-06	1.23e-07
303.15	0.1	0.4002	5.7878e-06	1.304e-07
303.15	0.199	0.2981	6.1345e-06	1.373e-07
303.15	0.2992	0.2032	6.4747e-06	1.448e-07
303.15	0.3965	0.0999	6.8393e-06	1.529e-07
303.15	0.5	0	7.1788e-06	1.604e-07
308.15	0	0.5001	4.5673e-06	1.054e-07
308.15	0.1	0.4002	4.809e-06	1.128e-07
308.15	0.199	0.2981	5.0504e-06	1.175e-07
308.15	0.2992	0.2032	5.2925e-06	1.226e-07
308.15	0.3965	0.0999	5.5349e-06	1.283e-07
308.15	0.5	0	5.778e-06	1.335e-07
313.15	0	0.5001	3.8746e-06	8.93e-08
313.15	0.1	0.4002	4.0485e-06	9.51e-08
313.15	0.199	0.2981	4.2217e-06	9.83e-08
313.15	0.2992	0.2032	4.395e-06	1.029e-07
313.15	0.3965	0.0999	4.5676e-06	1.075e-07
313.15	0.5	0	4.7394e-06	1.121e-07
318.15	0	0.5001	3.3566e-06	7.75e-08
318.15	0.1	0.4002	3.4787e-06	8.1e-08
318.15	0.199	0.2981	3.6006e-06	8.39e-08
318.15	0.2992	0.2032	3.7234e-06	8.72e-08
318.15	0.3965	0.0999	3.8471e-06	9.06e-08
318.15	0.5	0	3.9686e-06	9.39e-08
323.15	0	0.5001	2.9119e-06	6.81e-08
323.15	0.1	0.4002	2.9956e-06	7.04e-08
323.15	0.199	0.2981	3.0813e-06	7.27e-08
323.15	0.2992	0.2032	3.1687e-06	7.52e-08
323.15	0.3965	0.0999	3.2543e-06	7.77e-08
323.15	0.5	0	3.3436e-06	8.03e-08

System: triethanolamine + 2-(ethylamino)ethanol + water; phases: Liquid
Fixed: Pressure, kPa = 101.3
Property: Mass density, kg/m3 (Liquid); method: VIBTUB:UFactor:4
Temperature, K	Mass fraction of 2-(ethylamino)ethanol	Mass fraction of triethanolamine	Mass density, kg/m3	uncertainty
298.15	0	0.5001	1074.721	0.388
298.15	0.1	0.4002	1057.417	0.479
298.15	0.199	0.2981	1038.339	0.446
298.15	0.2992	0.2032	1021.473	0.474
298.15	0.3965	0.0999	1003.376	0.505
298.15	0.5	0	984.792	0.557
303.15	0	0.5001	1071.838	0.385
303.15	0.1	0.4002	1054.469	0.477
303.15	0.199	0.2981	1035.273	0.444
303.15	0.2992	0.2032	1018.153	0.471
303.15	0.3965	0.0999	999.847	0.502
303.15	0.5	0	981.056	0.557
308.15	0	0.5001	1069.172	0.382
308.15	0.1	0.4002	1051.437	0.467
308.15	0.199	0.2981	1031.985	0.441
308.15	0.2992	0.2032	1014.681	0.469
308.15	0.3965	0.0999	996.246	0.502
308.15	0.5	0	977.274	0.556
313.15	0	0.5001	1066.505	0.379
313.15	0.1	0.4002	1048.318	0.449
313.15	0.199	0.2981	1028.684	0.438
313.15	0.2992	0.2032	1011.175	0.466
313.15	0.3965	0.0999	992.611	0.502
313.15	0.5	0	973.445	0.556
318.15	0	0.5001	1063.347	0.376
318.15	0.1	0.4002	1045.111	0.455
318.15	0.199	0.2981	1025.282	0.435
318.15	0.2992	0.2032	1007.534	0.463
318.15	0.3965	0.0999	988.816	0.502
318.15	0.5	0	969.563	0.556
323.15	0	0.5001	1060.2	0.373
323.15	0.1	0.4002	1041.823	0.455
323.15	0.199	0.2981	1021.868	0.432
323.15	0.2992	0.2032	1003.964	0.46
323.15	0.3965	0.0999	985.096	0.502
323.15	0.5	0	965.63	0.556

System: 2-(ethylamino)ethanol + 2-amino-2-methylpropan-1-ol + water; phases: Liquid
Fixed: Pressure, kPa = 101.3
Property: Kinematic viscosity, m2/s (Liquid); method: CAPTUB:UFactor:4
Temperature, K	Mass fraction of 2-(ethylamino)ethanol	Mass fraction of 2-amino-2-methylpropan-1-ol	Kinematic viscosity, m2/s	uncertainty
298.15	0	0.5	1.10091e-05	2.318e-07
298.15	0.1003	0.3998	1.06566e-05	2.246e-07
298.15	0.2	0.3	1.02359e-05	2.173e-07
298.15	0.3	0.2001	9.9325e-06	2.103e-07
298.15	0.3998	0.1001	9.5725e-06	2.011e-07
298.15	0.5	0	8.9763e-06	1.906e-07
303.15	0	0.5	8.5399e-06	1.891e-07
303.15	0.1003	0.3998	8.2763e-06	1.834e-07
303.15	0.2	0.3	7.9853e-06	1.777e-07
303.15	0.3	0.2001	7.7745e-06	4.567e-07
303.15	0.3998	0.1001	7.594e-06	7.53e-07
303.15	0.5	0	7.1783e-06	1.604e-07
308.15	0	0.5	6.8043e-06	1.54e-07
308.15	0.1003	0.3998	6.6539e-06	1.507e-07
308.15	0.2	0.3	6.3994e-06	1.454e-07
308.15	0.3	0.2001	6.189e-06	2.863e-07
308.15	0.3998	0.1001	6.0645e-06	5.96e-07
308.15	0.5	0	5.778e-06	1.335e-07
313.15	0	0.5	5.4428e-06	1.275e-07
313.15	0.1003	0.3998	5.3066e-06	1.247e-07
313.15	0.2	0.3	5.2122e-06	1.226e-07
313.15	0.3	0.2001	5.0427e-06	2.084e-07
313.15	0.3998	0.1001	4.9252e-06	3.905e-07
313.15	0.5	0	4.7394e-06	1.121e-07
318.15	0	0.5	4.4903e-06	1.06e-07
318.15	0.1003	0.3998	4.435e-06	1.046e-07
318.15	0.2	0.3	4.2728e-06	1.013e-07
318.15	0.3	0.2001	4.1878e-06	2.105e-07
318.15	0.3998	0.1001	4.0906e-06	2.531e-07
318.15	0.5	0	3.9686e-06	9.39e-08
323.15	0	0.5	3.7998e-06	9.04e-08
323.15	0.1003	0.3998	3.7109e-06	8.91e-08
323.15	0.2	0.3	3.6122e-06	8.61e-08
323.15	0.3	0.2001	3.5465e-06	8.46e-08
323.15	0.3998	0.1001	3.4744e-06	8.31e-08
323.15	0.5	0	3.3436e-06	8.03e-08

System: 2-(ethylamino)ethanol + 2-amino-2-methylpropan-1-ol + water; phases: Liquid
Fixed: Pressure, kPa = 101.3
Property: Mass density, kg/m3 (Liquid); method: VIBTUB:UFactor:4
Temperature, K	Mass fraction of 2-(ethylamino)ethanol	Mass fraction of 2-amino-2-methylpropan-1-ol	Mass density, kg/m3	uncertainty
298.15	0	0.5	992.713	0.553
298.15	0.1003	0.3998	991.265	0.552
298.15	0.2	0.3	989.904	0.552
298.15	0.3	0.2001	988.342	0.551
298.15	0.3998	0.1001	986.751	0.55
298.15	0.5	0	984.792	0.55
303.15	0	0.5	988.942	0.553
303.15	0.1003	0.3998	987.457	0.552
303.15	0.2	0.3	985.933	0.551
303.15	0.3	0.2001	984.616	0.728
303.15	0.3998	0.1001	982.893	0.632
303.15	0.5	0	981.056	0.549
308.15	0	0.5	985.138	0.552
308.15	0.1003	0.3998	983.624	0.551
308.15	0.2	0.3	982.12	0.55
308.15	0.3	0.2001	980.877	0.634
308.15	0.3998	0.1001	979.208	0.577
308.15	0.5	0	977.274	0.549
313.15	0	0.5	981.292	0.552
313.15	0.1003	0.3998	979.755	0.551
313.15	0.2	0.3	978.353	0.55
313.15	0.3	0.2001	976.895	0.626
313.15	0.3998	0.1001	975.322	0.662
313.15	0.5	0	973.445	0.549
318.15	0	0.5	977.398	0.551
318.15	0.1003	0.3998	975.96	0.55
318.15	0.2	0.3	974.544	0.549
318.15	0.3	0.2001	973.115	0.596
318.15	0.3998	0.1001	971.387	0.608
318.15	0.5	0	969.563	0.548
323.15	0	0.5	973.46	0.551
323.15	0.1003	0.3998	972.017	0.55
323.15	0.2	0.3	970.602	0.549
323.15	0.3	0.2001	969.178	0.549
323.15	0.3998	0.1001	967.598	0.548
323.15	0.5	0	965.63	0.548

System: N-methyldiethanolamine + 2-(ethylamino)ethanol + water; phases: Liquid
Fixed: Pressure, kPa = 101.3
Property: Kinematic viscosity, m2/s (Liquid); method: CAPTUB:UFactor:4
Temperature, K	Mass fraction of 2-(ethylamino)ethanol	Mass fraction of N-methyldiethanolamine	Kinematic viscosity, m2/s	uncertainty
298.15	0	0.4998	9.3827e-06	1.964e-07
298.15	0.1	0.4	9.1276e-06	1.919e-07
298.15	0.1999	0.2996	8.8864e-06	1.874e-07
298.15	0.2984	0.2051	8.6525e-06	1.834e-07
298.15	0.3969	0.0987	8.4202e-06	1.792e-07
298.15	0.5	0	8.1909e-06	1.754e-07
303.15	0	0.4998	7.6064e-06	1.667e-07
303.15	0.1	0.4	7.4066e-06	2.132e-07
303.15	0.1999	0.2996	7.2078e-06	1.605e-07
303.15	0.2984	0.2051	7.0084e-06	1.56e-07
303.15	0.3969	0.0987	6.8109e-06	1.524e-07
303.15	0.5	0	6.6143e-06	1.487e-07
308.15	0	0.4998	6.197e-06	1.398e-07
308.15	0.1	0.4	6.0371e-06	2.02e-07
308.15	0.1999	0.2996	5.879e-06	1.354e-07
308.15	0.2984	0.2051	5.7241e-06	1.313e-07
308.15	0.3969	0.0987	5.5635e-06	1.283e-07
308.15	0.5	0	5.4076e-06	1.253e-07
313.15	0	0.4998	5.1733e-06	1.198e-07
313.15	0.1	0.4	5.0486e-06	1.513e-07
313.15	0.1999	0.2996	4.9243e-06	1.157e-07
313.15	0.2984	0.2051	4.7977e-06	1.124e-07
313.15	0.3969	0.0987	4.6721e-06	1.095e-07
313.15	0.5	0	4.5443e-06	1.067e-07
318.15	0	0.4998	4.4222e-06	1.031e-07
318.15	0.1	0.4	4.3029e-06	1.109e-07
318.15	0.1999	0.2996	4.1837e-06	9.83e-08
318.15	0.2984	0.2051	4.0661e-06	9.57e-08
318.15	0.3969	0.0987	3.9498e-06	9.31e-08
318.15	0.5	0	3.8338e-06	9.07e-08
323.15	0	0.4998	3.7893e-06	8.95e-08
323.15	0.1	0.4	3.6758e-06	8.71e-08
323.15	0.1999	0.2996	3.5624e-06	8.47e-08
323.15	0.2984	0.2051	3.4491e-06	8.24e-08
323.15	0.3969	0.0987	3.3454e-06	8e-08
323.15	0.5	0	3.236e-06	7.77e-08

System: N-methyldiethanolamine + 2-(ethylamino)ethanol + water; phases: Liquid
Fixed: Pressure, kPa = 101.3
Property: Mass density, kg/m3 (Liquid); method: VIBTUB:UFactor:4
Temperature, K	Mass fraction of 2-(ethylamino)ethanol	Mass fraction of N-methyldiethanolamine	Mass density, kg/m3	uncertainty
298.15	0	0.4998	1042.463	0.591
298.15	0.1	0.4	1032.756	0.641
298.15	0.1999	0.2996	1023.518	0.572
298.15	0.2984	0.2051	1014.218	0.572
298.15	0.3969	0.0987	1006.604	0.554
298.15	0.5	0	1000.225	0.553
303.15	0	0.4998	1039.311	0.588
303.15	0.1	0.4	1029.548	0.644
303.15	0.1999	0.2996	1020.219	0.569
303.15	0.2984	0.2051	1010.947	0.569
303.15	0.3969	0.0987	1003.12	0.552
303.15	0.5	0	996.84	0.553
308.15	0	0.4998	1036.077	0.585
308.15	0.1	0.4	1026.259	0.634
308.15	0.1999	0.2996	1016.851	0.566
308.15	0.2984	0.2051	1007.632	0.566
308.15	0.3969	0.0987	999.863	0.549
308.15	0.5	0	993.406	0.552
313.15	0	0.4998	1032.745	0.582
313.15	0.1	0.4	1022.893	0.621
313.15	0.1999	0.2996	1013.405	0.563
313.15	0.2984	0.2051	1004.191	0.564
313.15	0.3969	0.0987	996.505	0.548
313.15	0.5	0	989.916	0.552
318.15	0	0.4998	1029.233	0.579
318.15	0.1	0.4	1019.444	0.592
318.15	0.1999	0.2996	1009.888	0.561
318.15	0.2984	0.2051	1000.71	0.56
318.15	0.3969	0.0987	992.93	0.548
318.15	0.5	0	986.394	0.551
323.15	0	0.4998	1025.854	0.576
323.15	0.1	0.4	1015.915	0.592
323.15	0.1999	0.2996	1006.279	0.558
323.15	0.2984	0.2051	997.19	0.559
323.15	0.3969	0.0987	989.364	0.547
323.15	0.5	0	982.806	0.551
