Measured thermophysical data. Temperature and Pressure Dependence of the Viscosity of the Ionic Liquid 1-Butyl-3-methylimidazolium Hexafluorophosphate
Source: J. Chem. Eng. Data, 2005, 10.1021/je050147b
Compound 1: 1-butyl-3-methylimidazolium hexafluorophosphate, C8H15F6N2P, InChI=1S/C8H15N2.F6P/c1-3-4-5-10-7-6-9(2)8-10;1-7(2,3,4,5)6/h6-8H,3-5H2,1-2H3;/q+1;-1

System: 1-butyl-3-methylimidazolium hexafluorophosphate; phases: Liquid
Fixed: Pressure, kPa = 101.325
Property: Mass density, kg/m3 (Liquid); method: VIBTUB:UFactor:16
Temperature, K	Mass density, kg/m3	uncertainty
273.1	1388.85	4.71
278.1	1384.55	4.69
283.1	1380.27	4.66
288.15	1375.99	4.63
293.15	1371.72	4.61
298.15	1367.45	4.58
303.15	1363.19	4.56
313.15	1354.95	4.51
313.15	1354.96	4.51
323.15	1346.75	4.46
333.15	1338.58	4.42
343.15	1330.45	4.37
353.15	1322.38	4.32
363.15	1314.36	4.28

System: 1-butyl-3-methylimidazolium hexafluorophosphate; phases: Liquid
Property: Viscosity, Pa*s (Liquid); method: SPHERE:UFactor:4
Temperature, K	Pressure, kPa	Viscosity, Pa*s	uncertainty
273.15	100	1.717	0.818
278.15	100	1.119	0.469
283.15	100	0.755	0.276
288.15	100	0.521	0.165
293.15	100	0.369	0.1
298.15	100	0.273	0.063
298.15	12100	0.329	0.084
298.15	24700	0.391	0.109
298.15	25700	0.39	0.108
298.15	50600	0.546	0.176
298.15	75800	0.761	0.279
298.15	100300	1.047	0.429
298.15	125100	1.432	0.648
298.15	125600	1.461	0.665
298.15	150300	1.995	0.991
298.15	174100	2.694	1.447
298.15	100	0.271	0.062
303.15	100	0.202	0.038
308.15	100	0.1584	0.0249
308.15	900	0.1597	0.0253
308.15	9600	0.1791	0.0311
308.15	25800	0.221	0.045
308.15	50300	0.302	0.073
308.15	75600	0.412	0.117
308.15	100300	0.557	0.181
308.15	125200	0.75	0.274
308.15	140600	0.898	0.35
308.15	151000	1.016	0.413
313.15	100	0.12	0.015
313.15	100	0.12	0.0151
323.15	100	0.0736	0.0063
323.15	1300	0.0749	0.0062
323.15	3100	0.0769	0.0065
323.15	5600	0.0782	0.0067
323.15	10700	0.0827	0.0074
323.15	25800	0.0989	0.0105
323.15	50800	0.1278	0.0169
323.15	75800	0.1735	0.0294
323.15	100700	0.224	0.046
323.15	125500	0.281	0.066
323.15	150400	0.371	0.101
323.15	175200	0.481	0.147
323.15	200000	0.616	0.209
323.15	224600	0.784	0.291
323.15	249300	0.995	0.401
323.15	100	0.0741	0.0063
323.15	100	0.0749	0.0065
333.15	100	0.049	0.0035
333.15	10700	0.0558	0.0037
333.15	26200	0.066	0.0049
333.15	51100	0.0856	0.0079
333.15	75700	0.1098	0.0128
333.15	91100	0.128	0.017
333.15	100100	0.1394	0.0198
333.15	100	0.0492	0.0035
333.15	100	0.0499	0.0035
333.15	100	0.0495	0.0035
333.15	100	0.0495	0.0035
343.15	100	0.0351	0.0025
343.15	5500	0.0372	0.0026
343.15	10600	0.0392	0.0028
343.15	25700	0.0456	0.0032
343.15	50600	0.058	0.0039
343.15	75600	0.0737	0.0059
343.15	100600	0.0929	0.0093
343.15	125400	0.1162	0.0142
343.15	140200	0.1326	0.0181
343.15	149900	0.1444	0.021
343.15	172900	0.1761	0.0302
343.15	100	0.0347	0.0025
343.15	100	0.0346	0.0025
353.15	100	0.0255	0.0018
353.15	100	0.0255	0.0018
