Measured thermophysical data. Temperature Effect on the Liquid-Liquid Equilibria for Some Aliphatic Alcohols + Water + K2CO3 Systems
Source: J. Chem. Eng. Data, 2006, 10.1021/je050515b
Compound 1: ethanol, C2H6O, InChI=1S/C2H6O/c1-2-3/h3H,2H2,1H3
Compound 2: water, H2O, InChI=1S/H2O/h1H2
Compound 3: potassium carbonate, CK2O3, InChI=1S/CH2O3.2K/c2-1(3)4;;/h(H2,2,3,4);;/q;2*+1/p-2
Compound 4: propan-1-ol, C3H8O, InChI=1S/C3H8O/c1-2-3-4/h4H,2-3H2,1H3
Compound 5: propan-2-ol, C3H8O, InChI=1S/C3H8O/c1-3(2)4/h3-4H,1-2H3
Compound 6: 2-methylpropan-2-ol, C4H10O, InChI=1S/C4H10O/c1-4(2,3)5/h5H,1-3H3

System: ethanol + potassium carbonate + water; phases: Liquid mixture 1, Liquid mixture 2
Fixed: Temperature, K = 298.15
Fixed: Pressure, kPa = 101
Property: Mass fraction of potassium carbonate (Liquid mixture 1); method: Chromatography
Mass fraction of ethanol	Mass fraction of potassium carbonate	uncertainty
0.146	0.151	0.005
0.175	0.126	0.004
0.205	0.104	0.004
0.237	0.089	0.004
0.265	0.075	0.004
0.325	0.052	0.004
0.372	0.038	0.004
0.415	0.029	0.004

System: ethanol + potassium carbonate + water; phases: Liquid mixture 2, Liquid mixture 1
Fixed: Pressure, kPa = 101
Property: Mass fraction of ethanol (Liquid mixture 2); method: CHROM:UFactor:4
Property: Mass fraction of water (Liquid mixture 1); method: CHROM:UFactor:4
Property: Mass fraction of ethanol (Liquid mixture 1); method: CHROM:UFactor:4
Temperature, K	Mass fraction of water	Mass fraction of ethanol	uncertainty	Mass fraction of water	uncertainty	Mass fraction of ethanol	uncertainty
298.15	0.7061	0.0928	0.0048	0.5304	0.0147	0.4482	
298.15	0.6752	0.0397	0.0031	0.404	0.013	0.586	
298.15	0.635	0.019	0.0022	0.3068	0.0097	0.6874	
298.15	0.5982	0.0138	0.0021	0.2276	0.0073	0.7682	
298.15	0.5514	0.008	0.002	0.1773	0.0058	0.8201	
298.15	0.5016	0.0034	0.002	0.1273	0.0046	0.8717	
308.15	0.6867	0.0712	0.0032	0.494	0.0154	0.4807	
308.15	0.6516	0.0434	0.0027	0.3899	0.0122	0.5929	
308.15	0.6118	0.0256	0.0022	0.3034	0.0096	0.6861	
308.15	0.5642	0.0185	0.0021	0.2049	0.0066	0.7929	
308.15	0.5289	0.0096	0.0021	0.1776	0.0058	0.8211	
308.15	0.4946	0.0041	0.002	0.1227	0.0045	0.8763	
318.15	0.6772	0.072	0.0031	0.5184	0.015	0.4501	
318.15	0.636	0.0457	0.0026	0.3759	0.0118	0.6122	
318.15	0.6035	0.0321	0.0023	0.2867	0.0091	0.7016	
318.15	0.574	0.0228	0.0022	0.2282	0.0073	0.7702	
318.15	0.5296	0.011	0.0021	0.1761	0.0058	0.8227	
318.15	0.5054	0.0083	0.002	0.1214	0.0044	0.8776	

System: propan-1-ol + potassium carbonate + water; phases: Liquid mixture 1, Liquid mixture 2
Fixed: Pressure, kPa = 101
Fixed: Temperature, K = 298.15
Property: Mass fraction of potassium carbonate (Liquid mixture 1); method: Chromatography
Mass fraction of propan-1-ol	Mass fraction of potassium carbonate	uncertainty
0.107	0.125	0.004
0.145	0.103	0.004
0.211	0.074	0.004
0.249	0.061	0.004
0.312	0.044	0.004
0.367	0.033	0.004
0.424	0.024	0.004
0.514	0.014	0.004

System: propan-1-ol + potassium carbonate + water; phases: Liquid mixture 2, Liquid mixture 1
Fixed: Pressure, kPa = 101
Property: Mass fraction of propan-1-ol (Liquid mixture 2); method: CHROM:UFactor:4
Property: Mass fraction of water (Liquid mixture 1); method: CHROM:UFactor:4
Property: Mass fraction of propan-1-ol (Liquid mixture 1); method: CHROM:UFactor:4
Temperature, K	Mass fraction of water	Mass fraction of propan-1-ol	uncertainty	Mass fraction of water	uncertainty	Mass fraction of propan-1-ol	uncertainty
298.15	0.7792	0.0694	0.0367	0.3103	0.0098	0.6857	
298.15	0.7732	0.0426	0.0367	0.2883	0.0091	0.7081	
298.15	0.7298	0.019	0.0089	0.2301	0.0074	0.767	
298.15	0.6943	0.0056	0.0056	0.1642	0.0055	0.8335	
298.15	0.6557	0.0018	0.0018	0.117	0.0043	0.8812	
298.15	0.557	0.0001	0.0001	0.1006	0.0039	0.8991	
308.15	0.7781	0.1328	0.0128	0.3916	0.0123	0.5974	
308.15	0.7264	0.0616	0.0103	0.289	0.0092	0.7065	
308.15	0.676	0.0555	0.0084	0.2068	0.0067	0.7902	
308.15	0.6303	0.0394	0.0082	0.1597	0.0053	0.8374	
308.15	0.5572	0.0351	0.0081	0.1153	0.0043	0.8827	
308.15	0.5124	0.0292	0.0081	0.0895	0.0037	0.9095	
318.15	0.7639	0.1397	0.0116	0.3729	0.0117	0.6147	
318.15	0.7	0.0812	0.0103	0.2666	0.0085	0.7285	
318.15	0.6644	0.0675	0.0086	0.1763	0.0058	0.8199	
318.15	0.6147	0.0529	0.0082	0.1389	0.0048	0.8578	
318.15	0.5478	0.0512	0.0082	0.0982	0.0039	0.8993	
318.15	0.5137	0.0375	0.0087	0.0833	0.0036	0.9157	

System: propan-2-ol + potassium carbonate + water; phases: Liquid mixture 1, Liquid mixture 2
Fixed: Pressure, kPa = 101
Fixed: Temperature, K = 298.15
Property: Mass fraction of potassium carbonate (Liquid mixture 1); method: Chromatography
Mass fraction of propan-2-ol	Mass fraction of potassium carbonate	uncertainty
0.125	0.129	0.004
0.142	0.118	0.004
0.191	0.091	0.004
0.244	0.072	0.004
0.287	0.057	0.004
0.345	0.043	0.004
0.386	0.033	0.004
0.445	0.023	0.004

System: propan-2-ol + potassium carbonate + water; phases: Liquid mixture 2, Liquid mixture 1
Fixed: Pressure, kPa = 101
Property: Mass fraction of propan-2-ol (Liquid mixture 2); method: CHROM:UFactor:4
Property: Mass fraction of water (Liquid mixture 1); method: CHROM:UFactor:4
Property: Mass fraction of propan-2-ol (Liquid mixture 1); method: CHROM:UFactor:4
Temperature, K	Mass fraction of water	Mass fraction of propan-2-ol	uncertainty	Mass fraction of water	uncertainty	Mass fraction of propan-2-ol	uncertainty
298.15	0.7589	0.0899	0.0426	0.4965	0.0155	0.4854	
298.15	0.7486	0.0473	0.0273	0.3909	0.0123	0.5989	
298.15	0.733	0.0221	0.0123	0.3108	0.0098	0.6806	
298.15	0.6979	0.0079	0.0079	0.2426	0.0078	0.7516	
298.15	0.6487	0.0021	0.0021	0.1638	0.0054	0.8323	
298.15	0.5045	0.0005	0.0005	0.0707	0.0034	0.9285	
308.15	0.7743	0.1077	0.0124	0.4228	0.0132	0.5412	
308.15	0.7439	0.0876	0.0144	0.3649	0.0114	0.6301	
308.15	0.7037	0.0356	0.0112	0.2359	0.0076	0.7591	
308.15	0.6309	0.0285	0.0102	0.187	0.0061	0.8095	
308.15	0.5782	0.0196	0.0101	0.138	0.0048	0.8595	
308.15	0.493	0.012	0.0101	0.0606	0.0033	0.9376	
318.15	0.721	0.1234	0.0114	0.4	0.0126	0.5901	
318.15	0.6385	0.0912	0.0113	0.2655	0.0085	0.7262	
318.15	0.5922	0.0652	0.0124	0.1972	0.0064	0.7957	
318.15	0.5629	0.0371	0.0108	0.1538	0.0052	0.8403	
318.15	0.4942	0.0242	0.0101	0.1103	0.0042	0.8846	
318.15	0.4544	0.021	0.0101	0.0514	0.0031	0.9458	

System: 2-methylpropan-2-ol + potassium carbonate + water; phases: Liquid mixture 2, Liquid mixture 1
Fixed: Pressure, kPa = 101
Property: Mass fraction of 2-methylpropan-2-ol (Liquid mixture 2); method: CHROM:UFactor:4
Property: Mass fraction of water (Liquid mixture 1); method: CHROM:UFactor:4
Property: Mass fraction of 2-methylpropan-2-ol (Liquid mixture 1); method: CHROM:UFactor:4
Temperature, K	Mass fraction of water	Mass fraction of 2-methylpropan-2-ol	uncertainty	Mass fraction of water	uncertainty	Mass fraction of 2-methylpropan-2-ol	uncertainty
298.15	0.7991	0.0629	0.017	0.3352	0.0106	0.6648	
298.15	0.7607	0.011	0.0107	0.2389	0.0077	0.7611	
298.15	0.6807	0.0096	0.0096	0.1797	0.0059	0.8203	
298.15	0.6208	0.0089	0.0089	0.1253	0.0045	0.8747	
298.15	0.5359	0.0057	0.0057	0.0788	0.0036	0.9212	
298.15	0.4987	0.0015	0.0015	0.0612	0.0033	0.9388	
305.15	0.7256	0.0404	0.0105	0.2507	0.008	0.7423	
305.15	0.6688	0.0253	0.0104	0.1614	0.0054	0.8317	
305.15	0.6337	0.0195	0.01	0.1137	0.0043	0.881	
305.15	0.5167	0.0098	0.0098	0.068	0.0036	0.9279	
305.15	0.4571	0.0069	0.0069	0.0614	0.0032	0.9351	
305.15	0.4549	0.0021	0.0021	0.0452	0.003	0.9526	
318.15	0.7638	0.019	0.01	0.2181	0.007	0.7749	
318.15	0.642	0.016	0.01	0.129	0.0046	0.865	
318.15	0.5193	0.0105	0.01	0.0582	0.0032	0.9375	
318.15	0.4606	0.0092	0.0092	0.0405	0.003	0.9563	
