Measured thermophysical data. Densities, Refractive indices and Viscosities for Binary and Ternary Mixtures of Acetone, Ethanol and 2,2,4-Trimethylpentane at T = (288.15, 298.15, and 308.15) K
Source: J. Chem. Eng. Data, 2005, 10.1021/je050010l
Compound 1: acetone, C3H6O, InChI=1S/C3H6O/c1-3(2)4/h1-2H3
Compound 2: ethanol, C2H6O, InChI=1S/C2H6O/c1-2-3/h3H,2H2,1H3
Compound 3: 2,2,4-trimethylpentane, C8H18, InChI=1S/C8H18/c1-7(2)6-8(3,4)5/h7H,6H2,1-5H3

System: acetone; phases: Liquid
Fixed: Pressure, kPa = 101.325
Property: Refractive index (Na D-line) (Liquid); method: Standard Abbe refractometry
Temperature, K	Refractive index (Na D-line)	uncertainty
288.15	1.36152	0.00031
298.15	1.35605	0.00031
308.15	1.35057	0.00031

System: acetone; phases: Liquid
Fixed: Pressure, kPa = 100.8
Property: Viscosity, Pa*s (Liquid); method: Capillary tube (Ostwald; Ubbelohde) method
Temperature, K	Viscosity, Pa*s	uncertainty
288.15	0.000334	3e-06
298.15	0.000302	3e-06
308.15	0.000274	3e-06

System: acetone; phases: Liquid
Fixed: Pressure, kPa = 100.8
Property: Mass density, kg/m3 (Liquid); method: VIBTUB:UFactor:2
Temperature, K	Mass density, kg/m3	uncertainty
288.15	796.87	0.22
298.15	785.47	0.23
308.15	773.91	0.24

System: ethanol; phases: Liquid
Fixed: Pressure, kPa = 101.325
Property: Refractive index (Na D-line) (Liquid); method: Standard Abbe refractometry
Temperature, K	Refractive index (Na D-line)	uncertainty
288.15	1.36342	0.00031
298.15	1.35924	0.00031
308.15	1.35502	0.00031

System: ethanol; phases: Liquid
Fixed: Pressure, kPa = 100.8
Property: Viscosity, Pa*s (Liquid); method: Capillary tube (Ostwald; Ubbelohde) method
Temperature, K	Viscosity, Pa*s	uncertainty
288.15	0.001309	1.1e-05
298.15	0.001084	9e-06
308.15	0.000905	8e-06

System: ethanol; phases: Liquid
Fixed: Pressure, kPa = 100.8
Property: Mass density, kg/m3 (Liquid); method: VIBTUB:UFactor:2
Temperature, K	Mass density, kg/m3	uncertainty
288.15	793.74	0.23
298.15	785.17	0.23
308.15	776.49	0.24

System: 2,2,4-trimethylpentane; phases: Liquid
Fixed: Pressure, kPa = 101.325
Property: Refractive index (Na D-line) (Liquid); method: Standard Abbe refractometry
Temperature, K	Refractive index (Na D-line)	uncertainty
288.15	1.39404	0.00031
298.15	1.389	0.00031
308.15	1.38395	0.00031

System: 2,2,4-trimethylpentane; phases: Liquid
Fixed: Pressure, kPa = 100.8
Property: Viscosity, Pa*s (Liquid); method: Capillary tube (Ostwald; Ubbelohde) method
Temperature, K	Viscosity, Pa*s	uncertainty
288.15	0.000537	5e-06
298.15	0.00048	4e-06
308.15	0.000432	4e-06

System: 2,2,4-trimethylpentane; phases: Liquid
Fixed: Pressure, kPa = 100.8
Property: Mass density, kg/m3 (Liquid); method: VIBTUB:UFactor:2
Temperature, K	Mass density, kg/m3	uncertainty
288.15	695.95	0.31
298.15	687.74	0.31
308.15	679.41	0.32

System: ethanol + acetone; phases: Liquid
Fixed: Pressure, kPa = 100.8
Property: Viscosity, Pa*s (Liquid); method: Capillary tube (Ostwald; Ubbelohde) method
Temperature, K	Mole fraction of acetone	Viscosity, Pa*s	uncertainty
288.15	0	0.001309	1.1e-05
288.15	0.05	0.001126	9e-06
288.15	0.1	0.000985	8e-06
288.15	0.15	0.000873	7e-06
288.15	0.2	0.000783	7e-06
288.15	0.25	0.000709	6e-06
288.15	0.3	0.000649	6e-06
288.15	0.35	0.000598	5e-06
288.15	0.4	0.000556	5e-06
288.15	0.45	0.000518	5e-06
288.15	0.4999	0.000488	4e-06
288.15	0.55	0.000461	4e-06
288.15	0.6	0.000438	4e-06
288.15	0.65	0.000418	4e-06
288.15	0.7	0.000401	4e-06
288.15	0.75	0.000386	4e-06
288.15	0.8	0.000373	3e-06
288.15	0.8501	0.000363	3e-06
288.15	0.9	0.000353	3e-06
288.15	0.95	0.000344	3e-06
288.15	1	0.000334	3e-06
298.15	0	0.001084	9e-06
298.15	0.05	0.000944	8e-06
298.15	0.1	0.000829	7e-06
298.15	0.15	0.000741	6e-06
298.15	0.2	0.000669	6e-06
298.15	0.25	0.00061	5e-06
298.15	0.3	0.000561	5e-06
298.15	0.35	0.000521	5e-06
298.15	0.4	0.000486	4e-06
298.15	0.45	0.000457	4e-06
298.15	0.4999	0.000431	4e-06
298.15	0.55	0.000409	4e-06
298.15	0.6	0.00039	4e-06
298.15	0.65	0.000373	3e-06
298.15	0.7	0.000358	3e-06
298.15	0.75	0.000345	3e-06
298.15	0.8	0.000334	3e-06
298.15	0.8501	0.000325	3e-06
298.15	0.9	0.000317	3e-06
298.15	0.95	0.000309	3e-06
298.15	1	0.000302	3e-06
308.15	0	0.000905	8e-06
308.15	0.05	0.000793	7e-06
308.15	0.1	0.000703	6e-06
308.15	0.15	0.000632	5e-06
308.15	0.2	0.000575	5e-06
308.15	0.25	0.000527	5e-06
308.15	0.3	0.000487	4e-06
308.15	0.35	0.000453	4e-06
308.15	0.4	0.000426	4e-06
308.15	0.45	0.000403	4e-06
308.15	0.4999	0.000383	4e-06
308.15	0.55	0.000364	3e-06
308.15	0.6	0.000349	3e-06
308.15	0.65	0.000335	3e-06
308.15	0.7	0.000322	3e-06
308.15	0.75	0.000312	3e-06
308.15	0.8	0.000303	3e-06
308.15	0.8501	0.000295	3e-06
308.15	0.9	0.000288	3e-06
308.15	0.95	0.000281	3e-06
308.15	1	0.000274	3e-06

System: ethanol + acetone; phases: Liquid
Fixed: Pressure, kPa = 100.8
Property: Refractive index (Na D-line) (Liquid); method: Standard Abbe refractometry
Temperature, K	Mole fraction of acetone	Refractive index (Na D-line)	uncertainty
288.15	0	1.36342	0.00031
288.15	0.05	1.36354	0.00031
288.15	0.1	1.3636	0.00031
288.15	0.15	1.36366	0.00031
288.15	0.2	1.36361	0.00031
288.15	0.25	1.36357	0.00031
288.15	0.3	1.3635	0.00031
288.15	0.35	1.36343	0.00031
288.15	0.4	1.36334	0.00031
288.15	0.45	1.36324	0.00031
288.15	0.4999	1.36313	0.00031
288.15	0.55	1.36301	0.00031
288.15	0.6	1.36289	0.00031
288.15	0.65	1.36275	0.00031
288.15	0.7	1.36261	0.00031
288.15	0.75	1.36246	0.00031
288.15	0.8	1.3623	0.00031
288.15	0.8501	1.36214	0.00031
288.15	0.9	1.36198	0.00031
288.15	0.95	1.36177	0.00031
288.15	1	1.36152	0.00031
298.15	0	1.35924	0.00031
298.15	0.05	1.35919	0.00031
298.15	0.1	1.35915	0.00031
298.15	0.15	1.35909	0.00031
298.15	0.2	1.35899	0.00031
298.15	0.25	1.35887	0.00031
298.15	0.3	1.35873	0.00031
298.15	0.35	1.35857	0.00031
298.15	0.4	1.35842	0.00031
298.15	0.45	1.35826	0.00031
298.15	0.4999	1.35809	0.00031
298.15	0.55	1.3579	0.00031
298.15	0.6	1.35771	0.00031
298.15	0.65	1.35753	0.00031
298.15	0.7	1.35734	0.00031
298.15	0.75	1.35713	0.00031
298.15	0.8	1.35692	0.00031
298.15	0.8501	1.35673	0.00031
298.15	0.9	1.35651	0.00031
298.15	0.95	1.35629	0.00031
298.15	1	1.35605	0.00031
308.15	0	1.35502	0.00031
308.15	0.05	1.35486	0.00031
308.15	0.1	1.3547	0.00031
308.15	0.15	1.35454	0.00031
308.15	0.2	1.35435	0.00031
308.15	0.25	1.35414	0.00031
308.15	0.3	1.35391	0.00031
308.15	0.35	1.35369	0.00031
308.15	0.4	1.35346	0.00031
308.15	0.45	1.35324	0.00031
308.15	0.4999	1.353	0.00031
308.15	0.55	1.35276	0.00031
308.15	0.6	1.35251	0.00031
308.15	0.65	1.35228	0.00031
308.15	0.7	1.35203	0.00031
308.15	0.75	1.35177	0.00031
308.15	0.8	1.35152	0.00031
308.15	0.8501	1.35127	0.00031
308.15	0.9	1.35102	0.00031
308.15	0.95	1.3508	0.00031
308.15	1	1.35057	0.00031

System: ethanol + acetone; phases: Liquid
Fixed: Pressure, kPa = 100.8
Property: Mass density, kg/m3 (Liquid); method: VIBTUB:UFactor:2
Temperature, K	Mole fraction of acetone	Mass density, kg/m3	uncertainty
288.15	0	793.74	0.23
288.15	0.05	794.4	0.23
288.15	0.1	794.86	0.23
288.15	0.15	795.23	0.23
288.15	0.2	795.5	0.23
288.15	0.25	795.75	0.23
288.15	0.3	795.99	0.23
288.15	0.35	796.18	0.23
288.15	0.4	796.34	0.23
288.15	0.45	796.46	0.23
288.15	0.4999	796.57	0.23
288.15	0.55	796.68	0.22
288.15	0.6	796.77	0.22
288.15	0.65	796.84	0.22
288.15	0.7	796.86	0.22
288.15	0.75	796.88	0.22
288.15	0.8	796.91	0.22
288.15	0.8501	796.9	0.22
288.15	0.9	796.92	0.22
288.15	0.95	796.91	0.22
288.15	1	796.87	0.22
298.15	0	785.17	0.23
298.15	0.05	785.59	0.23
298.15	0.1	785.84	0.23
298.15	0.15	786	0.23
298.15	0.2	786.08	0.23
298.15	0.25	786.16	0.23
298.15	0.3	786.23	0.23
298.15	0.35	786.24	0.23
298.15	0.4	786.23	0.23
298.15	0.45	786.21	0.23
298.15	0.4999	786.19	0.23
298.15	0.55	786.17	0.23
298.15	0.6	786.13	0.23
298.15	0.65	786.07	0.23
298.15	0.7	786	0.23
298.15	0.75	785.9	0.23
298.15	0.8	785.84	0.23
298.15	0.8501	785.73	0.23
298.15	0.9	785.66	0.23
298.15	0.95	785.57	0.23
298.15	1	785.47	0.23
308.15	0	776.49	0.24
308.15	0.05	776.66	0.24
308.15	0.1	776.66	0.24
308.15	0.15	776.61	0.24
308.15	0.2	776.53	0.24
308.15	0.25	776.41	0.24
308.15	0.3	776.28	0.24
308.15	0.35	776.12	0.24
308.15	0.4	775.96	0.24
308.15	0.45	775.79	0.24
308.15	0.4999	775.63	0.24
308.15	0.55	775.47	0.24
308.15	0.6	775.3	0.24
308.15	0.65	775.13	0.24
308.15	0.7	774.96	0.24
308.15	0.75	774.77	0.24
308.15	0.8	774.59	0.24
308.15	0.8501	774.4	0.24
308.15	0.9	774.23	0.24
308.15	0.95	774.08	0.24
308.15	1	773.91	0.24

System: acetone + 2,2,4-trimethylpentane; phases: Liquid
Fixed: Pressure, kPa = 100.8
Property: Viscosity, Pa*s (Liquid); method: Capillary tube (Ostwald; Ubbelohde) method
Temperature, K	Mole fraction of acetone	Viscosity, Pa*s	uncertainty
288.15	0	0.000537	5e-06
288.15	0.0499	0.000519	5e-06
288.15	0.1	0.000505	4e-06
288.15	0.15	0.000492	4e-06
288.15	0.2	0.000479	4e-06
288.15	0.25	0.000468	4e-06
288.15	0.3	0.000456	4e-06
288.15	0.35	0.000446	4e-06
288.15	0.4	0.000436	4e-06
288.15	0.45	0.000426	4e-06
288.15	0.5	0.000416	4e-06
288.15	0.55	0.000407	4e-06
288.15	0.6	0.000398	4e-06
288.15	0.65	0.000389	4e-06
288.15	0.7	0.00038	3e-06
288.15	0.75	0.000372	3e-06
288.15	0.8	0.000364	3e-06
288.15	0.85	0.000356	3e-06
288.15	0.9	0.000348	3e-06
288.15	0.95	0.000341	3e-06
288.15	1	0.000334	3e-06
298.15	0	0.00048	4e-06
298.15	0.0499	0.000465	4e-06
298.15	0.1	0.000452	4e-06
298.15	0.15	0.00044	4e-06
298.15	0.2	0.000429	4e-06
298.15	0.25	0.000419	4e-06
298.15	0.3	0.000409	4e-06
298.15	0.35	0.000399	4e-06
298.15	0.4	0.00039	4e-06
298.15	0.45	0.000382	4e-06
298.15	0.5	0.000374	3e-06
298.15	0.55	0.000366	3e-06
298.15	0.6	0.000358	3e-06
298.15	0.65	0.00035	3e-06
298.15	0.7	0.000343	3e-06
298.15	0.75	0.000336	3e-06
298.15	0.8	0.000329	3e-06
298.15	0.85	0.000322	3e-06
298.15	0.9	0.000315	3e-06
298.15	0.95	0.000309	3e-06
298.15	1	0.000302	3e-06
308.15	0	0.000432	4e-06
308.15	0.0499	0.00042	4e-06
308.15	0.1	0.000408	4e-06
308.15	0.15	0.000397	4e-06
308.15	0.2	0.000387	4e-06
308.15	0.25	0.000378	3e-06
308.15	0.3	0.000369	3e-06
308.15	0.35	0.000361	3e-06
308.15	0.4	0.000353	3e-06
308.15	0.45	0.000346	3e-06
308.15	0.5	0.000338	3e-06
308.15	0.55	0.000332	3e-06
308.15	0.6	0.000325	3e-06
308.15	0.65	0.000318	3e-06
308.15	0.7	0.000312	3e-06
308.15	0.75	0.000306	3e-06
308.15	0.8	0.000299	3e-06
308.15	0.85	0.000293	3e-06
308.15	0.9	0.000287	3e-06
308.15	0.95	0.000281	3e-06
308.15	1	0.000274	3e-06

System: acetone + 2,2,4-trimethylpentane; phases: Liquid
Fixed: Pressure, kPa = 100.8
Property: Refractive index (Na D-line) (Liquid); method: Standard Abbe refractometry
Temperature, K	Mole fraction of acetone	Refractive index (Na D-line)	uncertainty
288.15	0	1.39404	0.00031
288.15	0.0499	1.39283	0.00031
288.15	0.1	1.39158	0.00031
288.15	0.15	1.39031	0.00031
288.15	0.2	1.38905	0.00031
288.15	0.25	1.38769	0.00031
288.15	0.3	1.3864	0.00031
288.15	0.35	1.38509	0.00031
288.15	0.4	1.38374	0.00031
288.15	0.45	1.38233	0.00031
288.15	0.5	1.38086	0.00031
288.15	0.55	1.37934	0.00031
288.15	0.6	1.37774	0.00031
288.15	0.65	1.37606	0.00031
288.15	0.7	1.3743	0.00031
288.15	0.75	1.37243	0.00031
288.15	0.8	1.37045	0.00031
288.15	0.85	1.36839	0.00031
288.15	0.9	1.36624	0.00031
288.15	0.95	1.36394	0.00031
288.15	1	1.36152	0.00031
298.15	0	1.389	0.00031
298.15	0.0499	1.38765	0.00031
298.15	0.1	1.38634	0.00031
298.15	0.15	1.38501	0.00031
298.15	0.2	1.38374	0.00031
298.15	0.25	1.3824	0.00031
298.15	0.3	1.3811	0.00031
298.15	0.35	1.37975	0.00031
298.15	0.4	1.37833	0.00031
298.15	0.45	1.37687	0.00031
298.15	0.5	1.37538	0.00031
298.15	0.55	1.37379	0.00031
298.15	0.6	1.37219	0.00031
298.15	0.65	1.3705	0.00031
298.15	0.7	1.3687	0.00031
298.15	0.75	1.36683	0.00031
298.15	0.8	1.36486	0.00031
298.15	0.85	1.36279	0.00031
298.15	0.9	1.36064	0.00031
298.15	0.95	1.35838	0.00031
298.15	1	1.35605	0.00031
308.15	0	1.38395	0.00031
308.15	0.0499	1.38256	0.00031
308.15	0.1	1.38119	0.00031
308.15	0.15	1.37981	0.00031
308.15	0.2	1.37848	0.00031
308.15	0.25	1.3771	0.00031
308.15	0.3	1.37574	0.00031
308.15	0.35	1.37434	0.00031
308.15	0.4	1.3729	0.00031
308.15	0.45	1.37142	0.00031
308.15	0.5	1.36989	0.00031
308.15	0.55	1.36831	0.00031
308.15	0.6	1.36666	0.00031
308.15	0.65	1.36495	0.00031
308.15	0.7	1.36314	0.00031
308.15	0.75	1.36126	0.00031
308.15	0.8	1.35931	0.00031
308.15	0.85	1.35726	0.00031
308.15	0.9	1.3551	0.00031
308.15	0.95	1.35285	0.00031
308.15	1	1.35057	0.00031

System: acetone + 2,2,4-trimethylpentane; phases: Liquid
Fixed: Pressure, kPa = 100.8
Property: Mass density, kg/m3 (Liquid); method: VIBTUB:UFactor:2
Temperature, K	Mole fraction of acetone	Mass density, kg/m3	uncertainty
288.15	0	695.95	0.31
288.15	0.0499	697.34	0.31
288.15	0.1	698.86	0.31
288.15	0.15	700.68	0.3
288.15	0.2	702.68	0.3
288.15	0.25	705.09	0.3
288.15	0.3	707.68	0.3
288.15	0.35	710.55	0.29
288.15	0.4	713.76	0.29
288.15	0.45	717.31	0.29
288.15	0.5	721.15	0.29
288.15	0.55	725.46	0.28
288.15	0.6	730.17	0.28
288.15	0.65	735.45	0.27
288.15	0.7	741.35	0.27
288.15	0.75	747.84	0.26
288.15	0.8	755.3	0.26
288.15	0.85	763.58	0.25
288.15	0.9	773.12	0.24
288.15	0.95	784.18	0.24
288.15	1	796.87	0.22
298.15	0	687.74	0.31
298.15	0.0499	688.89	0.31
298.15	0.1	690.36	0.31
298.15	0.15	692.07	0.31
298.15	0.2	693.98	0.31
298.15	0.25	696.24	0.31
298.15	0.3	698.7	0.3
298.15	0.35	701.44	0.3
298.15	0.4	704.51	0.3
298.15	0.45	707.86	0.3
298.15	0.5	711.61	0.29
298.15	0.55	715.73	0.29
298.15	0.6	720.32	0.29
298.15	0.65	725.44	0.28
298.15	0.7	731.16	0.28
298.15	0.75	737.51	0.27
298.15	0.8	744.71	0.27
298.15	0.85	752.89	0.26
298.15	0.9	762.22	0.25
298.15	0.95	773.02	0.24
298.15	1	785.47	0.23
308.15	0	679.41	0.32
308.15	0.0499	680.44	0.32
308.15	0.1	681.77	0.32
308.15	0.15	683.36	0.32
308.15	0.2	685.16	0.31
308.15	0.25	687.26	0.31
308.15	0.3	689.56	0.31
308.15	0.35	692.21	0.31
308.15	0.4	695.1	0.31
308.15	0.45	698.29	0.3
308.15	0.5	701.91	0.3
308.15	0.55	705.86	0.3
308.15	0.6	710.3	0.29
308.15	0.65	715.27	0.29
308.15	0.7	720.79	0.28
308.15	0.75	727.01	0.28
308.15	0.8	733.99	0.27
308.15	0.85	742.02	0.27
308.15	0.9	751.12	0.26
308.15	0.95	761.68	0.25
308.15	1	773.91	0.24

System: ethanol + 2,2,4-trimethylpentane; phases: Liquid
Fixed: Pressure, kPa = 100.8
Property: Viscosity, Pa*s (Liquid); method: Capillary tube (Ostwald; Ubbelohde) method
Temperature, K	Mole fraction of ethanol	Viscosity, Pa*s	uncertainty
288.15	0	0.000537	5e-06
288.15	0.0502	0.000532	5e-06
288.15	0.1	0.000535	5e-06
288.15	0.15	0.000542	5e-06
288.15	0.2	0.000551	5e-06
288.15	0.25	0.000564	5e-06
288.15	0.3	0.00058	5e-06
288.15	0.35	0.000601	5e-06
288.15	0.4	0.000625	5e-06
288.15	0.45	0.000652	6e-06
288.15	0.5	0.000682	6e-06
288.15	0.55	0.000718	6e-06
288.15	0.6	0.000755	6e-06
288.15	0.65	0.000797	7e-06
288.15	0.7	0.000843	7e-06
288.15	0.75	0.000894	7e-06
288.15	0.8	0.000952	8e-06
288.15	0.85	0.001018	8e-06
288.15	0.9	0.001095	9e-06
288.15	0.95	0.00119	1e-05
288.15	1	0.001309	1.1e-05
298.15	0	0.00048	4e-06
298.15	0.0502	0.000473	4e-06
298.15	0.1	0.000476	4e-06
298.15	0.15	0.00048	4e-06
298.15	0.2	0.000487	4e-06
298.15	0.25	0.000497	4e-06
298.15	0.3	0.00051	5e-06
298.15	0.35	0.000526	5e-06
298.15	0.4	0.000543	5e-06
298.15	0.45	0.000565	5e-06
298.15	0.5	0.000588	5e-06
298.15	0.55	0.000615	5e-06
298.15	0.6	0.000645	6e-06
298.15	0.65	0.000677	6e-06
298.15	0.7	0.000715	6e-06
298.15	0.75	0.000755	6e-06
298.15	0.8	0.000801	7e-06
298.15	0.85	0.000854	7e-06
298.15	0.9	0.000915	8e-06
298.15	0.95	0.000991	8e-06
298.15	1	0.001084	9e-06
308.15	0	0.000432	4e-06
308.15	0.0502	0.000424	4e-06
308.15	0.1	0.000426	4e-06
308.15	0.15	0.000429	4e-06
308.15	0.2	0.000434	4e-06
308.15	0.25	0.000441	4e-06
308.15	0.3	0.000451	4e-06
308.15	0.35	0.000462	4e-06
308.15	0.4	0.000476	4e-06
308.15	0.45	0.000492	4e-06
308.15	0.5	0.00051	4e-06
308.15	0.55	0.000531	5e-06
308.15	0.6	0.000554	5e-06
308.15	0.65	0.00058	5e-06
308.15	0.7	0.000609	5e-06
308.15	0.75	0.000642	6e-06
308.15	0.8	0.000678	6e-06
308.15	0.85	0.00072	6e-06
308.15	0.9	0.000769	6e-06
308.15	0.95	0.000828	7e-06
308.15	1	0.000905	8e-06

System: ethanol + 2,2,4-trimethylpentane; phases: Liquid
Fixed: Pressure, kPa = 100.8
Property: Refractive index (Na D-line) (Liquid); method: Standard Abbe refractometry
Temperature, K	Mole fraction of ethanol	Refractive index (Na D-line)	uncertainty
288.15	0	1.39404	0.00031
288.15	0.0502	1.39319	0.00031
288.15	0.1	1.39241	0.00031
288.15	0.15	1.39162	0.00031
288.15	0.2	1.39081	0.00031
288.15	0.25	1.38996	0.00031
288.15	0.3	1.38907	0.00031
288.15	0.35	1.38811	0.00031
288.15	0.4	1.38709	0.00031
288.15	0.45	1.38597	0.00031
288.15	0.5	1.38479	0.00031
288.15	0.55	1.3835	0.00031
288.15	0.6	1.38209	0.00031
288.15	0.65	1.38055	0.00031
288.15	0.7	1.37884	0.00031
288.15	0.75	1.37694	0.00031
288.15	0.8	1.37484	0.00031
288.15	0.85	1.37249	0.00031
288.15	0.9	1.36984	0.00031
288.15	0.95	1.36684	0.00031
288.15	1	1.36342	0.00031
298.15	0	1.389	0.00031
298.15	0.0502	1.3881	0.00031
298.15	0.1	1.3873	0.00031
298.15	0.15	1.38651	0.00031
298.15	0.2	1.38569	0.00031
298.15	0.25	1.38485	0.00031
298.15	0.3	1.38397	0.00031
298.15	0.35	1.38304	0.00031
298.15	0.4	1.38204	0.00031
298.15	0.45	1.38099	0.00031
298.15	0.5	1.37984	0.00031
298.15	0.55	1.37858	0.00031
298.15	0.6	1.37722	0.00031
298.15	0.65	1.37573	0.00031
298.15	0.7	1.37408	0.00031
298.15	0.75	1.37225	0.00031
298.15	0.8	1.3702	0.00031
298.15	0.85	1.36792	0.00031
298.15	0.9	1.36536	0.00031
298.15	0.95	1.36248	0.00031
298.15	1	1.35924	0.00031
308.15	0	1.38395	0.00031
308.15	0.0502	1.38297	0.00031
308.15	0.1	1.38217	0.00031
308.15	0.15	1.38138	0.00031
308.15	0.2	1.38056	0.00031
308.15	0.25	1.37972	0.00031
308.15	0.3	1.37885	0.00031
308.15	0.35	1.37794	0.00031
308.15	0.4	1.37696	0.00031
308.15	0.45	1.37593	0.00031
308.15	0.5	1.3748	0.00031
308.15	0.55	1.37358	0.00031
308.15	0.6	1.37227	0.00031
308.15	0.65	1.37083	0.00031
308.15	0.7	1.36922	0.00031
308.15	0.75	1.36745	0.00031
308.15	0.8	1.3655	0.00031
308.15	0.85	1.3633	0.00031
308.15	0.9	1.36085	0.00031
308.15	0.95	1.35812	0.00031
308.15	1	1.35502	0.00031

System: ethanol + 2,2,4-trimethylpentane; phases: Liquid
Fixed: Pressure, kPa = 100.8
Property: Mass density, kg/m3 (Liquid); method: VIBTUB:UFactor:2
Temperature, K	Mole fraction of ethanol	Mass density, kg/m3	uncertainty
288.15	0	695.95	0.31
288.15	0.0502	697.2	0.31
288.15	0.1	698.76	0.31
288.15	0.15	700.55	0.3
288.15	0.2	702.53	0.3
288.15	0.25	704.71	0.3
288.15	0.3	707.1	0.3
288.15	0.35	709.71	0.3
288.15	0.4	712.6	0.29
288.15	0.45	715.8	0.29
288.15	0.5	719.31	0.29
288.15	0.55	723.22	0.28
288.15	0.6	727.55	0.28
288.15	0.65	732.37	0.28
288.15	0.7	737.81	0.27
288.15	0.75	743.99	0.27
288.15	0.8	751.11	0.26
288.15	0.85	759.27	0.25
288.15	0.9	768.81	0.25
288.15	0.95	780.26	0.24
288.15	1	793.74	0.23
298.15	0	687.74	0.31
298.15	0.0502	688.84	0.31
298.15	0.1	690.33	0.31
298.15	0.15	692.11	0.31
298.15	0.2	694.07	0.31
298.15	0.25	696.21	0.31
298.15	0.3	698.57	0.3
298.15	0.35	701.17	0.3
298.15	0.4	704.03	0.3
298.15	0.45	707.2	0.3
298.15	0.5	710.68	0.29
298.15	0.55	714.59	0.29
298.15	0.6	718.9	0.29
298.15	0.65	723.73	0.28
298.15	0.7	729.14	0.28
298.15	0.75	735.34	0.27
298.15	0.8	742.37	0.27
298.15	0.85	750.54	0.26
298.15	0.9	760.17	0.25
298.15	0.95	771.59	0.25
298.15	1	785.17	0.23
308.15	0	679.41	0.32
308.15	0.0502	680.36	0.32
308.15	0.1	681.76	0.32
308.15	0.15	683.52	0.32
308.15	0.2	685.43	0.31
308.15	0.25	687.56	0.31
308.15	0.3	689.88	0.31
308.15	0.35	692.45	0.31
308.15	0.4	695.3	0.31
308.15	0.45	698.44	0.3
308.15	0.5	701.91	0.3
308.15	0.55	705.8	0.3
308.15	0.6	710.11	0.29
308.15	0.65	714.93	0.29
308.15	0.7	720.34	0.29
308.15	0.75	726.54	0.28
308.15	0.8	733.58	0.27
308.15	0.85	741.75	0.27
308.15	0.9	751.44	0.26
308.15	0.95	762.84	0.25
308.15	1	776.49	0.24

System: ethanol + acetone + 2,2,4-trimethylpentane; phases: Liquid
Fixed: Temperature, K = 298.15
Fixed: Pressure, kPa = 100.8
Property: Viscosity, Pa*s (Liquid); method: Capillary tube (Ostwald; Ubbelohde) method
Mole fraction of acetone	Mole fraction of ethanol	Viscosity, Pa*s	uncertainty
0.05	0.0501	0.000459	4e-06
0.05	0.1	0.000464	4e-06
0.05	0.2001	0.000477	4e-06
0.05	0.3	0.000495	4e-06
0.05	0.4001	0.000523	5e-06
0.05	0.5	0.000563	5e-06
0.05	0.7	0.000673	6e-06
0.05	0.8	0.000753	6e-06
0.05	0.9	0.000864	7e-06
0.0502	0.5999	0.000612	5e-06
0.1	0.15	0.000457	4e-06
0.1	0.25	0.000473	4e-06
0.1	0.35	0.000492	4e-06
0.1	0.45	0.000527	5e-06
0.1	0.55	0.000566	5e-06
0.1	0.65	0.000615	5e-06
0.1	0.75	0.000679	6e-06
0.1	0.85	0.000771	6e-06
0.1002	0.05	0.000448	4e-06
0.1999	0.0501	0.000427	4e-06
0.2	0.25	0.000451	4e-06
0.2	0.45	0.000495	4e-06
0.2	0.55	0.000526	5e-06
0.2	0.65	0.000569	5e-06
0.2	0.75	0.000627	5e-06
0.2001	0.15	0.000437	4e-06
0.2001	0.35	0.000469	4e-06
0.3	0.05	0.000408	4e-06
0.3	0.15	0.000416	4e-06
0.3	0.25	0.000427	4e-06
0.3	0.35	0.000443	4e-06
0.3	0.45	0.000466	4e-06
0.3	0.55	0.000495	4e-06
0.3	0.65	0.000533	5e-06
0.4	0.1499	0.000397	4e-06
0.4	0.2599	0.000405	4e-06
0.4	0.35	0.00042	4e-06
0.4	0.45	0.000438	4e-06
0.4	0.55	0.000466	4e-06
0.4001	0.0499	0.000392	4e-06
0.4999	0.2501	0.000386	4e-06
0.5	0.0499	0.000374	3e-06
0.5	0.15	0.000378	3e-06
0.5	0.3501	0.000396	4e-06
0.5	0.4501	0.000414	4e-06
0.5999	0.0501	0.000357	3e-06
0.6	0.1501	0.00036	3e-06
0.6	0.25	0.000366	3e-06
0.6	0.35	0.000377	3e-06
0.7	0.15	0.000341	3e-06
0.7	0.25	0.00035	3e-06
0.7004	0.05	0.00034	3e-06
0.8	0.05	0.000324	3e-06
0.8	0.15	0.000328	3e-06
0.9	0.05	0.000312	3e-06

System: ethanol + acetone + 2,2,4-trimethylpentane; phases: Liquid
Fixed: Temperature, K = 298.15
Fixed: Pressure, kPa = 100.8
Property: Refractive index (Na D-line) (Liquid); method: Standard Abbe refractometry
Mole fraction of acetone	Mole fraction of ethanol	Refractive index (Na D-line)	uncertainty
0.05	0.0501	1.3867	0.00031
0.05	0.1	1.38591	0.00031
0.05	0.2001	1.38426	0.00031
0.05	0.3	1.38247	0.00031
0.05	0.4001	1.38041	0.00031
0.05	0.5	1.37803	0.00031
0.05	0.7	1.37179	0.00031
0.05	0.8	1.36758	0.00031
0.05	0.9	1.3623	0.00031
0.0502	0.5999	1.37522	0.00031
0.1	0.15	1.38377	0.00031
0.1	0.25	1.38198	0.00031
0.1	0.35	1.37997	0.00031
0.1	0.45	1.37762	0.00031
0.1	0.55	1.37483	0.00031
0.1	0.65	1.37145	0.00031
0.1	0.75	1.3673	0.00031
0.1	0.85	1.36217	0.00031
0.1002	0.05	1.38543	0.00031
0.1999	0.0501	1.38283	0.00031
0.2	0.25	1.37909	0.00031
0.2	0.45	1.37402	0.00031
0.2	0.55	1.37077	0.00031
0.2	0.65	1.36678	0.00031
0.2	0.75	1.36184	0.00031
0.2001	0.15	1.38106	0.00031
0.2001	0.35	1.37675	0.00031
0.3	0.05	1.38011	0.00031
0.3	0.15	1.37814	0.00031
0.3	0.25	1.37588	0.00031
0.3	0.35	1.37322	0.00031
0.3	0.45	1.37004	0.00031
0.3	0.55	1.36621	0.00031
0.3	0.65	1.36146	0.00031
0.4	0.1499	1.37505	0.00031
0.4	0.2599	1.37244	0.00031
0.4	0.35	1.36932	0.00031
0.4	0.45	1.36558	0.00031
0.4	0.55	1.36101	0.00031
0.4001	0.0499	1.37725	0.00031
0.4999	0.2501	1.36862	0.00031
0.5	0.0499	1.37421	0.00031
0.5	0.15	1.37166	0.00031
0.5	0.3501	1.36497	0.00031
0.5	0.4501	1.36057	0.00031
0.5999	0.0501	1.37084	0.00031
0.6	0.1501	1.36788	0.00031
0.6	0.25	1.36434	0.00031
0.6	0.35	1.3601	0.00031
0.7	0.15	1.36375	0.00031
0.7	0.25	1.35964	0.00031
0.7004	0.05	1.36715	0.00031
0.8	0.05	1.36308	0.00031
0.8	0.15	1.35912	0.00031
0.9	0.05	1.35859	0.00031

System: ethanol + acetone + 2,2,4-trimethylpentane; phases: Liquid
Fixed: Temperature, K = 298.15
Fixed: Pressure, kPa = 100.8
Property: Mass density, kg/m3 (Liquid); method: Vibrating tube method
Mole fraction of acetone	Mole fraction of ethanol	Mass density, kg/m3	uncertainty
0.05	0.0501	690.31	
0.05	0.1	692.06	
0.05	0.2001	696.22	
0.05	0.3	701.22	
0.05	0.4001	707.3	
0.05	0.5	714.66	
0.05	0.7	735.46	
0.05	0.8	750.83	
0.05	0.9	771.82	
0.0502	0.5999	723.83	
0.1	0.15	696.2	
0.1	0.25	701.25	
0.1	0.35	707.36	
0.1	0.45	714.77	
0.1	0.55	724	
0.1	0.65	735.79	
0.1	0.75	751.1	
0.1	0.85	772.09	
0.1002	0.05	692.05	
0.1999	0.0501	696.2	
0.2	0.25	707.52	
0.2	0.45	724.31	
0.2	0.55	736.05	
0.2	0.65	751.47	
0.2	0.75	772.44	
0.2001	0.15	701.33	
0.2001	0.35	714.99	
0.3	0.05	701.41	
0.3	0.15	707.67	
0.3	0.25	715.25	
0.3	0.35	724.57	
0.3	0.45	736.44	
0.3	0.55	751.77	
0.3	0.65	772.69	
0.4	0.1499	715.49	
0.4	0.2599	724.91	
0.4	0.35	736.7	
0.4	0.45	752.02	
0.4	0.55	772.83	
0.4001	0.0499	707.82	
0.4999	0.2501	736.96	
0.5	0.0499	715.67	
0.5	0.15	725.11	
0.5	0.3501	752.31	
0.5	0.4501	772.89	
0.5999	0.0501	725.36	
0.6	0.1501	737.23	
0.6	0.25	752.56	
0.6	0.35	772.97	
0.7	0.15	752.69	
0.7	0.25	773.05	
0.7004	0.05	737.53	
0.8	0.05	752.89	
0.8	0.15	773.04	
0.9	0.05	773.14	
