Measured thermophysical data. (p, rho, T) Properties and Apparent Molar Volumes V(phi) of ZnCl2 in CH3OH
Source: J. Chem. Eng. Data, 2006, 10.1021/je050509f
Compound 1: zinc chloride, Cl2Zn, InChI=1S/2ClH.Zn/h2*1H;/q;;+2/p-2, purity 99.8%
Compound 2: methanol, CH4O, InChI=1S/CH4O/c1-2/h2H,1H3

System: methanol + zinc chloride; phases: Liquid
Property: Mass density, kg/m3 (Liquid); method: Vibrating tube method
Molality, mol/kg of zinc chloride	Temperature, K	Pressure, kPa	Mass density, kg/m3	uncertainty
0.13476	298.27	205	801.32	0.43
0.13476	298.27	5004	805.97	0.44
0.13476	298.27	10000	810.57	0.45
0.13476	298.27	15010	814.96	0.46
0.13476	298.27	20007	819.13	0.47
0.13476	298.27	24999	823.11	0.48
0.13476	298.27	30002	826.95	0.5
0.13476	298.27	34993	830.61	0.51
0.13476	298.27	40006	834.16	0.53
0.13476	323.24	209	777.17	0.43
0.13476	323.24	4990	782.51	0.44
0.13476	323.24	10003	787.77	0.45
0.13476	323.24	14999	792.71	0.47
0.13476	323.24	20000	797.39	0.48
0.13476	323.24	24994	801.85	0.5
0.13476	323.24	29993	806.09	0.52
0.13476	323.24	35007	810.14	0.53
0.13476	323.24	39997	814	0.55
0.13476	348.27	308	752.15	0.43
0.13476	348.27	4989	758.25	0.44
0.13476	348.27	9993	764.3	0.46
0.13476	348.27	14999	769.95	0.48
0.13476	348.27	19998	775.25	0.49
0.13476	348.27	24994	780.25	0.51
0.13476	348.27	29998	785.01	0.53
0.13476	348.27	34998	789.52	0.56
0.13476	348.27	39998	793.81	0.58
0.13476	373.3	533	725.48	0.44
0.13476	373.3	4995	732.41	0.45
0.13476	373.3	9985	739.51	0.47
0.13476	373.3	15001	746.08	0.49
0.13476	373.3	19986	752.14	0.51
0.13476	373.3	24992	757.83	0.52
0.13476	373.3	29985	763.18	0.56
0.13476	373.3	35008	768.23	0.58
0.13476	373.3	39993	773.04	0.61
0.13476	398.33	893	695.88	0.44
0.13476	398.33	4994	703.77	0.46
0.13476	398.33	9984	712.39	0.48
0.13476	398.33	14988	720.18	0.5
0.13476	398.33	19984	727.3	0.53
0.13476	398.33	25003	733.89	0.55
0.13476	398.33	29996	740.01	0.58
0.13476	398.33	34993	745.75	0.61
0.13476	398.33	39989	751.12	0.64
0.47677	298.27	188	833.84	0.42
0.47677	298.27	4994	838	0.43
0.47677	298.27	10004	841.99	0.44
0.47677	298.27	14982	845.9	0.45
0.47677	298.27	20018	849.66	0.46
0.47677	298.27	25032	853.57	0.47
0.47677	298.27	30004	857.56	0.48
0.47677	298.27	34993	862.15	0.49
0.47677	298.27	39997	866.01	0.5
0.47677	323.24	207	808.23	0.43
0.47677	323.24	4985	813.47	0.43
0.47677	323.24	9994	818.67	0.44
0.47677	323.24	14982	823.55	0.45
0.47677	323.24	19995	828.21	0.47
0.47677	323.24	24999	832.65	0.48
0.47677	323.24	29987	836.86	0.49
0.47677	323.24	35003	840.94	0.51
0.47677	323.24	39994	844.83	0.52
0.47677	348.27	320	782.8	0.43
0.47677	348.27	4983	788.73	0.44
0.47677	348.27	9998	794.7	0.45
0.47677	348.27	14985	800.24	0.46
0.47677	348.27	19989	805.48	0.48
0.47677	348.27	24996	810.44	0.49
0.47677	348.27	29985	815.14	0.51
0.47677	348.27	34987	819.64	0.53
0.47677	348.27	40007	823.94	0.54
0.47677	373.3	527	755.9	0.43
0.47677	373.3	4990	762.64	0.44
0.47677	373.3	9984	769.58	0.46
0.47677	373.3	14985	776	0.47
0.47677	373.3	19987	781.98	0.49
0.47677	373.3	24985	787.59	0.51
0.47677	373.3	30012	792.89	0.53
0.47677	373.3	34987	797.89	0.55
0.47677	373.3	40000	802.68	0.57
0.47677	398.33	908	726.55	0.44
0.47677	398.33	4981	734.09	0.45
0.47677	398.33	9983	742.44	0.47
0.47677	398.33	14993	750.05	0.49
0.47677	398.33	19994	757.02	0.51
0.47677	398.33	24992	763.47	0.53
0.47677	398.33	30005	769.51	0.55
0.47677	398.33	34992	775.14	0.58
0.47677	398.33	40002	780.53	0.6
0.80178	298.27	170	861.37	0.42
0.80178	298.27	4996	865.98	0.43
0.80178	298.27	9995	870.53	0.43
0.80178	298.27	15000	874.88	0.44
0.80178	298.27	20001	879.03	0.44
0.80178	298.27	24988	883.01	0.45
0.80178	298.27	30004	886.87	0.46
0.80178	298.27	34992	890.56	0.47
0.80178	298.27	39997	894.15	0.47
0.80178	323.24	233	835.94	0.42
0.80178	323.24	4983	841.09	0.43
0.80178	323.24	10002	846.25	0.44
0.80178	323.24	15002	851.11	0.44
0.80178	323.24	19999	855.74	0.45
0.80178	323.24	24989	860.16	0.46
0.80178	323.24	29989	864.4	0.47
0.80178	323.24	34998	868.48	0.48
0.80178	323.24	39995	872.4	0.49
0.80178	348.27	328	810.17	0.43
0.80178	348.27	4999	816.01	0.43
0.80178	348.27	9992	821.86	0.44
0.80178	348.27	14985	827.35	0.45
0.80178	348.27	19994	832.56	0.46
0.80178	348.27	24989	837.48	0.48
0.80178	348.27	29987	842.17	0.49
0.80178	348.27	34988	846.66	0.5
0.80178	348.27	39999	850.97	0.51
0.80178	373.3	523	783.25	0.43
0.80178	373.3	4994	789.83	0.44
0.80178	373.3	9984	796.61	0.45
0.80178	373.3	15005	802.94	0.46
0.80178	373.3	20005	808.85	0.48
0.80178	373.3	24990	814.38	0.49
0.80178	373.3	29997	819.65	0.51
0.80178	373.3	34983	824.61	0.52
0.80178	373.3	39991	829.37	0.54
0.80178	398.33	907	754.11	0.43
0.80178	398.33	4988	761.4	0.44
0.80178	398.33	9984	769.52	0.46
0.80178	398.33	14994	776.95	0.47
0.80178	398.33	19982	783.77	0.49
0.80178	398.33	25006	790.16	0.51
0.80178	398.33	29994	796.1	0.53
0.80178	398.33	35011	801.72	0.55
0.80178	398.33	39992	807.01	0.57
1.03861	298.27	203	881.26	0.42
1.03861	298.27	4985	885.56	0.42
1.03861	298.27	9997	889.93	0.43
1.03861	298.27	14987	894.12	0.43
1.03861	298.27	19985	898.15	0.44
1.03861	298.27	25003	902.02	0.44
1.03861	298.27	30007	905.8	0.45
1.03861	298.27	34983	909.4	0.45
1.03861	298.27	39991	912.9	0.46
1.03861	323.24	220	855.22	0.42
1.03861	323.24	4994	860.28	0.43
1.03861	323.24	10005	865.32	0.43
1.03861	323.24	14999	870.09	0.44
1.03861	323.24	20003	874.64	0.44
1.03861	323.24	24990	878.98	0.45
1.03861	323.24	30007	883.18	0.46
1.03861	323.24	34989	887.17	0.47
1.03861	323.24	39991	891.04	0.48
1.03861	348.27	330	829.39	0.42
1.03861	348.27	4994	835.08	0.43
1.03861	348.27	10000	840.82	0.44
1.03861	348.27	14987	846.22	0.45
1.03861	348.27	20003	851.34	0.45
1.03861	348.27	24994	856.19	0.46
1.03861	348.27	30014	860.81	0.47
1.03861	348.27	34990	865.23	0.49
1.03861	348.27	39991	869.48	0.5
1.03861	373.3	536	802.51	0.43
1.03861	373.3	4988	808.88	0.43
1.03861	373.3	9995	815.55	0.44
1.03861	373.3	15009	821.76	0.45
1.03861	373.3	20001	827.53	0.47
1.03861	373.3	24989	832.97	0.48
1.03861	373.3	29993	838.14	0.49
1.03861	373.3	34984	843.03	0.51
1.03861	373.3	39990	847.71	0.52
1.03861	398.33	904	773.5	0.43
1.03861	398.33	5004	780.59	0.44
1.03861	398.33	9993	788.48	0.45
1.03861	398.33	14985	795.7	0.47
1.03861	398.33	19982	802.38	0.48
1.03861	398.33	24984	808.61	0.5
1.03861	398.33	29996	814.47	0.51
1.03861	398.33	35010	819.97	0.53
1.03861	398.33	39997	825.19	0.55
1.97685	298.27	205	959.59	0.42
1.97685	298.27	5014	963.97	0.42
1.97685	298.27	9996	968.35	0.42
1.97685	298.27	14997	972.58	0.42
1.97685	298.27	19989	976.63	0.42
1.97685	298.27	24993	980.56	0.42
1.97685	298.27	29990	984.35	0.42
1.97685	298.27	35014	988.04	0.42
1.97685	298.27	39994	991.58	0.42
1.97685	323.24	230	931.65	0.42
1.97685	323.24	4993	936.57	0.42
1.97685	323.24	9985	941.48	0.42
1.97685	323.24	14998	946.2	0.42
1.97685	323.24	19999	950.72	0.42
1.97685	323.24	24989	955.05	0.42
1.97685	323.24	29990	959.23	0.43
1.97685	323.24	35001	963.27	0.43
1.97685	323.24	39997	967.17	0.42
1.97685	348.27	305	904.26	0.42
1.97685	348.27	4984	909.72	0.42
1.97685	348.27	9985	915.25	0.42
1.97685	348.27	14992	920.51	0.43
1.97685	348.27	19986	925.5	0.43
1.97685	348.27	24987	930.28	0.43
1.97685	348.27	29990	934.86	0.43
1.97685	348.27	34985	939.27	0.44
1.97685	348.27	39993	943.53	0.43
1.97685	373.3	527	876.84	0.42
1.97685	373.3	5003	882.85	0.42
1.97685	373.3	9986	889.12	0.43
1.97685	373.3	15009	895.06	0.43
1.97685	373.3	20012	900.64	0.44
1.97685	373.3	25001	905.94	0.44
1.97685	373.3	29988	910.98	0.45
1.97685	373.3	34997	915.82	0.45
1.97685	373.3	39997	920.45	0.45
1.97685	398.33	905	848.36	0.43
1.97685	398.33	4985	854.8	0.43
1.97685	398.33	9999	862.15	0.43
1.97685	398.33	15019	868.94	0.44
1.97685	398.33	19996	875.28	0.45
1.97685	398.33	25009	881.23	0.45
1.97685	398.33	29990	886.89	0.46
1.97685	398.33	35014	892.27	0.47
1.97685	398.33	39988	897.37	0.47
5.3675	298.27	200	1205.67	0.43
5.3675	298.27	4983	1209.53	0.44
5.3675	298.27	9992	1213.48	0.46
5.3675	298.27	14995	1217.3	0.47
5.3675	298.27	19988	1221.03	0.5
5.3675	298.27	24996	1224.68	0.52
5.3675	298.27	29994	1228.21	0.55
5.3675	298.27	34996	1231.68	0.58
5.3675	298.27	39994	1235.1	0.62
5.3675	323.24	209	1172.87	0.43
5.3675	323.24	4999	1177.21	0.44
5.3675	323.24	9997	1181.61	0.45
5.3675	323.24	15002	1185.89	0.46
5.3675	323.24	19998	1190.03	0.48
5.3675	323.24	24989	1194.06	0.5
5.3675	323.24	30001	1197.99	0.52
5.3675	323.24	34987	1201.8	0.55
5.3675	323.24	39995	1205.55	0.58
5.3675	348.27	335	1141.63	0.43
5.3675	348.27	4982	1146.29	0.43
5.3675	348.27	9992	1151.14	0.44
5.3675	348.27	15020	1155.81	0.45
5.3675	348.27	20001	1160.36	0.46
5.3675	348.27	25001	1164.74	0.48
5.3675	348.27	30011	1169.01	0.5
5.3675	348.27	34990	1173.15	0.52
5.3675	348.27	39984	1177.19	0.55
5.3675	373.3	535	1112.11	0.42
5.3675	373.3	4986	1117.02	0.43
5.3675	373.3	10002	1122.33	0.43
5.3675	373.3	14990	1127.43	0.44
5.3675	373.3	20008	1132.37	0.45
5.3675	373.3	25001	1137.12	0.47
5.3675	373.3	29994	1141.72	0.48
5.3675	373.3	34986	1146.17	0.5
5.3675	373.3	39995	1150.53	0.52
5.3675	398.33	899	1083.75	0.42
5.3675	398.33	5002	1088.78	0.43
5.3675	398.33	9988	1094.64	0.43
5.3675	398.33	15018	1100.25	0.44
5.3675	398.33	20003	1105.62	0.44
5.3675	398.33	24989	1110.77	0.45
5.3675	398.33	29999	1115.75	0.47
5.3675	398.33	35003	1120.56	0.48
5.3675	398.33	39994	1125.22	0.5
