Measured thermophysical data. Refractive Index, Viscosity, Density, and Speed of Sound of Aqueous Sodium Tartrate Solutions at Various Temperatures
Source: J. Chem. Eng. Data, 2006, 10.1021/je050498q
Compound 1: disodium L-tartrate, C4H4Na2O6, InChI=1S/C4H6O6.2Na/c5-1(3(7)8)2(6)4(9)10;;/h1-2,5-6H,(H,7,8)(H,9,10);;/q;2*+1/p-2/t1-,2-;;/m1../s1, purity 99.5%
Compound 2: water, H2O, InChI=1S/H2O/h1H2

System: disodium L-tartrate + water; phases: Liquid
Fixed: Pressure, kPa = 101
Property: Viscosity, Pa*s (Liquid); method: CAPTUB:UFactor:4
Temperature, K	Mass fraction of disodium L-tartrate	Viscosity, Pa*s	uncertainty
298.15	0	0.00089	2.3e-05
298.15	0.019857	0.000932	2.4e-05
298.15	0.039915	0.000995	2.5e-05
298.15	0.060245	0.00106	2.7e-05
298.15	0.080095	0.001137	2.8e-05
298.15	0.099985	0.00123	3e-05
298.15	0.119998	0.001321	3.2e-05
298.15	0.139983	0.001431	3.5e-05
298.15	0.159968	0.00156	3.8e-05
298.15	0.179476	0.001706	4.1e-05
298.15	0.200662	0.001891	4.5e-05
298.15	0.219625	0.002086	4.9e-05
298.15	0.240197	0.002301	5.4e-05
298.15	0.259968	0.002563	6e-05
298.15	0.280563	0.002897	6.7e-05
308.15	0	0.000729	1.9e-05
308.15	0.019857	0.000773	2e-05
308.15	0.039915	0.000824	2.2e-05
308.15	0.060245	0.000885	2.3e-05
308.15	0.080095	0.000952	2.4e-05
308.15	0.099985	0.00102	2.6e-05
308.15	0.119998	0.001098	2.8e-05
308.15	0.139983	0.001184	3e-05
308.15	0.159968	0.001278	3.2e-05
308.15	0.179476	0.00138	3.4e-05
308.15	0.200662	0.001519	3.7e-05
308.15	0.219625	0.001669	4e-05
308.15	0.240197	0.001857	4.5e-05
308.15	0.259968	0.002055	4.9e-05
308.15	0.280563	0.002305	5.5e-05
318.15	0	0.0006	1.7e-05
318.15	0.019857	0.000644	1.8e-05
318.15	0.039915	0.000683	1.8e-05
318.15	0.060245	0.000726	1.9e-05
318.15	0.080095	0.000782	2.1e-05
318.15	0.099985	0.000832	2.2e-05
318.15	0.119998	0.000894	2.3e-05
318.15	0.139983	0.000959	2.5e-05
318.15	0.159968	0.001024	2.6e-05
318.15	0.179476	0.001101	2.8e-05
318.15	0.200662	0.001215	3e-05
318.15	0.219625	0.001334	3.3e-05
318.15	0.240197	0.001475	3.6e-05
318.15	0.259968	0.001647	4e-05
318.15	0.280563	0.001846	4.4e-05

System: disodium L-tartrate + water; phases: Liquid
Fixed: Pressure, kPa = 101
Property: Refractive index (Na D-line) (Liquid); method: ABBE:UFactor:2
Temperature, K	Mass fraction of disodium L-tartrate	Refractive index (Na D-line)	uncertainty
298.15	0	1.3325	0.0007
298.15	0.0099	1.3343	0.0007
298.15	0.0192	1.336	0.0007
298.15	0.0282	1.3373	0.0007
298.15	0.0371	1.3389	0.0007
298.15	0.046	1.3405	0.0007
298.15	0.0547	1.3418	0.0007
298.15	0.0625	1.3432	0.0007
298.15	0.0714	1.3447	0.0007
298.15	0.0793	1.346	0.0007
298.15	0.0872	1.3475	0.0007
298.15	0.0948	1.3486	0.0007
298.15	0.1026	1.3502	0.0007
298.15	0.1098	1.3511	0.0007
298.15	0.1169	1.3526	0.0007
298.15	0.1223	1.3535	0.0007
298.15	0.1314	1.3551	0.0006
298.15	0.1361	1.3557	0.0006
298.15	0.1437	1.3572	0.0006
298.15	0.1514	1.3584	0.0006
298.15	0.1577	1.3594	0.0006
298.15	0.1646	1.3607	0.0006
298.15	0.1697	1.3616	0.0006
298.15	0.1769	1.363	0.0006
298.15	0.1825	1.3639	0.0006
298.15	0.1886	1.3649	0.0006
298.15	0.1941	1.366	0.0006
298.15	0.1996	1.3668	0.0006
298.15	0.2048	1.3677	0.0006
298.15	0.2116	1.3689	0.0006
298.15	0.2167	1.3697	0.0006
298.15	0.2221	1.3707	0.0006
298.15	0.2281	1.3719	0.0006
298.15	0.2328	1.3728	0.0006
298.15	0.243	1.3744	0.0006
298.15	0.2493	1.3755	0.0006
298.15	0.2577	1.377	0.0006
298.15	0.2622	1.3778	0.0006
298.15	0.2681	1.379	0.0006
298.15	0.2757	1.3802	0.0006
298.15	0.2859	1.3821	0.0006
298.15	0.2979	1.384	0.0006
298.15	0.3085	1.3861	0.0006
308.15	0	1.3313	0.0007
308.15	0.0099	1.3331	0.0007
308.15	0.0192	1.3346	0.0007
308.15	0.0282	1.3363	0.0007
308.15	0.0371	1.3378	0.0007
308.15	0.046	1.3393	0.0007
308.15	0.0547	1.3408	0.0007
308.15	0.0625	1.3421	0.0007
308.15	0.0714	1.3435	0.0007
308.15	0.0793	1.3449	0.0007
308.15	0.0872	1.3462	0.0007
308.15	0.0948	1.3475	0.0007
308.15	0.1026	1.3488	0.0007
308.15	0.1098	1.35	0.0007
308.15	0.1169	1.3512	0.0007
308.15	0.1223	1.3523	0.0007
308.15	0.1314	1.3537	0.0006
308.15	0.1361	1.3545	0.0006
308.15	0.1437	1.356	0.0006
308.15	0.1514	1.3572	0.0006
308.15	0.1577	1.3582	0.0006
308.15	0.1646	1.3596	0.0006
308.15	0.1697	1.3606	0.0006
308.15	0.1769	1.3617	0.0006
308.15	0.1825	1.3627	0.0006
308.15	0.1886	1.3637	0.0006
308.15	0.1941	1.3646	0.0006
308.15	0.1996	1.3655	0.0006
308.15	0.2048	1.3664	0.0006
308.15	0.2116	1.3675	0.0006
308.15	0.2167	1.3685	0.0006
308.15	0.2221	1.3696	0.0006
308.15	0.2281	1.3707	0.0006
308.15	0.2328	1.3715	0.0006
308.15	0.243	1.3731	0.0006
308.15	0.2493	1.3744	0.0006
308.15	0.2577	1.3759	0.0006
308.15	0.2622	1.3765	0.0006
308.15	0.2681	1.3777	0.0006
308.15	0.2757	1.3791	0.0006
308.15	0.2859	1.3809	0.0006
308.15	0.2979	1.3829	0.0006
308.15	0.3085	1.3848	0.0006
318.15	0	1.33	0.0007
318.15	0.0099	1.3318	0.0007
318.15	0.0192	1.3335	0.0007
318.15	0.0282	1.3351	0.0007
318.15	0.0371	1.3367	0.0007
318.15	0.046	1.3381	0.0007
318.15	0.0547	1.3396	0.0007
318.15	0.0625	1.341	0.0007
318.15	0.0714	1.3425	0.0007
318.15	0.0793	1.3439	0.0007
318.15	0.0872	1.3452	0.0007
318.15	0.0948	1.3464	0.0007
318.15	0.1026	1.3479	0.0007
318.15	0.1098	1.349	0.0007
318.15	0.1169	1.3502	0.0007
318.15	0.1223	1.3513	0.0007
318.15	0.1314	1.3526	0.0006
318.15	0.1361	1.3536	0.0006
318.15	0.1437	1.3548	0.0006
318.15	0.1514	1.3562	0.0006
318.15	0.1577	1.3573	0.0006
318.15	0.1646	1.3587	0.0006
318.15	0.1697	1.3595	0.0006
318.15	0.1769	1.3607	0.0006
318.15	0.1825	1.3616	0.0006
318.15	0.1886	1.3627	0.0006
318.15	0.1941	1.3636	0.0006
318.15	0.1996	1.3644	0.0006
318.15	0.2048	1.3654	0.0006
318.15	0.2116	1.3666	0.0006
318.15	0.2167	1.3675	0.0006
318.15	0.2221	1.3684	0.0006
318.15	0.2281	1.3695	0.0006
318.15	0.2328	1.3703	0.0006
318.15	0.243	1.372	0.0006
318.15	0.2493	1.3732	0.0006
318.15	0.2577	1.3749	0.0006
318.15	0.2622	1.3757	0.0006
318.15	0.2681	1.3765	0.0006
318.15	0.2757	1.3778	0.0006
318.15	0.2859	1.3798	0.0006
318.15	0.2979	1.3819	0.0006
318.15	0.3085	1.3841	0.0006

System: disodium L-tartrate + water; phases: Liquid
Fixed: Pressure, kPa = 101
Property: Speed of sound, m/s (Liquid); method: LVPAI:UFactor:2
Temperature, K	Molality, mol/kg of disodium L-tartrate	Speed of sound, m/s	uncertainty
298.15	0.0325	1501.97	3.26
298.15	0.0351	1502.34	3.26
298.15	0.0405	1503.13	3.26
298.15	0.0552	1505.37	3.26
298.15	0.0576	1505.7	3.26
298.15	0.0673	1507.16	3.26
298.15	0.0747	1508.23	3.27
298.15	0.0814	1509.92	3.27
298.15	0.1365	1517.3	3.28
298.15	0.2798	1537.54	3.3
298.15	0.4159	1556.26	3.33
298.15	0.5661	1576.43	3.35
298.15	0.7158	1598.6	3.38
298.15	0.888	1618.47	3.41
298.15	1.0548	1639.64	3.44
298.15	1.2106	1659.03	3.47
298.15	1.4118	1683.56	3.5
298.15	1.5925	1705.11	3.53
298.15	1.7489	1723.33	3.55
298.15	2.2027	1773.97	3.63
308.15	0.0325	1524.83	3.29
308.15	0.0351	1525.23	3.29
308.15	0.0405	1525.96	3.29
308.15	0.0552	1528.05	3.3
308.15	0.0576	1528.37	3.3
308.15	0.0673	1529.72	3.3
308.15	0.0747	1530.73	3.3
308.15	0.0814	1531.64	3.3
308.15	0.1365	1539.24	3.31
308.15	0.2798	1558.23	3.33
308.15	0.4159	1575.76	3.36
308.15	0.5661	1594.59	3.38
308.15	0.7158	1615.29	3.41
308.15	0.888	1633.76	3.43
308.15	1.0548	1653.59	3.46
308.15	1.2106	1671.72	3.48
308.15	1.4118	1694.53	3.52
308.15	1.5925	1714.64	3.54
308.15	1.7489	1731.98	3.57
308.15	2.2027	1778.68	3.63
318.15	0.0325	1541.33	3.32
318.15	0.0351	1541.65	3.32
318.15	0.0405	1542.35	3.32
318.15	0.0552	1544.32	3.32
318.15	0.0576	1544.61	3.32
318.15	0.0673	1545.89	3.32
318.15	0.0747	1547.05	3.32
318.15	0.0814	1547.72	3.32
318.15	0.1365	1554.94	3.33
318.15	0.2798	1572.86	3.36
318.15	0.4159	1589.37	3.38
318.15	0.5661	1607.33	3.4
318.15	0.7158	1624.11	3.42
318.15	0.888	1644.03	3.45
318.15	1.0548	1662.25	3.47
318.15	1.2106	1679.24	3.5
318.15	1.4118	1701.17	3.53
318.15	1.5925	1719.83	3.55
318.15	1.7489	1734.78	3.57
318.15	2.2027	1779.72	3.63

System: disodium L-tartrate + water; phases: Liquid
Fixed: Pressure, kPa = 101
Property: Mass density, kg/m3 (Liquid); method: VIBTUB:UFactor:8
Temperature, K	Molality, mol/kg of disodium L-tartrate	Mass density, kg/m3	uncertainty
298.15	0.0325	1001.45	0.58
298.15	0.0351	1001.8	0.58
298.15	0.0405	1002.51	0.58
298.15	0.0552	1004.48	0.58
298.15	0.0576	1004.79	0.58
298.15	0.0673	1006.08	0.59
298.15	0.0747	1007.06	0.59
298.15	0.0814	1007.94	0.59
298.15	0.1365	1015.14	0.6
298.15	0.2798	1033.29	0.63
298.15	0.4159	1049.92	0.66
298.15	0.5661	1067.63	0.7
298.15	0.7158	1084.68	0.73
298.15	0.888	1103.52	0.78
298.15	1.0548	1121.13	0.82
298.15	1.2106	1137	0.86
298.15	1.4118	1156.69	0.91
298.15	1.5925	1173.71	0.95
298.15	1.7489	1187.9	0.99
298.15	2.2027	1226.56	1.1
308.15	0.0325	998.34	0.59
308.15	0.0351	998.7	0.58
308.15	0.0405	999.4	0.58
308.15	0.0552	1001.34	0.58
308.15	0.0576	1001.64	0.58
308.15	0.0673	1002.91	0.58
308.15	0.0747	1003.87	0.58
308.15	0.0814	1004.73	0.58
308.15	0.1365	1011.79	0.59
308.15	0.2798	1029.68	0.62
308.15	0.4159	1046.11	0.65
308.15	0.5661	1063.54	0.69
308.15	0.7158	1080.39	0.72
308.15	0.888	1098.96	0.77
308.15	1.0548	1116.46	0.81
308.15	1.2106	1132.16	0.85
308.15	1.4118	1151.68	0.89
308.15	1.5925	1168.58	0.94
308.15	1.7489	1182.99	0.98
308.15	2.2027	1221.08	1.08
318.15	0.0325	994.47	0.58
318.15	0.0351	994.82	0.58
318.15	0.0405	995.52	0.58
318.15	0.0552	997.43	0.58
318.15	0.0576	997.72	0.58
318.15	0.0673	998.99	0.58
318.15	0.0747	999.92	0.57
318.15	0.0814	1000.77	0.57
318.15	0.1365	1007.83	0.58
318.15	0.2798	1025.48	0.61
318.15	0.4159	1041.78	0.64
318.15	0.5661	1059.16	0.68
318.15	0.7158	1075.77	0.71
318.15	0.888	1094.15	0.75
318.15	1.0548	1111.35	0.79
318.15	1.2106	1126.7	0.83
318.15	1.4118	1146.41	0.88
318.15	1.5925	1163.14	0.92
318.15	1.7489	1176.91	0.96
318.15	2.2027	1215.23	1.06
