Measured thermophysical data. Isobaric Vapor-Liquid Equilibria for Binary Mixtures of 1,2-Dibromoethane with Benzene, Toluene, Fluorobenzene, and Bromobenzene at Atmospheric Pressure
Source: J. Chem. Eng. Data, 2006, 10.1021/je050231r
Compound 1: 1,2-dibromoethane, C2H4Br2, InChI=1S/C2H4Br2/c3-1-2-4/h1-2H2, purity 99%
Compound 2: benzene, C6H6, InChI=1S/C6H6/c1-2-4-6-5-3-1/h1-6H, purity 99.8%
Compound 3: toluene, C7H8, InChI=1S/C7H8/c1-7-5-3-2-4-6-7/h2-6H,1H3, purity 99.5%
Compound 4: fluorobenzene, C6H5F, InChI=1S/C6H5F/c7-6-4-2-1-3-5-6/h1-5H, purity 99.5%
Compound 5: bromobenzene, C6H5Br, InChI=1S/C6H5Br/c7-6-4-2-1-3-5-6/h1-5H, purity 99%

System: 1,2-dibromoethane; phases: Liquid
Property: Mass density, kg/m3 (Liquid); method: VIBTUB:UFactor:4
Temperature, K	Pressure, kPa	Mass density, kg/m3	uncertainty
293.2	101.325	2179.24	2.35

System: 1,2-dibromoethane; phases: Liquid, Gas
Property: Vapor or sublimation pressure, kPa (Liquid); method: EBULLIO:UFactor:32
Temperature, K	Vapor or sublimation pressure, kPa	uncertainty
404.6	101.81	0.62
405.4	102.09	0.52
405.5	102.11	0.52
405.8	101.86	0.98

System: benzene; phases: Liquid
Property: Mass density, kg/m3 (Liquid); method: VIBTUB:UFactor:2
Temperature, K	Pressure, kPa	Mass density, kg/m3	uncertainty
293.2	101.325	876.53	0.19

System: benzene; phases: Liquid, Gas
Property: Vapor or sublimation pressure, kPa (Liquid); method: EBULLIO:UFactor:32
Temperature, K	Vapor or sublimation pressure, kPa	uncertainty
354.4	101.77	5.11

System: toluene; phases: Liquid
Property: Mass density, kg/m3 (Liquid); method: VIBTUB:UFactor:2
Temperature, K	Pressure, kPa	Mass density, kg/m3	uncertainty
293.2	101.325	866.81	0.28

System: toluene; phases: Liquid, Gas
Property: Vapor or sublimation pressure, kPa (Liquid); method: EBULLIO:UFactor:32
Temperature, K	Vapor or sublimation pressure, kPa	uncertainty
384.9	102.09	5.13

System: fluorobenzene; phases: Liquid
Property: Mass density, kg/m3 (Liquid); method: VIBTUB:UFactor:2
Temperature, K	Pressure, kPa	Mass density, kg/m3	uncertainty
293.2	101.325	1022.27	0.27

System: fluorobenzene; phases: Liquid, Gas
Property: Vapor or sublimation pressure, kPa (Liquid); method: EBULLIO:UFactor:32
Temperature, K	Vapor or sublimation pressure, kPa	uncertainty
358.4	101.94	5.12

System: bromobenzene; phases: Liquid
Property: Mass density, kg/m3 (Liquid); method: VIBTUB:UFactor:4
Temperature, K	Pressure, kPa	Mass density, kg/m3	uncertainty
293.2	101.325	1495.23	1.24

System: bromobenzene; phases: Liquid, Gas
Property: Vapor or sublimation pressure, kPa (Liquid); method: EBULLIO:UFactor:16
Temperature, K	Vapor or sublimation pressure, kPa	uncertainty
429.4	101.76	2.56

System: benzene + 1,2-dibromoethane; phases: Liquid, Gas
Property: Boiling temperature at pressure P, K (Liquid); method: EBULLIO:UFactor:32
Mole fraction of benzene	Pressure, kPa	Boiling temperature at pressure P, K	uncertainty
0	101.86	405.8	1
0.0227	101.95	403.2	1
0.0507	101.94	400.2	1
0.0751	101.88	397.2	1
0.1175	101.85	393.2	1
0.1496	101.68	390.2	1
0.1756	101.72	388.1	1
0.2146	101.76	385.8	1
0.2492	101.76	383.2	1
0.2973	101.72	380.4	1
0.3523	101.72	377	1
0.4312	101.7	373.3	1
0.5192	101.71	369.7	1
0.5852	101.73	367	1
0.6701	101.72	364.2	1
0.7713	101.74	360.8	1
0.8672	101.75	358.1	1
0.9592	101.74	355.5	1
1	101.77	354.4	1

System: benzene + 1,2-dibromoethane; phases: Gas, Liquid
Property: Mole fraction of benzene (Gas); method: Density calibration data
Mole fraction of benzene	Pressure, kPa	Mole fraction of benzene	uncertainty
0	101.86	0	0.0001
0.0227	101.95	0.0975	0.002
0.0507	101.94	0.1982	0.0021
0.0751	101.88	0.2726	0.0022
0.1175	101.85	0.3794	0.0025
0.1496	101.68	0.4463	0.0027
0.1756	101.72	0.4943	0.0029
0.2146	101.76	0.5546	0.0028
0.2492	101.76	0.6028	0.0027
0.2973	101.72	0.6583	0.0025
0.3523	101.72	0.7107	0.0024
0.4312	101.7	0.7732	0.0022
0.5192	101.71	0.8274	0.0021
0.5852	101.73	0.8625	0.0021
0.6701	101.72	0.8996	0.002
0.7713	101.74	0.937	0.002
0.8672	101.75	0.9663	0.002
0.9592	101.74	0.9904	0.002
1	101.77	1	0.0001

System: 1,2-dibromoethane + toluene; phases: Liquid, Gas
Property: Boiling temperature at pressure P, K (Liquid); method: EBULLIO:UFactor:32
Mole fraction of toluene	Pressure, kPa	Boiling temperature at pressure P, K	uncertainty
0	102.11	405.5	1
0.0246	102.12	404.7	1
0.079	102.15	403	1
0.1027	102.15	402.3	1
0.1592	102.14	400.5	1
0.1852	102.11	399.9	1
0.2371	102.12	398.5	1
0.2863	102.05	397.2	1
0.3241	102.13	396.6	1
0.3574	102.13	395.9	1
0.4252	102.12	394.5	1
0.4914	102.13	393.2	1
0.5382	102.12	392.3	1
0.6122	102.11	391.1	1
0.6793	102.11	389.8	1
0.7527	102.12	388.7	1
0.8281	102.12	387.5	1
0.874	102.11	386.8	1
0.9543	102.1	385.5	1
1	102.09	384.9	1

System: 1,2-dibromoethane + toluene; phases: Gas, Liquid
Property: Mole fraction of toluene (Gas); method: Density calibration data
Mole fraction of toluene	Pressure, kPa	Mole fraction of toluene	uncertainty
0	102.11	0	0.0001
0.0246	102.12	0.0484	0.002
0.079	102.15	0.1443	0.002
0.1027	102.15	0.1828	0.002
0.1592	102.14	0.2657	0.0022
0.1852	102.11	0.3011	0.0023
0.2371	102.12	0.3668	0.0025
0.2863	102.05	0.4245	0.0028
0.3241	102.13	0.4659	0.0031
0.3574	102.13	0.5007	0.0033
0.4252	102.12	0.5686	0.0032
0.4914	102.13	0.6298	0.003
0.5382	102.12	0.6702	0.0029
0.6122	102.11	0.7307	0.0027
0.6793	102.11	0.7825	0.0025
0.7527	102.12	0.8361	0.0023
0.8281	102.12	0.8891	0.0021
0.874	102.11	0.9201	0.0021
0.9543	102.1	0.9719	0.002
1	102.09	1	0.0001

System: 1,2-dibromoethane + fluorobenzene; phases: Liquid, Gas
Property: Boiling temperature at pressure P, K (Liquid); method: EBULLIO:UFactor:32
Mole fraction of fluorobenzene	Pressure, kPa	Boiling temperature at pressure P, K	uncertainty
0	102.09	405.4	1
0.0163	102.14	403.4	1
0.0352	102.13	401	1
0.0557	102.11	398.6	1
0.0791	102.11	396.3	1
0.0998	102.08	394	1
0.1267	102.05	391.9	1
0.1575	102.01	389.2	1
0.186	101.88	387	1
0.2272	101.9	384.2	1
0.2614	101.89	382.4	1
0.3123	101.9	379.5	1
0.3553	101.91	377.7	1
0.4114	101.9	375.1	1
0.5046	101.9	371.8	1
0.563	101.91	369.8	1
0.6683	101.92	367	1
0.7635	101.93	364.1	1
0.8618	101.92	361.7	1
0.9566	101.93	359.3	1
1	101.94	358.4	1

System: 1,2-dibromoethane + fluorobenzene; phases: Gas, Liquid
Property: Mole fraction of fluorobenzene (Gas); method: Density calibration data
Mole fraction of fluorobenzene	Pressure, kPa	Mole fraction of fluorobenzene	uncertainty
0	102.09	0	0.0001
0.0163	102.14	0.0763	0.002
0.0352	102.13	0.1504	0.002
0.0557	102.11	0.2217	0.0021
0.0791	102.11	0.2898	0.0022
0.0998	102.08	0.3434	0.0024
0.1267	102.05	0.4031	0.0027
0.1575	102.01	0.4622	0.0031
0.186	101.88	0.5076	0.0033
0.2272	101.9	0.5665	0.0032
0.2614	101.89	0.6072	0.0031
0.3123	101.9	0.6589	0.0029
0.3553	101.91	0.6959	0.0028
0.4114	101.9	0.7378	0.0026
0.5046	101.9	0.7977	0.0024
0.563	101.91	0.8286	0.0023
0.6683	101.92	0.8772	0.0022
0.7635	101.93	0.9167	0.0021
0.8618	101.92	0.9528	0.002
0.9566	101.93	0.9858	0.002
1	101.94	1	0.0001

System: 1,2-dibromoethane + bromobenzene; phases: Liquid, Gas
Property: Boiling temperature at pressure P, K (Liquid); method: EBULLIO:UFactor:16
Mole fraction of 1,2-dibromoethane	Pressure, kPa	Boiling temperature at pressure P, K	uncertainty
0	101.76	429.4	0.5
0.0371	101.75	428	0.5
0.0697	101.74	426.7	0.5
0.093	101.75	425.8	0.5
0.143	101.76	424	0.5
0.1744	101.79	423.1	0.5
0.2038	101.82	422.1	0.5
0.2326	101.86	421.4	0.5
0.266	101.88	420.4	0.5
0.2951	101.87	419.5	0.5
0.3446	101.86	418.1	0.5
0.3845	101.88	417.1	0.5
0.418	101.88	416.2	0.5
0.4618	101.87	415.1	0.5
0.5174	101.86	413.8	0.5
0.5577	101.87	412.9	0.5
0.6222	101.86	411.5	0.5
0.6654	101.86	410.7	0.5
0.7339	101.85	409.3	0.5
0.7875	101.83	408.3	0.5
0.8466	101.83	407.3	0.5
0.8979	101.84	406.4	0.5
0.9655	101.83	405.3	0.5
1	101.81	404.6	0.5

System: 1,2-dibromoethane + bromobenzene; phases: Gas, Liquid
Property: Mole fraction of 1,2-dibromoethane (Gas); method: Density calibration data
Mole fraction of 1,2-dibromoethane	Pressure, kPa	Mole fraction of 1,2-dibromoethane	uncertainty
0	101.76	0	0.0001
0.0371	101.75	0.0749	0.002
0.0697	101.74	0.1356	0.002
0.093	101.75	0.1756	0.002
0.143	101.76	0.2564	0.0022
0.1744	101.79	0.3019	0.0024
0.2038	101.82	0.3426	0.0026
0.2326	101.86	0.3808	0.0029
0.266	101.88	0.4235	0.0032
0.2951	101.87	0.4573	0.0036
0.3446	101.86	0.5118	0.0041
0.3845	101.88	0.5532	0.004
0.418	101.88	0.5861	0.004
0.4618	101.87	0.6275	0.0039
0.5174	101.86	0.6752	0.0037
0.5577	101.87	0.7083	0.0035
0.6222	101.86	0.7572	0.0033
0.6654	101.86	0.7872	0.0031
0.7339	101.85	0.8355	0.0028
0.7875	101.83	0.8703	0.0026
0.8466	101.83	0.9067	0.0023
0.8979	101.84	0.9381	0.0022
0.9655	101.83	0.9791	0.002
1	101.81	1	0.0001
