Measured thermophysical data. Heat Capacities and Volumes of Aqueous Dicarboxylate Salt Solutions of Relevance to the Bayer Process
Source: J. Chem. Eng. Data, 2005, 10.1021/je0502400
Compound 1: disodium succinate, C4H4Na2O4, InChI=1S/C4H6O4.2Na/c5-3(6)1-2-4(7)8;;/h1-2H2,(H,5,6)(H,7,8);;/q;2*+1/p-2, purity 99%
Compound 2: sodium malonate, C3H2Na2O4, InChI=1S/C3H4O4.2Na/c4-2(5)1-3(6)7;;/h1H2,(H,4,5)(H,6,7);;/q;2*+1/p-2, purity 99%
Compound 3: sodium oxalate, C2Na2O4, InChI=1S/C2H2O4.2Na/c3-1(4)2(5)6;;/h(H,3,4)(H,5,6);;/q;2*+1/p-2, purity 99.9%
Compound 4: potassium oxalate, C2K2O4, InChI=1S/C2H2O4.2K/c3-1(4)2(5)6;;/h(H,3,4)(H,5,6);;/q;2*+1/p-2, purity 99.9%
Compound 5: sodium chloride, ClNa, InChI=1S/ClH.Na/h1H;/q;+1/p-1, purity 99.5%
Compound 6: water, H2O, InChI=1S/H2O/h1H2

System: sodium chloride + water; phases: Liquid
Fixed: Pressure, kPa = 101
Fixed: Temperature, K = 298.15
Property: Molar heat capacity at constant pressure, J/K/mol (Liquid); method: Flow calorimetry
Molality, mol/kg of sodium chloride	Molar heat capacity at constant pressure, J/K/mol	uncertainty
0.9998	73.33575	0.157
1.999	72.23282	0.155
3	71.74088	0.153

System: sodium chloride + water; phases: Liquid
Fixed: Pressure, kPa = 101
Fixed: Temperature, K = 298
Property: Mass density, kg/m3 (Liquid); method: VIBTUB:UFactor:2
Molality, mol/kg of sodium chloride	Mass density, kg/m3	uncertainty
0.9998	1036.181	0.148
1.999	1072.216	0.183
3	1105.705	0.217

System: disodium succinate + water; phases: Liquid
Fixed: Pressure, kPa = 101
Fixed: Temperature, K = 298.15
Property: Molar heat capacity at constant pressure, J/K/mol (Liquid); method: Flow calorimetry
Molality, mol/kg of disodium succinate	Molar heat capacity at constant pressure, J/K/mol	uncertainty
0.0099519	75.319785	0.1606
0.020381	75.308395	0.1606
0.041867	75.279713	0.1606
0.060543	75.259478	0.1605
0.10032	75.224258	0.1605
0.20028	75.199389	0.1603
0.30014	75.229921	0.1605
0.50055	75.442385	0.1608
0.74971	75.927856	0.1619
1.00028	76.605758	0.1633
1.4943	78.375712	0.1667
1.9993	80.614158	0.1713

System: disodium succinate + water; phases: Liquid
Fixed: Pressure, kPa = 101
Fixed: Temperature, K = 298
Property: Mass density, kg/m3 (Liquid); method: VIBTUB:UFactor:4
Molality, mol/kg of disodium succinate	Mass density, kg/m3	uncertainty
0.0099519	998.141	0.208
0.020381	999.243	0.207
0.041867	1001.535	0.209
0.060543	1003.529	0.212
0.10032	1007.698	0.218
0.20028	1017.997	0.237
0.30014	1028.045	0.255
0.50055	1047.46	0.292
0.74971	1070.41	0.337
1.00028	1092.289	0.381
1.4943	1132.322	0.465
1.9993	1169.445	0.545

System: sodium malonate + water; phases: Liquid
Fixed: Pressure, kPa = 101
Fixed: Temperature, K = 298.15
Property: Molar heat capacity at constant pressure, J/K/mol (Liquid); method: Flow calorimetry
Molality, mol/kg of sodium malonate	Molar heat capacity at constant pressure, J/K/mol	uncertainty
0.010204	75.194206	0.1603
0.020188	75.06399	0.1601
0.040229	74.797838	0.1595
0.059967	74.538044	0.1589
0.099517	74.043547	0.1579
0.20489	72.814538	0.1553
0.30051	71.79548	0.1532
0.49847	69.897274	0.1491
0.73563	68.006642	0.1451
0.97461	66.268913	0.1413
1.4812	63.331165	0.1349
1.995	61.026615	0.1297

System: sodium malonate + water; phases: Liquid
Fixed: Pressure, kPa = 101
Fixed: Temperature, K = 298
Property: Mass density, kg/m3 (Liquid); method: VIBTUB:UFactor:4
Molality, mol/kg of sodium malonate	Mass density, kg/m3	uncertainty
0.010204	998.203	0.209
0.020188	999.271	0.208
0.040229	1001.444	0.21
0.059967	1003.607	0.213
0.099517	1007.822	0.219
0.20489	1018.85	0.239
0.30051	1028.551	0.256
0.49847	1048.206	0.293
0.73563	1070.786	0.337
0.97461	1092.131	0.38
1.4812	1134.796	0.468
1.995	1173.577	0.549
2.9931	1241.777	0.695
3.9907	1296.362	0.814

System: potassium oxalate + water; phases: Liquid
Fixed: Pressure, kPa = 101
Fixed: Temperature, K = 298.15
Property: Molar heat capacity at constant pressure, J/K/mol (Liquid); method: Flow calorimetry
Molality, mol/kg of potassium oxalate	Molar heat capacity at constant pressure, J/K/mol	uncertainty
0.010287	75.166356	0.1603
0.019926	74.999873	0.1599
0.039951	74.673997	0.1593
0.061184	74.335942	0.1585
0.10109	73.710214	0.1572
0.19713	72.274467	0.1542
0.29963	70.855709	0.1512
0.501	68.298671	0.1459
0.74829	65.504702	0.1399
0.99871	63.001767	0.1345
1.197	61.205244	0.1307
1.3964	59.542392	0.1272
1.497	58.760713	0.1256

System: potassium oxalate + water; phases: Liquid
Fixed: Pressure, kPa = 101
Fixed: Temperature, K = 298
Property: Mass density, kg/m3 (Liquid); method: VIBTUB:UFactor:4
Molality, mol/kg of potassium oxalate	Mass density, kg/m3	uncertainty
0.010287	998.319	0.217
0.019926	999.506	0.214
0.039951	1001.904	0.215
0.061184	1004.415	0.22
0.10109	1009.207	0.226
0.19713	1020.459	0.244
0.29963	1032.086	0.262
0.501	1054.203	0.3
0.74829	1080.17	0.347
0.99871	1105.267	0.394
1.197	1124.387	0.43
1.3964	1142.785	0.465
1.497	1151.715	0.482

System: sodium oxalate + water; phases: Liquid
Fixed: Pressure, kPa = 101
Fixed: Temperature, K = 298.15
Property: Molar heat capacity at constant pressure, J/K/mol (Liquid); method: Flow calorimetry
Molality, mol/kg of sodium oxalate	Molar heat capacity at constant pressure, J/K/mol	uncertainty
0.009986	75.306193	0.1605
0.019895	75.273109	0.1605
0.039979	75.221559	0.1604
0.060298	75.170322	0.1604
0.099988	75.083428	0.1602
0.15023	74.995957	0.1601
0.19961	74.932943	0.1599
0.2494	74.88456	0.1598

System: sodium oxalate + water; phases: Liquid
Fixed: Pressure, kPa = 101
Fixed: Temperature, K = 298
Property: Mass density, kg/m3 (Liquid); method: VIBTUB:UFactor:4
Molality, mol/kg of sodium oxalate	Mass density, kg/m3	uncertainty
0.009986	998.164	0.211
0.019895	999.268	0.209
0.039979	1001.477	0.209
0.060298	1003.675	0.212
0.15023	1013.276	0.227
0.19961	1018.424	0.235
0.2494	1023.554	0.243
