Measured thermophysical data. Solubility of Cefazolin Sodium Pentahydrate in Different Solvents between 275 K and 310 K
Source: J. Chem. Eng. Data, 2005, 10.1021/je050242k
Compound 1: cefazolin sodium pentahydrate, C14H23N8NaO9S3, InChI=1S/C14H14N8O4S3.Na.5H2O/c1-6-17-18-14(29-6)28-4-7-3-27-12-9(11(24)22(12)10(7)13(25)26)16-8(23)2-21-5-15-19-20-21;;;;;;/h5,9,12H,2-4H2,1H3,(H,16,23)(H,25,26);;5*1H2/q;+1;;;;;/p-1/t9-,12-;;;;;;/m1....../s1, purity 99.6%
Compound 2: dichloromethane, CH2Cl2, InChI=1S/CH2Cl2/c2-1-3/h1H2
Compound 3: butan-1-ol, C4H10O, InChI=1S/C4H10O/c1-2-3-4-5/h5H,2-4H2,1H3
Compound 4: propan-1-ol, C3H8O, InChI=1S/C3H8O/c1-2-3-4/h4H,2-3H2,1H3
Compound 5: ethanol, C2H6O, InChI=1S/C2H6O/c1-2-3/h3H,2H2,1H3
Compound 6: methanol, CH4O, InChI=1S/CH4O/c1-2/h2H,1H3
Compound 7: dimethylformamide, C3H7NO, InChI=1S/C3H7NO/c1-4(2)3-5/h3H,1-2H3
Compound 8: potassium chloride, ClK, InChI=1S/ClH.K/h1H;/q;+1/p-1
Compound 9: water, H2O, InChI=1S/H2O/h1H2

System: potassium chloride + water; phases: Liquid, Crystal
Fixed: Pressure, kPa = 101
Property: Solid-liquid equilibrium temperature, K (Liquid); method: Laser beam intensity
Mass fraction of potassium chloride	Solid-liquid equilibrium temperature, K	uncertainty
0.2382	283.15	1.38
0.2555	293.15	1.54
0.263	298.15	1.59
0.272	303.15	1.76
0.2864	313.15	2.16
0.312	333.15	2.44

System: dichloromethane + cefazolin sodium pentahydrate; phases: Liquid, Crystal
Fixed: Pressure, kPa = 101
Property: Solid-liquid equilibrium temperature, K (Liquid); method: Laser beam intensity
Mole fraction of cefazolin sodium pentahydrate	Solid-liquid equilibrium temperature, K	uncertainty
1.77e-06	278.25	4.34
2.065e-06	282.77	4.7
2.36e-06	286.65	4.53
2.655e-06	289.85	12.46
2.95e-06	303.95	8.9
3.54e-06	308.25	3.41
4.477e-06	313.25	3.7
5.457e-06	318.15	4.37

System: butan-1-ol + cefazolin sodium pentahydrate; phases: Liquid, Crystal
Fixed: Pressure, kPa = 101
Property: Solid-liquid equilibrium temperature, K (Liquid); method: Laser beam intensity
Mole fraction of cefazolin sodium pentahydrate	Solid-liquid equilibrium temperature, K	uncertainty
1.188e-05	284.55	0.86
1.519e-05	288.55	0.79
2.141e-05	293.03	0.79
2.823e-05	296.55	0.85
3.507e-05	299.85	0.76
4.715e-05	303.5	0.7
6.442e-05	307.3	0.7
8.066e-05	309.75	0.73

System: propan-1-ol + cefazolin sodium pentahydrate; phases: Liquid, Crystal
Fixed: Pressure, kPa = 101
Property: Solid-liquid equilibrium temperature, K (Liquid); method: Laser beam intensity
Mole fraction of cefazolin sodium pentahydrate	Solid-liquid equilibrium temperature, K	uncertainty
9.546e-06	276.55	0.27
1.602e-05	279.65	0.37
2.709e-05	283.35	0.42
4.217e-05	286.45	0.47
6.603e-05	290.65	0.59
9.708e-05	294.65	0.71
0.0001353	299.15	0.87
0.0001682	302.25	1.13
0.0002026	306.65	1.25
0.0002409	309.75	1.17

System: ethanol + cefazolin sodium pentahydrate; phases: Liquid, Crystal
Fixed: Pressure, kPa = 101
Property: Solid-liquid equilibrium temperature, K (Liquid); method: Laser beam intensity
Mole fraction of cefazolin sodium pentahydrate	Solid-liquid equilibrium temperature, K	uncertainty
0.00022	275.45	6.89
0.0002357	283.65	3.03
0.0002738	288.15	2.09
0.0002988	291.75	2.08
0.0003176	293.15	1.46
0.0003406	294.95	1.37
0.0003929	298.25	1.35
0.0004352	300.35	1.35
0.0005205	304.85	1.45
0.0005533	305.65	1.17
0.0006419	309.05	1.48

System: methanol + cefazolin sodium pentahydrate; phases: Liquid, Crystal
Fixed: Pressure, kPa = 101
Property: Solid-liquid equilibrium temperature, K (Liquid); method: Laser beam intensity
Mole fraction of cefazolin sodium pentahydrate	Solid-liquid equilibrium temperature, K	uncertainty
0.0008872	288.85	3.31
0.001011	296.55	1.71
0.001355	303.15	1.08
0.001778	306.85	0.57
0.002692	310.55	0.65

System: dimethylformamide + cefazolin sodium pentahydrate; phases: Liquid, Crystal
Fixed: Pressure, kPa = 101
Property: Solid-liquid equilibrium temperature, K (Liquid); method: Laser beam intensity
Mole fraction of cefazolin sodium pentahydrate	Solid-liquid equilibrium temperature, K	uncertainty
0.02399	278.15	3.02
0.02637	283.15	2.79
0.02961	288.15	1.3
0.04032	294.15	1.36
