Measured thermophysical data. Densities, Viscosities, and Ultrasonic Velocity Studies of Binary Mixtures of Chloroform with Pentan-1-ol, Hexan-1-ol, and Heptan-1-ol at (303.15 and 313.15) K
Source: J. Chem. Eng. Data, 2006, 10.1021/je0504459
Compound 1: trichloromethane, CHCl3, InChI=1S/CHCl3/c2-1(3)4/h1H
Compound 2: pentan-1-ol, C5H12O, InChI=1S/C5H12O/c1-2-3-4-5-6/h6H,2-5H2,1H3
Compound 3: hexan-1-ol, C6H14O, InChI=1S/C6H14O/c1-2-3-4-5-6-7/h7H,2-6H2,1H3
Compound 4: heptan-1-ol, C7H16O, InChI=1S/C7H16O/c1-2-3-4-5-6-7-8/h8H,2-7H2,1H3

System: trichloromethane; phases: Liquid
Fixed: Pressure, kPa = 101
Property: Kinematic viscosity, m2/s (Liquid); method: CAPTUB:UFactor:2
Temperature, K	Kinematic viscosity, m2/s	uncertainty
303.15	3.63e-07	8e-09
313.15	3.39e-07	8e-09

System: trichloromethane; phases: Liquid
Fixed: Pressure, kPa = 101
Property: Speed of sound, m/s (Liquid); method: Sing-around technique in a fixed-path interferometer
Temperature, K	Speed of sound, m/s	uncertainty
303.15	969	2
313.15	934	2

System: trichloromethane; phases: Liquid
Fixed: Pressure, kPa = 101
Property: Mass density, kg/m3 (Liquid); method: PYCNOM:UFactor:2
Temperature, K	Mass density, kg/m3	uncertainty
303.15	1469.21	1.09
313.15	1449.74	1.11

System: pentan-1-ol; phases: Liquid
Fixed: Pressure, kPa = 101
Property: Kinematic viscosity, m2/s (Liquid); method: CAPTUB:UFactor:2
Temperature, K	Kinematic viscosity, m2/s	uncertainty
303.15	3.731e-06	4.2e-08
313.15	2.89e-06	3.3e-08

System: pentan-1-ol; phases: Liquid
Fixed: Pressure, kPa = 101
Property: Speed of sound, m/s (Liquid); method: Sing-around technique in a fixed-path interferometer
Temperature, K	Speed of sound, m/s	uncertainty
303.15	1264	3
313.15	1228	3

System: pentan-1-ol; phases: Liquid
Fixed: Pressure, kPa = 101
Property: Mass density, kg/m3 (Liquid); method: PYCNOM:UFactor:2
Temperature, K	Mass density, kg/m3	uncertainty
303.15	808.6	0.44
313.15	800.99	0.48

System: hexan-1-ol; phases: Liquid
Fixed: Pressure, kPa = 101
Property: Kinematic viscosity, m2/s (Liquid); method: CAPTUB:UFactor:2
Temperature, K	Kinematic viscosity, m2/s	uncertainty
303.15	4.683e-06	5.6e-08
313.15	3.631e-06	4.4e-08

System: hexan-1-ol; phases: Liquid
Fixed: Pressure, kPa = 101
Property: Speed of sound, m/s (Liquid); method: Sing-around technique in a fixed-path interferometer
Temperature, K	Speed of sound, m/s	uncertainty
303.15	1289	3
313.15	1256	3

System: hexan-1-ol; phases: Liquid
Fixed: Pressure, kPa = 101
Property: Mass density, kg/m3 (Liquid); method: PYCNOM:UFactor:2
Temperature, K	Mass density, kg/m3	uncertainty
303.15	811.65	0.57
313.15	804.24	0.6

System: heptan-1-ol; phases: Liquid
Fixed: Pressure, kPa = 101
Property: Kinematic viscosity, m2/s (Liquid); method: CAPTUB:UFactor:2
Temperature, K	Kinematic viscosity, m2/s	uncertainty
303.15	6.188e-06	7.1e-08
313.15	4.588e-06	5.5e-08

System: heptan-1-ol; phases: Liquid
Fixed: Pressure, kPa = 101
Property: Speed of sound, m/s (Liquid); method: Sing-around technique in a fixed-path interferometer
Temperature, K	Speed of sound, m/s	uncertainty
303.15	1312	3
313.15	1278	3

System: heptan-1-ol; phases: Liquid
Fixed: Pressure, kPa = 101
Property: Mass density, kg/m3 (Liquid); method: PYCNOM:UFactor:2
Temperature, K	Mass density, kg/m3	uncertainty
303.15	814.94	0.57
313.15	807.77	0.6

System: trichloromethane + pentan-1-ol; phases: Liquid
Fixed: Pressure, kPa = 101
Property: Kinematic viscosity, m2/s (Liquid); method: CAPTUB:UFactor:2
Temperature, K	Mole fraction of trichloromethane	Kinematic viscosity, m2/s	uncertainty
303.15	0	3.731e-06	4.2e-08
303.15	0.0603	3.293e-06	3.8e-08
303.15	0.1009	3.022e-06	3.5e-08
303.15	0.1484	2.697e-06	3.1e-08
303.15	0.1999	2.371e-06	2.8e-08
303.15	0.2517	2.084e-06	2.5e-08
303.15	0.2999	1.827e-06	2.2e-08
303.15	0.3492	1.607e-06	2e-08
303.15	0.3998	1.392e-06	1.7e-08
303.15	0.45	1.218e-06	1.5e-08
303.15	0.5004	1.067e-06	1.4e-08
303.15	0.5498	9.31e-07	1.3e-08
303.15	0.6001	8.27e-07	1.2e-08
303.15	0.6513	7.24e-07	1.1e-08
303.15	0.7003	6.57e-07	1e-08
303.15	0.751	5.85e-07	1e-08
303.15	0.8	5.3e-07	9e-09
303.15	0.8503	4.87e-07	9e-09
303.15	0.9004	4.42e-07	9e-09
303.15	0.952	4.05e-07	8e-09
303.15	1	3.63e-07	8e-09
313.15	0	2.89e-06	3.3e-08
313.15	0.0603	2.56e-06	3e-08
313.15	0.1009	2.355e-06	2.8e-08
313.15	0.1484	2.116e-06	2.5e-08
313.15	0.1999	1.878e-06	2.2e-08
313.15	0.2517	1.661e-06	2e-08
313.15	0.2999	1.475e-06	1.8e-08
313.15	0.3492	1.308e-06	1.6e-08
313.15	0.3998	1.15e-06	1.5e-08
313.15	0.45	1.018e-06	1.3e-08
313.15	0.5004	9.03e-07	1.2e-08
313.15	0.5498	8.02e-07	1.2e-08
313.15	0.6001	7.22e-07	1.1e-08
313.15	0.6513	6.43e-07	1e-08
313.15	0.7003	5.85e-07	1e-08
313.15	0.751	5.3e-07	9e-09
313.15	0.8	4.83e-07	9e-09
313.15	0.8503	4.48e-07	9e-09
313.15	0.9004	4.11e-07	8e-09
313.15	0.952	3.75e-07	8e-09
313.15	1	3.39e-07	8e-09

System: trichloromethane + pentan-1-ol; phases: Liquid
Fixed: Pressure, kPa = 101
Property: Speed of sound, m/s (Liquid); method: Sing-around technique in a fixed-path interferometer
Temperature, K	Mole fraction of trichloromethane	Speed of sound, m/s	uncertainty
303.15	0	1264	3
303.15	0.0603	1241	3
303.15	0.1009	1226	3
303.15	0.1484	1209	3
303.15	0.1999	1190	3
303.15	0.2517	1171	3
303.15	0.2999	1153	3
303.15	0.3492	1135	3
303.15	0.3998	1118	2
303.15	0.45	1101	2
303.15	0.5004	1084	2
303.15	0.5498	1068	2
303.15	0.6001	1053	2
303.15	0.6513	1038	2
303.15	0.7003	1025	2
303.15	0.751	1012	2
303.15	0.8	1001	2
303.15	0.8503	991	2
303.15	0.9004	982	2
303.15	0.952	974	2
303.15	1	969	2
313.15	0	1228	3
313.15	0.0603	1206	3
313.15	0.1009	1191	3
313.15	0.1484	1173	3
313.15	0.1999	1154	3
313.15	0.2517	1135	3
313.15	0.2999	1117	2
313.15	0.3492	1099	2
313.15	0.3998	1082	2
313.15	0.45	1065	2
313.15	0.5004	1048	2
313.15	0.5498	1032	2
313.15	0.6001	1017	2
313.15	0.6513	1002	2
313.15	0.7003	989	2
313.15	0.751	977	2
313.15	0.8	966	2
313.15	0.8503	956	2
313.15	0.9004	947	2
313.15	0.952	938	2
313.15	1	934	2

System: trichloromethane + pentan-1-ol; phases: Liquid
Fixed: Pressure, kPa = 101
Property: Mass density, kg/m3 (Liquid); method: PYCNOM:UFactor:2
Temperature, K	Mole fraction of trichloromethane	Mass density, kg/m3	uncertainty
303.15	0	808.6	0.44
303.15	0.0603	838.65	0.48
303.15	0.1009	859.39	0.5
303.15	0.1484	884.22	0.52
303.15	0.1999	911.83	0.55
303.15	0.2517	940.34	0.57
303.15	0.2999	967.6	0.6
303.15	0.3492	996.23	0.62
303.15	0.3998	1026.46	0.65
303.15	0.45	1057.32	0.68
303.15	0.5004	1089.21	0.71
303.15	0.5498	1121.44	0.75
303.15	0.6001	1155.25	0.78
303.15	0.6513	1190.8	0.82
303.15	0.7003	1225.93	0.85
303.15	0.751	1263.53	0.89
303.15	0.8	1301.08	0.93
303.15	0.8503	1341.02	0.97
303.15	0.9004	1382.24	1.02
303.15	0.952	1426.4	1.06
303.15	1	1469.21	1.09
313.15	0	800.99	0.48
313.15	0.0603	830.58	0.51
313.15	0.1009	850.98	0.53
313.15	0.1484	875.42	0.55
313.15	0.1999	902.58	0.58
313.15	0.2517	930.67	0.6
313.15	0.2999	957.42	0.63
313.15	0.3492	985.58	0.65
313.15	0.3998	1015.29	0.68
313.15	0.45	1045.59	0.71
313.15	0.5004	1076.95	0.74
313.15	0.5498	1108.55	0.77
313.15	0.6001	1141.78	0.81
313.15	0.6513	1176.65	0.84
313.15	0.7003	1211.12	0.88
313.15	0.751	1247.97	0.91
313.15	0.8	1284.81	0.95
313.15	0.8503	1323.97	0.99
313.15	0.9004	1364.37	1.04
313.15	0.952	1407.56	1.08
313.15	1	1449.74	1.11

System: trichloromethane + hexan-1-ol; phases: Liquid
Fixed: Pressure, kPa = 101
Property: Kinematic viscosity, m2/s (Liquid); method: CAPTUB:UFactor:2
Temperature, K	Mole fraction of trichloromethane	Kinematic viscosity, m2/s	uncertainty
303.15	0	4.683e-06	5.6e-08
303.15	0.0497	4.356e-06	5.2e-08
303.15	0.1004	3.881e-06	4.7e-08
303.15	0.15	3.445e-06	4.2e-08
303.15	0.2006	3.044e-06	3.7e-08
303.15	0.2506	2.671e-06	3.3e-08
303.15	0.3005	2.336e-06	2.9e-08
303.15	0.3497	2.044e-06	2.6e-08
303.15	0.4004	1.774e-06	2.2e-08
303.15	0.4516	1.531e-06	2e-08
303.15	0.4996	1.338e-06	1.7e-08
303.15	0.552	1.144e-06	1.5e-08
303.15	0.6	9.87e-07	1.4e-08
303.15	0.654	8.52e-07	1.2e-08
303.15	0.7001	7.46e-07	1.1e-08
303.15	0.753	6.5e-07	1e-08
303.15	0.7992	5.82e-07	1e-08
303.15	0.8511	5.08e-07	9e-09
303.15	0.8996	4.5e-07	9e-09
303.15	0.9502	4.06e-07	8e-09
303.15	1	3.63e-07	8e-09
313.15	0	3.631e-06	4.4e-08
313.15	0.0497	3.213e-06	3.9e-08
313.15	0.1004	2.892e-06	3.6e-08
313.15	0.15	2.594e-06	3.2e-08
313.15	0.2006	2.311e-06	2.9e-08
313.15	0.2506	2.051e-06	2.6e-08
313.15	0.3005	1.825e-06	2.3e-08
313.15	0.3497	1.604e-06	2e-08
313.15	0.4004	1.409e-06	1.8e-08
313.15	0.4516	1.233e-06	1.6e-08
313.15	0.4996	1.089e-06	1.5e-08
313.15	0.552	9.5e-07	1.3e-08
313.15	0.6	8.33e-07	1.2e-08
313.15	0.654	7.35e-07	1.1e-08
313.15	0.7001	6.49e-07	1e-08
313.15	0.753	5.82e-07	1e-08
313.15	0.7992	5.22e-07	9e-09
313.15	0.8511	4.7e-07	9e-09
313.15	0.8996	4.26e-07	9e-09
313.15	0.9502	3.81e-07	8e-09
313.15	1	3.39e-07	8e-09

System: trichloromethane + hexan-1-ol; phases: Liquid
Fixed: Pressure, kPa = 101
Property: Speed of sound, m/s (Liquid); method: Sing-around technique in a fixed-path interferometer
Temperature, K	Mole fraction of trichloromethane	Speed of sound, m/s	uncertainty
303.15	0	1289	3
303.15	0.0497	1271	3
303.15	0.1004	1253	3
303.15	0.15	1236	3
303.15	0.2006	1217	3
303.15	0.2506	1198	3
303.15	0.3005	1180	3
303.15	0.3497	1161	3
303.15	0.4004	1142	3
303.15	0.4516	1123	3
303.15	0.4996	1106	3
303.15	0.552	1087	3
303.15	0.6	1070	3
303.15	0.654	1052	2
303.15	0.7001	1038	2
303.15	0.753	1023	2
303.15	0.7992	1010	2
303.15	0.8511	997	2
303.15	0.8996	987	2
303.15	0.9502	977	2
303.15	1	969	2
313.15	0	1256	3
313.15	0.0497	1238	3
313.15	0.1004	1220	3
313.15	0.15	1201	3
313.15	0.2006	1182	3
313.15	0.2506	1163	3
313.15	0.3005	1143	3
313.15	0.3497	1125	3
313.15	0.4004	1105	3
313.15	0.4516	1086	3
313.15	0.4996	1069	3
313.15	0.552	1051	2
313.15	0.6	1034	2
313.15	0.654	1016	2
313.15	0.7001	1002	2
313.15	0.753	986	2
313.15	0.7992	974	2
313.15	0.8511	961	2
313.15	0.8996	950	2
313.15	0.9502	941	2
313.15	1	934	2

System: trichloromethane + hexan-1-ol; phases: Liquid
Fixed: Pressure, kPa = 101
Property: Mass density, kg/m3 (Liquid); method: PYCNOM:UFactor:2
Temperature, K	Mole fraction of trichloromethane	Mass density, kg/m3	uncertainty
303.15	0	811.65	0.57
303.15	0.0497	833.07	0.59
303.15	0.1004	855.62	0.61
303.15	0.15	878.54	0.63
303.15	0.2006	902.79	0.65
303.15	0.2506	927.71	0.67
303.15	0.3005	953.48	0.69
303.15	0.3497	980.04	0.71
303.15	0.4004	1008.41	0.74
303.15	0.4516	1038.38	0.76
303.15	0.4996	1067.63	0.78
303.15	0.552	1100.94	0.81
303.15	0.6	1133.01	0.84
303.15	0.654	1170.75	0.87
303.15	0.7001	1204.57	0.9
303.15	0.753	1245.39	0.93
303.15	0.7992	1282.69	0.96
303.15	0.8511	1327.07	1
303.15	0.8996	1370.59	1.03
303.15	0.9502	1418.68	1.07
303.15	1	1469.21	1.09
313.15	0	804.24	0.6
313.15	0.0497	825.31	0.62
313.15	0.1004	847.51	0.64
313.15	0.15	870.06	0.66
313.15	0.2006	893.94	0.68
313.15	0.2506	918.4	0.7
313.15	0.3005	943.71	0.72
313.15	0.3497	969.85	0.74
313.15	0.4004	997.66	0.76
313.15	0.4516	1027.09	0.78
313.15	0.4996	1055.84	0.81
313.15	0.552	1088.53	0.83
313.15	0.6	1120	0.86
313.15	0.654	1157	0.89
313.15	0.7001	1190.18	0.92
313.15	0.753	1230.25	0.95
313.15	0.7992	1266.83	0.98
313.15	0.8511	1310.35	1.02
313.15	0.8996	1352.95	1.05
313.15	0.9502	1400.1	1.09
313.15	1	1449.74	1.11

System: trichloromethane + heptan-1-ol; phases: Liquid
Fixed: Pressure, kPa = 101
Property: Kinematic viscosity, m2/s (Liquid); method: CAPTUB:UFactor:2
Temperature, K	Mole fraction of trichloromethane	Kinematic viscosity, m2/s	uncertainty
303.15	0	6.188e-06	7.1e-08
303.15	0.0487	5.582e-06	6.5e-08
303.15	0.1002	4.978e-06	6e-08
303.15	0.1498	4.41e-06	5.3e-08
303.15	0.2006	3.862e-06	4.7e-08
303.15	0.2516	3.381e-06	4.1e-08
303.15	0.3003	2.93e-06	3.6e-08
303.15	0.3538	2.521e-06	3.1e-08
303.15	0.4003	2.179e-06	2.7e-08
303.15	0.4466	1.894e-06	2.4e-08
303.15	0.5001	1.605e-06	2e-08
303.15	0.5517	1.352e-06	1.7e-08
303.15	0.6002	1.174e-06	1.5e-08
303.15	0.6539	9.76e-07	1.3e-08
303.15	0.6994	8.51e-07	1.2e-08
303.15	0.7449	7.4e-07	1.1e-08
303.15	0.8	6.33e-07	1e-08
303.15	0.8465	5.58e-07	1e-08
303.15	0.9003	4.81e-07	9e-09
303.15	0.9521	4.2e-07	8e-09
303.15	1	3.63e-07	8e-09
313.15	0	4.588e-06	5.5e-08
313.15	0.0487	4.167e-06	5e-08
313.15	0.1002	3.743e-06	4.5e-08
313.15	0.1498	3.344e-06	4.1e-08
313.15	0.2006	2.954e-06	3.6e-08
313.15	0.2516	2.612e-06	3.2e-08
313.15	0.3003	2.293e-06	2.9e-08
313.15	0.3538	1.993e-06	2.5e-08
313.15	0.4003	1.75e-06	2.2e-08
313.15	0.4466	1.536e-06	2e-08
313.15	0.5001	1.321e-06	1.7e-08
313.15	0.5517	1.133e-06	1.5e-08
313.15	0.6002	1.001e-06	1.4e-08
313.15	0.6539	8.45e-07	1.2e-08
313.15	0.6994	7.41e-07	1.1e-08
313.15	0.7449	6.59e-07	1e-08
313.15	0.8	5.69e-07	1e-08
313.15	0.8465	5.09e-07	9e-09
313.15	0.9003	4.45e-07	9e-09
313.15	0.9521	3.88e-07	8e-09
313.15	1	3.39e-07	8e-09

System: trichloromethane + heptan-1-ol; phases: Liquid
Fixed: Pressure, kPa = 101
Property: Speed of sound, m/s (Liquid); method: Sing-around technique in a fixed-path interferometer
Temperature, K	Mole fraction of trichloromethane	Speed of sound, m/s	uncertainty
303.15	0	1312	3
303.15	0.0487	1296	3
303.15	0.1002	1277	3
303.15	0.1498	1260	3
303.15	0.2006	1241	3
303.15	0.2516	1222	3
303.15	0.3003	1204	3
303.15	0.3538	1183	3
303.15	0.4003	1165	3
303.15	0.4466	1147	3
303.15	0.5001	1126	3
303.15	0.5517	1107	3
303.15	0.6002	1089	3
303.15	0.6539	1070	3
303.15	0.6994	1054	2
303.15	0.7449	1039	2
303.15	0.8	1022	2
303.15	0.8465	1008	2
303.15	0.9003	993	2
303.15	0.9521	979	2
303.15	1	969	2
313.15	0	1278	3
313.15	0.0487	1262	3
313.15	0.1002	1244	3
313.15	0.1498	1226	3
313.15	0.2006	1207	3
313.15	0.2516	1187	3
313.15	0.3003	1168	3
313.15	0.3538	1147	3
313.15	0.4003	1129	3
313.15	0.4466	1111	3
313.15	0.5001	1091	3
313.15	0.5517	1072	3
313.15	0.6002	1054	2
313.15	0.6539	1035	2
313.15	0.6994	1019	2
313.15	0.7449	1004	2
313.15	0.8	987	2
313.15	0.8465	972	2
313.15	0.9003	957	2
313.15	0.9521	943	2
313.15	1	934	2

System: trichloromethane + heptan-1-ol; phases: Liquid
Fixed: Pressure, kPa = 101
Property: Mass density, kg/m3 (Liquid); method: PYCNOM:UFactor:2
Temperature, K	Mole fraction of trichloromethane	Mass density, kg/m3	uncertainty
303.15	0	814.94	0.57
303.15	0.0487	833.37	0.59
303.15	0.1002	853.69	0.61
303.15	0.1498	874.2	0.63
303.15	0.2006	896.15	0.64
303.15	0.2516	919.27	0.66
303.15	0.3003	942.39	0.68
303.15	0.3538	969.09	0.7
303.15	0.4003	993.52	0.72
303.15	0.4466	1019.1	0.74
303.15	0.5001	1050.23	0.77
303.15	0.5517	1082.09	0.8
303.15	0.6002	1113.83	0.82
303.15	0.6539	1151.17	0.85
303.15	0.6994	1184.84	0.88
303.15	0.7449	1220.55	0.91
303.15	0.8	1266.83	0.95
303.15	0.8465	1308.67	0.98
303.15	0.9003	1360.81	1.03
303.15	0.9521	1414.86	1.07
303.15	1	1469.21	1.09
313.15	0	807.77	0.6
313.15	0.0487	825.81	0.62
313.15	0.1002	845.75	0.64
313.15	0.1498	865.8	0.65
313.15	0.2006	887.32	0.67
313.15	0.2516	909.96	0.69
313.15	0.3003	932.57	0.71
313.15	0.3538	958.73	0.73
313.15	0.4003	982.67	0.75
313.15	0.4466	1007.69	0.77
313.15	0.5001	1038.22	0.79
313.15	0.5517	1069.43	0.82
313.15	0.6002	1100.51	0.84
313.15	0.6539	1137.19	0.87
313.15	0.6994	1170.19	0.9
313.15	0.7449	1205.18	0.93
313.15	0.8	1250.5	0.97
313.15	0.8465	1291.64	1
313.15	0.9003	1342.82	1.05
313.15	0.9521	1396.16	1.09
313.15	1	1449.74	1.11
