Measured thermophysical data. Thermodynamic Properties of Diphenylmethane
Source: J. Chem. Eng. Data, 2005, 10.1021/je050034s
Compound 1: diphenylmethane, C13H12, InChI=1S/C13H12/c1-3-7-12(8-4-1)11-13-9-5-2-6-10-13/h1-10H,11H2, purity 99.98%

System: diphenylmethane; phases: Crystal, Liquid, Gas
Property: Molar enthalpy of transition or fusion, kJ/mol (Crystal); method: ADIACA:FP
Molar enthalpy of transition or fusion, kJ/mol	uncertainty
19.008	0.02

System: diphenylmethane; phases: Crystal, Liquid, Gas
Property: Triple point temperature, K (Crystal); method: ADIACA:UFactor:0.5:FP
Triple point temperature, K	uncertainty
298.365	0.025

System: diphenylmethane; phases: Liquid, Gas
Property: Critical temperature, K (Liquid); method: DTA
Critical temperature, K	uncertainty
778	2

System: diphenylmethane; phases: Crystal, Gas
Property: Molar heat capacity at saturation pressure, J/K/mol (Crystal); method: Vacuum adiabatic calorimetry
Temperature, K	Molar heat capacity at saturation pressure, J/K/mol	uncertainty
5.364	0.47	0.02
6.296	0.76	0.02
7.218	1.16	0.02
8.187	1.71	0.02
9.195	2.42	0.03
10.212	3.31	0.04
11.33	4.39	0.05
12.599	5.74	0.06
13.993	7.45	0.07
15.532	9.437	0.07
17.238	11.84	0.091
19.131	14.59	0.1
21.21	17.66	0.108
23.51	21.15	0.116
26.075	24.97	0.116
28.932	29.09	0.116
32.11	33.47	0.108
35.662	37.99	0.116
39.617	42.58	0.125
44.018	47.26	0.133
48.941	51.94	0.141
50.871	53.74	0.15
52.95	55.44	0.15
54.43	56.74	0.158
55.007	57.11	0.158
57.89	59.58	0.158
59.908	61.04	0.166
63.588	63.66	0.166
65.428	65.06	0.175
69.821	68.05	0.175
76.62	72.36	0.183
78.191	73.39	0.191
81.129	75.18	0.191
84.193	76.96	0.191
85.518	77.76	0.2
88.471	79.51	0.2
96.788	84.275	0.283
105.906	89.505	0.291
115.546	94.96	0.299
125.311	100.54	0.299
135.115	106.25	0.308
145.055	112.15	0.316
155.051	118.34	0.316
165.031	124.68	0.324
175.009	131.04	0.333
185.003	138.14	0.341
195.046	145.11	0.349
205.137	152.48	0.349
215.252	160.17	0.358
225.344	168.15	0.366
235.385	176.42	0.374
245.372	185.01	0.382
246.513	185.99	0.382
255.317	193.89	0.391
257.334	195.76	0.399
268.603	206.43	0.407
279.29	217.16	0.416
289.278	229.55	0.432
289.372	229.9	0.432

System: diphenylmethane; phases: Liquid, Gas
Property: Molar heat capacity at saturation pressure, J/K/mol (Liquid); method: Vacuum adiabatic calorimetry
Temperature, K	Molar heat capacity at saturation pressure, J/K/mol	uncertainty
303.376	270.07	0.474
305.339	270.99	0.474
305.589	271.14	0.474
313.821	275.26	0.474
325.59	281.23	0.482
339.575	288.4	0.491
356.661	297.31	0.499
373.628	306.34	0.507
390.489	314.87	0.515
407.29	323.8	0.524
424.083	332.47	0.532
438.407	339.81	0.54

System: diphenylmethane; phases: Crystal, Gas
Property: Molar heat capacity at saturation pressure, J/K/mol (Crystal); method: Vacuum adiabatic calorimetry
Temperature, K	Molar heat capacity at saturation pressure, J/K/mol	uncertainty
5	0.38	0.02
10	3.12	0.04
20	15.87	0.1
30	30.59	0.108
40	43	0.125
50	52.92	0.15
60	61.11	0.166
70	68.16	0.175
80	74.47	0.191
90	80.38	0.283
100	86.121	0.283
120	97.496	0.299
140	109.13	0.308
160	121.47	0.324
180	134.55	0.333
200	148.68	0.349
220	163.86	0.366
240	180.3	0.382
260	198.12	0.399
280	217.44	0.416
298.15	236.26	0.441
298.365	236.5	0.441

System: diphenylmethane; phases: Liquid, Gas
Property: Molar heat capacity at saturation pressure, J/K/mol (Liquid); method: Vacuum adiabatic calorimetry
Temperature, K	Molar heat capacity at saturation pressure, J/K/mol	uncertainty
298.15	267.36	0.466
298.365	267.48	0.466
300	268.32	0.466
320	278.43	0.482
340	288.62	0.491
360	299.1	0.499
380	309.56	0.507
400	319.92	0.524
420	330.39	0.532
440	340.5	0.54
460	349.5	0.549

System: diphenylmethane; phases: Liquid, Gas
Property: Molar heat capacity at saturation pressure, J/K/mol (Liquid); method: Small sample (50 mg) DSC
Temperature, K	Molar heat capacity at saturation pressure, J/K/mol	uncertainty
480	358.67	7.1754
500	367.6	7.317
520	376.3	7.566
540	384.6	7.732
560	392.7	7.816
580	400.5	7.982
600	407.9	8.148
620	415.1	8.3145
640	422.3	8.4808
660	429.6	8.5639
680	437.4	8.7302
700	446.9	8.9796

System: diphenylmethane; phases: Crystal, Gas
Property: Molar enthalpy function {Hm(T)-Hm(0)}/T, J/K/mol (Crystal); method: Vacuum adiabatic calorimetry
Temperature, K	Molar enthalpy function {Hm(T)-Hm(0)}/T, J/K/mol	uncertainty
5	0.1	0.008
10	0.77	0.02
20	4.88	0.04
30	11.03	0.07
40	17.54	0.07
50	23.65	0.091
60	29.23	0.1
70	34.31	0.108
80	38.94	0.116
90	43.21	0.241
100	47.22	0.249
120	54.65	0.258
140	61.59	0.258
160	68.3	0.266
180	74.92	0.274
200	81.59	0.283
220	88.366	0.291
240	95.334	0.299
260	102.55	0.299
280	110.06	0.308
298.15	117.16	0.316
298.365	117.24	0.316

System: diphenylmethane; phases: Liquid, Gas
Property: Molar enthalpy function {Hm(T)-Hm(0)}/T, J/K/mol (Liquid); method: Vacuum adiabatic calorimetry
Temperature, K	Molar enthalpy function {Hm(T)-Hm(0)}/T, J/K/mol	uncertainty
298.15	180.89	0.382
298.365	180.95	0.382
300	181.42	0.382
320	187.18	0.391
340	192.84	0.391
360	198.45	0.399
380	204.03	0.407
400	209.56	0.407
420	215.06	0.416
440	220.54	0.424
460	225.95	0.424

System: diphenylmethane; phases: Liquid, Gas
Property: Vapor or sublimation pressure, kPa (Liquid); method: Inclined piston gauge
Temperature, K	Vapor or sublimation pressure, kPa	uncertainty
329.988	0.0261	0.001
339.985	0.0523	0.0011
349.976	0.0995	0.0011
359.973	0.1814	0.0012
369.982	0.3181	0.0014
379.976	0.5378	0.0016
389.969	0.8793	0.0021
399.968	1.3953	0.0027
409.974	2.1548	0.0036
414.97	2.6515	0.0043
419.972	3.2434	0.0049

System: diphenylmethane; phases: Liquid, Gas
Property: Vapor or sublimation pressure, kPa (Liquid); method: Twin ebulliometer
Temperature, K	Vapor or sublimation pressure, kPa	uncertainty
408.209	2.0002	0.0103
415.107	2.6663	0.0104
425.344	4.0003	0.0106
432.994	5.3335	0.0111
444.38	7.9994	0.0117
452.925	10.666	0.013
459.84	13.332	0.014
467.026	16.665	0.015
472.998	19.932	0.016
480.859	25.02	0.018
480.863	25.021	0.018
488.783	31.174	0.021
496.761	38.561	0.024
504.791	47.371	0.027
512.878	57.812	0.031
521.02	70.114	0.035
529.217	84.526	0.041
537.469	101.315	0.046
545.776	120.78	0.05
554.143	143.23	0.06
562.557	169	0.07
571.031	198.46	0.08
579.554	231.99	0.09
588.13	269.98	0.09

System: diphenylmethane; phases: Crystal, Gas
Property: Molar entropy, J/K/mol (Crystal); method: Vacuum adiabatic calorimetry
Temperature, K	Molar entropy, J/K/mol	uncertainty
5	0.13	0.02
10	1.03	0.02
20	6.76	0.07
30	16.01	0.108
40	26.58	0.141
50	37.28	0.175
60	47.68	0.208
70	57.64	0.233
80	67.16	0.266
90	76.28	0.416
100	85.04	0.424
120	101.75	0.449
140	117.64	0.474
160	133.01	0.499
180	148.06	0.524
200	162.96	0.549
220	177.84	0.565
240	192.79	0.59
260	207.92	0.615
280	223.29	0.632
298.15	237.54	0.657
298.365	237.7	0.657

System: diphenylmethane; phases: Liquid, Gas
Property: Molar entropy, J/K/mol (Liquid); method: Vacuum adiabatic calorimetry
Temperature, K	Molar entropy, J/K/mol	uncertainty
298.15	301.22	0.748
298.365	301.41	0.748
300	302.87	0.757
320	320.51	0.782
340	337.7	0.807
360	354.49	0.8314
380	370.94	0.8564
400	387.08	0.8813
420	402.94	0.9063
440	418.55	0.9312
460	433.89	0.9478

System: diphenylmethane; phases: Liquid, Gas
Property: Mass density, kg/m3 (Liquid); method: Vibrating tube method
Temperature, K	Mass density, kg/m3	uncertainty
308.14	996.7	1
323.14	985.3	1
348.13	965.6	1
373.12	945.8	0.9
398.12	926.1	0.9
423.12	905.7	0.9
448.11	885.4	0.9
473.11	864.3	0.9
498.11	842.6	0.9
523.11	819.2	0.8

System: diphenylmethane; phases: Gas, Liquid
Property: Mass density, kg/m3 (Gas); method: DSC
Temperature, K	Mass density, kg/m3	uncertainty
743.8	104.3	10.4
754.8	148.4	14.8
770	191.2	19.1
775.7	220.3	22

System: diphenylmethane; phases: Liquid, Gas
Property: Mass density, kg/m3 (Liquid); method: DSC
Temperature, K	Mass density, kg/m3	uncertainty
760.6	417.7	41.8
767.1	417.5	41.8
769.8	397.2	39.7
776.5	333.5	34.1
777	304.2	31.2
