Measured thermophysical data. Density, Viscosity, Excess Molar Volume, and Viscosity Deviation of Three Amyl Alcohols + Ethanol Binary Mixtures from 293.15 to 323.15 K
Source: J. Chem. Eng. Data, 2006, 10.1021/je050416y
Compound 1: 2-methyl-1-butanol, C5H12O, InChI=1S/C5H12O/c1-3-5(2)4-6/h5-6H,3-4H2,1-2H3
Compound 2: 2-methylbutan-2-ol, C5H12O, InChI=1S/C5H12O/c1-4-5(2,3)6/h6H,4H2,1-3H3
Compound 3: 3-methylbutan-1-ol, C5H12O, InChI=1S/C5H12O/c1-5(2)3-4-6/h5-6H,3-4H2,1-2H3
Compound 4: ethanol, C2H6O, InChI=1S/C2H6O/c1-2-3/h3H,2H2,1H3

System: 2-methyl-1-butanol; phases: Liquid
Fixed: Pressure, kPa = 101
Property: Kinematic viscosity, m2/s (Liquid); method: CAPTUB::UFactor:8
Temperature, K	Kinematic viscosity, m2/s	uncertainty
293.15	6.1084e-06	2.519e-07
298.15	5.3379e-06	2.279e-07
303.15	4.6898e-06	2.047e-07
308.15	4.0827e-06	1.796e-07
313.15	3.5374e-06	1.569e-07
318.15	3.0938e-06	1.383e-07
323.15	2.7215e-06	1.227e-07

System: 2-methyl-1-butanol; phases: Liquid
Fixed: Pressure, kPa = 101
Property: Mass density, kg/m3 (Liquid); method: Vibrating tube method
Temperature, K	Mass density, kg/m3	uncertainty
293.15	817.6	1
298.15	814.1	1
303.15	810.5	1
308.15	807.1	1
313.15	803.6	1
318.15	800.1	1
323.15	796.6	1

System: 2-methylbutan-2-ol; phases: Liquid
Fixed: Pressure, kPa = 101
Property: Kinematic viscosity, m2/s (Liquid); method: CAPTUB::UFactor:8
Temperature, K	Kinematic viscosity, m2/s	uncertainty
293.15	5.1087e-06	2.208e-07
298.15	4.4741e-06	1.958e-07
303.15	3.9086e-06	1.724e-07
308.15	3.387e-06	1.507e-07
313.15	2.9085e-06	1.306e-07
318.15	2.5214e-06	1.143e-07
323.15	2.094e-06	9.64e-08

System: 2-methylbutan-2-ol; phases: Liquid
Fixed: Pressure, kPa = 101
Property: Mass density, kg/m3 (Liquid); method: Vibrating tube method
Temperature, K	Mass density, kg/m3	uncertainty
293.15	813.9	1
298.15	810.5	1
303.15	807	1
308.15	803.5	1
313.15	800	1
318.15	796.6	1
323.15	793.3	1

System: 3-methylbutan-1-ol; phases: Liquid
Fixed: Pressure, kPa = 101
Property: Kinematic viscosity, m2/s (Liquid); method: CAPTUB::UFactor:8
Temperature, K	Kinematic viscosity, m2/s	uncertainty
293.15	5.0041e-06	2.175e-07
298.15	4.355e-06	1.909e-07
303.15	3.8147e-06	1.685e-07
308.15	3.3305e-06	1.483e-07
313.15	2.9366e-06	1.317e-07
318.15	2.5896e-06	1.171e-07
323.15	2.2863e-06	1.043e-07

System: 3-methylbutan-1-ol; phases: Liquid
Fixed: Pressure, kPa = 101
Property: Mass density, kg/m3 (Liquid); method: Vibrating tube method
Temperature, K	Mass density, kg/m3	uncertainty
293.15	808.3	1
298.15	804.6	1
303.15	800.8	1
308.15	797.1	1
313.15	793.2	1
318.15	789.5	1
323.15	785.7	1

System: ethanol; phases: Liquid
Fixed: Pressure, kPa = 101
Property: Kinematic viscosity, m2/s (Liquid); method: CAPTUB:UFactor:8
Temperature, K	Kinematic viscosity, m2/s	uncertainty
293.15	1.5248e-06	7.18e-08
298.15	1.3895e-06	6.61e-08
303.15	1.2261e-06	5.91e-08
308.15	1.1278e-06	5.49e-08
313.15	1.025e-06	5.05e-08
318.15	9.399e-07	4.68e-08
323.15	8.282e-07	4.2e-08

System: ethanol; phases: Liquid
Fixed: Pressure, kPa = 101
Property: Mass density, kg/m3 (Liquid); method: Vibrating tube method
Temperature, K	Mass density, kg/m3	uncertainty
293.15	789.7	1
298.15	785.3	1
303.15	780.9	1
308.15	776.5	1
313.15	772.2	1
318.15	767.9	1
323.15	763.5	1

System: ethanol + 2-methyl-1-butanol; phases: Liquid
Fixed: Pressure, kPa = 101
Property: Kinematic viscosity, m2/s (Liquid); method: CAPTUB:UFactor:8
Mole fraction of 2-methyl-1-butanol	Temperature, K	Kinematic viscosity, m2/s	uncertainty
0	293.15	1.5248e-06	7.18e-08
0	298.15	1.3895e-06	6.61e-08
0	303.15	1.2261e-06	5.91e-08
0	308.15	1.1278e-06	5.49e-08
0	313.15	1.025e-06	5.05e-08
0	318.15	9.399e-07	4.68e-08
0	323.15	8.282e-07	4.2e-08
0.0915	293.15	1.6616e-06	7.77e-08
0.0915	298.15	1.5003e-06	7.08e-08
0.0915	303.15	1.3164e-06	6.3e-08
0.0915	308.15	1.1983e-06	5.79e-08
0.0915	313.15	1.0785e-06	5.28e-08
0.0915	318.15	9.797e-07	4.85e-08
0.0915	323.15	8.586e-07	4.33e-08
0.1753	293.15	1.7965e-06	8.35e-08
0.1753	298.15	1.611e-06	7.56e-08
0.1753	303.15	1.4077e-06	6.69e-08
0.1753	308.15	1.2717e-06	6.1e-08
0.1753	313.15	1.1367e-06	5.53e-08
0.1753	318.15	1.0251e-06	5.05e-08
0.1753	323.15	8.958e-07	4.49e-08
0.2524	293.15	1.9181e-06	8.86e-08
0.2524	298.15	1.713e-06	7.99e-08
0.2524	303.15	1.4954e-06	7.06e-08
0.2524	308.15	1.3437e-06	6.41e-08
0.2524	313.15	1.196e-06	5.78e-08
0.2524	318.15	1.0735e-06	5.26e-08
0.2524	323.15	9.368e-07	4.67e-08
0.3235	293.15	2.0393e-06	9.38e-08
0.3235	298.15	1.8161e-06	8.43e-08
0.3235	303.15	1.5851e-06	7.45e-08
0.3235	308.15	1.4194e-06	6.74e-08
0.3235	313.15	1.2589e-06	6.05e-08
0.3235	318.15	1.1264e-06	5.48e-08
0.3235	323.15	9.833e-07	4.87e-08
0.3894	293.15	2.1715e-06	9.94e-08
0.3894	298.15	1.9295e-06	8.92e-08
0.3894	303.15	1.6846e-06	7.87e-08
0.3894	308.15	1.5037e-06	7.1e-08
0.3894	313.15	1.3306e-06	6.36e-08
0.3894	318.15	1.1865e-06	5.74e-08
0.3894	323.15	1.0363e-06	5.1e-08
0.4505	293.15	2.3219e-06	1.058e-07
0.4505	298.15	2.0592e-06	9.47e-08
0.4505	303.15	1.7984e-06	8.36e-08
0.4505	308.15	1.5994e-06	7.51e-08
0.4505	313.15	1.4108e-06	6.7e-08
0.4505	318.15	1.2547e-06	6.03e-08
0.4505	323.15	1.0957e-06	5.35e-08
0.5605	293.15	2.6732e-06	1.207e-07
0.5605	298.15	2.3576e-06	1.073e-07
0.5605	303.15	2.0569e-06	9.46e-08
0.5605	308.15	1.8187e-06	8.44e-08
0.5605	313.15	1.5954e-06	7.49e-08
0.5605	318.15	1.4116e-06	6.71e-08
0.5605	323.15	1.2327e-06	5.94e-08
0.6567	293.15	3.0617e-06	1.37e-07
0.6567	298.15	2.6912e-06	1.214e-07
0.6567	303.15	2.3483e-06	1.069e-07
0.6567	308.15	2.0654e-06	9.49e-08
0.6567	313.15	1.8039e-06	8.38e-08
0.6567	318.15	1.5898e-06	7.47e-08
0.6567	323.15	1.3881e-06	6.61e-08
0.7416	293.15	3.4735e-06	1.542e-07
0.7416	298.15	3.0445e-06	1.363e-07
0.7416	303.15	2.6577e-06	1.2e-07
0.7416	308.15	2.3298e-06	1.062e-07
0.7416	313.15	2.0281e-06	9.34e-08
0.7416	318.15	1.7823e-06	8.29e-08
0.7416	323.15	1.5575e-06	7.33e-08
0.817	293.15	3.92e-06	1.729e-07
0.817	298.15	3.4317e-06	1.525e-07
0.817	303.15	2.9992e-06	1.344e-07
0.817	308.15	2.6223e-06	1.185e-07
0.817	313.15	2.2786e-06	1.04e-07
0.817	318.15	1.9989e-06	9.21e-08
0.817	323.15	1.7485e-06	8.15e-08
0.8844	293.15	4.4525e-06	1.95e-07
0.8844	298.15	3.8929e-06	1.717e-07
0.8844	303.15	3.4069e-06	1.515e-07
0.8844	308.15	2.9705e-06	1.332e-07
0.8844	313.15	2.577e-06	1.166e-07
0.8844	318.15	2.2582e-06	1.031e-07
0.8844	323.15	1.978e-06	9.12e-08
0.9451	293.15	5.1446e-06	2.22e-07
0.9451	298.15	4.4938e-06	1.966e-07
0.9451	303.15	3.9396e-06	1.737e-07
0.9451	308.15	3.4295e-06	1.524e-07
0.9451	313.15	2.9727e-06	1.333e-07
0.9451	318.15	2.6012e-06	1.176e-07
0.9451	323.15	2.283e-06	1.041e-07
1	293.15	6.1084e-06	2.519e-07
1	298.15	5.3379e-06	2.279e-07
1	303.15	4.6898e-06	2.047e-07
1	308.15	4.0827e-06	1.796e-07
1	313.15	3.5374e-06	1.569e-07
1	318.15	3.0938e-06	1.383e-07
1	323.15	2.7215e-06	1.227e-07

System: ethanol + 2-methyl-1-butanol; phases: Liquid
Fixed: Pressure, kPa = 101
Property: Mass density, kg/m3 (Liquid); method: Vibrating tube method
Mole fraction of 2-methyl-1-butanol	Temperature, K	Mass density, kg/m3	uncertainty
0	293.15	789.7	1
0	298.15	785.3	1
0	303.15	780.9	1
0	308.15	776.5	1
0	313.15	772.2	1
0	318.15	767.9	1
0	323.15	763.5	1
0.0268	293.15	790.9	1
0.0268	298.15	786.6	1
0.0268	303.15	782.3	1
0.0268	308.15	778	1
0.0268	313.15	773.7	1
0.0268	318.15	769.4	1
0.0268	323.15	765.1	1
0.0549	293.15	792.1	1
0.0549	298.15	787.9	1
0.0549	303.15	783.7	1
0.0549	308.15	779.4	1
0.0549	313.15	775.2	1
0.0549	318.15	771	1
0.0549	323.15	766.7	1
0.0845	293.15	793.4	1
0.0845	298.15	789.2	1
0.0845	303.15	785	1
0.0845	308.15	780.9	1
0.0845	313.15	776.7	1
0.0845	318.15	772.5	1
0.0845	323.15	768.3	1
0.1156	293.15	794.7	1
0.1156	298.15	790.6	1
0.1156	303.15	786.4	1
0.1156	308.15	782.3	1
0.1156	313.15	778.2	1
0.1156	318.15	774.1	1
0.1156	323.15	769.9	1
0.1484	293.15	795.9	1
0.1484	298.15	791.9	1
0.1484	303.15	787.8	1
0.1484	308.15	783.8	1
0.1484	313.15	779.7	1
0.1484	318.15	775.6	1
0.1484	323.15	771.5	1
0.183	293.15	797.2	1
0.183	298.15	793.2	1
0.183	303.15	789.2	1
0.183	308.15	785.2	1
0.183	313.15	781.2	1
0.183	318.15	777.2	1
0.183	323.15	773.1	1
0.2584	293.15	799.9	1
0.2584	298.15	796	1
0.2584	303.15	792	1
0.2584	308.15	788.1	1
0.2584	313.15	784.2	1
0.2584	318.15	780.3	1
0.2584	323.15	776.3	1
0.3433	293.15	802.7	1
0.3433	298.15	798.8	1
0.3433	303.15	795	1
0.3433	308.15	791.2	1
0.3433	313.15	787.3	1
0.3433	318.15	783.5	1
0.3433	323.15	779.6	1
0.4395	293.15	805.5	1
0.4395	298.15	801.8	1
0.4395	303.15	798	1
0.4395	308.15	794.3	1
0.4395	313.15	790.5	1
0.4395	318.15	786.8	1
0.4395	323.15	782.9	1
0.5495	293.15	808.4	1
0.5495	298.15	804.8	1
0.5495	303.15	801.1	1
0.5495	308.15	797.5	1
0.5495	313.15	793.8	1
0.5495	318.15	790.1	1
0.5495	323.15	786.3	1
0.6765	293.15	811.4	1
0.6765	298.15	807.9	1
0.6765	303.15	804.2	1
0.6765	308.15	800.7	1
0.6765	313.15	797	1
0.6765	318.15	793.4	1
0.6765	323.15	789.7	1
0.8247	293.15	814.5	1
0.8247	298.15	811	1
0.8247	303.15	807.4	1
0.8247	308.15	803.9	1
0.8247	313.15	800.3	1
0.8247	318.15	796.7	1
0.8247	323.15	793.2	1
1	293.15	817.6	1
1	298.15	814.1	1
1	303.15	810.5	1
1	308.15	807.1	1
1	313.15	803.6	1
1	318.15	800.1	1
1	323.15	796.6	1

System: ethanol + 2-methylbutan-2-ol; phases: Liquid
Fixed: Pressure, kPa = 101
Property: Kinematic viscosity, m2/s (Liquid); method: CAPTUB:UFactor:8
Mole fraction of 2-methylbutan-2-ol	Temperature, K	Kinematic viscosity, m2/s	uncertainty
0	293.15	1.5248e-06	7.18e-08
0	298.15	1.3895e-06	6.61e-08
0	303.15	1.2261e-06	5.91e-08
0	308.15	1.1278e-06	5.49e-08
0	313.15	1.025e-06	5.05e-08
0	318.15	9.399e-07	4.68e-08
0	323.15	8.282e-07	4.2e-08
0.0915	293.15	1.6373e-06	7.66e-08
0.0915	298.15	1.5026e-06	7.09e-08
0.0915	303.15	1.3351e-06	6.38e-08
0.0915	308.15	1.23e-06	5.92e-08
0.0915	313.15	1.1181e-06	5.45e-08
0.0915	318.15	1.0234e-06	5.04e-08
0.0915	323.15	9.013e-07	4.52e-08
0.1753	293.15	1.7587e-06	8.18e-08
0.1753	298.15	1.6159e-06	7.57e-08
0.1753	303.15	1.4413e-06	6.83e-08
0.1753	308.15	1.3257e-06	6.33e-08
0.1753	313.15	1.2038e-06	5.81e-08
0.1753	318.15	1.1016e-06	5.38e-08
0.1753	323.15	9.68e-07	4.8e-08
0.2524	293.15	1.892e-06	8.75e-08
0.2524	298.15	1.7353e-06	8.08e-08
0.2524	303.15	1.5507e-06	7.3e-08
0.2524	308.15	1.4202e-06	6.74e-08
0.2524	313.15	1.288e-06	6.17e-08
0.2524	318.15	1.1775e-06	5.7e-08
0.2524	323.15	1.0318e-06	5.08e-08
0.3235	293.15	2.036e-06	9.36e-08
0.3235	298.15	1.8619e-06	8.62e-08
0.3235	303.15	1.6642e-06	7.78e-08
0.3235	308.15	1.5172e-06	7.15e-08
0.3235	313.15	1.3729e-06	6.54e-08
0.3235	318.15	1.2528e-06	6.02e-08
0.3235	323.15	1.0948e-06	5.35e-08
0.3894	293.15	2.1889e-06	1.001e-07
0.3894	298.15	1.9939e-06	9.18e-08
0.3894	303.15	1.7827e-06	8.29e-08
0.3894	308.15	1.6183e-06	7.59e-08
0.3894	313.15	1.4605e-06	6.91e-08
0.3894	318.15	1.3288e-06	6.35e-08
0.3894	323.15	1.1586e-06	5.63e-08
0.4505	293.15	2.3495e-06	1.069e-07
0.4505	298.15	2.1331e-06	9.78e-08
0.4505	303.15	1.9057e-06	8.81e-08
0.4505	308.15	1.724e-06	8.04e-08
0.4505	313.15	1.551e-06	7.3e-08
0.4505	318.15	1.4063e-06	6.68e-08
0.4505	323.15	1.223e-06	5.9e-08
0.5605	293.15	2.6943e-06	1.215e-07
0.5605	298.15	2.432e-06	1.104e-07
0.5605	303.15	2.1672e-06	9.92e-08
0.5605	308.15	1.9485e-06	8.99e-08
0.5605	313.15	1.7406e-06	8.11e-08
0.5605	318.15	1.5669e-06	7.37e-08
0.5605	323.15	1.3544e-06	6.47e-08
0.6567	293.15	3.0673e-06	1.372e-07
0.6567	298.15	2.7555e-06	1.241e-07
0.6567	303.15	2.4472e-06	1.111e-07
0.6567	308.15	2.1873e-06	1.001e-07
0.6567	313.15	1.9396e-06	8.96e-08
0.6567	318.15	1.7335e-06	8.08e-08
0.6567	323.15	1.4877e-06	7.04e-08
0.7416	293.15	3.4593e-06	1.536e-07
0.7416	298.15	3.096e-06	1.384e-07
0.7416	303.15	2.7398e-06	1.234e-07
0.7416	308.15	2.434e-06	1.105e-07
0.7416	313.15	2.1422e-06	9.82e-08
0.7416	318.15	1.9029e-06	8.8e-08
0.7416	323.15	1.6203e-06	7.61e-08
0.817	293.15	3.8599e-06	1.703e-07
0.817	298.15	3.4413e-06	1.528e-07
0.817	303.15	3.0378e-06	1.36e-07
0.817	308.15	2.6838e-06	1.211e-07
0.817	313.15	2.3442e-06	1.068e-07
0.817	318.15	2.0708e-06	9.52e-08
0.817	323.15	1.7507e-06	8.17e-08
0.8844	293.15	4.2629e-06	1.87e-07
0.8844	298.15	3.7838e-06	1.671e-07
0.8844	303.15	3.3322e-06	1.483e-07
0.8844	308.15	2.9269e-06	1.313e-07
0.8844	313.15	2.5417e-06	1.151e-07
0.8844	318.15	2.2324e-06	1.021e-07
0.8844	323.15	1.8749e-06	8.7e-08
0.9451	293.15	4.6727e-06	2.039e-07
0.9451	298.15	4.1243e-06	1.813e-07
0.9451	303.15	3.6216e-06	1.604e-07
0.9451	308.15	3.1621e-06	1.412e-07
0.9451	313.15	2.7308e-06	1.231e-07
0.9451	318.15	2.3839e-06	1.085e-07
0.9451	323.15	1.991e-06	9.2e-08
1	293.15	5.1087e-06	2.208e-07
1	298.15	4.4741e-06	1.958e-07
1	303.15	3.9086e-06	1.724e-07
1	308.15	3.387e-06	1.507e-07
1	313.15	2.9085e-06	1.306e-07
1	318.15	2.5214e-06	1.143e-07
1	323.15	2.094e-06	9.64e-08

System: ethanol + 2-methylbutan-2-ol; phases: Liquid
Fixed: Pressure, kPa = 101
Property: Mass density, kg/m3 (Liquid); method: Vibrating tube method
Mole fraction of 2-methylbutan-2-ol	Temperature, K	Mass density, kg/m3	uncertainty
0	293.15	789.7	1
0	298.15	785.3	1
0	303.15	780.9	1
0	308.15	776.5	1
0	313.15	772.2	1
0	318.15	767.9	1
0	323.15	763.5	1
0.0268	293.15	790.6	1
0.0268	298.15	786.4	1
0.0268	303.15	782.1	1
0.0268	308.15	777.8	1
0.0268	313.15	773.5	1
0.0268	318.15	769.3	1
0.0268	323.15	764.9	1
0.0549	293.15	791.5	1
0.0549	298.15	787.3	1
0.0549	303.15	783.2	1
0.0549	308.15	778.9	1
0.0549	313.15	774.8	1
0.0549	318.15	770.6	1
0.0549	323.15	766.3	1
0.0845	293.15	792.2	1
0.0845	298.15	788.2	1
0.0845	303.15	784.2	1
0.0845	308.15	780	1
0.0845	313.15	776	1
0.0845	318.15	771.9	1
0.0845	323.15	767.7	1
0.1156	293.15	793	1
0.1156	298.15	789.1	1
0.1156	303.15	785.2	1
0.1156	308.15	781.1	1
0.1156	313.15	777.2	1
0.1156	318.15	773.2	1
0.1156	323.15	769.1	1
0.1484	293.15	793.9	1
0.1484	298.15	790	1
0.1484	303.15	786.2	1
0.1484	308.15	782.3	1
0.1484	313.15	778.4	1
0.1484	318.15	774.4	1
0.1484	323.15	770.4	1
0.183	293.15	794.8	1
0.183	298.15	791	1
0.183	303.15	787.3	1
0.183	308.15	783.4	1
0.183	313.15	779.6	1
0.183	318.15	775.7	1
0.183	323.15	771.8	1
0.2584	293.15	797	1
0.2584	298.15	793.3	1
0.2584	303.15	789.7	1
0.2584	308.15	785.9	1
0.2584	313.15	782.2	1
0.2584	318.15	778.4	1
0.2584	323.15	774.6	1
0.3433	293.15	799.5	1
0.3433	298.15	795.9	1
0.3433	303.15	792.3	1
0.3433	308.15	788.6	1
0.3433	313.15	784.9	1
0.3433	318.15	781.2	1
0.3433	323.15	777.5	1
0.4395	293.15	802.4	1
0.4395	298.15	798.8	1
0.4395	303.15	795.2	1
0.4395	308.15	791.5	1
0.4395	313.15	787.9	1
0.4395	318.15	784.2	1
0.4395	323.15	780.5	1
0.5495	293.15	805.3	1
0.5495	298.15	801.8	1
0.5495	303.15	798.2	1
0.5495	308.15	794.6	1
0.5495	313.15	790.9	1
0.5495	318.15	787.3	1
0.5495	323.15	783.7	1
0.6765	293.15	808.3	1
0.6765	298.15	804.8	1
0.6765	303.15	801.3	1
0.6765	308.15	797.6	1
0.6765	313.15	794	1
0.6765	318.15	790.5	1
0.6765	323.15	787	1
0.8247	293.15	811.2	1
0.8247	298.15	807.7	1
0.8247	303.15	804.2	1
0.8247	308.15	800.6	1
0.8247	313.15	797.1	1
0.8247	318.15	793.6	1
0.8247	323.15	790.2	1
1	293.15	813.9	1
1	298.15	810.5	1
1	303.15	807	1
1	308.15	803.5	1
1	313.15	800	1
1	318.15	796.6	1
1	323.15	793.3	1

System: ethanol + 3-methylbutan-1-ol; phases: Liquid
Fixed: Pressure, kPa = 101
Property: Kinematic viscosity, m2/s (Liquid); method: CAPTUB:UFactor:8
Mole fraction of 3-methylbutan-1-ol	Temperature, K	Kinematic viscosity, m2/s	uncertainty
0	293.15	1.5248e-06	7.18e-08
0	298.15	1.3895e-06	6.61e-08
0	303.15	1.2261e-06	5.91e-08
0	308.15	1.1278e-06	5.49e-08
0	313.15	1.025e-06	5.05e-08
0	318.15	9.399e-07	4.68e-08
0	323.15	8.282e-07	4.2e-08
0.0915	293.15	1.5522e-06	7.3e-08
0.0915	298.15	1.4246e-06	6.76e-08
0.0915	303.15	1.2658e-06	6.08e-08
0.0915	308.15	1.1694e-06	5.66e-08
0.0915	313.15	1.0673e-06	5.23e-08
0.0915	318.15	9.799e-07	4.85e-08
0.0915	323.15	8.715e-07	4.39e-08
0.1753	293.15	1.6131e-06	7.56e-08
0.1753	298.15	1.4819e-06	7e-08
0.1753	303.15	1.322e-06	6.32e-08
0.1753	308.15	1.2213e-06	5.89e-08
0.1753	313.15	1.1174e-06	5.44e-08
0.1753	318.15	1.0257e-06	5.05e-08
0.1753	323.15	9.127e-07	4.57e-08
0.2524	293.15	1.6775e-06	7.84e-08
0.2524	298.15	1.5419e-06	7.26e-08
0.2524	303.15	1.3815e-06	6.57e-08
0.2524	308.15	1.2749e-06	6.12e-08
0.2524	313.15	1.1661e-06	5.65e-08
0.2524	318.15	1.07e-06	5.24e-08
0.2524	323.15	9.528e-07	4.74e-08
0.3235	293.15	1.7481e-06	8.14e-08
0.3235	298.15	1.6077e-06	7.54e-08
0.3235	303.15	1.4476e-06	6.86e-08
0.3235	308.15	1.3327e-06	6.36e-08
0.3235	313.15	1.2177e-06	5.87e-08
0.3235	318.15	1.1172e-06	5.44e-08
0.3235	323.15	9.961e-07	4.92e-08
0.3894	293.15	1.8311e-06	8.49e-08
0.3894	298.15	1.6859e-06	7.87e-08
0.3894	303.15	1.523e-06	7.18e-08
0.3894	308.15	1.3985e-06	6.65e-08
0.3894	313.15	1.2772e-06	6.13e-08
0.3894	318.15	1.1705e-06	5.67e-08
0.3894	323.15	1.0456e-06	5.14e-08
0.4505	293.15	1.9316e-06	8.92e-08
0.4505	298.15	1.7785e-06	8.27e-08
0.4505	303.15	1.6087e-06	7.54e-08
0.4505	308.15	1.4737e-06	6.97e-08
0.4505	313.15	1.346e-06	6.42e-08
0.4505	318.15	1.2315e-06	5.93e-08
0.4505	323.15	1.1022e-06	5.38e-08
0.5605	293.15	2.1884e-06	1.001e-07
0.5605	298.15	2.0061e-06	9.24e-08
0.5605	303.15	1.8112e-06	8.41e-08
0.5605	308.15	1.6525e-06	7.73e-08
0.5605	313.15	1.5077e-06	7.11e-08
0.5605	318.15	1.3739e-06	6.54e-08
0.5605	323.15	1.2344e-06	5.95e-08
0.6567	293.15	2.5104e-06	1.137e-07
0.6567	298.15	2.2811e-06	1.04e-07
0.6567	303.15	2.0519e-06	9.43e-08
0.6567	308.15	1.8635e-06	8.63e-08
0.6567	313.15	1.6935e-06	7.91e-08
0.6567	318.15	1.5377e-06	7.24e-08
0.6567	323.15	1.3854e-06	6.59e-08
0.7416	293.15	2.8877e-06	1.296e-07
0.7416	298.15	2.5971e-06	1.174e-07
0.7416	303.15	2.3282e-06	1.06e-07
0.7416	308.15	2.1026e-06	9.65e-08
0.7416	313.15	1.8994e-06	8.78e-08
0.7416	318.15	1.7188e-06	8.01e-08
0.7416	323.15	1.5485e-06	7.29e-08
0.817	293.15	3.3143e-06	1.475e-07
0.817	298.15	2.9584e-06	1.326e-07
0.817	303.15	2.6408e-06	1.192e-07
0.817	308.15	2.3675e-06	1.077e-07
0.817	313.15	2.1269e-06	9.75e-08
0.817	318.15	1.9171e-06	8.86e-08
0.817	323.15	1.7215e-06	8.03e-08
0.8844	293.15	3.7958e-06	1.676e-07
0.8844	298.15	3.3721e-06	1.5e-07
0.8844	303.15	2.9915e-06	1.34e-07
0.8844	308.15	2.6601e-06	1.201e-07
0.8844	313.15	2.3802e-06	1.082e-07
0.8844	318.15	2.1336e-06	9.78e-08
0.8844	323.15	1.9041e-06	8.81e-08
0.9451	293.15	4.3509e-06	1.907e-07
0.9451	298.15	3.8414e-06	1.695e-07
0.9451	303.15	3.3834e-06	1.505e-07
0.9451	308.15	2.9814e-06	1.336e-07
0.9451	313.15	2.6556e-06	1.199e-07
0.9451	318.15	2.3629e-06	1.075e-07
0.9451	323.15	2.0943e-06	9.61e-08
1	293.15	5.0041e-06	2.175e-07
1	298.15	4.355e-06	1.909e-07
1	303.15	3.8147e-06	1.685e-07
1	308.15	3.3305e-06	1.483e-07
1	313.15	2.9366e-06	1.317e-07
1	318.15	2.5896e-06	1.171e-07
1	323.15	2.2863e-06	1.043e-07

System: ethanol + 3-methylbutan-1-ol; phases: Liquid
Fixed: Pressure, kPa = 101
Property: Mass density, kg/m3 (Liquid); method: Vibrating tube method
Mole fraction of 3-methylbutan-1-ol	Temperature, K	Mass density, kg/m3	uncertainty
0	293.15	789.7	1
0	298.15	785.3	1
0	303.15	780.9	1
0	308.15	776.5	1
0	313.15	772.2	1
0	318.15	767.9	1
0	323.15	763.5	1
0.0268	293.15	790.5	1
0.0268	298.15	786.2	1
0.0268	303.15	781.8	1
0.0268	308.15	777.5	1
0.0268	313.15	773.2	1
0.0268	318.15	769	1
0.0268	323.15	764.6	1
0.0549	293.15	791.3	1
0.0549	298.15	787	1
0.0549	303.15	782.7	1
0.0549	308.15	778.4	1
0.0549	313.15	774.2	1
0.0549	318.15	770	1
0.0549	323.15	765.7	1
0.0845	293.15	792.1	1
0.0845	298.15	787.9	1
0.0845	303.15	783.7	1
0.0845	308.15	779.4	1
0.0845	313.15	775.2	1
0.0845	318.15	771	1
0.0845	323.15	766.7	1
0.1156	293.15	792.9	1
0.1156	298.15	788.8	1
0.1156	303.15	784.6	1
0.1156	308.15	780.4	1
0.1156	313.15	776.2	1
0.1156	318.15	772	1
0.1156	323.15	767.8	1
0.1484	293.15	793.8	1
0.1484	298.15	789.7	1
0.1484	303.15	785.5	1
0.1484	308.15	781.4	1
0.1484	313.15	777.2	1
0.1484	318.15	773.1	1
0.1484	323.15	768.9	1
0.183	293.15	794.7	1
0.183	298.15	790.6	1
0.183	303.15	786.5	1
0.183	308.15	782.4	1
0.183	313.15	778.2	1
0.183	318.15	774.1	1
0.183	323.15	769.9	1
0.2584	293.15	796.6	1
0.2584	298.15	792.5	1
0.2584	303.15	788.5	1
0.2584	308.15	784.4	1
0.2584	313.15	780.3	1
0.2584	318.15	776.3	1
0.2584	323.15	772.1	1
0.3433	293.15	798.5	1
0.3433	298.15	794.5	1
0.3433	303.15	790.5	1
0.3433	308.15	786.5	1
0.3433	313.15	782.4	1
0.3433	318.15	778.4	1
0.3433	323.15	774.3	1
0.4395	293.15	800.4	1
0.4395	298.15	796.5	1
0.4395	303.15	792.5	1
0.4395	308.15	788.6	1
0.4395	313.15	784.6	1
0.4395	318.15	780.6	1
0.4395	323.15	776.6	1
0.5495	293.15	802.4	1
0.5495	298.15	798.5	1
0.5495	303.15	794.6	1
0.5495	308.15	790.7	1
0.5495	313.15	786.7	1
0.5495	318.15	782.8	1
0.5495	323.15	778.9	1
0.6765	293.15	804.3	1
0.6765	298.15	800.5	1
0.6765	303.15	796.7	1
0.6765	308.15	792.9	1
0.6765	313.15	788.9	1
0.6765	318.15	785.1	1
0.6765	323.15	781.2	1
0.8247	293.15	806.3	1
0.8247	298.15	802.6	1
0.8247	303.15	798.7	1
0.8247	308.15	795	1
0.8247	313.15	791	1
0.8247	318.15	787.3	1
0.8247	323.15	783.4	1
1	293.15	808.3	1
1	298.15	804.6	1
1	303.15	800.8	1
1	308.15	797.1	1
1	313.15	793.2	1
1	318.15	789.5	1
1	323.15	785.7	1
