Measured thermophysical data. Phase Equilibrium for (Camphor + CO2), (Camphor + Propane), and (Camphor + CO2 + Propane)
Source: J. Chem. Eng. Data, 2006, 10.1021/je0505063
Compound 1: 1,7,7-trimethylbicyclo[2.2.1]-2-heptanone, C10H16O, InChI=1S/C10H16O/c1-9(2)7-4-5-10(9,3)8(11)6-7/h7H,4-6H2,1-3H3, purity 99.5%
Compound 2: carbon dioxide, CO2, InChI=1S/CO2/c2-1-3, purity 99.9%
Compound 3: propane, C3H8, InChI=1S/C3H8/c1-3-2/h3H2,1-2H3, purity 99%

System: 1,7,7-trimethylbicyclo[2.2.1]-2-heptanone + carbon dioxide; phases: Liquid, Gas
Property: Vapor or sublimation pressure, kPa (Liquid); method: CCELL:UFactor:8
Temperature, K	Mole fraction of carbon dioxide	Vapor or sublimation pressure, kPa	uncertainty
304	0.4472	3420	170
304	0.5716	4490	200
304	0.6482	5140	200
304	0.7487	5970	230
304	0.8054	6470	250
304	0.8558	6110	230
304	0.8873	6660	260
304	0.9264	6550	240
304	0.9558	6850	250
304	0.9618	6490	260
304	0.9759	6820	260
304	0.9907	7280	270
314	0.4472	3980	180
314	0.5716	5530	210
314	0.6482	6020	220
314	0.7487	7170	250
314	0.8054	7640	260
314	0.8558	7700	280
314	0.8873	8030	280
314	0.9264	8040	280
314	0.9558	8160	280
314	0.9618	8300	290
314	0.9759	8470	290
324	0.4472	4590	190
324	0.5716	6250	220
324	0.6482	7170	240
324	0.7487	8550	280
324	0.8054	9210	300
324	0.8558	9420	320
324	0.8873	9850	320
324	0.9264	9900	330
324	0.9558	9930	320
324	0.9618	10010	320
334	0.3955	4900	180
334	0.4472	5530	200
334	0.5716	7250	240
334	0.6482	8330	260
334	0.7487	10030	310
334	0.8054	10850	330
334	0.8558	11430	350
334	0.8873	11700	350
334	0.9264	11910	360
344	0.316	4290	180
344	0.3955	5330	190
344	0.4472	6150	210
344	0.5716	8140	250
344	0.6482	9440	280
344	0.7487	11510	330
344	0.8054	12620	360
344	0.8558	13390	390
344	0.8873	13650	390
344	0.9264	13870	400
354	0.316	4910	190
354	0.3955	6090	210
354	0.4472	6830	220
354	0.5716	9160	270
354	0.6482	10690	310
354	0.7487	13040	360
354	0.8054	14370	390
354	0.8558	15280	420
354	0.8873	15550	430

System: 1,7,7-trimethylbicyclo[2.2.1]-2-heptanone + carbon dioxide; phases: Gas, Liquid
Property: Vapor or sublimation pressure, kPa (Gas); method: CCELL:UFactor:8
Temperature, K	Mole fraction of carbon dioxide	Vapor or sublimation pressure, kPa	uncertainty
314	0.9907	8650	270
324	0.9759	10040	330
324	0.9907	9880	310
334	0.9558	11780	350
334	0.9618	11820	360
334	0.9759	11950	350
334	0.9907	12060	340
344	0.9558	13580	390
344	0.9618	13750	390
344	0.9759	13460	370
344	0.9907	12590	320
354	0.9264	15610	430
354	0.9558	15710	440
354	0.9618	15430	420
354	0.9759	14940	400

System: propane + 1,7,7-trimethylbicyclo[2.2.1]-2-heptanone; phases: Liquid, Gas
Property: Vapor or sublimation pressure, kPa (Liquid); method: CCELL:UFactor:8
Temperature, K	Mole fraction of propane	Vapor or sublimation pressure, kPa	uncertainty
304	0.5129	1000	150
304	0.5753	1080	140
304	0.7461	1280	150
304	0.8451	1140	140
304	0.9907	1200	150
304	0.9943	1250	150
314	0.5129	1300	150
314	0.5753	1330	150
314	0.7461	1550	150
314	0.8451	1400	150
314	0.9907	1540	150
314	0.9943	1570	150
324	0.5129	1560	150
324	0.5753	1570	150
324	0.7461	1840	150
324	0.8451	1760	150
324	0.9907	1930	150
324	0.9943	1940	150
334	0.4306	1640	150
334	0.5129	1810	150
334	0.5753	1920	150
334	0.7461	2190	150
334	0.8451	2140	150
334	0.9907	2360	160
334	0.9943	2380	160
344	0.4306	1980	150
344	0.5129	2170	150
344	0.5753	2290	150
344	0.7461	2570	160
344	0.8451	2570	160
344	0.9907	2840	160
344	0.9943	2860	160
354	0.4306	2190	150
354	0.5129	2410	150
354	0.5753	2580	160
354	0.7461	2980	160
354	0.8451	3050	160
354	0.9907	3390	170
354	0.9943	3400	170
364	0.298	1980	150
364	0.4306	2400	150
364	0.5129	2600	150
364	0.5753	2970	160
364	0.7461	3460	170
364	0.8451	3570	170
364	0.9907	3980	180
364	0.9943	4000	180
374	0.298	2150	150
374	0.4306	2630	150
374	0.5129	2910	160
374	0.5753	3350	160
374	0.7461	3880	170
374	0.8451	4120	180
374	0.9907	4500	180
384	0.298	2280	150
384	0.4306	2840	160
384	0.5129	3310	160
384	0.5753	3700	170
384	0.7461	4390	180
384	0.8451	4690	190

System: propane + 1,7,7-trimethylbicyclo[2.2.1]-2-heptanone; phases: Gas, Liquid
Property: Vapor or sublimation pressure, kPa (Gas); method: CCELL:UFactor:8
Temperature, K	Mole fraction of propane	Vapor or sublimation pressure, kPa	uncertainty
374	0.9943	4500	180
384	0.9907	4770	180
384	0.9943	4890	180

System: propane + 1,7,7-trimethylbicyclo[2.2.1]-2-heptanone + carbon dioxide; phases: Gas, Liquid
Fixed: Temperature, K = 354
Property: Vapor or sublimation pressure, kPa (Gas); method: CCELL:UFactor:16
Mole fraction of 1,7,7-trimethylbicyclo[2.2.1]-2-heptanone	Mole fraction of carbon dioxide	Vapor or sublimation pressure, kPa	uncertainty
0.0568	0.6767	11380	800
0.063	0.8896	15020	1060

System: propane + 1,7,7-trimethylbicyclo[2.2.1]-2-heptanone + carbon dioxide; phases: Liquid, Gas
Property: Vapor or sublimation pressure, kPa (Liquid); method: CCELL:UFactor:16
Mole fraction of 1,7,7-trimethylbicyclo[2.2.1]-2-heptanone	Mole fraction of carbon dioxide	Temperature, K	Vapor or sublimation pressure, kPa	uncertainty
0.0494	0.233	304	2400	180
0.0494	0.233	314	2710	200
0.0494	0.233	324	3660	230
0.0494	0.233	334	4340	250
0.0494	0.233	344	4790	270
0.0494	0.233	354	5530	290
0.0566	0.396	304	3810	230
0.0566	0.396	314	4540	260
0.0566	0.396	324	5290	290
0.0566	0.396	334	6090	320
0.0566	0.396	344	6940	350
0.0566	0.396	354	7770	390
0.0568	0.6767	304	4820	290
0.0568	0.6767	314	6120	330
0.0568	0.6767	324	7250	380
0.0568	0.6767	334	8700	450
0.0568	0.6767	344	10090	520
0.063	0.8896	304	6770	360
0.063	0.8896	314	8030	430
0.063	0.8896	324	9820	520
0.063	0.8896	334	11570	600
0.063	0.8896	344	13320	680
0.1105	0.7007	304	4980	320
0.1105	0.7007	314	6780	370
0.1105	0.7007	324	7990	420
0.1105	0.7007	334	9250	500
0.1105	0.7007	344	11190	580
0.1105	0.7007	354	12610	640
