Measured thermophysical data. Measurement and Correlation of the Thermal Conductivity of Pentafluoroethane (R125) from 190 K to 512 K at Pressures to 70 MPa
Source: J. Chem. Eng. Data, 2006, 10.1021/je050372t
Compound 1: pentafluoroethane, C2HF5, InChI=1S/C2HF5/c3-1(4)2(5,6)7/h1H, purity 99.92%

System: pentafluoroethane; phases: Gas
Property: Thermal conductivity, W/m/K (Gas); method: Hot wire method
Temperature, K	Pressure, kPa	Thermal conductivity, W/m/K	uncertainty
221.805	61	0.00854	0.0002562
221.811	68	0.00852	0.0002556
221.83	60	0.00856	0.0002568
221.865	41	0.00859	0.0002577
221.883	61	0.00852	0.0002556
222.023	31	0.0087	0.000261
222.135	62	0.00855	0.0002565
222.145	60	0.00855	0.0002565
222.201	41	0.0086	0.000258
222.218	60	0.00854	0.0002562
222.374	33	0.0087	0.000261
222.483	63	0.00856	0.0002568
222.499	63	0.00856	0.0002568
222.565	41	0.0086	0.000258
222.57	60	0.00854	0.0002562
222.738	34	0.00869	0.0002607
222.853	64	0.0086	0.000258
222.868	64	0.00859	0.0002577
222.946	41	0.00862	0.0002586
222.956	59	0.00858	0.0002574
223.121	36	0.0087	0.000261
231.586	111	0.00917	0.0002751
231.639	81	0.0092	0.000276
231.712	57	0.00923	0.0002769
231.784	40	0.00928	0.0002784
231.888	112	0.00919	0.0002757
231.947	83	0.00922	0.0002766
232.035	58	0.00924	0.0002772
232.124	40	0.00928	0.0002784
232.214	113	0.0092	0.000276
232.279	84	0.00923	0.0002769
232.383	59	0.00925	0.0002775
232.479	40	0.00926	0.0002778
232.568	114	0.00922	0.0002766
232.637	86	0.00925	0.0002775
232.749	60	0.00927	0.0002781
232.864	40	0.0093	0.000279
241.916	160	0.00991	0.0002973
241.939	69	0.00999	0.0002997
241.941	135	0.00988	0.0002964
241.948	92	0.00994	0.0002982
241.952	41	0.00991	0.0002973
241.959	123	0.00991	0.0002973
242.231	163	0.00992	0.0002976
242.247	69	0.01	0.0003
242.259	136	0.00991	0.0002973
242.265	92	0.00995	0.0002985
242.268	123	0.00991	0.0002973
242.275	41	0.00991	0.0002973
242.546	165	0.00992	0.0002976
242.588	69	0.01	0.0003
242.598	92	0.00995	0.0002985
242.6	137	0.00993	0.0002979
242.61	123	0.00991	0.0002973
242.621	41	0.00993	0.0002979
242.903	167	0.00995	0.0002985
242.951	69	0.01003	0.0003009
242.955	139	0.00995	0.0002985
242.964	93	0.00999	0.0002997
242.972	123	0.00994	0.0002982
242.976	41	0.00994	0.0002982
251.516	250	0.01058	0.0003174
251.536	224	0.01058	0.0003174
251.57	181	0.0106	0.000318
251.585	185	0.01057	0.0003171
251.587	113	0.01064	0.0003192
251.587	142	0.0106	0.000318
251.699	134	0.01059	0.0003177
251.762	91	0.01059	0.0003177
251.8	253	0.01061	0.0003183
251.835	224	0.01059	0.0003177
251.875	182	0.01059	0.0003177
251.883	142	0.01062	0.0003186
251.884	111	0.01065	0.0003195
251.888	186	0.01058	0.0003174
251.905	42	0.01066	0.0003198
252.009	136	0.0106	0.000318
252.099	92	0.01061	0.0003183
252.113	255	0.01059	0.0003177
252.148	225	0.01053	0.0003159
252.201	107	0.01065	0.0003195
252.205	187	0.0106	0.000318
252.215	142	0.01062	0.0003186
252.226	184	0.01057	0.0003171
252.26	43	0.01068	0.0003204
252.329	137	0.0106	0.000318
252.433	258	0.01064	0.0003192
252.441	93	0.01062	0.0003186
252.492	225	0.01064	0.0003192
252.546	99	0.01072	0.0003216
252.55	141	0.01065	0.0003195
252.552	187	0.01064	0.0003192
252.576	186	0.01061	0.0003183
252.638	43	0.01067	0.0003201
252.689	139	0.01064	0.0003192
252.805	94	0.01066	0.0003198
253.033	43	0.01068	0.0003204
261.639	385	0.0114	0.000342
261.916	389	0.01142	0.0003426
261.923	409	0.01144	0.0003432
261.948	361	0.01142	0.0003426
262.006	310	0.01138	0.0003414
262.048	275	0.01135	0.0003405
262.111	220	0.01135	0.0003405
262.179	173	0.01135	0.0003405
262.198	391	0.01142	0.0003426
262.216	409	0.01145	0.0003435
262.247	126	0.01137	0.0003411
262.254	361	0.01142	0.0003426
262.304	311	0.01139	0.0003417
262.344	83	0.01143	0.0003429
262.351	275	0.01137	0.0003411
262.426	220	0.01133	0.0003399
262.501	174	0.01134	0.0003402
262.508	395	0.01142	0.0003426
262.521	409	0.01145	0.0003435
262.563	361	0.01143	0.0003429
262.579	127	0.01137	0.0003411
262.629	311	0.0114	0.000342
262.68	275	0.01138	0.0003414
262.691	83	0.01144	0.0003432
262.764	221	0.01138	0.0003414
262.813	409	0.01146	0.0003438
262.845	175	0.01139	0.0003417
262.894	361	0.01145	0.0003435
262.926	128	0.0114	0.000342
262.959	312	0.01141	0.0003423
263.025	276	0.01141	0.0003423
263.056	83	0.01144	0.0003432
263.112	222	0.0114	0.000342
263.208	176	0.0114	0.000342
263.309	129	0.01142	0.0003426
263.466	83	0.01145	0.0003435
271.694	577	0.01219	0.0003657
271.73	546	0.0123	0.000369
271.841	463	0.01222	0.0003666
271.869	399	0.01216	0.0003648
271.925	331	0.01214	0.0003642
271.967	577	0.0123	0.000369
271.975	249	0.01213	0.0003639
272.01	549	0.0123	0.000369
272.028	193	0.01214	0.0003642
272.086	465	0.01223	0.0003669
272.129	136	0.01214	0.0003642
272.157	400	0.01219	0.0003657
272.216	332	0.01215	0.0003645
272.234	77	0.0122	0.000366
272.284	251	0.01213	0.0003639
272.287	577	0.01232	0.0003696
272.297	551	0.01229	0.0003687
272.35	194	0.01209	0.0003627
272.381	468	0.01223	0.0003669
272.446	136	0.01211	0.0003633
272.468	401	0.01219	0.0003657
272.524	332	0.01214	0.0003642
272.582	77	0.01218	0.0003654
272.592	577	0.0123	0.000369
272.608	553	0.01233	0.0003699
272.611	253	0.01213	0.0003639
272.687	195	0.01213	0.0003639
272.696	470	0.01225	0.0003675
272.79	136	0.01215	0.0003645
272.794	402	0.0122	0.000366
272.859	333	0.01215	0.0003645
272.959	77	0.0122	0.000366
272.959	254	0.01214	0.0003642
273.045	195	0.01214	0.0003642
273.165	136	0.01215	0.0003645
273.34	77	0.01222	0.0003666
281.604	787	0.01328	0.0003984
281.647	726	0.01321	0.0003963
281.656	654	0.01312	0.0003936
281.688	585	0.0131	0.000393
281.718	518	0.013	0.00039
281.76	440	0.01294	0.0003882
281.809	364	0.01291	0.0003873
281.857	787	0.01327	0.0003981
281.864	291	0.01288	0.0003864
281.902	726	0.0132	0.000396
281.919	653	0.01311	0.0003933
281.928	202	0.01291	0.0003873
281.957	585	0.0131	0.000393
281.992	517	0.013	0.00039
282.041	144	0.0129	0.000387
282.044	440	0.01295	0.0003885
282.096	364	0.01293	0.0003879
282.124	786	0.01328	0.0003984
282.149	82	0.01301	0.0003903
282.171	291	0.01296	0.0003888
282.176	726	0.01319	0.0003957
282.196	652	0.01309	0.0003927
282.243	584	0.01303	0.0003909
282.253	202	0.0129	0.000387
282.288	517	0.01298	0.0003894
282.348	440	0.01295	0.0003885
282.363	145	0.01293	0.0003879
282.406	365	0.01294	0.0003882
282.412	786	0.0133	0.000399
282.461	725	0.01322	0.0003966
282.478	82	0.01301	0.0003903
282.479	291	0.01294	0.0003882
282.506	651	0.01313	0.0003939
282.542	584	0.01308	0.0003924
282.581	203	0.01292	0.0003876
282.594	517	0.01303	0.0003909
282.652	440	0.01301	0.0003903
282.705	146	0.01297	0.0003891
282.722	365	0.01296	0.0003888
282.822	290	0.01294	0.0003882
282.85	82	0.01303	0.0003909
282.924	204	0.01296	0.0003888
283.056	147	0.01297	0.0003891
283.219	83	0.01307	0.0003921
291.319	1058	0.01437	0.0001437
291.381	962	0.0143	0.000429
291.427	877	0.01409	0.0004227
291.475	798	0.01417	0.0004251
291.515	715	0.01387	0.0004161
291.552	1058	0.01437	0.0001437
291.566	617	0.01382	0.0004146
291.598	542	0.0138	0.000414
291.616	962	0.01422	0.0004266
291.637	450	0.01372	0.0004116
291.671	877	0.01408	0.0004224
291.691	359	0.01373	0.0004119
291.714	798	0.01405	0.0004215
291.767	277	0.01373	0.0004119
291.771	715	0.01388	0.0004164
291.794	1058	0.0144	0.000144
291.831	617	0.01385	0.0004155
291.862	542	0.01382	0.0004146
291.863	962	0.01425	0.0004275
291.908	177	0.01373	0.0004119
291.913	450	0.01374	0.0004122
291.927	877	0.01414	0.0004242
291.976	798	0.01403	0.0004209
291.985	359	0.01373	0.0004119
292.048	87	0.01383	0.0004149
292.048	715	0.01389	0.0004167
292.061	277	0.01372	0.0004116
292.063	1058	0.01435	0.0001435
292.106	617	0.01383	0.0004149
292.134	962	0.01423	0.0004269
292.146	542	0.01376	0.0004128
292.202	877	0.01409	0.0004227
292.214	177	0.01371	0.0004113
292.219	450	0.01371	0.0004113
292.261	798	0.01399	0.0004197
292.29	359	0.01374	0.0004122
292.331	715	0.01393	0.0004179
292.377	86	0.01382	0.0004146
292.381	277	0.01372	0.0004116
292.41	617	0.01385	0.0004155
292.46	542	0.01381	0.0004143
292.513	450	0.01378	0.0004134
292.54	177	0.01376	0.0004128
292.621	359	0.01374	0.0004122
292.698	277	0.01375	0.0004125
292.735	87	0.01385	0.0004155
292.901	177	0.01376	0.0004128
293.102	86	0.01387	0.0004161
301.349	1381	0.01566	0.0001566
301.373	1301	0.01549	0.0001549
301.412	1171	0.01518	0.0001518
301.487	1063	0.01501	0.0001501
301.53	952	0.01493	0.0004479
301.555	1381	0.01568	0.0001568
301.561	857	0.01482	0.0004446
301.595	1295	0.01549	0.0001549
301.617	762	0.01472	0.0004416
301.641	1171	0.01521	0.0001521
301.658	664	0.01469	0.0004407
301.709	556	0.01464	0.0004392
301.721	1063	0.01501	0.0001501
301.777	428	0.01457	0.0004371
301.78	952	0.01493	0.0004479
301.782	1381	0.01566	0.0001566
301.807	857	0.01482	0.0004446
301.831	1288	0.0155	0.000155
301.833	317	0.0146	0.000438
301.866	762	0.01475	0.0004425
301.869	1171	0.0152	0.000152
301.911	664	0.01467	0.0004401
301.926	215	0.0146	0.000438
301.968	1063	0.01503	0.0001503
301.971	556	0.01462	0.0004386
302.024	1381	0.0156	0.000156
302.034	952	0.01496	0.0004488
302.043	428	0.01457	0.0004371
302.072	857	0.01483	0.0004449
302.09	1280	0.01547	0.0001547
302.097	95	0.01472	0.0004416
302.125	317	0.0146	0.000438
302.128	762	0.01475	0.0004425
302.13	1171	0.01518	0.0001518
302.193	664	0.01464	0.0004392
302.23	215	0.01459	0.0004377
302.239	1063	0.01498	0.0001498
302.254	556	0.01457	0.0004371
302.294	952	0.01494	0.0004482
302.337	428	0.01456	0.0004368
302.35	857	0.01484	0.0004452
302.409	95	0.01468	0.0004404
302.411	762	0.01476	0.0004428
302.433	317	0.0146	0.000438
302.485	664	0.01468	0.0004404
302.532	215	0.01463	0.0004389
302.555	556	0.01463	0.0004389
302.654	428	0.01459	0.0004377
302.755	317	0.01463	0.0004389
302.768	95	0.01473	0.0004419
302.875	215	0.01461	0.0004383
303.127	95	0.01477	0.0004431

System: pentafluoroethane; phases: Liquid
Property: Thermal conductivity, W/m/K (Liquid); method: Hot wire method
Temperature, K	Pressure, kPa	Thermal conductivity, W/m/K	uncertainty
192.068	45469	0.12332	0.001233
192.085	45588	0.12357	0.001236
192.164	35054	0.12023	0.001202
192.267	8738	0.11113	0.001111
192.287	20302	0.11542	0.001154
192.355	1364	0.10812	0.001081
192.394	45466	0.12305	0.001231
192.423	45607	0.12324	0.001232
192.518	35049	0.11992	0.001199
192.621	8738	0.1108	0.001108
192.627	20306	0.11502	0.00115
192.726	1363	0.10776	0.001078
192.759	45470	0.12286	0.001229
192.774	45642	0.12303	0.00123
192.878	35043	0.11964	0.001196
193.021	20301	0.11475	0.001148
193.026	8733	0.11047	0.001105
193.126	1366	0.1075	0.001075
193.152	45457	0.12275	0.001228
193.166	45674	0.12265	0.001226
193.28	35036	0.1195	0.001195
193.433	20297	0.11455	0.001146
193.46	8727	0.10995	0.0011
193.57	1365	0.10739	0.001074
212.439	14739	0.10485	0.001049
212.47	55897	0.11939	0.001194
212.532	54506	0.11936	0.001194
212.58	1324	0.09876	0.0009876
212.592	41314	0.11468	0.001147
212.605	41310	0.11471	0.001147
212.722	26816	0.10939	0.001094
212.832	14727	0.10461	0.001046
212.857	55894	0.11918	0.001192
212.913	54502	0.11912	0.001191
212.986	41317	0.11452	0.001145
212.99	41307	0.11443	0.001144
212.995	1324	0.09819	0.0009819
213.129	26817	0.10909	0.001091
213.265	55886	0.11889	0.001189
213.267	14721	0.10427	0.001043
213.332	54493	0.11887	0.001189
213.413	41317	0.11413	0.001141
213.427	41310	0.11412	0.001141
213.45	1324	0.09791	0.0009791
213.567	26814	0.10876	0.001088
213.712	55889	0.11866	0.001187
213.741	14711	0.10386	0.001039
213.765	54490	0.11892	0.001189
213.878	41314	0.11394	0.001139
213.88	41304	0.1146	0.001146
213.951	1324	0.09744	0.0009744
214.054	26812	0.10858	0.001086
232.405	1308	0.08957	0.0008957
232.68	20502	0.09921	0.0009921
232.691	63611	0.11532	0.001153
232.728	63722	0.11541	0.001154
232.798	55515	0.11253	0.001125
232.799	11792	0.09488	0.0009488
232.816	3601	0.09041	0.0009041
232.827	1308	0.08909	0.0008909
232.898	43999	0.10835	0.001084
232.993	31008	0.10318	0.001032
233.095	63618	0.11504	0.00115
233.107	20509	0.09864	0.0009864
233.118	63733	0.11522	0.001152
233.217	55519	0.11207	0.001121
233.24	11787	0.09427	0.0009427
233.264	3600	0.08991	0.0008991
233.278	1308	0.08868	0.0008868
233.329	44004	0.1077	0.001077
233.434	31009	0.1027	0.001027
233.531	63626	0.11445	0.001144
233.549	63739	0.11463	0.001146
233.579	20509	0.09824	0.0009824
233.654	55520	0.11139	0.001114
233.728	11786	0.09355	0.0009355
233.768	3599	0.08919	0.0008919
233.787	1307	0.08808	0.0008808
233.789	44006	0.10691	0.001069
233.918	31013	0.10198	0.00102
234.006	63634	0.11416	0.001142
234.027	63751	0.11404	0.00114
234.086	20512	0.0973	0.000973
234.133	55516	0.11144	0.001114
234.25	11786	0.09342	0.0009342
234.283	44006	0.10745	0.001074
234.314	3598	0.08873	0.0008873
234.435	31010	0.10183	0.001018
252.277	4290	0.08251	0.0008251
252.306	1261	0.08048	0.0008048
252.405	34985	0.09841	0.0009841
252.408	25272	0.09385	0.0009385
252.569	16724	0.08942	0.0008942
252.59	67750	0.11096	0.00111
252.662	57511	0.10707	0.001071
252.697	9860	0.08551	0.0008551
252.709	4290	0.08205	0.0008205
252.733	45386	0.10243	0.001024
252.759	1262	0.08004	0.0008004
252.828	34979	0.09791	0.0009791
252.84	25270	0.09344	0.0009344
253.014	16722	0.08909	0.0008909
253.014	67766	0.11046	0.001105
253.096	57504	0.10674	0.001067
253.176	45383	0.10202	0.00102
253.177	9858	0.08511	0.0008511
253.201	4295	0.08165	0.0008165
253.263	1263	0.07956	0.0007956
253.29	34980	0.09765	0.0009765
253.331	25270	0.09312	0.0009312
253.464	67781	0.11013	0.001101
253.519	16721	0.08865	0.0008865
253.563	57502	0.10636	0.001064
253.664	45381	0.1017	0.001017
253.702	9848	0.08468	0.0008468
253.749	4285	0.08123	0.0008123
253.801	34982	0.09724	0.0009724
253.825	1261	0.07912	0.0007912
253.865	25267	0.09272	0.0009272
253.954	67804	0.10984	0.001098
254.078	57486	0.10595	0.001059
254.121	16722	0.08809	0.0008809
254.202	45377	0.10134	0.001013
254.284	9843	0.08426	0.0008426
271.689	1525	0.07208	0.0007208
271.875	22749	0.08588	0.0008588
271.976	16537	0.08232	0.0008232
272.059	10616	0.07851	0.0007851
272.104	58362	0.10182	0.001018
272.128	58358	0.10172	0.001017
272.131	6004	0.0752	0.000752
272.135	48038	0.09753	0.0009753
272.175	1525	0.0716	0.000716
272.189	38155	0.09317	0.0009317
272.282	29349	0.08898	0.0008898
272.326	22748	0.0855	0.000855
272.353	68453	0.10544	0.001054
272.46	16538	0.08189	0.0008189
272.549	58367	0.10143	0.001014
272.559	10618	0.07807	0.0007807
272.561	58357	0.10139	0.001014
272.607	48046	0.09721	0.0009721
272.656	6008	0.07471	0.0007471
272.672	38152	0.0928	0.000928
272.686	1524	0.071	0.00071
272.779	29348	0.08843	0.0008843
272.787	68477	0.10501	0.00105
272.842	22748	0.08491	0.0008491
272.986	16541	0.08113	0.0008113
273.031	58359	0.10114	0.001011
273.043	58360	0.10111	0.001011
273.111	48038	0.09672	0.0009672
273.113	10618	0.07684	0.0007684
273.196	38152	0.09135	0.0009135
273.217	6005	0.07341	0.0007341
273.271	68494	0.10477	0.001048
273.291	1522	0.06937	0.0006937
273.34	29345	0.08726	0.0008726
273.417	22748	0.08412	0.0008412
273.56	58362	0.10062	0.001006
273.589	58371	0.10056	0.001006
273.598	16541	0.08068	0.0008068
273.671	48044	0.09604	0.0009604
273.732	10618	0.07706	0.0007706
273.779	38144	0.09213	0.0009213
273.78	68487	0.1044	0.001044
273.871	6012	0.07365	0.0007365
273.946	29344	0.0876	0.000876
292.271	50335	0.0931	0.000931
292.308	7873	0.06892	0.0006892
292.31	41908	0.08929	0.0008929
292.397	34025	0.08538	0.0008538
292.409	5126	0.06635	0.0006635
292.477	27278	0.08165	0.0008165
292.499	1324	0.06229	0.0006229
292.56	21186	0.0781	0.000781
292.597	68216	0.10036	0.001004
292.632	60420	0.09715	0.0009715
292.644	16126	0.07476	0.0007476
292.718	11689	0.07149	0.0007149
292.739	7873	0.06893	0.0006893
292.742	50338	0.09273	0.0009273
292.807	41913	0.08885	0.0008885
292.851	5128	0.06585	0.0006585
292.906	34029	0.08495	0.0008495
292.985	1325	0.06182	0.0006182
292.992	21191	0.0777	0.000777
293.001	27279	0.08114	0.0008114
293.055	16130	0.07442	0.0007442
293.092	68221	0.09952	0.0009952
293.136	60423	0.09636	0.0009636
293.17	11687	0.07112	0.0007112
293.228	7878	0.06823	0.0006823
293.258	50343	0.09199	0.0009199
293.34	5129	0.06545	0.0006545
293.342	41918	0.08803	0.0008803
293.454	34034	0.08421	0.0008421
293.463	21191	0.07743	0.0007743
293.491	1326	0.06134	0.0006134
293.527	16131	0.074	0.00074
293.588	27282	0.08061	0.0008061
293.628	68223	0.09884	0.0009884
293.675	11693	0.07056	0.0007056
293.695	60428	0.0959	0.000959
293.773	7878	0.06731	0.0006731
293.836	50347	0.09138	0.0009138
293.879	5128	0.0648	0.000648
293.934	41920	0.08767	0.0008767
293.956	21195	0.07669	0.0007669
294.055	1328	0.06062	0.0006062
294.063	16134	0.07371	0.0007371
294.076	34036	0.08335	0.0008335
294.211	68227	0.09914	0.0009914
294.227	11698	0.07021	0.0007021
294.228	27284	0.08013	0.0008013
294.303	60430	0.09581	0.0009581
311.693	9856	0.06427	0.0006427
311.748	3510	0.05698	0.0005698
311.762	6449	0.06063	0.0006063
311.764	4874	0.05888	0.0005888
311.915	26598	0.07657	0.0007657
311.998	19679	0.07183	0.0007183
312.142	13856	0.06737	0.0006737
312.176	57313	0.09224	0.0009224
312.206	9855	0.06364	0.0006364
312.257	46103	0.08723	0.0008723
312.312	3508	0.0563	0.000563
312.327	6449	0.06009	0.0006009
312.33	4876	0.05795	0.0005795
312.35	33669	0.08047	0.0008047
312.456	26598	0.07596	0.0007596
312.573	69817	0.09715	0.0009715
312.581	19679	0.07134	0.0007134
312.658	57307	0.09184	0.0009184
312.715	13860	0.06714	0.0006714
312.77	46103	0.08683	0.0008683
312.854	9857	0.06296	0.0006296
312.918	33664	0.07998	0.0007998
312.963	6451	0.05957	0.0005957
312.972	4871	0.05742	0.0005742
313.003	3508	0.05559	0.0005559
313.041	26598	0.07573	0.0007573
313.117	69863	0.09658	0.0009658
313.203	19676	0.07101	0.0007101
313.242	57307	0.09146	0.0009146
313.356	13862	0.06647	0.0006647
313.363	46099	0.08673	0.0008673
313.536	9855	0.06258	0.0006258
313.562	33664	0.07964	0.0007964
313.677	6451	0.05896	0.0005896
313.702	26595	0.07529	0.0007529
313.706	4871	0.05726	0.0005726
313.719	69857	0.09646	0.0009646
313.778	3510	0.05527	0.0005527
313.855	57297	0.09111	0.0009111
313.885	19682	0.0706	0.000706
314.003	46098	0.08634	0.0008634
314.094	13862	0.06613	0.0006613
314.22	33659	0.07928	0.0007928
314.359	69851	0.09588	0.0009588
330.663	2950	0.04694	0.0004694
330.845	2950	0.04714	0.0004714
331.035	2950	0.04678	0.0004678
331.183	3521	0.0481	0.000481
331.236	3237	0.04718	0.0004718
331.259	2951	0.04667	0.0004667
331.534	3521	0.0475	0.000475
331.573	3923	0.04862	0.0004862
331.585	3237	0.04672	0.0004672
331.818	16169	0.06366	0.0006366
331.904	26648	0.0712	0.000712
331.906	42354	0.08045	0.0008045
331.925	3522	0.047	0.00047
331.941	7299	0.05411	0.0005411
331.959	3924	0.04796	0.0004796
331.977	3238	0.04633	0.0004633
331.977	20655	0.06705	0.0006705
332.004	33292	0.07535	0.0007535
332.011	12414	0.06008	0.0006008
332.029	5829	0.05187	0.0005187
332.061	4593	0.04924	0.0004924
332.076	9682	0.05703	0.0005703
332.176	53401	0.08554	0.0008554
332.223	20661	0.0666	0.000666
332.314	16171	0.06315	0.0006315
332.341	3522	0.04691	0.0004691
332.342	7298	0.05381	0.0005381
332.36	42362	0.07995	0.0007995
332.375	3925	0.04784	0.0004784
332.385	26651	0.07076	0.0007076
332.401	3238	0.04624	0.0004624
332.409	12414	0.05978	0.0005978
332.433	5829	0.05157	0.0005157
332.476	33293	0.07491	0.0007491
332.495	9687	0.05668	0.0005668
332.498	4592	0.04921	0.0004921
332.638	53408	0.08518	0.0008518
332.738	20657	0.06663	0.0006663
332.779	7302	0.0536	0.000536
332.821	12415	0.05955	0.0005955
332.831	3926	0.04778	0.0004778
332.851	42361	0.07972	0.0007972
332.868	16170	0.06301	0.0006301
332.893	26648	0.0707	0.000707
332.9	5828	0.05138	0.0005138
332.939	9685	0.05672	0.0005672
332.961	4593	0.04906	0.0004906
333.007	33291	0.07487	0.0007487
333.137	53407	0.08506	0.0008506
333.25	7302	0.05371	0.0005371
333.295	12414	0.05946	0.0005946
333.314	20662	0.06646	0.0006646
333.376	5828	0.05121	0.0005121
333.385	42354	0.07953	0.0007953
333.417	9686	0.05673	0.0005673
333.456	4592	0.04892	0.0004892
333.464	26651	0.07078	0.0007078
333.482	16172	0.06291	0.0006291
333.571	33294	0.07449	0.0007449
333.689	53403	0.08464	0.0008464

System: pentafluoroethane; phases: Gas
Property: Thermal conductivity, W/m/K (Gas); method: Hot wire method
Temperature, K	Pressure, kPa	Thermal conductivity, W/m/K	uncertainty
302.167	1284	0.01524	0.0001524
302.264	1118	0.01483	0.0001483
302.381	968	0.01465	0.0004395
302.465	843	0.01447	0.0004341
302.586	673	0.01429	0.0004287
302.704	543	0.01424	0.0004272
302.744	497	0.01419	0.0004257
302.861	1284	0.01524	0.0001524
302.908	352	0.01421	0.0004263
303.018	1118	0.01485	0.0001485
303.078	221	0.01419	0.0004257
303.145	968	0.01467	0.0004401
303.267	843	0.01455	0.0004365
303.321	111	0.01427	0.0004281
303.378	543	0.01428	0.0004284
303.427	673	0.01435	0.0004305
303.46	497	0.01427	0.0004281
303.628	351	0.0142	0.000426
303.665	1284	0.0153	0.000153
303.843	221	0.01429	0.0004287
303.851	1118	0.01496	0.0001496
304.019	968	0.01469	0.0004407
304.139	111	0.01428	0.0004284
304.14	543	0.01434	0.0004302
304.166	843	0.01457	0.0004371
304.222	497	0.0143	0.000429
304.372	673	0.01443	0.0004329
304.535	1284	0.01537	0.0001537
304.686	220	0.01431	0.0004293
304.766	1117	0.01501	0.0001501
304.954	543	0.01438	0.0004314
304.992	968	0.01477	0.0004431
305.046	497	0.01434	0.0004302
305.055	111	0.01443	0.0004329
305.161	842	0.01463	0.0004389
305.308	351	0.01428	0.0004284
305.4	672	0.01447	0.0004341
305.606	220	0.01437	0.0004311
306.053	111	0.01446	0.0004338
312.818	1779	0.01724	0.0001724
313.053	1473	0.01622	0.0001622
313.124	516	0.01511	0.0004533
313.194	1299	0.01583	0.0001583
313.296	329	0.01513	0.0004539
313.316	1134	0.01559	0.0001559
313.32	1779	0.01726	0.0001726
313.392	249	0.01504	0.0004512
313.454	921	0.0154	0.000462
313.567	143	0.0152	0.000456
313.622	694	0.01517	0.0004551
313.64	1474	0.01626	0.0001626
313.788	515	0.01512	0.0004536
313.814	1298	0.01589	0.0001589
313.896	1779	0.01733	0.0001733
313.935	1134	0.01566	0.0001566
314.002	329	0.01517	0.0004551
314.117	921	0.01543	0.0004629
314.118	249	0.01515	0.0004545
314.286	1474	0.01628	0.0001628
314.321	143	0.01519	0.0004557
314.324	694	0.01522	0.0004566
314.469	1297	0.01595	0.0001595
314.513	515	0.0152	0.000456
314.516	1778	0.01742	0.0001742
314.635	1134	0.01567	0.0001567
314.773	329	0.01518	0.0004554
314.84	920	0.01542	0.0004626
314.917	249	0.0152	0.000456
314.972	1474	0.01636	0.0001636
315.102	694	0.0153	0.000459
315.182	143	0.01527	0.0004581
315.187	1297	0.01599	0.0001599
315.315	515	0.01519	0.0004557
315.378	1134	0.01576	0.0001576
315.631	328	0.01522	0.0004566
315.633	920	0.01548	0.0004644
315.812	248	0.01526	0.0004578
315.931	694	0.01531	0.0004593
316.122	143	0.01532	0.0004596
321.56	2235	0.01924	0.0001924
321.687	2071	0.01849	0.0001849
321.841	1859	0.01781	0.0001781
321.94	680	0.01602	0.0004806
321.98	2235	0.0195	0.000195
321.983	1618	0.01707	0.0001707
322.055	475	0.01585	0.0004755
322.093	1414	0.01659	0.0001659
322.15	2071	0.01853	0.0001853
322.215	281	0.01594	0.0004782
322.221	1186	0.01628	0.0001628
322.34	1860	0.01772	0.0001772
322.365	946	0.01619	0.0004857
322.463	2234	0.01963	0.0001963
322.508	1620	0.01704	0.0001704
322.512	680	0.01594	0.0004782
322.634	1414	0.0167	0.000167
322.656	2072	0.01855	0.0001855
322.66	475	0.01588	0.0004764
322.817	1182	0.01637	0.0001637
322.868	281	0.01592	0.0004776
322.885	1860	0.01771	0.0001771
322.966	946	0.01608	0.0004824
323.092	1620	0.01708	0.0001708
323.166	680	0.01594	0.0004782
323.201	2072	0.0187	0.000187
323.255	1415	0.01668	0.0001668
323.352	475	0.0159	0.000477
323.456	1179	0.01636	0.0001636
323.471	1860	0.01781	0.0001781
323.579	281	0.01595	0.0004785
323.641	946	0.01617	0.0004851
323.732	1621	0.01712	0.0001712
323.881	680	0.01601	0.0004803
323.916	1415	0.0168	0.000168
324.12	475	0.01596	0.0004788
324.152	1175	0.01642	0.0001642
324.389	946	0.01642	0.0004926
324.392	281	0.01603	0.0004809
330.377	2714	0.02213	0.0002213
330.513	2535	0.0204	0.000204
330.654	2281	0.01925	0.0001925
330.712	2714	0.02227	0.0002227
330.789	1977	0.01831	0.0001831
330.878	2535	0.02055	0.0002055
330.943	1635	0.01768	0.0001768
331.032	1421	0.01729	0.0001729
331.066	2280	0.0192	0.000192
331.091	572	0.01662	0.0004986
331.091	2714	0.02227	0.0002227
331.157	1092	0.01691	0.0001691
331.221	317	0.01673	0.0005019
331.235	893	0.01682	0.0005046
331.251	1977	0.0183	0.000183
331.28	2535	0.02063	0.0002063
331.286	748	0.01672	0.0005016
331.431	1635	0.01761	0.0001761
331.516	2713	0.02259	0.0002259
331.517	2278	0.01932	0.0001932
331.534	1420	0.0173	0.000173
331.647	572	0.01671	0.0005013
331.691	1092	0.01695	0.0001695
331.73	1978	0.01823	0.0001823
331.748	2535	0.02066	0.0002066
331.785	893	0.01677	0.0005031
331.824	317	0.01673	0.0005019
331.852	748	0.01672	0.0005016
331.952	1634	0.01756	0.0001756
332.026	2277	0.01931	0.0001931
332.102	1419	0.01732	0.0001732
332.289	1091	0.01699	0.0001699
332.291	572	0.01677	0.0005031
332.291	1978	0.01837	0.0001837
332.389	893	0.01689	0.0005067
332.48	748	0.01683	0.0005049
332.513	317	0.01677	0.0005031
332.555	1633	0.01767	0.0001767
332.708	1418	0.01733	0.0001733
332.947	1091	0.01704	0.0001704
332.983	572	0.01674	0.0005022
333.075	893	0.01687	0.0005061
333.195	748	0.01682	0.0005046
333.263	316	0.01673	0.0005019

System: pentafluoroethane; phases: Fluid (supercritical or subcritical phases)
Property: Thermal conductivity, W/m/K (Fluid (supercritical or subcritical phases)); method: Hot wire method
Temperature, K	Pressure, kPa	Thermal conductivity, W/m/K	uncertainty
351.731	4563	0.03943	0.001183
351.733	4715	0.0409	0.001227
351.824	4376	0.03529	0.001059
351.828	4715	0.04119	0.001236
351.839	4562	0.04056	0.001217
351.902	4715	0.0416	0.001248
351.921	4563	0.04081	0.001224
351.928	4949	0.0415	0.001245
351.929	4376	0.03552	0.001066
351.93	4949	0.04145	0.001244
352.005	4715	0.04264	0.001279
352.013	4948	0.04219	0.001266
352.023	4948	0.04161	0.001248
352.043	4376	0.0359	0.001077
352.059	4051	0.02852	0.0008556
352.105	4948	0.04218	0.001265
352.115	5321	0.04238	0.001271
352.133	4949	0.04201	0.00126
352.184	4051	0.02865	0.0008595
352.211	5321	0.04214	0.001264
352.235	4948	0.04235	0.00127
352.24	3728	0.02518	0.0007554
352.24	4948	0.0425	0.001275
352.263	3162	0.02198	0.0006594
352.283	41128	0.0747	0.000747
352.312	4051	0.02871	0.0008613
352.327	5319	0.04241	0.001272
352.352	25287	0.06491	0.0006491
352.372	3729	0.02514	0.0007542
352.373	64970	0.08457	0.0008457
352.425	6411	0.04475	0.0004475
352.444	5319	0.04215	0.001265
352.454	3163	0.02217	0.0006651
352.457	2392	0.02055	0.0002055
352.457	14943	0.05671	0.0005671
352.542	41128	0.07526	0.0007526
352.552	3729	0.02515	0.0007545
352.592	64973	0.08657	0.0008657
352.609	25283	0.06494	0.0006494
352.623	9324	0.04958	0.0004958
352.63	3163	0.02206	0.0006618
352.657	2392	0.02087	0.0002087
352.736	6410	0.04477	0.0004477
352.757	14942	0.05676	0.0005676
352.785	1332	0.01889	0.0001889
352.787	41127	0.07469	0.0007469
352.836	3163	0.02208	0.0006624
352.856	64975	0.08407	0.0008407
352.866	2393	0.02067	0.0002067
352.902	25282	0.06511	0.0006511
352.946	9322	0.04927	0.0004927
352.971	831	0.01854	0.0005562
353.043	1331	0.01881	0.0001881
353.081	14940	0.05649	0.0005649
353.081	64976	0.08546	0.0008546
353.093	454	0.0187	0.000561
353.122	2393	0.02011	0.0002011
353.124	6409	0.04502	0.0004502
353.216	25279	0.0651	0.000651
353.241	831	0.01867	0.0005601
353.275	9323	0.05042	0.0005042
353.31	1331	0.01886	0.0001886
353.371	454	0.01882	0.0005646
353.419	14939	0.05658	0.0005658
353.459	6408	0.04583	0.0004583
353.526	831	0.01868	0.0005604
353.577	1331	0.01879	0.0001879
353.655	9321	0.05014	0.0005014
353.693	453	0.01875	0.0005625
353.811	831	0.01867	0.0005601
354.012	453	0.01872	0.0005616
371.112	6944	0.03946	0.0003946
371.212	27654	0.06235	0.0006235
371.256	6944	0.04003	0.0004003
371.257	5846	0.03462	0.0003462
371.277	19229	0.05611	0.0005611
371.326	5494	0.03249	0.0003249
371.329	6381	0.03764	0.0003764
371.36	13012	0.04981	0.0004981
371.36	67504	0.08207	0.0008207
371.374	5847	0.03504	0.0003504
371.406	7835	0.04219	0.0004219
371.417	6944	0.03981	0.0003981
371.441	6380	0.03766	0.0003766
371.443	9862	0.04581	0.0004581
371.45	27654	0.06244	0.0006244
371.455	5494	0.03289	0.0003289
371.458	4989	0.02938	0.0002938
371.491	5847	0.03539	0.0003539
371.515	19227	0.05609	0.0005609
371.544	7834	0.04211	0.0004211
371.556	67504	0.0819	0.000819
371.557	6380	0.0381	0.000381
371.563	43771	0.07155	0.0007155
371.588	5494	0.03295	0.0003295
371.59	4989	0.02925	0.0002925
371.593	6944	0.04004	0.0004004
371.616	5847	0.03536	0.0003536
371.621	13011	0.05012	0.0005012
371.646	4221	0.02553	0.0002553
371.67	9862	0.0458	0.000458
371.672	6381	0.03819	0.0003819
371.689	27650	0.06249	0.0006249
371.715	5494	0.0332	0.000332
371.719	7834	0.04222	0.0004222
371.733	4989	0.02945	0.0002945
371.776	67503	0.08202	0.0008202
371.791	19227	0.05614	0.0005614
371.797	43768	0.07171	0.0007171
371.816	4220	0.02542	0.0002542
371.824	3470	0.02317	0.0002317
371.861	2342	0.02119	0.0002119
371.896	4989	0.02962	0.0002962
371.899	9860	0.04574	0.0004574
371.917	13010	0.04999	0.0004999
371.926	7834	0.04238	0.0004238
371.933	27643	0.06216	0.0006216
371.987	4220	0.02567	0.0002567
372.019	3469	0.02318	0.0002318
372.025	67503	0.08177	0.0008177
372.043	1401	0.02052	0.0002052
372.065	43768	0.07153	0.0007153
372.067	2342	0.02125	0.0002125
372.08	19225	0.05615	0.0005615
372.165	4221	0.02557	0.0002557
372.168	9860	0.04568	0.0004568
372.211	721	0.02055	0.0006165
372.223	3471	0.02314	0.0002314
372.244	13010	0.04992	0.0004992
372.269	1403	0.02063	0.0002063
372.293	2341	0.02138	0.0002138
372.439	3471	0.02333	0.0002333
372.462	720	0.02049	0.0006147
372.519	2342	0.02135	0.0002135
372.537	1405	0.02063	0.0002063
372.738	720	0.02064	0.0006192
372.791	1407	0.02063	0.0002063
373.037	720	0.02051	0.0006153
391.011	31949	0.0622	0.000622
391.037	4760	0.02672	0.0002672
391.094	6317	0.03117	0.0003117
391.127	7122	0.03424	0.0003424
391.129	2363	0.02302	0.0002302
391.144	7891	0.03655	0.0003655
391.152	22046	0.05539	0.0005539
391.159	3640	0.02428	0.0002428
391.172	46623	0.07067	0.0007067
391.181	4761	0.02672	0.0002672
391.205	6317	0.03153	0.0003153
391.206	15972	0.04987	0.0004987
391.225	5503	0.02849	0.0002849
391.237	7122	0.03464	0.0003464
391.248	10051	0.04182	0.0004182
391.253	31945	0.06249	0.0006249
391.259	7890	0.03714	0.0003714
391.276	1499	0.02251	0.0002251
391.278	67401	0.07997	0.0007997
391.3	8787	0.03923	0.0003923
391.302	2363	0.02272	0.0002272
391.311	3640	0.02446	0.0002446
391.311	12501	0.04578	0.0004578
391.333	4761	0.02699	0.0002699
391.343	6318	0.03146	0.0003146
391.355	7122	0.03458	0.0003458
391.356	22045	0.05565	0.0005565
391.359	5503	0.02885	0.0002885
391.383	7890	0.03688	0.0003688
391.404	46617	0.07027	0.0007027
391.411	8787	0.03927	0.0003927
391.416	10051	0.04184	0.0004184
391.422	15970	0.04981	0.0004981
391.467	1498	0.02244	0.0002244
391.485	2361	0.0229	0.000229
391.485	3640	0.02446	0.0002446
391.492	6319	0.03153	0.0003153
391.498	7122	0.03461	0.0003461
391.502	12500	0.04572	0.0004572
391.503	4761	0.02706	0.0002706
391.503	31943	0.06247	0.0006247
391.507	5502	0.02879	0.0002879
391.508	7890	0.03717	0.0003717
391.51	67400	0.08	0.0008
391.539	8786	0.03933	0.0003933
391.592	22045	0.05561	0.0005561
391.608	10050	0.04187	0.0004187
391.646	5502	0.02891	0.0002891
391.661	3641	0.02441	0.0002441
391.663	15967	0.0498	0.000498
391.668	1497	0.02243	0.0002243
391.67	46616	0.07077	0.0007077
391.673	8786	0.03955	0.0003955
391.679	12500	0.04569	0.0004569
391.682	2361	0.02288	0.0002288
391.763	67400	0.0802	0.000802
391.783	31941	0.06232	0.0006232
391.814	10051	0.04205	0.0004205
391.846	22043	0.05552	0.0005552
391.875	12500	0.04573	0.0004573
391.888	1496	0.02246	0.0002246
391.92	15966	0.04971	0.0004971
391.944	46614	0.07024	0.0007024
392.049	67405	0.07985	0.0007985
