Measured thermophysical data. Excess Enthalpy, Density, and Speed of Sound for the Mixtures a-Pinene + 1-Butanol or 2-Butanol at (283.15, 298.15, and 313.15) K
Source: J. Chem. Eng. Data, 2006, 10.1021/je050294+
Compound 1: .beta.-pinene, C10H16, InChI=1S/C10H16/c1-7-4-5-8-6-9(7)10(8,2)3/h8-9H,1,4-6H2,2-3H3
Compound 2: butan-1-ol, C4H10O, InChI=1S/C4H10O/c1-2-3-4-5/h5H,2-4H2,1H3, purity 99.8%
Compound 3: butan-2-ol, C4H10O, InChI=1S/C4H10O/c1-3-4(2)5/h4-5H,3H2,1-2H3, purity 99%

System: .beta.-pinene; phases: Liquid
Fixed: Pressure, kPa = 101.325
Property: Speed of sound, m/s (Liquid); method: Linear variable-path acoustic interferometer
Temperature, K	Speed of sound, m/s	uncertainty
283.15	1355.9	1.8
298.15	1295	1.8
313.15	1237.4	1.7

System: .beta.-pinene; phases: Liquid
Fixed: Pressure, kPa = 101.325
Property: Mass density, kg/m3 (Liquid); method: VIBTUB:UFactor:4
Temperature, K	Mass density, kg/m3	uncertainty
283.15	878.97	0.55
298.15	866.99	0.55
313.15	854.89	0.56

System: butan-1-ol; phases: Liquid
Fixed: Pressure, kPa = 101.325
Property: Speed of sound, m/s (Liquid); method: Linear variable-path acoustic interferometer
Temperature, K	Speed of sound, m/s	uncertainty
283.15	1292.2	1.4
298.15	1240.7	1.4
313.15	1191.4	1.4

System: butan-1-ol; phases: Liquid
Fixed: Pressure, kPa = 101.325
Property: Mass density, kg/m3 (Liquid); method: VIBTUB:UFactor:2
Temperature, K	Mass density, kg/m3	uncertainty
283.15	817.48	0.23
298.15	806.17	0.23
313.15	794.51	0.24

System: butan-2-ol; phases: Liquid
Fixed: Pressure, kPa = 101.325
Property: Speed of sound, m/s (Liquid); method: Linear variable-path acoustic interferometer
Temperature, K	Speed of sound, m/s	uncertainty
283.15	1266.6	1.7
298.15	1212.4	1.7
313.15	1158	1.7

System: butan-2-ol; phases: Liquid
Fixed: Pressure, kPa = 101.325
Property: Mass density, kg/m3 (Liquid); method: VIBTUB:UFactor:4
Temperature, K	Mass density, kg/m3	uncertainty
283.15	815.11	0.59
298.15	803	0.6
313.15	790.06	0.61

System: butan-1-ol + .beta.-pinene; phases: Liquid
Fixed: Pressure, kPa = 101
Property: Excess molar enthalpy (molar enthalpy of mixing), kJ/mol (Liquid); method: Flow calorimetry
Temperature, K	Mole fraction of .beta.-pinene	Excess molar enthalpy (molar enthalpy of mixing), kJ/mol	uncertainty
283.15	0.066	0.049	0.005
283.15	0.134	0.106	0.005
283.15	0.259	0.215	0.006
283.15	0.371	0.303	0.006
283.15	0.489	0.377	0.007
283.15	0.591	0.423	0.007
283.15	0.677	0.438	0.007
283.15	0.765	0.412	0.007
283.15	0.856	0.354	0.006
283.15	0.927	0.282	0.006
283.15	0.975	0.182	0.007
298.15	0.066	0.069	0.005
298.15	0.134	0.153	0.005
298.15	0.259	0.31	0.006
298.15	0.371	0.427	0.007
298.15	0.489	0.525	0.008
298.15	0.591	0.577	0.008
298.15	0.677	0.592	0.008
298.15	0.765	0.557	0.008
298.15	0.856	0.476	0.007
298.15	0.927	0.372	0.007
298.15	0.975	0.279	0.007
313.15	0.066	0.089	0.005
313.15	0.134	0.196	0.006
313.15	0.259	0.428	0.007
313.15	0.371	0.574	0.008
313.15	0.489	0.711	0.009
313.15	0.591	0.78	0.009
313.15	0.677	0.793	0.009
313.15	0.765	0.751	0.009
313.15	0.856	0.642	0.008
313.15	0.927	0.487	0.008
313.15	0.975	0.329	0.008

System: butan-1-ol + .beta.-pinene; phases: Liquid
Fixed: Pressure, kPa = 101
Property: Speed of sound, m/s (Liquid); method: Linear variable-path acoustic interferometer
Temperature, K	Mole fraction of .beta.-pinene	Speed of sound, m/s	uncertainty
283.15	0.0494	1295.8	1.5
283.15	0.1023	1299.6	1.5
283.15	0.204	1305.9	1.5
283.15	0.3052	1311.7	1.5
283.15	0.4007	1316.8	1.5
283.15	0.5005	1321.9	1.6
283.15	0.5929	1323.6	1.6
283.15	0.695	1332	1.7
283.15	0.7975	1338.1	1.7
283.15	0.9009	1345.2	1.7
283.15	0.9179	1347.3	1.8
298.15	0.054	1243.7	1.4
298.15	0.1027	1246.2	1.4
298.15	0.1893	1250.3	1.4
298.15	0.2992	1255.2	1.5
298.15	0.4011	1259.4	1.5
298.15	0.4987	1263.5	1.5
298.15	0.6041	1268.1	1.6
298.15	0.6946	1272.3	1.6
298.15	0.7745	1276.6	1.6
298.15	0.9003	1284.6	1.7
298.15	0.9349	1287.4	1.7
313.15	0.0493	1193.1	1.4
313.15	0.1011	1194.6	1.4
313.15	0.1988	1197.8	1.4
313.15	0.3012	1201	1.4
313.15	0.3998	1203.9	1.5
313.15	0.5009	1207.3	1.5
313.15	0.6003	1211.4	1.5
313.15	0.7062	1216.2	1.6
313.15	0.8017	1221.1	1.6
313.15	0.8988	1227.1	1.7
313.15	0.954	1231.4	1.7

System: butan-1-ol + .beta.-pinene; phases: Liquid
Fixed: Pressure, kPa = 101
Property: Mass density, kg/m3 (Liquid); method: Vibrating tube method
Temperature, K	Mole fraction of .beta.-pinene	Mass density, kg/m3	uncertainty
283.15	0.0494	822.4	0.14
283.15	0.1023	827.32	0.15
283.15	0.204	835.8	0.18
283.15	0.3052	843.23	0.21
283.15	0.4007	849.5	0.24
283.15	0.5005	855.39	0.27
283.15	0.5929	857.7	0.3
283.15	0.695	865.44	0.34
283.15	0.7975	870.17	0.38
283.15	0.9009	874.7	0.41
283.15	0.9179	875.44	0.42
298.15	0.054	811.4	0.15
298.15	0.1027	815.79	0.16
298.15	0.1893	822.86	0.18
298.15	0.2992	830.92	0.21
298.15	0.4011	837.49	0.24
298.15	0.4987	843.18	0.27
298.15	0.6041	848.79	0.31
298.15	0.6946	853.25	0.34
298.15	0.7745	856.95	0.36
298.15	0.9003	862.46	0.41
298.15	0.9349	863.93	0.42
313.15	0.0493	799.21	0.15
313.15	0.1011	803.76	0.16
313.15	0.1988	811.57	0.18
313.15	0.3012	818.82	0.21
313.15	0.3998	825.01	0.24
313.15	0.5009	830.84	0.27
313.15	0.6003	836.12	0.3
313.15	0.7062	841.36	0.34
313.15	0.8017	845.7	0.37
313.15	0.8988	850.1	0.4
313.15	0.954	852.44	0.42

System: butan-2-ol + .beta.-pinene; phases: Liquid
Fixed: Pressure, kPa = 101
Property: Excess molar enthalpy (molar enthalpy of mixing), kJ/mol (Liquid); method: Flow calorimetry
Temperature, K	Mole fraction of .beta.-pinene	Excess molar enthalpy (molar enthalpy of mixing), kJ/mol	uncertainty
283.15	0.066	0.128	0.006
283.15	0.134	0.263	0.007
283.15	0.259	0.463	0.008
283.15	0.38	0.6	0.009
283.15	0.489	0.687	0.01
283.15	0.581	0.72	0.01
283.15	0.677	0.709	0.01
283.15	0.765	0.65	0.009
283.15	0.845	0.549	0.009
283.15	0.927	0.387	0.008
283.15	0.963	0.28	0.008
298.15	0.066	0.173	0.008
298.15	0.134	0.364	0.007
298.15	0.259	0.637	0.008
298.15	0.38	0.818	0.01
298.15	0.489	0.932	0.01
298.15	0.581	0.972	0.011
298.15	0.677	0.95	0.01
298.15	0.765	0.87	0.01
298.15	0.845	0.739	0.01
298.15	0.927	0.531	0.009
298.15	0.963	0.378	0.01
313.15	0.066	0.166	0.008
313.15	0.134	0.405	0.008
313.15	0.259	0.749	0.009
313.15	0.38	0.981	0.01
313.15	0.489	1.122	0.011
313.15	0.581	1.174	0.011
313.15	0.677	1.158	0.011
313.15	0.765	1.076	0.011
313.15	0.845	0.934	0.011
313.15	0.927	0.675	0.011
313.15	0.963	0.469	0.013

System: butan-2-ol + .beta.-pinene; phases: Liquid
Fixed: Pressure, kPa = 101.3
Property: Speed of sound, m/s (Liquid); method: Linear variable-path acoustic interferometer
Temperature, K	Mole fraction of .beta.-pinene	Speed of sound, m/s	uncertainty
283.15	0.0526	1271.9	1.7
283.15	0.1031	1276.6	1.7
283.15	0.2058	1285.1	1.8
283.15	0.3006	1292.5	1.8
283.15	0.4019	1299.8	1.8
283.15	0.5035	1307.2	1.8
283.15	0.6023	1314.9	1.8
283.15	0.7047	1323.5	1.8
283.15	0.7995	1332.4	1.8
283.15	0.8988	1342.4	1.8
283.15	0.9401	1347	1.8
298.15	0.0522	1216.6	1.7
298.15	0.105	1220.2	1.7
298.15	0.206	1227.3	1.7
298.15	0.3006	1233.5	1.7
298.15	0.3995	1240	1.7
298.15	0.5017	1247.2	1.7
298.15	0.6096	1255.5	1.7
298.15	0.7011	1263	1.7
298.15	0.8035	1272.5	1.7
298.15	0.9067	1282.6	1.8
298.15	0.9449	1287	1.8
313.15	0.0526	1161.7	1.7
313.15	0.0997	1164.1	1.7
313.15	0.2028	1170.4	1.7
313.15	0.2999	1175.7	1.7
313.15	0.4043	1182.5	1.7
313.15	0.5088	1189.9	1.7
313.15	0.6027	1197	1.7
313.15	0.6993	1205	1.7
313.15	0.8035	1214.6	1.7
313.15	0.896	1223.2	1.7
313.15	0.9453	1228.7	1.7

System: butan-2-ol + .beta.-pinene; phases: Liquid
Fixed: Pressure, kPa = 101.3
Property: Mass density, kg/m3 (Liquid); method: Vibrating tube method
Temperature, K	Mole fraction of .beta.-pinene	Mass density, kg/m3	uncertainty
283.15	0.0526	820.26	0.43
283.15	0.1031	824.88	0.43
283.15	0.2058	833.37	0.43
283.15	0.3006	840.38	0.43
283.15	0.4019	847.14	0.44
283.15	0.5035	853.29	0.44
283.15	0.6023	858.87	0.44
283.15	0.7047	864.32	0.44
283.15	0.7995	869.14	0.45
283.15	0.8988	873.93	0.45
283.15	0.9401	875.92	0.45
298.15	0.0522	807.98	0.42
298.15	0.105	812.54	0.42
298.15	0.206	820.79	0.43
298.15	0.3006	827.65	0.43
298.15	0.3995	834.25	0.43
298.15	0.5017	840.58	0.43
298.15	0.6096	846.71	0.44
298.15	0.7011	851.61	0.44
298.15	0.8035	856.93	0.44
298.15	0.9067	862.02	0.44
298.15	0.9449	863.9	0.44
313.15	0.0526	794.95	0.42
313.15	0.0997	799.22	0.42
313.15	0.2028	807.25	0.42
313.15	0.2999	814.22	0.42
313.15	0.4043	821.27	0.43
313.15	0.5088	827.69	0.43
313.15	0.6027	833.19	0.43
313.15	0.6993	838.59	0.43
313.15	0.8035	844.16	0.44
313.15	0.896	848.93	0.44
313.15	0.9453	851.52	0.44
