Measured thermophysical data. Isothermal Vapor-Liquid Equilibrium Data for Tetrafluoromethane + Ethane over a Temperature Range from (179.68 to 210.03) K
Source: J. Chem. Eng. Data, 2006, 10.1021/je050525c
Compound 1: tetrafluoromethane, CF4, InChI=1S/CF4/c2-1(3,4)5, purity 99.97%
Compound 2: ethane, C2H6, InChI=1S/C2H6/c1-2/h1-2H3, purity 99.95%

System: tetrafluoromethane; phases: Liquid, Gas
Property: Vapor or sublimation pressure, kPa (Liquid); method: Ebulliometric method (Recirculating still)
Temperature, K	Vapor or sublimation pressure, kPa	uncertainty
179.68	679	5
190.14	1058	6
200.68	1575	7
210.03	2163	9

System: ethane; phases: Liquid, Gas
Property: Vapor or sublimation pressure, kPa (Liquid); method: Ebulliometric method (Recirculating still)
Temperature, K	Vapor or sublimation pressure, kPa	uncertainty
179.68	77	4
190.14	136	4
200.68	223	4
210.03	336	4

System: ethane + tetrafluoromethane; phases: Liquid, Gas
Property: Vapor or sublimation pressure, kPa (Liquid); method: Ebulliometric method (Recirculating still)
Mole fraction of tetrafluoromethane	Temperature, K	Vapor or sublimation pressure, kPa	uncertainty
0	179.68	77	4
0	190.14	136	4
0	200.68	223	4
0	210.03	336	4
0.013	200.68	324	13
0.015	190.14	225	11
0.015	210.03	458	16
0.022	179.68	174	8
0.039	200.68	476	11
0.041	210.03	646	13
0.046	190.14	366	8
0.073	179.68	327	6
0.079	210.03	858	10
0.081	200.68	668	8
0.094	190.14	521	6
0.151	179.68	447	5
0.155	200.68	885	6
0.155	210.03	1145	8
0.169	190.14	670	5
0.261	179.68	522	5
0.296	200.68	1097	6
0.3	190.14	783	5
0.304	210.03	1457	7
0.437	190.14	847	5
0.447	200.68	1217	6
0.659	210.03	1835	8
0.664	179.68	609	5
0.671	200.68	1357	7
0.679	190.14	926	5
0.811	210.03	1991	8
0.813	200.68	1456	7
0.82	190.14	988	5
0.821	179.68	643	5
1	179.68	679	5
1	190.14	1058	6
1	200.68	1575	7
1	210.03	2163	9

System: ethane + tetrafluoromethane; phases: Gas, Liquid
Property: Mole fraction of tetrafluoromethane (Gas); method: Chromatography
Mole fraction of tetrafluoromethane	Temperature, K	Mole fraction of tetrafluoromethane	uncertainty
0	179.68	0	0.001
0	190.14	0	0.001
0	200.68	0	0.001
0	210.03	0	0.001
0.013	200.68	0.286	0.025
0.015	190.14	0.384	0.025
0.015	210.03	0.229	0.021
0.022	179.68	0.532	0.019
0.039	200.68	0.508	0.011
0.041	210.03	0.436	0.012
0.046	190.14	0.614	0.009
0.073	179.68	0.751	0.005
0.079	210.03	0.584	0.006
0.081	200.68	0.645	0.005
0.094	190.14	0.726	0.004
0.151	179.68	0.818	0.003
0.155	200.68	0.732	0.003
0.155	210.03	0.686	0.004
0.169	190.14	0.788	0.003
0.261	179.68	0.851	0.002
0.296	200.68	0.788	0.003
0.3	190.14	0.823	0.003
0.304	210.03	0.754	0.003
0.437	190.14	0.841	0.002
0.447	200.68	0.816	0.003
0.659	210.03	0.834	0.003
0.664	179.68	0.884	0.002
0.671	200.68	0.855	0.002
0.679	190.14	0.873	0.002
0.811	210.03	0.885	0.002
0.813	200.68	0.895	0.002
0.82	190.14	0.905	0.002
0.821	179.68	0.914	0.002
1	179.68	1	0.001
1	190.14	1	0.001
1	200.68	1	0.001
1	210.03	1	0.001
