Measured thermophysical data. Vapor Pressures, Enthalpies of Vaporization, and Critical Parameters of a Series of Linear Aliphatic Dimethyl Esters of Dicarboxylic Acids
Source: J. Chem. Eng. Data, 2006, 10.1021/je0602418
Compound 1: dimethyl ethanedioate, C4H6O4, InChI=1S/C4H6O4/c1-7-3(5)4(6)8-2/h1-2H3, purity 99.7%
Compound 2: dimethyl 1,3-propanedioate, C5H8O4, InChI=1S/C5H8O4/c1-8-4(6)3-5(7)9-2/h3H2,1-2H3, purity 99.7%
Compound 3: dimethyl 1,4-butanedioate, C6H10O4, InChI=1S/C6H10O4/c1-9-5(7)3-4-6(8)10-2/h3-4H2,1-2H3, purity 99.7%
Compound 4: dimethyl pentanedioate, C7H12O4, InChI=1S/C7H12O4/c1-10-6(8)4-3-5-7(9)11-2/h3-5H2,1-2H3, purity 99.7%
Compound 5: dimethyl 1,6-hexanedioate, C8H14O4, InChI=1S/C8H14O4/c1-11-7(9)5-3-4-6-8(10)12-2/h3-6H2,1-2H3, purity 99.7%
Compound 6: dimethyl 1,7-heptanedioate, C9H16O4, InChI=1S/C9H16O4/c1-12-8(10)6-4-3-5-7-9(11)13-2/h3-7H2,1-2H3, purity 99.7%
Compound 7: dimethyl octanedioate, C10H18O4, InChI=1S/C10H18O4/c1-13-9(11)7-5-3-4-6-8-10(12)14-2/h3-8H2,1-2H3, purity 99.7%
Compound 8: dimethyl nonanedioate, C11H20O4, InChI=1S/C11H20O4/c1-14-10(12)8-6-4-3-5-7-9-11(13)15-2/h3-9H2,1-2H3, purity 99.7%
Compound 9: dimethyl sebacate, C12H22O4, InChI=1S/C12H22O4/c1-15-11(13)9-7-5-3-4-6-8-10-12(14)16-2/h3-10H2,1-2H3, purity 99.7%

System: dimethyl ethanedioate; phases: Liquid, Gas
Property: Critical pressure, kPa (Liquid); method: pulse heating method
Critical pressure, kPa	uncertainty
4060	240

System: dimethyl ethanedioate; phases: Liquid, Gas
Property: Critical temperature, K (Liquid); method: pulse heating method
Critical temperature, K	uncertainty
639	12

System: dimethyl ethanedioate; phases: Crystal, Gas
Property: Vapor or sublimation pressure, kPa (Crystal); method: Transpiration method
Temperature, K	Vapor or sublimation pressure, kPa	uncertainty
293.3	0.04995	0.0025
296.3	0.06801	0.0034
298.2	0.07959	0.00398
301.2	0.10457	0.00523
303.2	0.12977	0.0065
306.2	0.17803	0.00891
308.2	0.21035	0.01053
311.2	0.28726	0.01437
313.2	0.33716	0.01687
316.2	0.44664	0.02235
318.3	0.55451	0.02775
319.2	0.60061	0.03005
321.2	0.71912	0.03598
325.3	0.96567	0.0483

System: dimethyl ethanedioate; phases: Liquid, Gas
Property: Vapor or sublimation pressure, kPa (Liquid); method: Transpiration method
Temperature, K	Vapor or sublimation pressure, kPa	uncertainty
330.4	1.3993	0.07
333.2	1.612	0.0806
335.2	1.8187	0.091
337.2	2.0215	0.1011
340.3	2.3947	0.1198
343.2	2.8405	0.1421
345.3	3.1443	0.1572
346.2	3.25	0.1626
349.2	3.9052	0.1953
350.4	4.1411	0.2071
352.2	4.4785	0.224
355.5	5.3248	0.2663
357.2	5.7069	0.2854
359.2	6.2802	0.3141
360.6	6.5259	0.3264
362.2	7.1811	0.3592
365.2	8.4216	0.4212

System: dimethyl 1,3-propanedioate; phases: Liquid, Gas
Property: Critical pressure, kPa (Liquid); method: pulse heating method
Critical pressure, kPa	uncertainty
3530	220

System: dimethyl 1,3-propanedioate; phases: Liquid, Gas
Property: Critical temperature, K (Liquid); method: pulse heating method
Critical temperature, K	uncertainty
649	14

System: dimethyl 1,3-propanedioate; phases: Liquid, Gas
Property: Vapor or sublimation pressure, kPa (Liquid); method: Transpiration method
Temperature, K	Vapor or sublimation pressure, kPa	uncertainty
278.2	0.0117	0.00059
281.2	0.01507	0.00075
284.3	0.01969	0.00099
287.2	0.02593	0.0013
290.8	0.03523	0.00176
293.2	0.04253	0.00213
296.1	0.0533	0.00267
298	0.06386	0.00319
299.4	0.06974	0.00349
302.2	0.08729	0.00437
303.3	0.09423	0.00471
305.3	0.1063	0.0053
308.4	0.1313	0.0066
311.2	0.165	0.0083
314.3	0.2046	0.0102

System: dimethyl 1,4-butanedioate; phases: Liquid, Gas
Property: Critical pressure, kPa (Liquid); method: pulse heating method
Critical pressure, kPa	uncertainty
3060	180

System: dimethyl 1,4-butanedioate; phases: Liquid, Gas
Property: Critical temperature, K (Liquid); method: pulse heating method
Critical temperature, K	uncertainty
662	14

System: dimethyl 1,4-butanedioate; phases: Liquid, Gas
Property: Vapor or sublimation pressure, kPa (Liquid); method: Transpiration method
Temperature, K	Vapor or sublimation pressure, kPa	uncertainty
286.4	0.01062	0.00053
289.4	0.01389	0.0007
292.3	0.01793	0.0009
295.2	0.02339	0.00117
298.1	0.0292	0.00146
301.1	0.03798	0.0019
304.2	0.04988	0.0025
307.2	0.06242	0.00312
310.2	0.07685	0.00384
313.2	0.09759	0.00488
316.2	0.1187	0.00594
319.2	0.14621	0.00731
322.3	0.18457	0.00923
325.3	0.22057	0.01103
328.3	0.26863	0.01344
331.4	0.3232	0.01617
334.5	0.39504	0.01976
337.5	0.48908	0.02447
340.6	0.61514	0.03077

System: dimethyl pentanedioate; phases: Liquid, Gas
Property: Critical pressure, kPa (Liquid); method: pulse heating method
Critical pressure, kPa	uncertainty
2770	160

System: dimethyl pentanedioate; phases: Liquid, Gas
Property: Critical temperature, K (Liquid); method: pulse heating method
Critical temperature, K	uncertainty
682	14

System: dimethyl pentanedioate; phases: Liquid, Gas
Property: Vapor or sublimation pressure, kPa (Liquid); method: TRANSPIR:UFactor:2
Temperature, K	Vapor or sublimation pressure, kPa	uncertainty
283.7	0.00275	0.00028
286.3	0.00357	0.00036
288.4	0.0043	0.00043
290.5	0.00564	0.00056
293.2	0.00758	0.00076
293.3	0.00747	0.00075
295.6	0.00958	0.00096
296.2	0.00984	0.00098
298.2	0.01214	0.00121
298.4	0.01204	0.0012
300.3	0.01479	0.00148
303.2	0.01881	0.00188
303.3	0.0193	0.00193
305.4	0.02301	0.0023
306.2	0.02388	0.00239
308.2	0.02904	0.0029
309.2	0.03102	0.0031
310.2	0.03348	0.00335
312.1	0.03995	0.004
313.2	0.04146	0.00415
313.5	0.04323	0.00432
315.2	0.05031	0.00503
315.5	0.05126	0.00513
316.2	0.05285	0.00529
318.1	0.06049	0.00605
318.3	0.06276	0.00628
319.2	0.0664	0.00664
320.2	0.07343	0.00738
320.3	0.06968	0.00701
321.4	0.07692	0.00769
323.2	0.09072	0.00913
323.3	0.08542	0.00861
323.3	0.09398	0.00942
325.2	0.1033	0.0103
325.2	0.1021	0.0102
327.1	0.12629	0.01263
328.3	0.12758	0.01276
329.2	0.14803	0.0148
330.2	0.1428	0.01428
331.3	0.16455	0.01646
333.1	0.17525	0.01755
333.2	0.17981	0.018
335.3	0.19771	0.01977
335.3	0.20513	0.02052
338.3	0.24739	0.02474
338.3	0.2598	0.026
340.2	0.2719	0.0272
341.3	0.30173	0.03018
343.1	0.33819	0.03383
343.2	0.34248	0.03426
345.2	0.36512	0.03651
348.1	0.43682	0.04369

System: dimethyl 1,6-hexanedioate; phases: Liquid, Gas
Property: Critical pressure, kPa (Liquid); method: pulse heating method
Critical pressure, kPa	uncertainty
2500	160

System: dimethyl 1,6-hexanedioate; phases: Liquid, Gas
Property: Critical temperature, K (Liquid); method: pulse heating method
Critical temperature, K	uncertainty
692	14

System: dimethyl 1,6-hexanedioate; phases: Liquid, Gas
Property: Vapor or sublimation pressure, kPa (Liquid); method: TRANSPIR:UFactor:2
Temperature, K	Vapor or sublimation pressure, kPa	uncertainty
294.2	0.00284	0.00028
297.1	0.00356	0.00036
297.4	0.00377	0.00038
298.1	0.00391	0.00039
300.6	0.00505	0.00051
303.1	0.00619	0.00062
303.3	0.00649	0.00065
305.4	0.00775	0.00078
308.1	0.00948	0.00095
308.1	0.00946	0.00095
311.6	0.01308	0.00131
313.2	0.01501	0.0015
314.4	0.01648	0.00165
317.2	0.02059	0.00206
318.2	0.02254	0.00225
318.5	0.02198	0.0022
320.2	0.02543	0.00254
323.3	0.03244	0.00327
323.4	0.03434	0.00346
326.2	0.03996	0.004
328.3	0.05027	0.00503
332.2	0.06088	0.00609
333.2	0.07135	0.00714
334.3	0.07203	0.0072
337.4	0.08819	0.00882
338.5	0.1013	0.01013
338.5	0.10385	0.01039
340.2	0.11142	0.01114
343.5	0.13934	0.01394
343.5	0.13687	0.01369
348.5	0.18925	0.01906
348.6	0.2004	0.02016
351.7	0.24055	0.02406
353.6	0.26042	0.02604
358.6	0.35514	0.03552
358.6	0.37323	0.03733
361.7	0.44597	0.0446
363.7	0.47305	0.04731
368.7	0.63123	0.06313
368.7	0.67595	0.0676
369.7	0.68632	0.06864
373.8	0.83469	0.08347
373.8	0.88759	0.08877

System: dimethyl 1,7-heptanedioate; phases: Liquid, Gas
Property: Critical pressure, kPa (Liquid); method: pulse heating method
Critical pressure, kPa	uncertainty
2370	140

System: dimethyl 1,7-heptanedioate; phases: Liquid, Gas
Property: Critical temperature, K (Liquid); method: pulse heating method
Critical temperature, K	uncertainty
711	14

System: dimethyl 1,7-heptanedioate; phases: Liquid, Gas
Property: Vapor or sublimation pressure, kPa (Liquid); method: Transpiration method
Temperature, K	Vapor or sublimation pressure, kPa	uncertainty
291.3	0.0013	7e-05
293.3	0.00161	8e-05
298.3	0.00264	0.00013
303.2	0.00423	0.00021
308.2	0.00693	0.00035
313.2	0.01073	0.00054
318.2	0.01734	0.00087
323.2	0.02558	0.00128
328.2	0.03778	0.00189
333.1	0.0547	0.00274
338.2	0.0784	0.00392
343.2	0.11228	0.00562
348.1	0.16177	0.00809
353.1	0.22512	0.01126

System: dimethyl octanedioate; phases: Liquid, Gas
Property: Critical pressure, kPa (Liquid); method: pulse heating method
Critical pressure, kPa	uncertainty
2300	140

System: dimethyl octanedioate; phases: Liquid, Gas
Property: Critical temperature, K (Liquid); method: pulse heating method
Critical temperature, K	uncertainty
723	14

System: dimethyl octanedioate; phases: Liquid, Gas
Property: Vapor or sublimation pressure, kPa (Liquid); method: Transpiration method
Temperature, K	Vapor or sublimation pressure, kPa	uncertainty
293.3	0.00062	3e-05
295.3	0.00077	4e-05
298.3	0.00105	5e-05
303.2	0.00169	8e-05
308.3	0.00273	0.00014
313.2	0.00451	0.00023
318.1	0.00698	0.00035
323.1	0.01107	0.00055
328.1	0.01684	0.00084
333.1	0.02524	0.00126
338.1	0.03923	0.00196
343	0.05566	0.00278
348.1	0.08123	0.00406
352.1	0.10828	0.00542

System: dimethyl nonanedioate; phases: Liquid, Gas
Property: Vapor or sublimation pressure, kPa (Liquid); method: TRANSPIR:UFactor:2
Temperature, K	Vapor or sublimation pressure, kPa	uncertainty
298.1	0.00019	2e-05
303.1	0.00028	3e-05
308.1	0.00054	5e-05
313.2	0.0008	8e-05
313.2	0.00084	8e-05
318.2	0.00138	0.00014
318.2	0.00131	0.00013
320.2	0.00167	0.00017
320.2	0.00164	0.00016
323.3	0.00226	0.00023
323.4	0.00228	0.00023
325.3	0.00278	0.00028
328.3	0.00335	0.00034
328.3	0.00362	0.00036
330.8	0.00466	0.00047
333.4	0.00549	0.00055
333.4	0.00561	0.00056
335.9	0.00711	0.00071
338.4	0.00771	0.00077
338.4	0.00858	0.00086
341	0.01011	0.00101
343.4	0.01171	0.00117
343.8	0.01311	0.00131
348.5	0.01757	0.00177
348.6	0.0185	0.00186
351.1	0.02169	0.00217
353.6	0.02548	0.00255
353.6	0.02436	0.00244
353.6	0.02518	0.00252
358.6	0.03663	0.00366
358.7	0.03635	0.00364
360.2	0.04123	0.00412
363.7	0.05391	0.00539
363.7	0.05451	0.00545
366.2	0.0656	0.00656
368.9	0.07601	0.0076
368.9	0.08031	0.00803
371.3	0.08918	0.00892
371.3	0.08695	0.0087
373.8	0.10157	0.01016
373.8	0.10648	0.01065

System: dimethyl sebacate; phases: Liquid, Gas
Property: Critical pressure, kPa (Liquid); method: pulse heating method
Critical pressure, kPa	uncertainty
2080	120

System: dimethyl sebacate; phases: Liquid, Gas
Property: Critical temperature, K (Liquid); method: pulse heating method
Critical temperature, K	uncertainty
742	14

System: dimethyl sebacate; phases: Liquid, Gas
Property: Vapor or sublimation pressure, kPa (Liquid); method: TRANSPIR:UFactor:2
Temperature, K	Vapor or sublimation pressure, kPa	uncertainty
304.1	0.00014	2e-05
308.1	0.0002	2e-05
313.2	0.00036	4e-05
318.2	0.00059	6e-05
323.4	0.00101	0.0001
328.3	0.00162	0.00016
333.4	0.0025	0.00025
338.4	0.00388	0.00039
343.5	0.00594	0.00059
348.2	0.00839	0.00084
353.6	0.01405	0.00141
355.6	0.01486	0.00149
358.6	0.01849	0.00185
363.7	0.02808	0.00281
368.8	0.03965	0.00397
373.8	0.05473	0.00547
