Measured thermophysical data. Saturated Pressure Measurements of Dimethyl Ether at Temperatures from (219 to 361) K
Source: J. Chem. Eng. Data, 2006, 10.1021/je060148j
Compound 1: dimethyl ether, C2H6O, InChI=1S/C2H6O/c1-3-2/h1-2H3

System: dimethyl ether; phases: Liquid, Gas
Property: Vapor or sublimation pressure, kPa (Liquid); method: Closed cell (Static) method
Temperature, K	Vapor or sublimation pressure, kPa	uncertainty
219.15	22.3	2
221.13	25.2	2
223.11	28.3	2
224.88	31.5	2
226.88	35.4	2
228.85	39.5	2
230.86	43.9	2
232.86	48.7	2
234.85	54.1	2
236.85	59.8	2
239.14	66.3	2
241.14	73.2	2
244.14	84	2
247.13	96.1	2
249.13	104.9	2
251.14	114.3	2
255.13	135.1	2
257.12	146.6	2
259.14	159	2
261.13	171.8	2
263.13	185.6	2
265.13	199.8	2
267.13	215.5	2.1
269.13	231.8	2.1
271.13	248.9	2.1
273.13	266.8	2.1
275.04	285.1	2.1
277.02	305	2.1
279.02	326.4	2.1
281.02	348.8	2.1
283.02	372.3	2.1
285.01	397	2.1
287	422.8	2.2
288.99	449.8	2.2
290.99	478.4	2.2
293.08	508.9	2.2
295.07	540	2.2
297.07	573	2.3
299.08	606.9	2.3
301.11	643.1	2.3
303.08	680.2	2.4
305.07	718.4	2.4
307.07	758.8	2.4
309.06	800.7	2.5
311.07	844.2	2.5
313.06	889.5	2.5
315.06	936.6	2.6
317.04	985.3	2.6
319.03	1036	2.7
321.03	1088.7	2.8
323.02	1143.3	2.8
325.02	1200.6	2.9
327.13	1262.3	2.9
329.02	1319.9	3
331.11	1385.3	3.1
333.11	1450.6	3.2
335.11	1518.8	3.3
337.1	1588.4	3.3
339.1	1660.3	3.4
341.08	1733.3	3.5
343.09	1811.3	3.6
345.09	1891.2	3.7
347.08	1972.8	3.8
349.08	2057.4	4
351.07	2144.3	4.1
353.05	2232.7	4.2
355.05	2326	4.3
357.05	2421.9	4.4
359.05	2520.3	4.6
361.04	2621.5	4.7
