Measured thermophysical data. Apparent Molar Compressibilities and Volumes of Some 1,1-Electrolytes in N,N-Dimethylacetamide and N,N-Dimethylformamide
Source: J. Chem. Eng. Data, 2007, 10.1021/je060301+
Compound 1: sodium tetraphenylboron, C24H20BNa, InChI=1S/C24H20B.Na/c1-5-13-21(14-6-1)25(22-15-7-2-8-16-22,23-17-9-3-10-18-23)24-19-11-4-12-20-24;/h1-20H;/q-1;+1
Compound 2: tetraphenylphosphorane bromide, C24H20BrP, InChI=1S/C24H20P.BrH/c1-5-13-21(14-6-1)25(22-15-7-2-8-16-22,23-17-9-3-10-18-23)24-19-11-4-12-20-24;/h1-20H;1H/q+1;/p-1
Compound 3: sodium bromide, BrNa, InChI=1S/BrH.Na/h1H;/q;+1/p-1
Compound 4: sodium perchlorate, ClNaO4, InChI=1S/ClHO4.Na/c2-1(3,4)5;/h(H,2,3,4,5);/q;+1/p-1
Compound 5: N,N-dimethylethanamide, C4H9NO, InChI=1S/C4H9NO/c1-4(6)5(2)3/h1-3H3
Compound 6: dimethylformamide, C3H7NO, InChI=1S/C3H7NO/c1-4(2)3-5/h3H,1-2H3

System: N,N-dimethylethanamide; phases: Liquid
Property: Speed of sound, m/s (Liquid); method: PULSEH:UFactor:2
Pressure, kPa	Temperature, K	Speed of sound, m/s	uncertainty
101	298.15	1455.37	2.46

System: N,N-dimethylethanamide; phases: Liquid
Fixed: Pressure, kPa = 101
Property: Mass density, kg/m3 (Liquid); method: VIBTUB:UFactor:8
Temperature, K	Mass density, kg/m3	uncertainty
283.15	950.003	1.134
283.15	950.021	1.14
283.15	950.075	1.136
283.15	950.152	1.135
293.15	940.786	1.149
293.15	940.804	1.155
293.15	940.857	1.15
293.15	940.934	1.15
298.15	936.175	1.157
298.15	936.193	1.162
298.15	936.243	1.158
298.15	936.32	1.157
303.15	931.56	1.164
303.15	931.578	1.17
303.15	931.629	1.165
303.15	931.706	1.165
313.15	922.313	1.179
313.15	922.331	1.185
313.15	922.382	1.18
313.15	922.459	1.18
323.15	913.036	1.195
323.15	913.054	1.2
323.15	913.105	1.196
323.15	913.182	1.195
333.15	903.72	1.211
333.15	903.738	1.216
333.15	903.788	1.211
333.15	903.865	1.211

System: dimethylformamide; phases: Liquid
Property: Speed of sound, m/s (Liquid); method: PULSEH:UFactor:2
Pressure, kPa	Temperature, K	Speed of sound, m/s	uncertainty
101	298.15	1457.13	2.46

System: dimethylformamide; phases: Liquid
Fixed: Pressure, kPa = 101
Property: Mass density, kg/m3 (Liquid); method: VIBTUB:UFactor:8
Temperature, K	Mass density, kg/m3	uncertainty
283.15	958.066	1.122
283.15	958.058	1.127
293.15	948.546	1.137
298.15	943.781	1.145
298.15	943.78	1.15
303.15	939.014	1.152
303.15	939.002	1.158
303.15	939.026	1.153
313.15	929.43	1.168
313.15	929.42	1.174
313.15	929.444	1.169
323.15	919.797	1.184
323.15	919.79	1.19
323.15	919.808	1.184
333.15	910.117	1.2
333.15	910.103	1.206

System: N,N-dimethylethanamide + sodium tetraphenylboron; phases: Liquid
Fixed: Pressure, kPa = 101
Fixed: Temperature, K = 298.15
Property: Speed of sound, m/s (Liquid); method: PULSEH:UFactor:2
Molality, mol/kg of sodium tetraphenylboron	Speed of sound, m/s	uncertainty
0	1455.37	2.46
0.01559	1456.71	2.46
0.02993	1457.91	2.46
0.04447	1459.12	2.47
0.06051	1460.47	2.47
0.07546	1461.71	2.47
0.09038	1462.96	2.47
0.1056	1464.23	2.47
0.1206	1465.49	2.47
0.1355	1466.73	2.47
0.1515	1468.04	2.47

System: N,N-dimethylethanamide + sodium tetraphenylboron; phases: Liquid
Fixed: Pressure, kPa = 101
Property: Mass density, kg/m3 (Liquid); method: VIBTUB:UFactor:8
Temperature, K	Molality, mol/kg of sodium tetraphenylboron	Mass density, kg/m3	uncertainty
283.15	0	950.003	1.134
283.15	0.0192	951.332	1.132
283.15	0.038	952.631	1.13
283.15	0.0547	953.783	1.128
283.15	0.0721	954.993	1.126
283.15	0.0911	956.309	1.124
283.15	0.1083	957.502	1.122
283.15	0.126	958.738	1.121
283.15	0.1446	960.032	1.118
283.15	0.1611	961.184	1.117
283.15	0.1786	962.402	1.115
293.15	0	940.786	1.149
293.15	0.0192	942.143	1.147
293.15	0.038	943.468	1.145
293.15	0.0547	944.642	1.143
293.15	0.0721	945.876	1.141
293.15	0.0911	947.217	1.139
293.15	0.1083	948.43	1.137
293.15	0.126	949.691	1.135
293.15	0.1446	951.009	1.133
293.15	0.1611	952.181	1.131
293.15	0.1786	953.419	1.129
298.15	0	936.175	1.157
298.15	0.0192	937.547	1.154
298.15	0.038	938.886	1.152
298.15	0.0547	940.072	1.15
298.15	0.0721	941.317	1.148
298.15	0.0911	942.67	1.146
298.15	0.1083	943.894	1.144
298.15	0.126	945.166	1.142
298.15	0.1446	946.494	1.14
298.15	0.1611	947.677	1.138
298.15	0.1786	948.929	1.136
303.15	0	931.56	1.164
303.15	0.0192	932.946	1.162
303.15	0.038	934.298	1.16
303.15	0.0547	935.496	1.158
303.15	0.0721	936.752	1.156
303.15	0.0911	938.119	1.154
303.15	0.1083	939.357	1.152
303.15	0.126	940.642	1.15
303.15	0.1446	941.986	1.147
303.15	0.1611	943.181	1.145
303.15	0.1786	944.443	1.143
313.15	0	922.313	1.179
313.15	0.0192	923.728	1.177
313.15	0.038	925.109	1.175
313.15	0.0547	926.33	1.173
313.15	0.0721	927.613	1.171
313.15	0.0911	929.008	1.168
313.15	0.1083	930.271	1.166
313.15	0.126	931.582	1.164
313.15	0.1446	932.953	1.162
313.15	0.1611	934.171	1.16
313.15	0.1786	935.454	1.158
323.15	0	913.036	1.195
323.15	0.0192	914.482	1.192
323.15	0.038	915.892	1.19
323.15	0.0547	917.141	1.188
323.15	0.0721	918.452	1.186
323.15	0.0911	919.875	1.184
323.15	0.1083	921.166	1.181
323.15	0.126	922.501	1.179
323.15	0.1446	923.903	1.177
323.15	0.1611	925.144	1.175
323.15	0.1786	926.456	1.173
333.15	0	903.72	1.211
333.15	0.0192	905.197	1.208
333.15	0.038	906.638	1.206
333.15	0.0547	907.915	1.204
333.15	0.0721	909.253	1.201
333.15	0.0911	910.712	1.199
333.15	0.1083	912.028	1.197
333.15	0.126	913.392	1.195
333.15	0.1446	914.825	1.192
333.15	0.1611	916.098	1.19
333.15	0.1786	917.435	1.188

System: N,N-dimethylethanamide + tetraphenylphosphorane bromide; phases: Liquid
Fixed: Pressure, kPa = 101
Fixed: Temperature, K = 298.15
Property: Speed of sound, m/s (Liquid); method: PULSEH:UFactor:2
Molality, mol/kg of tetraphenylphosphorane bromide	Speed of sound, m/s	uncertainty
0	1455.37	2.46
0.0087	1456.48	2.46
0.01672	1457.48	2.46
0.02591	1458.65	2.46
0.0347	1459.78	2.47
0.04309	1460.86	2.47
0.05227	1462.09	2.47
0.06073	1463.16	2.47
0.06911	1464.32	2.47
0.07773	1465.46	2.47
0.08651	1466.7	2.47

System: N,N-dimethylethanamide + tetraphenylphosphorane bromide; phases: Liquid
Fixed: Pressure, kPa = 101
Property: Mass density, kg/m3 (Liquid); method: VIBTUB:UFactor:8
Temperature, K	Molality, mol/kg of tetraphenylphosphorane bromide	Mass density, kg/m3	uncertainty
283.15	0	950.021	1.14
283.15	0.01406	951.887	1.137
283.15	0.03175	954.232	1.133
283.15	0.04618	956.145	1.13
283.15	0.06104	958.12	1.127
283.15	0.0765	960.173	1.124
283.15	0.09165	962.188	1.121
283.15	0.1064	964.157	1.118
283.15	0.1215	966.173	1.115
283.15	0.1374	968.299	1.111
283.15	0.152	970.261	1.108
293.15	0	940.804	1.155
293.15	0.01406	942.686	1.152
293.15	0.03175	945.048	1.148
293.15	0.04618	946.975	1.145
293.15	0.06104	948.963	1.142
293.15	0.0765	951.029	1.139
293.15	0.09165	953.06	1.135
293.15	0.1064	955.046	1.132
293.15	0.1215	957.073	1.129
293.15	0.1374	959.215	1.126
293.15	0.152	961.195	1.123
298.15	0	936.193	1.162
298.15	0.01406	938.083	1.159
298.15	0.03175	940.455	1.155
298.15	0.04618	942.389	1.152
298.15	0.06104	944.384	1.149
298.15	0.0765	946.457	1.146
298.15	0.09165	948.496	1.143
298.15	0.1064	950.489	1.14
298.15	0.1215	952.528	1.136
298.15	0.1374	954.677	1.133
298.15	0.152	956.66	1.13
303.15	0	931.578	1.17
303.15	0.01406	933.475	1.167
303.15	0.03175	935.857	1.163
303.15	0.04618	937.799	1.16
303.15	0.06104	939.801	1.157
303.15	0.0765	941.884	1.153
303.15	0.09165	943.929	1.15
303.15	0.1064	945.934	1.147
303.15	0.1215	947.974	1.144
303.15	0.1374	950.132	1.14
303.15	0.152	952.125	1.137
313.15	0	922.331	1.185
313.15	0.01406	924.244	1.182
313.15	0.03175	926.646	1.178
313.15	0.04618	928.605	1.175
313.15	0.06104	930.623	1.171
313.15	0.0765	932.726	1.168
313.15	0.09165	934.784	1.165
313.15	0.1064	936.799	1.162
313.15	0.1215	938.858	1.158
313.15	0.1374	941.033	1.155
313.15	0.152	943.041	1.152
323.15	0	913.054	1.2
323.15	0.01406	914.983	1.197
323.15	0.03175	917.405	1.193
323.15	0.04618	919.382	1.19
323.15	0.06104	921.42	1.187
323.15	0.0765	923.538	1.183
323.15	0.09165	925.616	1.18
323.15	0.1064	927.645	1.177
323.15	0.1215	929.724	1.173
323.15	0.1374	931.915	1.17
323.15	0.152	933.934	1.166
333.15	0	903.738	1.216
333.15	0.01406	905.683	1.213
333.15	0.03175	908.125	1.209
333.15	0.04618	910.117	1.205
333.15	0.06104	912.172	1.202
333.15	0.0765	914.308	1.199
333.15	0.09165	916.412	1.195
333.15	0.1064	918.458	1.192
333.15	0.1215	920.552	1.188
333.15	0.1374	922.764	1.185
333.15	0.152	924.796	1.181

System: N,N-dimethylethanamide + sodium bromide; phases: Liquid
Fixed: Pressure, kPa = 101
Fixed: Temperature, K = 298.15
Property: Speed of sound, m/s (Liquid); method: PULSEH:UFactor:2
Molality, mol/kg of sodium bromide	Speed of sound, m/s	uncertainty
0	1455.37	2.46
0.05475	1457.93	2.46
0.1073	1460.1	2.47
0.1551	1461.96	2.47
0.2092	1463.87	2.47
0.2592	1465.61	2.47
0.3081	1467.09	2.47
0.3593	1468.88	2.47
0.4124	1470.68	2.47
0.4591	1472.12	2.47
0.5024	1473.56	2.47

System: N,N-dimethylethanamide + sodium bromide; phases: Liquid
Fixed: Pressure, kPa = 101
Property: Mass density, kg/m3 (Liquid); method: VIBTUB:UFactor:8
Temperature, K	Molality, mol/kg of sodium bromide	Mass density, kg/m3	uncertainty
283.15	0	950.075	1.136
283.15	0.03868	953.482	1.13
283.15	0.0757	956.712	1.125
283.15	0.1142	960.054	1.12
283.15	0.1524	963.367	1.114
283.15	0.1896	966.587	1.109
283.15	0.2253	969.678	1.105
283.15	0.263	972.946	1.099
283.15	0.2988	976.045	1.095
283.15	0.3345	979.167	1.09
283.15	0.3729	982.502	1.085
293.15	0	940.857	1.15
293.15	0.03868	944.27	1.145
293.15	0.0757	947.505	1.14
293.15	0.1142	950.844	1.134
293.15	0.1524	954.156	1.129
293.15	0.1896	957.368	1.124
293.15	0.2253	960.462	1.119
293.15	0.263	963.723	1.114
293.15	0.2988	966.822	1.109
293.15	0.3345	969.937	1.104
293.15	0.3729	973.272	1.099
298.15	0	936.243	1.158
298.15	0.03868	939.665	1.152
298.15	0.0757	942.9	1.147
298.15	0.1142	946.239	1.142
298.15	0.1524	949.551	1.136
298.15	0.1896	952.763	1.131
298.15	0.2253	955.856	1.126
298.15	0.263	959.116	1.121
298.15	0.2988	962.215	1.116
298.15	0.3345	965.328	1.111
298.15	0.3729	968.663	1.106
303.15	0	931.629	1.165
303.15	0.03868	935.054	1.16
303.15	0.0757	938.292	1.154
303.15	0.1142	941.632	1.149
303.15	0.1524	944.945	1.144
303.15	0.1896	948.155	1.138
303.15	0.2253	951.25	1.134
303.15	0.263	954.509	1.128
303.15	0.2988	957.608	1.124
303.15	0.3345	960.721	1.119
303.15	0.3729	964.055	1.113
313.15	0	922.382	1.18
313.15	0.03868	925.818	1.175
313.15	0.0757	929.062	1.169
313.15	0.1142	932.405	1.164
313.15	0.1524	935.721	1.158
313.15	0.1896	938.935	1.153
313.15	0.2253	942.03	1.148
313.15	0.263	945.292	1.143
313.15	0.2988	948.392	1.138
313.15	0.3345	951.506	1.133
313.15	0.3729	954.841	1.128
323.15	0	913.105	1.196
323.15	0.03868	916.557	1.19
323.15	0.0757	919.805	1.185
323.15	0.1142	923.157	1.179
323.15	0.1524	926.476	1.174
323.15	0.1896	929.697	1.168
323.15	0.2253	932.794	1.163
323.15	0.263	936.062	1.158
323.15	0.2988	939.163	1.153
323.15	0.3345	942.283	1.148
323.15	0.3729	945.617	1.143
333.15	0	903.788	1.211
333.15	0.03868	907.255	1.206
333.15	0.0757	910.522	1.2
333.15	0.1142	913.876	1.194
333.15	0.1524	917.208	1.189
333.15	0.1896	920.43	1.184
333.15	0.2253	923.535	1.179
333.15	0.263	926.807	1.173
333.15	0.2988	929.92	1.168
333.15	0.3345	933.039	1.163
333.15	0.3729	936.374	1.158

System: N,N-dimethylethanamide + sodium perchlorate; phases: Liquid
Fixed: Pressure, kPa = 101
Fixed: Temperature, K = 298.15
Property: Speed of sound, m/s (Liquid); method: PULSEH:UFactor:2
Molality, mol/kg of sodium perchlorate	Speed of sound, m/s	uncertainty
0	1455.37	2.46
0.04049	1457.63	2.46
0.0825	1459.76	2.47
0.1276	1461.96	2.47
0.1682	1463.93	2.47
0.2089	1465.82	2.47
0.2511	1467.81	2.47
0.2898	1469.7	2.47
0.3335	1471.76	2.47
0.3749	1473.83	2.47
0.417	1475.84	2.47

System: N,N-dimethylethanamide + sodium perchlorate; phases: Liquid
Fixed: Pressure, kPa = 101
Property: Mass density, kg/m3 (Liquid); method: VIBTUB:UFactor:8
Temperature, K	Molality, mol/kg of sodium perchlorate	Mass density, kg/m3	uncertainty
283.15	0	950.152	1.135
283.15	0.0356	953.023	1.13
283.15	0.07279	956.021	1.126
283.15	0.1073	958.813	1.121
283.15	0.1391	961.386	1.117
283.15	0.1787	964.607	1.112
283.15	0.2122	967.335	1.108
283.15	0.2471	970.186	1.103
283.15	0.2817	973.03	1.099
283.15	0.3171	975.941	1.094
283.15	0.3508	978.735	1.09
293.15	0	940.934	1.15
293.15	0.0356	943.824	1.145
293.15	0.07279	946.841	1.14
293.15	0.1073	949.645	1.136
293.15	0.1391	952.224	1.132
293.15	0.1787	955.462	1.127
293.15	0.2122	958.199	1.122
293.15	0.2471	961.065	1.118
293.15	0.2817	963.911	1.113
293.15	0.3171	966.835	1.109
293.15	0.3508	969.635	1.104
298.15	0	936.32	1.157
298.15	0.0356	939.223	1.152
298.15	0.07279	942.25	1.148
298.15	0.1073	945.058	1.143
298.15	0.1391	947.65	1.139
298.15	0.1787	950.892	1.134
298.15	0.2122	953.635	1.129
298.15	0.2471	956.505	1.125
298.15	0.2817	959.357	1.12
298.15	0.3171	962.288	1.116
298.15	0.3508	965.091	1.111
303.15	0	931.706	1.165
303.15	0.0356	934.618	1.16
303.15	0.07279	937.656	1.155
303.15	0.1073	940.47	1.15
303.15	0.1391	943.07	1.146
303.15	0.1787	946.319	1.141
303.15	0.2122	949.069	1.137
303.15	0.2471	951.946	1.132
303.15	0.2817	954.804	1.128
303.15	0.3171	957.739	1.123
303.15	0.3508	960.546	1.119
313.15	0	922.459	1.18
313.15	0.0356	925.393	1.175
313.15	0.07279	928.452	1.17
313.15	0.1073	931.285	1.165
313.15	0.1391	933.895	1.161
313.15	0.1787	937.167	1.156
313.15	0.2122	939.93	1.151
313.15	0.2471	942.82	1.147
313.15	0.2817	945.692	1.142
313.15	0.3171	948.639	1.138
313.15	0.3508	951.458	1.133
323.15	0	913.182	1.195
323.15	0.0356	916.141	1.19
323.15	0.07279	919.221	1.185
323.15	0.1073	922.077	1.18
323.15	0.1391	924.705	1.176
323.15	0.1787	927.996	1.171
323.15	0.2122	930.776	1.166
323.15	0.2471	933.678	1.162
323.15	0.2817	936.568	1.157
323.15	0.3171	939.529	1.152
323.15	0.3508	942.362	1.148
333.15	0	903.865	1.211
333.15	0.0356	906.851	1.206
333.15	0.07279	909.956	1.201
333.15	0.1073	912.834	1.196
333.15	0.1391	915.485	1.192
333.15	0.1787	918.801	1.186
333.15	0.2122	921.596	1.181
333.15	0.2471	924.524	1.177
333.15	0.2817	927.423	1.172
333.15	0.3171	930.406	1.167
333.15	0.3508	933.248	1.163

System: dimethylformamide + sodium tetraphenylboron; phases: Liquid
Fixed: Pressure, kPa = 101
Fixed: Temperature, K = 298.15
Property: Speed of sound, m/s (Liquid); method: PULSEH:UFactor:2
Molality, mol/kg of sodium tetraphenylboron	Speed of sound, m/s	uncertainty
0	1457.13	2.46
0.01418	1457.88	2.46
0.02142	1458.39	2.46
0.02852	1458.9	2.46
0.04246	1460.02	2.47
0.05507	1461.15	2.47
0.0702	1462.55	2.47
0.08415	1464.03	2.47
0.09795	1465.56	2.47
0.12015	1467.98	2.47

System: dimethylformamide + sodium tetraphenylboron; phases: Liquid
Fixed: Pressure, kPa = 101
Property: Mass density, kg/m3 (Liquid); method: VIBTUB:UFactor:8
Temperature, K	Molality, mol/kg of sodium tetraphenylboron	Mass density, kg/m3	uncertainty
283.15	0	958.066	1.122
283.15	0.02586	959.931	1.119
283.15	0.03546	960.623	1.118
283.15	0.0514	961.772	1.116
283.15	0.06859	963.012	1.114
283.15	0.08539	964.225	1.112
283.15	0.1044	965.597	1.11
283.15	0.1283	967.331	1.107
283.15	0.1538	969.175	1.104
283.15	0.1689	970.269	1.103
293.15	0	948.546	1.137
293.15	0.02586	950.451	1.134
293.15	0.03546	951.156	1.133
293.15	0.0514	952.327	1.131
293.15	0.06859	953.588	1.129
293.15	0.08539	954.819	1.127
293.15	0.1044	956.215	1.125
293.15	0.1283	957.974	1.122
293.15	0.1538	959.846	1.119
293.15	0.1689	960.955	1.117
298.15	0	943.781	1.145
298.15	0.02586	945.702	1.142
298.15	0.03546	946.413	1.14
298.15	0.0514	947.594	1.139
298.15	0.06859	948.866	1.136
298.15	0.08539	950.107	1.135
298.15	0.1044	951.516	1.132
298.15	0.1283	953.29	1.129
298.15	0.1538	955.178	1.126
298.15	0.1689	956.295	1.125
303.15	0	939.014	1.152
303.15	0.02586	940.946	1.149
303.15	0.03546	941.661	1.148
303.15	0.0514	942.851	1.146
303.15	0.06859	944.134	1.144
303.15	0.08539	945.386	1.142
303.15	0.1044	946.808	1.14
303.15	0.1283	948.598	1.137
303.15	0.1538	950.507	1.134
303.15	0.1689	951.635	1.132
313.15	0	929.43	1.168
313.15	0.02586	931.402	1.165
313.15	0.03546	932.132	1.164
313.15	0.0514	933.344	1.162
313.15	0.06859	934.65	1.159
313.15	0.08539	935.925	1.157
313.15	0.1044	937.372	1.155
313.15	0.1283	939.193	1.152
313.15	0.1538	941.135	1.149
313.15	0.1689	942.282	1.147
323.15	0	919.797	1.184
323.15	0.02586	921.807	1.181
323.15	0.03546	922.551	1.179
323.15	0.0514	923.786	1.177
323.15	0.06859	925.118	1.175
323.15	0.08539	926.419	1.173
323.15	0.1044	927.892	1.171
323.15	0.1283	929.75	1.168
323.15	0.1538	931.725	1.164
323.15	0.1689	932.894	1.162
333.15	0	910.117	1.2
333.15	0.02586	912.162	1.197
333.15	0.03546	912.92	1.195
333.15	0.0514	914.179	1.193
333.15	0.06859	915.536	1.191
333.15	0.08539	916.863	1.189
333.15	0.1044	918.365	1.186
333.15	0.1283	920.26	1.183
333.15	0.1538	922.276	1.18
333.15	0.1689	923.471	1.178

System: dimethylformamide + tetraphenylphosphorane bromide; phases: Liquid
Fixed: Pressure, kPa = 101
Fixed: Temperature, K = 298.15
Property: Speed of sound, m/s (Liquid); method: PULSEH:UFactor:2
Molality, mol/kg of tetraphenylphosphorane bromide	Speed of sound, m/s	uncertainty
0	1457.13	2.46
0.01828	1459.04	2.46
0.02382	1459.65	2.47
0.03591	1460.99	2.47
0.04822	1462.41	2.47
0.06013	1463.8	2.47
0.07767	1465.92	2.47
0.09583	1468.17	2.47
0.1069	1469.6	2.47
0.1196	1471.24	2.47

System: dimethylformamide + tetraphenylphosphorane bromide; phases: Liquid
Fixed: Pressure, kPa = 101
Property: Mass density, kg/m3 (Liquid); method: VIBTUB:UFactor:8
Temperature, K	Molality, mol/kg of tetraphenylphosphorane bromide	Mass density, kg/m3	uncertainty
283.15	0	958.058	1.127
283.15	0.01828	960.516	1.124
283.15	0.02382	961.259	1.122
283.15	0.03591	962.883	1.12
283.15	0.04822	964.538	1.117
283.15	0.06013	966.14	1.115
283.15	0.07767	968.504	1.111
283.15	0.09583	970.959	1.107
283.15	0.107	972.461	1.105
283.15	0.1196	974.179	1.103
293.15	0	948.546	1.143
293.15	0.01828	951.023	1.139
293.15	0.02382	951.772	1.138
293.15	0.03591	953.408	1.135
293.15	0.04822	955.077	1.132
293.15	0.06013	956.692	1.13
293.15	0.07767	959.072	1.126
293.15	0.09583	961.547	1.122
293.15	0.107	963.064	1.12
293.15	0.1196	964.794	1.117
298.15	0	943.78	1.15
298.15	0.01828	946.268	1.146
298.15	0.02382	947.021	1.145
298.15	0.03591	948.665	1.143
298.15	0.04822	950.339	1.14
298.15	0.06013	951.96	1.137
298.15	0.07767	954.353	1.134
298.15	0.09583	956.835	1.13
298.15	0.107	958.359	1.127
298.15	0.1196	960.095	1.125
303.15	0	939.002	1.158
303.15	0.01828	941.503	1.154
303.15	0.02382	942.259	1.153
303.15	0.03591	943.911	1.15
303.15	0.04822	945.592	1.147
303.15	0.06013	947.221	1.145
303.15	0.07767	949.621	1.141
303.15	0.09583	952.115	1.137
303.15	0.107	953.644	1.135
303.15	0.1196	955.384	1.132
313.15	0	929.42	1.174
313.15	0.01828	931.944	1.169
313.15	0.02382	932.707	1.168
313.15	0.03591	934.373	1.166
313.15	0.04822	936.071	1.163
313.15	0.06013	937.712	1.16
313.15	0.07767	940.132	1.156
313.15	0.09583	942.649	1.152
313.15	0.107	944.188	1.15
313.15	0.1196	945.942	1.147
323.15	0	919.79	1.19
323.15	0.01828	922.34	1.185
323.15	0.02382	923.11	1.184
323.15	0.03591	924.792	1.181
323.15	0.04822	926.505	1.179
323.15	0.06013	928.16	1.176
323.15	0.07767	930.6	1.172
323.15	0.09583	933.141	1.168
323.15	0.107	934.692	1.165
323.15	0.1196	936.461	1.162
333.15	0	910.103	1.206
333.15	0.01828	912.676	1.201
333.15	0.02382	913.454	1.2
333.15	0.03591	915.151	1.197
333.15	0.04822	916.88	1.195
333.15	0.06013	918.554	1.192
333.15	0.07767	921.015	1.188
333.15	0.09583	923.585	1.184
333.15	0.107	925.144	1.181
333.15	0.1196	926.93	1.178

System: dimethylformamide + sodium bromide; phases: Liquid
Fixed: Pressure, kPa = 101
Fixed: Temperature, K = 298.15
Property: Speed of sound, m/s (Liquid); method: PULSEH:UFactor:2
Molality, mol/kg of sodium bromide	Speed of sound, m/s	uncertainty
0	1457.13	2.46
0.04008	1459.05	2.46
0.06106	1459.96	2.47
0.08045	1460.77	2.47
0.1229	1462.45	2.47
0.1603	1463.87	2.47
0.202	1465.66	2.47
0.24	1467.09	2.47
0.2991	1469.24	2.47
0.3558	1471.04	2.47
0.393	1472.48	2.47

System: dimethylformamide + sodium bromide; phases: Liquid
Fixed: Pressure, kPa = 101
Property: Mass density, kg/m3 (Liquid); method: VIBTUB:UFactor:8
Temperature, K	Molality, mol/kg of sodium bromide	Mass density, kg/m3	uncertainty
283.15	0	958.058	1.123
283.15	0.04008	961.622	1.117
283.15	0.06106	963.473	1.114
283.15	0.08045	965.175	1.112
283.15	0.123	968.894	1.106
283.15	0.1603	972.166	1.101
283.15	0.202	975.812	1.095
283.15	0.24	979.129	1.09
283.15	0.2991	984.336	1.082
283.15	0.3558	989.324	1.074
283.15	0.393	992.603	1.069
293.15	0	948.546	1.138
293.15	0.04008	952.116	1.132
293.15	0.06106	953.967	1.129
293.15	0.08045	955.663	1.127
293.15	0.123	959.378	1.121
293.15	0.1603	962.635	1.116
293.15	0.202	966.267	1.11
293.15	0.24	969.568	1.105
293.15	0.2991	974.747	1.097
293.15	0.3558	979.703	1.089
293.15	0.393	982.961	1.084
298.15	0	943.78	1.146
298.15	0.04008	947.353	1.14
298.15	0.06106	949.201	1.137
298.15	0.08045	950.9	1.134
298.15	0.123	954.612	1.128
298.15	0.1603	957.861	1.123
298.15	0.202	961.486	1.117
298.15	0.24	964.782	1.112
298.15	0.2991	969.946	1.104
298.15	0.3558	974.892	1.096
298.15	0.393	978.139	1.091
303.15	0	939.002	1.153
303.15	0.04008	942.582	1.148
303.15	0.06106	944.43	1.145
303.15	0.08045	946.127	1.142
303.15	0.123	949.837	1.136
303.15	0.1603	953.08	1.131
303.15	0.202	956.699	1.125
303.15	0.24	959.988	1.12
303.15	0.2991	965.14	1.112
303.15	0.3558	970.076	1.104
303.15	0.393	973.315	1.099
313.15	0	929.42	1.169
313.15	0.04008	933.009	1.163
313.15	0.06106	934.862	1.16
313.15	0.08045	936.554	1.157
313.15	0.123	940.257	1.151
313.15	0.1603	943.494	1.146
313.15	0.202	947.102	1.14
313.15	0.24	950.382	1.135
313.15	0.2991	955.516	1.127
313.15	0.3558	960.427	1.119
313.15	0.393	963.652	1.114
323.15	0	919.79	1.185
323.15	0.04008	923.39	1.179
323.15	0.06106	925.24	1.176
323.15	0.08045	926.938	1.173
323.15	0.123	930.633	1.167
323.15	0.1603	933.87	1.162
323.15	0.202	937.468	1.156
323.15	0.24	940.736	1.15
323.15	0.2991	945.86	1.142
323.15	0.3558	950.752	1.134
323.15	0.393	953.964	1.129
333.15	0	910.103	1.201
333.15	0.04008	913.71	1.195
333.15	0.06106	915.568	1.192
333.15	0.08045	917.264	1.189
333.15	0.123	920.96	1.183
333.15	0.1603	924.197	1.177
333.15	0.202	927.787	1.172
333.15	0.24	931.044	1.166
333.15	0.2991	936.163	1.158
333.15	0.3558	941.044	1.15
333.15	0.393	944.25	1.145

System: dimethylformamide + sodium perchlorate; phases: Liquid
Fixed: Pressure, kPa = 101
Fixed: Temperature, K = 298.15
Property: Speed of sound, m/s (Liquid); method: PULSEH:UFactor:2
Molality, mol/kg of sodium perchlorate	Speed of sound, m/s	uncertainty
0	1457.13	2.46
0.01435	1457.94	2.46
0.03096	1458.84	2.46
0.04574	1459.61	2.47
0.07671	1461.23	2.47
0.12708	1463.82	2.47
0.15522	1465.3	2.47
0.20077	1467.55	2.47
0.2466	1469.96	2.47
0.27706	1471.4	2.47
0.3073	1472.84	2.47

System: dimethylformamide + sodium perchlorate; phases: Liquid
Fixed: Pressure, kPa = 101
Property: Mass density, kg/m3 (Liquid); method: VIBTUB:UFactor:8
Temperature, K	Molality, mol/kg of sodium perchlorate	Mass density, kg/m3	uncertainty
283.15	0	958.066	1.123
283.15	0.03096	960.681	1.118
283.15	0.04574	961.93	1.117
283.15	0.07671	964.547	1.112
283.15	0.09316	965.935	1.11
283.15	0.1271	968.807	1.106
283.15	0.1552	971.196	1.102
283.15	0.2008	975.073	1.096
283.15	0.2466	978.997	1.09
283.15	0.2771	981.621	1.086
283.15	0.3073	984.224	1.082
293.15	0	948.546	1.138
293.15	0.03096	951.181	1.134
293.15	0.04574	952.437	1.132
293.15	0.07671	955.067	1.127
293.15	0.09316	956.464	1.125
293.15	0.1271	959.339	1.121
293.15	0.1552	961.739	1.117
293.15	0.2008	965.626	1.111
293.15	0.2466	969.551	1.105
293.15	0.2771	972.185	1.101
293.15	0.3073	974.784	1.097
298.15	0	943.781	1.145
298.15	0.03096	946.423	1.141
298.15	0.04574	947.681	1.139
298.15	0.07671	950.315	1.135
298.15	0.09316	951.715	1.133
298.15	0.1271	954.597	1.128
298.15	0.1552	957.002	1.124
298.15	0.2008	960.894	1.118
298.15	0.2466	964.822	1.112
298.15	0.2771	967.459	1.108
298.15	0.3073	970.068	1.104
303.15	0	939.026	1.153
303.15	0.03096	941.664	1.149
303.15	0.04574	942.921	1.147
303.15	0.07671	945.56	1.143
303.15	0.09316	946.958	1.14
303.15	0.1271	949.847	1.136
303.15	0.1552	952.254	1.132
303.15	0.2008	956.151	1.126
303.15	0.2466	960.091	1.12
303.15	0.2771	962.73	1.115
303.15	0.3073	965.339	1.111
313.15	0	929.444	1.169
313.15	0.03096	932.101	1.164
313.15	0.04574	933.366	1.162
313.15	0.07671	936.018	1.158
313.15	0.09316	937.426	1.156
313.15	0.1271	940.327	1.151
313.15	0.1552	942.744	1.147
313.15	0.2008	946.654	1.141
313.15	0.2466	950.605	1.135
313.15	0.2771	953.254	1.13
313.15	0.3073	955.867	1.126
323.15	0	919.808	1.184
323.15	0.03096	922.487	1.18
323.15	0.04574	923.762	1.178
323.15	0.07671	926.43	1.174
323.15	0.09316	927.846	1.171
323.15	0.1271	930.76	1.167
323.15	0.1552	933.188	1.163
323.15	0.2008	937.121	1.156
323.15	0.2466	941.077	1.15
323.15	0.2771	943.738	1.146
323.15	0.3073	946.366	1.141
333.15	0	910.117	1.201
333.15	0.03096	912.82	1.196
333.15	0.04574	914.104	1.194
333.15	0.07671	916.79	1.19
333.15	0.09316	918.216	1.187
333.15	0.1271	921.149	1.182
333.15	0.1552	923.58	1.178
333.15	0.2008	927.543	1.172
333.15	0.2466	931.529	1.166
333.15	0.2771	934.185	1.161
333.15	0.3073	936.823	1.157
