Measured thermophysical data. Densities and Viscosities of Binary Mixtures of Tributyl Phosphate with Hexane and Dodecane from (298.15 to 328.15) K
Source: J. Chem. Eng. Data, 2007, 10.1021/je060491o
Compound 1: tributyl phosphate, C12H27O4P, InChI=1S/C12H27O4P/c1-4-7-10-14-17(13,15-11-8-5-2)16-12-9-6-3/h4-12H2,1-3H3, purity 99%
Compound 2: hexane, C6H14, InChI=1S/C6H14/c1-3-5-6-4-2/h3-6H2,1-2H3, purity 99.4%
Compound 3: dodecane, C12H26, InChI=1S/C12H26/c1-3-5-7-9-11-12-10-8-6-4-2/h3-12H2,1-2H3, purity 99.5%

System: tributyl phosphate; phases: Liquid
Fixed: Pressure, kPa = 101
Property: Viscosity, Pa*s (Liquid); method: CAPTUB:UFactor:4
Temperature, K	Viscosity, Pa*s	uncertainty
298.15	0.003399	7.7e-05
303.15	0.003012	6.9e-05
308.15	0.002702	6.2e-05
313.15	0.002441	5.7e-05
318.15	0.00222	5.2e-05
323.15	0.002022	4.8e-05
328.15	0.001842	4.4e-05

System: tributyl phosphate; phases: Liquid
Fixed: Pressure, kPa = 101
Property: Mass density, kg/m3 (Liquid); method: VIBTUB:UFactor:4
Temperature, K	Mass density, kg/m3	uncertainty
298.15	970.83	0.36
303.15	966.46	0.36
308.15	962.06	0.37
313.15	957.77	0.37
318.15	953.58	0.38
323.15	949.22	0.38
328.15	944.88	0.39

System: hexane; phases: Liquid
Fixed: Pressure, kPa = 101
Property: Viscosity, Pa*s (Liquid); method: CAPTUB::UFactor:4
Temperature, K	Viscosity, Pa*s	uncertainty
298.15	0.000299	1.1e-05
303.15	0.000285	1e-05
308.15	0.000273	1e-05
313.15	0.00026	1e-05
318.15	0.000249	1e-05
323.15	0.000238	1e-05
328.15	0.00023	1e-05

System: hexane; phases: Liquid
Fixed: Pressure, kPa = 101
Property: Mass density, kg/m3 (Liquid); method: VIBTUB:UFactor:4
Temperature, K	Mass density, kg/m3	uncertainty
298.15	656.33	0.69
303.15	651.72	0.7
308.15	647.05	0.71
313.15	642.4	0.71
318.15	637.77	0.72
323.15	632.99	0.73
328.15	628.18	0.73

System: dodecane; phases: Liquid
Fixed: Pressure, kPa = 101
Property: Viscosity, Pa*s (Liquid); method: CAPTUB:UFactor:4
Temperature, K	Viscosity, Pa*s	uncertainty
298.15	0.001336	3.2e-05
303.15	0.001221	2.96e-05
308.15	0.001125	2.75e-05
313.15	0.001039	2.56e-05
318.15	0.000965	2.4e-05
323.15	0.000898	2.26e-05
328.15	0.000843	2.14e-05

System: dodecane; phases: Liquid
Fixed: Pressure, kPa = 101
Property: Mass density, kg/m3 (Liquid); method: VIBTUB:UFactor:4
Temperature, K	Mass density, kg/m3	uncertainty
298.15	745.79	0.55
303.15	742.1	0.55
308.15	738.38	0.56
313.15	734.73	0.57
318.15	731.15	0.57
323.15	727.46	0.58
328.15	723.77	0.58

System: hexane + tributyl phosphate; phases: Liquid
Fixed: Pressure, kPa = 101
Property: Viscosity, Pa*s (Liquid); method: CAPTUB:UFactor:4
Temperature, K	Mole fraction of tributyl phosphate	Viscosity, Pa*s	uncertainty
298.15	0	0.000299	1.1e-05
298.15	0.1	0.000416	1.3e-05
298.15	0.2	0.000572	1.6e-05
298.15	0.3	0.000763	2e-05
298.15	0.4003	0.00101	2.5e-05
298.15	0.4996	0.001288	3.1e-05
298.15	0.6	0.001604	3.8e-05
298.15	0.7003	0.001978	4.6e-05
298.15	0.7998	0.002404	5.6e-05
298.15	0.8988	0.002882	6.6e-05
298.15	1	0.003399	7.7e-05
303.15	0	0.000285	1e-05
303.15	0.1	0.000395	1.2e-05
303.15	0.2	0.000537	1.5e-05
303.15	0.3	0.000712	1.9e-05
303.15	0.4003	0.000957	2.4e-05
303.15	0.4996	0.001193	2.9e-05
303.15	0.6	0.001466	3.5e-05
303.15	0.7003	0.001789	4.2e-05
303.15	0.7998	0.002175	5.1e-05
303.15	0.8988	0.002584	6e-05
303.15	1	0.003012	6.9e-05
308.15	0	0.000273	1e-05
308.15	0.1	0.000374	1.2e-05
308.15	0.2	0.000506	1.4e-05
308.15	0.3	0.000666	1.8e-05
308.15	0.4003	0.000895	2.3e-05
308.15	0.4996	0.001106	2.7e-05
308.15	0.6	0.001349	3.3e-05
308.15	0.7003	0.001631	3.9e-05
308.15	0.7998	0.001972	4.6e-05
308.15	0.8988	0.00233	5.4e-05
308.15	1	0.002702	6.2e-05
313.15	0	0.00026	1e-05
313.15	0.1	0.000358	1.2e-05
313.15	0.2	0.00048	1.4e-05
313.15	0.3	0.000626	1.7e-05
313.15	0.4003	0.000821	2.1e-05
313.15	0.4996	0.001021	2.5e-05
313.15	0.6	0.001247	3e-05
313.15	0.7003	0.001503	3.6e-05
313.15	0.7998	0.001813	4.3e-05
313.15	0.8988	0.002115	4.9e-05
313.15	1	0.002441	5.7e-05
318.15	0	0.000249	1e-05
318.15	0.1	0.00034	1.1e-05
318.15	0.2	0.000454	1.3e-05
318.15	0.3	0.00059	1.6e-05
318.15	0.4003	0.000767	2e-05
318.15	0.4996	0.000952	2.4e-05
318.15	0.6	0.001157	2.8e-05
318.15	0.7003	0.001382	3.3e-05
318.15	0.7998	0.001653	3.9e-05
318.15	0.8988	0.001931	4.5e-05
318.15	1	0.00222	5.2e-05
323.15	0	0.000238	1e-05
323.15	0.1	0.000323	1.1e-05
323.15	0.2	0.00043	1.3e-05
323.15	0.3	0.000557	1.5e-05
323.15	0.4003	0.000722	1.9e-05
323.15	0.4996	0.000892	2.3e-05
323.15	0.6	0.001075	2.7e-05
323.15	0.7003	0.001279	3.1e-05
323.15	0.7998	0.001525	3.7e-05
323.15	0.8988	0.001773	4.2e-05
323.15	1	0.002022	4.8e-05
328.15	0	0.00023	1e-05
328.15	0.1	0.000309	1.1e-05
328.15	0.2	0.000408	1.3e-05
328.15	0.3	0.000528	1.5e-05
328.15	0.4003	0.000679	1.8e-05
328.15	0.4996	0.000837	2.1e-05
328.15	0.6	0.001008	2.5e-05
328.15	0.7003	0.001201	2.9e-05
328.15	0.7998	0.001413	3.4e-05
328.15	0.8988	0.001631	3.9e-05
328.15	1	0.001842	4.4e-05

System: hexane + tributyl phosphate; phases: Liquid
Fixed: Pressure, kPa = 101
Property: Mass density, kg/m3 (Liquid); method: VIBTUB:UFactor:4
Temperature, K	Mole fraction of tributyl phosphate	Mass density, kg/m3	uncertainty
298.15	0	656.33	0.69
298.15	0.1	716.77	0.62
298.15	0.2	765.76	0.55
298.15	0.3	806.76	0.5
298.15	0.4003	841.71	0.46
298.15	0.4996	871.78	0.42
298.15	0.6	897.59	0.4
298.15	0.7003	920.33	0.38
298.15	0.7998	939.67	0.37
298.15	0.8988	956.76	0.36
298.15	1	970.83	0.36
303.15	0	651.72	0.7
303.15	0.1	712.15	0.63
303.15	0.2	761.19	0.56
303.15	0.3	802.23	0.51
303.15	0.4003	837.23	0.46
303.15	0.4996	867.4	0.43
303.15	0.6	893.18	0.41
303.15	0.7003	915.91	0.39
303.15	0.7998	935.29	0.37
303.15	0.8988	952.38	0.37
303.15	1	966.46	0.36
308.15	0	647.05	0.71
308.15	0.1	707.49	0.63
308.15	0.2	756.57	0.56
308.15	0.3	797.65	0.51
308.15	0.4003	832.67	0.47
308.15	0.4996	862.96	0.44
308.15	0.6	888.76	0.41
308.15	0.7003	911.4	0.39
308.15	0.7998	930.86	0.38
308.15	0.8988	947.98	0.37
308.15	1	962.06	0.37
313.15	0	642.4	0.71
313.15	0.1	702.87	0.64
313.15	0.2	752	0.57
313.15	0.3	793.13	0.52
313.15	0.4003	828.18	0.48
313.15	0.4996	858.48	0.44
313.15	0.6	884.37	0.42
313.15	0.7003	907.04	0.4
313.15	0.7998	926.54	0.38
313.15	0.8988	943.65	0.38
313.15	1	957.77	0.37
318.15	0	637.77	0.72
318.15	0.1	698.29	0.64
318.15	0.2	747.5	0.58
318.15	0.3	788.69	0.52
318.15	0.4003	823.79	0.48
318.15	0.4996	854.14	0.45
318.15	0.6	880.1	0.42
318.15	0.7003	902.76	0.4
318.15	0.7998	922.3	0.39
318.15	0.8988	939.45	0.38
318.15	1	953.58	0.38
323.15	0	632.99	0.73
323.15	0.1	693.55	0.65
323.15	0.2	742.83	0.58
323.15	0.3	784.08	0.53
323.15	0.4003	819.24	0.49
323.15	0.4996	849.61	0.45
323.15	0.6	875.71	0.43
323.15	0.7003	898.31	0.41
323.15	0.7998	917.91	0.4
323.15	0.8988	935.08	0.39
323.15	1	949.22	0.38
328.15	0	628.18	0.73
328.15	0.1	688.76	0.66
328.15	0.2	738.16	0.59
328.15	0.3	779.48	0.54
328.15	0.4003	814.7	0.49
328.15	0.4996	845.11	0.46
328.15	0.6	871.28	0.43
328.15	0.7003	893.89	0.41
328.15	0.7998	913.55	0.4
328.15	0.8988	930.74	0.39
328.15	1	944.88	0.39

System: dodecane + tributyl phosphate; phases: Liquid
Fixed: Pressure, kPa = 101
Property: Viscosity, Pa*s (Liquid); method: CAPTUB:UFactor:4
Temperature, K	Mole fraction of tributyl phosphate	Viscosity, Pa*s	uncertainty
298.15	0	0.001336	3.2e-05
298.15	0.1	0.001413	3.37e-05
298.15	0.2	0.001519	3.61e-05
298.15	0.3002	0.001645	3.88e-05
298.15	0.4002	0.001824	4.27e-05
298.15	0.5001	0.002014	4.69e-05
298.15	0.5999	0.002229	5.16e-05
298.15	0.7	0.00248	5.71e-05
298.15	0.7998	0.002745	6.29e-05
298.15	0.9001	0.003054	6.97e-05
298.15	1	0.003399	7.73e-05
303.15	0	0.001221	2.96e-05
303.15	0.1	0.001316	3.16e-05
303.15	0.2	0.001394	3.34e-05
303.15	0.3002	0.001504	3.58e-05
303.15	0.4002	0.001648	3.89e-05
303.15	0.5001	0.001815	4.26e-05
303.15	0.5999	0.002005	4.68e-05
303.15	0.7	0.002204	5.12e-05
303.15	0.7998	0.002447	5.65e-05
303.15	0.9001	0.002715	6.24e-05
303.15	1	0.003012	6.9e-05
308.15	0	0.001125	2.75e-05
308.15	0.1	0.001191	2.89e-05
308.15	0.2	0.00128	3.09e-05
308.15	0.3002	0.001383	3.32e-05
308.15	0.4002	0.00151	3.6e-05
308.15	0.5001	0.001659	3.92e-05
308.15	0.5999	0.001821	4.28e-05
308.15	0.7	0.002004	4.69e-05
308.15	0.7998	0.002245	5.22e-05
308.15	0.9001	0.002495	5.77e-05
308.15	1	0.002702	6.23e-05
313.15	0	0.001039	2.56e-05
313.15	0.1	0.001105	2.71e-05
313.15	0.2	0.001179	2.87e-05
313.15	0.3002	0.001272	3.08e-05
313.15	0.4002	0.001385	3.33e-05
313.15	0.5001	0.001529	3.64e-05
313.15	0.5999	0.001666	3.95e-05
313.15	0.7	0.001842	4.33e-05
313.15	0.7998	0.002033	4.76e-05
313.15	0.9001	0.002235	5.21e-05
313.15	1	0.002441	5.66e-05
318.15	0	0.000965	2.4e-05
318.15	0.1	0.001023	2.53e-05
318.15	0.2	0.001094	2.69e-05
318.15	0.3002	0.001172	2.86e-05
318.15	0.4002	0.001279	3.1e-05
318.15	0.5001	0.001403	3.37e-05
318.15	0.5999	0.001548	3.69e-05
318.15	0.7	0.00169	4.01e-05
318.15	0.7998	0.001863	4.39e-05
318.15	0.9001	0.002045	4.79e-05
318.15	1	0.00222	5.18e-05
323.15	0	0.000898	2.26e-05
323.15	0.1	0.000946	2.37e-05
323.15	0.2	0.00102	2.53e-05
323.15	0.3002	0.001084	2.67e-05
323.15	0.4002	0.001185	2.89e-05
323.15	0.5001	0.001293	3.13e-05
323.15	0.5999	0.001419	3.41e-05
323.15	0.7	0.00155	3.7e-05
323.15	0.7998	0.001696	4.03e-05
323.15	0.9001	0.001856	4.38e-05
323.15	1	0.002022	4.75e-05
328.15	0	0.000843	2.14e-05
328.15	0.1	0.000889	2.24e-05
328.15	0.2	0.00095	2.38e-05
328.15	0.3002	0.001011	2.51e-05
328.15	0.4002	0.0011	2.71e-05
328.15	0.5001	0.001196	2.92e-05
328.15	0.5999	0.001307	3.17e-05
328.15	0.7	0.001426	3.43e-05
328.15	0.7998	0.001555	3.72e-05
328.15	0.9001	0.001705	4.05e-05
328.15	1	0.001842	4.36e-05

System: dodecane + tributyl phosphate; phases: Liquid
Fixed: Pressure, kPa = 101
Property: Mass density, kg/m3 (Liquid); method: VIBTUB:UFactor:4
Temperature, K	Mole fraction of tributyl phosphate	Mass density, kg/m3	uncertainty
298.15	0	745.79	0.55
298.15	0.1	771.13	0.52
298.15	0.2	796.01	0.49
298.15	0.3002	820.23	0.46
298.15	0.4002	843.54	0.44
298.15	0.5001	865.73	0.42
298.15	0.5999	888.91	0.4
298.15	0.7	910.83	0.38
298.15	0.7998	931.65	0.37
298.15	0.9001	951.76	0.36
298.15	1	970.83	0.36
303.15	0	742.1	0.55
303.15	0.1	767.36	0.53
303.15	0.2	792.14	0.5
303.15	0.3002	816.29	0.47
303.15	0.4002	839.5	0.45
303.15	0.5001	861.62	0.43
303.15	0.5999	884.75	0.41
303.15	0.7	906.6	0.39
303.15	0.7998	927.4	0.38
303.15	0.9001	947.48	0.37
303.15	1	966.46	0.36
308.15	0	738.38	0.56
308.15	0.1	763.55	0.53
308.15	0.2	788.24	0.5
308.15	0.3002	812.3	0.48
308.15	0.4002	835.43	0.45
308.15	0.5001	857.48	0.43
308.15	0.5999	880.56	0.41
308.15	0.7	902.32	0.4
308.15	0.7998	923.1	0.38
308.15	0.9001	943.12	0.37
308.15	1	962.06	0.37
313.15	0	734.73	0.57
313.15	0.1	759.8	0.54
313.15	0.2	784.41	0.51
313.15	0.3002	808.39	0.48
313.15	0.4002	831.43	0.46
313.15	0.5001	853.42	0.44
313.15	0.5999	876.44	0.42
313.15	0.7	898.12	0.4
313.15	0.7998	918.89	0.39
313.15	0.9001	938.85	0.38
313.15	1	957.77	0.37
318.15	0	731.15	0.57
318.15	0.1	756.15	0.54
318.15	0.2	780.66	0.51
318.15	0.3002	804.56	0.49
318.15	0.4002	827.53	0.46
318.15	0.5001	849.47	0.44
318.15	0.5999	872.41	0.42
318.15	0.7	894.3	0.41
318.15	0.7998	914.76	0.39
318.15	0.9001	934.75	0.38
318.15	1	953.58	0.38
323.15	0	727.46	0.58
323.15	0.1	752.34	0.55
323.15	0.2	776.78	0.52
323.15	0.3002	800.61	0.49
323.15	0.4002	823.49	0.47
323.15	0.5001	845.35	0.45
323.15	0.5999	868.24	0.43
323.15	0.7	889.79	0.41
323.15	0.7998	910.53	0.4
323.15	0.9001	930.37	0.39
323.15	1	949.22	0.38
328.15	0	723.77	0.58
328.15	0.1	748.6	0.55
328.15	0.2	772.92	0.52
328.15	0.3002	796.65	0.5
328.15	0.4002	819.45	0.47
328.15	0.5001	841.27	0.45
328.15	0.5999	864.09	0.43
328.15	0.7	885.58	0.42
328.15	0.7998	906.32	0.4
328.15	0.9001	926.04	0.39
328.15	1	944.88	0.39
