Measured thermophysical data. Vapor-Liquid Equilibria for the Ternary System Ethanol + Water + 1-Butyl-3-methylimidazolium Chloride and the Corresponding Binary Systems at 101.3 kPa
Source: J. Chem. Eng. Data, 2006, 10.1021/je060293x
Compound 1: ethanol, C2H6O, InChI=1S/C2H6O/c1-2-3/h3H,2H2,1H3
Compound 2: 1-butyl-3-methylimidazolium chloride, C8H15ClN2, InChI=1S/C8H15N2.ClH/c1-3-4-5-10-7-6-9(2)8-10;/h6-8H,3-5H2,1-2H3;1H/q+1;/p-1
Compound 3: water, H2O, InChI=1S/H2O/h1H2

System: ethanol + 1-butyl-3-methylimidazolium chloride; phases: Liquid, Gas
Fixed: Pressure, kPa = 101
Property: Mole fraction of ethanol (Liquid); method: Density calibration data
Temperature, K	Mole fraction of ethanol	uncertainty
351.44	1	0.0001
351.97	0.9826	0.0006
352.99	0.9562	0.0005
354.18	0.9276	0.0006
356.04	0.8926	0.0007
358.91	0.8581	0.0011
361.61	0.8298	0.0014
366.16	0.7951	0.0019
370.21	0.7635	0.0024
377	0.7119	0.0033
386.3	0.6442	0.0044
398.67	0.5581	0.0057
412.61	0.4816	0.0062

System: water + 1-butyl-3-methylimidazolium chloride; phases: Liquid, Gas
Fixed: Pressure, kPa = 101.3
Property: Mole fraction of water (Liquid); method: Density calibration data
Temperature, K	Mole fraction of water	uncertainty
373.15	1	0.0001
373.3	0.9991	0.0003
373.48	0.9954	0.0006
373.59	0.9915	0.0006
373.74	0.9865	0.0006
373.93	0.9827	0.0004
374.09	0.9801	0.0004
374.19	0.9781	0.0004
374.36	0.9746	0.0005
374.54	0.9703	0.0004
374.77	0.966	0.0003
374.99	0.9638	0.0003
375.22	0.9601	0.0004
375.43	0.9548	0.0005
375.63	0.9506	0.0004
376.01	0.9433	0.0004
376.37	0.9379	0.0004
376.84	0.933	0.0004
377.67	0.9199	0.0005
379.05	0.9078	0.0006
381.09	0.8896	0.0007
383.67	0.8697	0.001
386.78	0.8431	0.0013
388.22	0.8295	0.0014
391.19	0.8118	0.0017
394	0.7879	0.002
405.82	0.7191	0.0031
407.3	0.7104	0.0033
421.97	0.6318	0.0046
441.11	0.5403	0.006

System: ethanol + water + 1-butyl-3-methylimidazolium chloride; phases: Liquid, Gas
Fixed: Pressure, kPa = 101.3
Property: Mole fraction of water (Liquid); method: Density calibration data
Property: Mole fraction of water (Gas); method: Density calibration data
Property: Mole fraction of ethanol (Gas); method: Density calibration data
Temperature, K	Mole fraction of ethanol	Mole fraction of water	uncertainty	Mole fraction of water	uncertainty	Mole fraction of ethanol	uncertainty
398.5	0.2036	0.4278	0.0036	0.2334	0.0002	0.7666	
393.63	0.2625	0.3849	0.0028	0.1862	0.0001	0.8138	
382.86	0.2019	0.5424	0.0035	0.3422	0.0005	0.6578	
376.07	0.1002	0.7018	0.0024	0.5088	0.001	0.4912	
374.33	0.0886	0.745	0.0019	0.5447	0.001	0.4553	
373.11	0.1133	0.7163	0.0021	0.5002	0.001	0.4998	
367.16	0.1866	0.6479	0.0023	0.4016	0.0006	0.5984	
362.62	0.2986	0.5601	0.0022	0.3137	0.0004	0.6863	
360.42	0.3667	0.5036	0.0021	0.279	0.001	0.721	
359.25	0.417	0.4608	0.0017	0.2584	0.0003	0.7416	
357.44	0.4932	0.4	0.0011	0.2305	0.0002	0.7695	
356.04	0.5795	0.3298	0.0007	0.2061	0.0002	0.7939	
372.77	0.0381	0.8394	0.0011	0.6686	0.0009	0.3314	
367.91	0.0863	0.798	0.0012	0.5577	0.001	0.4423	
364.56	0.1323	0.7578	0.0013	0.4627	0.0009	0.5373	
361.19	0.2048	0.696	0.0014	0.4044	0.0007	0.5956	
359.04	0.2759	0.6321	0.0015	0.3565	0.0005	0.6435	
357.41	0.3482	0.5681	0.0015	0.3234	0.0004	0.6766	
356.17	0.4205	0.504	0.0014	0.3002	0.0004	0.6998	
354.66	0.5073	0.4264	0.0009	0.2626	0.0003	0.7374	
352.92	0.5723	0.3697	0.0007	0.5534	0.001	0.4466	
353.43	0.4021	0.5575	0.001	0.3268	0.0004	0.6732	
355.74	0.2841	0.6853	0.0008	0.3897	0.0006	0.6103	
355.44	0.2259	0.7479	0.0006	0.4212	0.0007	0.5788	
357.82	0.1666	0.8124	0.0005	0.4652	0.0009	0.5348	
357.85	0.1339	0.8479	0.0004	0.4746	0.0009	0.5254	
359.45	0.1032	0.8825	0.0003	0.4986	0.001	0.5014	
352.47	0.7319	0.2106	0.0002	0.146	0.001	0.854	
354.25	0.6867	0.2175	0.0003	0.1409	0.0001	0.8591	
358.62	0.6354	0.2348	0.0005	0.1361	0.0001	0.8639	
362.54	0.5723	0.2592	0.0007	0.135	0.001	0.865	
369	0.5084	0.2749	0.0009	0.1365	0.0001	0.8635	
379.75	0.3854	0.3304	0.0017	0.1467	0.0001	0.8533	
390.27	0.3482	0.3327	0.0019	0.1614	0.0001	0.8386	
353.55	0.7974	0.1399	0.0001	0.1	0.1	0.9	
357.42	0.7141	0.1644	0.0002	0.099	0.001	0.901	
361.12	0.6167	0.2197	0.0005	0.0978	0.0001	0.9022	
363.28	0.0969	0.8328	0.0008	0.5403	0.001	0.4597	
360.47	0.1491	0.7837	0.0009	0.4536	0.0008	0.5464	
357.47	0.2588	0.6816	0.0011	0.3872	0.0006	0.6128	
358.34	0.1911	0.7616	0.0008	0.4365	0.0008	0.5635	
359.26	0.1461	0.8146	0.0006	0.4687	0.0009	0.5313	
360.54	0.1083	0.8589	0.0004	0.5142	0.001	0.4858	
362.06	0.0831	0.891	0.0003	0.5556	0.001	0.4444	
363.91	0.0599	0.9212	0.0002	0.5998	0.001	0.4002	
365.65	0.0458	0.9407	0.0002	0.6558	0.0009	0.3442	
367.57	0.0323	0.958	0.0001	0.7201	0.0008	0.2799	
