Measured thermophysical data. Thermodynamic Properties of Ionic Liquids in Organic Solvents from (293.15 to 303.15) K
Source: J. Chem. Eng. Data, 2007, 10.1021/je060497d
Compound 1: 1-butyl-3-methylimidazolium hexafluorophosphate, C8H15F6N2P, InChI=1S/C8H15N2.F6P/c1-3-4-5-10-7-6-9(2)8-10;1-7(2,3,4,5)6/h6-8H,3-5H2,1-2H3;/q+1;-1
Compound 2: 1-hexyl-3-methylimidazolium hexafluorophosphate, C10H19F6N2P, InChI=1S/C10H19N2.F6P/c1-3-4-5-6-7-12-9-8-11(2)10-12;1-7(2,3,4,5)6/h8-10H,3-7H2,1-2H3;/q+1;-1
Compound 3: 1-octyl-3-methylimidazolium hexafluorophosphate, C12H23F6N2P, InChI=1S/C12H23N2.F6P/c1-3-4-5-6-7-8-9-14-11-10-13(2)12-14;1-7(2,3,4,5)6/h10-12H,3-9H2,1-2H3;/q+1;-1
Compound 4: 1,3-dimethylimidazolium methylsulfate, C6H12N2O4S, InChI=1S/C5H9N2.CH4O4S/c1-6-3-4-7(2)5-6;1-5-6(2,3)4/h3-5H,1-2H3;1H3,(H,2,3,4)/q+1;/p-1
Compound 5: butanone, C4H8O, InChI=1S/C4H8O/c1-3-4(2)5/h3H2,1-2H3
Compound 6: propan-2-ol, C3H8O, InChI=1S/C3H8O/c1-3(2)4/h3-4H,1-2H3
Compound 7: ethyl acetate, C4H8O2, InChI=1S/C4H8O2/c1-3-6-4(2)5/h3H2,1-2H3

System: 1-butyl-3-methylimidazolium hexafluorophosphate; phases: Liquid
Fixed: Pressure, kPa = 101.325
Property: Refractive index (Na D-line) (Liquid); method: ABBE::UFactor:2
Temperature, K	Refractive index (Na D-line)	uncertainty
293.15	1.41069	0.00078
298.15	1.40937	0.00078
303.15	1.40808	0.00078

System: 1-butyl-3-methylimidazolium hexafluorophosphate; phases: Liquid
Fixed: Pressure, kPa = 101
Property: Speed of sound, m/s (Liquid); method: FPINT::UFactor:8
Temperature, K	Speed of sound, m/s	uncertainty
293.15	1455	6
298.15	1443	6
303.15	1431	6

System: 1-butyl-3-methylimidazolium hexafluorophosphate; phases: Liquid
Fixed: Pressure, kPa = 101
Property: Mass density, kg/m3 (Liquid); method: VIBTUB::UFactor:16
Temperature, K	Mass density, kg/m3	uncertainty
293.15	1371.6	4.3
298.15	1367.3	4.3
303.15	1363	4.3

System: 1-hexyl-3-methylimidazolium hexafluorophosphate; phases: Liquid
Fixed: Pressure, kPa = 101.325
Property: Refractive index (Na D-line) (Liquid); method: ABBE::UFactor:2
Temperature, K	Refractive index (Na D-line)	uncertainty
293.15	1.41923	0.00079
298.15	1.41787	0.00079
303.15	1.41643	0.00079

System: 1-hexyl-3-methylimidazolium hexafluorophosphate; phases: Liquid
Fixed: Pressure, kPa = 101
Property: Speed of sound, m/s (Liquid); method: FPINT::UFactor:8
Temperature, K	Speed of sound, m/s	uncertainty
293.15	1438	6
298.15	1424	6
303.15	1411	6

System: 1-hexyl-3-methylimidazolium hexafluorophosphate; phases: Liquid
Fixed: Pressure, kPa = 101
Property: Mass density, kg/m3 (Liquid); method: VIBTUB::UFactor:16
Temperature, K	Mass density, kg/m3	uncertainty
293.15	1297.9	3.7
298.15	1293.7	3.7
303.15	1289.6	3.7

System: 1-octyl-3-methylimidazolium hexafluorophosphate; phases: Liquid
Fixed: Pressure, kPa = 101.325
Property: Refractive index (Na D-line) (Liquid); method: ABBE::UFactor:2
Temperature, K	Refractive index (Na D-line)	uncertainty
293.15	1.4244	0.00079
298.15	1.42302	0.00079
303.15	1.42165	0.00079

System: 1-octyl-3-methylimidazolium hexafluorophosphate; phases: Liquid
Fixed: Pressure, kPa = 101
Property: Speed of sound, m/s (Liquid); method: FPINT::UFactor:8
Temperature, K	Speed of sound, m/s	uncertainty
293.15	1424	6
298.15	1408	6
303.15	1393	6

System: 1-octyl-3-methylimidazolium hexafluorophosphate; phases: Liquid
Fixed: Pressure, kPa = 101
Property: Mass density, kg/m3 (Liquid); method: VIBTUB::UFactor:16
Temperature, K	Mass density, kg/m3	uncertainty
293.15	1239.6	3.2
298.15	1235.7	3.2
303.15	1231.9	3.2

System: 1,3-dimethylimidazolium methylsulfate; phases: Liquid
Fixed: Pressure, kPa = 101.325
Property: Refractive index (Na D-line) (Liquid); method: ABBE::UFactor:2
Temperature, K	Refractive index (Na D-line)	uncertainty
293.15	1.48392	0.00078
298.15	1.4827	0.00078
303.15	1.48129	0.00079

System: 1,3-dimethylimidazolium methylsulfate; phases: Liquid
Fixed: Pressure, kPa = 101
Property: Speed of sound, m/s (Liquid); method: FPINT::UFactor:8
Temperature, K	Speed of sound, m/s	uncertainty
293.15	1826	7
298.15	1813	7
303.15	1801	7

System: 1,3-dimethylimidazolium methylsulfate; phases: Liquid
Fixed: Pressure, kPa = 101
Property: Mass density, kg/m3 (Liquid); method: VIBTUB::UFactor:16
Temperature, K	Mass density, kg/m3	uncertainty
293.15	1330.9	4
298.15	1327.2	4
303.15	1323.7	3.9

System: butanone; phases: Liquid
Fixed: Pressure, kPa = 101.325
Property: Refractive index (Na D-line) (Liquid); method: ABBE:UFactor:2
Temperature, K	Refractive index (Na D-line)	uncertainty
293.15	1.37879	0.00082
298.15	1.37618	0.00082
303.15	1.37355	0.00082

System: butanone; phases: Liquid
Fixed: Pressure, kPa = 101
Property: Speed of sound, m/s (Liquid); method: FPINT:UFactor:8
Temperature, K	Speed of sound, m/s	uncertainty
293.15	1212	5
298.15	1192	5
303.15	1163	5

System: butanone; phases: Liquid
Fixed: Pressure, kPa = 101
Property: Mass density, kg/m3 (Liquid); method: VIBTUB:UFactor:16
Temperature, K	Mass density, kg/m3	uncertainty
293.15	805.6	1.7
298.15	799.7	1.8
303.15	794.9	1.8

System: propan-2-ol; phases: Liquid
Fixed: Pressure, kPa = 101.325
Property: Refractive index (Na D-line) (Liquid); method: ABBE:UFactor:2
Temperature, K	Refractive index (Na D-line)	uncertainty
293.15	1.37707	0.00075
298.15	1.37496	0.00076
303.15	1.37278	0.00076

System: propan-2-ol; phases: Liquid
Fixed: Pressure, kPa = 101
Property: Speed of sound, m/s (Liquid); method: FPINT:UFactor:8
Temperature, K	Speed of sound, m/s	uncertainty
293.15	1156	5
298.15	1139	5
303.15	1121	5

System: propan-2-ol; phases: Liquid
Fixed: Pressure, kPa = 101
Property: Mass density, kg/m3 (Liquid); method: VIBTUB:UFactor:16
Temperature, K	Mass density, kg/m3	uncertainty
293.15	785	1.9
298.15	781	1.9
303.15	776.6	1.9

System: ethyl acetate; phases: Liquid
Fixed: Pressure, kPa = 101.325
Property: Refractive index (Na D-line) (Liquid); method: ABBE:UFactor:2
Temperature, K	Refractive index (Na D-line)	uncertainty
293.15	1.37241	0.00082
298.15	1.36977	0.00082
303.15	1.36712	0.00082

System: ethyl acetate; phases: Liquid
Fixed: Pressure, kPa = 101
Property: Speed of sound, m/s (Liquid); method: FPINT:UFactor:8
Temperature, K	Speed of sound, m/s	uncertainty
293.15	1162	5
298.15	1141	5
303.15	1111	5

System: ethyl acetate; phases: Liquid
Fixed: Pressure, kPa = 101
Property: Mass density, kg/m3 (Liquid); method: VIBTUB:UFactor:16
Temperature, K	Mass density, kg/m3	uncertainty
293.15	900.5	1.1
298.15	894.4	1.2
303.15	888.2	1.2

System: butanone + 1-butyl-3-methylimidazolium hexafluorophosphate; phases: Liquid
Fixed: Pressure, kPa = 101
Property: Refractive index (Na D-line) (Liquid); method: ABBE:UFactor:2
Temperature, K	Mole fraction of 1-butyl-3-methylimidazolium hexafluorophosphate	Refractive index (Na D-line)	uncertainty
293.15	0	1.37879	0.00082
293.15	0.0533	1.3866	0.00065
293.15	0.1058	1.39154	0.00065
293.15	0.2081	1.39807	0.00067
293.15	0.2992	1.40183	0.00072
293.15	0.4044	1.40475	0.00073
293.15	0.4926	1.40661	0.00072
293.15	0.5943	1.40795	0.00073
293.15	0.7085	1.409	0.00074
293.15	0.8093	1.40971	0.00076
293.15	0.9013	1.41019	0.00077
293.15	0.9491	1.41042	0.00078
293.15	1	1.41069	0.00078
298.15	0	1.37618	0.00082
298.15	0.0533	1.38487	0.00074
298.15	0.1058	1.39004	0.00072
298.15	0.2081	1.39642	0.00073
298.15	0.2992	1.39987	0.00075
298.15	0.4044	1.40296	0.00073
298.15	0.4926	1.40505	0.00073
298.15	0.5943	1.40645	0.00073
298.15	0.7085	1.40757	0.00075
298.15	0.8093	1.40833	0.00077
298.15	0.9013	1.40888	0.00077
298.15	0.9491	1.40911	0.00078
298.15	1	1.40937	0.00078
303.15	0	1.37355	0.00082
303.15	0.0533	1.38273	0.00092
303.15	0.1058	1.3881	0.00084
303.15	0.2081	1.39466	0.00082
303.15	0.2992	1.39814	0.00076
303.15	0.4044	1.40149	0.00074
303.15	0.4926	1.40357	0.00075
303.15	0.5943	1.40517	0.00075
303.15	0.7085	1.40617	0.00076
303.15	0.8093	1.40668	0.00077
303.15	0.9013	1.40753	0.00078
303.15	0.9491	1.40779	0.00078
303.15	1	1.40808	0.00078

System: butanone + 1-butyl-3-methylimidazolium hexafluorophosphate; phases: Liquid
Fixed: Pressure, kPa = 101
Property: Speed of sound, m/s (Liquid); method: FPINT:UFactor:8
Temperature, K	Mole fraction of 1-butyl-3-methylimidazolium hexafluorophosphate	Speed of sound, m/s	uncertainty
293.15	0	1212	5
293.15	0.0533	1242	5
293.15	0.1058	1265	5
293.15	0.2081	1301	5
293.15	0.2992	1331	5
293.15	0.4044	1360	6
293.15	0.4926	1380	6
293.15	0.5943	1399	6
293.15	0.7085	1418	6
293.15	0.8093	1433	6
293.15	0.9013	1444	6
293.15	0.9491	1449	6
293.15	1	1455	6
298.15	0	1192	5
298.15	0.0533	1224	5
298.15	0.1058	1248	5
298.15	0.2081	1286	5
298.15	0.2992	1317	5
298.15	0.4044	1348	6
298.15	0.4926	1369	6
298.15	0.5943	1390	6
298.15	0.7085	1408	6
298.15	0.8093	1421	6
298.15	0.9013	1433	6
298.15	0.9491	1438	6
298.15	1	1443	6
303.15	0	1163	5
303.15	0.0533	1195	5
303.15	0.1058	1220	5
303.15	0.2081	1260	5
303.15	0.2992	1292	5
303.15	0.4044	1322	6
303.15	0.4926	1349	6
303.15	0.5943	1374	6
303.15	0.7085	1393	6
303.15	0.8093	1408	6
303.15	0.9013	1419	6
303.15	0.9491	1425	6
303.15	1	1431	6

System: butanone + 1-butyl-3-methylimidazolium hexafluorophosphate; phases: Liquid
Fixed: Pressure, kPa = 101
Property: Mass density, kg/m3 (Liquid); method: VIBTUB:UFactor:16
Temperature, K	Mole fraction of 1-butyl-3-methylimidazolium hexafluorophosphate	Mass density, kg/m3	uncertainty
293.15	0	805.6	1.7
293.15	0.0533	877.7	1.3
293.15	0.1058	938.8	1
293.15	0.2081	1036.2	0.9
293.15	0.2992	1104.5	1.4
293.15	0.4044	1167.9	1.9
293.15	0.4926	1211.6	2.3
293.15	0.5943	1254.1	2.7
293.15	0.7085	1293.9	3.2
293.15	0.8093	1323.9	3.6
293.15	0.9013	1348.3	3.9
293.15	0.9491	1359.7	4.1
293.15	1	1371.6	4.3
298.15	0	799.7	1.8
298.15	0.0533	872.6	1.4
298.15	0.1058	934	1
298.15	0.2081	1031.3	0.9
298.15	0.2992	1099.5	1.3
298.15	0.4044	1163.2	1.8
298.15	0.4926	1207.3	2.2
298.15	0.5943	1250.1	2.7
298.15	0.7085	1289.8	3.1
298.15	0.8093	1319.8	3.5
298.15	0.9013	1344	3.9
298.15	0.9491	1355.5	4.1
298.15	1	1367.3	4.3
303.15	0	794.9	1.8
303.15	0.0533	867.6	1.4
303.15	0.1058	929.1	1
303.15	0.2081	1026.8	0.8
303.15	0.2992	1095.3	1.3
303.15	0.4044	1159	1.8
303.15	0.4926	1203	2.2
303.15	0.5943	1245.7	2.6
303.15	0.7085	1285.5	3.1
303.15	0.8093	1315.6	3.5
303.15	0.9013	1339.7	3.9
303.15	0.9491	1351.2	4.1
303.15	1	1363	4.3

System: ethyl acetate + 1-butyl-3-methylimidazolium hexafluorophosphate; phases: Liquid
Fixed: Pressure, kPa = 101
Property: Refractive index (Na D-line) (Liquid); method: ABBE:UFactor:2
Temperature, K	Mole fraction of 1-butyl-3-methylimidazolium hexafluorophosphate	Refractive index (Na D-line)	uncertainty
293.15	0	1.37241	0.00082
293.15	0.052	1.37948	0.00071
293.15	0.0979	1.38419	0.0007
293.15	0.198	1.39206	0.00068
293.15	0.2939	1.39736	0.0007
293.15	0.3968	1.40129	0.00071
293.15	0.4883	1.40391	0.00071
293.15	0.5936	1.40599	0.00073
293.15	0.7	1.40788	0.00073
293.15	0.8146	1.40911	0.00076
293.15	0.8997	1.40991	0.00077
293.15	0.9499	1.41046	0.00077
293.15	1	1.41069	0.00078
298.15	0	1.36977	0.00082
298.15	0.052	1.37726	0.00076
298.15	0.0979	1.38208	0.00074
298.15	0.198	1.39005	0.00074
298.15	0.2939	1.39538	0.00075
298.15	0.3968	1.39946	0.00074
298.15	0.4883	1.4023	0.00073
298.15	0.5936	1.40451	0.00073
298.15	0.7	1.40638	0.00075
298.15	0.8146	1.40768	0.00076
298.15	0.8997	1.40855	0.00077
298.15	0.9499	1.40915	0.00077
298.15	1	1.40937	0.00078
303.15	0	1.36712	0.00082
303.15	0.052	1.3752	0.00084
303.15	0.0979	1.38016	0.0008
303.15	0.198	1.38819	0.00083
303.15	0.2939	1.39346	0.00079
303.15	0.3968	1.39774	0.00076
303.15	0.4883	1.40065	0.00076
303.15	0.5936	1.40301	0.00075
303.15	0.7	1.4049	0.00076
303.15	0.8146	1.40632	0.00076
303.15	0.8997	1.40723	0.00076
303.15	0.9499	1.40793	0.00078
303.15	1	1.40808	0.00078

System: ethyl acetate + 1-butyl-3-methylimidazolium hexafluorophosphate; phases: Liquid
Fixed: Pressure, kPa = 101
Property: Speed of sound, m/s (Liquid); method: FPINT:UFactor:8
Temperature, K	Mole fraction of 1-butyl-3-methylimidazolium hexafluorophosphate	Speed of sound, m/s	uncertainty
293.15	0	1162	5
293.15	0.052	1182	5
293.15	0.0979	1200	5
293.15	0.198	1240	5
293.15	0.2939	1280	5
293.15	0.3968	1319	5
293.15	0.4883	1350	6
293.15	0.5936	1379	6
293.15	0.7	1399	6
293.15	0.8146	1421	6
293.15	0.8997	1438	6
293.15	0.9499	1447	6
293.15	1	1455	6
298.15	0	1141	5
298.15	0.052	1162	5
298.15	0.0979	1180	5
298.15	0.198	1228	5
298.15	0.2939	1272	5
298.15	0.3968	1310	5
298.15	0.4883	1338	6
298.15	0.5936	1366	6
298.15	0.7	1391	6
298.15	0.8146	1412	6
298.15	0.8997	1427	6
298.15	0.9499	1436	6
298.15	1	1443	6
303.15	0	1111	5
303.15	0.052	1137	5
303.15	0.0979	1160	5
303.15	0.198	1207	5
303.15	0.2939	1247	5
303.15	0.3968	1291	5
303.15	0.4883	1323	5
303.15	0.5936	1354	6
303.15	0.7	1378	6
303.15	0.8146	1401	6
303.15	0.8997	1415	6
303.15	0.9499	1420	6
303.15	1	1431	6

System: ethyl acetate + 1-butyl-3-methylimidazolium hexafluorophosphate; phases: Liquid
Fixed: Pressure, kPa = 101
Property: Mass density, kg/m3 (Liquid); method: VIBTUB:UFactor:16
Temperature, K	Mole fraction of 1-butyl-3-methylimidazolium hexafluorophosphate	Mass density, kg/m3	uncertainty
293.15	0	900.5	1.1
293.15	0.052	956.3	0.8
293.15	0.0979	999	0.6
293.15	0.198	1077.6	1.1
293.15	0.2939	1138.2	1.5
293.15	0.3968	1191.4	1.9
293.15	0.4883	1230.7	2.3
293.15	0.5936	1268.7	2.7
293.15	0.7	1301	3.1
293.15	0.8146	1330.9	3.6
293.15	0.8997	1350.6	3.9
293.15	0.9499	1361.5	4.1
293.15	1	1371.6	4.3
298.15	0	894.4	1.2
298.15	0.052	950.6	0.8
298.15	0.0979	993.4	0.6
298.15	0.198	1072.2	1
298.15	0.2939	1133.1	1.5
298.15	0.3968	1186.8	1.9
298.15	0.4883	1226.6	2.3
298.15	0.5936	1264.7	2.7
298.15	0.7	1297	3.1
298.15	0.8146	1326.6	3.5
298.15	0.8997	1346.3	3.9
298.15	0.9499	1357.3	4.1
298.15	1	1367.3	4.3
303.15	0	888.2	1.2
303.15	0.052	944.6	0.9
303.15	0.0979	987.7	0.6
303.15	0.198	1067	1
303.15	0.2939	1128	1.4
303.15	0.3968	1182	1.9
303.15	0.4883	1222	2.2
303.15	0.5936	1260.3	2.6
303.15	0.7	1292.6	3
303.15	0.8146	1322.2	3.5
303.15	0.8997	1342	3.8
303.15	0.9499	1352.9	4
303.15	1	1363	4.3

System: propan-2-ol + 1-butyl-3-methylimidazolium hexafluorophosphate; phases: Liquid mixture 1, Liquid mixture 2
Fixed: Pressure, kPa = 101
Property: Mole fraction of 1-butyl-3-methylimidazolium hexafluorophosphate (Liquid mixture 1); method: Density calibration data
Temperature, K	Mole fraction of 1-butyl-3-methylimidazolium hexafluorophosphate	uncertainty
278.15	0.0008	0.0008
283.15	0.0008	0.0008
288.15	0.0009	0.0009
293.15	0.0012	0.001
298.15	0.0014	0.001
303.15	0.0017	0.001
308.15	0.0022	0.001
313.15	0.0027	0.001
318.15	0.0036	0.001
323.15	0.0044	0.001
328.15	0.0059	0.001
333.15	0.0081	0.001
338.15	0.0109	0.001
343.15	0.0133	0.001

System: propan-2-ol + 1-butyl-3-methylimidazolium hexafluorophosphate; phases: Liquid mixture 2, Liquid mixture 1
Fixed: Pressure, kPa = 101
Property: Mole fraction of 1-butyl-3-methylimidazolium hexafluorophosphate (Liquid mixture 2); method: Density calibration data
Temperature, K	Mole fraction of 1-butyl-3-methylimidazolium hexafluorophosphate	uncertainty
278.15	0.7516	0.01
283.15	0.7309	0.01
288.15	0.707	0.01
293.15	0.682	0.01
298.15	0.6517	0.01
303.15	0.6238	0.01
308.15	0.591	0.01
313.15	0.5592	0.01
318.15	0.5335	0.01
323.15	0.4905	0.01
328.15	0.4661	0.01
333.15	0.4339	0.01
338.15	0.4057	0.01
343.15	0.3678	0.01

System: propan-2-ol + 1-butyl-3-methylimidazolium hexafluorophosphate; phases: Liquid
Fixed: Pressure, kPa = 101
Property: Refractive index (Na D-line) (Liquid); method: ABBE:UFactor:2
Temperature, K	Mole fraction of 1-butyl-3-methylimidazolium hexafluorophosphate	Refractive index (Na D-line)	uncertainty
293.15	0	1.37707	0.00075
293.15	0.0008	1.37717	0.00075
293.15	0.0011	1.37726	0.00075
293.15	0.7136	1.40727	0.00075
293.15	0.8175	1.40833	0.00075
293.15	0.8945	1.40869	0.00079
293.15	0.9542	1.40976	0.00078
293.15	1	1.41069	0.00078
298.15	0	1.37496	0.00076
298.15	0.0008	1.37509	0.00075
298.15	0.0011	1.37521	0.00075
298.15	0.7136	1.40584	0.00074
298.15	0.8175	1.40689	0.00076
298.15	0.8945	1.40738	0.00077
298.15	0.9542	1.40844	0.00077
298.15	1	1.40937	0.00078
303.15	0	1.37278	0.00076
303.15	0.0008	1.37301	0.00075
303.15	0.0011	1.37312	0.00075
303.15	0.7136	1.4045	0.00074
303.15	0.8175	1.40562	0.00076
303.15	0.8945	1.40595	0.00075
303.15	0.9542	1.40721	0.00077
303.15	1	1.40808	0.00078

System: propan-2-ol + 1-butyl-3-methylimidazolium hexafluorophosphate; phases: Liquid
Fixed: Pressure, kPa = 101
Property: Speed of sound, m/s (Liquid); method: FPINT:UFactor:8
Temperature, K	Mole fraction of 1-butyl-3-methylimidazolium hexafluorophosphate	Speed of sound, m/s	uncertainty
293.15	0	1156	5
293.15	0.0008	1156	5
293.15	0.0011	1157	5
293.15	0.7136	1409	6
293.15	0.8175	1429	6
293.15	0.8945	1441	6
293.15	0.9542	1449	6
293.15	1	1455	6
298.15	0	1139	5
298.15	0.0008	1139	5
298.15	0.0011	1140	5
298.15	0.7136	1397	6
298.15	0.8175	1417	6
298.15	0.8945	1429	6
298.15	0.9542	1437	6
298.15	1	1443	6
303.15	0	1121	5
303.15	0.0008	1121	5
303.15	0.0011	1122	5
303.15	0.7136	1385	6
303.15	0.8175	1405	6
303.15	0.8945	1417	6
303.15	0.9542	1425	6
303.15	1	1431	6

System: propan-2-ol + 1-butyl-3-methylimidazolium hexafluorophosphate; phases: Liquid
Fixed: Pressure, kPa = 101
Property: Mass density, kg/m3 (Liquid); method: VIBTUB:UFactor:16
Temperature, K	Mole fraction of 1-butyl-3-methylimidazolium hexafluorophosphate	Mass density, kg/m3	uncertainty
293.15	0	785	1.9
293.15	0.0008	786.3	1.9
293.15	0.0011	786.9	1.9
293.15	0.7136	1298.5	3.1
293.15	0.8175	1328.2	3.6
293.15	0.8945	1347.6	3.9
293.15	0.9542	1361.5	4.1
293.15	1	1371.6	4.3
298.15	0	781	1.9
298.15	0.0008	782.3	1.9
298.15	0.0011	782.9	1.9
298.15	0.7136	1294.3	3.1
298.15	0.8175	1324	3.5
298.15	0.8945	1343.4	3.8
298.15	0.9542	1357.2	4.1
298.15	1	1367.3	4.3
303.15	0	776.6	1.9
303.15	0.0008	778	1.9
303.15	0.0011	778.5	1.9
303.15	0.7136	1290	3.1
303.15	0.8175	1319.8	3.5
303.15	0.8945	1339.3	3.8
303.15	0.9542	1353	4.1
303.15	1	1363	4.3

System: propan-2-ol + 1-hexyl-3-methylimidazolium hexafluorophosphate; phases: Liquid mixture 1, Liquid mixture 2
Fixed: Pressure, kPa = 101
Property: Mole fraction of 1-hexyl-3-methylimidazolium hexafluorophosphate (Liquid mixture 1); method: Density calibration data
Temperature, K	Mole fraction of 1-hexyl-3-methylimidazolium hexafluorophosphate	uncertainty
278.15	0.0013	0.001
283.15	0.0014	0.001
288.15	0.0016	0.001
293.15	0.0024	0.001
298.15	0.0027	0.001
303.15	0.0035	0.001
308.15	0.0047	0.001
313.15	0.0064	0.001
318.15	0.0103	0.001
323.15	0.0215	0.001
328.15	0.0377	0.001

System: propan-2-ol + 1-hexyl-3-methylimidazolium hexafluorophosphate; phases: Liquid mixture 2, Liquid mixture 1
Fixed: Pressure, kPa = 101
Property: Mole fraction of 1-hexyl-3-methylimidazolium hexafluorophosphate (Liquid mixture 2); method: Density calibration data
Temperature, K	Mole fraction of 1-hexyl-3-methylimidazolium hexafluorophosphate	uncertainty
278.15	0.6218	0.01
283.15	0.5904	0.01
288.15	0.5574	0.01
293.15	0.5208	0.01
298.15	0.4856	0.01
303.15	0.4458	0.01
308.15	0.4054	0.01
313.15	0.3709	0.01
318.15	0.3141	0.01
323.15	0.2821	0.01
328.15	0.2106	0.01

System: propan-2-ol + 1-hexyl-3-methylimidazolium hexafluorophosphate; phases: Liquid
Fixed: Pressure, kPa = 101
Property: Refractive index (Na D-line) (Liquid); method: ABBE:UFactor:2
Temperature, K	Mole fraction of 1-hexyl-3-methylimidazolium hexafluorophosphate	Refractive index (Na D-line)	uncertainty
293.15	0	1.37707	0.00075
293.15	0.0011	1.37727	0.00076
293.15	0.0019	1.37764	0.00078
293.15	0.6123	1.41255	0.00074
293.15	0.6958	1.41425	0.00073
293.15	0.811	1.41602	0.00076
293.15	0.926	1.41766	0.00079
293.15	0.9933	1.419	0.00078
293.15	1	1.41923	0.00079
298.15	0	1.37496	0.00076
298.15	0.0011	1.37513	0.00076
298.15	0.0019	1.37534	0.00077
298.15	0.0024	1.37542	0.00076
298.15	0.4893	1.40818	0.0007
298.15	0.6123	1.41101	0.00074
298.15	0.6958	1.41282	0.00074
298.15	0.811	1.41451	0.00076
298.15	0.926	1.41628	0.00078
298.15	0.9933	1.41766	0.00079
298.15	1	1.41787	0.00079
303.15	0	1.37278	0.00076
303.15	0.0011	1.37296	0.00075
303.15	0.0019	1.37319	0.00076
303.15	0.0024	1.37337	0.00075
303.15	0.4893	1.40669	0.00105
303.15	0.6123	1.40962	0.00074
303.15	0.6958	1.41139	0.00076
303.15	0.811	1.41312	0.00076
303.15	0.926	1.4149	0.00077
303.15	0.9933	1.41624	0.00079
303.15	1	1.41643	0.00079

System: propan-2-ol + 1-hexyl-3-methylimidazolium hexafluorophosphate; phases: Liquid
Fixed: Pressure, kPa = 101
Property: Speed of sound, m/s (Liquid); method: FPINT:UFactor:8
Temperature, K	Mole fraction of 1-hexyl-3-methylimidazolium hexafluorophosphate	Speed of sound, m/s	uncertainty
293.15	0	1156	5
293.15	0.0011	1157	5
293.15	0.0019	1158	5
293.15	0.6123	1370	6
293.15	0.6958	1388	6
293.15	0.811	1408	6
293.15	0.926	1427	6
293.15	0.9933	1437	6
293.15	1	1438	6
298.15	0	1139	5
298.15	0.0011	1140	5
298.15	0.0019	1141	5
298.15	0.0024	1141	5
298.15	0.4893	1325	5
298.15	0.6123	1358	6
298.15	0.6958	1375	6
298.15	0.811	1396	6
298.15	0.926	1413	6
298.15	0.9933	1423	6
298.15	1	1424	6
303.15	0	1121	5
303.15	0.0011	1122	5
303.15	0.0019	1124	5
303.15	0.0024	1124	5
303.15	0.4893	1313	5
303.15	0.6123	1346	6
303.15	0.6958	1363	6
303.15	0.811	1383	6
303.15	0.926	1401	6
303.15	0.9933	1410	6
303.15	1	1411	6

System: propan-2-ol + 1-hexyl-3-methylimidazolium hexafluorophosphate; phases: Liquid
Fixed: Pressure, kPa = 101
Property: Mass density, kg/m3 (Liquid); method: VIBTUB:UFactor:16
Temperature, K	Mole fraction of 1-hexyl-3-methylimidazolium hexafluorophosphate	Mass density, kg/m3	uncertainty
293.15	0	785	1.9
293.15	0.0011	787	1.9
293.15	0.0019	788.4	1.9
293.15	0.6123	1213.5	2.4
293.15	0.6958	1236	2.6
293.15	0.811	1261.8	3
293.15	0.926	1283.9	3.4
293.15	0.9933	1296.2	3.7
293.15	1	1297.9	3.7
298.15	0	781	1.9
298.15	0.0011	782.8	1.9
298.15	0.0019	784.2	1.9
298.15	0.0024	785.4	1.9
298.15	0.4893	1168.7	1.9
298.15	0.6123	1209.4	2.3
298.15	0.6958	1232	2.6
298.15	0.811	1257.7	3
298.15	0.926	1279.9	3.4
298.15	0.9933	1292.2	3.7
298.15	1	1293.7	3.7
303.15	0	776.6	1.9
303.15	0.0011	778.5	1.9
303.15	0.0019	780	1.9
303.15	0.0024	781.1	1.9
303.15	0.4893	1164.6	1.9
303.15	0.6123	1205.3	2.3
303.15	0.6958	1227.9	2.6
303.15	0.811	1253.8	3
303.15	0.926	1275.9	3.4
303.15	0.9933	1288.3	3.6
303.15	1	1289.6	3.7

System: ethyl acetate + 1-octyl-3-methylimidazolium hexafluorophosphate; phases: Liquid
Fixed: Pressure, kPa = 101
Property: Refractive index (Na D-line) (Liquid); method: ABBE:UFactor:2
Temperature, K	Mole fraction of 1-octyl-3-methylimidazolium hexafluorophosphate	Refractive index (Na D-line)	uncertainty
293.15	0	1.37241	0.00082
293.15	0.0547	1.38271	0.00069
293.15	0.0964	1.38868	0.0007
293.15	0.1996	1.3994	0.00065
293.15	0.2941	1.40596	0.00068
293.15	0.3939	1.41079	0.0007
293.15	0.4944	1.41443	0.00072
293.15	0.6046	1.41759	0.00072
293.15	0.7033	1.41968	0.00074
293.15	0.8019	1.42153	0.00075
293.15	0.9033	1.42308	0.00077
293.15	0.9952	1.42431	0.00079
293.15	1	1.4244	0.00079
298.15	0	1.36977	0.00082
298.15	0.0547	1.38058	0.00072
298.15	0.0964	1.38636	0.00072
298.15	0.1996	1.39757	0.00074
298.15	0.2941	1.40405	0.00074
298.15	0.3939	1.409	0.00074
298.15	0.4944	1.41271	0.00074
298.15	0.6046	1.41599	0.00074
298.15	0.7033	1.4182	0.00075
298.15	0.8019	1.42008	0.00076
298.15	0.9033	1.42168	0.00077
298.15	0.9952	1.42294	0.00079
298.15	1	1.42302	0.00079
303.15	0	1.36712	0.00082
303.15	0.0547	1.37906	0.00082
303.15	0.0964	1.38508	0.00075
303.15	0.1996	1.39557	0.00087
303.15	0.2941	1.40226	0.0008
303.15	0.3939	1.40728	0.00077
303.15	0.4944	1.41112	0.00076
303.15	0.6046	1.41437	0.00077
303.15	0.7033	1.41663	0.00076
303.15	0.8019	1.41862	0.00077
303.15	0.9033	1.42027	0.00078
303.15	0.9952	1.42155	0.00079
303.15	1	1.42165	0.00079

System: ethyl acetate + 1-octyl-3-methylimidazolium hexafluorophosphate; phases: Liquid
Fixed: Pressure, kPa = 101
Property: Speed of sound, m/s (Liquid); method: FPINT:UFactor:8
Temperature, K	Mole fraction of 1-octyl-3-methylimidazolium hexafluorophosphate	Speed of sound, m/s	uncertainty
293.15	0	1162	5
293.15	0.0547	1189	5
293.15	0.0964	1209	5
293.15	0.1996	1255	5
293.15	0.2941	1288	5
293.15	0.3939	1315	5
293.15	0.4944	1337	6
293.15	0.6046	1358	6
293.15	0.7033	1375	6
293.15	0.8019	1391	6
293.15	0.9033	1408	6
293.15	0.9952	1423	6
293.15	1	1424	6
298.15	0	1141	5
298.15	0.0547	1168	5
298.15	0.0964	1189	5
298.15	0.1996	1236	5
298.15	0.2941	1271	5
298.15	0.3939	1299	5
298.15	0.4944	1323	5
298.15	0.6046	1344	6
298.15	0.7033	1361	6
298.15	0.8019	1377	6
298.15	0.9033	1393	6
298.15	0.9952	1408	6
298.15	1	1408	6
303.15	0	1111	5
303.15	0.0547	1147	5
303.15	0.0964	1169	5
303.15	0.1996	1218	5
303.15	0.2941	1253	5
303.15	0.3939	1284	5
303.15	0.4944	1309	5
303.15	0.6046	1330	6
303.15	0.7033	1348	6
303.15	0.8019	1364	6
303.15	0.9033	1379	6
303.15	0.9952	1393	6
303.15	1	1393	6

System: ethyl acetate + 1-octyl-3-methylimidazolium hexafluorophosphate; phases: Liquid
Fixed: Pressure, kPa = 101
Property: Mass density, kg/m3 (Liquid); method: VIBTUB:UFactor:16
Temperature, K	Mole fraction of 1-octyl-3-methylimidazolium hexafluorophosphate	Mass density, kg/m3	uncertainty
293.15	0	900.5	1.1
293.15	0.0547	954.3	0.8
293.15	0.0964	987.8	0.6
293.15	0.1996	1052.3	0.9
293.15	0.2941	1095.5	1.2
293.15	0.3939	1130.6	1.5
293.15	0.4944	1158.3	1.8
293.15	0.6046	1182.7	2.1
293.15	0.7033	1200.1	2.4
293.15	0.8019	1215.3	2.6
293.15	0.9033	1228.7	2.9
293.15	0.9952	1239	3.2
293.15	1	1239.6	3.2
298.15	0	894.4	1.2
298.15	0.0547	948.6	0.9
298.15	0.0964	982.3	0.7
298.15	0.1996	1047.2	0.9
298.15	0.2941	1090.8	1.2
298.15	0.3939	1126.1	1.5
298.15	0.4944	1153.9	1.8
298.15	0.6046	1178.5	2.1
298.15	0.7033	1196.2	2.3
298.15	0.8019	1211.3	2.6
298.15	0.9033	1224.8	2.9
298.15	0.9952	1235.2	3.2
298.15	1	1235.7	3.2
303.15	0	888.2	1.2
303.15	0.0547	942.9	0.9
303.15	0.0964	976.8	0.7
303.15	0.1996	1042.2	0.8
303.15	0.2941	1086	1.2
303.15	0.3939	1121.6	1.5
303.15	0.4944	1149.6	1.7
303.15	0.6046	1174.4	2
303.15	0.7033	1192.2	2.3
303.15	0.8019	1207.4	2.6
303.15	0.9033	1220.9	2.9
303.15	0.9952	1231.3	3.2
303.15	1	1231.9	3.2

System: butanone + 1,3-dimethylimidazolium methylsulfate; phases: Liquid
Fixed: Pressure, kPa = 101
Property: Refractive index (Na D-line) (Liquid); method: ABBE:UFactor:2
Temperature, K	Mole fraction of 1,3-dimethylimidazolium methylsulfate	Refractive index (Na D-line)	uncertainty
293.15	0	1.37879	0.00082
293.15	0.0006	1.37993	0.00084
293.15	0.0012	1.3804	0.00081
293.15	0.0029	1.3813	0.00087
293.15	0.7074	1.47023	0.00072
293.15	0.7983	1.47479	0.00073
293.15	0.9284	1.48045	0.00076
293.15	0.9743	1.48218	0.0008
293.15	1	1.48392	0.00078
298.15	0	1.37618	0.00082
298.15	0.0006	1.3772	0.00083
298.15	0.0012	1.37762	0.00083
298.15	0.0029	1.37841	0.00084
298.15	0.7074	1.46925	0.00073
298.15	0.7983	1.47366	0.00075
298.15	0.9284	1.47914	0.00077
298.15	0.9743	1.48086	0.00078
298.15	1	1.4827	0.00078
303.15	0	1.37355	0.00082
303.15	0.0006	1.37467	0.00081
303.15	0.0012	1.37513	0.00087
303.15	0.0029	1.376	0.00081
303.15	0.7074	1.46782	0.00075
303.15	0.7983	1.47229	0.00078
303.15	0.9284	1.47781	0.00078
303.15	0.9743	1.47945	0.00076
303.15	1	1.48129	0.00079

System: butanone + 1,3-dimethylimidazolium methylsulfate; phases: Liquid
Fixed: Pressure, kPa = 101
Property: Speed of sound, m/s (Liquid); method: FPINT:UFactor:8
Temperature, K	Mole fraction of 1,3-dimethylimidazolium methylsulfate	Speed of sound, m/s	uncertainty
293.15	0	1212	5
293.15	0.0006	1214	5
293.15	0.0012	1215	5
293.15	0.0029	1217	5
293.15	0.7074	1703	7
293.15	0.7983	1750	7
293.15	0.9284	1803	7
293.15	0.9743	1819	7
293.15	1	1826	7
298.15	0	1192	5
298.15	0.0006	1194	5
298.15	0.0012	1195	5
298.15	0.0029	1196	5
298.15	0.7074	1689	7
298.15	0.7983	1737	7
298.15	0.9284	1791	7
298.15	0.9743	1806	7
298.15	1	1813	7
303.15	0	1163	5
303.15	0.0006	1164	5
303.15	0.0012	1165	5
303.15	0.0029	1168	5
303.15	0.7074	1676	7
303.15	0.7983	1724	7
303.15	0.9284	1778	7
303.15	0.9743	1794	7
303.15	1	1801	7

System: butanone + 1,3-dimethylimidazolium methylsulfate; phases: Liquid
Fixed: Pressure, kPa = 101
Property: Mass density, kg/m3 (Liquid); method: VIBTUB:UFactor:16
Temperature, K	Mole fraction of 1,3-dimethylimidazolium methylsulfate	Mass density, kg/m3	uncertainty
293.15	0	805.6	1.7
293.15	0.0006	806.5	1.8
293.15	0.0012	807.3	1.8
293.15	0.0029	809.5	1.7
293.15	0.7074	1244	2.8
293.15	0.7983	1273.8	3.1
293.15	0.9284	1310.6	3.7
293.15	0.9743	1323.5	3.9
293.15	1	1330.9	4
298.15	0	799.7	1.8
298.15	0.0006	800.7	1.8
298.15	0.0012	801.5	1.8
298.15	0.0029	803.9	1.8
298.15	0.7074	1240.3	2.8
298.15	0.7983	1270.1	3.1
298.15	0.9284	1307.1	3.7
298.15	0.9743	1319.9	3.8
298.15	1	1327.2	4
303.15	0	794.9	1.8
303.15	0.0006	796	1.8
303.15	0.0012	796.7	1.8
303.15	0.0029	799.1	1.8
303.15	0.7074	1236.5	2.7
303.15	0.7983	1266.4	3.1
303.15	0.9284	1303.5	3.6
303.15	0.9743	1316.3	3.8
303.15	1	1323.7	3.9

System: ethyl acetate + 1,3-dimethylimidazolium methylsulfate; phases: Liquid
Fixed: Pressure, kPa = 101
Property: Refractive index (Na D-line) (Liquid); method: ABBE:UFactor:2
Temperature, K	Mole fraction of 1,3-dimethylimidazolium methylsulfate	Refractive index (Na D-line)	uncertainty
293.15	0	1.37241	0.00082
293.15	0.8549	1.47633	0.00073
293.15	0.8746	1.47752	0.00074
293.15	0.9072	1.47884	0.00078
293.15	0.9294	1.48008	0.00076
293.15	0.9491	1.48086	0.00079
293.15	1	1.48392	0.00078
298.15	0	1.36977	0.00082
298.15	0.8549	1.47553	0.00074
298.15	0.8746	1.4764	0.00075
298.15	0.9072	1.4775	0.00077
298.15	0.9294	1.47876	0.00077
298.15	0.9491	1.47955	0.00077
298.15	1	1.4827	0.00078
303.15	0	1.36712	0.00082
303.15	0.8549	1.4744	0.00075
303.15	0.8746	1.47522	0.00076
303.15	0.9072	1.47618	0.00075
303.15	0.9294	1.47752	0.00078
303.15	0.9491	1.47822	0.00076
303.15	1	1.48129	0.00079

System: ethyl acetate + 1,3-dimethylimidazolium methylsulfate; phases: Liquid
Fixed: Pressure, kPa = 101
Property: Speed of sound, m/s (Liquid); method: FPINT:UFactor:8
Temperature, K	Mole fraction of 1,3-dimethylimidazolium methylsulfate	Speed of sound, m/s	uncertainty
293.15	0	1162	5
293.15	0.8549	1765	7
293.15	0.8746	1775	7
293.15	0.9072	1792	7
293.15	0.9294	1801	7
293.15	0.9491	1808	7
293.15	1	1826	7
298.15	0	1141	5
298.15	0.8549	1752	7
298.15	0.8746	1765	7
298.15	0.9072	1778	7
298.15	0.9294	1789	7
298.15	0.9491	1795	7
298.15	1	1813	7
303.15	0	1111	5
303.15	0.8549	1739	7
303.15	0.8746	1746	7
303.15	0.9072	1764	7
303.15	0.9294	1777	7
303.15	0.9491	1782	7
303.15	1	1801	7

System: ethyl acetate + 1,3-dimethylimidazolium methylsulfate; phases: Liquid
Fixed: Pressure, kPa = 101
Property: Mass density, kg/m3 (Liquid); method: VIBTUB:UFactor:16
Temperature, K	Mole fraction of 1,3-dimethylimidazolium methylsulfate	Mass density, kg/m3	uncertainty
293.15	0	900.5	1.1
293.15	0.8549	1296.6	3.4
293.15	0.8746	1301.1	3.5
293.15	0.9072	1308.3	3.6
293.15	0.9294	1313.3	3.7
293.15	0.9491	1317.7	3.8
293.15	1	1330.9	4
298.15	0	894.4	1.2
298.15	0.8549	1293	3.3
298.15	0.8746	1297.5	3.4
298.15	0.9072	1304.7	3.6
298.15	0.9294	1309.8	3.6
298.15	0.9491	1314.2	3.7
298.15	1	1327.2	4
303.15	0	888.2	1.2
303.15	0.8549	1289.3	3.3
303.15	0.8746	1293.8	3.4
303.15	0.9072	1301	3.5
303.15	0.9294	1306.2	3.6
303.15	0.9491	1310.7	3.7
303.15	1	1323.7	3.9

System: propan-2-ol + 1,3-dimethylimidazolium methylsulfate; phases: Liquid
Fixed: Pressure, kPa = 101
Property: Refractive index (Na D-line) (Liquid); method: ABBE:UFactor:2
Temperature, K	Mole fraction of 1,3-dimethylimidazolium methylsulfate	Refractive index (Na D-line)	uncertainty
293.15	0	1.37707	0.00075
293.15	0.049	1.38865	0.00075
293.15	0.0981	1.39897	0.00067
293.15	0.1987	1.41695	0.00064
293.15	0.2961	1.43085	0.00065
293.15	0.4055	1.44372	0.00066
293.15	0.5043	1.45335	0.00068
293.15	0.5987	1.46137	0.00069
293.15	0.6937	1.46768	0.00072
293.15	0.7992	1.47404	0.00073
293.15	0.9042	1.47881	0.00077
293.15	0.9502	1.48087	0.00079
293.15	1	1.48392	0.00078
298.15	0	1.37496	0.00076
298.15	0.049	1.38617	0.00079
298.15	0.0981	1.39708	0.00074
298.15	0.1987	1.41521	0.00068
298.15	0.2961	1.42948	0.00067
298.15	0.4055	1.44245	0.00069
298.15	0.5043	1.45208	0.00071
298.15	0.5987	1.46001	0.00074
298.15	0.6937	1.46641	0.00074
298.15	0.7992	1.4725	0.00076
298.15	0.9042	1.47743	0.00077
298.15	0.9502	1.4796	0.00078
298.15	1	1.4827	0.00078
303.15	0	1.37278	0.00076
303.15	0.049	1.38391	0.00077
303.15	0.0981	1.39509	0.00083
303.15	0.1987	1.41455	0.00077
303.15	0.2961	1.42882	0.00072
303.15	0.4055	1.44156	0.00074
303.15	0.5043	1.45073	0.00075
303.15	0.5987	1.45836	0.00079
303.15	0.6937	1.46482	0.00078
303.15	0.7992	1.47103	0.0008
303.15	0.9042	1.47603	0.00077
303.15	0.9502	1.4782	0.00076
303.15	1	1.48129	0.00079

System: propan-2-ol + 1,3-dimethylimidazolium methylsulfate; phases: Liquid
Fixed: Pressure, kPa = 101
Property: Speed of sound, m/s (Liquid); method: FPINT:UFactor:8
Temperature, K	Mole fraction of 1,3-dimethylimidazolium methylsulfate	Speed of sound, m/s	uncertainty
293.15	0	1156	5
293.15	0.049	1177	5
293.15	0.0981	1205	5
293.15	0.1987	1269	5
293.15	0.2961	1338	5
293.15	0.4055	1431	6
293.15	0.5043	1525	6
293.15	0.5987	1611	6
293.15	0.6937	1684	7
293.15	0.7992	1743	7
293.15	0.9042	1791	7
293.15	0.9502	1807	7
293.15	1	1826	7
298.15	0	1139	5
298.15	0.049	1167	5
298.15	0.0981	1198	5
298.15	0.1987	1271	5
298.15	0.2961	1352	6
298.15	0.4055	1444	6
298.15	0.5043	1534	6
298.15	0.5987	1605	6
298.15	0.6937	1670	7
298.15	0.7992	1729	7
298.15	0.9042	1777	7
298.15	0.9502	1797	7
298.15	1	1813	7
303.15	0	1121	5
303.15	0.049	1166	5
303.15	0.0981	1207	5
303.15	0.1987	1292	5
303.15	0.2961	1370	6
303.15	0.4055	1459	6
303.15	0.5043	1534	6
303.15	0.5987	1602	6
303.15	0.6937	1662	7
303.15	0.7992	1720	7
303.15	0.9042	1768	7
303.15	0.9502	1785	7
303.15	1	1801	7

System: propan-2-ol + 1,3-dimethylimidazolium methylsulfate; phases: Liquid
Fixed: Pressure, kPa = 101
Property: Mass density, kg/m3 (Liquid); method: VIBTUB:UFactor:16
Temperature, K	Mole fraction of 1,3-dimethylimidazolium methylsulfate	Mass density, kg/m3	uncertainty
293.15	0	785	1.9
293.15	0.049	839.7	1.5
293.15	0.0981	888.8	1.2
293.15	0.1987	975.7	0.7
293.15	0.2961	1045.8	0.9
293.15	0.4055	1112	1.4
293.15	0.5043	1162.4	1.9
293.15	0.5987	1204	2.3
293.15	0.6937	1239.9	2.7
293.15	0.7992	1274.2	3.1
293.15	0.9042	1304.8	3.6
293.15	0.9502	1317.5	3.8
293.15	1	1330.9	4
298.15	0	781	1.9
298.15	0.049	835.9	1.6
298.15	0.0981	884.8	1.3
298.15	0.1987	971.8	0.8
298.15	0.2961	1042	0.9
298.15	0.4055	1108.5	1.4
298.15	0.5043	1159	1.9
298.15	0.5987	1200.3	2.2
298.15	0.6937	1236.3	2.6
298.15	0.7992	1270.7	3.1
298.15	0.9042	1301.4	3.5
298.15	0.9502	1314	3.7
298.15	1	1327.2	4
303.15	0	776.6	1.9
303.15	0.049	831.6	1.6
303.15	0.0981	880.8	1.3
303.15	0.1987	967.9	0.8
303.15	0.2961	1038.3	0.9
303.15	0.4055	1104.7	1.4
303.15	0.5043	1155	1.8
303.15	0.5987	1196.7	2.2
303.15	0.6937	1232.7	2.6
303.15	0.7992	1267.4	3.1
303.15	0.9042	1297.9	3.5
303.15	0.9502	1310.4	3.7
303.15	1	1323.7	3.9
