Measured thermophysical data. Density and Viscosity of Binary Mixtures of Diethyl Carbonate with Alcohols at (293.15 to 363.15) K and Predictive Results by UNIFAC-VISCO Group Contribution Method
Source: J. Chem. Eng. Data, 2006, 10.1021/je0600808
Compound 1: diethyl carbonate, C5H10O3, InChI=1S/C5H10O3/c1-3-7-5(6)8-4-2/h3-4H2,1-2H3
Compound 2: propan-1-ol, C3H8O, InChI=1S/C3H8O/c1-2-3-4/h4H,2-3H2,1H3
Compound 3: butan-1-ol, C4H10O, InChI=1S/C4H10O/c1-2-3-4-5/h5H,2-4H2,1H3
Compound 4: pentan-1-ol, C5H12O, InChI=1S/C5H12O/c1-2-3-4-5-6/h6H,2-5H2,1H3

System: diethyl carbonate; phases: Liquid
Fixed: Pressure, kPa = 101.325
Property: Viscosity, Pa*s (Liquid); method: CAPTUB:UFactor:2
Temperature, K	Viscosity, Pa*s	uncertainty
293.15	0.0008	1.1e-05
298.15	0.000746	1.1e-05
303.15	0.000695	1e-05
313.15	0.00061	1e-05
323.15	0.000541	9e-06
333.15	0.000483	9e-06
343.15	0.000435	8e-06
353.15	0.000393	8e-06
363.15	0.000358	8e-06

System: diethyl carbonate; phases: Liquid
Fixed: Pressure, kPa = 101.325
Property: Mass density, kg/m3 (Liquid); method: VIBTUB:UFactor:32
Temperature, K	Mass density, kg/m3	uncertainty
293.15	975	1.33
298.15	968.97	1.41
303.15	962.39	1.49
313.15	952.32	1.62
323.15	939.78	1.78
333.15	928.69	1.92
343.15	916.33	2.08
353.15	905.02	2.23
363.15	893.71	2.38

System: propan-1-ol; phases: Liquid
Fixed: Pressure, kPa = 101.325
Property: Viscosity, Pa*s (Liquid); method: CAPTUB:UFactor:2
Temperature, K	Viscosity, Pa*s	uncertainty
293.15	0.002238	2.6e-05
298.15	0.001981	2.3e-05
303.15	0.001745	2.1e-05
313.15	0.001381	1.7e-05
323.15	0.001115	1.4e-05
333.15	0.000907	1.2e-05
343.15	0.000742	1.1e-05
353.15	0.000615	1e-05
363.15	0.000515	9e-06

System: propan-1-ol; phases: Liquid
Fixed: Pressure, kPa = 101.325
Property: Mass density, kg/m3 (Liquid); method: VIBTUB:UFactor:16
Temperature, K	Mass density, kg/m3	uncertainty
293.15	803.62	1.76
298.15	799.41	1.78
303.15	795.27	1.81
313.15	786.62	1.87
323.15	773.91	1.95
333.15	767.31	1.99
343.15	755.95	2.07
353.15	748.41	2.12
363.15	739.7	2.18

System: butan-1-ol; phases: Liquid
Fixed: Pressure, kPa = 101.325
Property: Viscosity, Pa*s (Liquid); method: CAPTUB:UFactor:2
Temperature, K	Viscosity, Pa*s	uncertainty
293.15	0.002963	3.5e-05
298.15	0.002619	3.1e-05
303.15	0.002298	2.7e-05
313.15	0.001786	2.2e-05
323.15	0.001421	1.8e-05
333.15	0.001137	1.5e-05
343.15	0.00092	1.3e-05
353.15	0.000759	1.1e-05
363.15	0.00063	1e-05

System: butan-1-ol; phases: Liquid
Fixed: Pressure, kPa = 101.325
Property: Mass density, kg/m3 (Liquid); method: VIBTUB:UFactor:32
Temperature, K	Mass density, kg/m3	uncertainty
293.15	809.82	3.43
298.15	806.06	3.48
303.15	802.03	3.53
313.15	793.29	3.64
323.15	786.55	3.73
333.15	777.81	3.85
343.15	767.03	3.99
353.15	757.52	4.12
363.15	749.38	4.23

System: pentan-1-ol; phases: Liquid
Fixed: Pressure, kPa = 101.325
Property: Viscosity, Pa*s (Liquid); method: CAPTUB:UFactor:2
Temperature, K	Viscosity, Pa*s	uncertainty
293.15	0.004117	4.9e-05
298.15	0.003556	4.3e-05
303.15	0.00306	3.7e-05
313.15	0.002332	2.9e-05
323.15	0.001822	2.3e-05
333.15	0.00144	1.8e-05
343.15	0.001146	1.5e-05
353.15	0.000931	1.3e-05
363.15	0.000767	1.1e-05

System: pentan-1-ol; phases: Liquid
Fixed: Pressure, kPa = 101.325
Property: Mass density, kg/m3 (Liquid); method: VIBTUB:UFactor:16
Temperature, K	Mass density, kg/m3	uncertainty
293.15	814.51	1.72
298.15	810.73	1.74
303.15	806.77	1.77
313.15	799.05	1.82
323.15	789.81	1.88
333.15	781.81	1.93
343.15	772.84	1.98
353.15	764.79	2.04
363.15	757.17	2.09

System: propan-1-ol + diethyl carbonate; phases: Liquid
Fixed: Pressure, kPa = 101
Property: Viscosity, Pa*s (Liquid); method: CAPTUB:UFactor:2
Temperature, K	Mole fraction of diethyl carbonate	Viscosity, Pa*s	uncertainty
293.15	0.0993	0.001668	2e-05
293.15	0.2003	0.001347	1.6e-05
293.15	0.3011	0.001147	1.4e-05
298.15	0.0993	0.00149	1.8e-05
298.15	0.2003	0.001211	1.5e-05
298.15	0.3011	0.001037	1.3e-05
303.15	0.0993	0.001328	1.6e-05
303.15	0.2003	0.001089	1.4e-05
303.15	0.3011	0.000938	1.2e-05
313.15	0.0993	0.001073	1.4e-05
313.15	0.2003	0.000896	1.2e-05
313.15	0.3011	0.000783	1.1e-05
323.15	0.0993	0.000887	1.2e-05
323.15	0.2003	0.000751	1.1e-05
323.15	0.3011	0.000666	1e-05
333.15	0.0993	0.000739	1.1e-05
333.15	0.2003	0.000636	1e-05
333.15	0.3011	0.000572	9e-06
343.15	0.0993	0.000618	1e-05
343.15	0.2003	0.000542	9e-06
343.15	0.3011	0.000493	9e-06
353.15	0.0993	0.000524	9e-06
353.15	0.2003	0.000466	9e-06
353.15	0.3011	0.00043	8e-06
363.15	0.0993	0.000448	8e-06
363.15	0.2003	0.000405	8e-06
363.15	0.3011	0.000378	8e-06

System: propan-1-ol + diethyl carbonate; phases: Liquid
Fixed: Pressure, kPa = 101
Property: Mass density, kg/m3 (Liquid); method: VIBTUB:UFactor:16
Temperature, K	Mole fraction of diethyl carbonate	Mass density, kg/m3	uncertainty
293.15	0.0993	829.06	1.58
293.15	0.2003	852	1.43
293.15	0.3011	872.49	1.31
298.15	0.0993	824.24	1.61
298.15	0.2003	846.98	1.47
298.15	0.3011	867.35	1.34
303.15	0.0993	819.57	1.63
303.15	0.2003	841.86	1.5
303.15	0.3011	861.83	1.37
313.15	0.0993	810.34	1.69
313.15	0.2003	832.49	1.55
313.15	0.3011	852.34	1.43
323.15	0.0993	798.04	1.77
323.15	0.2003	819.74	1.63
323.15	0.3011	839.43	1.51
333.15	0.0993	790.59	1.81
333.15	0.2003	811.83	1.68
333.15	0.3011	831	1.57
343.15	0.0993	778.86	1.89
343.15	0.2003	799.8	1.76
343.15	0.3011	818.79	1.64
353.15	0.0993	770.55	1.94
353.15	0.2003	790.85	1.82
353.15	0.3011	809.27	1.7
363.15	0.0993	761.19	2
363.15	0.2003	780.98	1.88
363.15	0.3011	799	1.77

System: butan-1-ol + diethyl carbonate; phases: Liquid
Fixed: Pressure, kPa = 101
Property: Viscosity, Pa*s (Liquid); method: CAPTUB:UFactor:2
Temperature, K	Mole fraction of diethyl carbonate	Viscosity, Pa*s	uncertainty
293.15	0.1016	0.002161	2.6e-05
293.15	0.2023	0.001681	2e-05
293.15	0.2974	0.00138	2e-05
298.15	0.1016	0.001909	2.3e-05
298.15	0.2023	0.001504	1.8e-05
298.15	0.2974	0.001254	1.6e-05
303.15	0.1016	0.001685	2e-05
303.15	0.2023	0.001339	1.7e-05
303.15	0.2974	0.00113	1.4e-05
313.15	0.1016	0.001345	1.7e-05
313.15	0.2023	0.001091	1.4e-05
313.15	0.2974	0.000932	1.3e-05
323.15	0.1016	0.001097	1.4e-05
323.15	0.2023	0.000906	1.2e-05
323.15	0.2974	0.000785	1.1e-05
333.15	0.1016	0.000904	1.2e-05
333.15	0.2023	0.000761	1.1e-05
333.15	0.2974	0.000668	1e-05
343.15	0.1016	0.000749	1.1e-05
343.15	0.2023	0.000642	1e-05
343.15	0.2974	0.000572	9e-06
353.15	0.1016	0.00063	1e-05
353.15	0.2023	0.000549	9e-06
353.15	0.2974	0.000496	9e-06
363.15	0.1016	0.000536	9e-06
363.15	0.2023	0.000475	9e-06
363.15	0.2974	0.000434	8e-06

System: butan-1-ol + diethyl carbonate; phases: Liquid
Fixed: Pressure, kPa = 101
Property: Mass density, kg/m3 (Liquid); method: VIBTUB:UFactor:16
Temperature, K	Mole fraction of diethyl carbonate	Mass density, kg/m3	uncertainty
293.15	0.1016	830.56	1.58
293.15	0.2023	849.89	1.46
293.15	0.2974	867.23	1.36
298.15	0.1016	826.34	1.61
298.15	0.2023	845.4	1.49
298.15	0.2974	862.6	1.39
303.15	0.1016	821.75	1.64
303.15	0.2023	840.53	1.52
303.15	0.2974	857.48	1.42
313.15	0.1016	812.55	1.69
313.15	0.2023	831.22	1.58
313.15	0.2974	847.88	1.47
323.15	0.1016	804.95	1.74
323.15	0.2023	822.83	1.63
323.15	0.2974	838.91	1.53
333.15	0.1016	795.85	1.8
333.15	0.2023	813.37	1.69
333.15	0.2974	829.07	1.59
343.15	0.1016	784.94	1.86
343.15	0.2023	802.09	1.76
343.15	0.2974	817.6	1.66
353.15	0.1016	775.15	1.92
353.15	0.2023	792.01	1.82
353.15	0.2974	807.21	1.73
363.15	0.1016	766.42	1.98
363.15	0.2023	782.78	1.88
363.15	0.2974	797.61	1.79

System: pentan-1-ol + diethyl carbonate; phases: Liquid
Fixed: Pressure, kPa = 101
Property: Viscosity, Pa*s (Liquid); method: CAPTUB:UFactor:2
Temperature, K	Mole fraction of diethyl carbonate	Viscosity, Pa*s	uncertainty
293.15	0.1016	0.002879	3.5e-05
293.15	0.2056	0.002155	2.6e-05
293.15	0.2991	0.001735	2.1e-05
298.15	0.1016	0.002522	3.1e-05
298.15	0.2056	0.001907	2.3e-05
298.15	0.2991	0.001549	1.9e-05
303.15	0.1016	0.002206	2.7e-05
303.15	0.2056	0.00169	2.1e-05
303.15	0.2991	0.001386	1.7e-05
313.15	0.1016	0.001723	2.1e-05
313.15	0.2056	0.001351	1.7e-05
313.15	0.2991	0.001132	1.5e-05
323.15	0.1016	0.001383	1.7e-05
323.15	0.2056	0.001109	1.4e-05
323.15	0.2991	0.000939	1.3e-05
333.15	0.1016	0.001122	1.5e-05
333.15	0.2056	0.000918	1.3e-05
333.15	0.2991	0.00079	1.1e-05
343.15	0.1016	0.000919	1.3e-05
343.15	0.2056	0.000766	1.1e-05
343.15	0.2991	0.00067	1e-05
353.15	0.1016	0.000764	1.1e-05
353.15	0.2056	0.00065	1e-05
353.15	0.2991	0.000576	1e-05
363.15	0.1016	0.000644	1e-05
363.15	0.2056	0.000557	9e-06
363.15	0.2991	0.000501	9e-06

System: pentan-1-ol + diethyl carbonate; phases: Liquid
Fixed: Pressure, kPa = 101
Property: Mass density, kg/m3 (Liquid); method: VIBTUB:UFactor:16
Temperature, K	Mole fraction of diethyl carbonate	Mass density, kg/m3	uncertainty
293.15	0.1016	831.8	1.59
293.15	0.2056	849.16	1.48
293.15	0.2991	864.58	1.39
298.15	0.1016	827.59	1.62
298.15	0.2056	844.75	1.51
298.15	0.2991	859.91	1.41
303.15	0.1016	823.06	1.64
303.15	0.2056	840.03	1.54
303.15	0.2991	854.97	1.44
313.15	0.1016	814.72	1.69
313.15	0.2056	831.26	1.59
313.15	0.2991	845.78	1.5
323.15	0.1016	805.16	1.75
323.15	0.2056	821.48	1.65
323.15	0.2991	835.87	1.56
333.15	0.1016	796.72	1.8
333.15	0.2056	812.44	1.7
333.15	0.2991	826.67	1.61
343.15	0.1016	787.31	1.86
343.15	0.2056	802.62	1.76
343.15	0.2991	816.48	1.68
353.15	0.1016	778.85	1.91
353.15	0.2056	793.74	1.82
353.15	0.2991	807.26	1.73
363.15	0.1016	770.78	1.96
363.15	0.2056	785.19	1.87
363.15	0.2991	798.3	1.79
