Measured thermophysical data. Vapor-Liquid Equilibria at 101.3 kPa for Binary Mixtures Containing 2-Methyl-1-propanol + 2-Methyl-1-butanol, 2-Methyl-1-propanol + 3-Methyl-1-butanol, and 2-Methyl-1-propanol + 1-Pentanol
Source: J. Chem. Eng. Data, 2006, 10.1021/je060238o
Compound 1: 2-methyl-1-propanol, C4H10O, InChI=1S/C4H10O/c1-4(2)3-5/h4-5H,3H2,1-2H3
Compound 2: 2-methyl-1-butanol, C5H12O, InChI=1S/C5H12O/c1-3-5(2)4-6/h5-6H,3-4H2,1-2H3
Compound 3: 3-methylbutan-1-ol, C5H12O, InChI=1S/C5H12O/c1-5(2)3-4-6/h5-6H,3-4H2,1-2H3
Compound 4: pentan-1-ol, C5H12O, InChI=1S/C5H12O/c1-2-3-4-5-6/h6H,2-5H2,1H3

System: 2-methyl-1-propanol; phases: Liquid, Gas
Property: Normal boiling temperature, K (Liquid); method: Ebulliometric method (Recirculating still)
Normal boiling temperature, K	uncertainty
381	0.3

System: 2-methyl-1-propanol; phases: Liquid
Property: Refractive index (Na D-line) (Liquid); method: Standard Abbe refractometry
Temperature, K	Pressure, kPa	Refractive index (Na D-line)	uncertainty
298.15	101.325	1.3937	0.00033

System: 2-methyl-1-propanol; phases: Liquid
Property: Mass density, kg/m3 (Liquid); method: VIBTUB:UFactor:2
Temperature, K	Pressure, kPa	Mass density, kg/m3	uncertainty
298.15	101.325	797.84	0.3

System: 2-methyl-1-butanol; phases: Liquid, Gas
Property: Normal boiling temperature, K (Liquid); method: Ebulliometric method (Recirculating still)
Normal boiling temperature, K	uncertainty
401.93	0.3

System: 2-methyl-1-butanol; phases: Liquid
Property: Refractive index (Na D-line) (Liquid); method: Standard Abbe refractometry
Temperature, K	Pressure, kPa	Refractive index (Na D-line)	uncertainty
298.15	101.325	1.40872	0.00032

System: 2-methyl-1-butanol; phases: Liquid
Property: Mass density, kg/m3 (Liquid); method: VIBTUB:UFactor:2
Temperature, K	Pressure, kPa	Mass density, kg/m3	uncertainty
298.15	101.325	814.87	0.27

System: 3-methylbutan-1-ol; phases: Liquid, Gas
Property: Normal boiling temperature, K (Liquid); method: Ebulliometric method (Recirculating still)
Normal boiling temperature, K	uncertainty
404.27	0.3

System: 3-methylbutan-1-ol; phases: Liquid
Property: Refractive index (Na D-line) (Liquid); method: Standard Abbe refractometry
Temperature, K	Pressure, kPa	Refractive index (Na D-line)	uncertainty
298.15	101.325	1.40515	0.00032

System: 3-methylbutan-1-ol; phases: Liquid
Property: Mass density, kg/m3 (Liquid); method: VIBTUB:UFactor:2
Temperature, K	Pressure, kPa	Mass density, kg/m3	uncertainty
298.15	101.325	806.78	0.27

System: pentan-1-ol; phases: Liquid, Gas
Property: Normal boiling temperature, K (Liquid); method: Ebulliometric method (Recirculating still)
Normal boiling temperature, K	uncertainty
410.85	0.3

System: pentan-1-ol; phases: Liquid
Property: Refractive index (Na D-line) (Liquid); method: Standard Abbe refractometry
Temperature, K	Pressure, kPa	Refractive index (Na D-line)	uncertainty
298.15	101.325	1.4077	0.00032

System: pentan-1-ol; phases: Liquid
Property: Mass density, kg/m3 (Liquid); method: VIBTUB:UFactor:2
Temperature, K	Pressure, kPa	Mass density, kg/m3	uncertainty
298.15	101.325	810.96	0.27

System: 2-methyl-1-propanol + 2-methyl-1-butanol; phases: Liquid
Fixed: Temperature, K = 298.15
Fixed: Pressure, kPa = 101
Property: Refractive index (Na D-line) (Liquid); method: Standard Abbe refractometry
Mole fraction of 2-methyl-1-propanol	Refractive index (Na D-line)	uncertainty
0.051	1.40802	0.00032
0.101	1.40742	0.00032
0.151	1.40674	0.00032
0.2	1.40606	0.00032
0.25	1.40538	0.00032
0.3	1.40466	0.00032
0.35	1.40397	0.00032
0.401	1.40328	0.00032
0.45	1.40252	0.00032
0.5	1.40178	0.00032
0.549	1.40107	0.00032
0.599	1.40029	0.00033
0.65	1.39946	0.00033
0.701	1.39866	0.00033
0.749	1.3979	0.00033
0.8	1.39706	0.00033
0.85	1.3962	0.00033
0.899	1.39533	0.00033
0.95	1.3945	0.00033

System: 2-methyl-1-propanol + 2-methyl-1-butanol; phases: Liquid, Gas
Fixed: Pressure, kPa = 101.3
Property: Boiling temperature at pressure P, K (Liquid); method: EBULLIO:UFactor:4
Mole fraction of 2-methyl-1-propanol	Boiling temperature at pressure P, K	uncertainty
0.06	400.18	0.35
0.111	398.73	0.35
0.155	397.23	0.35
0.201	395.63	0.35
0.251	394.26	0.35
0.276	393.43	0.34
0.297	393.11	0.34
0.322	392.66	0.34
0.352	392.18	0.34
0.394	391.35	0.34
0.511	389.42	0.34
0.543	388.65	0.34
0.606	387.44	0.34
0.653	386.61	0.34
0.697	385.75	0.34
0.735	385.07	0.34
0.793	384.07	0.34
0.842	383.3	0.34
0.897	382.55	0.34
0.962	381.52	0.34
0.976	381.23	0.34

System: 2-methyl-1-propanol + 2-methyl-1-butanol; phases: Liquid
Fixed: Pressure, kPa = 101
Fixed: Temperature, K = 298.15
Property: Mass density, kg/m3 (Liquid); method: VIBTUB:UFactor:2
Mole fraction of 2-methyl-1-propanol	Mass density, kg/m3	uncertainty
0.051	814.19	0.27
0.101	813.53	0.27
0.151	812.85	0.27
0.2	812.17	0.27
0.25	811.49	0.27
0.3	810.75	0.28
0.35	810.03	0.28
0.401	809.29	0.28
0.45	808.55	0.28
0.5	807.79	0.28
0.549	807.02	0.28
0.599	806.25	0.29
0.65	805.45	0.29
0.701	804.63	0.29
0.749	803.86	0.29
0.8	803	0.29
0.85	802.17	0.29
0.899	801.17	0.3
0.95	800.1	0.3

System: 2-methyl-1-propanol + 2-methyl-1-butanol; phases: Gas, Liquid
Fixed: Pressure, kPa = 101.3
Property: Mole fraction of 2-methyl-1-propanol (Gas); method: Density calibration data
Mole fraction of 2-methyl-1-propanol	Mole fraction of 2-methyl-1-propanol	uncertainty
0.06	0.119	0.02
0.111	0.204	0.02
0.155	0.284	0.02
0.201	0.35	0.02
0.251	0.416	0.02
0.276	0.451	0.02
0.297	0.461	0.02
0.322	0.503	0.02
0.352	0.525	0.02
0.394	0.579	0.02
0.511	0.686	0.02
0.543	0.708	0.02
0.606	0.756	0.02
0.653	0.793	0.02
0.697	0.823	0.02
0.735	0.852	0.02
0.793	0.891	0.02
0.842	0.925	0.02
0.897	0.951	0.02
0.962	0.983	0.017
0.976	0.989	0.011

System: 2-methyl-1-propanol + 3-methylbutan-1-ol; phases: Liquid
Fixed: Temperature, K = 298.15
Fixed: Pressure, kPa = 101
Property: Refractive index (Na D-line) (Liquid); method: Standard Abbe refractometry
Mole fraction of 2-methyl-1-propanol	Refractive index (Na D-line)	uncertainty
0.051	1.40469	0.00032
0.099	1.40418	0.00032
0.15	1.40371	0.00032
0.199	1.40318	0.00032
0.254	1.4026	0.00032
0.3	1.40212	0.00032
0.35	1.40161	0.00032
0.4	1.40109	0.00032
0.445	1.4006	0.00032
0.5	1.39997	0.00032
0.549	1.3994	0.00032
0.6	1.39879	0.00032
0.65	1.39821	0.00032
0.7	1.39764	0.00032
0.751	1.39701	0.00033
0.799	1.39636	0.00033
0.849	1.39567	0.00033
0.899	1.395	0.00033
0.95	1.39435	0.00033

System: 2-methyl-1-propanol + 3-methylbutan-1-ol; phases: Liquid, Gas
Fixed: Pressure, kPa = 101.3
Property: Boiling temperature at pressure P, K (Liquid); method: EBULLIO:UFactor:4
Mole fraction of 2-methyl-1-propanol	Boiling temperature at pressure P, K	uncertainty
0.056	402.33	0.35
0.103	400.73	0.35
0.305	395.19	0.34
0.328	394.73	0.35
0.357	393.77	0.35
0.385	393.05	0.35
0.408	392.41	0.34
0.447	391.51	0.34
0.482	390.74	0.34
0.516	390.22	0.34
0.54	389.51	0.34
0.574	388.88	0.34
0.594	388.43	0.34
0.633	387.87	0.34
0.647	387.39	0.35
0.69	386.27	0.34
0.746	385.18	0.34
0.787	384.51	0.34
0.839	383.6	0.34
0.885	382.8	0.34
0.914	382.33	0.34

System: 2-methyl-1-propanol + 3-methylbutan-1-ol; phases: Liquid
Fixed: Pressure, kPa = 101
Fixed: Temperature, K = 298.15
Property: Mass density, kg/m3 (Liquid); method: VIBTUB:UFactor:4
Mole fraction of 2-methyl-1-propanol	Mass density, kg/m3	uncertainty
0.051	805.95	0.46
0.099	805.61	0.46
0.15	805.25	0.46
0.199	804.88	0.46
0.254	804.48	0.46
0.3	804.15	0.46
0.35	803.77	0.47
0.4	803.39	0.47
0.445	803.05	0.47
0.5	802.62	0.47
0.549	802.23	0.47
0.6	801.83	0.47
0.65	801.42	0.47
0.7	800.64	0.48
0.751	800.19	0.48
0.799	799.74	0.48
0.849	799.27	0.48
0.899	798.8	0.48
0.95	798.31	0.48

System: 2-methyl-1-propanol + 3-methylbutan-1-ol; phases: Gas, Liquid
Fixed: Pressure, kPa = 101.3
Property: Mole fraction of 2-methyl-1-propanol (Gas); method: Density calibration data
Mole fraction of 2-methyl-1-propanol	Mole fraction of 2-methyl-1-propanol	uncertainty
0.056	0.12	0.02
0.103	0.209	0.02
0.305	0.49	0.02
0.328	0.515	0.02
0.357	0.561	0.02
0.385	0.598	0.02
0.408	0.622	0.02
0.447	0.657	0.02
0.482	0.682	0.02
0.516	0.7	0.02
0.54	0.727	0.02
0.574	0.753	0.02
0.594	0.765	0.02
0.633	0.789	0.02
0.647	0.808	0.02
0.69	0.837	0.02
0.746	0.873	0.02
0.787	0.9	0.02
0.839	0.925	0.02
0.885	0.952	0.02
0.914	0.963	0.02

System: pentan-1-ol + 2-methyl-1-propanol; phases: Liquid
Fixed: Temperature, K = 298.15
Fixed: Pressure, kPa = 101
Property: Refractive index (Na D-line) (Liquid); method: Standard Abbe refractometry
Mole fraction of 2-methyl-1-propanol	Refractive index (Na D-line)	uncertainty
0.05	1.4071	0.00032
0.1	1.4065	0.00032
0.15	1.40588	0.00032
0.2	1.40524	0.00032
0.249	1.4046	0.00032
0.299	1.40394	0.00032
0.35	1.40326	0.00032
0.4	1.40259	0.00032
0.45	1.40193	0.00032
0.499	1.40124	0.00032
0.549	1.40055	0.00032
0.6	1.39983	0.00032
0.65	1.3991	0.00033
0.699	1.39834	0.00033
0.75	1.39758	0.00033
0.8	1.39683	0.00033
0.85	1.39604	0.00033
0.9	1.39524	0.00033
0.95	1.39447	0.00033

System: pentan-1-ol + 2-methyl-1-propanol; phases: Liquid, Gas
Fixed: Pressure, kPa = 101.3
Property: Boiling temperature at pressure P, K (Liquid); method: EBULLIO:UFactor:6
Mole fraction of 2-methyl-1-propanol	Boiling temperature at pressure P, K	uncertainty
0.033	409.1	0.52
0.077	407.16	0.52
0.118	405.35	0.52
0.165	403.6	0.52
0.218	401.45	0.52
0.27	399.87	0.52
0.293	398.85	0.52
0.327	397.6	0.52
0.356	396.64	0.51
0.383	395.89	0.52
0.405	394.94	0.51
0.446	393.87	0.51
0.471	393.07	0.51
0.503	392.28	0.51
0.517	391.92	0.51
0.546	391.13	0.51
0.658	388.36	0.51
0.759	385.66	0.51
0.869	383.48	0.51
0.917	382.53	0.51

System: pentan-1-ol + 2-methyl-1-propanol; phases: Liquid
Fixed: Pressure, kPa = 101
Fixed: Temperature, K = 298.15
Property: Mass density, kg/m3 (Liquid); method: VIBTUB:UFactor:2
Mole fraction of 2-methyl-1-propanol	Mass density, kg/m3	uncertainty
0.05	810.3	0.27
0.1	809.7	0.27
0.15	809.09	0.27
0.2	808.51	0.27
0.249	807.94	0.28
0.299	807.34	0.28
0.35	806.75	0.28
0.4	806.13	0.28
0.45	805.53	0.28
0.499	804.9	0.28
0.549	804.29	0.28
0.6	803.64	0.29
0.65	803.01	0.29
0.699	802.41	0.29
0.75	801.73	0.29
0.8	801.07	0.29
0.85	800.39	0.29
0.9	799.67	0.3
0.95	798.84	0.3

System: pentan-1-ol + 2-methyl-1-propanol; phases: Gas, Liquid
Fixed: Pressure, kPa = 101.3
Property: Mole fraction of 2-methyl-1-propanol (Gas); method: Density calibration data
Mole fraction of 2-methyl-1-propanol	Mole fraction of 2-methyl-1-propanol	uncertainty
0.033	0.091	0.02
0.077	0.189	0.02
0.118	0.27	0.02
0.165	0.344	0.02
0.218	0.431	0.02
0.27	0.496	0.02
0.293	0.528	0.02
0.327	0.581	0.02
0.356	0.605	0.02
0.383	0.636	0.02
0.405	0.668	0.02
0.446	0.696	0.02
0.471	0.718	0.02
0.503	0.739	0.02
0.517	0.75	0.02
0.546	0.768	0.02
0.658	0.847	0.02
0.759	0.907	0.02
0.869	0.956	0.02
0.917	0.975	0.02
