Measured thermophysical data. Experimental Vapor-Liquid Equilibria for the Carbon Dioxide + Octane and Carbon Dioxide + Decane Systems
Source: J. Chem. Eng. Data, 2006, 10.1021/je060111z
Compound 1: octane, C8H18, InChI=1S/C8H18/c1-3-5-7-8-6-4-2/h3-8H2,1-2H3
Compound 2: decane, C10H22, InChI=1S/C10H22/c1-3-5-7-9-10-8-6-4-2/h3-10H2,1-2H3
Compound 3: carbon dioxide, CO2, InChI=1S/CO2/c2-1-3, purity 99.995%

System: octane + carbon dioxide; phases: Liquid, Gas
Property: Vapor or sublimation pressure, kPa (Liquid); method: CCELL:UFactor:8
Mole fraction of carbon dioxide	Temperature, K	Vapor or sublimation pressure, kPa	uncertainty
0.1422	348.25	2075	122
0.1784	322.39	2013	98
0.1848	372.53	3146	147
0.2552	372.53	4262	169
0.2852	348.25	4073	151
0.3123	372.53	5288	192
0.3546	322.39	3912	123
0.3561	372.53	6063	211
0.3672	348.25	5308	181
0.4051	372.53	7027	233
0.4736	348.25	6993	212
0.4745	372.53	8385	266
0.5179	372.53	9421	293
0.5616	322.39	5730	159
0.5669	372.53	10468	307
0.6136	348.25	9099	250
0.6226	372.53	11595	326
0.6574	322.39	6609	180
0.6827	348.25	9937	265
0.6868	372.53	12813	335
0.742	322.39	7446	197
0.7423	348.25	10704	278
0.7492	372.53	13275	334
0.7789	348.25	10981	291
0.8146	348.25	11460	284
0.8287	372.53	13772	345
0.8377	322.39	8167	211
0.8892	322.39	8529	219

System: octane + carbon dioxide; phases: Gas, Liquid
Property: Mole fraction of carbon dioxide (Gas); method: Chromatography
Mole fraction of carbon dioxide	Temperature, K	Mole fraction of carbon dioxide	uncertainty
0.1422	348.25	0.9846	0.0078
0.1784	322.39	0.9945	0.0055
0.1848	372.53	0.9749	0.0078
0.2552	372.53	0.9768	0.0078
0.2852	348.25	0.9874	0.0078
0.3123	372.53	0.9773	0.0078
0.3546	322.39	0.9952	0.0048
0.3561	372.53	0.9774	0.0078
0.3672	348.25	0.9878	0.0078
0.4051	372.53	0.9772	0.0078
0.4736	348.25	0.9862	0.0078
0.4745	372.53	0.9734	0.0078
0.5179	372.53	0.97	0.0078
0.5616	322.39	0.9945	0.0055
0.5669	372.53	0.9669	0.0078
0.6136	348.25	0.9821	0.0078
0.6226	372.53	0.962	0.0079
0.6574	322.39	0.9936	0.0064
0.6827	348.25	0.9782	0.0078
0.6868	372.53	0.949	0.0079
0.742	322.39	0.9921	0.0078
0.7423	348.25	0.9732	0.0079
0.7492	372.53	0.9394	0.0081
0.7789	348.25	0.9672	0.0079
0.8146	348.25	0.9577	0.0083
0.8287	372.53	0.9082	0.0084
0.8377	322.39	0.9885	0.0078
0.8892	322.39	0.986	0.0078

System: decane + carbon dioxide; phases: Liquid, Gas
Property: Vapor or sublimation pressure, kPa (Liquid); method: CCELL:UFactor:8
Mole fraction of carbon dioxide	Temperature, K	Vapor or sublimation pressure, kPa	uncertainty
0.2146	372.94	3241	166
0.2774	372.94	4401	183
0.3351	372.94	5484	205
0.3395	319.11	3485	131
0.3421	344.74	4585	177
0.3799	372.94	6407	225
0.3993	344.74	5517	182
0.4243	319.11	4549	146
0.4449	372.94	7699	255
0.4862	372.94	8702	293
0.4934	344.74	6892	206
0.5128	372.94	9420	275
0.5262	319.11	5678	166
0.5752	372.94	10400	305
0.5815	344.74	8183	239
0.6318	372.94	11894	346
0.6338	319.11	6874	190
0.6474	344.74	9445	273
0.6974	372.94	13213	366
0.7336	319.11	7880	202
0.7373	344.74	11009	295
0.745	372.94	14240	394
0.791	372.94	15298	400
0.8383	344.74	12134	310
0.8564	372.94	16060	409
0.8847	319.11	8509	214
0.8956	344.74	12654	321
0.924	319.11	8678	218
0.9731	319.11	8902	224

System: decane + carbon dioxide; phases: Gas, Liquid
Property: Mole fraction of carbon dioxide (Gas); method: Chromatography
Mole fraction of carbon dioxide	Temperature, K	Mole fraction of carbon dioxide	uncertainty
0.2146	372.94	0.9937	0.0063
0.2774	372.94	0.9935	0.0065
0.3351	372.94	0.9932	0.0068
0.3395	319.11	0.9991	0.0009
0.3421	344.74	0.9978	0.0022
0.3799	372.94	0.993	0.007
0.3993	344.74	0.9974	0.0026
0.4243	319.11	0.999	0.001
0.4449	372.94	0.9927	0.0073
0.4862	372.94	0.9917	0.0079
0.4934	344.74	0.997	0.003
0.5128	372.94	0.9903	0.0079
0.5262	319.11	0.9988	0.0012
0.5752	372.94	0.9876	0.0079
0.5815	344.74	0.996	0.004
0.6318	372.94	0.983	0.0079
0.6338	319.11	0.998	0.002
0.6474	344.74	0.9944	0.0056
0.6974	372.94	0.9783	0.0079
0.7336	319.11	0.9961	0.0039
0.7373	344.74	0.9883	0.0079
0.745	372.94	0.9711	0.008
0.791	372.94	0.9638	0.0085
0.8383	344.74	0.9733	0.008
0.8564	372.94	0.9271	0.009
0.8847	319.11	0.9926	0.0074
0.8956	344.74	0.9676	0.0079
0.924	319.11	0.9889	0.0079
0.9731	319.11	0.9868	0.0079
