Measured thermophysical data. Solubility of a-Carotene in Binary Solvents Formed by Some Hydrocarbons with 2,5,8-Trioxanonane, 2-Propanone, and Cyclohexanone
Source: J. Chem. Eng. Data, 2007, 10.1021/je060376d
Compound 1: 2,5,8-trioxanonane, C6H14O3, InChI=1S/C6H14O3/c1-7-3-5-9-6-4-8-2/h3-6H2,1-2H3, purity 99%
Compound 2: acetone, C3H6O, InChI=1S/C3H6O/c1-3(2)4/h1-2H3
Compound 3: cyclohexanone, C6H10O, InChI=1S/C6H10O/c7-6-4-2-1-3-5-6/h1-5H2, purity 99%
Compound 4: hex-1-ene, C6H12, InChI=1S/C6H12/c1-3-5-6-4-2/h3H,1,4-6H2,2H3, purity 99%
Compound 5: cyclohexane, C6H12, InChI=1S/C6H12/c1-2-4-6-5-3-1/h1-6H2, purity 99%
Compound 6: hexane, C6H14, InChI=1S/C6H14/c1-3-5-6-4-2/h3-6H2,1-2H3, purity 99.9%
Compound 7: toluene, C7H8, InChI=1S/C7H8/c1-7-5-3-2-4-6-7/h2-6H,1H3, purity 99%
Compound 8: .beta.-carotene, C40H56, InChI=1S/C40H56/c1-31(19-13-21-33(3)25-27-37-35(5)23-15-29-39(37,7)8)17-11-12-18-32(2)20-14-22-34(4)26-28-38-36(6)24-16-30-40(38,9)10/h11-14,17-22,25-28H,15-16,23-24,29-30H2,1-10H3/b12-11+,19-13+,20-14+,27-25+,28-26+,31-17+,32-18+,33-21+,34-22+, purity 95%

System: 2,5,8-trioxanonane; phases: Liquid
Property: Refractive index (Na D-line) (Liquid); method: Standard Abbe refractometry
Temperature, K	Pressure, kPa	Refractive index (Na D-line)	uncertainty
298.15	101.325	1.4057	0.0008

System: acetone; phases: Liquid
Property: Refractive index (Na D-line) (Liquid); method: Standard Abbe refractometry
Temperature, K	Pressure, kPa	Refractive index (Na D-line)	uncertainty
298.15	101.325	1.3562	0.0012

System: cyclohexanone; phases: Liquid
Property: Refractive index (Na D-line) (Liquid); method: Standard Abbe refractometry
Temperature, K	Pressure, kPa	Refractive index (Na D-line)	uncertainty
298.15	101.325	1.4498	0.0008

System: hex-1-ene; phases: Liquid
Property: Refractive index (Na D-line) (Liquid); method: Standard Abbe refractometry
Temperature, K	Pressure, kPa	Refractive index (Na D-line)	uncertainty
298.15	101.325	1.3853	0.0008

System: cyclohexane; phases: Liquid
Property: Refractive index (Na D-line) (Liquid); method: Standard Abbe refractometry
Temperature, K	Pressure, kPa	Refractive index (Na D-line)	uncertainty
298.15	101.325	1.4236	0.0008

System: hexane; phases: Liquid
Property: Refractive index (Na D-line) (Liquid); method: Standard Abbe refractometry
Temperature, K	Pressure, kPa	Refractive index (Na D-line)	uncertainty
298.15	101.325	1.3724	0.0007

System: toluene; phases: Liquid
Property: Refractive index (Na D-line) (Liquid); method: Standard Abbe refractometry
Temperature, K	Pressure, kPa	Refractive index (Na D-line)	uncertainty
298.15	101.325	1.4942	0.0008

System: cyclohexane + 2,5,8-trioxanonane + .beta.-carotene; phases: Liquid, Crystal
Fixed: Temperature, K = 293.15
Fixed: Pressure, kPa = 101
Property: Mole fraction of .beta.-carotene (Liquid); method: spectral colorimeter
Solvent: Mole fraction of cyclohexane	Mole fraction of .beta.-carotene	uncertainty
0	9.6e-05	1.2e-05
0.1013	0.000213	1.4e-05
0.2037	0.000343	3.8e-05
0.4036	0.000533	7.4e-05
0.4984	0.000582	4.8e-05
0.6007	0.000601	7e-05
0.7025	0.000565	6.2e-05
0.8133	0.000504	5.6e-05
1	0.000302	2.2e-05

System: hexane + 2,5,8-trioxanonane + .beta.-carotene; phases: Liquid, Crystal
Fixed: Temperature, K = 293.15
Fixed: Pressure, kPa = 101
Property: Mole fraction of .beta.-carotene (Liquid); method: spectral colorimeter
Solvent: Mole fraction of hexane	Mole fraction of .beta.-carotene	uncertainty
0	9.6e-05	1.2e-05
0.0956	0.000135	1.8e-05
0.2015	0.000218	3.6e-05
0.3014	0.00027	1.8e-05
0.3935	0.000251	1.4e-05
0.4997	0.000279	2.4e-05
0.5958	0.000312	3.8e-05
0.7003	0.000272	2.2e-05
0.8546	0.000237	1.4e-05
1	8.9e-05	1e-05

System: toluene + 2,5,8-trioxanonane + .beta.-carotene; phases: Liquid, Crystal
Fixed: Temperature, K = 293.15
Fixed: Pressure, kPa = 101
Property: Mole fraction of .beta.-carotene (Liquid); method: spectral colorimeter
Solvent: Mole fraction of toluene	Mole fraction of .beta.-carotene	uncertainty
0	9.6e-05	1.2e-05
0.1055	0.000136	3.2e-05
0.2015	0.000128	2.4e-05
0.3035	0.000145	1.6e-05
0.3969	0.000223	1.8e-05
0.5053	0.000329	5e-05
0.6032	0.000453	7.4e-05
0.6988	0.000608	3.3e-05
0.9018	0.001028	5.7e-05
1	0.001095	3.8e-05

System: 2,5,8-trioxanonane + hex-1-ene + .beta.-carotene; phases: Liquid, Crystal
Fixed: Temperature, K = 293.15
Fixed: Pressure, kPa = 101
Property: Mole fraction of .beta.-carotene (Liquid); method: spectral colorimeter
Solvent: Mole fraction of hex-1-ene	Mole fraction of .beta.-carotene	uncertainty
0	9.6e-05	1.2e-05
0.1032	0.00011	1.4e-05
0.2045	0.000159	2.2e-05
0.3013	0.000198	2.6e-05
0.3988	0.000235	2.2e-05
0.5029	0.000298	2.8e-05
0.6048	0.000315	1.2e-05
0.7024	0.000301	1.6e-05
0.8046	0.000289	1.1e-05
0.8966	0.00023	1e-05
1	0.000187	8e-06

System: acetone + hex-1-ene + .beta.-carotene; phases: Liquid, Crystal
Fixed: Temperature, K = 293.15
Fixed: Pressure, kPa = 101
Property: Mole fraction of .beta.-carotene (Liquid); method: spectral colorimeter
Solvent: Mole fraction of hex-1-ene	Mole fraction of .beta.-carotene	uncertainty
0	1.4e-05	3e-06
0.1004	3.4e-05	7e-06
0.2029	9.9e-05	2e-05
0.3008	0.000114	2.3e-05
0.3988	0.000167	3.4e-05
0.4997	0.000216	4.3e-05
0.4997	0.000211	4.2e-05
0.6066	0.000204	4.1e-05
0.7933	0.000203	4.1e-05
1	0.000187	3.7e-05

System: cyclohexanone + hex-1-ene + .beta.-carotene; phases: Liquid, Crystal
Fixed: Temperature, K = 293.15
Fixed: Pressure, kPa = 101
Property: Mole fraction of .beta.-carotene (Liquid); method: spectral colorimeter
Solvent: Mole fraction of hex-1-ene	Mole fraction of .beta.-carotene	uncertainty
0	0.00032	4.2e-05
0.0991	0.000511	7.4e-05
0.2151	0.00056	7.2e-05
0.3001	0.000618	7.8e-05
0.4137	0.000593	6.6e-05
0.4137	0.000575	6.8e-05
0.4983	0.000534	6e-05
0.5972	0.000523	7.6e-05
0.7023	0.000439	5.2e-05
0.796	0.00033	4e-05
0.9057	0.000251	1.2e-05
1	0.000187	8e-06
