Measured thermophysical data. Heat Capacity, Speed of Ultrasound, and Density for 1,5-Dibromopentane + Heptane within the Temperature Range from 293.15 K to 313.15 K
Source: J. Chem. Eng. Data, 2006, 10.1021/je060200b
Compound 1: heptane, C7H16, InChI=1S/C7H16/c1-3-5-7-6-4-2/h3-7H2,1-2H3
Compound 2: 1,5-dibromopentane, C5H10Br2, InChI=1S/C5H10Br2/c6-4-2-1-3-5-7/h1-5H2

System: heptane; phases: Liquid
Fixed: Pressure, kPa = 101
Property: Molar heat capacity at constant pressure, J/K/mol (Liquid); method: SDSC:UFactor:0.5
Temperature, K	Molar heat capacity at constant pressure, J/K/mol	uncertainty
293.15	222.87	1.73
294.15	223.23	1.73
295.15	223.6	1.73
296.15	223.97	1.73
297.15	224.35	1.74
298.15	224.72	1.74
299.15	225.1	1.74
300.15	225.47	1.75
301.15	225.87	1.75
302.15	226.22	1.75
303.15	226.61	1.76
304.15	227	1.76
305.15	227.4	1.76
306.15	227.75	1.76
307.15	228.14	1.77
308.15	228.54	1.77
309.15	228.95	1.77
310.15	229.3	1.78
311.15	229.71	1.78
312.15	230.11	1.78
313.15	230.51	1.79

System: heptane; phases: Liquid
Fixed: Pressure, kPa = 101
Property: Speed of sound, m/s (Liquid); method: Pulse-echo method
Temperature, K	Speed of sound, m/s	uncertainty
292.84	1153.67	0.77
298.84	1127.72	0.76
303.8	1106.38	0.75
308.78	1085.1	0.74
314.87	1059.14	0.74

System: heptane; phases: Liquid
Fixed: Pressure, kPa = 101
Property: Mass density, kg/m3 (Liquid); method: Vibrating tube method
Temperature, K	Mass density, kg/m3	uncertainty
292.7	684.18	0.19
297.98	679.88	0.19
302.94	675.72	0.19
308.06	671.47	0.19
314.1	666.39	0.19

System: 1,5-dibromopentane; phases: Liquid
Fixed: Pressure, kPa = 101
Property: Molar heat capacity at constant pressure, J/K/mol (Liquid); method: SDSC:UFactor:0.5
Temperature, K	Molar heat capacity at constant pressure, J/K/mol	uncertainty
293.15	219.76	1.7
294.15	219.98	1.7
295.15	220.19	1.71
296.15	220.41	1.71
297.15	220.66	1.71
298.15	220.84	1.71
299.15	221.1	1.71
300.15	221.28	1.71
301.15	221.49	1.72
302.15	221.73	1.72
303.15	221.95	1.72
304.15	222.17	1.72
305.15	222.41	1.72
306.15	222.63	1.72
307.15	222.85	1.73
308.15	223.09	1.73
309.15	223.31	1.73
310.15	223.56	1.73
311.15	223.78	1.73
312.15	224.03	1.74
313.15	224.26	1.74

System: 1,5-dibromopentane; phases: Liquid
Fixed: Pressure, kPa = 101
Property: Speed of sound, m/s (Liquid); method: Pulse-echo method
Temperature, K	Speed of sound, m/s	uncertainty
292.38	1149.48	1.2
298.37	1133.01	1.19
303.39	1119.29	1.19
308.38	1105.79	1.19
314.36	1089.74	1.19

System: 1,5-dibromopentane; phases: Liquid
Fixed: Pressure, kPa = 101
Property: Mass density, kg/m3 (Liquid); method: Vibrating tube method
Temperature, K	Mass density, kg/m3	uncertainty
292.52	1699.54	0.91
298.05	1691.87	0.91
303.06	1684.89	0.9
308.08	1678.03	0.9
314.66	1668.75	0.89

System: 1,5-dibromopentane + heptane; phases: Liquid
Fixed: Pressure, kPa = 101
Property: Molar heat capacity at constant pressure, J/K/mol (Liquid); method: SDSC:UFactor:0.5
Temperature, K	Mole fraction of 1,5-dibromopentane	Molar heat capacity at constant pressure, J/K/mol	uncertainty
293.15	0	222.87	1.73
293.15	0.1006	221.62	1.72
293.15	0.1994	221.15	1.71
293.15	0.3003	221	1.71
293.15	0.4008	220.91	1.71
293.15	0.5004	220.8	1.71
293.15	0.5999	220.5	1.71
293.15	0.6995	220.19	1.71
293.15	0.8002	219.87	1.7
293.15	0.899	219.89	1.7
293.15	1	219.76	1.7
294.15	0	223.23	1.73
294.15	0.1006	221.93	1.72
294.15	0.1994	221.54	1.72
294.15	0.3003	221.39	1.71
294.15	0.4008	221.29	1.71
294.15	0.5004	221.14	1.71
294.15	0.5999	220.66	1.71
294.15	0.6995	220.44	1.71
294.15	0.8002	220.16	1.71
294.15	0.899	220.02	1.7
294.15	1	219.98	1.7
295.15	0	223.6	1.73
295.15	0.1006	222.35	1.72
295.15	0.1994	221.76	1.72
295.15	0.3003	221.59	1.72
295.15	0.4008	221.6	1.72
295.15	0.5004	221.41	1.72
295.15	0.5999	220.91	1.71
295.15	0.6995	220.59	1.71
295.15	0.8002	220.44	1.71
295.15	0.899	220.3	1.71
295.15	1	220.19	1.71
296.15	0	223.97	1.73
296.15	0.1006	222.62	1.72
296.15	0.1994	222.09	1.72
296.15	0.3003	221.89	1.72
296.15	0.4008	221.77	1.72
296.15	0.5004	221.59	1.72
296.15	0.5999	221.3	1.71
296.15	0.6995	220.81	1.71
296.15	0.8002	220.57	1.71
296.15	0.899	220.61	1.71
296.15	1	220.41	1.71
297.15	0	224.35	1.74
297.15	0.1006	223.06	1.73
297.15	0.1994	222.53	1.72
297.15	0.3003	222.34	1.72
297.15	0.4008	222.15	1.72
297.15	0.5004	221.87	1.72
297.15	0.5999	221.5	1.72
297.15	0.6995	221.19	1.71
297.15	0.8002	220.89	1.71
297.15	0.899	220.76	1.71
297.15	1	220.66	1.71
298.15	0	224.72	1.74
298.15	0.1006	223.39	1.73
298.15	0.1994	222.84	1.73
298.15	0.3003	222.66	1.72
298.15	0.4008	222.48	1.72
298.15	0.5004	222.23	1.72
298.15	0.5999	221.68	1.72
298.15	0.6995	221.42	1.72
298.15	0.8002	221.11	1.71
298.15	0.899	221.09	1.71
298.15	1	220.84	1.71
299.15	0	225.1	1.74
299.15	0.1006	223.7	1.73
299.15	0.1994	223.2	1.73
299.15	0.3003	222.87	1.73
299.15	0.4008	222.74	1.73
299.15	0.5004	222.55	1.72
299.15	0.5999	221.91	1.72
299.15	0.6995	221.69	1.72
299.15	0.8002	221.39	1.71
299.15	0.899	221.32	1.71
299.15	1	221.1	1.71
300.15	0	225.47	1.75
300.15	0.1006	224.16	1.74
300.15	0.1994	223.42	1.73
300.15	0.3003	223.3	1.73
300.15	0.4008	222.91	1.73
300.15	0.5004	222.69	1.72
300.15	0.5999	222.3	1.72
300.15	0.6995	221.83	1.72
300.15	0.8002	221.48	1.72
300.15	0.899	221.55	1.72
300.15	1	221.28	1.71
301.15	0	225.87	1.75
301.15	0.1006	224.39	1.74
301.15	0.1994	223.89	1.73
301.15	0.3003	223.58	1.73
301.15	0.4008	223.33	1.73
301.15	0.5004	223.05	1.73
301.15	0.5999	222.57	1.72
301.15	0.6995	222.17	1.72
301.15	0.8002	221.85	1.72
301.15	0.899	221.77	1.72
301.15	1	221.49	1.72
302.15	0	226.22	1.75
302.15	0.1006	224.88	1.74
302.15	0.1994	224.24	1.74
302.15	0.3003	223.78	1.73
302.15	0.4008	223.52	1.73
302.15	0.5004	223.39	1.73
302.15	0.5999	222.87	1.73
302.15	0.6995	222.33	1.72
302.15	0.8002	222.09	1.72
302.15	0.899	221.93	1.72
302.15	1	221.73	1.72
303.15	0	226.61	1.76
303.15	0.1006	225.21	1.74
303.15	0.1994	224.57	1.74
303.15	0.3003	224.21	1.74
303.15	0.4008	223.81	1.73
303.15	0.5004	223.49	1.73
303.15	0.5999	223.01	1.73
303.15	0.6995	222.58	1.72
303.15	0.8002	222.36	1.72
303.15	0.899	222.22	1.72
303.15	1	221.95	1.72
304.15	0	227	1.76
304.15	0.1006	225.49	1.75
304.15	0.1994	224.9	1.74
304.15	0.3003	224.44	1.74
304.15	0.4008	224.26	1.74
304.15	0.5004	223.94	1.73
304.15	0.5999	223.37	1.73
304.15	0.6995	222.93	1.73
304.15	0.8002	222.44	1.72
304.15	0.899	222.36	1.72
304.15	1	222.17	1.72
305.15	0	227.4	1.76
305.15	0.1006	225.96	1.75
305.15	0.1994	225.3	1.75
305.15	0.3003	224.89	1.74
305.15	0.4008	224.59	1.74
305.15	0.5004	224.11	1.74
305.15	0.5999	223.63	1.73
305.15	0.6995	223.17	1.73
305.15	0.8002	222.81	1.73
305.15	0.899	222.72	1.73
305.15	1	222.41	1.72
306.15	0	227.75	1.76
306.15	0.1006	226.32	1.75
306.15	0.1994	225.5	1.75
306.15	0.3003	225.09	1.74
306.15	0.4008	224.8	1.74
306.15	0.5004	224.39	1.74
306.15	0.5999	223.91	1.73
306.15	0.6995	223.45	1.73
306.15	0.8002	223.05	1.73
306.15	0.899	222.99	1.73
306.15	1	222.63	1.72
307.15	0	228.14	1.77
307.15	0.1006	226.59	1.76
307.15	0.1994	225.83	1.75
307.15	0.3003	225.41	1.75
307.15	0.4008	225.15	1.74
307.15	0.5004	224.77	1.74
307.15	0.5999	224.05	1.74
307.15	0.6995	223.72	1.73
307.15	0.8002	223.33	1.73
307.15	0.899	223.23	1.73
307.15	1	222.85	1.73
308.15	0	228.54	1.77
308.15	0.1006	227.03	1.76
308.15	0.1994	226.31	1.75
308.15	0.3003	225.84	1.75
308.15	0.4008	225.38	1.75
308.15	0.5004	225.09	1.74
308.15	0.5999	224.36	1.74
308.15	0.6995	223.89	1.73
308.15	0.8002	223.55	1.73
308.15	0.899	223.34	1.73
308.15	1	223.09	1.73
309.15	0	228.95	1.77
309.15	0.1006	227.44	1.76
309.15	0.1994	226.66	1.76
309.15	0.3003	226.09	1.75
309.15	0.4008	225.8	1.75
309.15	0.5004	225.27	1.74
309.15	0.5999	224.76	1.74
309.15	0.6995	224.26	1.74
309.15	0.8002	223.77	1.73
309.15	0.899	223.6	1.73
309.15	1	223.31	1.73
310.15	0	229.3	1.78
310.15	0.1006	227.81	1.76
310.15	0.1994	226.87	1.76
310.15	0.3003	226.5	1.75
310.15	0.4008	226.12	1.75
310.15	0.5004	225.7	1.75
310.15	0.5999	224.95	1.74
310.15	0.6995	224.52	1.74
310.15	0.8002	224.04	1.74
310.15	0.899	223.81	1.73
310.15	1	223.56	1.73
311.15	0	229.71	1.78
311.15	0.1006	228.09	1.77
311.15	0.1994	227.25	1.76
311.15	0.3003	226.85	1.76
311.15	0.4008	226.31	1.75
311.15	0.5004	225.87	1.75
311.15	0.5999	225.3	1.75
311.15	0.6995	224.66	1.74
311.15	0.8002	224.19	1.74
311.15	0.899	224.19	1.74
311.15	1	223.78	1.73
312.15	0	230.11	1.78
312.15	0.1006	228.59	1.77
312.15	0.1994	227.7	1.76
312.15	0.3003	227.09	1.76
312.15	0.4008	226.6	1.76
312.15	0.5004	226.24	1.75
312.15	0.5999	225.58	1.75
312.15	0.6995	225.06	1.74
312.15	0.8002	224.56	1.74
312.15	0.899	224.44	1.74
312.15	1	224.03	1.74
313.15	0	230.51	1.79
313.15	0.1006	228.91	1.77
313.15	0.1994	228.06	1.77
313.15	0.3003	227.49	1.76
313.15	0.4008	227.05	1.76
313.15	0.5004	226.53	1.75
313.15	0.5999	225.84	1.75
313.15	0.6995	225.31	1.75
313.15	0.8002	224.81	1.74
313.15	0.899	224.67	1.74
313.15	1	224.26	1.74

System: 1,5-dibromopentane + heptane; phases: Liquid
Fixed: Pressure, kPa = 101
Property: Speed of sound, m/s (Liquid); method: Pulse-echo method
Mole fraction of 1,5-dibromopentane	Temperature, K	Speed of sound, m/s	uncertainty
0	292.84	1153.67	0.77
0	298.84	1127.72	0.76
0	303.8	1106.38	0.75
0	308.78	1085.1	0.74
0	314.87	1059.14	0.74
0.1	292.83	1131.1	0.79
0.1	298.83	1106.79	0.76
0.1	303.86	1086.53	0.76
0.1	308.84	1066.65	0.75
0.1	314.83	1042.82	0.72
0.2	292.65	1116.54	0.8
0.2	298.63	1093.8	0.78
0.2	303.59	1075.07	0.77
0.2	308.55	1056.44	0.77
0.2	314.61	1033.77	0.75
0.3001	292.68	1107.18	0.83
0.3001	298.67	1085.68	0.81
0.3001	303.63	1067.97	0.8
0.3001	308.67	1050.05	0.8
0.3001	314.54	1029.33	0.78
0.4	292.56	1103.46	0.86
0.4	298.62	1082.76	0.85
0.4	303.64	1065.77	0.84
0.4	308.58	1049.12	0.84
0.4	314.67	1028.81	0.82
0.5001	292.59	1104.16	0.91
0.5001	298.59	1084.55	0.89
0.5001	303.64	1068.27	0.89
0.5001	308.58	1052.4	0.88
0.5001	314.52	1033.4	0.87
0.6	292.76	1108.4	0.96
0.6	298.77	1089.63	0.94
0.6	303.72	1074.22	0.94
0.6	308.69	1058.86	0.94
0.6	314.75	1040.24	0.93
0.6997	292.8	1116.22	1.01
0.6997	298.8	1098.06	1
0.6997	303.78	1083.11	1
0.6997	308.82	1068.06	1
0.6997	314.82	1050.34	0.99
0.7999	292.73	1126.33	1.07
0.7999	298.76	1108.63	1.06
0.7999	303.71	1094.24	1.06
0.7999	308.7	1079.81	1.06
0.7999	314.68	1062.77	1.05
0.8998	292.75	1137.29	1.13
0.8998	298.73	1120.22	1.13
0.8998	303.67	1106.28	1.12
0.8998	308.67	1092.32	1.12
0.8998	314.7	1075.6	1.12
1	292.38	1149.48	1.2
1	298.37	1133.01	1.19
1	303.39	1119.29	1.19
1	308.38	1105.79	1.19
1	314.36	1089.74	1.19

System: 1,5-dibromopentane + heptane; phases: Liquid
Fixed: Pressure, kPa = 101
Property: Mass density, kg/m3 (Liquid); method: Vibrating tube method
Mole fraction of 1,5-dibromopentane	Temperature, K	Mass density, kg/m3	uncertainty
0	292.7	684.18	0.19
0	297.98	679.88	0.19
0	302.94	675.72	0.19
0	308.06	671.47	0.19
0	314.1	666.39	0.19
0.1006	292.52	779.97	0.21
0.1006	298.05	775.18	0.21
0.1006	303.06	770.79	0.21
0.1006	308.08	766.31	0.21
0.1006	314.66	760.22	0.21
0.1994	292.52	875.92	0.28
0.1994	298.05	870.87	0.28
0.1994	303.06	866	0.28
0.1994	308.08	861.23	0.28
0.1994	314.66	854.58	0.28
0.3003	292.52	975.53	0.39
0.3003	298.05	969.84	0.38
0.3003	303.06	964.71	0.38
0.3003	308.08	959.36	0.38
0.3003	314.66	952.58	0.38
0.4008	292.52	1075.8	0.51
0.4008	298.05	1070.23	0.51
0.4008	303.06	1064.63	0.5
0.4008	308.08	1058.93	0.5
0.4008	314.66	1052	0.5
0.5004	292.52	1176.68	0.64
0.5004	298.05	1170.91	0.63
0.5004	303.06	1165.02	0.63
0.5004	308.08	1159.11	0.63
0.5004	314.66	1151.72	0.63
0.5999	292.52	1278.62	0.62
0.5999	298.05	1272.47	0.62
0.5999	303.06	1266.37	0.62
0.5999	308.08	1260.5	0.62
0.5999	314.66	1252.55	0.61
0.6995	292.52	1381.6	0.65
0.6995	298.05	1375.26	0.64
0.6995	303.06	1368.9	0.64
0.6995	308.08	1362.98	0.64
0.6995	314.66	1354.65	0.63
0.8002	292.52	1487.16	0.7
0.8002	298.05	1480.47	0.7
0.8002	303.06	1474.36	0.7
0.8002	308.08	1467.91	0.69
0.8002	314.66	1459.75	0.69
0.899	292.52	1591.59	0.79
0.899	298.05	1584.66	0.79
0.899	303.06	1578.04	0.79
0.899	308.08	1571.77	0.78
0.899	314.66	1562.81	0.78
1	292.52	1699.54	0.91
1	298.05	1691.87	0.91
1	303.06	1684.89	0.9
1	308.08	1678.03	0.9
1	314.66	1668.75	0.89
