Measured thermophysical data. Vapor Pressures and Phase Transitions of a Series of the Aminonaphthalenes
Source: J. Chem. Eng. Data, 2007, 10.1021/je060394v
Compound 1: 1-naphthalenamine, C10H9N, InChI=1S/C10H9N/c11-10-7-3-5-8-4-1-2-6-9(8)10/h1-7H,11H2
Compound 2: 1,8-diaminonaphthalene, C10H10N2, InChI=1S/C10H10N2/c11-8-5-1-3-7-4-2-6-9(12)10(7)8/h1-6H,11-12H2
Compound 3: 1,5-diaminonaphthalene, C10H10N2, InChI=1S/C10H10N2/c11-9-5-1-3-7-8(9)4-2-6-10(7)12/h1-6H,11-12H2
Compound 4: .alpha.-dimethylaminonaphthalene, C12H13N, InChI=1S/C12H13N/c1-13(2)12-9-5-7-10-6-3-4-8-11(10)12/h3-9H,1-2H3
Compound 5: 1,8-bis(dimethylamino)naphthalene, C14H18N2, InChI=1S/C14H18N2/c1-15(2)12-9-5-7-11-8-6-10-13(14(11)12)16(3)4/h5-10H,1-4H3
Compound 6: 1,5-naphthalenediamine,N,N,N',N'-tetramethyl-, C14H18N2, InChI=1S/C14H18N2/c1-15(2)13-9-5-8-12-11(13)7-6-10-14(12)16(3)4/h5-10H,1-4H3

System: 1-naphthalenamine; phases: Crystal, Liquid, Air at 1 atmosphere
Property: Normal melting temperature, K (Crystal); method: Differential scanning calorimeter
Normal melting temperature, K	uncertainty
323	

System: 1-naphthalenamine; phases: Crystal, Liquid, Gas
Property: Molar enthalpy of transition or fusion, kJ/mol (Crystal); method: Differential scanning calorimeter
Molar enthalpy of transition or fusion, kJ/mol	uncertainty
16.18	

System: 1-naphthalenamine; phases: Liquid, Gas
Property: Vapor or sublimation pressure, kPa (Liquid); method: Transpiration method
Temperature, K	Vapor or sublimation pressure, kPa	uncertainty
323.2	0.00271	0.00019
326.2	0.00344	0.00024
329.2	0.00429	0.0003
332.3	0.00533	0.00037
335.3	0.00683	0.00048
338.1	0.00859	0.0006
341.1	0.01053	0.00073
344.1	0.01327	0.00092
347.1	0.01644	0.00115
350.1	0.01991	0.00139
353.1	0.02428	0.00169

System: 1-naphthalenamine; phases: Crystal, Gas
Property: Vapor or sublimation pressure, kPa (Crystal); method: Transpiration method
Temperature, K	Vapor or sublimation pressure, kPa	uncertainty
290.3	6e-05	1e-05
293.3	9e-05	1e-05
298.3	0.00017	1e-05
303.3	0.0003	2e-05
308.3	0.00055	4e-05
311.5	0.00076	5e-05
314.2	0.00103	7e-05
316.2	0.00124	9e-05
318.2	0.00155	0.00011
320.2	0.00191	0.00013

System: 1,8-diaminonaphthalene; phases: Crystal, Liquid, Air at 1 atmosphere
Property: Molar enthalpy of transition or fusion, kJ/mol (Crystal); method: DSC
Molar enthalpy of transition or fusion, kJ/mol	uncertainty
16.15	0.5

System: 1,8-diaminonaphthalene; phases: Crystal, Liquid, Air at 1 atmosphere
Property: Normal melting temperature, K (Crystal); method: DTA
Normal melting temperature, K	uncertainty
339.8	0.5

System: 1,8-diaminonaphthalene; phases: Liquid, Gas
Property: Vapor or sublimation pressure, kPa (Liquid); method: Transpiration method
Temperature, K	Vapor or sublimation pressure, kPa	uncertainty
339.5	0.00062	4e-05
341.5	0.00072	5e-05
344.6	0.00091	6e-05
346.1	0.00103	7e-05
349.3	0.00128	9e-05
352.4	0.00162	0.00011
355.3	0.00203	0.00014
358.5	0.0025	0.00017
361.4	0.00295	0.00021
364.5	0.00373	0.00026
367.6	0.00459	0.00032
370.6	0.00567	0.0004
373.2	0.00663	0.00046
376.2	0.00804	0.00056
379.3	0.00966	0.00067

System: 1,8-diaminonaphthalene; phases: Crystal, Gas
Property: Vapor or sublimation pressure, kPa (Crystal); method: Transpiration method
Temperature, K	Vapor or sublimation pressure, kPa	uncertainty
304.4	1.7e-05	1e-06
307.3	2.4e-05	2e-06
310.3	3.4e-05	2e-06
313.6	5.1e-05	4e-06
315.2	6.1e-05	4e-06
318.2	8.6e-05	6e-06
320.3	0.000101	7e-06
322.2	0.00013	9e-06
323.5	0.000152	1.1e-05
324.2	0.000162	1.1e-05
326.5	0.00021	1.5e-05
327.2	0.000223	1.6e-05
329.1	0.000273	1.9e-05
330.2	0.000302	2.1e-05
331.2	0.000339	2.4e-05
331.8	0.000348	2.4e-05
332.2	0.000372	2.6e-05
333.2	0.000414	2.9e-05
333.7	0.000422	2.9e-05
335.2	0.000526	3.7e-05
335.7	0.000535	3.7e-05

System: 1,5-diaminonaphthalene; phases: Crystal, Gas
Property: Vapor or sublimation pressure, kPa (Crystal); method: Transpiration method
Temperature, K	Vapor or sublimation pressure, kPa	uncertainty
345.3	1.39e-05	1e-06
347.3	1.75e-05	1.3e-06
349.3	2.21e-05	1.6e-06
350.3	2.42e-05	1.7e-06
351.3	2.72e-05	1.9e-06
353.3	3.5e-05	2.5e-06
354.3	3.83e-05	2.7e-06
355.3	4.42e-05	3.1e-06
357.3	5.4e-05	3.8e-06
359.3	6.56e-05	4.6e-06
360.4	7.41e-05	5.2e-06
361.3	8.56e-05	6e-06
363.4	0.0001051	7.4e-06
366.4	0.0001455	1.02e-05
368.4	0.0001808	1.26e-05
369.3	0.0002045	1.43e-05
371.3	0.0002502	1.75e-05

System: .alpha.-dimethylaminonaphthalene; phases: Liquid, Gas
Property: Vapor or sublimation pressure, kPa (Liquid); method: Transpiration method
Temperature, K	Vapor or sublimation pressure, kPa	uncertainty
283.2	0.00026	2e-05
285.2	0.00032	2e-05
287.7	0.00041	3e-05
291.3	0.00058	4e-05
295.3	0.00083	6e-05
298.2	0.00105	7e-05
304.2	0.00184	0.00013
307.3	0.00245	0.00017
310.3	0.00305	0.00021
313.3	0.00389	0.00027
316.3	0.00497	0.00035
319.4	0.00642	0.00045
322.2	0.00785	0.00055
325.3	0.00989	0.00069
328.2	0.01234	0.00086
331.2	0.01545	0.00108
334.3	0.01929	0.00134

System: 1,8-bis(dimethylamino)naphthalene; phases: Liquid, Gas
Property: Vapor or sublimation pressure, kPa (Liquid); method: Transpiration method
Temperature, K	Vapor or sublimation pressure, kPa	uncertainty
323.7	0.00204	0.00014
326.2	0.00254	0.00018
329.2	0.0032	0.00022
332.1	0.00408	0.00028
333.3	0.00447	0.00031
334.5	0.00484	0.00034
337.5	0.00599	0.00042
340.3	0.00733	0.00051
343.4	0.00946	0.00066
346.3	0.01152	0.0008
349.2	0.01397	0.00097
352.3	0.01756	0.00122
355.2	0.0225	0.00157
358.4	0.02775	0.00193
361.2	0.03298	0.0023
364.3	0.03966	0.00276

System: 1,8-bis(dimethylamino)naphthalene; phases: Crystal, Gas
Property: Vapor or sublimation pressure, kPa (Crystal); method: Transpiration method
Temperature, K	Vapor or sublimation pressure, kPa	uncertainty
290.7	4.5e-05	3e-06
293.2	6.5e-05	5e-06
296.1	9.4e-05	7e-06
298.3	0.000124	9e-06
298.7	0.000126	9e-06
301.4	0.000192	1.3e-05
304.3	0.00027	1.9e-05
306.7	0.000343	2.4e-05
308.4	0.000433	3e-05
308.5	0.000454	3.2e-05
310.9	0.000576	4e-05
313.7	0.000802	5.6e-05

System: 1,5-naphthalenediamine,N,N,N',N'-tetramethyl-; phases: Crystal, Liquid, Air at 1 atmosphere
Property: Normal melting temperature, K (Crystal); method: DTA
Normal melting temperature, K	uncertainty
361	1

System: 1,5-naphthalenediamine,N,N,N',N'-tetramethyl-; phases: Crystal, Gas
Property: Vapor or sublimation pressure, kPa (Crystal); method: Transpiration method
Temperature, K	Vapor or sublimation pressure, kPa	uncertainty
318.2	0.000165	1.2e-05
322.2	0.000262	1.8e-05
325.2	0.00036	2.5e-05
326.7	0.000432	3e-05
328.1	0.000493	3.4e-05
328.2	0.000491	3.4e-05
329.6	0.000591	4.1e-05
330.6	0.000625	4.4e-05
331.2	0.000733	5.1e-05
331.9	0.000751	5.2e-05
332.7	0.000809	5.6e-05
333.5	0.000899	6.3e-05
335.7	0.001104	7.7e-05
338.1	0.001407	9.8e-05
338.2	0.00144	0.000101
339.2	0.001532	0.000107
340.7	0.001739	0.000121
341.3	0.001952	0.000136
343.2	0.002351	0.000164
344.4	0.002574	0.000179
345.7	0.003001	0.000209
348.2	0.003918	0.000273
349.5	0.00423	0.000295
350.7	0.004832	0.000337
351.5	0.005213	0.000363
353.2	0.00621	0.000433
354.5	0.006941	0.000484
355.7	0.007956	0.000554
