Measured thermophysical data. Liquid-Liquid Equilibrium in Binary System [bmim][PF6] + 1-Butanol
Source: J. Chem. Eng. Data, 2006, 10.1021/je060260h
Compound 1: butan-1-ol, C4H10O, InChI=1S/C4H10O/c1-2-3-4-5/h5H,2-4H2,1H3, purity 99.5%
Compound 2: 1-butyl-3-methylimidazolium hexafluorophosphate, C8H15F6N2P, InChI=1S/C8H15N2.F6P/c1-3-4-5-10-7-6-9(2)8-10;1-7(2,3,4,5)6/h6-8H,3-5H2,1-2H3;/q+1;-1, purity 99%

System: butan-1-ol; phases: Liquid
Property: Refractive index (Na D-line) (Liquid); method: Standard Abbe refractometry
Temperature, K	Pressure, kPa	Refractive index (Na D-line)	uncertainty
298.15	101.325	1.39686	0.00033

System: 1-butyl-3-methylimidazolium hexafluorophosphate; phases: Liquid
Property: Refractive index (Na D-line) (Liquid); method: Standard Abbe refractometry
Temperature, K	Pressure, kPa	Refractive index (Na D-line)	uncertainty
298.15	101.325	1.40925	0.00037

System: butan-1-ol + 1-butyl-3-methylimidazolium hexafluorophosphate; phases: Liquid mixture 1, Liquid mixture 2
Fixed: Pressure, kPa = 101
Property: Liquid-liquid equilibrium temperature, K (Liquid mixture 1); method: VISOBS:UFactor:4
Mole fraction of 1-butyl-3-methylimidazolium hexafluorophosphate	Liquid-liquid equilibrium temperature, K	uncertainty
0.0056	343.87	1.41
0.0078	350.83	1.41
0.0285	375.4	0.73
0.0376	378.39	0.5
0.0493	379.97	0.5
0.0641	381.69	0.5
0.0762	382.39	0.5
0.085	382.65	0.5
0.0956	382.94	0.5
0.1133	383.17	0.5
0.1271	383.19	0.5
0.1457	383.18	0.5
0.1535	383.21	0.5
0.1661	383.08	0.5
0.1872	383	0.5
0.1951	382.81	0.5
0.2082	382.48	0.5
0.2167	382.21	0.5
0.2615	380.52	2
0.3058	376.03	2
0.3523	373.59	2
0.377	369.86	2
0.4643	361.61	2
0.5171	354.48	2
0.5982	341.43	2
0.6822	326.14	2
0.7261	317.12	2
0.819	296.47	2

System: butan-1-ol + 1-butyl-3-methylimidazolium hexafluorophosphate; phases: Liquid mixture 1, Liquid mixture 2
Fixed: Pressure, kPa = 101.3
Property: Mole fraction of 1-butyl-3-methylimidazolium hexafluorophosphate (Liquid mixture 1); method: Volumetric method
Temperature, K	Mole fraction of 1-butyl-3-methylimidazolium hexafluorophosphate	uncertainty
288.15	0.854	0.006
298.15	0.82	0.006
308.15	0.78	0.006
318.15	0.738	0.006
328.15	0.684	0.006

System: butan-1-ol + 1-butyl-3-methylimidazolium hexafluorophosphate; phases: Liquid mixture 2, Liquid mixture 1
Fixed: Pressure, kPa = 101.3
Property: Mole fraction of 1-butyl-3-methylimidazolium hexafluorophosphate (Liquid mixture 2); method: Volumetric method
Temperature, K	Mole fraction of 1-butyl-3-methylimidazolium hexafluorophosphate	uncertainty
288.15	0.0021	0.0008
298.15	0.0024	0.0008
308.15	0.0024	0.0008
318.15	0.0026	0.0008
328.15	0.0037	0.0008
