Measured thermophysical data. Thermodynamic Properties of Three Pyridine Carboxylic Acid Methyl Ester Isomers
Source: J. Chem. Eng. Data, 2007, 10.1021/je060472e
Compound 1: carbon dioxide, CO2, InChI=1S/CO2/c2-1-3
Compound 2: nitrogen, N2, InChI=1S/N2/c1-2
Compound 3: water, H2O, InChI=1S/H2O/h1H2
Compound 4: oxygen, O2, InChI=1S/O2/c1-2
Compound 5: methyl 2-pyridinecarboxylate, C7H7NO2, InChI=1S/C7H7NO2/c1-10-7(9)6-4-2-3-5-8-6/h2-5H,1H3
Compound 6: 3-pyridinecarboxylic acid methyl ester, C7H7NO2, InChI=1S/C7H7NO2/c1-10-7(9)6-3-2-4-8-5-6/h2-5H,1H3
Compound 7: methyl 4-pyridinecarboxylate, C7H7NO2, InChI=1S/C7H7NO2/c1-10-7(9)6-2-4-8-5-3-6/h2-5H,1H3

System: methyl 2-pyridinecarboxylate; phases: Crystal, Liquid, Gas
Property: Molar enthalpy of transition or fusion, kJ/mol (Crystal); method: DSC
Molar enthalpy of transition or fusion, kJ/mol	uncertainty
16.8	0.4

System: methyl 2-pyridinecarboxylate; phases: Crystal, Liquid, Air at 1 atmosphere
Property: Normal melting temperature, K (Crystal); method: DTA
Normal melting temperature, K	uncertainty
289.2	0.5

System: methyl 2-pyridinecarboxylate; phases: Crystal, Gas
Property: Vapor or sublimation pressure, kPa (Crystal); method: Closed cell (Static) method
Temperature, K	Vapor or sublimation pressure, kPa	uncertainty
278.2	0.000582	9.6e-05
278.2	0.00058	9.6e-05
280.67	0.000793	0.0001
280.68	0.000794	0.0001
283.15	0.001087	0.000105
283.16	0.001086	0.000105
285.65	0.001476	0.000113
285.65	0.001472	0.000113
288.14	0.001988	0.000126
288.15	0.001989	0.000126
290.63	0.002681	0.000145
290.65	0.002682	0.000145

System: methyl 2-pyridinecarboxylate; phases: Liquid, Gas
Property: Vapor or sublimation pressure, kPa (Liquid); method: Closed cell (Static) method
Temperature, K	Vapor or sublimation pressure, kPa	uncertainty
273.21	0.00051	9.4e-05
273.21	0.000505	9.4e-05
278.18	0.00086	0.0001
278.18	0.000856	0.0001
283.15	0.001403	0.000111
283.16	0.001399	0.000111
288.13	0.002242	0.000132
288.14	0.002246	0.000132
293.12	0.00357	0.000173
293.13	0.003566	0.000172
298.15	0.005628	0.000243
298.15	0.005601	0.000242
303.15	0.008522	0.000349
303.15	0.008506	0.000349
308.08	0.0128	0.00051
308.11	0.01279	0.00051
313.12	0.01919	0.00061
313.13	0.01916	0.00061
318.09	0.02771	0.00074
318.09	0.02763	0.00074
323.05	0.03968	0.00092
328.04	0.05628	0.00118
328.04	0.05632	0.00118
333.01	0.0787	0.00153
333.02	0.07876	0.00153
337.99	0.1088	0.002
337.99	0.1088	0.002
340.47	0.127	0.0023

System: methyl 2-pyridinecarboxylate; phases: Gas
Property: Molar enthalpy, kJ/mol (Gas); method: vacuum sublimation drop microcalorimetry
Temperature, K	Pressure, kPa	Molar enthalpy, kJ/mol	uncertainty
386	100	78.3	3.5

System: 3-pyridinecarboxylic acid methyl ester; phases: Crystal, Liquid, Gas
Property: Molar enthalpy of transition or fusion, kJ/mol (Crystal); method: DSC
Molar enthalpy of transition or fusion, kJ/mol	uncertainty
19.3	0.7

System: 3-pyridinecarboxylic acid methyl ester; phases: Crystal, Liquid, Air at 1 atmosphere
Property: Normal melting temperature, K (Crystal); method: DTA
Normal melting temperature, K	uncertainty
312.6	0.4

System: 3-pyridinecarboxylic acid methyl ester; phases: Crystal, Gas
Property: Vapor or sublimation pressure, kPa (Crystal); method: Closed cell (Static) method
Temperature, K	Vapor or sublimation pressure, kPa	uncertainty
273.23	0.000651	9.6e-05
273.23	0.000658	9.6e-05
278.2	0.001228	0.000106
278.2	0.001214	0.000106
283.18	0.002269	0.000132
283.19	0.002282	0.000132
283.19	0.002271	0.000132
288.16	0.00406	0.000188
288.16	0.004076	0.000188
293.16	0.007318	0.000304
293.16	0.007304	0.000303
298.14	0.0127	0.00051
298.16	0.01269	0.00051
303.14	0.0216	0.00065
303.14	0.02159	0.00065
308.1	0.03586	0.00087
308.11	0.03587	0.00087
310.6	0.04566	0.00102
310.61	0.04595	0.00102
310.61	0.04557	0.00102

System: 3-pyridinecarboxylic acid methyl ester; phases: Liquid, Gas
Property: Vapor or sublimation pressure, kPa (Liquid); method: Closed cell (Static) method
Temperature, K	Vapor or sublimation pressure, kPa	uncertainty
298.14	0.01819	0.00059
298.15	0.01819	0.00059
303.13	0.02715	0.00073
303.13	0.02712	0.00073
305.12	0.03186	0.0008
305.13	0.03188	0.0008
307.11	0.03712	0.00088
307.11	0.03709	0.00088
309.1	0.0431	0.00098
309.1	0.04306	0.00098
311.07	0.0502	0.00109
311.08	0.05006	0.00109
313.07	0.05817	0.00121
313.08	0.05817	0.00121
315.06	0.06722	0.00135
315.07	0.06704	0.00135
317.04	0.07707	0.0015
317.05	0.07715	0.0015
318.08	0.08317	0.0016
318.11	0.0833	0.0016
319.09	0.08886	0.00169
319.09	0.08886	0.00169
321.08	0.102	0.0019
321.08	0.103	0.0019
323.09	0.1177	0.0021
323.09	0.1177	0.0021
324.06	0.1247	0.0022
324.06	0.1246	0.0022

System: methyl 4-pyridinecarboxylate; phases: Crystal, Liquid, Gas
Property: Molar enthalpy of transition or fusion, kJ/mol (Crystal); method: DSC
Molar enthalpy of transition or fusion, kJ/mol	uncertainty
14.6	0.7

System: methyl 4-pyridinecarboxylate; phases: Crystal, Liquid, Air at 1 atmosphere
Property: Normal melting temperature, K (Crystal); method: DTA
Normal melting temperature, K	uncertainty
283.4	0.9

System: methyl 4-pyridinecarboxylate; phases: Liquid, Gas
Property: Vapor or sublimation pressure, kPa (Liquid); method: Closed cell (Static) method
Temperature, K	Vapor or sublimation pressure, kPa	uncertainty
273.26	0.002588	0.000138
273.26	0.002588	0.000138
275.74	0.003349	0.000162
275.74	0.003323	0.000161
278.22	0.004243	0.000192
278.23	0.004253	0.000193
280.71	0.005373	0.000232
280.71	0.005383	0.000232
283.19	0.006753	0.000282
283.19	0.006753	0.000282
285.66	0.008443	0.000345
285.66	0.008443	0.000345
288.16	0.01054	0.00042
288.16	0.01054	0.00042
290.65	0.01308	0.00051
290.65	0.01308	0.00051
293.15	0.01615	0.00056
293.16	0.01617	0.00056
295.65	0.0199	0.00062
295.65	0.0199	0.00062
298.13	0.02427	0.00069
298.14	0.02428	0.00069
300.63	0.0296	0.00077
300.63	0.02961	0.00077
303.12	0.03595	0.00087
303.13	0.03597	0.00087
305.62	0.04347	0.00098
305.63	0.04348	0.00098
308.09	0.05219	0.00112
308.09	0.05219	0.00112
310.59	0.06266	0.00128
310.6	0.0627	0.00128
313.07	0.07495	0.00147
313.07	0.0749	0.00147
315.54	0.08924	0.00169
315.56	0.08934	0.00169
318.03	0.1062	0.002
318.03	0.1062	0.002
320.52	0.1256	0.0023
320.52	0.1256	0.0023

System: methyl 4-pyridinecarboxylate; phases: Gas
Property: Molar enthalpy, kJ/mol (Gas); method: vacuum sublimation drop microcalorimetry
Temperature, K	Pressure, kPa	Molar enthalpy, kJ/mol	uncertainty
388	100	79.2	2.7

Reaction: -1 methyl 2-pyridinecarboxylate + 7 carbon dioxide + .5 nitrogen + 3.5 water + -7.75 oxygen
Property: Specific internal energy of reaction at constant volume, J/g
-25386.5

Reaction: -1 3-pyridinecarboxylic acid methyl ester + 7 carbon dioxide + .5 nitrogen + 3.5 water + -7.75 oxygen
Property: Specific internal energy of reaction at constant volume, J/g
-25231

Reaction: -1 methyl 4-pyridinecarboxylate + 7 carbon dioxide + .5 nitrogen + 3.5 water + -7.75 oxygen
Property: Specific internal energy of reaction at constant volume, J/g
-25347.1
