Measured thermophysical data. High-Pressure Density Measurements for the Binary System Cyclohexane + n-Hexadecane in the Temperature Range of (318.15 to 413.15) K
Source: J. Chem. Eng. Data, 2007, 10.1021/je0605036
Compound 1: cyclohexane, C6H12, InChI=1S/C6H12/c1-2-4-6-5-3-1/h1-6H2
Compound 2: hexadecane, C16H34, InChI=1S/C16H34/c1-3-5-7-9-11-13-15-16-14-12-10-8-6-4-2/h3-16H2,1-2H3

System: cyclohexane; phases: Liquid
Property: Mass density, kg/m3 (Liquid); method: VIBTUB:UFactor:6
Temperature, K	Pressure, kPa	Mass density, kg/m3	uncertainty
318.15	6895	761.5	1.5
318.15	13789	767.7	1.8
318.15	20684	773.8	2
318.15	27579	779	2.3
318.15	34474	784.1	2.5
318.15	41369	788.7	2.8
318.15	48263	793.4	3.1
318.15	55158	797.4	3.4
318.15	62053	801.4	3.6
333.15	6895	747.3	1.6
333.15	13789	754.1	1.8
333.15	20684	760.5	2.1
333.15	27579	766.5	2.4
333.15	34474	772	2.7
333.15	41369	777	3
333.15	48263	781.7	3.3
333.15	55158	786.3	3.5
333.15	62053	790.7	3.8
348.15	6895	733.6	1.6
348.15	13789	741.2	1.9
348.15	20684	748.2	2.2
348.15	27579	754.5	2.4
348.15	34474	760.5	2.8
348.15	41369	766.1	3.1
348.15	48263	771.4	3.4
348.15	55158	776.2	3.7
348.15	62053	781.1	4
363.15	6895	719.6	1.6
363.15	13789	727.9	1.9
363.15	20684	735.7	2.2
363.15	27579	742.8	2.5
363.15	34474	749.1	2.9
363.15	41369	755.3	3.2
363.15	48263	760.7	3.5
363.15	55158	765.8	3.9
363.15	62053	771	4.1
388.15	6895	694.7	1.7
388.15	13789	705	2
388.15	20684	713.9	2.4
388.15	27579	721.9	2.7
388.15	34474	729.2	3.1
388.15	41369	736	3.5
388.15	48263	742.2	3.8
388.15	55158	747.8	4.1
388.15	62053	753.2	4.4
413.15	6895	669.7	1.8
413.15	13789	682.1	2.1
413.15	20684	692.5	2.5
413.15	27579	701.8	2.9
413.15	34474	710.1	3.3
413.15	41369	717.7	3.7
413.15	48263	724.9	4
413.15	55158	731.2	4.4
413.15	62053	737.2	4.7

System: hexadecane; phases: Liquid
Property: Mass density, kg/m3 (Liquid); method: VIBTUB:UFactor:6
Temperature, K	Pressure, kPa	Mass density, kg/m3	uncertainty
318.15	6895	760.3	1.5
318.15	13789	765	1.8
318.15	20684	769.6	2
318.15	27579	773.9	2.3
318.15	34474	777.7	2.6
318.15	41369	781.5	2.9
318.15	48263	785.2	3.2
318.15	55158	788.7	3.5
318.15	62053	791.7	3.8
333.15	6895	750.7	1.5
333.15	13789	755.8	1.8
333.15	20684	760.4	2.1
333.15	27579	765.1	2.4
333.15	34474	769.7	2.7
333.15	41369	773.9	3
333.15	48263	777.6	3.3
333.15	55158	781.2	3.6
333.15	62053	784.3	3.9
348.15	6895	741.7	1.6
348.15	13789	747.2	1.9
348.15	20684	752.5	2.1
348.15	27579	757.2	2.4
348.15	34474	761.9	2.8
348.15	41369	766.1	3.1
348.15	48263	770.2	3.4
348.15	55158	774.1	3.7
348.15	62053	777.6	4
363.15	6895	732	1.6
363.15	13789	738.1	1.9
363.15	20684	743.9	2.2
363.15	27579	748.6	2.5
363.15	34474	753.7	2.9
363.15	41369	758.4	3.2
363.15	48263	762.6	3.5
363.15	55158	766.7	3.8
363.15	62053	770.5	4.2
388.15	6895	714.7	1.6
388.15	13789	721.7	2
388.15	20684	728.1	2.3
388.15	27579	733.9	2.6
388.15	34474	739.2	3
388.15	41369	744.1	3.4
388.15	48263	748.8	3.7
388.15	55158	753.3	4
388.15	62053	757.5	4.4
413.15	6895	696.2	1.7
413.15	13789	704.3	2
413.15	20684	711	2.4
413.15	27579	717.9	2.8
413.15	34474	723.7	3.2
413.15	41369	729.4	3.5
413.15	48263	734.5	3.9
413.15	55158	739.5	4.3
413.15	62053	743.8	4.6

System: cyclohexane + hexadecane; phases: Liquid
Property: Mass density, kg/m3 (Liquid); method: VIBTUB:UFactor:6
Temperature, K	Mole fraction of cyclohexane	Pressure, kPa	Mass density, kg/m3	uncertainty
318.15	0	6895	760.3	1.5
318.15	0	13789	765	1.8
318.15	0	20684	769.6	2
318.15	0	27579	773.9	2.3
318.15	0	34474	777.7	2.6
318.15	0	41369	781.5	2.9
318.15	0	48263	785.2	3.2
318.15	0	55158	788.7	3.5
318.15	0	62053	791.7	3.8
318.15	0.1002	6895	760.3	1.5
318.15	0.1002	13789	765.1	1.8
318.15	0.1002	20684	769.8	2
318.15	0.1002	27579	773.9	2.3
318.15	0.1002	34474	778	2.6
318.15	0.1002	41369	781.8	2.9
318.15	0.1002	48263	785.5	3.2
318.15	0.1002	55158	788.8	3.5
318.15	0.1002	62053	792.2	3.8
318.15	0.3	6895	759.6	1.5
318.15	0.3	13789	763.9	1.8
318.15	0.3	20684	768.9	2.1
318.15	0.3	27579	773.5	2.3
318.15	0.3	34474	777.7	2.6
318.15	0.3	41369	781.5	2.9
318.15	0.3	48263	785.4	3.2
318.15	0.3	55158	788.8	3.5
318.15	0.3	62053	792.3	3.8
318.15	0.5	6895	758.6	1.5
318.15	0.5	13789	763.9	1.8
318.15	0.5	20684	768.8	2.1
318.15	0.5	27579	773.2	2.3
318.15	0.5	34474	777.6	2.6
318.15	0.5	41369	781.6	2.9
318.15	0.5	48263	785.5	3.2
318.15	0.5	55158	789	3.5
318.15	0.5	62053	792.5	3.8
318.15	0.7	6895	757.6	1.5
318.15	0.7	13789	763.3	1.8
318.15	0.7	20684	768.2	2.1
318.15	0.7	27579	772.9	2.3
318.15	0.7	34474	777.6	2.6
318.15	0.7	41369	781.8	2.9
318.15	0.7	48263	785.8	3.2
318.15	0.7	55158	789.4	3.5
318.15	0.7	62053	793.2	3.8
318.15	0.8	6895	758.1	1.5
318.15	0.8	13789	763.6	1.8
318.15	0.8	20684	768.9	2.1
318.15	0.8	27579	773.8	2.3
318.15	0.8	34474	778.4	2.6
318.15	0.8	41369	782.9	2.9
318.15	0.8	48263	786.9	3.2
318.15	0.8	55158	790.7	3.5
318.15	0.8	62053	794.6	3.8
318.15	0.9	6895	758.5	1.5
318.15	0.9	13789	764.6	1.8
318.15	0.9	20684	770.3	2
318.15	0.9	27579	775.3	2.3
318.15	0.9	34474	780	2.6
318.15	0.9	41369	784.6	2.9
318.15	0.9	48263	788.8	3.2
318.15	0.9	55158	792.9	3.5
318.15	0.9	62053	796.7	3.7
318.15	1	6895	761.5	1.5
318.15	1	13789	767.7	1.8
318.15	1	20684	773.8	2
318.15	1	27579	779	2.3
318.15	1	34474	784.1	2.5
318.15	1	41369	788.7	2.8
318.15	1	48263	793.4	3.1
318.15	1	55158	797.4	3.4
318.15	1	62053	801.4	3.6
333.15	0	6895	750.7	1.5
333.15	0	13789	755.8	1.8
333.15	0	20684	760.4	2.1
333.15	0	27579	765.1	2.4
333.15	0	34474	769.7	2.7
333.15	0	41369	773.9	3
333.15	0	48263	777.6	3.3
333.15	0	55158	781.2	3.6
333.15	0	62053	784.3	3.9
333.15	0.1002	6895	750.4	1.5
333.15	0.1002	13789	755.8	1.8
333.15	0.1002	20684	760.4	2.1
333.15	0.1002	27579	765	2.4
333.15	0.1002	34474	769.5	2.7
333.15	0.1002	41369	773.4	3
333.15	0.1002	48263	777.2	3.3
333.15	0.1002	55158	781	3.6
333.15	0.1002	62053	784.4	3.9
333.15	0.3	6895	749.3	1.6
333.15	0.3	13789	754.4	1.8
333.15	0.3	20684	759.5	2.1
333.15	0.3	27579	764.1	2.4
333.15	0.3	34474	768.3	2.7
333.15	0.3	41369	772.4	3
333.15	0.3	48263	776.5	3.3
333.15	0.3	55158	780.4	3.6
333.15	0.3	62053	783.8	3.9
333.15	0.5	6895	747.8	1.6
333.15	0.5	13789	753.5	1.8
333.15	0.5	20684	758.6	2.1
333.15	0.5	27579	763.6	2.4
333.15	0.5	34474	768.3	2.7
333.15	0.5	41369	772.5	3
333.15	0.5	48263	776.6	3.3
333.15	0.5	55158	780.5	3.6
333.15	0.5	62053	784.1	3.9
333.15	0.7	6895	746.2	1.6
333.15	0.7	13789	752.1	1.8
333.15	0.7	20684	757.6	2.1
333.15	0.7	27579	762.7	2.4
333.15	0.7	34474	767.5	2.7
333.15	0.7	41369	772.1	3
333.15	0.7	48263	776.1	3.3
333.15	0.7	55158	780.6	3.6
333.15	0.7	62053	784.2	3.9
333.15	0.8	6895	746.6	1.6
333.15	0.8	13789	752.8	1.8
333.15	0.8	20684	758.4	2.1
333.15	0.8	27579	763.6	2.4
333.15	0.8	34474	768.6	2.7
333.15	0.8	41369	773.3	3
333.15	0.8	48263	777.5	3.3
333.15	0.8	55158	781.9	3.6
333.15	0.8	62053	786	3.9
333.15	0.9	6895	745.9	1.6
333.15	0.9	13789	752.3	1.8
333.15	0.9	20684	758.4	2.1
333.15	0.9	27579	763.8	2.4
333.15	0.9	34474	768.9	2.7
333.15	0.9	41369	773.9	3
333.15	0.9	48263	778.7	3.3
333.15	0.9	55158	783.2	3.6
333.15	0.9	62053	787.3	3.9
333.15	1	6895	747.3	1.6
333.15	1	13789	754.1	1.8
333.15	1	20684	760.5	2.1
333.15	1	27579	766.5	2.4
333.15	1	34474	772	2.7
333.15	1	41369	777	3
333.15	1	48263	781.7	3.3
333.15	1	55158	786.3	3.5
333.15	1	62053	790.7	3.8
348.15	0	6895	741.7	1.6
348.15	0	13789	747.2	1.9
348.15	0	20684	752.5	2.1
348.15	0	27579	757.2	2.4
348.15	0	34474	761.9	2.8
348.15	0	41369	766.1	3.1
348.15	0	48263	770.2	3.4
348.15	0	55158	774.1	3.7
348.15	0	62053	777.6	4
348.15	0.1002	6895	741.3	1.6
348.15	0.1002	13789	747	1.9
348.15	0.1002	20684	752.1	2.1
348.15	0.1002	27579	757.2	2.4
348.15	0.1002	34474	761.8	2.8
348.15	0.1002	41369	766.1	3.1
348.15	0.1002	48263	770.2	3.4
348.15	0.1002	55158	773.9	3.7
348.15	0.1002	62053	777.5	4
348.15	0.2	6895	740.4	1.6
348.15	0.2	13789	745.9	1.9
348.15	0.2	20684	751.1	2.1
348.15	0.2	27579	756.3	2.4
348.15	0.2	34474	760.8	2.8
348.15	0.2	41369	765.1	3.1
348.15	0.2	48263	769.2	3.4
348.15	0.2	55158	773.5	3.7
348.15	0.2	62053	777.2	4
348.15	0.3	6895	739.8	1.6
348.15	0.3	13789	745.6	1.9
348.15	0.3	20684	751	2.1
348.15	0.3	27579	756.1	2.4
348.15	0.3	34474	760.7	2.8
348.15	0.3	41369	765.3	3.1
348.15	0.3	48263	769.5	3.4
348.15	0.3	55158	773.4	3.7
348.15	0.3	62053	777.2	4
348.15	0.5	6895	737.5	1.6
348.15	0.5	13789	743.5	1.9
348.15	0.5	20684	749.1	2.2
348.15	0.5	27579	754.3	2.5
348.15	0.5	34474	758.9	2.8
348.15	0.5	41369	763.9	3.1
348.15	0.5	48263	768.2	3.4
348.15	0.5	55158	772.3	3.8
348.15	0.5	62053	776.3	4.1
348.15	0.7	6895	735.7	1.6
348.15	0.7	13789	742.3	1.9
348.15	0.7	20684	748.1	2.2
348.15	0.7	27579	753.7	2.5
348.15	0.7	34474	758.9	2.8
348.15	0.7	41369	763.6	3.1
348.15	0.7	48263	768.3	3.4
348.15	0.7	55158	772.6	3.8
348.15	0.7	62053	776.8	4
348.15	0.8	6895	735.7	1.6
348.15	0.8	13789	742.4	1.9
348.15	0.8	20684	748.5	2.2
348.15	0.8	27579	754.3	2.5
348.15	0.8	34474	759.6	2.8
348.15	0.8	41369	764.6	3.1
348.15	0.8	48263	769.3	3.4
348.15	0.8	55158	773.8	3.7
348.15	0.8	62053	777.9	4
348.15	0.9	6895	734.7	1.6
348.15	0.9	13789	741.9	1.9
348.15	0.9	20684	748.3	2.2
348.15	0.9	27579	754.3	2.5
348.15	0.9	34474	760	2.8
348.15	0.9	41369	765.2	3.1
348.15	0.9	48263	770	3.4
348.15	0.9	55158	774.6	3.7
348.15	0.9	62053	779.1	4
348.15	1	6895	733.6	1.6
348.15	1	13789	741.2	1.9
348.15	1	20684	748.2	2.2
348.15	1	27579	754.5	2.5
348.15	1	34474	760.5	2.8
348.15	1	41369	766.1	3.1
348.15	1	48263	771.4	3.4
348.15	1	55158	776.2	3.7
348.15	1	62053	781.1	4
363.15	0	6895	732	1.6
363.15	0	13789	738.1	1.9
363.15	0	20684	743.9	2.2
363.15	0	27579	748.6	2.5
363.15	0	34474	753.7	2.9
363.15	0	41369	758.4	3.2
363.15	0	48263	762.6	3.5
363.15	0	55158	766.7	3.8
363.15	0	62053	770.5	4.2
363.15	0.1002	6895	731.4	1.6
363.15	0.1002	13789	737.5	1.9
363.15	0.1002	20684	743.3	2.2
363.15	0.1002	27579	748.4	2.5
363.15	0.1002	34474	753.4	2.9
363.15	0.1002	41369	758.1	3.2
363.15	0.1002	48263	762.5	3.5
363.15	0.1002	55158	766.6	3.8
363.15	0.1002	62053	770.4	4.2
363.15	0.3	6895	729.8	1.6
363.15	0.3	13789	736.2	1.9
363.15	0.3	20684	742	2.2
363.15	0.3	27579	747.2	2.5
363.15	0.3	34474	752.4	2.9
363.15	0.3	41369	757	3
363.15	0.3	48263	761.6	3.5
363.15	0.3	55158	765.7	3.9
363.15	0.3	62053	769.7	4.2
363.15	0.5	6895	727	1.6
363.15	0.5	13789	733.6	1.9
363.15	0.5	20684	739.4	2.2
363.15	0.5	27579	745.1	2.5
363.15	0.5	34474	750.3	2.9
363.15	0.5	41369	755.5	3.2
363.15	0.5	48263	760.1	3.6
363.15	0.5	55158	764.4	3.9
363.15	0.5	62053	768.6	4.2
363.15	0.7	6895	725	1.6
363.15	0.7	13789	732.2	1.9
363.15	0.7	20684	738.6	2.2
363.15	0.7	27579	744.3	2.5
363.15	0.7	34474	749.8	2.9
363.15	0.7	41369	755.2	3.2
363.15	0.7	48263	760	3.6
363.15	0.7	55158	764.6	3.9
363.15	0.7	62053	768.8	4.2
363.15	0.8	6895	724.5	1.6
363.15	0.8	13789	731.8	1.9
363.15	0.8	20684	738.4	2.2
363.15	0.8	27579	744.5	2.5
363.15	0.8	34474	750.3	2.9
363.15	0.8	41369	755.7	3.2
363.15	0.8	48263	760.6	3.5
363.15	0.8	55158	765.3	3.9
363.15	0.8	62053	770.1	4.2
363.15	0.9	6895	722.6	1.6
363.15	0.9	13789	730.3	1.9
363.15	0.9	20684	737.5	2.2
363.15	0.9	27579	744.2	2.5
363.15	0.9	34474	750.3	2.9
363.15	0.9	41369	755.7	3.2
363.15	0.9	48263	760.9	3.5
363.15	0.9	55158	765.8	3.9
363.15	0.9	62053	770.6	4.2
363.15	1	6895	719.6	1.6
363.15	1	13789	727.9	1.9
363.15	1	20684	735.7	2.2
363.15	1	27579	742.8	2.5
363.15	1	34474	749.1	2.9
363.15	1	41369	755.3	3.2
363.15	1	48263	760.7	3.5
363.15	1	55158	765.8	3.9
363.15	1	62053	771	4.1
388.15	0	6895	714.7	1.6
388.15	0	13789	721.7	2
388.15	0	20684	728.1	2.3
388.15	0	27579	733.9	2.6
388.15	0	34474	739.2	3
388.15	0	41369	744.1	3.4
388.15	0	48263	748.8	3.7
388.15	0	55158	753.3	4
388.15	0	62053	757.5	4.4
388.15	0.1002	6895	714	1.6
388.15	0.1002	13789	721.2	2
388.15	0.1002	20684	727.6	2.3
388.15	0.1002	27579	733.4	2.6
388.15	0.1002	34474	739	3
388.15	0.1002	41369	744.1	3.4
388.15	0.1002	48263	748.7	3.7
388.15	0.1002	55158	753.1	4
388.15	0.1002	62053	757.3	4.4
388.15	0.3	6895	711.7	1.7
388.15	0.3	13789	718.9	2
388.15	0.3	20684	725.5	2.3
388.15	0.3	27579	731.6	2.6
388.15	0.3	34474	737.1	3
388.15	0.3	41369	742.2	3.4
388.15	0.3	48263	747.2	3.7
388.15	0.3	55158	751.8	4.1
388.15	0.3	62053	755.9	4.4
388.15	0.5	6895	709.5	1.7
388.15	0.5	13789	717.1	2
388.15	0.5	20684	723.8	2.3
388.15	0.5	27579	730.3	2.7
388.15	0.5	34474	736.1	3
388.15	0.5	41369	741.2	3.4
388.15	0.5	48263	746.5	3.7
388.15	0.5	55158	751.5	4.1
388.15	0.5	62053	755.7	4.4
388.15	0.7	6895	704.3	1.7
388.15	0.7	13789	712.6	2
388.15	0.7	20684	720	2.3
388.15	0.7	27579	726.8	2.7
388.15	0.7	34474	732.7	3.1
388.15	0.7	41369	738.4	3.4
388.15	0.7	48263	743.5	3.8
388.15	0.7	55158	748.5	4.1
388.15	0.7	62053	753.4	4.4
388.15	0.8	6895	702	1.7
388.15	0.8	13789	710.2	2
388.15	0.8	20684	718.2	2.3
388.15	0.8	27579	725	3
388.15	0.8	34474	731.6	3.1
388.15	0.8	41369	737.4	3.4
388.15	0.8	48263	743	3.8
388.15	0.8	55158	748	4.1
388.15	0.8	62053	753	4.4
388.15	0.9	6895	700	1.7
388.15	0.9	13789	709.3	2
388.15	0.9	20684	717.5	2.3
388.15	0.9	27579	724.8	2.7
388.15	0.9	34474	731.8	3.1
388.15	0.9	41369	738.1	3.4
388.15	0.9	48263	743.7	3.8
388.15	0.9	55158	749.3	4.1
388.15	0.9	62053	754.3	4.4
388.15	1	6895	694.7	1.7
388.15	1	13789	705	2
388.15	1	20684	713.9	2.4
388.15	1	27579	721.9	2.7
388.15	1	34474	729.2	3.1
388.15	1	41369	736	3.5
388.15	1	48263	742.2	3.8
388.15	1	55158	747.8	4.1
388.15	1	62053	753.2	4.4
413.15	0	6895	696.2	1.7
413.15	0	13789	704.3	2
413.15	0	20684	711	2.4
413.15	0	27579	717.9	2.8
413.15	0	34474	723.7	3.2
413.15	0	41369	729.4	3.5
413.15	0	48263	734.5	3.9
413.15	0	55158	739.5	4.3
413.15	0	62053	743.8	4.6
413.15	0.1002	6895	694.6	1.7
413.15	0.1002	13789	702.9	2
413.15	0.1002	20684	710	2.4
413.15	0.1002	27579	717	2.8
413.15	0.1002	34474	723	3.2
413.15	0.1002	41369	728.8	3.6
413.15	0.1002	48263	734	3.9
413.15	0.1002	55158	738.8	4.3
413.15	0.1002	62053	743.2	4.6
413.15	0.3	6895	692.4	1.7
413.15	0.3	13789	700.9	2.1
413.15	0.3	20684	708.2	2.4
413.15	0.3	27579	714.9	2.8
413.15	0.3	34474	721.2	3.2
413.15	0.3	41369	726.9	3.6
413.15	0.3	48263	732.3	3.9
413.15	0.3	55158	737.1	4.3
413.15	0.3	62053	741.7	4.6
413.15	0.5	6895	687.7	1.7
413.15	0.5	13789	696.7	2.1
413.15	0.5	20684	704.6	2.4
413.15	0.5	27579	711.5	2.8
413.15	0.5	34474	718.2	3.2
413.15	0.5	41369	724.1	3.6
413.15	0.5	48263	729.7	4
413.15	0.5	55158	734.9	4.3
413.15	0.5	62053	739.7	4.7
413.15	0.7	6895	682	1.7
413.15	0.7	13789	691.7	2.1
413.15	0.7	20684	700.2	2.4
413.15	0.7	27579	707.7	2.9
413.15	0.7	34474	714.8	3.3
413.15	0.7	41369	721.2	3.6
413.15	0.7	48263	726.8	4
413.15	0.7	55158	732.4	4.4
413.15	0.7	62053	737.4	4.7
413.15	0.8	6895	680	1.7
413.15	0.8	13789	690.3	2.1
413.15	0.8	20684	699.3	2.5
413.15	0.8	27579	707.2	2.9
413.15	0.8	34474	714.6	3.3
413.15	0.8	41369	721.3	3.6
413.15	0.8	48263	727.3	4
413.15	0.8	55158	733.1	4.4
413.15	0.8	62053	738.2	4.7
413.15	0.9	6895	675.9	1.8
413.15	0.9	13789	687	2.1
413.15	0.9	20684	696.8	2.5
413.15	0.9	27579	705.2	2.9
413.15	0.9	34474	713	3.3
413.15	0.9	41369	719.7	3.7
413.15	0.9	48263	726.7	4
413.15	0.9	55158	732.5	4.4
413.15	0.9	62053	737.8	4.7
413.15	1	6895	669.7	1.8
413.15	1	13789	682.1	2.1
413.15	1	20684	692.5	2.5
413.15	1	27579	701.8	2.9
413.15	1	34474	710.1	3.3
413.15	1	41369	717.7	3.7
413.15	1	48263	724.9	4
413.15	1	55158	731.2	4.4
413.15	1	62053	737.2	4.7
